VWT.pdb
     RDKit          3D

 29 30  0  0  1  0  0  0  0  0999 V2000
   26.1375  -19.4925  -15.5120 C   0  0  0  0  0  0  0  0  0  0  0  0
   27.6054  -19.4391  -15.0522 C   0  0  2  0  0  0  0  0  0  0  0  0
   28.4308  -19.1513  -16.2768 C   0  0  0  0  0  0  0  0  0  0  0  0
   27.9199  -20.8156  -14.4949 C   0  0  2  0  0  0  0  0  0  0  0  0
   27.3748  -21.7540  -15.4868 N   0  0  0  0  0  0  0  0  0  0  0  0
   27.2472  -21.0749  -13.2041 C   0  0  0  0  0  0  0  0  0  0  0  0
   26.1147  -21.6085  -13.2246 O   0  0  0  0  0  0  0  0  0  0  0  0
   27.8130  -20.7562  -11.9272 N   0  0  0  0  0  0  0  0  0  0  0  0
   27.1655  -20.8066  -10.6716 C   0  0  1  0  0  0  0  0  0  0  0  0
   27.8833  -20.3920   -9.4595 C   0  0  0  0  0  0  0  0  0  0  0  0
   27.0943  -20.4488   -8.2026 C   0  0  0  0  0  0  0  0  0  0  0  0
   25.8163  -20.9091   -7.9858 C   0  0  0  0  0  0  0  0  0  0  0  0
   25.4968  -20.7510   -6.6638 N   0  0  0  0  0  0  0  0  0  0  0  0
   26.5273  -20.2036   -6.0235 C   0  0  0  0  0  0  0  0  0  0  0  0
   26.7482  -19.8296   -4.7117 C   0  0  0  0  0  0  0  0  0  0  0  0
   27.9549  -19.2698   -4.3496 C   0  0  0  0  0  0  0  0  0  0  0  0
   28.9584  -19.0766   -5.2997 C   0  0  0  0  0  0  0  0  0  0  0  0
   28.7308  -19.4531   -6.6108 C   0  0  0  0  0  0  0  0  0  0  0  0
   27.5272  -20.0054   -6.9437 C   0  0  0  0  0  0  0  0  0  0  0  0
   25.8110  -20.1371  -10.7061 C   0  0  0  0  0  0  0  0  0  0  0  0
   25.7687  -18.8798  -10.8122 O   0  0  0  0  0  0  0  0  0  0  0  0
   23.5133  -20.8798  -13.3296 C   0  0  0  0  0  0  0  0  0  0  0  0
   23.3643  -19.7062  -12.3828 C   0  0  1  0  0  0  0  0  0  0  0  0
   22.1201  -19.1087  -12.6886 O   0  0  0  0  0  0  0  0  0  0  0  0
   23.3057  -20.1603  -10.9422 C   0  0  2  0  0  0  0  0  0  0  0  0
   24.5873  -20.8153  -10.6280 N   0  0  0  0  0  0  0  0  0  0  0  0
   22.1800  -21.0831  -10.7033 C   0  0  0  0  0  0  0  0  0  0  0  0
   20.8726  -20.6415  -10.8076 O   0  0  0  0  0  0  0  0  0  0  0  0
   22.4005  -22.2870  -10.4002 O   0  0  0  0  0  0  0  0  0  0  0  0
  2  3  1  6
  2  1  1  0
  4  5  1  6
  4  2  1  0
  6  4  1  0
  7  6  2  0
  8  6  1  0
  9  8  1  0
  9 10  1  1
 10 11  1  0
 11 19  1  0
 12 11  2  0
 12 13  1  0
 13 14  1  0
 14 15  1  0
 15 16  2  0
 17 16  1  0
 18 17  2  0
 19 14  2  0
 19 18  1  0
 20  9  1  0
 21 20  2  0
 23 22  1  6
 23 24  1  0
 23 25  1  0
 25 26  1  6
 26 20  1  0
 27 25  1  0
 27 28  1  0
 29 27  2  0
M  END
$$$$
