VWT.pdb
     RDKit          3D

 29 30  0  0  1  0  0  0  0  0999 V2000
   26.6622  -19.1603  -15.6090 C   0  0  0  0  0  0  0  0  0  0  0  0
   27.6725  -18.6375  -14.5721 C   0  0  2  0  0  0  0  0  0  0  0  0
   28.7632  -17.9451  -15.3435 C   0  0  0  0  0  0  0  0  0  0  0  0
   28.2076  -19.8632  -13.8540 C   0  0  2  0  0  0  0  0  0  0  0  0
   28.5906  -20.7893  -14.9298 N   0  0  0  0  0  0  0  0  0  0  0  0
   27.1822  -20.5292  -13.0227 C   0  0  0  0  0  0  0  0  0  0  0  0
   26.5214  -21.4618  -13.5339 O   0  0  0  0  0  0  0  0  0  0  0  0
   26.8988  -20.1758  -11.6637 N   0  0  0  0  0  0  0  0  0  0  0  0
   25.9132  -20.7423  -10.8235 C   0  0  1  0  0  0  0  0  0  0  0  0
   26.0057  -20.5735   -9.3678 C   0  0  0  0  0  0  0  0  0  0  0  0
   27.3525  -20.8031   -8.7854 C   0  0  0  0  0  0  0  0  0  0  0  0
   28.4292  -21.4864   -9.3006 C   0  0  0  0  0  0  0  0  0  0  0  0
   29.4610  -21.4493   -8.4012 N   0  0  0  0  0  0  0  0  0  0  0  0
   29.0827  -20.7648   -7.3242 C   0  0  0  0  0  0  0  0  0  0  0  0
   29.7064  -20.4273   -6.1383 C   0  0  0  0  0  0  0  0  0  0  0  0
   29.0292  -19.6908   -5.1899 C   0  0  0  0  0  0  0  0  0  0  0  0
   27.7147  -19.2819   -5.4179 C   0  0  0  0  0  0  0  0  0  0  0  0
   27.0963  -19.6231   -6.6069 C   0  0  0  0  0  0  0  0  0  0  0  0
   27.7888  -20.3531   -7.5299 C   0  0  0  0  0  0  0  0  0  0  0  0
   24.5142  -20.3983  -11.2804 C   0  0  0  0  0  0  0  0  0  0  0  0
   24.1257  -19.2026  -11.1661 O   0  0  0  0  0  0  0  0  0  0  0  0
   23.1608  -21.0435  -14.6831 C   0  0  0  0  0  0  0  0  0  0  0  0
   22.1149  -21.5379  -13.7043 C   0  0  1  0  0  0  0  0  0  0  0  0
   22.3358  -22.9268  -13.5599 O   0  0  0  0  0  0  0  0  0  0  0  0
   22.2900  -20.9083  -12.3413 C   0  0  2  0  0  0  0  0  0  0  0  0
   23.6082  -21.3174  -11.8264 N   0  0  0  0  0  0  0  0  0  0  0  0
   21.2212  -21.3129  -11.4087 C   0  0  0  0  0  0  0  0  0  0  0  0
   19.9131  -20.9138  -11.6203 O   0  0  0  0  0  0  0  0  0  0  0  0
   21.4917  -22.0284  -10.4064 O   0  0  0  0  0  0  0  0  0  0  0  0
  2  3  1  6
  2  1  1  0
  4  5  1  6
  4  2  1  0
  6  4  1  0
  7  6  2  0
  8  6  1  0
  9  8  1  0
  9 10  1  1
 10 11  1  0
 11 19  1  0
 12 11  2  0
 12 13  1  0
 13 14  1  0
 14 15  1  0
 15 16  2  0
 17 16  1  0
 18 17  2  0
 19 14  2  0
 19 18  1  0
 20  9  1  0
 21 20  2  0
 23 22  1  6
 23 24  1  0
 23 25  1  0
 25 26  1  1
 26 20  1  0
 27 25  1  0
 27 28  1  0
 29 27  2  0
M  END
$$$$
