VWT.pdb
     RDKit          3D

 29 30  0  0  1  0  0  0  0  0999 V2000
   26.6227  -19.3821  -15.3793 C   0  0  0  0  0  0  0  0  0  0  0  0
   27.6198  -18.7347  -14.4017 C   0  0  2  0  0  0  0  0  0  0  0  0
   28.6820  -18.0778  -15.2409 C   0  0  0  0  0  0  0  0  0  0  0  0
   28.2003  -19.8723  -13.5813 C   0  0  2  0  0  0  0  0  0  0  0  0
   28.6274  -20.8691  -14.5740 N   0  0  0  0  0  0  0  0  0  0  0  0
   27.1982  -20.5074  -12.6992 C   0  0  0  0  0  0  0  0  0  0  0  0
   26.5399  -21.4720  -13.1510 O   0  0  0  0  0  0  0  0  0  0  0  0
   26.9347  -20.0898  -11.3544 N   0  0  0  0  0  0  0  0  0  0  0  0
   25.9856  -20.6386  -10.4620 C   0  0  1  0  0  0  0  0  0  0  0  0
   26.1429  -20.4457   -9.0149 C   0  0  0  0  0  0  0  0  0  0  0  0
   27.5016  -20.7190   -8.4810 C   0  0  0  0  0  0  0  0  0  0  0  0
   28.5424  -21.4221   -9.0416 C   0  0  0  0  0  0  0  0  0  0  0  0
   29.6038  -21.4256   -8.1767 N   0  0  0  0  0  0  0  0  0  0  0  0
   29.2793  -20.7482   -7.0778 C   0  0  0  0  0  0  0  0  0  0  0  0
   29.9504  -20.4452   -5.9086 C   0  0  0  0  0  0  0  0  0  0  0  0
   29.3245  -19.7061   -4.9275 C   0  0  0  0  0  0  0  0  0  0  0  0
   28.0145  -19.2598   -5.1057 C   0  0  0  0  0  0  0  0  0  0  0  0
   27.3485  -19.5665   -6.2783 C   0  0  0  0  0  0  0  0  0  0  0  0
   27.9907  -20.2999   -7.2344 C   0  0  0  0  0  0  0  0  0  0  0  0
   24.5688  -20.2971  -10.8624 C   0  0  0  0  0  0  0  0  0  0  0  0
   24.1828  -19.1022  -10.7317 O   0  0  0  0  0  0  0  0  0  0  0  0
   23.1341  -20.5747  -14.1573 C   0  0  0  0  0  0  0  0  0  0  0  0
   22.1316  -21.2561  -13.2480 C   0  0  1  0  0  0  0  0  0  0  0  0
   22.4263  -22.6377  -13.3018 O   0  0  0  0  0  0  0  0  0  0  0  0
   22.2964  -20.8144  -11.8118 C   0  0  2  0  0  0  0  0  0  0  0  0
   23.6435  -21.2175  -11.3724 N   0  0  0  0  0  0  0  0  0  0  0  0
   21.2674  -21.4043  -10.9349 C   0  0  0  0  0  0  0  0  0  0  0  0
   19.9401  -21.0322  -11.0570 O   0  0  0  0  0  0  0  0  0  0  0  0
   21.5900  -22.2557  -10.0626 O   0  0  0  0  0  0  0  0  0  0  0  0
  2  3  1  6
  2  1  1  0
  4  5  1  6
  4  2  1  0
  6  4  1  0
  7  6  2  0
  8  6  1  0
  9  8  1  0
  9 10  1  1
 10 11  1  0
 11 19  1  0
 12 11  2  0
 12 13  1  0
 13 14  1  0
 14 15  1  0
 15 16  2  0
 17 16  1  0
 18 17  2  0
 19 14  2  0
 19 18  1  0
 20  9  1  0
 21 20  2  0
 23 22  1  6
 23 24  1  0
 23 25  1  0
 25 26  1  1
 26 20  1  0
 27 25  1  0
 27 28  1  0
 29 27  2  0
M  END
$$$$
