RRE.pdb
     RDKit          3D

 32 31  0  0  1  0  0  0  0  0999 V2000
   46.1569  -16.0005   -6.4128 N   0  0  0  0  0  0  0  0  0  0  0  0
   47.3232  -15.6406   -7.1826 C   0  0  0  0  0  0  0  0  0  0  0  0
   48.2025  -16.5263   -7.5020 N   0  0  0  0  0  0  0  0  0  0  0  0
   47.5373  -14.3083   -7.6072 N   0  0  0  0  0  0  0  0  0  0  0  0
   46.7208  -13.2273   -7.0621 C   0  0  0  0  0  0  0  0  0  0  0  0
   45.3736  -13.2964   -7.7254 C   0  0  0  0  0  0  0  0  0  0  0  0
   44.3975  -12.2493   -7.3526 C   0  0  0  0  0  0  0  0  0  0  0  0
   43.9839  -11.2805   -8.3977 C   0  0  2  0  0  0  0  0  0  0  0  0
   45.0114  -10.7704   -9.2442 N   0  0  0  0  0  0  0  0  0  0  0  0
   43.2390  -10.1830   -7.7028 C   0  0  0  0  0  0  0  0  0  0  0  0
   42.2922  -10.5048   -6.9387 O   0  0  0  0  0  0  0  0  0  0  0  0
   49.0801  -16.3770   -7.9963 N   0  0  0  0  0  0  0  0  0  0  0  0
   44.7128   -2.5987   -3.7093 C   0  0  0  0  0  0  0  0  0  0  0  0
   43.3212   -2.5883   -4.0188 N   0  0  0  0  0  0  0  0  0  0  0  0
   42.6049   -1.6026   -3.6315 N   0  0  0  0  0  0  0  0  0  0  0  0
   42.7214   -3.6540   -4.7478 C   0  0  0  0  0  0  0  0  0  0  0  0
   43.5737   -4.7011   -5.2423 C   0  0  0  0  0  0  0  0  0  0  0  0
   42.7505   -5.6510   -6.0803 C   0  0  0  0  0  0  0  0  0  0  0  0
   43.5696   -6.8063   -6.5568 C   0  0  1  0  0  0  0  0  0  0  0  0
   42.7137   -7.7368   -7.3665 N   0  0  0  0  0  0  0  0  0  0  0  0
   43.5379   -8.8207   -7.8565 C   0  0  0  0  0  0  0  0  0  0  0  0
   41.9715   -7.0603   -8.4430 O   0  0  0  0  0  0  0  0  0  0  0  0
   42.6236   -6.5510   -9.3881 N   0  0  0  0  0  0  0  0  0  0  0  0
   41.5792   -1.6072   -3.8097 C   0  0  2  0  0  0  0  0  0  0  0  0
   40.5723   -6.9562   -8.4648 C   0  0  0  0  0  0  0  0  0  0  0  0
   39.8863   -6.2327   -9.5588 C   0  0  0  0  0  0  0  0  0  0  0  0
   39.3411   -7.2149  -10.5328 C   0  0  0  0  0  0  0  0  0  0  0  0
   38.5666   -6.5561  -11.6296 O   0  0  0  0  0  0  0  0  0  0  0  0
   38.1155   -7.4496  -12.7079 C   0  0  0  0  0  0  0  0  0  0  0  0
   38.3081   -8.6701  -12.6899 O   0  0  0  0  0  0  0  0  0  0  0  0
   38.8562   -5.3458   -8.9837 O   0  0  0  0  0  0  0  0  0  0  0  0
   38.2384   -4.5413   -9.7532 O   0  0  0  0  0  0  0  0  0  0  0  0
  2  3  2  0
  2  1  1  0
  4  2  1  0
  5  4  1  0
  6  7  1  0
  6  5  1  0
  8 10  1  0
  8  7  1  0
  8  9  1  1
 10 11  2  0
 13 12  1  0
 14 13  2  0
 15 13  1  0
 16 15  1  0
 17 16  1  0
 17 18  1  0
 19 18  1  1
 20 19  1  0
 20 10  1  0
 21 23  1  0
 21 19  1  0
 22 21  2  0
 24 25  1  6
 24 23  1  0
 25 26  1  0
 26 27  1  0
 27 31  1  0
 27 28  2  0
 29 32  1  0
 29 24  1  0
 30 29  2  0
M  END
$$$$
