RRE.pdb
     RDKit          3D

 32 31  0  0  1  0  0  0  0  0999 V2000
   26.2913  -19.8320   -8.9938 N   0  0  0  0  0  0  0  0  0  0  0  0
   25.7574  -21.1004   -9.4281 C   0  0  0  0  0  0  0  0  0  0  0  0
   24.9270  -21.7542   -8.6915 N   0  0  0  0  0  0  0  0  0  0  0  0
   26.1296  -21.6641  -10.6711 N   0  0  0  0  0  0  0  0  0  0  0  0
   27.0586  -20.9547  -11.5464 C   0  0  0  0  0  0  0  0  0  0  0  0
   26.4621  -20.9404  -12.9262 C   0  0  0  0  0  0  0  0  0  0  0  0
   25.0174  -21.2418  -13.0261 C   0  0  0  0  0  0  0  0  0  0  0  0
   24.4128  -21.3074  -14.3797 C   0  0  2  0  0  0  0  0  0  0  0  0
   25.3127  -21.3282  -15.4853 N   0  0  0  0  0  0  0  0  0  0  0  0
   23.4386  -20.1744  -14.4760 C   0  0  0  0  0  0  0  0  0  0  0  0
   22.5492  -20.0845  -13.5902 O   0  0  0  0  0  0  0  0  0  0  0  0
   24.4660  -22.6351   -8.9107 N   0  0  0  0  0  0  0  0  0  0  0  0
   22.8058  -12.9311  -19.6785 C   0  0  0  0  0  0  0  0  0  0  0  0
   21.5751  -13.0481  -18.9683 N   0  0  0  0  0  0  0  0  0  0  0  0
   20.6949  -12.1292  -19.0932 N   0  0  0  0  0  0  0  0  0  0  0  0
   21.3146  -14.1662  -18.1266 C   0  0  0  0  0  0  0  0  0  0  0  0
   22.3944  -15.0755  -17.8535 C   0  0  0  0  0  0  0  0  0  0  0  0
   21.9202  -16.1223  -16.8731 C   0  0  0  0  0  0  0  0  0  0  0  0
   22.9433  -17.1948  -16.6843 C   0  0  2  0  0  0  0  0  0  0  0  0
   22.4273  -18.2264  -15.7234 N   0  0  0  0  0  0  0  0  0  0  0  0
   23.4630  -19.2112  -15.4961 C   0  0  0  0  0  0  0  0  0  0  0  0
   21.1539  -18.8329  -16.1451 O   0  0  0  0  0  0  0  0  0  0  0  0
   21.1889  -19.7827  -16.9665 N   0  0  0  0  0  0  0  0  0  0  0  0
   19.7822  -12.2169  -18.6001 C   0  0  2  0  0  0  0  0  0  0  0  0
   19.9038  -18.4019  -15.6754 C   0  0  0  0  0  0  0  0  0  0  0  0
   18.6842  -19.1995  -15.9349 C   0  0  0  0  0  0  0  0  0  0  0  0
   18.8501  -20.5570  -15.3518 C   0  0  0  0  0  0  0  0  0  0  0  0
   17.8420  -20.8432  -14.2847 O   0  0  0  0  0  0  0  0  0  0  0  0
   17.4801  -22.2601  -14.1226 C   0  0  0  0  0  0  0  0  0  0  0  0
   18.2685  -23.1828  -14.3552 O   0  0  0  0  0  0  0  0  0  0  0  0
   17.5099  -18.4764  -15.4089 O   0  0  0  0  0  0  0  0  0  0  0  0
   17.6655  -17.6857  -14.4232 O   0  0  0  0  0  0  0  0  0  0  0  0
  2  3  2  0
  2  1  1  0
  4  2  1  0
  5  4  1  0
  6  7  1  0
  6  5  1  0
  8 10  1  0
  8  7  1  0
  8  9  1  6
 10 11  2  0
 13 12  1  0
 14 13  2  0
 15 13  1  0
 16 15  1  0
 17 16  1  0
 17 18  1  0
 19 18  1  1
 20 19  1  0
 20 10  1  0
 21 23  1  0
 21 19  1  0
 22 21  2  0
 24 25  1  6
 24 23  1  0
 25 26  1  0
 26 27  1  0
 27 31  1  0
 27 28  2  0
 29 32  1  0
 29 24  1  0
 30 29  2  0
M  END
$$$$
