RRE.pdb
     RDKit          3D

 32 31  0  0  1  0  0  0  0  0999 V2000
   18.3904  -22.9753  -11.7721 N   0  0  0  0  0  0  0  0  0  0  0  0
   19.1747  -23.6955  -12.7462 C   0  0  0  0  0  0  0  0  0  0  0  0
   18.6712  -24.6871  -13.3964 N   0  0  0  0  0  0  0  0  0  0  0  0
   20.5165  -23.3372  -13.0149 N   0  0  0  0  0  0  0  0  0  0  0  0
   21.1532  -22.2654  -12.2545 C   0  0  0  0  0  0  0  0  0  0  0  0
   20.8209  -20.9665  -12.9343 C   0  0  0  0  0  0  0  0  0  0  0  0
   21.8040  -20.4639  -13.9186 C   0  0  0  0  0  0  0  0  0  0  0  0
   21.4911  -19.2002  -14.6309 C   0  0  2  0  0  0  0  0  0  0  0  0
   20.3198  -19.1935  -15.4436 N   0  0  0  0  0  0  0  0  0  0  0  0
   22.7129  -18.8275  -15.4122 C   0  0  0  0  0  0  0  0  0  0  0  0
   22.9526  -19.4640  -16.4711 O   0  0  0  0  0  0  0  0  0  0  0  0
   19.1493  -25.3071  -14.0473 N   0  0  0  0  0  0  0  0  0  0  0  0
   27.1035  -11.4441  -15.6525 C   0  0  0  0  0  0  0  0  0  0  0  0
   26.0296  -12.0241  -16.3894 N   0  0  0  0  0  0  0  0  0  0  0  0
   25.1729  -11.2572  -16.9485 N   0  0  0  0  0  0  0  0  0  0  0  0
   25.8982  -13.4365  -16.5098 C   0  0  0  0  0  0  0  0  0  0  0  0
   26.8499  -14.2671  -15.8231 C   0  0  0  0  0  0  0  0  0  0  0  0
   26.4967  -15.7171  -16.0570 C   0  0  0  0  0  0  0  0  0  0  0  0
   25.2601  -16.1033  -15.3125 C   0  0  2  0  0  0  0  0  0  0  0  0
   24.8204  -17.4755  -15.7341 N   0  0  0  0  0  0  0  0  0  0  0  0
   23.6018  -17.8115  -15.0296 C   0  0  0  0  0  0  0  0  0  0  0  0
   25.8660  -18.4993  -15.5740 O   0  0  0  0  0  0  0  0  0  0  0  0
   25.8591  -19.2010  -14.5322 N   0  0  0  0  0  0  0  0  0  0  0  0
   24.3769  -11.6700  -17.4774 C   0  0  1  0  0  0  0  0  0  0  0  0
   26.8699  -18.7291  -16.5272 C   0  0  0  0  0  0  0  0  0  0  0  0
   27.7223  -19.9366  -16.4495 C   0  0  0  0  0  0  0  0  0  0  0  0
   26.8610  -21.1485  -16.4518 C   0  0  0  0  0  0  0  0  0  0  0  0
   27.6602  -22.4125  -16.4764 O   0  0  0  0  0  0  0  0  0  0  0  0
   26.8797  -23.6546  -16.3638 C   0  0  0  0  0  0  0  0  0  0  0  0
   25.6554  -23.6625  -16.1962 O   0  0  0  0  0  0  0  0  0  0  0  0
   28.7010  -19.9125  -17.5541 O   0  0  0  0  0  0  0  0  0  0  0  0
   29.6447  -20.7670  -17.5581 O   0  0  0  0  0  0  0  0  0  0  0  0
  2  3  2  0
  2  1  1  0
  4  2  1  0
  5  4  1  0
  6  7  1  0
  6  5  1  0
  8 10  1  0
  8  7  1  0
  8  9  1  6
 10 11  2  0
 13 12  1  0
 14 13  2  0
 15 13  1  0
 16 15  1  0
 17 16  1  0
 17 18  1  0
 19 18  1  6
 20 19  1  0
 20 10  1  0
 21 23  1  0
 21 19  1  0
 22 21  2  0
 24 25  1  1
 24 23  1  0
 25 26  1  0
 26 27  1  0
 27 31  1  0
 27 28  2  0
 29 32  1  0
 29 24  1  0
 30 29  2  0
M  END
$$$$
