RRE.pdb
     RDKit          3D

 32 31  0  0  1  0  0  0  0  0999 V2000
   26.1650  -21.8765  -19.1932 N   0  0  0  0  0  0  0  0  0  0  0  0
   26.0400  -20.7063  -20.0285 C   0  0  0  0  0  0  0  0  0  0  0  0
   25.6237  -20.8041  -21.2438 N   0  0  0  0  0  0  0  0  0  0  0  0
   26.3714  -19.4204  -19.5410 N   0  0  0  0  0  0  0  0  0  0  0  0
   27.3543  -19.2754  -18.4707 C   0  0  0  0  0  0  0  0  0  0  0  0
   26.6538  -19.5523  -17.1697 C   0  0  0  0  0  0  0  0  0  0  0  0
   27.4663  -19.4253  -15.9403 C   0  0  0  0  0  0  0  0  0  0  0  0
   27.9630  -20.6702  -15.3033 C   0  0  2  0  0  0  0  0  0  0  0  0
   28.3378  -21.7333  -16.1761 N   0  0  0  0  0  0  0  0  0  0  0  0
   26.9207  -21.1000  -14.3179 C   0  0  0  0  0  0  0  0  0  0  0  0
   25.9687  -21.8081  -14.7377 O   0  0  0  0  0  0  0  0  0  0  0  0
   25.5916  -20.0694  -21.9480 N   0  0  0  0  0  0  0  0  0  0  0  0
   31.1216  -22.5908  -10.1158 C   0  0  0  0  0  0  0  0  0  0  0  0
   30.5662  -22.0494   -8.9196 N   0  0  0  0  0  0  0  0  0  0  0  0
   31.3184  -21.8991   -7.8967 N   0  0  0  0  0  0  0  0  0  0  0  0
   29.1940  -21.6770   -8.8482 C   0  0  0  0  0  0  0  0  0  0  0  0
   28.3542  -21.9624   -9.9798 C   0  0  0  0  0  0  0  0  0  0  0  0
   27.8438  -20.6618  -10.5544 C   0  0  0  0  0  0  0  0  0  0  0  0
   26.3520  -20.6515  -10.6374 C   0  0  2  0  0  0  0  0  0  0  0  0
   25.9157  -21.1002  -12.0021 N   0  0  0  0  0  0  0  0  0  0  0  0
   26.9473  -20.7577  -12.9574 C   0  0  0  0  0  0  0  0  0  0  0  0
   24.5923  -20.5859  -12.3912 O   0  0  0  0  0  0  0  0  0  0  0  0
   24.5293  -19.4610  -12.9465 N   0  0  0  0  0  0  0  0  0  0  0  0
   30.9104  -21.5638   -6.9995 C   0  0  1  0  0  0  0  0  0  0  0  0
   23.3984  -21.2900  -12.1715 C   0  0  0  0  0  0  0  0  0  0  0  0
   22.0979  -20.7188  -12.5876 C   0  0  0  0  0  0  0  0  0  0  0  0
   21.5144  -21.5576  -13.6677 C   0  0  0  0  0  0  0  0  0  0  0  0
   20.1892  -21.0430  -14.1323 O   0  0  0  0  0  0  0  0  0  0  0  0
   19.5579  -21.8133  -15.2153 C   0  0  0  0  0  0  0  0  0  0  0  0
   19.3590  -21.3450  -16.3414 O   0  0  0  0  0  0  0  0  0  0  0  0
   21.2219  -20.5937  -11.4063 O   0  0  0  0  0  0  0  0  0  0  0  0
   21.4815  -21.2894  -10.3721 O   0  0  0  0  0  0  0  0  0  0  0  0
  2  3  2  0
  2  1  1  0
  4  2  1  0
  5  4  1  0
  6  7  1  0
  6  5  1  0
  8 10  1  0
  8  7  1  0
  8  9  1  6
 10 11  2  0
 13 12  1  0
 14 13  2  0
 15 13  1  0
 16 15  1  0
 17 16  1  0
 17 18  1  0
 19 18  1  1
 20 19  1  0
 20 10  1  0
 21 23  1  0
 21 19  1  0
 22 21  2  0
 24 25  1  1
 24 23  1  0
 25 26  1  0
 26 27  1  0
 27 31  1  0
 27 28  2  0
 29 32  1  0
 29 24  1  0
 30 29  2  0
M  END
$$$$
