RRE.pdb
     RDKit          3D

 32 31  0  0  1  0  0  0  0  0999 V2000
   21.9048  -22.1989  -17.0980 N   0  0  0  0  0  0  0  0  0  0  0  0
   20.5801  -21.6267  -17.0764 C   0  0  0  0  0  0  0  0  0  0  0  0
   19.9897  -21.2873  -18.1700 N   0  0  0  0  0  0  0  0  0  0  0  0
   19.8920  -21.4199  -15.8578 N   0  0  0  0  0  0  0  0  0  0  0  0
   20.2985  -22.1444  -14.6569 C   0  0  0  0  0  0  0  0  0  0  0  0
   19.4401  -23.3743  -14.5555 C   0  0  0  0  0  0  0  0  0  0  0  0
   19.6485  -24.2311  -13.3679 C   0  0  0  0  0  0  0  0  0  0  0  0
   20.3600  -25.5196  -13.5563 C   0  0  2  0  0  0  0  0  0  0  0  0
   20.2731  -26.1191  -14.8469 N   0  0  0  0  0  0  0  0  0  0  0  0
   19.8793  -26.4430  -12.4800 C   0  0  0  0  0  0  0  0  0  0  0  0
   18.6436  -26.6703  -12.4064 O   0  0  0  0  0  0  0  0  0  0  0  0
   19.1122  -20.7802  -18.2679 N   0  0  0  0  0  0  0  0  0  0  0  0
   20.6770  -33.0717   -8.6528 C   0  0  0  0  0  0  0  0  0  0  0  0
   21.6859  -32.2973   -8.0086 N   0  0  0  0  0  0  0  0  0  0  0  0
   21.9547  -32.5244   -6.7794 N   0  0  0  0  0  0  0  0  0  0  0  0
   22.3932  -31.2804   -8.7102 C   0  0  0  0  0  0  0  0  0  0  0  0
   22.1968  -31.1746  -10.1306 C   0  0  0  0  0  0  0  0  0  0  0  0
   21.0439  -30.2361  -10.3993 C   0  0  0  0  0  0  0  0  0  0  0  0
   21.4028  -28.8239  -10.0682 C   0  0  2  0  0  0  0  0  0  0  0  0
   20.2808  -27.9080  -10.4637 N   0  0  0  0  0  0  0  0  0  0  0  0
   20.7280  -27.0663  -11.5526 C   0  0  0  0  0  0  0  0  0  0  0  0
   19.7349  -27.1325   -9.3377 O   0  0  0  0  0  0  0  0  0  0  0  0
   20.3789  -26.1322   -8.9347 N   0  0  0  0  0  0  0  0  0  0  0  0
   22.6868  -31.9624   -6.2978 C   0  0  2  0  0  0  0  0  0  0  0  0
   18.5314  -27.4562   -8.6926 C   0  0  0  0  0  0  0  0  0  0  0  0
   17.9000  -26.5044   -7.7512 C   0  0  0  0  0  0  0  0  0  0  0  0
   17.5538  -25.2525   -8.4747 C   0  0  0  0  0  0  0  0  0  0  0  0
   16.3781  -25.4284   -9.3823 O   0  0  0  0  0  0  0  0  0  0  0  0
   15.9834  -24.2321  -10.1424 C   0  0  0  0  0  0  0  0  0  0  0  0
   15.0925  -24.2473  -10.9985 O   0  0  0  0  0  0  0  0  0  0  0  0
   16.7374  -27.1517   -7.1127 O   0  0  0  0  0  0  0  0  0  0  0  0
   16.3823  -28.3079   -7.5102 O   0  0  0  0  0  0  0  0  0  0  0  0
  2  3  2  0
  2  1  1  0
  4  2  1  0
  5  4  1  0
  6  7  1  0
  6  5  1  0
  8 10  1  0
  8  7  1  0
  8  9  1  6
 10 11  2  0
 13 12  1  0
 14 13  2  0
 15 13  1  0
 16 15  1  0
 17 16  1  0
 17 18  1  0
 19 18  1  6
 20 19  1  0
 20 10  1  0
 21 23  1  0
 21 19  1  0
 22 21  2  0
 24 25  1  1
 24 23  1  0
 25 26  1  0
 26 27  1  0
 27 31  1  0
 27 28  2  0
 29 32  1  0
 29 24  1  0
 30 29  2  0
M  END
$$$$
