RRE.pdb
     RDKit          3D

 32 31  0  0  1  0  0  0  0  0999 V2000
   26.0656  -23.8952  -16.1745 N   0  0  0  0  0  0  0  0  0  0  0  0
   25.1067  -23.9828  -15.0996 C   0  0  0  0  0  0  0  0  0  0  0  0
   25.4215  -23.6234  -13.9032 N   0  0  0  0  0  0  0  0  0  0  0  0
   23.7965  -24.4661  -15.3253 N   0  0  0  0  0  0  0  0  0  0  0  0
   22.8987  -24.6985  -14.1973 C   0  0  0  0  0  0  0  0  0  0  0  0
   21.6172  -25.2621  -14.7448 C   0  0  0  0  0  0  0  0  0  0  0  0
   20.5817  -25.6339  -13.7562 C   0  0  0  0  0  0  0  0  0  0  0  0
   20.8685  -26.7666  -12.8414 C   0  0  2  0  0  0  0  0  0  0  0  0
   21.1098  -28.0353  -13.4453 N   0  0  0  0  0  0  0  0  0  0  0  0
   19.7434  -26.8244  -11.8550 C   0  0  0  0  0  0  0  0  0  0  0  0
   18.8136  -27.6453  -12.0686 O   0  0  0  0  0  0  0  0  0  0  0  0
   24.8161  -23.5989  -13.0849 N   0  0  0  0  0  0  0  0  0  0  0  0
   16.2526  -23.6500   -6.0891 C   0  0  0  0  0  0  0  0  0  0  0  0
   16.3869  -24.6640   -5.0960 N   0  0  0  0  0  0  0  0  0  0  0  0
   15.4447  -24.8337   -4.2486 N   0  0  0  0  0  0  0  0  0  0  0  0
   17.5487  -25.4844   -5.0343 C   0  0  0  0  0  0  0  0  0  0  0  0
   18.5804  -25.2734   -6.0133 C   0  0  0  0  0  0  0  0  0  0  0  0
   18.0769  -25.7254   -7.3640 C   0  0  0  0  0  0  0  0  0  0  0  0
   19.1377  -25.6033   -8.4092 C   0  0  2  0  0  0  0  0  0  0  0  0
   18.6038  -26.0700   -9.7325 N   0  0  0  0  0  0  0  0  0  0  0  0
   19.6693  -26.0165  -10.7102 C   0  0  0  0  0  0  0  0  0  0  0  0
   17.4010  -25.3410  -10.1675 O   0  0  0  0  0  0  0  0  0  0  0  0
   17.5241  -24.1396  -10.5128 N   0  0  0  0  0  0  0  0  0  0  0  0
   15.5360  -25.5650   -3.5133 C   0  0  2  0  0  0  0  0  0  0  0  0
   16.1244  -25.9219  -10.2145 C   0  0  0  0  0  0  0  0  0  0  0  0
   15.1456  -25.5105  -11.2457 C   0  0  0  0  0  0  0  0  0  0  0  0
   15.7522  -25.6728  -12.5933 C   0  0  0  0  0  0  0  0  0  0  0  0
   14.7711  -25.4139  -13.6921 O   0  0  0  0  0  0  0  0  0  0  0  0
   15.3570  -24.9974  -14.9758 C   0  0  0  0  0  0  0  0  0  0  0  0
   16.5114  -25.2861  -15.3092 O   0  0  0  0  0  0  0  0  0  0  0  0
   13.8998  -26.2819  -11.0682 O   0  0  0  0  0  0  0  0  0  0  0  0
   13.8990  -27.2730  -10.2691 O   0  0  0  0  0  0  0  0  0  0  0  0
  2  3  2  0
  2  1  1  0
  4  2  1  0
  5  4  1  0
  6  7  1  0
  6  5  1  0
  8 10  1  0
  8  7  1  0
  8  9  1  6
 10 11  2  0
 13 12  1  0
 14 13  2  0
 15 13  1  0
 16 15  1  0
 17 16  1  0
 17 18  1  0
 19 18  1  1
 20 19  1  0
 20 10  1  0
 21 23  1  0
 21 19  1  0
 22 21  2  0
 24 25  1  1
 24 23  1  0
 25 26  1  0
 26 27  1  0
 27 31  1  0
 27 28  2  0
 29 32  1  0
 29 24  1  0
 30 29  2  0
M  END
$$$$
