RRE.pdb
     RDKit          3D

 32 31  0  0  1  0  0  0  0  0999 V2000
   22.3049  -27.3966  -14.9290 N   0  0  0  0  0  0  0  0  0  0  0  0
   22.8376  -27.3184  -16.2679 C   0  0  0  0  0  0  0  0  0  0  0  0
   22.4674  -28.1544  -17.1755 N   0  0  0  0  0  0  0  0  0  0  0  0
   23.7808  -26.3260  -16.6234 N   0  0  0  0  0  0  0  0  0  0  0  0
   23.7981  -25.0478  -15.9175 C   0  0  0  0  0  0  0  0  0  0  0  0
   23.0850  -24.0431  -16.7788 C   0  0  0  0  0  0  0  0  0  0  0  0
   23.8745  -22.8746  -17.2250 C   0  0  0  0  0  0  0  0  0  0  0  0
   24.4112  -21.9604  -16.1866 C   0  0  2  0  0  0  0  0  0  0  0  0
   25.1648  -22.5561  -15.1331 N   0  0  0  0  0  0  0  0  0  0  0  0
   23.2528  -21.1687  -15.6637 C   0  0  0  0  0  0  0  0  0  0  0  0
   22.6127  -21.6358  -14.6860 O   0  0  0  0  0  0  0  0  0  0  0  0
   22.7744  -28.1908  -18.1456 N   0  0  0  0  0  0  0  0  0  0  0  0
   23.8482  -17.4345  -20.6951 C   0  0  0  0  0  0  0  0  0  0  0  0
   23.8791  -16.8093  -19.4142 N   0  0  0  0  0  0  0  0  0  0  0  0
   24.9991  -16.6817  -18.8109 N   0  0  0  0  0  0  0  0  0  0  0  0
   22.6875  -16.3289  -18.8009 C   0  0  0  0  0  0  0  0  0  0  0  0
   22.7471  -15.9360  -17.4192 C   0  0  0  0  0  0  0  0  0  0  0  0
   22.8308  -17.1747  -16.5585 C   0  0  0  0  0  0  0  0  0  0  0  0
   21.5579  -17.9559  -16.6032 C   0  0  2  0  0  0  0  0  0  0  0  0
   21.6885  -19.1895  -15.7576 N   0  0  0  0  0  0  0  0  0  0  0  0
   22.8437  -19.9393  -16.2022 C   0  0  0  0  0  0  0  0  0  0  0  0
   20.4642  -20.0064  -15.7226 O   0  0  0  0  0  0  0  0  0  0  0  0
   20.4934  -21.1474  -16.2471 N   0  0  0  0  0  0  0  0  0  0  0  0
   25.0265  -16.2798  -17.8509 C   0  0  1  0  0  0  0  0  0  0  0  0
   19.2669  -19.5729  -15.1329 C   0  0  0  0  0  0  0  0  0  0  0  0
   18.1509  -20.5187  -14.9075 C   0  0  0  0  0  0  0  0  0  0  0  0
   18.6174  -21.9044  -15.1777 C   0  0  0  0  0  0  0  0  0  0  0  0
   17.5689  -22.9258  -14.8712 O   0  0  0  0  0  0  0  0  0  0  0  0
   17.9389  -24.3185  -15.1685 C   0  0  0  0  0  0  0  0  0  0  0  0
   19.0710  -24.6448  -15.5414 O   0  0  0  0  0  0  0  0  0  0  0  0
   17.6263  -20.3343  -13.5403 O   0  0  0  0  0  0  0  0  0  0  0  0
   18.2891  -19.6230  -12.7183 O   0  0  0  0  0  0  0  0  0  0  0  0
  2  3  2  0
  2  1  1  0
  4  2  1  0
  5  4  1  0
  6  7  1  0
  6  5  1  0
  8 10  1  0
  8  7  1  0
  8  9  1  1
 10 11  2  0
 13 12  1  0
 14 13  2  0
 15 13  1  0
 16 15  1  0
 17 16  1  0
 17 18  1  0
 19 18  1  1
 20 19  1  0
 20 10  1  0
 21 23  1  0
 21 19  1  0
 22 21  2  0
 24 25  1  1
 24 23  1  0
 25 26  1  0
 26 27  1  0
 27 31  1  0
 27 28  2  0
 29 32  1  0
 29 24  1  0
 30 29  2  0
M  END
$$$$
