RRE.pdb
     RDKit          3D

 32 31  0  0  1  0  0  0  0  0999 V2000
   23.1829  -27.2851  -16.7509 N   0  0  0  0  0  0  0  0  0  0  0  0
   22.2848  -26.6602  -17.6919 C   0  0  0  0  0  0  0  0  0  0  0  0
   21.0103  -26.6885  -17.5066 N   0  0  0  0  0  0  0  0  0  0  0  0
   22.7745  -26.0010  -18.8438 N   0  0  0  0  0  0  0  0  0  0  0  0
   24.1278  -25.4524  -18.8522 C   0  0  0  0  0  0  0  0  0  0  0  0
   24.1187  -24.2072  -18.0101 C   0  0  0  0  0  0  0  0  0  0  0  0
   25.4071  -23.4943  -17.8686 C   0  0  0  0  0  0  0  0  0  0  0  0
   26.2426  -23.7976  -16.6804 C   0  0  2  0  0  0  0  0  0  0  0  0
   26.7865  -25.1127  -16.5957 N   0  0  0  0  0  0  0  0  0  0  0  0
   25.4240  -23.4550  -15.4743 C   0  0  0  0  0  0  0  0  0  0  0  0
   24.4777  -24.2252  -15.1657 O   0  0  0  0  0  0  0  0  0  0  0  0
   20.2938  -26.2235  -18.0609 N   0  0  0  0  0  0  0  0  0  0  0  0
   28.0886  -19.8291   -8.3343 C   0  0  0  0  0  0  0  0  0  0  0  0
   28.3861  -20.5887   -9.5035 N   0  0  0  0  0  0  0  0  0  0  0  0
   29.5910  -20.9612   -9.7137 N   0  0  0  0  0  0  0  0  0  0  0  0
   27.3668  -20.9352  -10.4351 C   0  0  0  0  0  0  0  0  0  0  0  0
   26.0236  -20.5003  -10.1633 C   0  0  0  0  0  0  0  0  0  0  0  0
   25.1015  -21.0609  -11.2204 C   0  0  0  0  0  0  0  0  0  0  0  0
   25.8500  -21.4129  -12.4648 C   0  0  1  0  0  0  0  0  0  0  0  0
   24.9087  -22.0027  -13.4748 N   0  0  0  0  0  0  0  0  0  0  0  0
   25.6533  -22.3265  -14.6727 C   0  0  0  0  0  0  0  0  0  0  0  0
   23.7386  -21.1526  -13.7495 O   0  0  0  0  0  0  0  0  0  0  0  0
   23.9120  -20.0906  -14.3976 N   0  0  0  0  0  0  0  0  0  0  0  0
   29.8298  -21.4688  -10.5907 C   0  0  1  0  0  0  0  0  0  0  0  0
   22.4400  -21.4699  -13.3226 C   0  0  0  0  0  0  0  0  0  0  0  0
   21.2957  -20.6001  -13.6761 C   0  0  0  0  0  0  0  0  0  0  0  0
   20.1676  -21.4412  -14.1562 C   0  0  0  0  0  0  0  0  0  0  0  0
   20.4275  -22.0193  -15.5109 O   0  0  0  0  0  0  0  0  0  0  0  0
   19.3407  -22.8420  -16.0647 C   0  0  0  0  0  0  0  0  0  0  0  0
   18.3129  -23.1068  -15.4317 O   0  0  0  0  0  0  0  0  0  0  0  0
   20.9461  -19.7608  -12.5134 O   0  0  0  0  0  0  0  0  0  0  0  0
   21.4890  -20.0108  -11.3893 O   0  0  0  0  0  0  0  0  0  0  0  0
  2  3  2  0
  2  1  1  0
  4  2  1  0
  5  4  1  0
  6  7  1  0
  6  5  1  0
  8 10  1  0
  8  7  1  0
  8  9  1  1
 10 11  2  0
 13 12  1  0
 14 13  2  0
 15 13  1  0
 16 15  1  0
 17 16  1  0
 17 18  1  0
 19 18  1  1
 20 19  1  0
 20 10  1  0
 21 23  1  0
 21 19  1  0
 22 21  2  0
 24 25  1  1
 24 23  1  0
 25 26  1  0
 26 27  1  0
 27 31  1  0
 27 28  2  0
 29 32  1  0
 29 24  1  0
 30 29  2  0
M  END
$$$$
