RRE.pdb
     RDKit          3D

 32 31  0  0  1  0  0  0  0  0999 V2000
   30.8207  -25.9822  -16.3773 N   0  0  0  0  0  0  0  0  0  0  0  0
   29.6298  -26.4933  -17.0122 C   0  0  0  0  0  0  0  0  0  0  0  0
   29.3471  -27.7495  -16.9712 N   0  0  0  0  0  0  0  0  0  0  0  0
   28.7400  -25.6339  -17.6984 N   0  0  0  0  0  0  0  0  0  0  0  0
   29.2249  -24.3750  -18.2572 C   0  0  0  0  0  0  0  0  0  0  0  0
   29.8295  -23.5814  -17.1327 C   0  0  0  0  0  0  0  0  0  0  0  0
   28.9239  -23.2078  -16.0244 C   0  0  0  0  0  0  0  0  0  0  0  0
   27.9487  -22.1148  -16.2618 C   0  0  2  0  0  0  0  0  0  0  0  0
   28.4656  -20.7864  -16.2873 N   0  0  0  0  0  0  0  0  0  0  0  0
   26.8641  -22.2706  -15.2411 C   0  0  0  0  0  0  0  0  0  0  0  0
   26.2765  -23.3813  -15.1699 O   0  0  0  0  0  0  0  0  0  0  0  0
   28.5531  -28.2196  -17.4016 N   0  0  0  0  0  0  0  0  0  0  0  0
   22.1171  -19.9526   -9.6460 C   0  0  0  0  0  0  0  0  0  0  0  0
   22.8192  -20.7954   -8.7353 N   0  0  0  0  0  0  0  0  0  0  0  0
   22.1722  -21.3698   -7.7940 N   0  0  0  0  0  0  0  0  0  0  0  0
   24.2221  -21.0042   -8.8581 C   0  0  0  0  0  0  0  0  0  0  0  0
   24.9376  -20.2401   -9.8436 C   0  0  0  0  0  0  0  0  0  0  0  0
   24.5574  -20.7332  -11.2200 C   0  0  0  0  0  0  0  0  0  0  0  0
   25.7479  -20.8075  -12.1199 C   0  0  1  0  0  0  0  0  0  0  0  0
   25.3359  -21.3287  -13.4662 N   0  0  0  0  0  0  0  0  0  0  0  0
   26.4688  -21.2500  -14.3632 C   0  0  0  0  0  0  0  0  0  0  0  0
   24.1388  -20.6653  -14.0085 O   0  0  0  0  0  0  0  0  0  0  0  0
   24.1851  -19.4271  -14.2149 N   0  0  0  0  0  0  0  0  0  0  0  0
   22.6748  -21.9868   -7.1228 C   0  0  2  0  0  0  0  0  0  0  0  0
   22.9491  -21.3477  -14.3054 C   0  0  0  0  0  0  0  0  0  0  0  0
   21.7731  -20.6200  -14.8329 C   0  0  0  0  0  0  0  0  0  0  0  0
   21.4517  -21.1243  -16.1941 C   0  0  0  0  0  0  0  0  0  0  0  0
   21.0013  -20.0326  -17.1118 O   0  0  0  0  0  0  0  0  0  0  0  0
   20.6314  -20.4623  -18.4695 C   0  0  0  0  0  0  0  0  0  0  0  0
   20.2167  -19.6781  -19.3297 O   0  0  0  0  0  0  0  0  0  0  0  0
   20.6531  -20.7517  -13.8807 O   0  0  0  0  0  0  0  0  0  0  0  0
   20.6607  -21.7187  -13.0525 O   0  0  0  0  0  0  0  0  0  0  0  0
  2  3  2  0
  2  1  1  0
  4  2  1  0
  5  4  1  0
  6  7  1  0
  6  5  1  0
  8 10  1  0
  8  7  1  0
  8  9  1  1
 10 11  2  0
 13 12  1  0
 14 13  2  0
 15 13  1  0
 16 15  1  0
 17 16  1  0
 17 18  1  0
 19 18  1  1
 20 19  1  0
 20 10  1  0
 21 23  1  0
 21 19  1  0
 22 21  2  0
 24 25  1  1
 24 23  1  0
 25 26  1  0
 26 27  1  0
 27 31  1  0
 27 28  2  0
 29 32  1  0
 29 24  1  0
 30 29  2  0
M  END
$$$$
