RRE.pdb
     RDKit          3D

 32 31  0  0  1  0  0  0  0  0999 V2000
   15.3610  -29.0477   -2.9719 N   0  0  0  0  0  0  0  0  0  0  0  0
   15.6275  -27.7711   -2.3540 C   0  0  0  0  0  0  0  0  0  0  0  0
   14.7109  -27.1542   -1.6914 N   0  0  0  0  0  0  0  0  0  0  0  0
   16.8986  -27.1589   -2.4579 N   0  0  0  0  0  0  0  0  0  0  0  0
   17.5512  -27.0459   -3.7593 C   0  0  0  0  0  0  0  0  0  0  0  0
   16.5963  -26.3487   -4.6877 C   0  0  0  0  0  0  0  0  0  0  0  0
   17.1158  -25.9914   -6.0257 C   0  0  0  0  0  0  0  0  0  0  0  0
   18.4983  -25.4597   -6.1157 C   0  0  2  0  0  0  0  0  0  0  0  0
   18.7070  -24.1292   -5.6479 N   0  0  0  0  0  0  0  0  0  0  0  0
   18.9359  -25.6248   -7.5381 C   0  0  0  0  0  0  0  0  0  0  0  0
   19.1398  -24.5848   -8.2169 O   0  0  0  0  0  0  0  0  0  0  0  0
   14.7796  -26.2436   -1.2410 N   0  0  0  0  0  0  0  0  0  0  0  0
   22.4543  -32.5121  -11.4686 C   0  0  0  0  0  0  0  0  0  0  0  0
   23.0420  -31.3587  -10.8713 N   0  0  0  0  0  0  0  0  0  0  0  0
   24.2367  -31.4312  -10.4216 N   0  0  0  0  0  0  0  0  0  0  0  0
   22.3214  -30.1353  -10.7681 C   0  0  0  0  0  0  0  0  0  0  0  0
   20.9928  -30.0828  -11.3152 C   0  0  0  0  0  0  0  0  0  0  0  0
   20.4348  -28.6926  -11.1202 C   0  0  0  0  0  0  0  0  0  0  0  0
   19.9750  -28.4827   -9.7141 C   0  0  2  0  0  0  0  0  0  0  0  0
   19.5514  -27.0548   -9.5254 N   0  0  0  0  0  0  0  0  0  0  0  0
   19.1303  -26.8709   -8.1532 C   0  0  0  0  0  0  0  0  0  0  0  0
   18.5328  -26.6145  -10.4927 O   0  0  0  0  0  0  0  0  0  0  0  0
   17.3366  -26.9393  -10.2886 N   0  0  0  0  0  0  0  0  0  0  0  0
   24.6571  -30.6118   -9.9362 C   0  0  2  0  0  0  0  0  0  0  0  0
   18.8323  -25.8509  -11.6313 C   0  0  0  0  0  0  0  0  0  0  0  0
   17.7535  -25.2055  -12.4125 C   0  0  0  0  0  0  0  0  0  0  0  0
   18.2411  -23.9060  -12.9456 C   0  0  0  0  0  0  0  0  0  0  0  0
   17.2277  -23.2338  -13.8162 O   0  0  0  0  0  0  0  0  0  0  0  0
   17.6300  -21.9268  -14.3590 C   0  0  0  0  0  0  0  0  0  0  0  0
   18.7199  -21.4033  -14.1038 O   0  0  0  0  0  0  0  0  0  0  0  0
   17.2931  -26.1334  -13.4639 O   0  0  0  0  0  0  0  0  0  0  0  0
   18.1000  -27.0155  -13.9017 O   0  0  0  0  0  0  0  0  0  0  0  0
  2  3  2  0
  2  1  1  0
  4  2  1  0
  5  4  1  0
  6  7  1  0
  6  5  1  0
  8 10  1  0
  8  7  1  0
  8  9  1  6
 10 11  2  0
 13 12  1  0
 14 13  2  0
 15 13  1  0
 16 15  1  0
 17 16  1  0
 17 18  1  0
 19 18  1  1
 20 19  1  0
 20 10  1  0
 21 23  1  0
 21 19  1  0
 22 21  2  0
 24 25  1  6
 24 23  1  0
 25 26  1  0
 26 27  1  0
 27 31  1  0
 27 28  2  0
 29 32  1  0
 29 24  1  0
 30 29  2  0
M  END
$$$$
