RRE.pdb
     RDKit          3D

 32 31  0  0  1  0  0  0  0  0999 V2000
   28.3381  -23.6694  -16.5009 N   0  0  0  0  0  0  0  0  0  0  0  0
   27.8791  -22.3169  -16.7077 C   0  0  0  0  0  0  0  0  0  0  0  0
   28.6620  -21.4230  -17.2054 N   0  0  0  0  0  0  0  0  0  0  0  0
   26.5605  -21.9319  -16.3699 N   0  0  0  0  0  0  0  0  0  0  0  0
   25.4575  -22.8733  -16.5417 C   0  0  0  0  0  0  0  0  0  0  0  0
   24.1906  -22.1655  -16.1496 C   0  0  0  0  0  0  0  0  0  0  0  0
   23.4695  -22.7010  -14.9744 C   0  0  0  0  0  0  0  0  0  0  0  0
   22.7048  -23.9616  -15.1428 C   0  0  2  0  0  0  0  0  0  0  0  0
   22.6262  -24.4942  -16.4629 N   0  0  0  0  0  0  0  0  0  0  0  0
   21.3476  -23.7287  -14.5547 C   0  0  0  0  0  0  0  0  0  0  0  0
   20.4802  -23.1708  -15.2760 O   0  0  0  0  0  0  0  0  0  0  0  0
   28.4490  -20.4432  -17.3824 N   0  0  0  0  0  0  0  0  0  0  0  0
   16.5596  -25.5470   -7.4194 C   0  0  0  0  0  0  0  0  0  0  0  0
   17.9572  -25.2797   -7.5088 N   0  0  0  0  0  0  0  0  0  0  0  0
   18.5865  -24.9009   -6.4623 N   0  0  0  0  0  0  0  0  0  0  0  0
   18.6573  -25.4268   -8.7396 C   0  0  0  0  0  0  0  0  0  0  0  0
   17.9137  -25.8456   -9.8968 C   0  0  0  0  0  0  0  0  0  0  0  0
   18.1235  -24.8421  -11.0063 C   0  0  0  0  0  0  0  0  0  0  0  0
   19.5221  -24.8936  -11.5297 C   0  0  2  0  0  0  0  0  0  0  0  0
   19.6697  -23.9407  -12.6805 N   0  0  0  0  0  0  0  0  0  0  0  0
   20.9916  -24.0969  -13.2484 C   0  0  0  0  0  0  0  0  0  0  0  0
   19.3689  -22.5441  -12.3252 O   0  0  0  0  0  0  0  0  0  0  0  0
   20.2610  -21.8685  -11.7545 N   0  0  0  0  0  0  0  0  0  0  0  0
   19.6037  -24.6872   -6.5196 C   0  0  2  0  0  0  0  0  0  0  0  0
   18.1351  -21.9311  -12.5921 C   0  0  0  0  0  0  0  0  0  0  0  0
   18.0777  -20.5948  -13.2260 C   0  0  0  0  0  0  0  0  0  0  0  0
   19.3241  -20.3644  -14.0032 C   0  0  0  0  0  0  0  0  0  0  0  0
   19.0466  -20.0310  -15.4345 O   0  0  0  0  0  0  0  0  0  0  0  0
   20.1600  -19.4032  -16.1632 C   0  0  0  0  0  0  0  0  0  0  0  0
   21.3209  -19.4026  -15.7396 O   0  0  0  0  0  0  0  0  0  0  0  0
   16.8524  -20.4969  -14.0429 O   0  0  0  0  0  0  0  0  0  0  0  0
   16.2848  -19.3639  -14.1665 O   0  0  0  0  0  0  0  0  0  0  0  0
  2  3  2  0
  2  1  1  0
  4  2  1  0
  5  4  1  0
  6  7  1  0
  6  5  1  0
  8 10  1  0
  8  7  1  0
  8  9  1  6
 10 11  2  0
 13 12  1  0
 14 13  2  0
 15 13  1  0
 16 15  1  0
 17 16  1  0
 17 18  1  0
 19 18  1  6
 20 19  1  0
 20 10  1  0
 21 23  1  0
 21 19  1  0
 22 21  2  0
 24 25  1  1
 24 23  1  0
 25 26  1  0
 26 27  1  0
 27 31  1  0
 27 28  2  0
 29 32  1  0
 29 24  1  0
 30 29  2  0
M  END
$$$$
