RRE.pdb
     RDKit          3D

 32 31  0  0  1  0  0  0  0  0999 V2000
   26.7931  -23.9569  -19.7645 N   0  0  0  0  0  0  0  0  0  0  0  0
   26.4674  -22.9428  -20.7382 C   0  0  0  0  0  0  0  0  0  0  0  0
   25.6384  -23.1870  -21.6936 N   0  0  0  0  0  0  0  0  0  0  0  0
   27.0478  -21.6544  -20.6750 N   0  0  0  0  0  0  0  0  0  0  0  0
   27.7339  -21.2205  -19.4612 C   0  0  0  0  0  0  0  0  0  0  0  0
   26.6845  -20.7851  -18.4768 C   0  0  0  0  0  0  0  0  0  0  0  0
   27.1683  -20.1612  -17.2259 C   0  0  0  0  0  0  0  0  0  0  0  0
   27.6154  -21.0564  -16.1301 C   0  0  2  0  0  0  0  0  0  0  0  0
   28.2947  -22.2502  -16.5120 N   0  0  0  0  0  0  0  0  0  0  0  0
   26.4122  -21.3460  -15.2871 C   0  0  0  0  0  0  0  0  0  0  0  0
   25.7546  -22.3896  -15.5366 O   0  0  0  0  0  0  0  0  0  0  0  0
   25.3576  -22.5597  -22.4448 N   0  0  0  0  0  0  0  0  0  0  0  0
   25.1478  -20.4256   -6.7917 C   0  0  0  0  0  0  0  0  0  0  0  0
   23.9797  -21.0535   -7.3151 N   0  0  0  0  0  0  0  0  0  0  0  0
   23.0569  -21.4207   -6.5100 N   0  0  0  0  0  0  0  0  0  0  0  0
   23.8278  -21.2767   -8.7128 C   0  0  0  0  0  0  0  0  0  0  0  0
   24.4204  -20.3306   -9.6189 C   0  0  0  0  0  0  0  0  0  0  0  0
   24.1009  -20.7409  -11.0372 C   0  0  0  0  0  0  0  0  0  0  0  0
   25.2372  -20.4408  -11.9599 C   0  0  2  0  0  0  0  0  0  0  0  0
   24.8639  -20.8155  -13.3650 N   0  0  0  0  0  0  0  0  0  0  0  0
   25.9795  -20.5204  -14.2383 C   0  0  0  0  0  0  0  0  0  0  0  0
   23.6095  -20.1948  -13.8217 O   0  0  0  0  0  0  0  0  0  0  0  0
   23.5722  -18.9451  -13.9432 N   0  0  0  0  0  0  0  0  0  0  0  0
   22.2161  -21.9130   -6.8769 C   0  0  2  0  0  0  0  0  0  0  0  0
   22.4540  -20.9302  -14.1271 C   0  0  0  0  0  0  0  0  0  0  0  0
   21.2120  -20.2441  -14.5481 C   0  0  0  0  0  0  0  0  0  0  0  0
   20.4316  -21.1415  -15.4403 C   0  0  0  0  0  0  0  0  0  0  0  0
   21.1776  -21.4882  -16.6894 O   0  0  0  0  0  0  0  0  0  0  0  0
   20.4195  -22.2665  -17.6815 C   0  0  0  0  0  0  0  0  0  0  0  0
   19.2629  -22.6547  -17.4851 O   0  0  0  0  0  0  0  0  0  0  0  0
   20.4638  -19.8154  -13.3501 O   0  0  0  0  0  0  0  0  0  0  0  0
   20.5065  -20.5425  -12.3059 O   0  0  0  0  0  0  0  0  0  0  0  0
  2  3  2  0
  2  1  1  0
  4  2  1  0
  5  4  1  0
  6  7  1  0
  6  5  1  0
  8 10  1  0
  8  7  1  0
  8  9  1  6
 10 11  2  0
 13 12  1  0
 14 13  2  0
 15 13  1  0
 16 15  1  0
 17 16  1  0
 17 18  1  0
 19 18  1  1
 20 19  1  0
 20 10  1  0
 21 23  1  0
 21 19  1  0
 22 21  2  0
 24 25  1  1
 24 23  1  0
 25 26  1  0
 26 27  1  0
 27 31  1  0
 27 28  2  0
 29 32  1  0
 29 24  1  0
 30 29  2  0
M  END
$$$$
