RRE.pdb
     RDKit          3D

 32 31  0  0  1  0  0  0  0  0999 V2000
   13.5609  -13.0035  -11.0081 N   0  0  0  0  0  0  0  0  0  0  0  0
   12.7305  -11.9227  -11.4823 C   0  0  0  0  0  0  0  0  0  0  0  0
   11.4797  -11.8690  -11.1784 N   0  0  0  0  0  0  0  0  0  0  0  0
   13.2619  -10.8934  -12.2942 N   0  0  0  0  0  0  0  0  0  0  0  0
   14.6578  -10.4917  -12.1446 C   0  0  0  0  0  0  0  0  0  0  0  0
   14.9110   -9.3620  -13.1035 C   0  0  0  0  0  0  0  0  0  0  0  0
   16.2734   -8.7858  -13.1028 C   0  0  0  0  0  0  0  0  0  0  0  0
   17.3371   -9.5166  -12.3706 C   0  0  2  0  0  0  0  0  0  0  0  0
   17.0719   -9.8431  -11.0084 N   0  0  0  0  0  0  0  0  0  0  0  0
   18.5941   -8.7161  -12.5167 C   0  0  0  0  0  0  0  0  0  0  0  0
   18.9114   -7.9400  -11.5782 O   0  0  0  0  0  0  0  0  0  0  0  0
   10.8138  -11.1392  -11.4247 N   0  0  0  0  0  0  0  0  0  0  0  0
   21.1161  -13.2056  -15.3966 C   0  0  0  0  0  0  0  0  0  0  0  0
   21.5852  -12.6781  -16.6353 N   0  0  0  0  0  0  0  0  0  0  0  0
   21.2253  -13.2388  -17.7265 N   0  0  0  0  0  0  0  0  0  0  0  0
   22.4441  -11.5435  -16.6738 C   0  0  0  0  0  0  0  0  0  0  0  0
   22.6949  -10.8409  -15.4448 C   0  0  0  0  0  0  0  0  0  0  0  0
   21.5662   -9.8685  -15.1946 C   0  0  0  0  0  0  0  0  0  0  0  0
   21.7934   -9.0801  -13.9459 C   0  0  1  0  0  0  0  0  0  0  0  0
   20.6902   -8.0771  -13.7701 N   0  0  0  0  0  0  0  0  0  0  0  0
   19.4342   -8.7838  -13.6385 C   0  0  0  0  0  0  0  0  0  0  0  0
   20.6551   -7.0552  -14.8292 O   0  0  0  0  0  0  0  0  0  0  0  0
   20.0239   -7.3115  -15.8845 N   0  0  0  0  0  0  0  0  0  0  0  0
   21.5169  -12.8302  -18.6385 C   0  0  2  0  0  0  0  0  0  0  0  0
   21.2923   -5.8098  -14.7179 C   0  0  0  0  0  0  0  0  0  0  0  0
   21.1894   -4.8097  -15.8042 C   0  0  0  0  0  0  0  0  0  0  0  0
   19.7565   -4.5085  -16.0623 C   0  0  0  0  0  0  0  0  0  0  0  0
   19.0649   -3.9628  -14.8537 O   0  0  0  0  0  0  0  0  0  0  0  0
   17.6435   -3.6297  -15.0369 C   0  0  0  0  0  0  0  0  0  0  0  0
   16.7363   -4.4503  -14.8622 O   0  0  0  0  0  0  0  0  0  0  0  0
   21.9819   -3.6178  -15.4439 O   0  0  0  0  0  0  0  0  0  0  0  0
   22.5424   -3.5746  -14.3015 O   0  0  0  0  0  0  0  0  0  0  0  0
  2  3  2  0
  2  1  1  0
  4  2  1  0
  5  4  1  0
  6  7  1  0
  6  5  1  0
  8 10  1  0
  8  7  1  0
  8  9  1  1
 10 11  2  0
 13 12  1  0
 14 13  2  0
 15 13  1  0
 16 15  1  0
 17 16  1  0
 17 18  1  0
 19 18  1  1
 20 19  1  0
 20 10  1  0
 21 23  1  0
 21 19  1  0
 22 21  2  0
 24 25  1  1
 24 23  1  0
 25 26  1  0
 26 27  1  0
 27 31  1  0
 27 28  2  0
 29 32  1  0
 29 24  1  0
 30 29  2  0
M  END
$$$$
