RRE.pdb
     RDKit          3D

 32 31  0  0  1  0  0  0  0  0999 V2000
   30.8801  -21.7466   -8.9794 N   0  0  0  0  0  0  0  0  0  0  0  0
   30.8908  -22.4147  -10.2585 C   0  0  0  0  0  0  0  0  0  0  0  0
   31.8392  -23.2290  -10.5700 N   0  0  0  0  0  0  0  0  0  0  0  0
   29.8647  -22.1953  -11.2072 N   0  0  0  0  0  0  0  0  0  0  0  0
   28.8102  -21.2234  -10.9318 C   0  0  0  0  0  0  0  0  0  0  0  0
   27.4908  -21.9107  -11.1479 C   0  0  0  0  0  0  0  0  0  0  0  0
   26.3909  -21.0790  -11.6832 C   0  0  0  0  0  0  0  0  0  0  0  0
   26.7398  -19.9886  -12.6274 C   0  0  2  0  0  0  0  0  0  0  0  0
   27.6516  -18.9986  -12.1573 N   0  0  0  0  0  0  0  0  0  0  0  0
   25.4501  -19.3836  -13.0885 C   0  0  0  0  0  0  0  0  0  0  0  0
   24.9335  -18.4831  -12.3770 O   0  0  0  0  0  0  0  0  0  0  0  0
   31.9632  -23.7272  -11.4493 N   0  0  0  0  0  0  0  0  0  0  0  0
   26.0012  -16.5616  -20.2948 C   0  0  0  0  0  0  0  0  0  0  0  0
   26.7488  -17.4445  -19.4616 N   0  0  0  0  0  0  0  0  0  0  0  0
   27.8373  -17.9468  -19.9059 N   0  0  0  0  0  0  0  0  0  0  0  0
   26.3024  -17.7733  -18.1504 C   0  0  0  0  0  0  0  0  0  0  0  0
   25.1075  -17.1402  -17.6622 C   0  0  0  0  0  0  0  0  0  0  0  0
   24.8495  -17.6007  -16.2468 C   0  0  0  0  0  0  0  0  0  0  0  0
   23.8556  -18.7158  -16.2096 C   0  0  2  0  0  0  0  0  0  0  0  0
   23.6008  -19.1226  -14.7871 N   0  0  0  0  0  0  0  0  0  0  0  0
   24.7885  -19.7644  -14.2658 C   0  0  0  0  0  0  0  0  0  0  0  0
   22.3938  -19.9493  -14.6228 O   0  0  0  0  0  0  0  0  0  0  0  0
   22.4859  -21.1858  -14.8237 N   0  0  0  0  0  0  0  0  0  0  0  0
   28.3907  -18.5938  -19.3067 C   0  0  2  0  0  0  0  0  0  0  0  0
   21.1460  -19.4239  -14.2537 C   0  0  0  0  0  0  0  0  0  0  0  0
   19.9953  -20.3195  -13.9995 C   0  0  0  0  0  0  0  0  0  0  0  0
   19.6226  -21.0127  -15.2609 C   0  0  0  0  0  0  0  0  0  0  0  0
   18.5209  -22.0039  -15.0594 O   0  0  0  0  0  0  0  0  0  0  0  0
   18.1356  -22.7703  -16.2547 C   0  0  0  0  0  0  0  0  0  0  0  0
   18.7455  -22.6898  -17.3264 O   0  0  0  0  0  0  0  0  0  0  0  0
   20.3338  -21.2455  -12.9012 O   0  0  0  0  0  0  0  0  0  0  0  0
   19.7326  -21.1221  -11.7857 O   0  0  0  0  0  0  0  0  0  0  0  0
  2  3  2  0
  2  1  1  0
  4  2  1  0
  5  4  1  0
  6  7  1  0
  6  5  1  0
  8 10  1  0
  8  7  1  0
  8  9  1  1
 10 11  2  0
 13 12  1  0
 14 13  2  0
 15 13  1  0
 16 15  1  0
 17 16  1  0
 17 18  1  0
 19 18  1  1
 20 19  1  0
 20 10  1  0
 21 23  1  0
 21 19  1  0
 22 21  2  0
 24 25  1  6
 24 23  1  0
 25 26  1  0
 26 27  1  0
 27 31  1  0
 27 28  2  0
 29 32  1  0
 29 24  1  0
 30 29  2  0
M  END
$$$$
