RRE.pdb
     RDKit          3D

 32 31  0  0  1  0  0  0  0  0999 V2000
   27.7166  -19.6981  -16.5843 N   0  0  0  0  0  0  0  0  0  0  0  0
   28.0713  -20.9764  -16.0161 C   0  0  0  0  0  0  0  0  0  0  0  0
   29.2329  -21.4926  -16.2257 N   0  0  0  0  0  0  0  0  0  0  0  0
   27.1569  -21.7005  -15.2157 N   0  0  0  0  0  0  0  0  0  0  0  0
   26.1562  -20.9900  -14.4243 C   0  0  0  0  0  0  0  0  0  0  0  0
   26.7827  -20.6465  -13.1017 C   0  0  0  0  0  0  0  0  0  0  0  0
   25.9160  -19.9649  -12.1157 C   0  0  0  0  0  0  0  0  0  0  0  0
   25.0747  -20.8072  -11.2298 C   0  0  2  0  0  0  0  0  0  0  0  0
   25.3337  -22.2092  -11.2401 N   0  0  0  0  0  0  0  0  0  0  0  0
   23.6479  -20.5021  -11.5666 C   0  0  0  0  0  0  0  0  0  0  0  0
   23.2611  -19.3086  -11.4682 O   0  0  0  0  0  0  0  0  0  0  0  0
   29.5593  -22.4159  -15.9470 N   0  0  0  0  0  0  0  0  0  0  0  0
   21.1768  -21.5469  -16.7271 C   0  0  0  0  0  0  0  0  0  0  0  0
   22.0959  -20.4626  -16.8365 N   0  0  0  0  0  0  0  0  0  0  0  0
   23.1108  -20.5822  -17.6048 N   0  0  0  0  0  0  0  0  0  0  0  0
   21.9012  -19.2563  -16.1060 C   0  0  0  0  0  0  0  0  0  0  0  0
   20.7034  -19.1244  -15.3217 C   0  0  0  0  0  0  0  0  0  0  0  0
   21.0192  -19.4541  -13.8817 C   0  0  0  0  0  0  0  0  0  0  0  0
   21.1021  -20.9304  -13.6667 C   0  0  2  0  0  0  0  0  0  0  0  0
   21.3148  -21.2208  -12.2092 N   0  0  0  0  0  0  0  0  0  0  0  0
   22.7224  -21.4705  -11.9841 C   0  0  0  0  0  0  0  0  0  0  0  0
   20.4600  -22.3052  -11.6984 O   0  0  0  0  0  0  0  0  0  0  0  0
   20.8709  -23.4876  -11.8022 N   0  0  0  0  0  0  0  0  0  0  0  0
   23.7714  -19.7854  -17.7168 C   0  0  1  0  0  0  0  0  0  0  0  0
   19.2093  -22.0828  -11.1023 C   0  0  0  0  0  0  0  0  0  0  0  0
   18.4290  -23.2091  -10.5426 C   0  0  0  0  0  0  0  0  0  0  0  0
   18.8193  -23.4217   -9.1238 C   0  0  0  0  0  0  0  0  0  0  0  0
   18.0564  -24.5394   -8.4869 O   0  0  0  0  0  0  0  0  0  0  0  0
   18.3875  -24.8068   -7.0785 C   0  0  0  0  0  0  0  0  0  0  0  0
   19.1927  -24.1216   -6.4388 O   0  0  0  0  0  0  0  0  0  0  0  0
   16.9890  -22.9375  -10.7187 O   0  0  0  0  0  0  0  0  0  0  0  0
   16.6048  -21.7336  -10.8736 O   0  0  0  0  0  0  0  0  0  0  0  0
  2  3  2  0
  2  1  1  0
  4  2  1  0
  5  4  1  0
  6  7  1  0
  6  5  1  0
  8 10  1  0
  8  7  1  0
  8  9  1  6
 10 11  2  0
 13 12  1  0
 14 13  2  0
 15 13  1  0
 16 15  1  0
 17 16  1  0
 17 18  1  0
 19 18  1  1
 20 19  1  0
 20 10  1  0
 21 23  1  0
 21 19  1  0
 22 21  2  0
 24 25  1  6
 24 23  1  0
 25 26  1  0
 26 27  1  0
 27 31  1  0
 27 28  2  0
 29 32  1  0
 29 24  1  0
 30 29  2  0
M  END
$$$$
