HFT.pdb
     RDKit          3D

 29 30  0  0  1  0  0  0  0  0999 V2000
   11.1136  -16.0015   19.9766 N   0  0  0  0  0  0  0  0  0  0  0  0
    9.7654  -15.6863   20.3466 C   0  0  1  0  0  0  0  0  0  0  0  0
    8.7078  -16.4471   19.6294 C   0  0  0  0  0  0  0  0  0  0  0  0
    8.3400  -15.6919   18.3813 C   0  0  0  0  0  0  0  0  0  0  0  0
    8.8507  -14.4951   17.9310 C   0  0  0  0  0  0  0  0  0  0  0  0
    8.2631  -14.1584   16.7505 N   0  0  0  0  0  0  0  0  0  0  0  0
    7.4101  -15.1354   16.4895 C   0  0  0  0  0  0  0  0  0  0  0  0
    7.4226  -16.0937   17.4565 N   0  0  0  0  0  0  0  0  0  0  0  0
    9.5802  -15.6416   21.8240 C   0  0  0  0  0  0  0  0  0  0  0  0
   10.2361  -16.3928   22.5666 O   0  0  0  0  0  0  0  0  0  0  0  0
    8.6566  -14.7493   22.3755 N   0  0  0  0  0  0  0  0  0  0  0  0
    8.4615  -14.4782   23.7832 C   0  0  1  0  0  0  0  0  0  0  0  0
    7.4732  -13.4029   23.9961 C   0  0  0  0  0  0  0  0  0  0  0  0
    7.2043  -13.0334   25.3721 C   0  0  0  0  0  0  0  0  0  0  0  0
    8.1682  -12.4776   26.1737 C   0  0  0  0  0  0  0  0  0  0  0  0
    7.9174  -12.1286   27.4976 C   0  0  0  0  0  0  0  0  0  0  0  0
    6.6748  -12.3393   28.0289 C   0  0  0  0  0  0  0  0  0  0  0  0
    5.6655  -12.9005   27.2541 C   0  0  0  0  0  0  0  0  0  0  0  0
    5.9640  -13.2358   25.9262 C   0  0  0  0  0  0  0  0  0  0  0  0
    8.0902  -15.7327   24.5168 C   0  0  0  0  0  0  0  0  0  0  0  0
    6.9200  -16.1617   24.3596 O   0  0  0  0  0  0  0  0  0  0  0  0
    8.3801  -19.0382   24.1967 C   0  0  0  0  0  0  0  0  0  0  0  0
    9.0545  -18.8131   25.5393 C   0  0  1  0  0  0  0  0  0  0  0  0
   10.4172  -18.6727   25.3042 O   0  0  0  0  0  0  0  0  0  0  0  0
    8.5703  -17.5378   26.2066 C   0  0  2  0  0  0  0  0  0  0  0  0
    8.9724  -16.4395   25.3576 N   0  0  0  0  0  0  0  0  0  0  0  0
    9.1689  -17.4956   27.5645 C   0  0  0  0  0  0  0  0  0  0  0  0
    9.9967  -16.6093   27.8698 O   0  0  0  0  0  0  0  0  0  0  0  0
    8.8187  -18.4366   28.5155 O   0  0  0  0  0  0  0  0  0  0  0  0
  2  1  1  1
  3  2  1  0
  4  3  1  0
  4  8  1  0
  5  6  1  0
  5  4  2  0
  6  7  1  0
  7  8  2  0
  9  2  1  0
 10  9  2  0
 11  9  1  0
 12 11  1  0
 12 13  1  6
 14 13  1  0
 15 14  2  0
 16 15  1  0
 17 18  1  0
 17 16  2  0
 18 19  2  0
 19 14  1  0
 20 12  1  0
 21 20  2  0
 23 22  1  6
 23 25  1  0
 24 23  1  0
 25 26  1  6
 26 20  1  0
 27 25  1  0
 27 29  1  0
 28 27  2  0
M  END
$$$$
