HFT.pdb
     RDKit          3D

 29 30  0  0  1  0  0  0  0  0999 V2000
   11.2810  -16.4898   20.4701 N   0  0  0  0  0  0  0  0  0  0  0  0
   10.0938  -15.7231   20.7079 C   0  0  1  0  0  0  0  0  0  0  0  0
    8.9172  -16.0854   19.8735 C   0  0  0  0  0  0  0  0  0  0  0  0
    8.7451  -15.0354   18.8099 C   0  0  0  0  0  0  0  0  0  0  0  0
    9.5157  -13.9160   18.5887 C   0  0  0  0  0  0  0  0  0  0  0  0
    9.0353  -13.2306   17.5155 N   0  0  0  0  0  0  0  0  0  0  0  0
    7.9905  -13.9235   17.0931 C   0  0  0  0  0  0  0  0  0  0  0  0
    7.7752  -15.0332   17.8519 N   0  0  0  0  0  0  0  0  0  0  0  0
    9.7867  -15.5915   22.1596 C   0  0  0  0  0  0  0  0  0  0  0  0
   10.3515  -16.3201   22.9940 O   0  0  0  0  0  0  0  0  0  0  0  0
    8.8517  -14.6428   22.5825 N   0  0  0  0  0  0  0  0  0  0  0  0
    8.5986  -14.2377   23.9481 C   0  0  1  0  0  0  0  0  0  0  0  0
    7.6164  -13.1381   24.0141 C   0  0  0  0  0  0  0  0  0  0  0  0
    7.3116  -12.6201   25.3336 C   0  0  0  0  0  0  0  0  0  0  0  0
    8.2402  -11.9346   26.0741 C   0  0  0  0  0  0  0  0  0  0  0  0
    7.9552  -11.4423   27.3444 C   0  0  0  0  0  0  0  0  0  0  0  0
    6.7136  -11.6393   27.8834 C   0  0  0  0  0  0  0  0  0  0  0  0
    5.7394  -12.3289   27.1696 C   0  0  0  0  0  0  0  0  0  0  0  0
    6.0717  -12.8061   25.8941 C   0  0  0  0  0  0  0  0  0  0  0  0
    8.1788  -15.4136   24.7793 C   0  0  0  0  0  0  0  0  0  0  0  0
    8.1703  -15.2585   26.0259 O   0  0  0  0  0  0  0  0  0  0  0  0
    5.4308  -18.1444   23.4890 C   0  0  0  0  0  0  0  0  0  0  0  0
    6.6792  -18.7560   24.1017 C   0  0  1  0  0  0  0  0  0  0  0  0
    7.5568  -19.0434   23.0628 O   0  0  0  0  0  0  0  0  0  0  0  0
    7.3794  -17.7880   25.0392 C   0  0  2  0  0  0  0  0  0  0  0  0
    7.8013  -16.6595   24.2409 N   0  0  0  0  0  0  0  0  0  0  0  0
    8.5005  -18.5237   25.6763 C   0  0  0  0  0  0  0  0  0  0  0  0
    8.2822  -19.5306   26.3851 O   0  0  0  0  0  0  0  0  0  0  0  0
    9.8066  -18.1071   25.4944 O   0  0  0  0  0  0  0  0  0  0  0  0
  2  1  1  1
  3  2  1  0
  4  3  1  0
  4  8  1  0
  5  6  1  0
  5  4  2  0
  6  7  1  0
  7  8  2  0
  9  2  1  0
 10  9  2  0
 11  9  1  0
 12 11  1  0
 12 13  1  6
 14 13  1  0
 15 14  2  0
 16 15  1  0
 17 18  1  0
 17 16  2  0
 18 19  2  0
 19 14  1  0
 20 12  1  0
 21 20  2  0
 23 22  1  6
 23 25  1  0
 24 23  1  0
 25 26  1  6
 26 20  1  0
 27 25  1  0
 27 29  1  0
 28 27  2  0
M  END
$$$$
