HFT.pdb
     RDKit          3D

 29 30  0  0  1  0  0  0  0  0999 V2000
   10.0522  -15.9758   19.5507 N   0  0  0  0  0  0  0  0  0  0  0  0
    9.2947  -16.7204   20.5127 C   0  0  1  0  0  0  0  0  0  0  0  0
    9.3985  -18.2002   20.4062 C   0  0  0  0  0  0  0  0  0  0  0  0
    9.0407  -18.6038   19.0018 C   0  0  0  0  0  0  0  0  0  0  0  0
    9.8891  -18.8369   17.9426 C   0  0  0  0  0  0  0  0  0  0  0  0
    9.1685  -19.1972   16.8458 N   0  0  0  0  0  0  0  0  0  0  0  0
    7.9039  -19.1826   17.2339 C   0  0  0  0  0  0  0  0  0  0  0  0
    7.7770  -18.8268   18.5419 N   0  0  0  0  0  0  0  0  0  0  0  0
    9.4725  -16.2009   21.8974 C   0  0  0  0  0  0  0  0  0  0  0  0
   10.5276  -16.4107   22.5209 O   0  0  0  0  0  0  0  0  0  0  0  0
    8.4400  -15.4761   22.4990 N   0  0  0  0  0  0  0  0  0  0  0  0
    8.4436  -14.9288   23.8382 C   0  0  1  0  0  0  0  0  0  0  0  0
    7.2928  -14.0319   24.0603 C   0  0  0  0  0  0  0  0  0  0  0  0
    7.2412  -13.3485   25.3380 C   0  0  0  0  0  0  0  0  0  0  0  0
    8.0870  -13.6739   26.3673 C   0  0  0  0  0  0  0  0  0  0  0  0
    8.0362  -13.0263   27.5983 C   0  0  0  0  0  0  0  0  0  0  0  0
    7.1203  -12.0312   27.8019 C   0  0  0  0  0  0  0  0  0  0  0  0
    6.2418  -11.6668   26.7873 C   0  0  0  0  0  0  0  0  0  0  0  0
    6.3299  -12.3463   25.5644 C   0  0  0  0  0  0  0  0  0  0  0  0
    8.5021  -16.0272   24.8581 C   0  0  0  0  0  0  0  0  0  0  0  0
    7.4296  -16.6309   25.1100 O   0  0  0  0  0  0  0  0  0  0  0  0
   10.2683  -19.1092   24.6581 C   0  0  0  0  0  0  0  0  0  0  0  0
   10.7349  -18.4974   25.9680 C   0  0  1  0  0  0  0  0  0  0  0  0
   11.9264  -17.8278   25.7154 O   0  0  0  0  0  0  0  0  0  0  0  0
    9.7410  -17.4802   26.5007 C   0  0  2  0  0  0  0  0  0  0  0  0
    9.6780  -16.4072   25.5345 N   0  0  0  0  0  0  0  0  0  0  0  0
   10.2208  -17.0536   27.8393 C   0  0  0  0  0  0  0  0  0  0  0  0
   10.6089  -15.8808   28.0343 O   0  0  0  0  0  0  0  0  0  0  0  0
   10.2448  -17.9476   28.8940 O   0  0  0  0  0  0  0  0  0  0  0  0
  2  1  1  6
  3  2  1  0
  4  3  1  0
  4  8  1  0
  5  6  1  0
  5  4  2  0
  6  7  1  0
  7  8  2  0
  9  2  1  0
 10  9  2  0
 11  9  1  0
 12 11  1  0
 12 13  1  1
 14 13  1  0
 15 14  2  0
 16 15  1  0
 17 18  1  0
 17 16  2  0
 18 19  2  0
 19 14  1  0
 20 12  1  0
 21 20  2  0
 23 22  1  6
 23 25  1  0
 24 23  1  0
 25 26  1  6
 26 20  1  0
 27 25  1  0
 27 29  1  0
 28 27  2  0
M  END
$$$$
