HFT.pdb
     RDKit          3D

 29 30  0  0  1  0  0  0  0  0999 V2000
   10.2482  -15.1212   21.0429 N   0  0  0  0  0  0  0  0  0  0  0  0
    8.9691  -14.9141   21.6551 C   0  0  1  0  0  0  0  0  0  0  0  0
    7.7925  -15.2980   20.8304 C   0  0  0  0  0  0  0  0  0  0  0  0
    7.8651  -14.5587   19.5222 C   0  0  0  0  0  0  0  0  0  0  0  0
    8.2216  -13.2463   19.3067 C   0  0  0  0  0  0  0  0  0  0  0  0
    8.1752  -12.9688   17.9752 N   0  0  0  0  0  0  0  0  0  0  0  0
    7.7967  -14.0949   17.3930 C   0  0  0  0  0  0  0  0  0  0  0  0
    7.5962  -15.0929   18.2971 N   0  0  0  0  0  0  0  0  0  0  0  0
    8.9207  -15.4286   23.0521 C   0  0  0  0  0  0  0  0  0  0  0  0
    9.9211  -15.9596   23.5654 O   0  0  0  0  0  0  0  0  0  0  0  0
    7.7374  -15.3157   23.7871 N   0  0  0  0  0  0  0  0  0  0  0  0
    7.5809  -15.5631   25.2039 C   0  0  1  0  0  0  0  0  0  0  0  0
    6.3455  -14.9489   25.7281 C   0  0  0  0  0  0  0  0  0  0  0  0
    6.4058  -13.5332   26.0354 C   0  0  0  0  0  0  0  0  0  0  0  0
    5.2728  -12.7699   26.1555 C   0  0  0  0  0  0  0  0  0  0  0  0
    5.3256  -11.4090   26.4424 C   0  0  0  0  0  0  0  0  0  0  0  0
    6.5384  -10.8004   26.6141 C   0  0  0  0  0  0  0  0  0  0  0  0
    7.7145  -11.5339   26.5017 C   0  0  0  0  0  0  0  0  0  0  0  0
    7.6124  -12.9016   26.2119 C   0  0  0  0  0  0  0  0  0  0  0  0
    7.6414  -17.0335   25.4938 C   0  0  0  0  0  0  0  0  0  0  0  0
    6.9515  -17.7887   24.7644 O   0  0  0  0  0  0  0  0  0  0  0  0
    8.4885  -19.2335   24.2150 C   0  0  0  0  0  0  0  0  0  0  0  0
    9.2719  -19.5590   25.4752 C   0  0  1  0  0  0  0  0  0  0  0  0
   10.5087  -18.9332   25.3718 O   0  0  0  0  0  0  0  0  0  0  0  0
    8.5877  -19.0202   26.7193 C   0  0  2  0  0  0  0  0  0  0  0  0
    8.4185  -17.5982   26.5243 N   0  0  0  0  0  0  0  0  0  0  0  0
    9.4454  -19.3677   27.8802 C   0  0  0  0  0  0  0  0  0  0  0  0
   10.0549  -18.4775   28.5126 O   0  0  0  0  0  0  0  0  0  0  0  0
    9.5829  -20.6837   28.2822 O   0  0  0  0  0  0  0  0  0  0  0  0
  2  1  1  6
  3  2  1  0
  4  3  1  0
  4  8  1  0
  5  6  1  0
  5  4  2  0
  6  7  1  0
  7  8  2  0
  9  2  1  0
 10  9  2  0
 11  9  1  0
 12 11  1  0
 12 13  1  6
 14 13  1  0
 15 14  2  0
 16 15  1  0
 17 18  1  0
 17 16  2  0
 18 19  2  0
 19 14  1  0
 20 12  1  0
 21 20  2  0
 23 22  1  6
 23 25  1  0
 24 23  1  0
 25 26  1  6
 26 20  1  0
 27 25  1  0
 27 29  1  0
 28 27  2  0
M  END
$$$$
