HFT.pdb
     RDKit          3D

 29 30  0  0  1  0  0  0  0  0999 V2000
    8.6360  -17.4480   19.8893 N   0  0  0  0  0  0  0  0  0  0  0  0
    9.9813  -17.1470   20.2808 C   0  0  1  0  0  0  0  0  0  0  0  0
   10.8707  -16.6522   19.1963 C   0  0  0  0  0  0  0  0  0  0  0  0
   10.1619  -16.8273   17.8809 C   0  0  0  0  0  0  0  0  0  0  0  0
    8.8279  -17.0895   17.6630 C   0  0  0  0  0  0  0  0  0  0  0  0
    8.5844  -17.1594   16.3259 N   0  0  0  0  0  0  0  0  0  0  0  0
    9.7520  -16.9430   15.7428 C   0  0  0  0  0  0  0  0  0  0  0  0
   10.7440  -16.7349   16.6517 N   0  0  0  0  0  0  0  0  0  0  0  0
   10.0391  -16.3333   21.5272 C   0  0  0  0  0  0  0  0  0  0  0  0
   11.1330  -15.9841   22.0043 O   0  0  0  0  0  0  0  0  0  0  0  0
    8.8513  -15.9654   22.1652 N   0  0  0  0  0  0  0  0  0  0  0  0
    8.7362  -15.2747   23.4312 C   0  0  1  0  0  0  0  0  0  0  0  0
    7.5686  -14.3722   23.4521 C   0  0  0  0  0  0  0  0  0  0  0  0
    7.3762  -13.5897   24.6574 C   0  0  0  0  0  0  0  0  0  0  0  0
    6.4147  -13.9090   25.5816 C   0  0  0  0  0  0  0  0  0  0  0  0
    6.2207  -13.1563   26.7363 C   0  0  0  0  0  0  0  0  0  0  0  0
    7.0072  -12.0622   26.9706 C   0  0  0  0  0  0  0  0  0  0  0  0
    7.9952  -11.6996   26.0616 C   0  0  0  0  0  0  0  0  0  0  0  0
    8.1544  -12.4873   24.9131 C   0  0  0  0  0  0  0  0  0  0  0  0
    8.7069  -16.2540   24.5670 C   0  0  0  0  0  0  0  0  0  0  0  0
    7.6599  -16.9336   24.7088 O   0  0  0  0  0  0  0  0  0  0  0  0
   10.3005  -19.2260   24.9208 C   0  0  0  0  0  0  0  0  0  0  0  0
   10.7191  -18.5075   26.1922 C   0  0  1  0  0  0  0  0  0  0  0  0
   11.9590  -17.9260   25.9547 O   0  0  0  0  0  0  0  0  0  0  0  0
    9.7521  -17.3941   26.5550 C   0  0  2  0  0  0  0  0  0  0  0  0
    9.7751  -16.4448   25.4655 N   0  0  0  0  0  0  0  0  0  0  0  0
   10.1982  -16.8276   27.8527 C   0  0  0  0  0  0  0  0  0  0  0  0
   10.5738  -15.6375   27.9342 O   0  0  0  0  0  0  0  0  0  0  0  0
   10.2040  -17.6080   28.9943 O   0  0  0  0  0  0  0  0  0  0  0  0
  2  1  1  6
  3  2  1  0
  4  3  1  0
  4  8  1  0
  5  6  1  0
  5  4  2  0
  6  7  1  0
  7  8  2  0
  9  2  1  0
 10  9  2  0
 11  9  1  0
 12 11  1  0
 12 13  1  6
 14 13  1  0
 15 14  2  0
 16 15  1  0
 17 18  1  0
 17 16  2  0
 18 19  2  0
 19 14  1  0
 20 12  1  0
 21 20  2  0
 23 22  1  6
 23 25  1  0
 24 23  1  0
 25 26  1  6
 26 20  1  0
 27 25  1  0
 27 29  1  0
 28 27  2  0
M  END
$$$$
