HFT.pdb
     RDKit          3D

 29 30  0  0  1  0  0  0  0  0999 V2000
    7.9552  -17.1780   20.2364 N   0  0  0  0  0  0  0  0  0  0  0  0
    9.1320  -16.3683   20.3511 C   0  0  1  0  0  0  0  0  0  0  0  0
    9.3305  -15.3666   19.2698 C   0  0  0  0  0  0  0  0  0  0  0  0
    9.2519  -16.0735   17.9442 C   0  0  0  0  0  0  0  0  0  0  0  0
   10.1383  -16.9834   17.4128 C   0  0  0  0  0  0  0  0  0  0  0  0
    9.6954  -17.4013   16.1957 N   0  0  0  0  0  0  0  0  0  0  0  0
    8.5591  -16.7551   15.9926 C   0  0  0  0  0  0  0  0  0  0  0  0
    8.2477  -15.9338   17.0329 N   0  0  0  0  0  0  0  0  0  0  0  0
    9.3081  -15.8176   21.7239 C   0  0  0  0  0  0  0  0  0  0  0  0
   10.4351  -15.4885   22.1335 O   0  0  0  0  0  0  0  0  0  0  0  0
    8.1950  -15.6756   22.5570 N   0  0  0  0  0  0  0  0  0  0  0  0
    8.2067  -15.2431   23.9376 C   0  0  1  0  0  0  0  0  0  0  0  0
    6.9886  -14.4824   24.2776 C   0  0  0  0  0  0  0  0  0  0  0  0
    7.0732  -13.6044   25.4283 C   0  0  0  0  0  0  0  0  0  0  0  0
    5.9707  -12.9622   25.9310 C   0  0  0  0  0  0  0  0  0  0  0  0
    6.0481  -12.1121   27.0305 C   0  0  0  0  0  0  0  0  0  0  0  0
    7.2544  -11.9025   27.6399 C   0  0  0  0  0  0  0  0  0  0  0  0
    8.4000  -12.5322   27.1654 C   0  0  0  0  0  0  0  0  0  0  0  0
    8.2739  -13.3796   26.0559 C   0  0  0  0  0  0  0  0  0  0  0  0
    8.4116  -16.4112   24.8559 C   0  0  0  0  0  0  0  0  0  0  0  0
    7.4018  -17.1061   25.1308 O   0  0  0  0  0  0  0  0  0  0  0  0
   10.2995  -19.4031   24.3909 C   0  0  0  0  0  0  0  0  0  0  0  0
   10.8448  -18.8079   25.6778 C   0  0  1  0  0  0  0  0  0  0  0  0
   11.9741  -18.0668   25.3498 O   0  0  0  0  0  0  0  0  0  0  0  0
    9.8494  -17.8634   26.3284 C   0  0  2  0  0  0  0  0  0  0  0  0
    9.6567  -16.7602   25.4149 N   0  0  0  0  0  0  0  0  0  0  0  0
   10.4146  -17.4624   27.6413 C   0  0  0  0  0  0  0  0  0  0  0  0
   10.7782  -16.2836   27.8464 O   0  0  0  0  0  0  0  0  0  0  0  0
   10.5468  -18.3876   28.6606 O   0  0  0  0  0  0  0  0  0  0  0  0
  2  1  1  1
  3  2  1  0
  4  3  1  0
  4  8  1  0
  5  6  1  0
  5  4  2  0
  6  7  1  0
  7  8  2  0
  9  2  1  0
 10  9  2  0
 11  9  1  0
 12 11  1  0
 12 13  1  1
 14 13  1  0
 15 14  2  0
 16 15  1  0
 17 18  1  0
 17 16  2  0
 18 19  2  0
 19 14  1  0
 20 12  1  0
 21 20  2  0
 23 22  1  6
 23 25  1  0
 24 23  1  0
 25 26  1  6
 26 20  1  0
 27 25  1  0
 27 29  1  0
 28 27  2  0
M  END
$$$$
