HFT.pdb
     RDKit          3D

 29 30  0  0  1  0  0  0  0  0999 V2000
   10.1690  -16.7313   19.2751 N   0  0  0  0  0  0  0  0  0  0  0  0
    9.0584  -16.8823   20.1683 C   0  0  1  0  0  0  0  0  0  0  0  0
    8.4578  -18.2418   20.2224 C   0  0  0  0  0  0  0  0  0  0  0  0
    8.0090  -18.6206   18.8374 C   0  0  0  0  0  0  0  0  0  0  0  0
    6.8396  -18.2735   18.1986 C   0  0  0  0  0  0  0  0  0  0  0  0
    6.8226  -18.8067   16.9466 N   0  0  0  0  0  0  0  0  0  0  0  0
    7.9632  -19.4664   16.8285 C   0  0  0  0  0  0  0  0  0  0  0  0
    8.7200  -19.3808   17.9570 N   0  0  0  0  0  0  0  0  0  0  0  0
    9.3242  -16.2861   21.5072 C   0  0  0  0  0  0  0  0  0  0  0  0
   10.4120  -16.4755   22.0791 O   0  0  0  0  0  0  0  0  0  0  0  0
    8.3380  -15.5116   22.1243 N   0  0  0  0  0  0  0  0  0  0  0  0
    8.4232  -14.8970   23.4313 C   0  0  1  0  0  0  0  0  0  0  0  0
    7.3489  -13.9058   23.6351 C   0  0  0  0  0  0  0  0  0  0  0  0
    7.2775  -13.2880   24.9449 C   0  0  0  0  0  0  0  0  0  0  0  0
    6.2854  -13.5997   25.8388 C   0  0  0  0  0  0  0  0  0  0  0  0
    6.2078  -13.0035   27.0942 C   0  0  0  0  0  0  0  0  0  0  0  0
    7.1444  -12.0772   27.4622 C   0  0  0  0  0  0  0  0  0  0  0  0
    8.1691  -11.7291   26.5888 C   0  0  0  0  0  0  0  0  0  0  0  0
    8.2072  -12.3556   25.3354 C   0  0  0  0  0  0  0  0  0  0  0  0
    8.4320  -15.9419   24.5074 C   0  0  0  0  0  0  0  0  0  0  0  0
    7.3789  -16.6083   24.6656 O   0  0  0  0  0  0  0  0  0  0  0  0
    9.9425  -19.0359   24.7483 C   0  0  0  0  0  0  0  0  0  0  0  0
   10.4653  -18.3072   25.9745 C   0  0  1  0  0  0  0  0  0  0  0  0
   11.6866  -17.7378   25.6331 O   0  0  0  0  0  0  0  0  0  0  0  0
    9.5379  -17.1825   26.4001 C   0  0  2  0  0  0  0  0  0  0  0  0
    9.5418  -16.2071   25.3336 N   0  0  0  0  0  0  0  0  0  0  0  0
   10.0445  -16.6582   27.6933 C   0  0  0  0  0  0  0  0  0  0  0  0
   10.4413  -15.4763   27.7914 O   0  0  0  0  0  0  0  0  0  0  0  0
   10.0844  -17.4697   28.8124 O   0  0  0  0  0  0  0  0  0  0  0  0
  2  1  1  6
  3  2  1  0
  4  3  1  0
  4  8  1  0
  5  6  1  0
  5  4  2  0
  6  7  1  0
  7  8  2  0
  9  2  1  0
 10  9  2  0
 11  9  1  0
 12 11  1  0
 12 13  1  1
 14 13  1  0
 15 14  2  0
 16 15  1  0
 17 18  1  0
 17 16  2  0
 18 19  2  0
 19 14  1  0
 20 12  1  0
 21 20  2  0
 23 22  1  6
 23 25  1  0
 24 23  1  0
 25 26  1  6
 26 20  1  0
 27 25  1  0
 27 29  1  0
 28 27  2  0
M  END
$$$$
