HFT.pdb
     RDKit          3D

 29 30  0  0  1  0  0  0  0  0999 V2000
   10.1713  -16.5440   19.3204 N   0  0  0  0  0  0  0  0  0  0  0  0
    8.9821  -16.5247   20.1199 C   0  0  1  0  0  0  0  0  0  0  0  0
    8.1628  -17.7653   20.0829 C   0  0  0  0  0  0  0  0  0  0  0  0
    7.7700  -18.0353   18.6560 C   0  0  0  0  0  0  0  0  0  0  0  0
    7.7155  -17.1452   17.6069 C   0  0  0  0  0  0  0  0  0  0  0  0
    7.3278  -17.7916   16.4738 N   0  0  0  0  0  0  0  0  0  0  0  0
    7.1501  -19.0532   16.8303 C   0  0  0  0  0  0  0  0  0  0  0  0
    7.4086  -19.2496   18.1525 N   0  0  0  0  0  0  0  0  0  0  0  0
    9.2328  -16.0076   21.4942 C   0  0  0  0  0  0  0  0  0  0  0  0
   10.3286  -16.1965   22.0508 O   0  0  0  0  0  0  0  0  0  0  0  0
    8.2234  -15.3089   22.1620 N   0  0  0  0  0  0  0  0  0  0  0  0
    8.2991  -14.7625   23.4995 C   0  0  1  0  0  0  0  0  0  0  0  0
    7.2502  -13.7506   23.7317 C   0  0  0  0  0  0  0  0  0  0  0  0
    7.1693  -13.1965   25.0692 C   0  0  0  0  0  0  0  0  0  0  0  0
    6.1119  -13.4639   25.9004 C   0  0  0  0  0  0  0  0  0  0  0  0
    6.0256  -12.9282   27.1821 C   0  0  0  0  0  0  0  0  0  0  0  0
    7.0200  -12.1089   27.6412 C   0  0  0  0  0  0  0  0  0  0  0  0
    8.1120  -11.8093   26.8339 C   0  0  0  0  0  0  0  0  0  0  0  0
    8.1563  -12.3718   25.5507 C   0  0  0  0  0  0  0  0  0  0  0  0
    8.2550  -15.8591   24.5219 C   0  0  0  0  0  0  0  0  0  0  0  0
    7.1551  -16.4435   24.6860 O   0  0  0  0  0  0  0  0  0  0  0  0
    9.5886  -19.0575   24.4903 C   0  0  0  0  0  0  0  0  0  0  0  0
   10.1782  -18.4490   25.7512 C   0  0  1  0  0  0  0  0  0  0  0  0
   11.4204  -17.9212   25.4191 O   0  0  0  0  0  0  0  0  0  0  0  0
    9.3232  -17.3112   26.2810 C   0  0  2  0  0  0  0  0  0  0  0  0
    9.3648  -16.2576   25.2927 N   0  0  0  0  0  0  0  0  0  0  0  0
    9.8801  -16.9178   27.5998 C   0  0  0  0  0  0  0  0  0  0  0  0
   10.4006  -15.7924   27.7628 O   0  0  0  0  0  0  0  0  0  0  0  0
    9.8305  -17.7907   28.6712 O   0  0  0  0  0  0  0  0  0  0  0  0
  2  1  1  1
  3  2  1  0
  4  3  1  0
  4  8  1  0
  5  6  1  0
  5  4  2  0
  6  7  1  0
  7  8  2  0
  9  2  1  0
 10  9  2  0
 11  9  1  0
 12 11  1  0
 12 13  1  1
 14 13  1  0
 15 14  2  0
 16 15  1  0
 17 18  1  0
 17 16  2  0
 18 19  2  0
 19 14  1  0
 20 12  1  0
 21 20  2  0
 23 22  1  6
 23 25  1  0
 24 23  1  0
 25 26  1  6
 26 20  1  0
 27 25  1  0
 27 29  1  0
 28 27  2  0
M  END
$$$$
