HFT.pdb
     RDKit          3D

 29 30  0  0  1  0  0  0  0  0999 V2000
    8.2642  -16.9977   19.9625 N   0  0  0  0  0  0  0  0  0  0  0  0
    9.6206  -16.7980   20.3796 C   0  0  1  0  0  0  0  0  0  0  0  0
   10.5407  -16.2651   19.3397 C   0  0  0  0  0  0  0  0  0  0  0  0
    9.8798  -16.4136   17.9964 C   0  0  0  0  0  0  0  0  0  0  0  0
    9.9567  -17.4766   17.1246 C   0  0  0  0  0  0  0  0  0  0  0  0
    9.1986  -17.2248   16.0229 N   0  0  0  0  0  0  0  0  0  0  0  0
    8.6706  -16.0285   16.2237 C   0  0  0  0  0  0  0  0  0  0  0  0
    9.0576  -15.4948   17.4149 N   0  0  0  0  0  0  0  0  0  0  0  0
    9.7120  -16.0895   21.6868 C   0  0  0  0  0  0  0  0  0  0  0  0
   10.8169  -15.8840   22.2188 O   0  0  0  0  0  0  0  0  0  0  0  0
    8.5429  -15.6580   22.3194 N   0  0  0  0  0  0  0  0  0  0  0  0
    8.4490  -15.0643   23.6354 C   0  0  1  0  0  0  0  0  0  0  0  0
    7.3385  -14.0956   23.7150 C   0  0  0  0  0  0  0  0  0  0  0  0
    7.1909  -13.3807   24.9678 C   0  0  0  0  0  0  0  0  0  0  0  0
    8.0954  -12.4317   25.3703 C   0  0  0  0  0  0  0  0  0  0  0  0
    7.9626  -11.7485   26.5756 C   0  0  0  0  0  0  0  0  0  0  0  0
    6.9010  -12.0204   27.3939 C   0  0  0  0  0  0  0  0  0  0  0  0
    5.9583  -12.9749   27.0278 C   0  0  0  0  0  0  0  0  0  0  0  0
    6.1328  -13.6375   25.8048 C   0  0  0  0  0  0  0  0  0  0  0  0
    8.3412  -16.1270   24.6885 C   0  0  0  0  0  0  0  0  0  0  0  0
    7.2260  -16.6902   24.8201 O   0  0  0  0  0  0  0  0  0  0  0  0
    9.4953  -19.3077   24.7455 C   0  0  0  0  0  0  0  0  0  0  0  0
   10.0937  -18.7423   26.0222 C   0  0  1  0  0  0  0  0  0  0  0  0
   11.3788  -18.3051   25.7236 O   0  0  0  0  0  0  0  0  0  0  0  0
    9.3087  -17.5459   26.5310 C   0  0  2  0  0  0  0  0  0  0  0  0
    9.4085  -16.5166   25.5214 N   0  0  0  0  0  0  0  0  0  0  0  0
    9.8925  -17.1595   27.8402 C   0  0  0  0  0  0  0  0  0  0  0  0
    9.8352  -17.9361   28.8187 O   0  0  0  0  0  0  0  0  0  0  0  0
   10.5113  -15.9329   27.9981 O   0  0  0  0  0  0  0  0  0  0  0  0
  2  1  1  6
  3  2  1  0
  4  3  1  0
  4  8  1  0
  5  6  1  0
  5  4  2  0
  6  7  1  0
  7  8  2  0
  9  2  1  0
 10  9  2  0
 11  9  1  0
 12 11  1  0
 12 13  1  6
 14 13  1  0
 15 14  2  0
 16 15  1  0
 17 18  1  0
 17 16  2  0
 18 19  2  0
 19 14  1  0
 20 12  1  0
 21 20  2  0
 23 22  1  6
 23 25  1  0
 24 23  1  0
 25 26  1  6
 26 20  1  0
 27 25  1  0
 27 29  1  0
 28 27  2  0
M  END
$$$$
