HFT.pdb
     RDKit          3D

 29 30  0  0  1  0  0  0  0  0999 V2000
    9.9895  -16.5709   19.1727 N   0  0  0  0  0  0  0  0  0  0  0  0
    8.8357  -16.6305   20.0206 C   0  0  1  0  0  0  0  0  0  0  0  0
    8.0801  -17.9111   19.9882 C   0  0  0  0  0  0  0  0  0  0  0  0
    7.6591  -18.1810   18.5693 C   0  0  0  0  0  0  0  0  0  0  0  0
    7.9381  -17.4376   17.4444 C   0  0  0  0  0  0  0  0  0  0  0  0
    7.3864  -18.0314   16.3512 N   0  0  0  0  0  0  0  0  0  0  0  0
    6.7827  -19.1171   16.8061 C   0  0  0  0  0  0  0  0  0  0  0  0
    6.9226  -19.2503   18.1538 N   0  0  0  0  0  0  0  0  0  0  0  0
    9.1174  -16.1305   21.3952 C   0  0  0  0  0  0  0  0  0  0  0  0
   10.1655  -16.4511   21.9823 O   0  0  0  0  0  0  0  0  0  0  0  0
    8.1906  -15.2979   22.0286 N   0  0  0  0  0  0  0  0  0  0  0  0
    8.2926  -14.7652   23.3698 C   0  0  1  0  0  0  0  0  0  0  0  0
    7.2906  -13.7089   23.6111 C   0  0  0  0  0  0  0  0  0  0  0  0
    7.2949  -13.1003   24.9271 C   0  0  0  0  0  0  0  0  0  0  0  0
    8.3545  -12.3544   25.3759 C   0  0  0  0  0  0  0  0  0  0  0  0
    8.3669  -11.7748   26.6413 C   0  0  0  0  0  0  0  0  0  0  0  0
    7.2950  -11.9447   27.4737 C   0  0  0  0  0  0  0  0  0  0  0  0
    6.1976  -12.6932   27.0620 C   0  0  0  0  0  0  0  0  0  0  0  0
    6.2294  -13.2576   25.7793 C   0  0  0  0  0  0  0  0  0  0  0  0
    8.2005  -15.8662   24.3844 C   0  0  0  0  0  0  0  0  0  0  0  0
    7.0851  -16.4288   24.5176 O   0  0  0  0  0  0  0  0  0  0  0  0
    9.3348  -19.0967   24.3584 C   0  0  0  0  0  0  0  0  0  0  0  0
    9.9768  -18.5287   25.6126 C   0  0  1  0  0  0  0  0  0  0  0  0
   11.2408  -18.0681   25.2632 O   0  0  0  0  0  0  0  0  0  0  0  0
    9.1941  -17.3487   26.1617 C   0  0  2  0  0  0  0  0  0  0  0  0
    9.2823  -16.2916   25.1801 N   0  0  0  0  0  0  0  0  0  0  0  0
    9.7893  -16.9974   27.4756 C   0  0  0  0  0  0  0  0  0  0  0  0
   10.4179  -15.9268   27.6258 O   0  0  0  0  0  0  0  0  0  0  0  0
    9.6563  -17.8495   28.5567 O   0  0  0  0  0  0  0  0  0  0  0  0
  2  1  1  1
  3  2  1  0
  4  3  1  0
  4  8  1  0
  5  6  1  0
  5  4  2  0
  6  7  1  0
  7  8  2  0
  9  2  1  0
 10  9  2  0
 11  9  1  0
 12 11  1  0
 12 13  1  1
 14 13  1  0
 15 14  2  0
 16 15  1  0
 17 18  1  0
 17 16  2  0
 18 19  2  0
 19 14  1  0
 20 12  1  0
 21 20  2  0
 23 22  1  6
 23 25  1  0
 24 23  1  0
 25 26  1  6
 26 20  1  0
 27 25  1  0
 27 29  1  0
 28 27  2  0
M  END
$$$$
