HFT.pdb
     RDKit          3D

 29 30  0  0  1  0  0  0  0  0999 V2000
   10.1067  -17.0272   19.4819 N   0  0  0  0  0  0  0  0  0  0  0  0
    8.9261  -16.9507   20.2906 C   0  0  1  0  0  0  0  0  0  0  0  0
    8.1270  -18.2018   20.3807 C   0  0  0  0  0  0  0  0  0  0  0  0
    7.6357  -18.5544   19.0032 C   0  0  0  0  0  0  0  0  0  0  0  0
    7.8189  -17.8555   17.8311 C   0  0  0  0  0  0  0  0  0  0  0  0
    7.2291  -18.5208   16.8008 N   0  0  0  0  0  0  0  0  0  0  0  0
    6.6969  -19.6054   17.3397 C   0  0  0  0  0  0  0  0  0  0  0  0
    6.9198  -19.6690   18.6813 N   0  0  0  0  0  0  0  0  0  0  0  0
    9.1831  -16.3025   21.6069 C   0  0  0  0  0  0  0  0  0  0  0  0
   10.3060  -16.3703   22.1367 O   0  0  0  0  0  0  0  0  0  0  0  0
    8.1491  -15.6173   22.2508 N   0  0  0  0  0  0  0  0  0  0  0  0
    8.2125  -15.0009   23.5581 C   0  0  1  0  0  0  0  0  0  0  0  0
    7.1691  -13.9702   23.7225 C   0  0  0  0  0  0  0  0  0  0  0  0
    7.1103  -13.3077   25.0109 C   0  0  0  0  0  0  0  0  0  0  0  0
    6.0260  -13.4345   25.8409 C   0  0  0  0  0  0  0  0  0  0  0  0
    5.9612  -12.7942   27.0750 C   0  0  0  0  0  0  0  0  0  0  0  0
    7.0048  -12.0121   27.4870 C   0  0  0  0  0  0  0  0  0  0  0  0
    8.1256  -11.8536   26.6790 C   0  0  0  0  0  0  0  0  0  0  0  0
    8.1466  -12.5178   25.4447 C   0  0  0  0  0  0  0  0  0  0  0  0
    8.1466  -16.0410   24.6368 C   0  0  0  0  0  0  0  0  0  0  0  0
    7.0370  -16.5987   24.8260 O   0  0  0  0  0  0  0  0  0  0  0  0
    9.3672  -19.2804   24.8650 C   0  0  0  0  0  0  0  0  0  0  0  0
    9.9865  -18.5889   26.0676 C   0  0  1  0  0  0  0  0  0  0  0  0
   11.2431  -18.1331   25.6864 O   0  0  0  0  0  0  0  0  0  0  0  0
    9.1740  -17.3827   26.5046 C   0  0  2  0  0  0  0  0  0  0  0  0
    9.2467  -16.4154   25.4332 N   0  0  0  0  0  0  0  0  0  0  0  0
    9.7511  -16.9024   27.7854 C   0  0  0  0  0  0  0  0  0  0  0  0
   10.3075  -15.7847   27.8554 O   0  0  0  0  0  0  0  0  0  0  0  0
    9.6808  -17.6845   28.9238 O   0  0  0  0  0  0  0  0  0  0  0  0
  2  1  1  1
  3  2  1  0
  4  3  1  0
  4  8  1  0
  5  6  1  0
  5  4  2  0
  6  7  1  0
  7  8  2  0
  9  2  1  0
 10  9  2  0
 11  9  1  0
 12 11  1  0
 12 13  1  1
 14 13  1  0
 15 14  2  0
 16 15  1  0
 17 18  1  0
 17 16  2  0
 18 19  2  0
 19 14  1  0
 20 12  1  0
 21 20  2  0
 23 22  1  6
 23 25  1  0
 24 23  1  0
 25 26  1  6
 26 20  1  0
 27 25  1  0
 27 29  1  0
 28 27  2  0
M  END
$$$$
