HFT.pdb
     RDKit          3D

 29 30  0  0  1  0  0  0  0  0999 V2000
    9.8625  -17.1621   19.7291 N   0  0  0  0  0  0  0  0  0  0  0  0
    8.9647  -17.5603   20.7727 C   0  0  1  0  0  0  0  0  0  0  0  0
    8.7972  -19.0273   20.9511 C   0  0  0  0  0  0  0  0  0  0  0  0
    8.5368  -19.6451   19.6043 C   0  0  0  0  0  0  0  0  0  0  0  0
    7.5987  -19.2748   18.6669 C   0  0  0  0  0  0  0  0  0  0  0  0
    7.6978  -20.0787   17.5733 N   0  0  0  0  0  0  0  0  0  0  0  0
    8.6802  -20.9226   17.8435 C   0  0  0  0  0  0  0  0  0  0  0  0
    9.2225  -20.6959   19.0715 N   0  0  0  0  0  0  0  0  0  0  0  0
    9.2107  -16.8220   22.0429 C   0  0  0  0  0  0  0  0  0  0  0  0
   10.3150  -16.8906   22.6104 O   0  0  0  0  0  0  0  0  0  0  0  0
    8.1874  -16.0505   22.6004 N   0  0  0  0  0  0  0  0  0  0  0  0
    8.2509  -15.3097   23.8414 C   0  0  1  0  0  0  0  0  0  0  0  0
    7.1992  -14.2766   23.9104 C   0  0  0  0  0  0  0  0  0  0  0  0
    7.1628  -13.4684   25.1136 C   0  0  0  0  0  0  0  0  0  0  0  0
    8.1544  -12.5691   25.4114 C   0  0  0  0  0  0  0  0  0  0  0  0
    8.1282  -11.7968   26.5691 C   0  0  0  0  0  0  0  0  0  0  0  0
    7.0864  -11.9269   27.4456 C   0  0  0  0  0  0  0  0  0  0  0  0
    6.0579  -12.8262   27.1858 C   0  0  0  0  0  0  0  0  0  0  0  0
    6.1265  -13.5824   26.0075 C   0  0  0  0  0  0  0  0  0  0  0  0
    8.1985  -16.2408   25.0163 C   0  0  0  0  0  0  0  0  0  0  0  0
    7.0771  -16.7221   25.3146 O   0  0  0  0  0  0  0  0  0  0  0  0
    9.3218  -19.4998   25.3940 C   0  0  0  0  0  0  0  0  0  0  0  0
   10.0303  -18.7514   26.5102 C   0  0  1  0  0  0  0  0  0  0  0  0
   11.2722  -18.3570   26.0264 O   0  0  0  0  0  0  0  0  0  0  0  0
    9.2761  -17.4969   26.9150 C   0  0  2  0  0  0  0  0  0  0  0  0
    9.3235  -16.5947   25.7869 N   0  0  0  0  0  0  0  0  0  0  0  0
    9.9302  -16.9636   28.1364 C   0  0  0  0  0  0  0  0  0  0  0  0
   10.5384  -15.8713   28.1096 O   0  0  0  0  0  0  0  0  0  0  0  0
    9.8757  -17.6670   29.3258 O   0  0  0  0  0  0  0  0  0  0  0  0
  2  1  1  6
  3  2  1  0
  4  3  1  0
  4  8  1  0
  5  6  1  0
  5  4  2  0
  6  7  1  0
  7  8  2  0
  9  2  1  0
 10  9  2  0
 11  9  1  0
 12 11  1  0
 12 13  1  1
 14 13  1  0
 15 14  2  0
 16 15  1  0
 17 18  1  0
 17 16  2  0
 18 19  2  0
 19 14  1  0
 20 12  1  0
 21 20  2  0
 23 22  1  6
 23 25  1  0
 24 23  1  0
 25 26  1  6
 26 20  1  0
 27 25  1  0
 27 29  1  0
 28 27  2  0
M  END
$$$$
