TYH.pdb
     RDKit          3D

 30 31  0  0  1  0  0  0  0  0999 V2000
   28.4856  -19.9437  -17.9916 C   0  0  0  0  0  0  0  0  0  0  0  0
   27.0167  -19.9726  -18.2842 C   0  0  1  0  0  0  0  0  0  0  0  0
   26.6973  -21.0602  -19.0958 O   0  0  0  0  0  0  0  0  0  0  0  0
   26.1714  -20.0109  -17.0356 C   0  0  2  0  0  0  0  0  0  0  0  0
   26.4327  -18.8258  -16.2516 N   0  0  0  0  0  0  0  0  0  0  0  0
   26.3193  -21.2515  -16.2712 C   0  0  0  0  0  0  0  0  0  0  0  0
   27.2621  -21.3147  -15.4355 O   0  0  0  0  0  0  0  0  0  0  0  0
   24.4480  -20.4363  -10.3072 O   0  0  0  0  0  0  0  0  0  0  0  0
   24.4243  -21.2554  -11.4268 C   0  0  0  0  0  0  0  0  0  0  0  0
   23.6159  -20.9832  -12.5185 C   0  0  0  0  0  0  0  0  0  0  0  0
   23.6326  -21.8348  -13.6084 C   0  0  0  0  0  0  0  0  0  0  0  0
   24.4325  -22.9535  -13.6450 C   0  0  0  0  0  0  0  0  0  0  0  0
   24.4193  -23.8375  -14.8305 C   0  0  0  0  0  0  0  0  0  0  0  0
   25.6797  -23.6258  -15.6792 C   0  0  2  0  0  0  0  0  0  0  0  0
   25.4983  -22.3923  -16.3834 N   0  0  0  0  0  0  0  0  0  0  0  0
   25.8685  -24.8001  -16.4972 C   0  0  0  0  0  0  0  0  0  0  0  0
   25.2903  -24.9347  -17.5922 O   0  0  0  0  0  0  0  0  0  0  0  0
   25.2288  -23.2173  -12.5636 C   0  0  0  0  0  0  0  0  0  0  0  0
   25.2180  -22.3671  -11.4652 C   0  0  0  0  0  0  0  0  0  0  0  0
   26.7273  -25.8313  -16.0588 N   0  0  0  0  0  0  0  0  0  0  0  0
   26.9654  -27.0451  -16.8556 C   0  0  1  0  0  0  0  0  0  0  0  0
   28.0048  -27.9048  -16.2263 C   0  0  0  0  0  0  0  0  0  0  0  0
   28.1319  -29.1777  -16.9671 C   0  0  0  0  0  0  0  0  0  0  0  0
   28.5991  -29.2945  -18.2825 C   0  0  0  0  0  0  0  0  0  0  0  0
   28.5727  -30.5956  -18.6128 N   0  0  0  0  0  0  0  0  0  0  0  0
   28.1123  -31.3167  -17.5756 C   0  0  0  0  0  0  0  0  0  0  0  0
   27.8561  -30.4444  -16.6040 N   0  0  0  0  0  0  0  0  0  0  0  0
   25.7182  -27.7687  -17.0945 C   0  0  0  0  0  0  0  0  0  0  0  0
   24.8856  -27.9159  -16.1820 O   0  0  0  0  0  0  0  0  0  0  0  0
   25.4335  -28.3154  -18.3676 O   0  0  0  0  0  0  0  0  0  0  0  0
  2  3  1  0
  2  1  1  1
  4  2  1  0
  4  5  1  1
  6  4  1  0
  6  7  2  0
  9  8  1  0
 10  9  2  0
 11 10  1  0
 12 11  2  0
 12 18  1  0
 14 13  1  6
 13 12  1  0
 14 15  1  0
 15  6  1  0
 16 14  1  0
 17 16  2  0
 18 19  2  0
 19  9  1  0
 20 16  1  0
 21 22  1  1
 21 20  1  0
 23 22  1  0
 24 23  2  0
 25 24  1  0
 26 25  1  0
 26 27  2  0
 27 23  1  0
 28 30  1  0
 28 21  1  0
 29 28  2  0
M  END
$$$$
