TYH.pdb
     RDKit          3D

 30 31  0  0  1  0  0  0  0  0999 V2000
   12.6085   -9.5357  -18.2737 C   0  0  0  0  0  0  0  0  0  0  0  0
   13.6957   -9.2467  -17.2844 C   0  0  1  0  0  0  0  0  0  0  0  0
   13.3771   -9.7744  -16.0340 O   0  0  0  0  0  0  0  0  0  0  0  0
   15.0410   -9.7688  -17.7233 C   0  0  2  0  0  0  0  0  0  0  0  0
   14.9278  -11.1790  -18.0162 N   0  0  0  0  0  0  0  0  0  0  0  0
   16.1196   -9.4608  -16.7815 C   0  0  0  0  0  0  0  0  0  0  0  0
   16.6106  -10.4172  -16.1215 O   0  0  0  0  0  0  0  0  0  0  0  0
   22.5147   -5.1563  -12.4661 O   0  0  0  0  0  0  0  0  0  0  0  0
   21.5460   -5.5620  -13.3728 C   0  0  0  0  0  0  0  0  0  0  0  0
   21.6928   -6.7051  -14.1416 C   0  0  0  0  0  0  0  0  0  0  0  0
   20.6946   -7.0621  -15.0301 C   0  0  0  0  0  0  0  0  0  0  0  0
   19.5501   -6.3130  -15.1774 C   0  0  0  0  0  0  0  0  0  0  0  0
   18.5076   -6.7309  -16.1395 C   0  0  0  0  0  0  0  0  0  0  0  0
   17.6580   -7.8687  -15.5587 C   0  0  2  0  0  0  0  0  0  0  0  0
   16.6654   -8.1831  -16.5417 N   0  0  0  0  0  0  0  0  0  0  0  0
   17.1620   -7.4423  -14.2718 C   0  0  0  0  0  0  0  0  0  0  0  0
   16.1007   -6.7999  -14.1598 O   0  0  0  0  0  0  0  0  0  0  0  0
   19.4106   -5.1848  -14.4153 C   0  0  0  0  0  0  0  0  0  0  0  0
   20.4085   -4.8194  -13.5207 C   0  0  0  0  0  0  0  0  0  0  0  0
   17.8867   -7.7535  -13.1010 N   0  0  0  0  0  0  0  0  0  0  0  0
   17.2755   -7.7020  -11.7636 C   0  0  1  0  0  0  0  0  0  0  0  0
   15.8765   -7.1987  -11.8320 C   0  0  0  0  0  0  0  0  0  0  0  0
   15.3708   -6.9094  -10.4733 C   0  0  0  0  0  0  0  0  0  0  0  0
   16.1060   -7.0795   -9.2931 C   0  0  0  0  0  0  0  0  0  0  0  0
   15.3214   -6.7169   -8.2657 N   0  0  0  0  0  0  0  0  0  0  0  0
   14.1221   -6.3236   -8.7288 C   0  0  0  0  0  0  0  0  0  0  0  0
   14.1780   -6.4485  -10.0523 N   0  0  0  0  0  0  0  0  0  0  0  0
   17.3660   -8.9986  -11.0953 C   0  0  0  0  0  0  0  0  0  0  0  0
   17.8892   -9.9717  -11.6671 O   0  0  0  0  0  0  0  0  0  0  0  0
   16.8605   -9.1723   -9.7857 O   0  0  0  0  0  0  0  0  0  0  0  0
  2  3  1  0
  2  1  1  6
  4  2  1  0
  4  5  1  1
  6  4  1  0
  6  7  2  0
  9  8  1  0
 10  9  2  0
 11 10  1  0
 12 11  2  0
 12 18  1  0
 14 13  1  6
 13 12  1  0
 14 15  1  0
 15  6  1  0
 16 14  1  0
 17 16  2  0
 18 19  2  0
 19  9  1  0
 20 16  1  0
 21 22  1  6
 21 20  1  0
 23 22  1  0
 24 23  2  0
 25 24  1  0
 26 25  1  0
 26 27  2  0
 27 23  1  0
 28 30  1  0
 28 21  1  0
 29 28  2  0
M  END
$$$$
