TYH.pdb
     RDKit          3D

 30 31  0  0  1  0  0  0  0  0999 V2000
   43.1968  -15.9292  -11.9543 C   0  0  0  0  0  0  0  0  0  0  0  0
   43.1707  -17.0923  -11.0105 C   0  0  1  0  0  0  0  0  0  0  0  0
   43.3021  -18.2937  -11.7055 O   0  0  0  0  0  0  0  0  0  0  0  0
   44.2362  -17.0071   -9.9464 C   0  0  2  0  0  0  0  0  0  0  0  0
   44.1156  -18.1454   -9.0649 N   0  0  0  0  0  0  0  0  0  0  0  0
   44.2471  -15.7266   -9.2356 C   0  0  0  0  0  0  0  0  0  0  0  0
   43.4930  -15.6089   -8.2311 O   0  0  0  0  0  0  0  0  0  0  0  0
   49.4816  -16.4578   -5.5802 O   0  0  0  0  0  0  0  0  0  0  0  0
   48.7400  -15.5710   -6.3473 C   0  0  0  0  0  0  0  0  0  0  0  0
   48.0151  -14.5365   -5.7783 C   0  0  0  0  0  0  0  0  0  0  0  0
   47.2932  -13.6818   -6.5919 C   0  0  0  0  0  0  0  0  0  0  0  0
   47.2709  -13.8259   -7.9599 C   0  0  0  0  0  0  0  0  0  0  0  0
   46.4854  -12.8896   -8.7925 C   0  0  0  0  0  0  0  0  0  0  0  0
   45.0234  -13.3446   -8.8888 C   0  0  2  0  0  0  0  0  0  0  0  0
   45.0290  -14.6027   -9.5725 N   0  0  0  0  0  0  0  0  0  0  0  0
   44.2678  -12.2864   -9.5157 C   0  0  0  0  0  0  0  0  0  0  0  0
   44.1212  -12.2306  -10.7514 O   0  0  0  0  0  0  0  0  0  0  0  0
   47.9889  -14.8496   -8.5162 C   0  0  0  0  0  0  0  0  0  0  0  0
   48.7164  -15.7123   -7.7063 C   0  0  0  0  0  0  0  0  0  0  0  0
   43.6734  -11.2817   -8.7218 N   0  0  0  0  0  0  0  0  0  0  0  0
   42.8413  -10.2151   -9.3003 C   0  0  1  0  0  0  0  0  0  0  0  0
   41.9043   -9.6566   -8.2876 C   0  0  0  0  0  0  0  0  0  0  0  0
   40.9570  -10.6988   -7.8387 C   0  0  0  0  0  0  0  0  0  0  0  0
   40.7374  -11.0582   -6.5027 C   0  0  0  0  0  0  0  0  0  0  0  0
   39.8148  -12.0336   -6.4870 N   0  0  0  0  0  0  0  0  0  0  0  0
   39.4333  -12.3161   -7.7449 C   0  0  0  0  0  0  0  0  0  0  0  0
   40.1317  -11.5036   -8.5340 N   0  0  0  0  0  0  0  0  0  0  0  0
   43.6689   -9.1815   -9.9191 C   0  0  0  0  0  0  0  0  0  0  0  0
   43.1466   -8.2344  -10.5337 O   0  0  0  0  0  0  0  0  0  0  0  0
   45.0795   -9.2379   -9.8312 O   0  0  0  0  0  0  0  0  0  0  0  0
  2  3  1  0
  2  1  1  6
  4  2  1  0
  4  5  1  1
  6  4  1  0
  6  7  2  0
  9  8  1  0
 10  9  2  0
 11 10  1  0
 12 11  2  0
 12 18  1  0
 14 13  1  6
 13 12  1  0
 14 15  1  0
 15  6  1  0
 16 14  1  0
 17 16  2  0
 18 19  2  0
 19  9  1  0
 20 16  1  0
 21 22  1  1
 21 20  1  0
 23 22  1  0
 24 23  2  0
 25 24  1  0
 26 25  1  0
 26 27  2  0
 27 23  1  0
 28 30  1  0
 28 21  1  0
 29 28  2  0
M  END
$$$$
