TYH.pdb
     RDKit          3D

 30 31  0  0  1  0  0  0  0  0999 V2000
   26.3355   -4.6225  -19.6858 C   0  0  0  0  0  0  0  0  0  0  0  0
   25.0032   -5.0043  -19.1171 C   0  0  1  0  0  0  0  0  0  0  0  0
   23.9775   -4.3072  -19.7541 O   0  0  0  0  0  0  0  0  0  0  0  0
   24.7331   -6.4858  -19.2017 C   0  0  2  0  0  0  0  0  0  0  0  0
   24.8007   -6.9002  -20.5841 N   0  0  0  0  0  0  0  0  0  0  0  0
   23.4903   -6.8890  -18.5396 C   0  0  0  0  0  0  0  0  0  0  0  0
   22.4468   -6.9558  -19.2451 O   0  0  0  0  0  0  0  0  0  0  0  0
   17.8499  -10.3622  -12.7279 O   0  0  0  0  0  0  0  0  0  0  0  0
   18.9851   -9.9185  -13.3908 C   0  0  0  0  0  0  0  0  0  0  0  0
   19.3579  -10.4226  -14.6263 C   0  0  0  0  0  0  0  0  0  0  0  0
   20.5002   -9.9432  -15.2417 C   0  0  0  0  0  0  0  0  0  0  0  0
   21.2859   -8.9736  -14.6626 C   0  0  0  0  0  0  0  0  0  0  0  0
   22.4994   -8.4895  -15.3554 C   0  0  0  0  0  0  0  0  0  0  0  0
   22.1264   -7.5615  -16.5187 C   0  0  2  0  0  0  0  0  0  0  0  0
   23.3505   -7.2123  -17.1743 N   0  0  0  0  0  0  0  0  0  0  0  0
   21.3588   -6.4624  -15.9834 C   0  0  0  0  0  0  0  0  0  0  0  0
   21.8749   -5.6023  -15.2448 O   0  0  0  0  0  0  0  0  0  0  0  0
   20.9126   -8.4795  -13.4421 C   0  0  0  0  0  0  0  0  0  0  0  0
   19.7669   -8.9556  -12.8175 C   0  0  0  0  0  0  0  0  0  0  0  0
   19.9871   -6.3452  -16.2956 N   0  0  0  0  0  0  0  0  0  0  0  0
   19.1419   -5.2825  -15.7288 C   0  0  1  0  0  0  0  0  0  0  0  0
   18.6417   -4.3698  -16.7928 C   0  0  0  0  0  0  0  0  0  0  0  0
   17.9099   -3.2355  -16.1903 C   0  0  0  0  0  0  0  0  0  0  0  0
   17.7804   -3.0075  -14.8142 C   0  0  0  0  0  0  0  0  0  0  0  0
   17.0534   -1.8908  -14.6504 N   0  0  0  0  0  0  0  0  0  0  0  0
   16.7113   -1.3931  -15.8516 C   0  0  0  0  0  0  0  0  0  0  0  0
   17.2362   -2.2163  -16.7557 N   0  0  0  0  0  0  0  0  0  0  0  0
   18.0574   -5.8463  -14.9275 C   0  0  0  0  0  0  0  0  0  0  0  0
   17.3685   -5.1181  -14.1909 O   0  0  0  0  0  0  0  0  0  0  0  0
   17.7701   -7.2305  -14.9739 O   0  0  0  0  0  0  0  0  0  0  0  0
  2  3  1  0
  2  1  1  6
  4  2  1  0
  4  5  1  6
  6  4  1  0
  6  7  2  0
  9  8  1  0
 10  9  2  0
 11 10  1  0
 12 11  2  0
 12 18  1  0
 14 13  1  1
 13 12  1  0
 14 15  1  0
 15  6  1  0
 16 14  1  0
 17 16  2  0
 18 19  2  0
 19  9  1  0
 20 16  1  0
 21 22  1  6
 21 20  1  0
 23 22  1  0
 24 23  2  0
 25 24  1  0
 26 25  1  0
 26 27  2  0
 27 23  1  0
 28 30  1  0
 28 21  1  0
 29 28  2  0
M  END
$$$$
