TYH.pdb
     RDKit          3D

 30 31  0  0  1  0  0  0  0  0999 V2000
   13.4036  -15.5623    5.2386 C   0  0  0  0  0  0  0  0  0  0  0  0
   14.7602  -15.1734    5.7411 C   0  0  1  0  0  0  0  0  0  0  0  0
   15.2063  -16.0767    6.7048 O   0  0  0  0  0  0  0  0  0  0  0  0
   15.7845  -15.0662    4.6392 C   0  0  2  0  0  0  0  0  0  0  0  0
   15.7819  -16.2898    3.8710 N   0  0  0  0  0  0  0  0  0  0  0  0
   17.1165  -14.6895    5.1181 C   0  0  0  0  0  0  0  0  0  0  0  0
   18.0217  -15.5671    5.0791 O   0  0  0  0  0  0  0  0  0  0  0  0
   23.7410   -9.7769    8.3650 O   0  0  0  0  0  0  0  0  0  0  0  0
   22.5186  -10.2179    7.8787 C   0  0  0  0  0  0  0  0  0  0  0  0
   22.2935  -10.4114    6.5255 C   0  0  0  0  0  0  0  0  0  0  0  0
   21.0546  -10.8526    6.0967 C   0  0  0  0  0  0  0  0  0  0  0  0
   20.0289  -11.1081    6.9773 C   0  0  0  0  0  0  0  0  0  0  0  0
   18.7195  -11.5785    6.4759 C   0  0  0  0  0  0  0  0  0  0  0  0
   18.7718  -13.0753    6.1432 C   0  0  2  0  0  0  0  0  0  0  0  0
   17.4844  -13.4256    5.6232 N   0  0  0  0  0  0  0  0  0  0  0  0
   19.1886  -13.7815    7.3311 C   0  0  0  0  0  0  0  0  0  0  0  0
   18.3879  -14.0521    8.2462 O   0  0  0  0  0  0  0  0  0  0  0  0
   20.2572  -10.9152    8.3128 C   0  0  0  0  0  0  0  0  0  0  0  0
   21.4985  -10.4723    8.7516 C   0  0  0  0  0  0  0  0  0  0  0  0
   20.5345  -14.1827    7.4745 N   0  0  0  0  0  0  0  0  0  0  0  0
   20.9849  -15.0334    8.5872 C   0  0  1  0  0  0  0  0  0  0  0  0
   21.9738  -16.0446    8.1235 C   0  0  0  0  0  0  0  0  0  0  0  0
   22.3372  -16.9502    9.2339 C   0  0  0  0  0  0  0  0  0  0  0  0
   21.7958  -16.8908   10.5245 C   0  0  0  0  0  0  0  0  0  0  0  0
   22.3644  -17.8650   11.2527 N   0  0  0  0  0  0  0  0  0  0  0  0
   23.2418  -18.5443   10.4935 C   0  0  0  0  0  0  0  0  0  0  0  0
   23.2062  -17.9768    9.2905 N   0  0  0  0  0  0  0  0  0  0  0  0
   21.4958  -14.2247    9.6922 C   0  0  0  0  0  0  0  0  0  0  0  0
   21.9481  -13.0841    9.4871 O   0  0  0  0  0  0  0  0  0  0  0  0
   21.4861  -14.7230   11.0160 O   0  0  0  0  0  0  0  0  0  0  0  0
  2  3  1  0
  2  1  1  6
  4  2  1  0
  4  5  1  1
  6  4  1  0
  6  7  2  0
  9  8  1  0
 10  9  2  0
 11 10  1  0
 12 11  2  0
 12 18  1  0
 14 13  1  1
 13 12  1  0
 14 15  1  0
 15  6  1  0
 16 14  1  0
 17 16  2  0
 18 19  2  0
 19  9  1  0
 20 16  1  0
 21 22  1  6
 21 20  1  0
 23 22  1  0
 24 23  2  0
 25 24  1  0
 26 25  1  0
 26 27  2  0
 27 23  1  0
 28 30  1  0
 28 21  1  0
 29 28  2  0
M  END
$$$$
