TYH.pdb
     RDKit          3D

 30 31  0  0  1  0  0  0  0  0999 V2000
   31.5032   -9.1421  -18.1347 C   0  0  0  0  0  0  0  0  0  0  0  0
   30.0198   -9.1297  -17.9261 C   0  0  1  0  0  0  0  0  0  0  0  0
   29.4080   -8.2244  -18.7920 O   0  0  0  0  0  0  0  0  0  0  0  0
   29.3930  -10.4910  -18.0962 C   0  0  2  0  0  0  0  0  0  0  0  0
   29.7644  -11.0244  -19.3865 N   0  0  0  0  0  0  0  0  0  0  0  0
   27.9468  -10.4983  -17.8644 C   0  0  0  0  0  0  0  0  0  0  0  0
   27.1930  -10.3764  -18.8684 O   0  0  0  0  0  0  0  0  0  0  0  0
   20.0218  -11.5479  -14.1807 O   0  0  0  0  0  0  0  0  0  0  0  0
   21.3915  -11.4746  -14.3892 C   0  0  0  0  0  0  0  0  0  0  0  0
   22.2117  -10.6786  -13.6062 C   0  0  0  0  0  0  0  0  0  0  0  0
   23.5712  -10.6440  -13.8592 C   0  0  0  0  0  0  0  0  0  0  0  0
   24.1415  -11.3804  -14.8717 C   0  0  0  0  0  0  0  0  0  0  0  0
   25.5998  -11.3139  -15.1078 C   0  0  0  0  0  0  0  0  0  0  0  0
   25.9088  -10.4932  -16.3667 C   0  0  2  0  0  0  0  0  0  0  0  0
   27.3129  -10.6301  -16.6119 N   0  0  0  0  0  0  0  0  0  0  0  0
   25.4320   -9.1481  -16.1498 C   0  0  0  0  0  0  0  0  0  0  0  0
   26.1270   -8.2933  -15.5683 O   0  0  0  0  0  0  0  0  0  0  0  0
   23.3262  -12.1649  -15.6417 C   0  0  0  0  0  0  0  0  0  0  0  0
   21.9600  -12.2053  -15.3942 C   0  0  0  0  0  0  0  0  0  0  0  0
   24.1476   -8.7761  -16.6023 N   0  0  0  0  0  0  0  0  0  0  0  0
   23.6101   -7.4203  -16.4084 C   0  0  1  0  0  0  0  0  0  0  0  0
   24.1906   -6.4669  -17.3930 C   0  0  0  0  0  0  0  0  0  0  0  0
   23.6384   -5.1124  -17.1792 C   0  0  0  0  0  0  0  0  0  0  0  0
   24.1825   -4.1541  -16.3144 C   0  0  0  0  0  0  0  0  0  0  0  0
   23.4143   -3.0553  -16.3848 N   0  0  0  0  0  0  0  0  0  0  0  0
   22.4066   -3.2622  -17.2506 C   0  0  0  0  0  0  0  0  0  0  0  0
   22.5640   -4.5004  -17.7116 N   0  0  0  0  0  0  0  0  0  0  0  0
   22.1488   -7.4262  -16.4379 C   0  0  0  0  0  0  0  0  0  0  0  0
   21.5286   -8.3791  -16.9427 O   0  0  0  0  0  0  0  0  0  0  0  0
   21.4116   -6.3489  -15.8932 O   0  0  0  0  0  0  0  0  0  0  0  0
  2  3  1  0
  2  1  1  6
  4  2  1  0
  4  5  1  6
  6  4  1  0
  6  7  2  0
  9  8  1  0
 10  9  2  0
 11 10  1  0
 12 11  2  0
 12 18  1  0
 14 13  1  1
 13 12  1  0
 14 15  1  0
 15  6  1  0
 16 14  1  0
 17 16  2  0
 18 19  2  0
 19  9  1  0
 20 16  1  0
 21 22  1  6
 21 20  1  0
 23 22  1  0
 24 23  2  0
 25 24  1  0
 26 25  1  0
 26 27  2  0
 27 23  1  0
 28 30  1  0
 28 21  1  0
 29 28  2  0
M  END
$$$$
