TYH.pdb
     RDKit          3D

 30 31  0  0  1  0  0  0  0  0999 V2000
   26.5791  -18.8582  -19.1329 C   0  0  0  0  0  0  0  0  0  0  0  0
   27.7127  -19.7320  -19.5754 C   0  0  1  0  0  0  0  0  0  0  0  0
   28.3876  -19.1564  -20.6509 O   0  0  0  0  0  0  0  0  0  0  0  0
   28.6916  -20.0276  -18.4667 C   0  0  2  0  0  0  0  0  0  0  0  0
   29.7456  -20.8722  -18.9797 N   0  0  0  0  0  0  0  0  0  0  0  0
   28.0586  -20.5650  -17.2601 C   0  0  0  0  0  0  0  0  0  0  0  0
   27.7065  -21.7762  -17.2743 O   0  0  0  0  0  0  0  0  0  0  0  0
   24.4247  -20.8863   -9.1816 O   0  0  0  0  0  0  0  0  0  0  0  0
   25.1497  -20.5208  -10.3067 C   0  0  0  0  0  0  0  0  0  0  0  0
   24.7523  -19.4796  -11.1298 C   0  0  0  0  0  0  0  0  0  0  0  0
   25.5141  -19.1585  -12.2389 C   0  0  0  0  0  0  0  0  0  0  0  0
   26.6638  -19.8448  -12.5549 C   0  0  0  0  0  0  0  0  0  0  0  0
   27.4485  -19.4685  -13.7506 C   0  0  0  0  0  0  0  0  0  0  0  0
   27.0376  -20.3195  -14.9592 C   0  0  2  0  0  0  0  0  0  0  0  0
   27.8038  -19.8478  -16.0731 N   0  0  0  0  0  0  0  0  0  0  0  0
   25.6031  -20.2354  -15.0963 C   0  0  0  0  0  0  0  0  0  0  0  0
   25.0354  -19.1663  -15.3905 O   0  0  0  0  0  0  0  0  0  0  0  0
   27.0513  -20.8723  -11.7381 C   0  0  0  0  0  0  0  0  0  0  0  0
   26.2920  -21.2011  -10.6224 C   0  0  0  0  0  0  0  0  0  0  0  0
   24.8092  -21.3852  -14.8951 N   0  0  0  0  0  0  0  0  0  0  0  0
   23.3428  -21.3560  -15.0123 C   0  0  1  0  0  0  0  0  0  0  0  0
   22.8287  -22.6091  -15.6294 C   0  0  0  0  0  0  0  0  0  0  0  0
   21.3669  -22.5175  -15.8295 C   0  0  0  0  0  0  0  0  0  0  0  0
   20.6411  -21.3208  -15.8888 C   0  0  0  0  0  0  0  0  0  0  0  0
   19.3494  -21.6339  -16.0790 N   0  0  0  0  0  0  0  0  0  0  0  0
   19.2123  -22.9697  -16.1443 C   0  0  0  0  0  0  0  0  0  0  0  0
   20.4341  -23.4744  -15.9922 N   0  0  0  0  0  0  0  0  0  0  0  0
   22.7189  -21.0781  -13.7202 C   0  0  0  0  0  0  0  0  0  0  0  0
   23.1726  -21.5793  -12.6760 O   0  0  0  0  0  0  0  0  0  0  0  0
   21.5873  -20.2340  -13.6318 O   0  0  0  0  0  0  0  0  0  0  0  0
  2  3  1  0
  2  1  1  1
  4  2  1  0
  4  5  1  6
  6  4  1  0
  6  7  2  0
  9  8  1  0
 10  9  2  0
 11 10  1  0
 12 11  2  0
 12 18  1  0
 14 13  1  1
 13 12  1  0
 14 15  1  0
 15  6  1  0
 16 14  1  0
 17 16  2  0
 18 19  2  0
 19  9  1  0
 20 16  1  0
 21 22  1  1
 21 20  1  0
 23 22  1  0
 24 23  2  0
 25 24  1  0
 26 25  1  0
 26 27  2  0
 27 23  1  0
 28 30  1  0
 28 21  1  0
 29 28  2  0
M  END
$$$$
