TYH.pdb
     RDKit          3D

 30 31  0  0  1  0  0  0  0  0999 V2000
   26.2032   -9.8945  -15.6255 C   0  0  0  0  0  0  0  0  0  0  0  0
   26.6123  -10.6389  -16.8595 C   0  0  1  0  0  0  0  0  0  0  0  0
   27.9300  -11.0818  -16.7536 O   0  0  0  0  0  0  0  0  0  0  0  0
   25.7107  -11.8092  -17.1634 C   0  0  2  0  0  0  0  0  0  0  0  0
   26.2435  -12.5352  -18.2932 N   0  0  0  0  0  0  0  0  0  0  0  0
   24.3054  -11.4323  -17.3317 C   0  0  0  0  0  0  0  0  0  0  0  0
   23.9757  -10.8713  -18.4124 O   0  0  0  0  0  0  0  0  0  0  0  0
   15.5705  -10.9992  -16.6589 O   0  0  0  0  0  0  0  0  0  0  0  0
   16.9127  -11.3060  -16.4867 C   0  0  0  0  0  0  0  0  0  0  0  0
   17.7285  -11.6539  -17.5510 C   0  0  0  0  0  0  0  0  0  0  0  0
   19.0600  -11.9500  -17.3210 C   0  0  0  0  0  0  0  0  0  0  0  0
   19.6063  -11.9104  -16.0589 C   0  0  0  0  0  0  0  0  0  0  0  0
   21.0350  -12.2347  -15.8576 C   0  0  0  0  0  0  0  0  0  0  0  0
   21.9296  -11.1696  -16.5049 C   0  0  2  0  0  0  0  0  0  0  0  0
   23.2772  -11.6398  -16.3894 N   0  0  0  0  0  0  0  0  0  0  0  0
   21.6442   -9.9038  -15.8725 C   0  0  0  0  0  0  0  0  0  0  0  0
   21.9790   -9.6700  -14.6957 O   0  0  0  0  0  0  0  0  0  0  0  0
   18.7954  -11.5661  -15.0116 C   0  0  0  0  0  0  0  0  0  0  0  0
   17.4573  -11.2672  -15.2341 C   0  0  0  0  0  0  0  0  0  0  0  0
   20.9692   -8.8947  -16.5929 N   0  0  0  0  0  0  0  0  0  0  0  0
   20.5910   -7.6123  -15.9787 C   0  0  1  0  0  0  0  0  0  0  0  0
   20.6772   -6.4995  -16.9634 C   0  0  0  0  0  0  0  0  0  0  0  0
   22.0021   -5.8486  -16.8840 C   0  0  0  0  0  0  0  0  0  0  0  0
   23.0130   -6.2000  -15.9802 C   0  0  0  0  0  0  0  0  0  0  0  0
   24.0626   -5.3937  -16.2056 N   0  0  0  0  0  0  0  0  0  0  0  0
   23.7743   -4.5447  -17.2074 C   0  0  0  0  0  0  0  0  0  0  0  0
   22.5358   -4.8380  -17.5954 N   0  0  0  0  0  0  0  0  0  0  0  0
   19.2725   -7.6986  -15.3540 C   0  0  0  0  0  0  0  0  0  0  0  0
   19.1057   -7.3439  -14.1733 O   0  0  0  0  0  0  0  0  0  0  0  0
   18.1607   -8.1868  -16.0795 O   0  0  0  0  0  0  0  0  0  0  0  0
  2  3  1  0
  2  1  1  1
  4  2  1  0
  4  5  1  6
  6  4  1  0
  6  7  2  0
  9  8  1  0
 10  9  2  0
 11 10  1  0
 12 11  2  0
 12 18  1  0
 14 13  1  1
 13 12  1  0
 14 15  1  0
 15  6  1  0
 16 14  1  0
 17 16  2  0
 18 19  2  0
 19  9  1  0
 20 16  1  0
 21 22  1  6
 21 20  1  0
 23 22  1  0
 24 23  2  0
 25 24  1  0
 26 25  1  0
 26 27  2  0
 27 23  1  0
 28 30  1  0
 28 21  1  0
 29 28  2  0
M  END
$$$$
