TYH.pdb
     RDKit          3D

 30 31  0  0  1  0  0  0  0  0999 V2000
   27.3462  -20.0958  -18.4492 C   0  0  0  0  0  0  0  0  0  0  0  0
   26.6401  -20.2718  -17.1398 C   0  0  1  0  0  0  0  0  0  0  0  0
   25.2587  -20.1936  -17.3105 O   0  0  0  0  0  0  0  0  0  0  0  0
   26.9901  -21.5695  -16.4554 C   0  0  2  0  0  0  0  0  0  0  0  0
   26.6699  -22.6694  -17.3359 N   0  0  0  0  0  0  0  0  0  0  0  0
   26.3933  -21.7044  -15.1246 C   0  0  0  0  0  0  0  0  0  0  0  0
   25.2997  -22.3266  -15.0344 O   0  0  0  0  0  0  0  0  0  0  0  0
   24.8583  -19.9782   -6.5635 O   0  0  0  0  0  0  0  0  0  0  0  0
   25.4515  -20.1720   -7.8027 C   0  0  0  0  0  0  0  0  0  0  0  0
   25.7026  -21.4380   -8.3064 C   0  0  0  0  0  0  0  0  0  0  0  0
   26.2967  -21.5721   -9.5484 C   0  0  0  0  0  0  0  0  0  0  0  0
   26.6497  -20.4802  -10.3073 C   0  0  0  0  0  0  0  0  0  0  0  0
   27.2831  -20.6689  -11.6303 C   0  0  0  0  0  0  0  0  0  0  0  0
   26.2458  -21.1118  -12.6703 C   0  0  2  0  0  0  0  0  0  0  0  0
   26.9324  -21.1989  -13.9238 N   0  0  0  0  0  0  0  0  0  0  0  0
   25.1388  -20.1868  -12.6175 C   0  0  0  0  0  0  0  0  0  0  0  0
   25.3036  -18.9603  -12.7598 O   0  0  0  0  0  0  0  0  0  0  0  0
   26.3992  -19.2323   -9.8045 C   0  0  0  0  0  0  0  0  0  0  0  0
   25.8029  -19.0890   -8.5581 C   0  0  0  0  0  0  0  0  0  0  0  0
   23.8300  -20.6688  -12.3997 N   0  0  0  0  0  0  0  0  0  0  0  0
   22.6369  -19.8651  -12.7087 C   0  0  1  0  0  0  0  0  0  0  0  0
   22.6144  -19.4676  -14.1429 C   0  0  0  0  0  0  0  0  0  0  0  0
   21.5458  -18.4741  -14.3808 C   0  0  0  0  0  0  0  0  0  0  0  0
   20.6895  -17.9686  -13.3942 C   0  0  0  0  0  0  0  0  0  0  0  0
   19.8566  -17.0953  -13.9826 N   0  0  0  0  0  0  0  0  0  0  0  0
   20.1367  -17.0167  -15.2952 C   0  0  0  0  0  0  0  0  0  0  0  0
   21.1510  -17.8514  -15.5071 N   0  0  0  0  0  0  0  0  0  0  0  0
   21.4165  -20.5624  -12.3077 C   0  0  0  0  0  0  0  0  0  0  0  0
   20.3023  -20.0324  -12.4659 O   0  0  0  0  0  0  0  0  0  0  0  0
   21.4787  -21.8529  -11.7322 O   0  0  0  0  0  0  0  0  0  0  0  0
  2  3  1  0
  2  1  1  6
  4  2  1  0
  4  5  1  6
  6  4  1  0
  6  7  2  0
  9  8  1  0
 10  9  2  0
 11 10  1  0
 12 11  2  0
 12 18  1  0
 14 13  1  1
 13 12  1  0
 14 15  1  0
 15  6  1  0
 16 14  1  0
 17 16  2  0
 18 19  2  0
 19  9  1  0
 20 16  1  0
 21 22  1  6
 21 20  1  0
 23 22  1  0
 24 23  2  0
 25 24  1  0
 26 25  1  0
 26 27  2  0
 27 23  1  0
 28 30  1  0
 28 21  1  0
 29 28  2  0
M  END
$$$$
