TYH.pdb
     RDKit          3D

 30 31  0  0  1  0  0  0  0  0999 V2000
   28.6938  -19.2132  -17.2816 C   0  0  0  0  0  0  0  0  0  0  0  0
   27.8292  -19.0256  -16.0727 C   0  0  1  0  0  0  0  0  0  0  0  0
   27.8280  -17.6908  -15.6701 O   0  0  0  0  0  0  0  0  0  0  0  0
   26.4098  -19.4869  -16.2905 C   0  0  2  0  0  0  0  0  0  0  0  0
   25.8256  -18.7248  -17.3699 N   0  0  0  0  0  0  0  0  0  0  0  0
   25.5998  -19.4716  -15.0703 C   0  0  0  0  0  0  0  0  0  0  0  0
   25.0400  -18.3865  -14.7535 O   0  0  0  0  0  0  0  0  0  0  0  0
   19.5743  -20.3099  -16.7133 O   0  0  0  0  0  0  0  0  0  0  0  0
   20.5558  -20.6188  -15.7826 C   0  0  0  0  0  0  0  0  0  0  0  0
   20.4518  -20.2419  -14.4535 C   0  0  0  0  0  0  0  0  0  0  0  0
   21.4611  -20.5769  -13.5689 C   0  0  0  0  0  0  0  0  0  0  0  0
   22.5751  -21.2784  -13.9685 C   0  0  0  0  0  0  0  0  0  0  0  0
   23.6310  -21.6157  -12.9895 C   0  0  0  0  0  0  0  0  0  0  0  0
   24.7044  -20.5202  -12.9500 C   0  0  2  0  0  0  0  0  0  0  0  0
   25.3854  -20.5670  -14.2087 N   0  0  0  0  0  0  0  0  0  0  0  0
   25.5208  -20.7384  -11.7797 C   0  0  0  0  0  0  0  0  0  0  0  0
   26.7546  -20.8896  -11.8616 O   0  0  0  0  0  0  0  0  0  0  0  0
   22.6723  -21.6479  -15.2826 C   0  0  0  0  0  0  0  0  0  0  0  0
   21.6631  -21.3154  -16.1773 C   0  0  0  0  0  0  0  0  0  0  0  0
   24.9208  -20.7840  -10.5027 N   0  0  0  0  0  0  0  0  0  0  0  0
   25.7123  -20.7506   -9.2628 C   0  0  1  0  0  0  0  0  0  0  0  0
   26.6402  -19.5869   -9.2498 C   0  0  0  0  0  0  0  0  0  0  0  0
   27.4136  -19.5644   -7.9901 C   0  0  0  0  0  0  0  0  0  0  0  0
   27.3347  -20.5375   -6.9856 C   0  0  0  0  0  0  0  0  0  0  0  0
   28.1761  -20.1805   -6.0021 N   0  0  0  0  0  0  0  0  0  0  0  0
   28.7889  -19.0287   -6.3266 C   0  0  0  0  0  0  0  0  0  0  0  0
   28.3149  -18.6816   -7.5205 N   0  0  0  0  0  0  0  0  0  0  0  0
   24.8456  -20.7815   -8.0864 C   0  0  0  0  0  0  0  0  0  0  0  0
   25.3231  -20.6638   -6.9437 O   0  0  0  0  0  0  0  0  0  0  0  0
   23.4475  -20.9457   -8.2241 O   0  0  0  0  0  0  0  0  0  0  0  0
  2  3  1  0
  2  1  1  6
  4  2  1  0
  4  5  1  6
  6  4  1  0
  6  7  2  0
  9  8  1  0
 10  9  2  0
 11 10  1  0
 12 11  2  0
 12 18  1  0
 14 13  1  6
 13 12  1  0
 14 15  1  0
 15  6  1  0
 16 14  1  0
 17 16  2  0
 18 19  2  0
 19  9  1  0
 20 16  1  0
 21 22  1  6
 21 20  1  0
 23 22  1  0
 24 23  2  0
 25 24  1  0
 26 25  1  0
 26 27  2  0
 27 23  1  0
 28 30  1  0
 28 21  1  0
 29 28  2  0
M  END
$$$$
