TYH.pdb
     RDKit          3D

 30 31  0  0  1  0  0  0  0  0999 V2000
   28.8918  -19.4637  -18.8879 C   0  0  0  0  0  0  0  0  0  0  0  0
   27.9276  -19.8397  -17.8047 C   0  0  1  0  0  0  0  0  0  0  0  0
   26.6348  -19.9539  -18.3137 O   0  0  0  0  0  0  0  0  0  0  0  0
   28.3066  -21.1191  -17.1015 C   0  0  2  0  0  0  0  0  0  0  0  0
   28.3750  -22.1885  -18.0705 N   0  0  0  0  0  0  0  0  0  0  0  0
   27.4454  -21.4314  -15.9586 C   0  0  0  0  0  0  0  0  0  0  0  0
   26.4092  -22.1168  -16.1772 O   0  0  0  0  0  0  0  0  0  0  0  0
   23.9387  -20.6651   -7.8424 O   0  0  0  0  0  0  0  0  0  0  0  0
   24.8119  -20.6648   -8.9206 C   0  0  0  0  0  0  0  0  0  0  0  0
   25.7102  -19.6327   -9.1374 C   0  0  0  0  0  0  0  0  0  0  0  0
   26.5579  -19.6846  -10.2293 C   0  0  0  0  0  0  0  0  0  0  0  0
   26.5385  -20.7368  -11.1155 C   0  0  0  0  0  0  0  0  0  0  0  0
   27.4623  -20.7523  -12.2702 C   0  0  0  0  0  0  0  0  0  0  0  0
   26.7086  -21.0883  -13.5636 C   0  0  2  0  0  0  0  0  0  0  0  0
   27.6687  -21.0336  -14.6245 N   0  0  0  0  0  0  0  0  0  0  0  0
   25.5894  -20.1835  -13.6750 C   0  0  0  0  0  0  0  0  0  0  0  0
   25.7514  -18.9600  -13.8437 O   0  0  0  0  0  0  0  0  0  0  0  0
   25.6490  -21.7535  -10.8962 C   0  0  0  0  0  0  0  0  0  0  0  0
   24.7944  -21.7089   -9.8020 C   0  0  0  0  0  0  0  0  0  0  0  0
   24.2714  -20.6824  -13.5930 N   0  0  0  0  0  0  0  0  0  0  0  0
   23.0955  -19.7982  -13.6136 C   0  0  1  0  0  0  0  0  0  0  0  0
   23.1103  -18.9136  -14.8105 C   0  0  0  0  0  0  0  0  0  0  0  0
   22.9542  -19.7172  -16.0415 C   0  0  0  0  0  0  0  0  0  0  0  0
   22.8311  -21.1121  -16.0759 C   0  0  0  0  0  0  0  0  0  0  0  0
   22.7093  -21.4813  -17.3610 N   0  0  0  0  0  0  0  0  0  0  0  0
   22.7482  -20.3934  -18.1501 C   0  0  0  0  0  0  0  0  0  0  0  0
   22.8954  -19.3514  -17.3357 N   0  0  0  0  0  0  0  0  0  0  0  0
   21.8580  -20.5687  -13.5092 C   0  0  0  0  0  0  0  0  0  0  0  0
   21.8874  -21.8110  -13.4510 O   0  0  0  0  0  0  0  0  0  0  0  0
   20.6031  -19.9171  -13.4723 O   0  0  0  0  0  0  0  0  0  0  0  0
  2  3  1  0
  2  1  1  6
  4  2  1  0
  4  5  1  6
  6  4  1  0
  6  7  2  0
  9  8  1  0
 10  9  2  0
 11 10  1  0
 12 11  2  0
 12 18  1  0
 14 13  1  1
 13 12  1  0
 14 15  1  0
 15  6  1  0
 16 14  1  0
 17 16  2  0
 18 19  2  0
 19  9  1  0
 20 16  1  0
 21 22  1  6
 21 20  1  0
 23 22  1  0
 24 23  2  0
 25 24  1  0
 26 25  1  0
 26 27  2  0
 27 23  1  0
 28 30  1  0
 28 21  1  0
 29 28  2  0
M  END
$$$$
