TYH.pdb
     RDKit          3D

 30 31  0  0  1  0  0  0  0  0999 V2000
   26.1226  -19.9925  -18.4304 C   0  0  0  0  0  0  0  0  0  0  0  0
   27.0353  -21.1295  -18.7744 C   0  0  1  0  0  0  0  0  0  0  0  0
   27.7714  -20.8404  -19.9225 O   0  0  0  0  0  0  0  0  0  0  0  0
   27.9754  -21.4867  -17.6503 C   0  0  2  0  0  0  0  0  0  0  0  0
   28.8596  -22.5409  -18.0908 N   0  0  0  0  0  0  0  0  0  0  0  0
   27.2885  -21.7980  -16.3946 C   0  0  0  0  0  0  0  0  0  0  0  0
   26.7235  -22.9218  -16.3002 O   0  0  0  0  0  0  0  0  0  0  0  0
   23.9933  -20.7657   -8.2231 O   0  0  0  0  0  0  0  0  0  0  0  0
   24.7280  -20.6361   -9.3929 C   0  0  0  0  0  0  0  0  0  0  0  0
   26.0007  -21.1677   -9.5231 C   0  0  0  0  0  0  0  0  0  0  0  0
   26.6877  -21.0081  -10.7131 C   0  0  0  0  0  0  0  0  0  0  0  0
   26.1444  -20.3329  -11.7816 C   0  0  0  0  0  0  0  0  0  0  0  0
   26.9139  -20.1853  -13.0358 C   0  0  0  0  0  0  0  0  0  0  0  0
   26.4705  -21.2279  -14.0703 C   0  0  2  0  0  0  0  0  0  0  0  0
   27.1993  -20.9506  -15.2712 N   0  0  0  0  0  0  0  0  0  0  0  0
   25.0320  -21.1685  -14.1744 C   0  0  0  0  0  0  0  0  0  0  0  0
   24.2922  -21.7457  -13.3551 O   0  0  0  0  0  0  0  0  0  0  0  0
   24.8868  -19.8100  -11.6470 C   0  0  0  0  0  0  0  0  0  0  0  0
   24.1902  -19.9659  -10.4554 C   0  0  0  0  0  0  0  0  0  0  0  0
   24.4329  -20.4418  -15.2260 N   0  0  0  0  0  0  0  0  0  0  0  0
   22.9759  -20.2619  -15.3243 C   0  0  1  0  0  0  0  0  0  0  0  0
   22.6359  -19.0977  -16.1871 C   0  0  0  0  0  0  0  0  0  0  0  0
   21.1695  -18.9245  -16.2567 C   0  0  0  0  0  0  0  0  0  0  0  0
   20.2383  -19.6979  -15.5516 C   0  0  0  0  0  0  0  0  0  0  0  0
   19.0121  -19.2510  -15.8666 N   0  0  0  0  0  0  0  0  0  0  0  0
   19.1117  -18.2313  -16.7372 C   0  0  0  0  0  0  0  0  0  0  0  0
   20.4128  -18.0564  -16.9538 N   0  0  0  0  0  0  0  0  0  0  0  0
   22.3245  -21.4917  -15.7709 C   0  0  0  0  0  0  0  0  0  0  0  0
   22.7803  -22.1380  -16.7312 O   0  0  0  0  0  0  0  0  0  0  0  0
   21.1635  -21.9708  -15.1202 O   0  0  0  0  0  0  0  0  0  0  0  0
  2  3  1  0
  2  1  1  1
  4  2  1  0
  4  5  1  6
  6  4  1  0
  6  7  2  0
  9  8  1  0
 10  9  2  0
 11 10  1  0
 12 11  2  0
 12 18  1  0
 14 13  1  1
 13 12  1  0
 14 15  1  0
 15  6  1  0
 16 14  1  0
 17 16  2  0
 18 19  2  0
 19  9  1  0
 20 16  1  0
 21 22  1  6
 21 20  1  0
 23 22  1  0
 24 23  2  0
 25 24  1  0
 26 25  1  0
 26 27  2  0
 27 23  1  0
 28 30  1  0
 28 21  1  0
 29 28  2  0
M  END
$$$$
