TYH.pdb
     RDKit          3D

 30 31  0  0  1  0  0  0  0  0999 V2000
   16.1375  -10.7711  -13.3065 C   0  0  0  0  0  0  0  0  0  0  0  0
   14.7553  -11.1279  -12.8521 C   0  0  1  0  0  0  0  0  0  0  0  0
   14.5059  -12.4849  -13.0521 O   0  0  0  0  0  0  0  0  0  0  0  0
   14.5054  -10.7779  -11.4065 C   0  0  2  0  0  0  0  0  0  0  0  0
   13.1912  -11.2437  -11.0279 N   0  0  0  0  0  0  0  0  0  0  0  0
   14.7234   -9.3612  -11.1052 C   0  0  0  0  0  0  0  0  0  0  0  0
   13.9587   -8.5220  -11.6549 O   0  0  0  0  0  0  0  0  0  0  0  0
   10.5060   -6.8666   -6.9292 O   0  0  0  0  0  0  0  0  0  0  0  0
   11.8342   -6.9201   -7.3268 C   0  0  0  0  0  0  0  0  0  0  0  0
   12.5944   -5.7754   -7.5028 C   0  0  0  0  0  0  0  0  0  0  0  0
   13.9145   -5.8881   -7.9006 C   0  0  0  0  0  0  0  0  0  0  0  0
   14.5031   -7.1103   -8.1296 C   0  0  0  0  0  0  0  0  0  0  0  0
   15.9177   -7.1854   -8.5542 C   0  0  0  0  0  0  0  0  0  0  0  0
   16.0184   -7.4561  -10.0609 C   0  0  2  0  0  0  0  0  0  0  0  0
   15.7176   -8.8432  -10.2501 N   0  0  0  0  0  0  0  0  0  0  0  0
   17.3223   -7.0245  -10.5051 C   0  0  0  0  0  0  0  0  0  0  0  0
   18.3540   -7.6632  -10.2234 O   0  0  0  0  0  0  0  0  0  0  0  0
   13.7471   -8.2376   -7.9542 C   0  0  0  0  0  0  0  0  0  0  0  0
   12.4208   -8.1330   -7.5548 C   0  0  0  0  0  0  0  0  0  0  0  0
   17.4482   -5.8507  -11.2792 N   0  0  0  0  0  0  0  0  0  0  0  0
   18.6675   -5.5419  -12.0425 C   0  0  1  0  0  0  0  0  0  0  0  0
   18.9941   -6.6356  -12.9978 C   0  0  0  0  0  0  0  0  0  0  0  0
   20.2053   -6.2922  -13.7727 C   0  0  0  0  0  0  0  0  0  0  0  0
   21.3947   -5.7989  -13.2211 C   0  0  0  0  0  0  0  0  0  0  0  0
   22.2634   -5.6056  -14.2264 N   0  0  0  0  0  0  0  0  0  0  0  0
   21.6900   -5.9500  -15.3927 C   0  0  0  0  0  0  0  0  0  0  0  0
   20.4592   -6.3573  -15.0932 N   0  0  0  0  0  0  0  0  0  0  0  0
   18.5575   -4.2431  -12.7037 C   0  0  0  0  0  0  0  0  0  0  0  0
   17.4583   -3.8333  -13.1176 O   0  0  0  0  0  0  0  0  0  0  0  0
   19.6984   -3.4270  -12.8857 O   0  0  0  0  0  0  0  0  0  0  0  0
  2  3  1  0
  2  1  1  1
  4  2  1  0
  4  5  1  6
  6  4  1  0
  6  7  2  0
  9  8  1  0
 10  9  2  0
 11 10  1  0
 12 11  2  0
 12 18  1  0
 14 13  1  1
 13 12  1  0
 14 15  1  0
 15  6  1  0
 16 14  1  0
 17 16  2  0
 18 19  2  0
 19  9  1  0
 20 16  1  0
 21 22  1  6
 21 20  1  0
 23 22  1  0
 24 23  2  0
 25 24  1  0
 26 25  1  0
 26 27  2  0
 27 23  1  0
 28 30  1  0
 28 21  1  0
 29 28  2  0
M  END
$$$$
