TYH.pdb
     RDKit          3D

 30 31  0  0  1  0  0  0  0  0999 V2000
   21.3883  -10.4753    7.0591 C   0  0  0  0  0  0  0  0  0  0  0  0
   20.5956  -11.7095    6.7545 C   0  0  1  0  0  0  0  0  0  0  0  0
   20.7583  -12.6604    7.7610 O   0  0  0  0  0  0  0  0  0  0  0  0
   19.1265  -11.4288    6.5599 C   0  0  2  0  0  0  0  0  0  0  0  0
   18.6049  -10.7953    7.7490 N   0  0  0  0  0  0  0  0  0  0  0  0
   18.3587  -12.6071    6.1508 C   0  0  0  0  0  0  0  0  0  0  0  0
   17.6236  -13.1557    7.0168 O   0  0  0  0  0  0  0  0  0  0  0  0
   16.0071  -19.6464    1.3037 O   0  0  0  0  0  0  0  0  0  0  0  0
   16.5137  -18.4299    1.7382 C   0  0  0  0  0  0  0  0  0  0  0  0
   15.6977  -17.4387    2.2587 C   0  0  0  0  0  0  0  0  0  0  0  0
   16.2572  -16.2447    2.6767 C   0  0  0  0  0  0  0  0  0  0  0  0
   17.6095  -16.0063    2.5921 C   0  0  0  0  0  0  0  0  0  0  0  0
   18.1661  -14.7151    3.0504 C   0  0  0  0  0  0  0  0  0  0  0  0
   17.8605  -14.4896    4.5368 C   0  0  2  0  0  0  0  0  0  0  0  0
   18.3647  -13.1908    4.8673 N   0  0  0  0  0  0  0  0  0  0  0  0
   18.4199  -15.5938    5.2793 C   0  0  0  0  0  0  0  0  0  0  0  0
   19.6405  -15.6719    5.5157 O   0  0  0  0  0  0  0  0  0  0  0  0
   18.4105  -16.9892    2.0771 C   0  0  0  0  0  0  0  0  0  0  0  0
   17.8566  -18.1911    1.6551 C   0  0  0  0  0  0  0  0  0  0  0  0
   17.5755  -16.6195    5.7566 N   0  0  0  0  0  0  0  0  0  0  0  0
   18.0842  -17.7466    6.5539 C   0  0  1  0  0  0  0  0  0  0  0  0
   18.4275  -17.3144    7.9362 C   0  0  0  0  0  0  0  0  0  0  0  0
   19.8724  -17.5021    8.1860 C   0  0  0  0  0  0  0  0  0  0  0  0
   20.7718  -18.0816    7.2819 C   0  0  0  0  0  0  0  0  0  0  0  0
   21.9861  -18.0814    7.8548 N   0  0  0  0  0  0  0  0  0  0  0  0
   21.9089  -17.5314    9.0791 C   0  0  0  0  0  0  0  0  0  0  0  0
   20.6337  -17.1934    9.2525 N   0  0  0  0  0  0  0  0  0  0  0  0
   17.1437  -18.8653    6.5405 C   0  0  0  0  0  0  0  0  0  0  0  0
   16.0389  -18.7582    5.9789 O   0  0  0  0  0  0  0  0  0  0  0  0
   17.4713  -20.0911    7.1657 O   0  0  0  0  0  0  0  0  0  0  0  0
  2  3  1  0
  2  1  1  1
  4  2  1  0
  4  5  1  1
  6  4  1  0
  6  7  2  0
  9  8  1  0
 10  9  2  0
 11 10  1  0
 12 11  2  0
 12 18  1  0
 14 13  1  6
 13 12  1  0
 14 15  1  0
 15  6  1  0
 16 14  1  0
 17 16  2  0
 18 19  2  0
 19  9  1  0
 20 16  1  0
 21 22  1  1
 21 20  1  0
 23 22  1  0
 24 23  2  0
 25 24  1  0
 26 25  1  0
 26 27  2  0
 27 23  1  0
 28 30  1  0
 28 21  1  0
 29 28  2  0
M  END
$$$$
