TYH.pdb
     RDKit          3D

 30 31  0  0  1  0  0  0  0  0999 V2000
   43.8748   -9.1792   -3.6991 C   0  0  0  0  0  0  0  0  0  0  0  0
   45.1614   -9.7463   -4.2159 C   0  0  1  0  0  0  0  0  0  0  0  0
   45.9987  -10.1087   -3.1617 O   0  0  0  0  0  0  0  0  0  0  0  0
   44.9556  -10.9315   -5.1256 C   0  0  2  0  0  0  0  0  0  0  0  0
   46.2395  -11.5151   -5.4392 N   0  0  0  0  0  0  0  0  0  0  0  0
   44.1584  -10.6206   -6.3144 C   0  0  0  0  0  0  0  0  0  0  0  0
   44.7730  -10.2343   -7.3460 O   0  0  0  0  0  0  0  0  0  0  0  0
   43.3691  -15.3667  -11.0496 O   0  0  0  0  0  0  0  0  0  0  0  0
   42.7866  -14.4019  -10.2403 C   0  0  0  0  0  0  0  0  0  0  0  0
   42.8239  -14.4833   -8.8578 C   0  0  0  0  0  0  0  0  0  0  0  0
   42.2261  -13.4923   -8.1002 C   0  0  0  0  0  0  0  0  0  0  0  0
   41.5898  -12.4186   -8.6789 C   0  0  0  0  0  0  0  0  0  0  0  0
   40.9634  -11.3813   -7.8312 C   0  0  0  0  0  0  0  0  0  0  0  0
   41.9630  -10.2605   -7.5174 C   0  0  2  0  0  0  0  0  0  0  0  0
   42.7550  -10.7136   -6.4139 N   0  0  0  0  0  0  0  0  0  0  0  0
   41.2158   -9.0441   -7.3034 C   0  0  0  0  0  0  0  0  0  0  0  0
   40.6328   -8.8151   -6.2267 O   0  0  0  0  0  0  0  0  0  0  0  0
   41.5562  -12.3436  -10.0450 C   0  0  0  0  0  0  0  0  0  0  0  0
   42.1541  -13.3346  -10.8131 C   0  0  0  0  0  0  0  0  0  0  0  0
   41.1343   -8.0794   -8.3309 N   0  0  0  0  0  0  0  0  0  0  0  0
   41.1453   -6.6347   -8.0526 C   0  0  1  0  0  0  0  0  0  0  0  0
   42.3472   -6.2492   -7.2638 C   0  0  0  0  0  0  0  0  0  0  0  0
   42.3272   -4.7989   -6.9782 C   0  0  0  0  0  0  0  0  0  0  0  0
   41.2982   -4.1311   -6.3018 C   0  0  0  0  0  0  0  0  0  0  0  0
   41.6290   -2.8317   -6.2327 N   0  0  0  0  0  0  0  0  0  0  0  0
   42.8171   -2.6347   -6.8304 C   0  0  0  0  0  0  0  0  0  0  0  0
   43.2129   -3.8274   -7.2677 N   0  0  0  0  0  0  0  0  0  0  0  0
   41.0212   -5.8619   -9.2869 C   0  0  0  0  0  0  0  0  0  0  0  0
   41.7214   -6.1338  -10.2785 O   0  0  0  0  0  0  0  0  0  0  0  0
   40.1028   -4.7900   -9.3780 O   0  0  0  0  0  0  0  0  0  0  0  0
  2  3  1  0
  2  1  1  1
  4  2  1  0
  4  5  1  6
  6  4  1  0
  6  7  2  0
  9  8  1  0
 10  9  2  0
 11 10  1  0
 12 11  2  0
 12 18  1  0
 14 13  1  1
 13 12  1  0
 14 15  1  0
 15  6  1  0
 16 14  1  0
 17 16  2  0
 18 19  2  0
 19  9  1  0
 20 16  1  0
 21 22  1  6
 21 20  1  0
 23 22  1  0
 24 23  2  0
 25 24  1  0
 26 25  1  0
 26 27  2  0
 27 23  1  0
 28 30  1  0
 28 21  1  0
 29 28  2  0
M  END
$$$$
