QIV.pdb
     RDKit          3D

 25 24  0  0  1  0  0  0  0  0999 V2000
   28.6808  -22.3948  -16.7245 N   0  0  0  0  0  0  0  0  0  0  0  0
   28.6481  -21.4100  -17.7710 C   0  0  0  0  0  0  0  0  0  0  0  0
   28.5204  -21.8418  -18.9273 O   0  0  0  0  0  0  0  0  0  0  0  0
   28.7686  -20.0195  -17.3855 C   0  0  0  0  0  0  0  0  0  0  0  0
   27.9128  -19.5307  -16.2604 C   0  0  0  0  0  0  0  0  0  0  0  0
   26.4584  -19.6758  -16.4924 C   0  0  2  0  0  0  0  0  0  0  0  0
   25.9393  -18.9939  -17.6178 N   0  0  0  0  0  0  0  0  0  0  0  0
   25.6586  -19.4440  -15.2327 C   0  0  0  0  0  0  0  0  0  0  0  0
   25.5400  -18.2944  -14.7618 O   0  0  0  0  0  0  0  0  0  0  0  0
   22.0221  -20.8046  -15.5293 C   0  0  0  0  0  0  0  0  0  0  0  0
   22.1696  -19.9471  -14.2487 C   0  0  0  0  0  0  0  0  0  0  0  0
   22.9782  -20.7479  -13.3098 C   0  0  2  0  0  0  0  0  0  0  0  0
   22.3238  -20.9518  -11.9588 C   0  0  0  0  0  0  0  0  0  0  0  0
   24.4271  -20.4619  -13.2438 C   0  0  2  0  0  0  0  0  0  0  0  0
   25.0339  -20.5252  -14.5695 N   0  0  0  0  0  0  0  0  0  0  0  0
   25.2497  -21.0472  -12.1870 C   0  0  0  0  0  0  0  0  0  0  0  0
   25.3222  -22.3285  -12.0218 O   0  0  0  0  0  0  0  0  0  0  0  0
   28.5331  -21.2061   -8.5013 C   0  0  0  0  0  0  0  0  0  0  0  0
   27.9978  -20.5454   -9.7578 C   0  0  1  0  0  0  0  0  0  0  0  0
   28.8565  -21.0264  -10.9076 C   0  0  0  0  0  0  0  0  0  0  0  0
   26.5704  -20.9203  -10.0284 C   0  0  2  0  0  0  0  0  0  0  0  0
   26.0458  -20.3611  -11.2468 N   0  0  0  0  0  0  0  0  0  0  0  0
   25.6907  -20.5656   -8.8854 C   0  0  0  0  0  0  0  0  0  0  0  0
   25.2432  -19.4021   -8.7113 O   0  0  0  0  0  0  0  0  0  0  0  0
   25.2975  -21.5040   -7.9202 O   0  0  0  0  0  0  0  0  0  0  0  0
  2  1  1  0
  3  2  2  0
  4  2  1  0
  5  4  1  0
  6  7  1  6
  6  5  1  0
  8  6  1  0
  9  8  2  0
 11 12  1  0
 11 10  1  0
 12 14  1  0
 12 13  1  1
 14 15  1  6
 15  8  1  0
 16 17  2  0
 16 14  1  0
 19 21  1  0
 19 18  1  1
 20 19  1  0
 21 22  1  6
 22 16  1  0
 23 21  1  0
 24 23  2  0
 25 23  1  0
M  END
$$$$
