QIV.pdb
     RDKit          3D

 25 24  0  0  1  0  0  0  0  0999 V2000
   16.8189  -18.3241  -15.5183 N   0  0  0  0  0  0  0  0  0  0  0  0
   17.8234  -17.3099  -15.6869 C   0  0  0  0  0  0  0  0  0  0  0  0
   18.6836  -17.5280  -16.5543 O   0  0  0  0  0  0  0  0  0  0  0  0
   17.7430  -16.1404  -14.8369 C   0  0  0  0  0  0  0  0  0  0  0  0
   18.1014  -14.8172  -15.4351 C   0  0  0  0  0  0  0  0  0  0  0  0
   16.9399  -13.9594  -15.7595 C   0  0  2  0  0  0  0  0  0  0  0  0
   15.9955  -14.5088  -16.6579 N   0  0  0  0  0  0  0  0  0  0  0  0
   17.3576  -12.5534  -16.1186 C   0  0  0  0  0  0  0  0  0  0  0  0
   17.7044  -12.2754  -17.2847 O   0  0  0  0  0  0  0  0  0  0  0  0
   14.1718   -8.7667  -16.1811 C   0  0  0  0  0  0  0  0  0  0  0  0
   15.3701   -9.7199  -16.4103 C   0  0  0  0  0  0  0  0  0  0  0  0
   16.3977   -9.3310  -15.4256 C   0  0  2  0  0  0  0  0  0  0  0  0
   16.6112   -7.8348  -15.3227 C   0  0  0  0  0  0  0  0  0  0  0  0
   17.6447  -10.1244  -15.3935 C   0  0  2  0  0  0  0  0  0  0  0  0
   17.3622  -11.5333  -15.1396 N   0  0  0  0  0  0  0  0  0  0  0  0
   18.8245   -9.6209  -14.6929 C   0  0  0  0  0  0  0  0  0  0  0  0
   18.8629   -9.5536  -13.4013 O   0  0  0  0  0  0  0  0  0  0  0  0
   22.5491  -10.7529  -15.0487 C   0  0  0  0  0  0  0  0  0  0  0  0
   22.4825   -9.2376  -15.0860 C   0  0  1  0  0  0  0  0  0  0  0  0
   22.6020   -8.8278  -16.5381 C   0  0  0  0  0  0  0  0  0  0  0  0
   21.1861   -8.7160  -14.5398 C   0  0  2  0  0  0  0  0  0  0  0  0
   20.0284   -9.1649  -15.2682 N   0  0  0  0  0  0  0  0  0  0  0  0
   21.1908   -7.2330  -14.4554 C   0  0  0  0  0  0  0  0  0  0  0  0
   20.5554   -6.5070  -15.2638 O   0  0  0  0  0  0  0  0  0  0  0  0
   21.9046   -6.5387  -13.4678 O   0  0  0  0  0  0  0  0  0  0  0  0
  2  1  1  0
  3  2  2  0
  4  2  1  0
  5  4  1  0
  6  7  1  6
  6  5  1  0
  8  6  1  0
  9  8  2  0
 11 12  1  0
 11 10  1  0
 12 14  1  0
 12 13  1  6
 14 15  1  1
 15  8  1  0
 16 17  2  0
 16 14  1  0
 19 21  1  0
 19 18  1  6
 20 19  1  0
 21 22  1  6
 22 16  1  0
 23 21  1  0
 24 23  2  0
 25 23  1  0
M  END
$$$$
