QIV.pdb
     RDKit          3D

 25 24  0  0  1  0  0  0  0  0999 V2000
   19.5581   -8.9875  -21.0671 N   0  0  0  0  0  0  0  0  0  0  0  0
   18.2414   -9.5244  -21.2768 C   0  0  0  0  0  0  0  0  0  0  0  0
   17.9078   -9.7155  -22.4567 O   0  0  0  0  0  0  0  0  0  0  0  0
   17.4316   -9.7879  -20.1055 C   0  0  0  0  0  0  0  0  0  0  0  0
   18.0068   -9.4446  -18.7682 C   0  0  0  0  0  0  0  0  0  0  0  0
   18.6859  -10.5704  -18.0888 C   0  0  2  0  0  0  0  0  0  0  0  0
   17.8999  -11.7253  -17.8670 N   0  0  0  0  0  0  0  0  0  0  0  0
   19.4417  -10.1181  -16.8622 C   0  0  0  0  0  0  0  0  0  0  0  0
   18.9135  -10.1860  -15.7336 O   0  0  0  0  0  0  0  0  0  0  0  0
   23.8728  -12.1140  -15.3605 C   0  0  0  0  0  0  0  0  0  0  0  0
   22.4861  -11.4504  -15.5445 C   0  0  0  0  0  0  0  0  0  0  0  0
   22.7348   -9.9988  -15.6337 C   0  0  2  0  0  0  0  0  0  0  0  0
   23.7050   -9.4792  -14.5927 C   0  0  0  0  0  0  0  0  0  0  0  0
   21.5680   -9.1212  -15.8657 C   0  0  2  0  0  0  0  0  0  0  0  0
   20.7568   -9.6114  -16.9752 N   0  0  0  0  0  0  0  0  0  0  0  0
   21.7181   -7.6676  -15.8381 C   0  0  0  0  0  0  0  0  0  0  0  0
   22.2991   -7.0322  -16.8041 O   0  0  0  0  0  0  0  0  0  0  0  0
   20.3310   -3.1056  -14.9418 C   0  0  0  0  0  0  0  0  0  0  0  0
   20.1305   -4.6095  -14.9383 C   0  0  1  0  0  0  0  0  0  0  0  0
   19.4511   -4.9656  -16.2431 C   0  0  0  0  0  0  0  0  0  0  0  0
   21.4313   -5.3521  -14.8502 C   0  0  2  0  0  0  0  0  0  0  0  0
   21.2806   -6.7837  -14.8303 N   0  0  0  0  0  0  0  0  0  0  0  0
   22.2308   -4.9082  -13.6798 C   0  0  0  0  0  0  0  0  0  0  0  0
   22.2262   -5.5263  -12.5833 O   0  0  0  0  0  0  0  0  0  0  0  0
   23.0470   -3.7684  -13.7158 O   0  0  0  0  0  0  0  0  0  0  0  0
  2  1  1  0
  3  2  2  0
  4  2  1  0
  5  4  1  0
  6  7  1  1
  6  5  1  0
  8  6  1  0
  9  8  2  0
 11 12  1  0
 11 10  1  0
 12 14  1  0
 12 13  1  1
 14 15  1  6
 15  8  1  0
 16 17  2  0
 16 14  1  0
 19 21  1  0
 19 18  1  6
 20 19  1  0
 21 22  1  1
 22 16  1  0
 23 21  1  0
 24 23  2  0
 25 23  1  0
M  END
$$$$
