QIV.pdb
     RDKit          3D

 25 24  0  0  1  0  0  0  0  0999 V2000
   21.5054  -20.2069  -13.0992 N   0  0  0  0  0  0  0  0  0  0  0  0
   20.8005  -20.0623  -14.3434 C   0  0  0  0  0  0  0  0  0  0  0  0
   19.5986  -20.3711  -14.3325 O   0  0  0  0  0  0  0  0  0  0  0  0
   21.5489  -19.5779  -15.4844 C   0  0  0  0  0  0  0  0  0  0  0  0
   22.9817  -19.2050  -15.2716 C   0  0  0  0  0  0  0  0  0  0  0  0
   23.9524  -20.2168  -15.7451 C   0  0  2  0  0  0  0  0  0  0  0  0
   23.4569  -21.1664  -16.6689 N   0  0  0  0  0  0  0  0  0  0  0  0
   24.7229  -20.8386  -14.6049 C   0  0  0  0  0  0  0  0  0  0  0  0
   24.4005  -21.9597  -14.1615 O   0  0  0  0  0  0  0  0  0  0  0  0
   30.3952  -21.1506  -12.8877 C   0  0  0  0  0  0  0  0  0  0  0  0
   28.9740  -21.3177  -12.2967 C   0  0  0  0  0  0  0  0  0  0  0  0
   28.0565  -20.6511  -13.2404 C   0  0  2  0  0  0  0  0  0  0  0  0
   28.5716  -19.3249  -13.7609 C   0  0  0  0  0  0  0  0  0  0  0  0
   26.6166  -20.6521  -12.9057 C   0  0  2  0  0  0  0  0  0  0  0  0
   25.8189  -20.1601  -14.0242 N   0  0  0  0  0  0  0  0  0  0  0  0
   26.1599  -20.1812  -11.5996 C   0  0  0  0  0  0  0  0  0  0  0  0
   25.6844  -18.9880  -11.4426 O   0  0  0  0  0  0  0  0  0  0  0  0
   24.0652  -20.6085   -7.2274 C   0  0  0  0  0  0  0  0  0  0  0  0
   24.5388  -21.1765   -8.5522 C   0  0  1  0  0  0  0  0  0  0  0  0
   23.3708  -21.0891   -9.5108 C   0  0  0  0  0  0  0  0  0  0  0  0
   25.6910  -20.4008   -9.1193 C   0  0  2  0  0  0  0  0  0  0  0  0
   26.1575  -20.9000  -10.3865 N   0  0  0  0  0  0  0  0  0  0  0  0
   26.8192  -20.3237   -8.1562 C   0  0  0  0  0  0  0  0  0  0  0  0
   26.7792  -19.6060   -7.1230 O   0  0  0  0  0  0  0  0  0  0  0  0
   28.0082  -21.0463   -8.3321 O   0  0  0  0  0  0  0  0  0  0  0  0
  2  1  1  0
  3  2  2  0
  4  2  1  0
  5  4  1  0
  6  7  1  1
  6  5  1  0
  8  6  1  0
  9  8  2  0
 11 12  1  0
 11 10  1  0
 12 14  1  0
 12 13  1  1
 14 15  1  6
 15  8  1  0
 16 17  2  0
 16 14  1  0
 19 21  1  0
 19 18  1  1
 20 19  1  0
 21 22  1  6
 22 16  1  0
 23 21  1  0
 24 23  2  0
 25 23  1  0
M  END
$$$$
