QIV.pdb
     RDKit          3D

 25 24  0  0  1  0  0  0  0  0999 V2000
   20.1624  -12.5287  -22.1752 N   0  0  0  0  0  0  0  0  0  0  0  0
   21.0436  -13.6144  -22.5079 C   0  0  0  0  0  0  0  0  0  0  0  0
   20.8652  -14.1468  -23.6146 O   0  0  0  0  0  0  0  0  0  0  0  0
   22.0462  -13.9861  -21.5314 C   0  0  0  0  0  0  0  0  0  0  0  0
   22.0821  -13.2254  -20.2441 C   0  0  0  0  0  0  0  0  0  0  0  0
   23.2408  -13.5427  -19.3798 C   0  0  2  0  0  0  0  0  0  0  0  0
   23.4938  -14.9174  -19.1626 N   0  0  0  0  0  0  0  0  0  0  0  0
   23.2383  -12.7279  -18.1085 C   0  0  0  0  0  0  0  0  0  0  0  0
   22.5379  -13.0760  -17.1361 O   0  0  0  0  0  0  0  0  0  0  0  0
   27.6389  -11.5738  -15.6331 C   0  0  0  0  0  0  0  0  0  0  0  0
   26.2105  -11.9362  -16.1080 C   0  0  0  0  0  0  0  0  0  0  0  0
   25.5096  -10.6545  -16.3148 C   0  0  2  0  0  0  0  0  0  0  0  0
   25.7239   -9.6530  -15.1985 C   0  0  0  0  0  0  0  0  0  0  0  0
   24.1210  -10.7115  -16.8188 C   0  0  2  0  0  0  0  0  0  0  0  0
   24.0283  -11.5601  -18.0023 N   0  0  0  0  0  0  0  0  0  0  0  0
   23.3109   -9.4974  -16.8952 C   0  0  0  0  0  0  0  0  0  0  0  0
   23.4038   -8.6880  -17.9005 O   0  0  0  0  0  0  0  0  0  0  0  0
   19.3595   -9.1198  -15.8092 C   0  0  0  0  0  0  0  0  0  0  0  0
   20.1715   -8.1953  -16.6969 C   0  0  1  0  0  0  0  0  0  0  0  0
   19.3876   -6.9069  -16.8236 C   0  0  0  0  0  0  0  0  0  0  0  0
   21.5179   -7.8883  -16.1103 C   0  0  2  0  0  0  0  0  0  0  0  0
   22.3602   -9.0457  -15.9568 N   0  0  0  0  0  0  0  0  0  0  0  0
   21.3945   -7.1732  -14.8144 C   0  0  0  0  0  0  0  0  0  0  0  0
   21.6242   -7.7303  -13.7093 O   0  0  0  0  0  0  0  0  0  0  0  0
   21.0129   -5.8262  -14.7326 O   0  0  0  0  0  0  0  0  0  0  0  0
  2  1  1  0
  3  2  2  0
  4  2  1  0
  5  4  1  0
  6  7  1  1
  6  5  1  0
  8  6  1  0
  9  8  2  0
 11 12  1  0
 11 10  1  0
 12 14  1  0
 12 13  1  1
 14 15  1  6
 15  8  1  0
 16 17  2  0
 16 14  1  0
 19 21  1  0
 19 18  1  1
 20 19  1  0
 21 22  1  1
 22 16  1  0
 23 21  1  0
 24 23  2  0
 25 23  1  0
M  END
$$$$
