QIV.pdb
     RDKit          3D

 25 24  0  0  1  0  0  0  0  0999 V2000
   28.0176  -17.1381  -16.8307 N   0  0  0  0  0  0  0  0  0  0  0  0
   27.4619  -18.3130  -17.4445 C   0  0  0  0  0  0  0  0  0  0  0  0
   26.9971  -18.1686  -18.5860 O   0  0  0  0  0  0  0  0  0  0  0  0
   27.4919  -19.5441  -16.6826 C   0  0  0  0  0  0  0  0  0  0  0  0
   28.1155  -19.5083  -15.3235 C   0  0  0  0  0  0  0  0  0  0  0  0
   28.2173  -20.8292  -14.6638 C   0  0  2  0  0  0  0  0  0  0  0  0
   28.7605  -21.8734  -15.4483 N   0  0  0  0  0  0  0  0  0  0  0  0
   26.9349  -21.2128  -13.9647 C   0  0  0  0  0  0  0  0  0  0  0  0
   26.1458  -22.0233  -14.4917 O   0  0  0  0  0  0  0  0  0  0  0  0
   26.8396  -20.4907   -8.4673 C   0  0  0  0  0  0  0  0  0  0  0  0
   26.7900  -21.1477   -9.8684 C   0  0  0  0  0  0  0  0  0  0  0  0
   25.5693  -20.6345  -10.5191 C   0  0  2  0  0  0  0  0  0  0  0  0
   24.3149  -20.8048   -9.6870 C   0  0  0  0  0  0  0  0  0  0  0  0
   25.3878  -20.9308  -11.9560 C   0  0  2  0  0  0  0  0  0  0  0  0
   26.6105  -20.6592  -12.7049 N   0  0  0  0  0  0  0  0  0  0  0  0
   24.1664  -20.5228  -12.6473 C   0  0  0  0  0  0  0  0  0  0  0  0
   23.9827  -19.2984  -13.0236 O   0  0  0  0  0  0  0  0  0  0  0  0
   20.2907  -21.1186  -15.5771 C   0  0  0  0  0  0  0  0  0  0  0  0
   21.5099  -21.6804  -14.8700 C   0  0  1  0  0  0  0  0  0  0  0  0
   22.6596  -21.6086  -15.8517 C   0  0  0  0  0  0  0  0  0  0  0  0
   21.8669  -20.8895  -13.6460 C   0  0  2  0  0  0  0  0  0  0  0  0
   23.0709  -21.3387  -12.9971 N   0  0  0  0  0  0  0  0  0  0  0  0
   20.7449  -20.8601  -12.6731 C   0  0  0  0  0  0  0  0  0  0  0  0
   20.5568  -21.7747  -11.8290 O   0  0  0  0  0  0  0  0  0  0  0  0
   19.8167  -19.8098  -12.6279 O   0  0  0  0  0  0  0  0  0  0  0  0
  2  1  1  0
  3  2  2  0
  4  2  1  0
  5  4  1  0
  6  7  1  6
  6  5  1  0
  8  6  1  0
  9  8  2  0
 11 12  1  0
 11 10  1  0
 12 14  1  0
 12 13  1  1
 14 15  1  6
 15  8  1  0
 16 17  2  0
 16 14  1  0
 19 21  1  0
 19 18  1  6
 20 19  1  0
 21 22  1  1
 22 16  1  0
 23 21  1  0
 24 23  2  0
 25 23  1  0
M  END
$$$$
