QIV.pdb
     RDKit          3D

 25 24  0  0  1  0  0  0  0  0999 V2000
   26.7352  -18.7434  -17.2944 N   0  0  0  0  0  0  0  0  0  0  0  0
   27.0021  -19.4892  -18.4937 C   0  0  0  0  0  0  0  0  0  0  0  0
   27.6391  -18.8965  -19.3785 O   0  0  0  0  0  0  0  0  0  0  0  0
   26.5066  -20.8482  -18.5611 C   0  0  0  0  0  0  0  0  0  0  0  0
   25.7566  -21.3766  -17.3799 C   0  0  0  0  0  0  0  0  0  0  0  0
   26.5722  -21.5191  -16.1531 C   0  0  2  0  0  0  0  0  0  0  0  0
   27.7517  -22.2896  -16.2791 N   0  0  0  0  0  0  0  0  0  0  0  0
   25.7334  -21.9026  -14.9574 C   0  0  0  0  0  0  0  0  0  0  0  0
   25.2192  -23.0373  -14.8839 O   0  0  0  0  0  0  0  0  0  0  0  0
   27.6150  -20.8233  -10.1797 C   0  0  0  0  0  0  0  0  0  0  0  0
   26.9674  -21.4469  -11.4402 C   0  0  0  0  0  0  0  0  0  0  0  0
   25.5840  -20.9362  -11.4859 C   0  0  2  0  0  0  0  0  0  0  0  0
   24.8369  -21.0754  -10.1754 C   0  0  0  0  0  0  0  0  0  0  0  0
   24.7769  -21.2624  -12.6807 C   0  0  2  0  0  0  0  0  0  0  0  0
   25.5187  -20.9824  -13.9058 N   0  0  0  0  0  0  0  0  0  0  0  0
   23.3651  -20.8900  -12.7445 C   0  0  0  0  0  0  0  0  0  0  0  0
   22.6295  -20.8536  -11.6805 O   0  0  0  0  0  0  0  0  0  0  0  0
   22.0524  -17.9477  -15.1903 C   0  0  0  0  0  0  0  0  0  0  0  0
   21.0369  -19.0689  -15.0723 C   0  0  1  0  0  0  0  0  0  0  0  0
   21.1425  -19.8928  -16.3375 C   0  0  0  0  0  0  0  0  0  0  0  0
   21.3089  -19.9548  -13.8923 C   0  0  2  0  0  0  0  0  0  0  0  0
   22.6287  -20.5297  -13.8918 N   0  0  0  0  0  0  0  0  0  0  0  0
   20.2871  -21.0260  -13.7716 C   0  0  0  0  0  0  0  0  0  0  0  0
   20.5299  -22.2280  -14.0554 O   0  0  0  0  0  0  0  0  0  0  0  0
   18.9797  -20.7716  -13.3325 O   0  0  0  0  0  0  0  0  0  0  0  0
  2  1  1  0
  3  2  2  0
  4  2  1  0
  5  4  1  0
  6  7  1  6
  6  5  1  0
  8  6  1  0
  9  8  2  0
 11 12  1  0
 11 10  1  0
 12 14  1  0
 12 13  1  1
 14 15  1  6
 15  8  1  0
 16 17  2  0
 16 14  1  0
 19 21  1  0
 19 18  1  6
 20 19  1  0
 21 22  1  6
 22 16  1  0
 23 21  1  0
 24 23  2  0
 25 23  1  0
M  END
$$$$
