QIV.pdb
     RDKit          3D

 25 24  0  0  1  0  0  0  0  0999 V2000
   23.1825  -15.1063  -20.5368 N   0  0  0  0  0  0  0  0  0  0  0  0
   21.9782  -15.8757  -20.6906 C   0  0  0  0  0  0  0  0  0  0  0  0
   21.9516  -16.6689  -21.6446 O   0  0  0  0  0  0  0  0  0  0  0  0
   20.9163  -15.6557  -19.7311 C   0  0  0  0  0  0  0  0  0  0  0  0
   21.1386  -14.6273  -18.6680 C   0  0  0  0  0  0  0  0  0  0  0  0
   22.0535  -15.0555  -17.5864 C   0  0  2  0  0  0  0  0  0  0  0  0
   21.7400  -16.2843  -16.9598 N   0  0  0  0  0  0  0  0  0  0  0  0
   22.3333  -13.9403  -16.6074 C   0  0  0  0  0  0  0  0  0  0  0  0
   21.5937  -13.7683  -15.6172 O   0  0  0  0  0  0  0  0  0  0  0  0
   27.3446  -13.0245  -15.0579 C   0  0  0  0  0  0  0  0  0  0  0  0
   25.8203  -13.2655  -15.1824 C   0  0  0  0  0  0  0  0  0  0  0  0
   25.2351  -11.9793  -15.6068 C   0  0  2  0  0  0  0  0  0  0  0  0
   25.7036  -10.7941  -14.7877 C   0  0  0  0  0  0  0  0  0  0  0  0
   23.7922  -11.9609  -15.9282 C   0  0  2  0  0  0  0  0  0  0  0  0
   23.4358  -13.0761  -16.7991 N   0  0  0  0  0  0  0  0  0  0  0  0
   23.1260  -10.7057  -16.2699 C   0  0  0  0  0  0  0  0  0  0  0  0
   23.3674  -10.0974  -17.3862 O   0  0  0  0  0  0  0  0  0  0  0  0
   19.3369   -7.6667  -16.4512 C   0  0  0  0  0  0  0  0  0  0  0  0
   20.0148   -8.9625  -16.0469 C   0  0  1  0  0  0  0  0  0  0  0  0
   19.7417   -9.9639  -17.1484 C   0  0  0  0  0  0  0  0  0  0  0  0
   21.4987   -8.7999  -15.8960 C   0  0  2  0  0  0  0  0  0  0  0  0
   22.1758  -10.0063  -15.4976 N   0  0  0  0  0  0  0  0  0  0  0  0
   21.8307   -7.6967  -14.9585 C   0  0  0  0  0  0  0  0  0  0  0  0
   22.0004   -7.8843  -13.7254 O   0  0  0  0  0  0  0  0  0  0  0  0
   21.9781   -6.3683  -15.3832 O   0  0  0  0  0  0  0  0  0  0  0  0
  2  1  1  0
  3  2  2  0
  4  2  1  0
  5  4  1  0
  6  7  1  1
  6  5  1  0
  8  6  1  0
  9  8  2  0
 11 12  1  0
 11 10  1  0
 12 14  1  0
 12 13  1  1
 14 15  1  6
 15  8  1  0
 16 17  2  0
 16 14  1  0
 19 21  1  0
 19 18  1  6
 20 19  1  0
 21 22  1  1
 22 16  1  0
 23 21  1  0
 24 23  2  0
 25 23  1  0
M  END
$$$$
