QIV.pdb
     RDKit          3D

 25 24  0  0  1  0  0  0  0  0999 V2000
   25.7079  -11.7555  -15.9575 N   0  0  0  0  0  0  0  0  0  0  0  0
   25.2568  -13.0077  -16.5001 C   0  0  0  0  0  0  0  0  0  0  0  0
   25.9763  -13.9939  -16.2767 O   0  0  0  0  0  0  0  0  0  0  0  0
   24.0194  -13.0044  -17.2521 C   0  0  0  0  0  0  0  0  0  0  0  0
   23.2541  -11.7217  -17.3305 C   0  0  0  0  0  0  0  0  0  0  0  0
   21.8003  -11.8629  -17.0919 C   0  0  2  0  0  0  0  0  0  0  0  0
   21.1279  -12.8062  -17.9035 N   0  0  0  0  0  0  0  0  0  0  0  0
   21.1044  -10.5241  -17.0308 C   0  0  0  0  0  0  0  0  0  0  0  0
   20.7921   -9.9257  -18.0804 O   0  0  0  0  0  0  0  0  0  0  0  0
   16.9350  -10.4824  -15.2390 C   0  0  0  0  0  0  0  0  0  0  0  0
   17.7948   -9.5199  -16.0943 C   0  0  0  0  0  0  0  0  0  0  0  0
   18.7208   -8.8551  -15.1576 C   0  0  2  0  0  0  0  0  0  0  0  0
   18.1187   -7.6607  -14.4464 C   0  0  0  0  0  0  0  0  0  0  0  0
   20.1147   -8.6531  -15.6068 C   0  0  2  0  0  0  0  0  0  0  0  0
   20.7975   -9.9304  -15.7849 N   0  0  0  0  0  0  0  0  0  0  0  0
   20.9458   -7.6167  -14.9974 C   0  0  0  0  0  0  0  0  0  0  0  0
   21.5784   -7.8265  -13.8882 O   0  0  0  0  0  0  0  0  0  0  0  0
   23.8312   -3.6028  -15.2299 C   0  0  0  0  0  0  0  0  0  0  0  0
   22.9054   -4.6050  -15.8935 C   0  0  1  0  0  0  0  0  0  0  0  0
   23.7832   -5.5954  -16.6279 C   0  0  0  0  0  0  0  0  0  0  0  0
   22.0676   -5.3472  -14.8942 C   0  0  2  0  0  0  0  0  0  0  0  0
   21.1819   -6.3153  -15.4863 N   0  0  0  0  0  0  0  0  0  0  0  0
   21.2983   -4.4139  -14.0319 C   0  0  0  0  0  0  0  0  0  0  0  0
   20.1112   -4.0811  -14.2854 O   0  0  0  0  0  0  0  0  0  0  0  0
   21.8424   -3.8386  -12.8745 O   0  0  0  0  0  0  0  0  0  0  0  0
  2  1  1  0
  3  2  2  0
  4  2  1  0
  5  4  1  0
  6  7  1  6
  6  5  1  0
  8  6  1  0
  9  8  2  0
 11 12  1  0
 11 10  1  0
 12 14  1  0
 12 13  1  6
 14 15  1  1
 15  8  1  0
 16 17  2  0
 16 14  1  0
 19 21  1  0
 19 18  1  1
 20 19  1  0
 21 22  1  6
 22 16  1  0
 23 21  1  0
 24 23  2  0
 25 23  1  0
M  END
$$$$
