QIV.pdb
     RDKit          3D

 25 24  0  0  1  0  0  0  0  0999 V2000
   25.6363  -23.8813  -16.5634 N   0  0  0  0  0  0  0  0  0  0  0  0
   26.9034  -23.8259  -15.8870 C   0  0  0  0  0  0  0  0  0  0  0  0
   27.7171  -24.7185  -16.1715 O   0  0  0  0  0  0  0  0  0  0  0  0
   27.1118  -22.7473  -14.9435 C   0  0  0  0  0  0  0  0  0  0  0  0
   25.9606  -21.8351  -14.6613 C   0  0  0  0  0  0  0  0  0  0  0  0
   25.8369  -20.6996  -15.6024 C   0  0  2  0  0  0  0  0  0  0  0  0
   26.9942  -19.9033  -15.7682 N   0  0  0  0  0  0  0  0  0  0  0  0
   24.5865  -19.8908  -15.3520 C   0  0  0  0  0  0  0  0  0  0  0  0
   24.4698  -19.2138  -14.3102 O   0  0  0  0  0  0  0  0  0  0  0  0
   23.4457  -16.6732  -18.6366 C   0  0  0  0  0  0  0  0  0  0  0  0
   23.2905  -17.0926  -17.1543 C   0  0  0  0  0  0  0  0  0  0  0  0
   22.1767  -18.0594  -17.1160 C   0  0  2  0  0  0  0  0  0  0  0  0
   20.8066  -17.4176  -17.1938 C   0  0  0  0  0  0  0  0  0  0  0  0
   22.2713  -19.1689  -16.1438 C   0  0  2  0  0  0  0  0  0  0  0  0
   23.5315  -19.8895  -16.2931 N   0  0  0  0  0  0  0  0  0  0  0  0
   21.1201  -20.0338  -15.8933 C   0  0  0  0  0  0  0  0  0  0  0  0
   20.7102  -20.8828  -16.7797 O   0  0  0  0  0  0  0  0  0  0  0  0
   17.8191  -22.5099  -13.2230 C   0  0  0  0  0  0  0  0  0  0  0  0
   19.1103  -21.7236  -13.3521 C   0  0  1  0  0  0  0  0  0  0  0  0
   20.2308  -22.7344  -13.4684 C   0  0  0  0  0  0  0  0  0  0  0  0
   19.1184  -20.8479  -14.5704 C   0  0  2  0  0  0  0  0  0  0  0  0
   20.3291  -20.0850  -14.7271 N   0  0  0  0  0  0  0  0  0  0  0  0
   17.9402  -19.9438  -14.5962 C   0  0  0  0  0  0  0  0  0  0  0  0
   16.8466  -20.2720  -15.1260 O   0  0  0  0  0  0  0  0  0  0  0  0
   17.9652  -18.6605  -14.0313 O   0  0  0  0  0  0  0  0  0  0  0  0
  2  1  1  0
  3  2  2  0
  4  2  1  0
  5  4  1  0
  6  7  1  1
  6  5  1  0
  8  6  1  0
  9  8  2  0
 11 12  1  0
 11 10  1  0
 12 14  1  0
 12 13  1  1
 14 15  1  6
 15  8  1  0
 16 17  2  0
 16 14  1  0
 19 21  1  0
 19 18  1  6
 20 19  1  0
 21 22  1  1
 22 16  1  0
 23 21  1  0
 24 23  2  0
 25 23  1  0
M  END
$$$$
