QIV.pdb
     RDKit          3D

 25 24  0  0  1  0  0  0  0  0999 V2000
   15.7955  -25.0737   -2.5033 N   0  0  0  0  0  0  0  0  0  0  0  0
   14.6001  -24.5716   -3.1237 C   0  0  0  0  0  0  0  0  0  0  0  0
   13.9876  -25.3638   -3.8566 O   0  0  0  0  0  0  0  0  0  0  0  0
   14.2248  -23.2015   -2.8426 C   0  0  0  0  0  0  0  0  0  0  0  0
   14.9915  -22.4709   -1.7864 C   0  0  0  0  0  0  0  0  0  0  0  0
   14.7341  -22.9441   -0.4079 C   0  0  2  0  0  0  0  0  0  0  0  0
   13.3786  -22.9695   -0.0045 N   0  0  0  0  0  0  0  0  0  0  0  0
   15.6439  -22.2796    0.5976 C   0  0  0  0  0  0  0  0  0  0  0  0
   16.8468  -22.0840    0.3290 O   0  0  0  0  0  0  0  0  0  0  0  0
   14.6689  -17.6547    2.7919 C   0  0  0  0  0  0  0  0  0  0  0  0
   15.3344  -18.9086    2.1738 C   0  0  0  0  0  0  0  0  0  0  0  0
   15.4036  -19.9108    3.2544 C   0  0  2  0  0  0  0  0  0  0  0  0
   15.9129  -19.3580    4.5697 C   0  0  0  0  0  0  0  0  0  0  0  0
   15.9374  -21.2460    2.9114 C   0  0  2  0  0  0  0  0  0  0  0  0
   15.1463  -21.8707    1.8562 N   0  0  0  0  0  0  0  0  0  0  0  0
   16.3547  -22.1693    3.9647 C   0  0  0  0  0  0  0  0  0  0  0  0
   17.0262  -21.7596    4.9921 O   0  0  0  0  0  0  0  0  0  0  0  0
   14.4483  -25.9088    4.6897 C   0  0  0  0  0  0  0  0  0  0  0  0
   15.1797  -25.0797    5.7287 C   0  0  1  0  0  0  0  0  0  0  0  0
   15.6177  -26.0308    6.8216 C   0  0  0  0  0  0  0  0  0  0  0  0
   16.3921  -24.4032    5.1597 C   0  0  2  0  0  0  0  0  0  0  0  0
   16.1064  -23.5558    4.0316 N   0  0  0  0  0  0  0  0  0  0  0  0
   17.4450  -25.3881    4.8026 C   0  0  0  0  0  0  0  0  0  0  0  0
   18.0222  -26.1036    5.6625 O   0  0  0  0  0  0  0  0  0  0  0  0
   17.8692  -25.5890    3.4810 O   0  0  0  0  0  0  0  0  0  0  0  0
  2  1  1  0
  3  2  2  0
  4  2  1  0
  5  4  1  0
  6  7  1  1
  6  5  1  0
  8  6  1  0
  9  8  2  0
 11 12  1  0
 11 10  1  0
 12 14  1  0
 12 13  1  1
 14 15  1  1
 15  8  1  0
 16 17  2  0
 16 14  1  0
 19 21  1  0
 19 18  1  6
 20 19  1  0
 21 22  1  6
 22 16  1  0
 23 21  1  0
 24 23  2  0
 25 23  1  0
M  END
$$$$
