QIV.pdb
     RDKit          3D

 25 24  0  0  1  0  0  0  0  0999 V2000
   17.2336  -13.3165  -16.8395 N   0  0  0  0  0  0  0  0  0  0  0  0
   17.6562  -13.4772  -18.2038 C   0  0  0  0  0  0  0  0  0  0  0  0
   16.9468  -14.2046  -18.9163 O   0  0  0  0  0  0  0  0  0  0  0  0
   18.8594  -12.7860  -18.6177 C   0  0  0  0  0  0  0  0  0  0  0  0
   19.5660  -11.9461  -17.6016 C   0  0  0  0  0  0  0  0  0  0  0  0
   20.8559  -12.5048  -17.1385 C   0  0  2  0  0  0  0  0  0  0  0  0
   20.8175  -13.8331  -16.6537 N   0  0  0  0  0  0  0  0  0  0  0  0
   21.5867  -11.5549  -16.2199 C   0  0  0  0  0  0  0  0  0  0  0  0
   21.2938  -11.4966  -15.0082 O   0  0  0  0  0  0  0  0  0  0  0  0
   26.6124  -11.7698  -15.4893 C   0  0  0  0  0  0  0  0  0  0  0  0
   25.0747  -11.5958  -15.4383 C   0  0  0  0  0  0  0  0  0  0  0  0
   24.8063  -10.2011  -15.8374 C   0  0  2  0  0  0  0  0  0  0  0  0
   25.7182   -9.1889  -15.1748 C   0  0  0  0  0  0  0  0  0  0  0  0
   23.3926   -9.7775  -15.9232 C   0  0  2  0  0  0  0  0  0  0  0  0
   22.6117  -10.7188  -16.7192 N   0  0  0  0  0  0  0  0  0  0  0  0
   23.0529   -8.3760  -16.1609 C   0  0  0  0  0  0  0  0  0  0  0  0
   23.3898   -7.7782  -17.2579 O   0  0  0  0  0  0  0  0  0  0  0  0
   20.0326   -6.7954  -16.9996 C   0  0  0  0  0  0  0  0  0  0  0  0
   20.5318   -5.9426  -15.8483 C   0  0  1  0  0  0  0  0  0  0  0  0
   19.7540   -6.3632  -14.6200 C   0  0  0  0  0  0  0  0  0  0  0  0
   21.9956   -6.1456  -15.5888 C   0  0  2  0  0  0  0  0  0  0  0  0
   22.3483   -7.5108  -15.2987 N   0  0  0  0  0  0  0  0  0  0  0  0
   22.4833   -5.2529  -14.5065 C   0  0  0  0  0  0  0  0  0  0  0  0
   22.7784   -5.6787  -13.3593 O   0  0  0  0  0  0  0  0  0  0  0  0
   22.6489   -3.8722  -14.6885 O   0  0  0  0  0  0  0  0  0  0  0  0
  2  1  1  0
  3  2  2  0
  4  2  1  0
  5  4  1  0
  6  7  1  1
  6  5  1  0
  8  6  1  0
  9  8  2  0
 11 12  1  0
 11 10  1  0
 12 14  1  0
 12 13  1  1
 14 15  1  6
 15  8  1  0
 16 17  2  0
 16 14  1  0
 19 21  1  0
 19 18  1  6
 20 19  1  0
 21 22  1  1
 22 16  1  0
 23 21  1  0
 24 23  2  0
 25 23  1  0
M  END
$$$$
