QIV.pdb
     RDKit          3D

 25 24  0  0  1  0  0  0  0  0999 V2000
   27.5533  -18.7971  -19.0158 N   0  0  0  0  0  0  0  0  0  0  0  0
   28.1377  -17.5482  -18.6099 C   0  0  0  0  0  0  0  0  0  0  0  0
   28.4848  -16.7822  -19.5224 O   0  0  0  0  0  0  0  0  0  0  0  0
   28.2695  -17.3013  -17.1891 C   0  0  0  0  0  0  0  0  0  0  0  0
   27.6856  -18.3075  -16.2491 C   0  0  0  0  0  0  0  0  0  0  0  0
   28.5570  -19.4745  -15.9859 C   0  0  2  0  0  0  0  0  0  0  0  0
   28.9363  -20.2326  -17.1183 N   0  0  0  0  0  0  0  0  0  0  0  0
   28.0408  -20.3206  -14.8466 C   0  0  0  0  0  0  0  0  0  0  0  0
   27.2023  -21.2205  -15.0571 O   0  0  0  0  0  0  0  0  0  0  0  0
   31.3970  -21.6791  -10.8437 C   0  0  0  0  0  0  0  0  0  0  0  0
   30.3368  -21.7132  -11.9715 C   0  0  0  0  0  0  0  0  0  0  0  0
   29.1189  -21.0999  -11.4081 C   0  0  2  0  0  0  0  0  0  0  0  0
   28.6762  -21.7131  -10.0954 C   0  0  0  0  0  0  0  0  0  0  0  0
   28.0118  -20.8031  -12.3417 C   0  0  2  0  0  0  0  0  0  0  0  0
   28.4994  -20.1049  -13.5267 N   0  0  0  0  0  0  0  0  0  0  0  0
   26.7354  -20.2981  -11.8396 C   0  0  0  0  0  0  0  0  0  0  0  0
   26.5820  -19.0532  -11.5216 O   0  0  0  0  0  0  0  0  0  0  0  0
   23.5040  -20.0662  -13.5243 C   0  0  0  0  0  0  0  0  0  0  0  0
   23.1715  -20.6563  -12.1667 C   0  0  1  0  0  0  0  0  0  0  0  0
   22.9274  -22.1350  -12.3778 C   0  0  0  0  0  0  0  0  0  0  0  0
   24.2945  -20.4851  -11.1864 C   0  0  2  0  0  0  0  0  0  0  0  0
   25.5472  -21.0306  -11.6399 N   0  0  0  0  0  0  0  0  0  0  0  0
   23.9450  -21.0492   -9.8576 C   0  0  0  0  0  0  0  0  0  0  0  0
   24.5620  -22.0228   -9.3520 O   0  0  0  0  0  0  0  0  0  0  0  0
   22.9019  -20.5351   -9.0736 O   0  0  0  0  0  0  0  0  0  0  0  0
  2  1  1  0
  3  2  2  0
  4  2  1  0
  5  4  1  0
  6  7  1  6
  6  5  1  0
  8  6  1  0
  9  8  2  0
 11 12  1  0
 11 10  1  0
 12 14  1  0
 12 13  1  1
 14 15  1  6
 15  8  1  0
 16 17  2  0
 16 14  1  0
 19 21  1  0
 19 18  1  6
 20 19  1  0
 21 22  1  6
 22 16  1  0
 23 21  1  0
 24 23  2  0
 25 23  1  0
M  END
$$$$
