QIV.pdb
     RDKit          3D

 25 24  0  0  1  0  0  0  0  0999 V2000
   16.1583  -11.9471  -20.2368 N   0  0  0  0  0  0  0  0  0  0  0  0
   16.7309  -13.2621  -20.3315 C   0  0  0  0  0  0  0  0  0  0  0  0
   16.3515  -13.9587  -21.2858 O   0  0  0  0  0  0  0  0  0  0  0  0
   17.6856  -13.6512  -19.3147 C   0  0  0  0  0  0  0  0  0  0  0  0
   18.0922  -12.6216  -18.3089 C   0  0  0  0  0  0  0  0  0  0  0  0
   19.0423  -13.1106  -17.2849 C   0  0  2  0  0  0  0  0  0  0  0  0
   18.6599  -14.2848  -16.5952 N   0  0  0  0  0  0  0  0  0  0  0  0
   19.5052  -12.0036  -16.3680 C   0  0  0  0  0  0  0  0  0  0  0  0
   18.8617  -11.7280  -15.3349 O   0  0  0  0  0  0  0  0  0  0  0  0
   24.0597  -12.0266  -14.1626 C   0  0  0  0  0  0  0  0  0  0  0  0
   22.5885  -11.8699  -14.6190 C   0  0  0  0  0  0  0  0  0  0  0  0
   22.4932  -10.5377  -15.2458 C   0  0  2  0  0  0  0  0  0  0  0  0
   23.1315   -9.4313  -14.4313 C   0  0  0  0  0  0  0  0  0  0  0  0
   21.2027  -10.1670  -15.8643 C   0  0  2  0  0  0  0  0  0  0  0  0
   20.6727  -11.2643  -16.6671 N   0  0  0  0  0  0  0  0  0  0  0  0
   21.0238   -8.8491  -16.4704 C   0  0  0  0  0  0  0  0  0  0  0  0
   21.6480   -8.5159  -17.5538 O   0  0  0  0  0  0  0  0  0  0  0  0
   18.2026   -7.3383  -18.1494 C   0  0  0  0  0  0  0  0  0  0  0  0
   18.6438   -6.2773  -17.1587 C   0  0  1  0  0  0  0  0  0  0  0  0
   17.6783   -6.3340  -15.9945 C   0  0  0  0  0  0  0  0  0  0  0  0
   20.0333   -6.5239  -16.6491 C   0  0  2  0  0  0  0  0  0  0  0  0
   20.1972   -7.8035  -16.0102 N   0  0  0  0  0  0  0  0  0  0  0  0
   20.4767   -5.4390  -15.7366 C   0  0  0  0  0  0  0  0  0  0  0  0
   20.5603   -5.5947  -14.4903 O   0  0  0  0  0  0  0  0  0  0  0  0
   20.8331   -4.1647  -16.2014 O   0  0  0  0  0  0  0  0  0  0  0  0
  2  1  1  0
  3  2  2  0
  4  2  1  0
  5  4  1  0
  6  7  1  1
  6  5  1  0
  8  6  1  0
  9  8  2  0
 11 12  1  0
 11 10  1  0
 12 14  1  0
 12 13  1  1
 14 15  1  6
 15  8  1  0
 16 17  2  0
 16 14  1  0
 19 21  1  0
 19 18  1  6
 20 19  1  0
 21 22  1  1
 22 16  1  0
 23 21  1  0
 24 23  2  0
 25 23  1  0
M  END
$$$$
