YMD.pdb
     RDKit          3D

 29 29  0  0  1  0  0  0  0  0999 V2000
    7.3037  -13.9259   15.2611 O   0  0  0  0  0  0  0  0  0  0  0  0
    7.6487  -14.3509   16.5391 C   0  0  0  0  0  0  0  0  0  0  0  0
    8.5081  -13.5794   17.3028 C   0  0  0  0  0  0  0  0  0  0  0  0
    8.8599  -13.9791   18.5619 C   0  0  0  0  0  0  0  0  0  0  0  0
    8.3584  -15.1494   19.0688 C   0  0  0  0  0  0  0  0  0  0  0  0
    8.7725  -15.5548   20.4583 C   0  0  0  0  0  0  0  0  0  0  0  0
    9.6621  -14.4155   20.9745 C   0  0  2  0  0  0  0  0  0  0  0  0
   11.0122  -14.6276   20.5148 N   0  0  0  0  0  0  0  0  0  0  0  0
    9.6667  -14.5486   22.4796 C   0  0  0  0  0  0  0  0  0  0  0  0
   10.7812  -14.7570   23.0075 O   0  0  0  0  0  0  0  0  0  0  0  0
    7.5051  -15.9119   18.3063 C   0  0  0  0  0  0  0  0  0  0  0  0
    7.1453  -15.5204   17.0412 C   0  0  0  0  0  0  0  0  0  0  0  0
    6.2054  -10.4286   27.7054 C   0  0  0  0  0  0  0  0  0  0  0  0
    5.8392  -11.8327   26.6007 S   0  0  0  0  0  0  0  0  0  0  0  0
    7.4057  -12.6362   26.1103 C   0  0  0  0  0  0  0  0  0  0  0  0
    7.1066  -13.7657   25.1639 C   0  0  0  0  0  0  0  0  0  0  0  0
    8.3429  -14.4525   24.6318 C   0  0  2  0  0  0  0  0  0  0  0  0
    8.4657  -14.4380   23.2120 N   0  0  0  0  0  0  0  0  0  0  0  0
    8.6875  -15.7066   25.2728 C   0  0  0  0  0  0  0  0  0  0  0  0
    8.6369  -15.9682   26.4835 O   0  0  0  0  0  0  0  0  0  0  0  0
    9.1432  -16.7890   24.4316 N   0  0  0  0  0  0  0  0  0  0  0  0
    9.4817  -18.0702   24.9402 C   0  0  1  0  0  0  0  0  0  0  0  0
    9.3321  -19.2122   24.0125 C   0  0  0  0  0  0  0  0  0  0  0  0
    9.7845  -20.4911   24.6048 C   0  0  0  0  0  0  0  0  0  0  0  0
   10.2276  -20.5958   25.7696 O   0  0  0  0  0  0  0  0  0  0  0  0
   10.8951  -18.0645   25.4602 C   0  0  0  0  0  0  0  0  0  0  0  0
   11.6912  -16.9297   25.3304 O   0  0  0  0  0  0  0  0  0  0  0  0
    9.7163  -21.6370   23.8329 O   0  0  0  0  0  0  0  0  0  0  0  0
   11.3454  -19.1003   26.0134 O   0  0  0  0  0  0  0  0  0  0  0  0
  2  1  1  0
  3  2  2  0
  4  3  1  0
  5 11  1  0
  5  4  2  0
  6  5  1  0
  7  9  1  0
  7  6  1  0
  7  8  1  6
  9 10  2  0
 11 12  2  0
 12  2  1  0
 14 15  1  0
 14 13  1  0
 17 16  1  6
 16 15  1  0
 18 17  1  0
 18  9  1  0
 19 17  1  0
 20 19  2  0
 21 19  1  0
 22 23  1  6
 22 21  1  0
 23 24  1  0
 24 25  2  0
 24 28  1  0
 26 27  1  0
 26 22  1  0
 29 26  2  0
M  END
$$$$
