YMD.pdb
     RDKit          3D

 29 29  0  0  1  0  0  0  0  0999 V2000
    7.2892  -12.8206   16.4843 O   0  0  0  0  0  0  0  0  0  0  0  0
    7.3997  -13.4660   17.7107 C   0  0  0  0  0  0  0  0  0  0  0  0
    7.3026  -14.8461   17.7633 C   0  0  0  0  0  0  0  0  0  0  0  0
    7.4086  -15.5004   18.9589 C   0  0  0  0  0  0  0  0  0  0  0  0
    7.6120  -14.7848   20.1099 C   0  0  0  0  0  0  0  0  0  0  0  0
    7.7207  -15.5432   21.4059 C   0  0  0  0  0  0  0  0  0  0  0  0
    9.2245  -15.7172   21.6593 C   0  0  2  0  0  0  0  0  0  0  0  0
    9.6492  -16.9844   21.1178 N   0  0  0  0  0  0  0  0  0  0  0  0
    9.3821  -15.7871   23.1604 C   0  0  0  0  0  0  0  0  0  0  0  0
   10.3801  -16.4148   23.5776 O   0  0  0  0  0  0  0  0  0  0  0  0
    7.7078  -13.4143   20.0521 C   0  0  0  0  0  0  0  0  0  0  0  0
    7.6028  -12.7472   18.8575 C   0  0  0  0  0  0  0  0  0  0  0  0
    5.6019  -11.6598   26.2849 C   0  0  0  0  0  0  0  0  0  0  0  0
    6.7048  -11.9673   27.7043 S   0  0  0  0  0  0  0  0  0  0  0  0
    7.9755  -13.1901   27.2245 C   0  0  0  0  0  0  0  0  0  0  0  0
    7.6613  -13.7163   25.8514 C   0  0  0  0  0  0  0  0  0  0  0  0
    8.6789  -14.7073   25.3360 C   0  0  2  0  0  0  0  0  0  0  0  0
    8.4395  -15.1684   24.0089 N   0  0  0  0  0  0  0  0  0  0  0  0
    9.0975  -15.7239   26.2813 C   0  0  0  0  0  0  0  0  0  0  0  0
    9.4209  -15.5577   27.4665 O   0  0  0  0  0  0  0  0  0  0  0  0
    9.1526  -17.0912   25.8181 N   0  0  0  0  0  0  0  0  0  0  0  0
    9.5283  -18.1739   26.6557 C   0  0  1  0  0  0  0  0  0  0  0  0
    8.9874  -19.5041   26.3018 C   0  0  0  0  0  0  0  0  0  0  0  0
    7.5285  -19.6056   26.5305 C   0  0  0  0  0  0  0  0  0  0  0  0
    6.9867  -19.4086   27.6403 O   0  0  0  0  0  0  0  0  0  0  0  0
   11.0291  -18.2769   26.7277 C   0  0  0  0  0  0  0  0  0  0  0  0
   11.8328  -17.4230   25.9771 O   0  0  0  0  0  0  0  0  0  0  0  0
    6.7141  -19.9362   25.4623 O   0  0  0  0  0  0  0  0  0  0  0  0
   11.5454  -19.1458   27.4761 O   0  0  0  0  0  0  0  0  0  0  0  0
  2  1  1  0
  3  2  2  0
  4  3  1  0
  5 11  1  0
  5  4  2  0
  6  5  1  0
  7  9  1  0
  7  6  1  0
  7  8  1  6
  9 10  2  0
 11 12  2  0
 12  2  1  0
 14 15  1  0
 14 13  1  0
 17 16  1  1
 16 15  1  0
 18 17  1  0
 18  9  1  0
 19 17  1  0
 20 19  2  0
 21 19  1  0
 22 23  1  6
 22 21  1  0
 23 24  1  0
 24 25  2  0
 24 28  1  0
 26 27  1  0
 26 22  1  0
 29 26  2  0
M  END
$$$$
