YMD.pdb
     RDKit          3D

 29 29  0  0  1  0  0  0  0  0999 V2000
    7.8459  -13.8249   14.7905 O   0  0  0  0  0  0  0  0  0  0  0  0
    8.0237  -14.2346   16.1071 C   0  0  0  0  0  0  0  0  0  0  0  0
    8.7093  -13.4145   16.9871 C   0  0  0  0  0  0  0  0  0  0  0  0
    8.8951  -13.7983   18.2859 C   0  0  0  0  0  0  0  0  0  0  0  0
    8.3996  -15.0012   18.7170 C   0  0  0  0  0  0  0  0  0  0  0  0
    8.6279  -15.3876   20.1540 C   0  0  0  0  0  0  0  0  0  0  0  0
    9.4167  -14.2266   20.7750 C   0  0  2  0  0  0  0  0  0  0  0  0
   10.8021  -14.3412   20.3919 N   0  0  0  0  0  0  0  0  0  0  0  0
    9.3387  -14.4311   22.2700 C   0  0  0  0  0  0  0  0  0  0  0  0
   10.4316  -14.5747   22.8609 O   0  0  0  0  0  0  0  0  0  0  0  0
    7.7194  -15.8120   17.8389 C   0  0  0  0  0  0  0  0  0  0  0  0
    7.5271  -15.4367   16.5330 C   0  0  0  0  0  0  0  0  0  0  0  0
    7.5458  -11.4520   27.4282 C   0  0  0  0  0  0  0  0  0  0  0  0
    6.0171  -12.2183   26.7942 S   0  0  0  0  0  0  0  0  0  0  0  0
    6.3738  -13.9354   26.2803 C   0  0  0  0  0  0  0  0  0  0  0  0
    6.5313  -13.9813   24.7856 C   0  0  0  0  0  0  0  0  0  0  0  0
    7.8805  -14.4909   24.3349 C   0  0  2  0  0  0  0  0  0  0  0  0
    8.0894  -14.4523   22.9256 N   0  0  0  0  0  0  0  0  0  0  0  0
    8.3513  -15.6899   25.0006 C   0  0  0  0  0  0  0  0  0  0  0  0
    8.3120  -15.9376   26.2146 O   0  0  0  0  0  0  0  0  0  0  0  0
    8.9354  -16.7278   24.1830 N   0  0  0  0  0  0  0  0  0  0  0  0
    9.5132  -17.9043   24.7278 C   0  0  1  0  0  0  0  0  0  0  0  0
   10.4623  -18.6383   23.8631 C   0  0  0  0  0  0  0  0  0  0  0  0
    9.7895  -19.3487   22.7524 C   0  0  0  0  0  0  0  0  0  0  0  0
   10.3060  -20.2997   22.1256 O   0  0  0  0  0  0  0  0  0  0  0  0
   10.2044  -17.5881   26.0279 C   0  0  0  0  0  0  0  0  0  0  0  0
   10.6509  -16.2966   26.2949 O   0  0  0  0  0  0  0  0  0  0  0  0
    8.5197  -18.9434   22.3823 O   0  0  0  0  0  0  0  0  0  0  0  0
   10.3723  -18.5081   26.8688 O   0  0  0  0  0  0  0  0  0  0  0  0
  2  1  1  0
  3  2  2  0
  4  3  1  0
  5 11  1  0
  5  4  2  0
  6  5  1  0
  7  9  1  0
  7  6  1  0
  7  8  1  6
  9 10  2  0
 11 12  2  0
 12  2  1  0
 14 15  1  0
 14 13  1  0
 17 16  1  6
 16 15  1  0
 18 17  1  0
 18  9  1  0
 19 17  1  0
 20 19  2  0
 21 19  1  0
 22 23  1  6
 22 21  1  0
 23 24  1  0
 24 25  2  0
 24 28  1  0
 26 27  1  0
 26 22  1  0
 29 26  2  0
M  END
$$$$
