YMD.pdb
     RDKit          3D

 29 29  0  0  1  0  0  0  0  0999 V2000
    7.3840  -12.4692   16.5780 O   0  0  0  0  0  0  0  0  0  0  0  0
    7.4494  -13.1547   17.7858 C   0  0  0  0  0  0  0  0  0  0  0  0
    7.8346  -12.4784   18.9308 C   0  0  0  0  0  0  0  0  0  0  0  0
    7.9053  -13.1336   20.1286 C   0  0  0  0  0  0  0  0  0  0  0  0
    7.5929  -14.4664   20.1940 C   0  0  0  0  0  0  0  0  0  0  0  0
    7.6859  -15.1512   21.5315 C   0  0  0  0  0  0  0  0  0  0  0  0
    9.1667  -15.5135   21.7095 C   0  0  2  0  0  0  0  0  0  0  0  0
    9.5360  -16.4869   20.7119 N   0  0  0  0  0  0  0  0  0  0  0  0
    9.2653  -16.1845   23.0597 C   0  0  0  0  0  0  0  0  0  0  0  0
   10.1578  -17.0529   23.1758 O   0  0  0  0  0  0  0  0  0  0  0  0
    7.2109  -15.1334   19.0538 C   0  0  0  0  0  0  0  0  0  0  0  0
    7.1365  -14.4857   17.8463 C   0  0  0  0  0  0  0  0  0  0  0  0
    6.3496  -11.4118   26.3032 C   0  0  0  0  0  0  0  0  0  0  0  0
    6.7922  -12.4684   27.7222 S   0  0  0  0  0  0  0  0  0  0  0  0
    8.0857  -13.6532   27.2092 C   0  0  0  0  0  0  0  0  0  0  0  0
    7.7439  -14.2004   25.8509 C   0  0  0  0  0  0  0  0  0  0  0  0
    8.7497  -15.2013   25.3316 C   0  0  2  0  0  0  0  0  0  0  0  0
    8.3858  -15.8261   24.1034 N   0  0  0  0  0  0  0  0  0  0  0  0
    9.3304  -16.0801   26.3280 C   0  0  0  0  0  0  0  0  0  0  0  0
    9.6775  -15.7813   27.4799 O   0  0  0  0  0  0  0  0  0  0  0  0
    9.5387  -17.4630   25.9656 N   0  0  0  0  0  0  0  0  0  0  0  0
   10.4576  -18.3069   26.6427 C   0  0  1  0  0  0  0  0  0  0  0  0
   11.8903  -18.1095   26.3336 C   0  0  0  0  0  0  0  0  0  0  0  0
   12.6161  -19.3868   26.1532 C   0  0  0  0  0  0  0  0  0  0  0  0
   12.0925  -20.5100   26.3221 O   0  0  0  0  0  0  0  0  0  0  0  0
   10.2732  -18.1843   28.1323 C   0  0  0  0  0  0  0  0  0  0  0  0
   10.9959  -18.9957   29.0029 O   0  0  0  0  0  0  0  0  0  0  0  0
   13.9466  -19.3430   25.7773 O   0  0  0  0  0  0  0  0  0  0  0  0
    9.4567  -17.3380   28.5780 O   0  0  0  0  0  0  0  0  0  0  0  0
  2  1  1  0
  3  2  2  0
  4  3  1  0
  5 11  1  0
  5  4  2  0
  6  5  1  0
  7  9  1  0
  7  6  1  0
  7  8  1  6
  9 10  2  0
 11 12  2  0
 12  2  1  0
 14 15  1  0
 14 13  1  0
 17 16  1  1
 16 15  1  0
 18 17  1  0
 18  9  1  0
 19 17  1  0
 20 19  2  0
 21 19  1  0
 22 23  1  1
 22 21  1  0
 23 24  1  0
 24 25  2  0
 24 28  1  0
 26 27  1  0
 26 22  1  0
 29 26  2  0
M  END
$$$$
