YMD.pdb
     RDKit          3D

 29 29  0  0  1  0  0  0  0  0999 V2000
    7.6077  -23.8919   29.4686 O   0  0  0  0  0  0  0  0  0  0  0  0
    7.7052  -22.8367   28.5686 C   0  0  0  0  0  0  0  0  0  0  0  0
    7.2793  -21.5760   28.9510 C   0  0  0  0  0  0  0  0  0  0  0  0
    7.3664  -20.5248   28.0814 C   0  0  0  0  0  0  0  0  0  0  0  0
    7.8783  -20.7219   26.8254 C   0  0  0  0  0  0  0  0  0  0  0  0
    7.9547  -19.5388   25.8977 C   0  0  0  0  0  0  0  0  0  0  0  0
    6.5162  -19.2902   25.4237 C   0  0  2  0  0  0  0  0  0  0  0  0
    6.1726  -20.2743   24.4273 N   0  0  0  0  0  0  0  0  0  0  0  0
    6.5357  -17.9409   24.7440 C   0  0  0  0  0  0  0  0  0  0  0  0
    6.5547  -17.9578   23.4936 O   0  0  0  0  0  0  0  0  0  0  0  0
    8.2999  -21.9760   26.4507 C   0  0  0  0  0  0  0  0  0  0  0  0
    8.2170  -23.0383   27.3154 C   0  0  0  0  0  0  0  0  0  0  0  0
    6.8773  -10.0508   26.0215 C   0  0  0  0  0  0  0  0  0  0  0  0
    6.3738  -11.6933   26.6337 S   0  0  0  0  0  0  0  0  0  0  0  0
    6.9494  -12.9735   25.4633 C   0  0  0  0  0  0  0  0  0  0  0  0
    6.5676  -14.3300   25.9877 C   0  0  0  0  0  0  0  0  0  0  0  0
    6.9300  -15.4628   25.0556 C   0  0  2  0  0  0  0  0  0  0  0  0
    6.5316  -16.7543   25.5077 N   0  0  0  0  0  0  0  0  0  0  0  0
    8.2533  -15.3908   24.4675 C   0  0  0  0  0  0  0  0  0  0  0  0
    8.8396  -14.3762   24.0631 O   0  0  0  0  0  0  0  0  0  0  0  0
    8.9939  -16.6230   24.3249 N   0  0  0  0  0  0  0  0  0  0  0  0
   10.2637  -16.6902   23.6941 C   0  0  1  0  0  0  0  0  0  0  0  0
   10.5951  -15.5979   22.7537 C   0  0  0  0  0  0  0  0  0  0  0  0
   11.9492  -15.7371   22.1724 C   0  0  0  0  0  0  0  0  0  0  0  0
   12.7015  -16.7109   22.3961 O   0  0  0  0  0  0  0  0  0  0  0  0
   11.3536  -16.7699   24.7304 C   0  0  0  0  0  0  0  0  0  0  0  0
   11.6506  -15.6692   25.5296 O   0  0  0  0  0  0  0  0  0  0  0  0
   12.4142  -14.7390   21.3351 O   0  0  0  0  0  0  0  0  0  0  0  0
   11.9915  -17.8456   24.8628 O   0  0  0  0  0  0  0  0  0  0  0  0
  2  1  1  0
  3  2  2  0
  4  3  1  0
  5 11  1  0
  5  4  2  0
  6  5  1  0
  7  9  1  0
  7  6  1  0
  7  8  1  6
  9 10  2  0
 11 12  2  0
 12  2  1  0
 14 15  1  0
 14 13  1  0
 17 16  1  1
 16 15  1  0
 18 17  1  0
 18  9  1  0
 19 17  1  0
 20 19  2  0
 21 19  1  0
 22 23  1  1
 22 21  1  0
 23 24  1  0
 24 25  2  0
 24 28  1  0
 26 27  1  0
 26 22  1  0
 29 26  2  0
M  END
$$$$
