YMD.pdb
     RDKit          3D

 29 29  0  0  1  0  0  0  0  0999 V2000
    6.5130  -13.4673   16.4071 O   0  0  0  0  0  0  0  0  0  0  0  0
    7.4382  -13.7960   17.3914 C   0  0  0  0  0  0  0  0  0  0  0  0
    7.5126  -13.0247   18.5387 C   0  0  0  0  0  0  0  0  0  0  0  0
    8.4151  -13.3308   19.5188 C   0  0  0  0  0  0  0  0  0  0  0  0
    9.2495  -14.4068   19.3629 C   0  0  0  0  0  0  0  0  0  0  0  0
   10.2305  -14.7082   20.4643 C   0  0  0  0  0  0  0  0  0  0  0  0
    9.6943  -15.9644   21.1646 C   0  0  2  0  0  0  0  0  0  0  0  0
    8.3542  -16.2256   20.7008 N   0  0  0  0  0  0  0  0  0  0  0  0
    9.6085  -15.6113   22.6312 C   0  0  0  0  0  0  0  0  0  0  0  0
   10.6950  -15.3656   23.1998 O   0  0  0  0  0  0  0  0  0  0  0  0
    9.1716  -15.1696   18.2214 C   0  0  0  0  0  0  0  0  0  0  0  0
    8.2694  -14.8715   17.2312 C   0  0  0  0  0  0  0  0  0  0  0  0
    7.6623  -11.3376   27.2359 C   0  0  0  0  0  0  0  0  0  0  0  0
    6.2705  -12.3759   26.6783 S   0  0  0  0  0  0  0  0  0  0  0  0
    6.8543  -14.0928   26.4519 C   0  0  0  0  0  0  0  0  0  0  0  0
    7.0255  -14.3670   24.9834 C   0  0  0  0  0  0  0  0  0  0  0  0
    8.1460  -15.3328   24.6750 C   0  0  2  0  0  0  0  0  0  0  0  0
    8.3593  -15.5709   23.2861 N   0  0  0  0  0  0  0  0  0  0  0  0
    8.2128  -16.5060   25.5243 C   0  0  0  0  0  0  0  0  0  0  0  0
    7.2758  -17.2488   25.8516 O   0  0  0  0  0  0  0  0  0  0  0  0
    9.5019  -16.8740   26.0629 N   0  0  0  0  0  0  0  0  0  0  0  0
    9.7360  -18.1060   26.7278 C   0  0  1  0  0  0  0  0  0  0  0  0
   10.6884  -19.0362   26.0836 C   0  0  0  0  0  0  0  0  0  0  0  0
   10.8852  -20.2800   26.8614 C   0  0  0  0  0  0  0  0  0  0  0  0
   10.1796  -20.6015   27.8427 O   0  0  0  0  0  0  0  0  0  0  0  0
   10.2007  -17.8538   28.1379 C   0  0  0  0  0  0  0  0  0  0  0  0
   11.1327  -16.8551   28.4068 O   0  0  0  0  0  0  0  0  0  0  0  0
   11.9037  -21.1383   26.4878 O   0  0  0  0  0  0  0  0  0  0  0  0
    9.7342  -18.5590   29.0689 O   0  0  0  0  0  0  0  0  0  0  0  0
  2  1  1  0
  3  2  2  0
  4  3  1  0
  5 11  1  0
  5  4  2  0
  6  5  1  0
  7  9  1  0
  7  6  1  0
  7  8  1  6
  9 10  2  0
 11 12  2  0
 12  2  1  0
 14 15  1  0
 14 13  1  0
 17 16  1  6
 16 15  1  0
 18 17  1  0
 18  9  1  0
 19 17  1  0
 20 19  2  0
 21 19  1  0
 22 23  1  6
 22 21  1  0
 23 24  1  0
 24 25  2  0
 24 28  1  0
 26 27  1  0
 26 22  1  0
 29 26  2  0
M  END
$$$$
