YMD.pdb
     RDKit          3D

 29 29  0  0  1  0  0  0  0  0999 V2000
    7.7874  -13.4060   15.3161 O   0  0  0  0  0  0  0  0  0  0  0  0
    7.7768  -13.8464   16.6348 C   0  0  0  0  0  0  0  0  0  0  0  0
    7.5298  -15.1820   16.9032 C   0  0  0  0  0  0  0  0  0  0  0  0
    7.5151  -15.6356   18.1927 C   0  0  0  0  0  0  0  0  0  0  0  0
    7.7461  -14.7624   19.2234 C   0  0  0  0  0  0  0  0  0  0  0  0
    7.7187  -15.3017   20.6287 C   0  0  0  0  0  0  0  0  0  0  0  0
    9.1424  -15.1167   21.1714 C   0  0  2  0  0  0  0  0  0  0  0  0
   10.0495  -15.9289   20.3989 N   0  0  0  0  0  0  0  0  0  0  0  0
    9.1203  -15.6693   22.5775 C   0  0  0  0  0  0  0  0  0  0  0  0
   10.0498  -16.4523   22.8729 O   0  0  0  0  0  0  0  0  0  0  0  0
    7.9910  -13.4368   18.9514 C   0  0  0  0  0  0  0  0  0  0  0  0
    8.0081  -12.9706   17.6609 C   0  0  0  0  0  0  0  0  0  0  0  0
    6.2617  -11.0499   28.3612 C   0  0  0  0  0  0  0  0  0  0  0  0
    6.0435  -11.8149   26.7201 S   0  0  0  0  0  0  0  0  0  0  0  0
    7.4128  -12.9864   26.4162 C   0  0  0  0  0  0  0  0  0  0  0  0
    7.2481  -13.5958   25.0514 C   0  0  0  0  0  0  0  0  0  0  0  0
    8.2747  -14.6585   24.7355 C   0  0  2  0  0  0  0  0  0  0  0  0
    8.0964  -15.3007   23.4758 N   0  0  0  0  0  0  0  0  0  0  0  0
    8.6277  -15.5347   25.8355 C   0  0  0  0  0  0  0  0  0  0  0  0
    8.7600  -15.2242   27.0284 O   0  0  0  0  0  0  0  0  0  0  0  0
    8.8562  -16.9297   25.5376 N   0  0  0  0  0  0  0  0  0  0  0  0
    9.1357  -17.8958   26.5393 C   0  0  1  0  0  0  0  0  0  0  0  0
    9.1146  -19.3131   26.1173 C   0  0  0  0  0  0  0  0  0  0  0  0
   10.2251  -19.6513   25.1989 C   0  0  0  0  0  0  0  0  0  0  0  0
   10.8150  -20.7541   25.2031 O   0  0  0  0  0  0  0  0  0  0  0  0
   10.4706  -17.6111   27.1758 C   0  0  0  0  0  0  0  0  0  0  0  0
   10.8468  -18.2599   28.3489 O   0  0  0  0  0  0  0  0  0  0  0  0
   10.6379  -18.7000   24.2834 O   0  0  0  0  0  0  0  0  0  0  0  0
   11.2403  -16.7785   26.6319 O   0  0  0  0  0  0  0  0  0  0  0  0
  2  1  1  0
  3  2  2  0
  4  3  1  0
  5 11  1  0
  5  4  2  0
  6  5  1  0
  7  9  1  0
  7  6  1  0
  7  8  1  6
  9 10  2  0
 11 12  2  0
 12  2  1  0
 14 15  1  0
 14 13  1  0
 17 16  1  1
 16 15  1  0
 18 17  1  0
 18  9  1  0
 19 17  1  0
 20 19  2  0
 21 19  1  0
 22 23  1  6
 22 21  1  0
 23 24  1  0
 24 25  2  0
 24 28  1  0
 26 27  1  0
 26 22  1  0
 29 26  2  0
M  END
$$$$
