YMD.pdb
     RDKit          3D

 29 29  0  0  1  0  0  0  0  0999 V2000
    8.9044  -12.1045   16.4516 O   0  0  0  0  0  0  0  0  0  0  0  0
    8.6386  -12.8388   17.6018 C   0  0  0  0  0  0  0  0  0  0  0  0
    9.6920  -13.2834   18.3826 C   0  0  0  0  0  0  0  0  0  0  0  0
    9.4526  -14.0069   19.5175 C   0  0  0  0  0  0  0  0  0  0  0  0
    8.1628  -14.2925   19.8824 C   0  0  0  0  0  0  0  0  0  0  0  0
    7.9425  -15.0938   21.1377 C   0  0  0  0  0  0  0  0  0  0  0  0
    9.3427  -15.4762   21.6364 C   0  0  2  0  0  0  0  0  0  0  0  0
    9.9514  -16.3742   20.6863 N   0  0  0  0  0  0  0  0  0  0  0  0
    9.1255  -16.2470   22.9177 C   0  0  0  0  0  0  0  0  0  0  0  0
    9.8244  -17.2737   23.0643 O   0  0  0  0  0  0  0  0  0  0  0  0
    7.1202  -13.8486   19.1034 C   0  0  0  0  0  0  0  0  0  0  0  0
    7.3489  -13.1217   17.9622 C   0  0  0  0  0  0  0  0  0  0  0  0
    6.0135  -11.5354   28.1964 C   0  0  0  0  0  0  0  0  0  0  0  0
    6.8839  -11.5896   26.5947 S   0  0  0  0  0  0  0  0  0  0  0  0
    7.9178  -13.0949   26.5231 C   0  0  0  0  0  0  0  0  0  0  0  0
    7.7128  -13.7725   25.1965 C   0  0  0  0  0  0  0  0  0  0  0  0
    8.4680  -15.0741   25.0591 C   0  0  2  0  0  0  0  0  0  0  0  0
    8.1820  -15.8038   23.8687 N   0  0  0  0  0  0  0  0  0  0  0  0
    8.5690  -15.8699   26.2669 C   0  0  0  0  0  0  0  0  0  0  0  0
    8.7462  -15.4586   27.4229 O   0  0  0  0  0  0  0  0  0  0  0  0
    8.4539  -17.3043   26.1389 N   0  0  0  0  0  0  0  0  0  0  0  0
    9.5361  -18.1892   26.3853 C   0  0  1  0  0  0  0  0  0  0  0  0
   10.5950  -18.2444   25.3544 C   0  0  0  0  0  0  0  0  0  0  0  0
   11.7053  -19.1503   25.7251 C   0  0  0  0  0  0  0  0  0  0  0  0
   11.7192  -20.3724   25.4597 O   0  0  0  0  0  0  0  0  0  0  0  0
   10.1794  -17.8655   27.7080 C   0  0  0  0  0  0  0  0  0  0  0  0
   10.6977  -16.5961   27.9498 O   0  0  0  0  0  0  0  0  0  0  0  0
   12.7898  -18.6228   26.4026 O   0  0  0  0  0  0  0  0  0  0  0  0
   10.2414  -18.7590   28.5908 O   0  0  0  0  0  0  0  0  0  0  0  0
  2  1  1  0
  3  2  2  0
  4  3  1  0
  5 11  1  0
  5  4  2  0
  6  5  1  0
  7  9  1  0
  7  6  1  0
  7  8  1  6
  9 10  2  0
 11 12  2  0
 12  2  1  0
 14 15  1  0
 14 13  1  0
 17 16  1  1
 16 15  1  0
 18 17  1  0
 18  9  1  0
 19 17  1  0
 20 19  2  0
 21 19  1  0
 22 23  1  6
 22 21  1  0
 23 24  1  0
 24 25  2  0
 24 28  1  0
 26 27  1  0
 26 22  1  0
 29 26  2  0
M  END
$$$$
