YMD.pdb
     RDKit          3D

 29 29  0  0  1  0  0  0  0  0999 V2000
    5.8807  -12.7416   18.1747 O   0  0  0  0  0  0  0  0  0  0  0  0
    7.0524  -13.3701   18.5809 C   0  0  0  0  0  0  0  0  0  0  0  0
    7.3978  -14.5894   18.0233 C   0  0  0  0  0  0  0  0  0  0  0  0
    8.5456  -15.2241   18.4086 C   0  0  0  0  0  0  0  0  0  0  0  0
    9.3570  -14.6490   19.3516 C   0  0  0  0  0  0  0  0  0  0  0  0
   10.6104  -15.3817   19.7499 C   0  0  0  0  0  0  0  0  0  0  0  0
   10.1653  -16.4421   20.7664 C   0  0  2  0  0  0  0  0  0  0  0  0
    8.7766  -16.7576   20.5395 N   0  0  0  0  0  0  0  0  0  0  0  0
   10.2670  -15.7801   22.1208 C   0  0  0  0  0  0  0  0  0  0  0  0
   11.4031  -15.3710   22.4464 O   0  0  0  0  0  0  0  0  0  0  0  0
    9.0093  -13.4379   19.9022 C   0  0  0  0  0  0  0  0  0  0  0  0
    7.8595  -12.7919   19.5229 C   0  0  0  0  0  0  0  0  0  0  0  0
    6.9266  -11.9478   28.1101 C   0  0  0  0  0  0  0  0  0  0  0  0
    6.7542  -12.6250   26.4256 S   0  0  0  0  0  0  0  0  0  0  0  0
    8.1220  -13.7937   26.1046 C   0  0  0  0  0  0  0  0  0  0  0  0
    8.0298  -14.2848   24.6863 C   0  0  0  0  0  0  0  0  0  0  0  0
    9.1183  -15.2643   24.3135 C   0  0  2  0  0  0  0  0  0  0  0  0
    9.1265  -15.6489   22.9412 N   0  0  0  0  0  0  0  0  0  0  0  0
    9.3462  -16.3377   25.2613 C   0  0  0  0  0  0  0  0  0  0  0  0
    8.6294  -17.3301   25.4564 O   0  0  0  0  0  0  0  0  0  0  0  0
   10.5329  -16.2692   26.0824 N   0  0  0  0  0  0  0  0  0  0  0  0
   10.8990  -17.2934   26.9944 C   0  0  1  0  0  0  0  0  0  0  0  0
    9.8543  -17.7436   27.9395 C   0  0  0  0  0  0  0  0  0  0  0  0
   10.3527  -18.7507   28.9030 C   0  0  0  0  0  0  0  0  0  0  0  0
   11.4381  -18.6448   29.5153 O   0  0  0  0  0  0  0  0  0  0  0  0
   11.4100  -18.4959   26.2454 C   0  0  0  0  0  0  0  0  0  0  0  0
   11.9889  -19.5611   26.9300 O   0  0  0  0  0  0  0  0  0  0  0  0
    9.5806  -19.8729   29.1438 O   0  0  0  0  0  0  0  0  0  0  0  0
   11.3060  -18.5233   24.9924 O   0  0  0  0  0  0  0  0  0  0  0  0
  2  1  1  0
  3  2  2  0
  4  3  1  0
  5 11  1  0
  5  4  2  0
  6  5  1  0
  7  9  1  0
  7  6  1  0
  7  8  1  6
  9 10  2  0
 11 12  2  0
 12  2  1  0
 14 15  1  0
 14 13  1  0
 17 16  1  1
 16 15  1  0
 18 17  1  0
 18  9  1  0
 19 17  1  0
 20 19  2  0
 21 19  1  0
 22 23  1  6
 22 21  1  0
 23 24  1  0
 24 25  2  0
 24 28  1  0
 26 27  1  0
 26 22  1  0
 29 26  2  0
M  END
$$$$
