YMD.pdb
     RDKit          3D

 29 29  0  0  1  0  0  0  0  0999 V2000
    6.3587  -24.1829   29.1969 O   0  0  0  0  0  0  0  0  0  0  0  0
    6.7097  -23.1278   28.3625 C   0  0  0  0  0  0  0  0  0  0  0  0
    6.4644  -21.8278   28.7711 C   0  0  0  0  0  0  0  0  0  0  0  0
    6.8019  -20.7760   27.9658 C   0  0  0  0  0  0  0  0  0  0  0  0
    7.3858  -21.0115   26.7485 C   0  0  0  0  0  0  0  0  0  0  0  0
    7.7398  -19.8257   25.8911 C   0  0  0  0  0  0  0  0  0  0  0  0
    6.4396  -19.4254   25.1804 C   0  0  2  0  0  0  0  0  0  0  0  0
    6.1465  -20.3951   24.1543 N   0  0  0  0  0  0  0  0  0  0  0  0
    6.7346  -18.1114   24.4952 C   0  0  0  0  0  0  0  0  0  0  0  0
    7.2029  -18.1902   23.3382 O   0  0  0  0  0  0  0  0  0  0  0  0
    7.6273  -22.3045   26.3475 C   0  0  0  0  0  0  0  0  0  0  0  0
    7.2926  -23.3679   27.1477 C   0  0  0  0  0  0  0  0  0  0  0  0
    7.5125  -10.3027   26.0057 C   0  0  0  0  0  0  0  0  0  0  0  0
    6.6083  -11.8482   26.3518 S   0  0  0  0  0  0  0  0  0  0  0  0
    7.5022  -13.2503   25.5935 C   0  0  0  0  0  0  0  0  0  0  0  0
    6.6988  -14.5076   25.7802 C   0  0  0  0  0  0  0  0  0  0  0  0
    7.2652  -15.7017   25.0478 C   0  0  2  0  0  0  0  0  0  0  0  0
    6.4832  -16.8886   25.1529 N   0  0  0  0  0  0  0  0  0  0  0  0
    8.6980  -15.8886   25.1687 C   0  0  0  0  0  0  0  0  0  0  0  0
    9.3247  -16.2466   26.1766 O   0  0  0  0  0  0  0  0  0  0  0  0
    9.5101  -15.6370   24.0007 N   0  0  0  0  0  0  0  0  0  0  0  0
   10.8728  -16.0239   23.9119 C   0  0  1  0  0  0  0  0  0  0  0  0
   11.1835  -17.4342   24.2310 C   0  0  0  0  0  0  0  0  0  0  0  0
   12.1029  -17.5689   25.3831 C   0  0  0  0  0  0  0  0  0  0  0  0
   13.0884  -16.8227   25.5730 O   0  0  0  0  0  0  0  0  0  0  0  0
   11.4094  -15.7200   22.5379 C   0  0  0  0  0  0  0  0  0  0  0  0
   12.7771  -15.7790   22.2844 O   0  0  0  0  0  0  0  0  0  0  0  0
   11.8648  -18.5733   26.3040 O   0  0  0  0  0  0  0  0  0  0  0  0
   10.6033  -15.4121   21.6229 O   0  0  0  0  0  0  0  0  0  0  0  0
  2  1  1  0
  3  2  2  0
  4  3  1  0
  5 11  1  0
  5  4  2  0
  6  5  1  0
  7  9  1  0
  7  6  1  0
  7  8  1  6
  9 10  2  0
 11 12  2  0
 12  2  1  0
 14 15  1  0
 14 13  1  0
 17 16  1  1
 16 15  1  0
 18 17  1  0
 18  9  1  0
 19 17  1  0
 20 19  2  0
 21 19  1  0
 22 23  1  6
 22 21  1  0
 23 24  1  0
 24 25  2  0
 24 28  1  0
 26 27  1  0
 26 22  1  0
 29 26  2  0
M  END
$$$$
