YMD.pdb
     RDKit          3D

 29 29  0  0  1  0  0  0  0  0999 V2000
    7.1814  -14.2874   15.1850 O   0  0  0  0  0  0  0  0  0  0  0  0
    7.6598  -14.1242   16.4802 C   0  0  0  0  0  0  0  0  0  0  0  0
    8.8368  -14.7505   16.8537 C   0  0  0  0  0  0  0  0  0  0  0  0
    9.3246  -14.6029   18.1222 C   0  0  0  0  0  0  0  0  0  0  0  0
    8.6437  -13.8310   19.0270 C   0  0  0  0  0  0  0  0  0  0  0  0
    9.2134  -13.6963   20.4141 C   0  0  0  0  0  0  0  0  0  0  0  0
    9.1278  -15.0973   21.0350 C   0  0  2  0  0  0  0  0  0  0  0  0
    7.7813  -15.5932   20.8933 N   0  0  0  0  0  0  0  0  0  0  0  0
    9.3912  -14.9086   22.5108 C   0  0  0  0  0  0  0  0  0  0  0  0
   10.5163  -14.4533   22.8125 O   0  0  0  0  0  0  0  0  0  0  0  0
    7.4753  -13.2111   18.6509 C   0  0  0  0  0  0  0  0  0  0  0  0
    6.9764  -13.3523   17.3803 C   0  0  0  0  0  0  0  0  0  0  0  0
    6.0875  -11.8749   27.3858 C   0  0  0  0  0  0  0  0  0  0  0  0
    7.6444  -12.8236   27.3408 S   0  0  0  0  0  0  0  0  0  0  0  0
    7.2663  -14.5851   27.0344 C   0  0  0  0  0  0  0  0  0  0  0  0
    7.1527  -14.8157   25.5528 C   0  0  0  0  0  0  0  0  0  0  0  0
    8.4844  -15.0199   24.8686 C   0  0  2  0  0  0  0  0  0  0  0  0
    8.4023  -15.2370   23.4624 N   0  0  0  0  0  0  0  0  0  0  0  0
    9.4277  -15.8653   25.5741 C   0  0  0  0  0  0  0  0  0  0  0  0
   10.3745  -15.5000   26.2861 O   0  0  0  0  0  0  0  0  0  0  0  0
    9.2707  -17.2962   25.4519 N   0  0  0  0  0  0  0  0  0  0  0  0
   10.2212  -18.2215   25.9569 C   0  0  1  0  0  0  0  0  0  0  0  0
   11.6466  -17.8924   25.7396 C   0  0  0  0  0  0  0  0  0  0  0  0
   12.2316  -18.6210   24.5916 C   0  0  0  0  0  0  0  0  0  0  0  0
   11.5749  -19.3831   23.8485 O   0  0  0  0  0  0  0  0  0  0  0  0
   10.0040  -18.4349   27.4317 C   0  0  0  0  0  0  0  0  0  0  0  0
   10.7903  -19.3413   28.1380 O   0  0  0  0  0  0  0  0  0  0  0  0
   13.5777  -18.4542   24.3202 O   0  0  0  0  0  0  0  0  0  0  0  0
    9.1015  -17.7822   28.0159 O   0  0  0  0  0  0  0  0  0  0  0  0
  2  1  1  0
  3  2  2  0
  4  3  1  0
  5 11  1  0
  5  4  2  0
  6  5  1  0
  7  9  1  0
  7  6  1  0
  7  8  1  1
  9 10  2  0
 11 12  2  0
 12  2  1  0
 14 15  1  0
 14 13  1  0
 17 16  1  1
 16 15  1  0
 18 17  1  0
 18  9  1  0
 19 17  1  0
 20 19  2  0
 21 19  1  0
 22 23  1  1
 22 21  1  0
 23 24  1  0
 24 25  2  0
 24 28  1  0
 26 27  1  0
 26 22  1  0
 29 26  2  0
M  END
$$$$
