YMD.pdb
     RDKit          3D

 29 29  0  0  1  0  0  0  0  0999 V2000
    5.7957  -21.8915   18.6159 O   0  0  0  0  0  0  0  0  0  0  0  0
    6.3790  -20.9340   19.4381 C   0  0  0  0  0  0  0  0  0  0  0  0
    6.2881  -19.5961   19.0934 C   0  0  0  0  0  0  0  0  0  0  0  0
    6.8545  -18.6387   19.8879 C   0  0  0  0  0  0  0  0  0  0  0  0
    7.5151  -19.0070   21.0308 C   0  0  0  0  0  0  0  0  0  0  0  0
    8.1267  -17.9221   21.8766 C   0  0  0  0  0  0  0  0  0  0  0  0
    7.6974  -16.5991   21.2278 C   0  0  2  0  0  0  0  0  0  0  0  0
    8.2050  -16.5502   19.8790 N   0  0  0  0  0  0  0  0  0  0  0  0
    8.3906  -15.5120   22.0155 C   0  0  0  0  0  0  0  0  0  0  0  0
    8.4302  -14.3847   21.4753 O   0  0  0  0  0  0  0  0  0  0  0  0
    7.6025  -20.3371   21.3686 C   0  0  0  0  0  0  0  0  0  0  0  0
    7.0377  -21.3066   20.5784 C   0  0  0  0  0  0  0  0  0  0  0  0
    5.5234  -12.6338   27.2056 C   0  0  0  0  0  0  0  0  0  0  0  0
    6.9412  -12.3107   26.1050 S   0  0  0  0  0  0  0  0  0  0  0  0
    7.4025  -13.8581   25.2490 C   0  0  0  0  0  0  0  0  0  0  0  0
    8.6141  -13.6078   24.3944 C   0  0  0  0  0  0  0  0  0  0  0  0
    9.4771  -14.8321   24.1951 C   0  0  2  0  0  0  0  0  0  0  0  0
    8.9476  -15.7896   23.2819 N   0  0  0  0  0  0  0  0  0  0  0  0
   10.0706  -15.3823   25.3982 C   0  0  0  0  0  0  0  0  0  0  0  0
   10.5522  -14.7532   26.3516 O   0  0  0  0  0  0  0  0  0  0  0  0
   10.1194  -16.8204   25.5270 N   0  0  0  0  0  0  0  0  0  0  0  0
   11.2759  -17.5157   25.9672 C   0  0  1  0  0  0  0  0  0  0  0  0
   11.0510  -18.7971   26.6707 C   0  0  0  0  0  0  0  0  0  0  0  0
   10.5270  -18.6102   28.0424 C   0  0  0  0  0  0  0  0  0  0  0  0
    9.7680  -17.6722   28.3713 O   0  0  0  0  0  0  0  0  0  0  0  0
   12.2016  -17.7689   24.8066 C   0  0  0  0  0  0  0  0  0  0  0  0
   11.8156  -17.4399   23.5100 O   0  0  0  0  0  0  0  0  0  0  0  0
   10.8930  -19.5193   29.0187 O   0  0  0  0  0  0  0  0  0  0  0  0
   13.3286  -18.2820   25.0263 O   0  0  0  0  0  0  0  0  0  0  0  0
  2  1  1  0
  3  2  2  0
  4  3  1  0
  5 11  1  0
  5  4  2  0
  6  5  1  0
  7  9  1  0
  7  6  1  0
  7  8  1  6
  9 10  2  0
 11 12  2  0
 12  2  1  0
 14 15  1  0
 14 13  1  0
 17 16  1  1
 16 15  1  0
 18 17  1  0
 18  9  1  0
 19 17  1  0
 20 19  2  0
 21 19  1  0
 22 23  1  6
 22 21  1  0
 23 24  1  0
 24 25  2  0
 24 28  1  0
 26 27  1  0
 26 22  1  0
 29 26  2  0
M  END
$$$$
