YMD.pdb
     RDKit          3D

 29 29  0  0  1  0  0  0  0  0999 V2000
    7.2690  -14.3324   15.6849 O   0  0  0  0  0  0  0  0  0  0  0  0
    7.8496  -14.2471   16.9453 C   0  0  0  0  0  0  0  0  0  0  0  0
    7.3648  -13.3231   17.8554 C   0  0  0  0  0  0  0  0  0  0  0  0
    7.9213  -13.2230   19.1001 C   0  0  0  0  0  0  0  0  0  0  0  0
    8.9641  -14.0421   19.4466 C   0  0  0  0  0  0  0  0  0  0  0  0
    9.5501  -13.8981   20.8259 C   0  0  0  0  0  0  0  0  0  0  0  0
    9.2213  -15.2083   21.5546 C   0  0  2  0  0  0  0  0  0  0  0  0
    7.7949  -15.4175   21.5257 N   0  0  0  0  0  0  0  0  0  0  0  0
    9.6207  -14.9878   22.9950 C   0  0  0  0  0  0  0  0  0  0  0  0
   10.8455  -14.8534   23.2093 O   0  0  0  0  0  0  0  0  0  0  0  0
    9.4417  -14.9580   18.5389 C   0  0  0  0  0  0  0  0  0  0  0  0
    8.8907  -15.0671   17.2869 C   0  0  0  0  0  0  0  0  0  0  0  0
    6.7920  -11.6268   27.9760 C   0  0  0  0  0  0  0  0  0  0  0  0
    5.8127  -12.2599   26.5738 S   0  0  0  0  0  0  0  0  0  0  0  0
    6.6195  -13.7568   25.9043 C   0  0  0  0  0  0  0  0  0  0  0  0
    8.1112  -13.6095   26.0235 C   0  0  0  0  0  0  0  0  0  0  0  0
    8.8832  -14.7501   25.4020 C   0  0  2  0  0  0  0  0  0  0  0  0
    8.6419  -14.9418   24.0105 N   0  0  0  0  0  0  0  0  0  0  0  0
    8.9543  -15.9628   26.1935 C   0  0  0  0  0  0  0  0  0  0  0  0
    9.1305  -16.0497   27.4175 O   0  0  0  0  0  0  0  0  0  0  0  0
    8.8064  -17.2246   25.5056 N   0  0  0  0  0  0  0  0  0  0  0  0
    8.9234  -18.4780   26.1614 C   0  0  1  0  0  0  0  0  0  0  0  0
    8.3395  -19.6461   25.4672 C   0  0  0  0  0  0  0  0  0  0  0  0
    7.1738  -20.2111   26.1834 C   0  0  0  0  0  0  0  0  0  0  0  0
    6.9433  -20.0110   27.3962 O   0  0  0  0  0  0  0  0  0  0  0  0
   10.3700  -18.7761   26.4553 C   0  0  0  0  0  0  0  0  0  0  0  0
   11.3773  -17.9626   25.9435 O   0  0  0  0  0  0  0  0  0  0  0  0
    6.2868  -21.0046   25.4784 O   0  0  0  0  0  0  0  0  0  0  0  0
   10.6545  -19.7712   27.1699 O   0  0  0  0  0  0  0  0  0  0  0  0
  2  1  1  0
  3  2  2  0
  4  3  1  0
  5 11  1  0
  5  4  2  0
  6  5  1  0
  7  9  1  0
  7  6  1  0
  7  8  1  1
  9 10  2  0
 11 12  2  0
 12  2  1  0
 14 15  1  0
 14 13  1  0
 17 16  1  1
 16 15  1  0
 18 17  1  0
 18  9  1  0
 19 17  1  0
 20 19  2  0
 21 19  1  0
 22 23  1  6
 22 21  1  0
 23 24  1  0
 24 25  2  0
 24 28  1  0
 26 27  1  0
 26 22  1  0
 29 26  2  0
M  END
$$$$
