HQA.pdb
     RDKit          3D

 25 25  0  0  1  0  0  0  0  0999 V2000
    8.5849  -15.8226   20.4959 N   0  0  0  0  0  0  0  0  0  0  0  0
    7.7946  -14.7320   21.0323 C   0  0  1  0  0  0  0  0  0  0  0  0
    6.7052  -14.4194   20.0545 C   0  0  0  0  0  0  0  0  0  0  0  0
    7.3315  -14.1342   18.7376 C   0  0  0  0  0  0  0  0  0  0  0  0
    8.1522  -13.0868   18.3642 C   0  0  0  0  0  0  0  0  0  0  0  0
    8.4990  -13.2064   17.0726 N   0  0  0  0  0  0  0  0  0  0  0  0
    7.9181  -14.3041   16.6180 C   0  0  0  0  0  0  0  0  0  0  0  0
    7.1984  -14.8894   17.6174 N   0  0  0  0  0  0  0  0  0  0  0  0
    7.3084  -15.0013   22.3905 C   0  0  0  0  0  0  0  0  0  0  0  0
    6.4148  -14.2565   22.8641 O   0  0  0  0  0  0  0  0  0  0  0  0
    7.9426  -20.3570   25.6806 N   0  0  0  0  0  0  0  0  0  0  0  0
    7.4669  -19.4546   26.6562 C   0  0  0  0  0  0  0  0  0  0  0  0
    7.2171  -19.9559   27.8052 O   0  0  0  0  0  0  0  0  0  0  0  0
    7.2636  -18.0030   26.3770 C   0  0  0  0  0  0  0  0  0  0  0  0
    7.6598  -17.7543   24.9434 C   0  0  0  0  0  0  0  0  0  0  0  0
    7.4718  -16.3263   24.5223 C   0  0  2  0  0  0  0  0  0  0  0  0
    7.8350  -16.0786   23.1526 N   0  0  0  0  0  0  0  0  0  0  0  0
    8.2464  -15.4631   25.4274 C   0  0  0  0  0  0  0  0  0  0  0  0
    9.4873  -15.4480   25.3596 O   0  0  0  0  0  0  0  0  0  0  0  0
    7.3141  -12.7182   27.7233 C   0  0  0  0  0  0  0  0  0  0  0  0
    8.3201  -13.7299   27.1800 C   0  0  2  0  0  0  0  0  0  0  0  0
    7.5767  -14.6576   26.3666 N   0  0  0  0  0  0  0  0  0  0  0  0
    8.9591  -14.4151   28.3220 C   0  0  0  0  0  0  0  0  0  0  0  0
    8.7160  -15.6120   28.5461 O   0  0  0  0  0  0  0  0  0  0  0  0
    9.8393  -13.7438   29.1653 O   0  0  0  0  0  0  0  0  0  0  0  0
  2  1  1  6
  2  3  1  0
  2  9  1  0
  4  5  2  0
  4  3  1  0
  6  5  1  0
  7  8  2  0
  7  6  1  0
  8  4  1  0
  9 10  2  0
 11 12  1  0
 12 13  2  0
 12 14  1  0
 14 15  1  0
 16 15  1  1
 16 18  1  0
 17 16  1  0
 17  9  1  0
 18 19  2  0
 21 20  1  1
 21 23  1  0
 22 21  1  0
 22 18  1  0
 23 24  2  0
 23 25  1  0
M  END
$$$$
