HQA.pdb
     RDKit          3D

 25 25  0  0  1  0  0  0  0  0999 V2000
    8.3853  -17.0386   20.2489 N   0  0  0  0  0  0  0  0  0  0  0  0
    8.5194  -15.9628   21.2116 C   0  0  1  0  0  0  0  0  0  0  0  0
    7.4142  -14.9819   20.9731 C   0  0  0  0  0  0  0  0  0  0  0  0
    7.7549  -14.1832   19.7674 C   0  0  0  0  0  0  0  0  0  0  0  0
    8.8587  -14.2696   18.9402 C   0  0  0  0  0  0  0  0  0  0  0  0
    8.7765  -13.3561   17.9597 N   0  0  0  0  0  0  0  0  0  0  0  0
    7.6476  -12.6925   18.1450 C   0  0  0  0  0  0  0  0  0  0  0  0
    7.0048  -13.1798   19.2444 N   0  0  0  0  0  0  0  0  0  0  0  0
    8.5890  -16.4481   22.5949 C   0  0  0  0  0  0  0  0  0  0  0  0
    7.5656  -16.9777   23.0945 O   0  0  0  0  0  0  0  0  0  0  0  0
   12.3851  -19.0138   22.9312 N   0  0  0  0  0  0  0  0  0  0  0  0
   11.2556  -19.7371   23.3708 C   0  0  0  0  0  0  0  0  0  0  0  0
   11.0702  -20.8735   22.8159 O   0  0  0  0  0  0  0  0  0  0  0  0
   10.3272  -19.2189   24.4177 C   0  0  0  0  0  0  0  0  0  0  0  0
   10.8716  -17.8966   24.8964 C   0  0  0  0  0  0  0  0  0  0  0  0
    9.9039  -16.7640   24.7157 C   0  0  2  0  0  0  0  0  0  0  0  0
    9.7848  -16.3223   23.3518 N   0  0  0  0  0  0  0  0  0  0  0  0
   10.3144  -15.6512   25.5861 C   0  0  0  0  0  0  0  0  0  0  0  0
   11.4040  -15.0843   25.3964 O   0  0  0  0  0  0  0  0  0  0  0  0
    8.6860  -13.3403   27.8434 C   0  0  0  0  0  0  0  0  0  0  0  0
    9.9051  -14.2091   27.5441 C   0  0  2  0  0  0  0  0  0  0  0  0
    9.4692  -15.2341   26.6307 N   0  0  0  0  0  0  0  0  0  0  0  0
   10.3864  -14.7942   28.8121 C   0  0  0  0  0  0  0  0  0  0  0  0
   10.2302  -16.0051   29.0387 O   0  0  0  0  0  0  0  0  0  0  0  0
   11.0196  -14.0118   29.7731 O   0  0  0  0  0  0  0  0  0  0  0  0
  2  1  1  6
  2  3  1  0
  2  9  1  0
  4  5  2  0
  4  3  1  0
  6  5  1  0
  7  8  2  0
  7  6  1  0
  8  4  1  0
  9 10  2  0
 11 12  1  0
 12 13  2  0
 12 14  1  0
 14 15  1  0
 16 15  1  6
 16 18  1  0
 17 16  1  0
 17  9  1  0
 18 19  2  0
 21 20  1  1
 21 23  1  0
 22 21  1  0
 22 18  1  0
 23 24  2  0
 23 25  1  0
M  END
$$$$
