HQA.pdb
     RDKit          3D

 25 25  0  0  1  0  0  0  0  0999 V2000
    7.6365  -16.5052   20.3624 N   0  0  0  0  0  0  0  0  0  0  0  0
    8.2777  -15.5492   21.2439 C   0  0  1  0  0  0  0  0  0  0  0  0
    7.6054  -14.2240   21.0643 C   0  0  0  0  0  0  0  0  0  0  0  0
    7.7716  -13.8076   19.6476 C   0  0  0  0  0  0  0  0  0  0  0  0
    6.8141  -13.6281   18.6673 C   0  0  0  0  0  0  0  0  0  0  0  0
    7.3929  -13.2467   17.5174 N   0  0  0  0  0  0  0  0  0  0  0  0
    8.6940  -13.1800   17.7448 C   0  0  0  0  0  0  0  0  0  0  0  0
    8.9509  -13.5185   19.0405 N   0  0  0  0  0  0  0  0  0  0  0  0
    8.3186  -16.0056   22.6381 C   0  0  0  0  0  0  0  0  0  0  0  0
    7.2443  -16.3632   23.1816 O   0  0  0  0  0  0  0  0  0  0  0  0
   12.2690  -19.1641   23.1791 N   0  0  0  0  0  0  0  0  0  0  0  0
   10.9928  -19.7129   23.4288 C   0  0  0  0  0  0  0  0  0  0  0  0
   10.7518  -20.8393   22.8748 O   0  0  0  0  0  0  0  0  0  0  0  0
    9.9783  -19.0309   24.2844 C   0  0  0  0  0  0  0  0  0  0  0  0
   10.5919  -17.7475   24.7848 C   0  0  0  0  0  0  0  0  0  0  0  0
    9.6602  -16.5752   24.6881 C   0  0  2  0  0  0  0  0  0  0  0  0
    9.5436  -16.0423   23.3570 N   0  0  0  0  0  0  0  0  0  0  0  0
   10.1142  -15.5350   25.6241 C   0  0  0  0  0  0  0  0  0  0  0  0
   11.2342  -15.0159   25.4793 O   0  0  0  0  0  0  0  0  0  0  0  0
    8.5529  -13.3161   28.0396 C   0  0  0  0  0  0  0  0  0  0  0  0
    9.7496  -14.1816   27.6531 C   0  0  2  0  0  0  0  0  0  0  0  0
    9.2762  -15.1326   26.6802 N   0  0  0  0  0  0  0  0  0  0  0  0
   10.2471  -14.8622   28.8661 C   0  0  0  0  0  0  0  0  0  0  0  0
   10.0797  -16.0844   29.0079 O   0  0  0  0  0  0  0  0  0  0  0  0
   10.9082  -14.1585   29.8682 O   0  0  0  0  0  0  0  0  0  0  0  0
  2  1  1  6
  2  3  1  0
  2  9  1  0
  4  5  2  0
  4  3  1  0
  6  5  1  0
  7  8  2  0
  7  6  1  0
  8  4  1  0
  9 10  2  0
 11 12  1  0
 12 13  2  0
 12 14  1  0
 14 15  1  0
 16 15  1  6
 16 18  1  0
 17 16  1  0
 17  9  1  0
 18 19  2  0
 21 20  1  1
 21 23  1  0
 22 21  1  0
 22 18  1  0
 23 24  2  0
 23 25  1  0
M  END
$$$$
