HQA.pdb
     RDKit          3D

 25 25  0  0  1  0  0  0  0  0999 V2000
    9.2687  -15.9366   19.9931 N   0  0  0  0  0  0  0  0  0  0  0  0
    8.1960  -15.0691   20.4388 C   0  0  1  0  0  0  0  0  0  0  0  0
    7.0884  -15.1416   19.4346 C   0  0  0  0  0  0  0  0  0  0  0  0
    7.5955  -14.6053   18.1450 C   0  0  0  0  0  0  0  0  0  0  0  0
    8.8387  -14.0850   17.8387 C   0  0  0  0  0  0  0  0  0  0  0  0
    8.8804  -13.7103   16.5501 N   0  0  0  0  0  0  0  0  0  0  0  0
    7.6940  -13.9803   16.0319 C   0  0  0  0  0  0  0  0  0  0  0  0
    6.8904  -14.5284   16.9875 N   0  0  0  0  0  0  0  0  0  0  0  0
    7.7672  -15.3607   21.8118 C   0  0  0  0  0  0  0  0  0  0  0  0
    6.5430  -15.2897   22.0833 O   0  0  0  0  0  0  0  0  0  0  0  0
   10.6630  -18.9231   26.0703 N   0  0  0  0  0  0  0  0  0  0  0  0
    9.7316  -18.2253   26.8690 C   0  0  0  0  0  0  0  0  0  0  0  0
    9.6874  -18.5652   28.1004 O   0  0  0  0  0  0  0  0  0  0  0  0
    8.8473  -17.1549   26.3225 C   0  0  0  0  0  0  0  0  0  0  0  0
    9.1897  -16.9805   24.8643 C   0  0  0  0  0  0  0  0  0  0  0  0
    8.3614  -15.9268   24.1894 C   0  0  2  0  0  0  0  0  0  0  0  0
    8.7134  -15.7149   22.8108 N   0  0  0  0  0  0  0  0  0  0  0  0
    8.4805  -14.6745   24.9524 C   0  0  0  0  0  0  0  0  0  0  0  0
    9.5951  -14.1478   25.1103 O   0  0  0  0  0  0  0  0  0  0  0  0
    6.0504  -12.2741   26.3816 C   0  0  0  0  0  0  0  0  0  0  0  0
    7.4466  -12.8860   26.2989 C   0  0  2  0  0  0  0  0  0  0  0  0
    7.3296  -14.0789   25.5000 N   0  0  0  0  0  0  0  0  0  0  0  0
    7.9011  -13.2034   27.6681 C   0  0  0  0  0  0  0  0  0  0  0  0
    8.1041  -12.2902   28.4847 O   0  0  0  0  0  0  0  0  0  0  0  0
    8.1107  -14.5185   28.0719 O   0  0  0  0  0  0  0  0  0  0  0  0
  2  1  1  6
  2  3  1  0
  2  9  1  0
  4  5  2  0
  4  3  1  0
  6  5  1  0
  7  8  2  0
  7  6  1  0
  8  4  1  0
  9 10  2  0
 11 12  1  0
 12 13  2  0
 12 14  1  0
 14 15  1  0
 16 15  1  1
 16 18  1  0
 17 16  1  0
 17  9  1  0
 18 19  2  0
 21 20  1  1
 21 23  1  0
 22 21  1  0
 22 18  1  0
 23 24  2  0
 23 25  1  0
M  END
$$$$
