HQA.pdb
     RDKit          3D

 25 25  0  0  1  0  0  0  0  0999 V2000
    9.7265  -20.9862   16.0485 N   0  0  0  0  0  0  0  0  0  0  0  0
   10.2844  -19.7659   16.5975 C   0  0  1  0  0  0  0  0  0  0  0  0
    9.8399  -18.6220   15.7405 C   0  0  0  0  0  0  0  0  0  0  0  0
   10.4569  -18.7807   14.3982 C   0  0  0  0  0  0  0  0  0  0  0  0
   11.7922  -18.8000   14.0425 C   0  0  0  0  0  0  0  0  0  0  0  0
   11.9169  -18.9649   12.7159 N   0  0  0  0  0  0  0  0  0  0  0  0
   10.6932  -19.0505   12.2217 C   0  0  0  0  0  0  0  0  0  0  0  0
    9.7827  -18.9407   13.2308 N   0  0  0  0  0  0  0  0  0  0  0  0
    9.9722  -19.5924   18.0210 C   0  0  0  0  0  0  0  0  0  0  0  0
    8.7705  -19.4465   18.3558 O   0  0  0  0  0  0  0  0  0  0  0  0
   12.8502  -23.1873   20.9645 N   0  0  0  0  0  0  0  0  0  0  0  0
   11.4594  -23.0960   21.1877 C   0  0  0  0  0  0  0  0  0  0  0  0
   10.9440  -24.0334   21.8873 O   0  0  0  0  0  0  0  0  0  0  0  0
   10.6303  -21.9798   20.6465 C   0  0  0  0  0  0  0  0  0  0  0  0
   11.1922  -20.6896   21.1886 C   0  0  0  0  0  0  0  0  0  0  0  0
   10.7510  -19.4849   20.4103 C   0  0  2  0  0  0  0  0  0  0  0  0
   11.0038  -19.5892   18.9980 N   0  0  0  0  0  0  0  0  0  0  0  0
   11.4137  -18.2958   20.9682 C   0  0  0  0  0  0  0  0  0  0  0  0
   12.5440  -17.9698   20.5673 O   0  0  0  0  0  0  0  0  0  0  0  0
   10.3490  -15.6470   23.3489 C   0  0  0  0  0  0  0  0  0  0  0  0
   11.3895  -16.3457   22.4773 C   0  0  2  0  0  0  0  0  0  0  0  0
   10.7627  -17.5326   21.9547 N   0  0  0  0  0  0  0  0  0  0  0  0
   12.5549  -16.6845   23.3193 C   0  0  0  0  0  0  0  0  0  0  0  0
   12.7008  -17.8419   23.7448 O   0  0  0  0  0  0  0  0  0  0  0  0
   13.5073  -15.7261   23.6524 O   0  0  0  0  0  0  0  0  0  0  0  0
  2  1  1  6
  2  3  1  0
  2  9  1  0
  4  5  2  0
  4  3  1  0
  6  5  1  0
  7  8  2  0
  7  6  1  0
  8  4  1  0
  9 10  2  0
 11 12  1  0
 12 13  2  0
 12 14  1  0
 14 15  1  0
 16 15  1  1
 16 18  1  0
 17 16  1  0
 17  9  1  0
 18 19  2  0
 21 20  1  1
 21 23  1  0
 22 21  1  0
 22 18  1  0
 23 24  2  0
 23 25  1  0
M  END
$$$$
