HQA.pdb
     RDKit          3D

 25 25  0  0  1  0  0  0  0  0999 V2000
   10.0735  -16.0004   16.8960 N   0  0  0  0  0  0  0  0  0  0  0  0
   10.5240  -15.2289   18.0379 C   0  0  1  0  0  0  0  0  0  0  0  0
    9.4672  -15.2995   19.0957 C   0  0  0  0  0  0  0  0  0  0  0  0
    8.4562  -14.2481   18.8124 C   0  0  0  0  0  0  0  0  0  0  0  0
    8.4233  -13.3132   17.7952 C   0  0  0  0  0  0  0  0  0  0  0  0
    7.3278  -12.5449   17.9060 N   0  0  0  0  0  0  0  0  0  0  0  0
    6.6652  -12.9700   18.9687 C   0  0  0  0  0  0  0  0  0  0  0  0
    7.3352  -14.0110   19.5404 N   0  0  0  0  0  0  0  0  0  0  0  0
   11.8543  -15.6359   18.5053 C   0  0  0  0  0  0  0  0  0  0  0  0
   12.0989  -16.8627   18.6175 O   0  0  0  0  0  0  0  0  0  0  0  0
   17.2372  -12.7724   17.3585 N   0  0  0  0  0  0  0  0  0  0  0  0
   16.4773  -13.6367   16.5413 C   0  0  0  0  0  0  0  0  0  0  0  0
   16.8160  -13.6807   15.3095 O   0  0  0  0  0  0  0  0  0  0  0  0
   15.3462  -14.4539   17.0695 C   0  0  0  0  0  0  0  0  0  0  0  0
   15.2372  -14.1801   18.5484 C   0  0  0  0  0  0  0  0  0  0  0  0
   14.1822  -15.0079   19.2219 C   0  0  2  0  0  0  0  0  0  0  0  0
   12.8427  -14.6662   18.8237 N   0  0  0  0  0  0  0  0  0  0  0  0
   14.3388  -14.8752   20.6787 C   0  0  0  0  0  0  0  0  0  0  0  0
   14.3674  -13.7472   21.1995 O   0  0  0  0  0  0  0  0  0  0  0  0
   14.0220  -17.1937   23.5069 C   0  0  0  0  0  0  0  0  0  0  0  0
   14.5805  -15.9064   22.9056 C   0  0  2  0  0  0  0  0  0  0  0  0
   14.4556  -16.0286   21.4758 N   0  0  0  0  0  0  0  0  0  0  0  0
   15.9957  -15.7764   23.3083 C   0  0  0  0  0  0  0  0  0  0  0  0
   16.9000  -15.9809   22.4822 O   0  0  0  0  0  0  0  0  0  0  0  0
   16.3465  -15.4257   24.6085 O   0  0  0  0  0  0  0  0  0  0  0  0
  2  1  1  6
  2  3  1  0
  2  9  1  0
  4  5  2  0
  4  3  1  0
  6  5  1  0
  7  8  2  0
  7  6  1  0
  8  4  1  0
  9 10  2  0
 11 12  1  0
 12 13  2  0
 12 14  1  0
 14 15  1  0
 16 15  1  6
 16 18  1  0
 17 16  1  0
 17  9  1  0
 18 19  2  0
 21 20  1  1
 21 23  1  0
 22 21  1  0
 22 18  1  0
 23 24  2  0
 23 25  1  0
M  END
$$$$
