HQA.pdb
     RDKit          3D

 25 25  0  0  1  0  0  0  0  0999 V2000
    7.7073  -16.7832   19.8481 N   0  0  0  0  0  0  0  0  0  0  0  0
    7.9073  -15.6236   20.6951 C   0  0  1  0  0  0  0  0  0  0  0  0
    7.0523  -14.5111   20.1736 C   0  0  0  0  0  0  0  0  0  0  0  0
    7.6116  -14.0678   18.8704 C   0  0  0  0  0  0  0  0  0  0  0  0
    8.5050  -13.0486   18.5996 C   0  0  0  0  0  0  0  0  0  0  0  0
    8.7482  -12.9828   17.2809 N   0  0  0  0  0  0  0  0  0  0  0  0
    8.0310  -13.9353   16.7089 C   0  0  0  0  0  0  0  0  0  0  0  0
    7.3271  -14.6129   17.6601 N   0  0  0  0  0  0  0  0  0  0  0  0
    7.6899  -15.9179   22.1163 C   0  0  0  0  0  0  0  0  0  0  0  0
    6.5836  -16.4000   22.4644 O   0  0  0  0  0  0  0  0  0  0  0  0
   11.3833  -18.4499   26.2049 N   0  0  0  0  0  0  0  0  0  0  0  0
   10.4452  -17.8524   27.0740 C   0  0  0  0  0  0  0  0  0  0  0  0
   10.5894  -18.1154   28.3166 O   0  0  0  0  0  0  0  0  0  0  0  0
    9.3482  -16.9665   26.5859 C   0  0  0  0  0  0  0  0  0  0  0  0
    9.5225  -16.8026   25.0970 C   0  0  0  0  0  0  0  0  0  0  0  0
    8.5221  -15.8635   24.4893 C   0  0  2  0  0  0  0  0  0  0  0  0
    8.7058  -15.6639   23.0766 N   0  0  0  0  0  0  0  0  0  0  0  0
    8.5860  -14.5802   25.2059 C   0  0  0  0  0  0  0  0  0  0  0  0
    9.6405  -13.9223   25.2078 O   0  0  0  0  0  0  0  0  0  0  0  0
    6.0307  -12.4009   26.7554 C   0  0  0  0  0  0  0  0  0  0  0  0
    7.4825  -12.8131   26.5253 C   0  0  2  0  0  0  0  0  0  0  0  0
    7.4505  -14.1037   25.8864 N   0  0  0  0  0  0  0  0  0  0  0  0
    8.1632  -12.8827   27.8344 C   0  0  0  0  0  0  0  0  0  0  0  0
    8.4656  -13.9840   28.3218 O   0  0  0  0  0  0  0  0  0  0  0  0
    8.4789  -11.7289   28.5455 O   0  0  0  0  0  0  0  0  0  0  0  0
  2  1  1  6
  2  3  1  0
  2  9  1  0
  4  5  2  0
  4  3  1  0
  6  5  1  0
  7  8  2  0
  7  6  1  0
  8  4  1  0
  9 10  2  0
 11 12  1  0
 12 13  2  0
 12 14  1  0
 14 15  1  0
 16 15  1  1
 16 18  1  0
 17 16  1  0
 17  9  1  0
 18 19  2  0
 21 20  1  1
 21 23  1  0
 22 21  1  0
 22 18  1  0
 23 24  2  0
 23 25  1  0
M  END
$$$$
