HQA.pdb
     RDKit          3D

 25 25  0  0  1  0  0  0  0  0999 V2000
    4.9323  -20.0205   20.8982 N   0  0  0  0  0  0  0  0  0  0  0  0
    4.7927  -18.8913   21.7968 C   0  0  1  0  0  0  0  0  0  0  0  0
    3.6271  -19.1532   22.6987 C   0  0  0  0  0  0  0  0  0  0  0  0
    2.3988  -19.2108   21.8646 C   0  0  0  0  0  0  0  0  0  0  0  0
    2.2632  -19.1064   20.4932 C   0  0  0  0  0  0  0  0  0  0  0  0
    0.9707  -19.2114   20.1451 N   0  0  0  0  0  0  0  0  0  0  0  0
    0.2834  -19.3799   21.2624 C   0  0  0  0  0  0  0  0  0  0  0  0
    1.1344  -19.3831   22.3279 N   0  0  0  0  0  0  0  0  0  0  0  0
    6.0355  -18.5830   22.5139 C   0  0  0  0  0  0  0  0  0  0  0  0
    6.8013  -19.5310   22.8173 O   0  0  0  0  0  0  0  0  0  0  0  0
   10.0976  -16.0287   21.7822 N   0  0  0  0  0  0  0  0  0  0  0  0
   10.3561  -15.5131   23.0705 C   0  0  0  0  0  0  0  0  0  0  0  0
   11.5875  -15.4406   23.4057 O   0  0  0  0  0  0  0  0  0  0  0  0
    9.2688  -15.0761   23.9942 C   0  0  0  0  0  0  0  0  0  0  0  0
    7.9525  -15.4323   23.3503 C   0  0  0  0  0  0  0  0  0  0  0  0
    7.5913  -16.8793   23.5157 C   0  0  2  0  0  0  0  0  0  0  0  0
    6.3655  -17.2444   22.8573 N   0  0  0  0  0  0  0  0  0  0  0  0
    7.5176  -17.1844   24.9530 C   0  0  0  0  0  0  0  0  0  0  0  0
    6.7701  -16.5199   25.6909 O   0  0  0  0  0  0  0  0  0  0  0  0
    8.5123  -19.9658   27.1001 C   0  0  0  0  0  0  0  0  0  0  0  0
    8.3082  -18.4653   26.9063 C   0  0  2  0  0  0  0  0  0  0  0  0
    8.2952  -18.2290   25.4854 N   0  0  0  0  0  0  0  0  0  0  0  0
    9.4272  -17.7523   27.5554 C   0  0  0  0  0  0  0  0  0  0  0  0
    9.5754  -17.8148   28.7867 O   0  0  0  0  0  0  0  0  0  0  0  0
   10.3325  -17.0016   26.8116 O   0  0  0  0  0  0  0  0  0  0  0  0
  2  1  1  1
  2  3  1  0
  2  9  1  0
  4  5  2  0
  4  3  1  0
  6  5  1  0
  7  8  2  0
  7  6  1  0
  8  4  1  0
  9 10  2  0
 11 12  1  0
 12 13  2  0
 12 14  1  0
 14 15  1  0
 16 15  1  1
 16 18  1  0
 17 16  1  0
 17  9  1  0
 18 19  2  0
 21 20  1  6
 21 23  1  0
 22 21  1  0
 22 18  1  0
 23 24  2  0
 23 25  1  0
M  END
$$$$
