HQA.pdb
     RDKit          3D

 25 25  0  0  1  0  0  0  0  0999 V2000
    7.1133  -16.5029   19.9496 N   0  0  0  0  0  0  0  0  0  0  0  0
    7.3005  -15.3463   20.8034 C   0  0  1  0  0  0  0  0  0  0  0  0
    6.6619  -14.1667   20.1391 C   0  0  0  0  0  0  0  0  0  0  0  0
    7.4387  -13.8477   18.9133 C   0  0  0  0  0  0  0  0  0  0  0  0
    8.5610  -13.0547   18.7669 C   0  0  0  0  0  0  0  0  0  0  0  0
    8.9485  -13.0314   17.4816 N   0  0  0  0  0  0  0  0  0  0  0  0
    8.0992  -13.7904   16.8095 C   0  0  0  0  0  0  0  0  0  0  0  0
    7.1664  -14.3010   17.6630 N   0  0  0  0  0  0  0  0  0  0  0  0
    6.8325  -15.5753   22.1754 C   0  0  0  0  0  0  0  0  0  0  0  0
    5.6347  -15.3152   22.4495 O   0  0  0  0  0  0  0  0  0  0  0  0
    8.3402  -20.0414   26.1006 N   0  0  0  0  0  0  0  0  0  0  0  0
    7.7635  -19.1101   26.9908 C   0  0  0  0  0  0  0  0  0  0  0  0
    7.6164  -19.5082   28.1965 O   0  0  0  0  0  0  0  0  0  0  0  0
    7.3469  -17.7424   26.5641 C   0  0  0  0  0  0  0  0  0  0  0  0
    7.6494  -17.6116   25.0925 C   0  0  0  0  0  0  0  0  0  0  0  0
    7.3296  -16.2508   24.5468 C   0  0  2  0  0  0  0  0  0  0  0  0
    7.7123  -16.0792   23.1708 N   0  0  0  0  0  0  0  0  0  0  0  0
    7.9793  -15.2393   25.3948 C   0  0  0  0  0  0  0  0  0  0  0  0
    9.2194  -15.1814   25.4522 O   0  0  0  0  0  0  0  0  0  0  0  0
    6.7428  -12.3474   27.3603 C   0  0  0  0  0  0  0  0  0  0  0  0
    7.8211  -13.3605   26.9842 C   0  0  2  0  0  0  0  0  0  0  0  0
    7.1913  -14.3411   26.1376 N   0  0  0  0  0  0  0  0  0  0  0  0
    8.3368  -13.9779   28.2231 C   0  0  0  0  0  0  0  0  0  0  0  0
    8.9807  -13.2966   29.0376 O   0  0  0  0  0  0  0  0  0  0  0  0
    8.1165  -15.3227   28.5048 O   0  0  0  0  0  0  0  0  0  0  0  0
  2  1  1  6
  2  3  1  0
  2  9  1  0
  4  5  2  0
  4  3  1  0
  6  5  1  0
  7  8  2  0
  7  6  1  0
  8  4  1  0
  9 10  2  0
 11 12  1  0
 12 13  2  0
 12 14  1  0
 14 15  1  0
 16 15  1  1
 16 18  1  0
 17 16  1  0
 17  9  1  0
 18 19  2  0
 21 20  1  1
 21 23  1  0
 22 21  1  0
 22 18  1  0
 23 24  2  0
 23 25  1  0
M  END
$$$$
