YWL.pdb
     RDKit          3D

 35 37  0  0  1  0  0  0  0  0999 V2000
   30.8844  -35.1298   -6.2555 O   0  0  0  0  0  0  0  0  0  0  0  0
   29.6985  -34.4786   -6.5659 C   0  0  0  0  0  0  0  0  0  0  0  0
   29.5765  -33.7488   -7.7250 C   0  0  0  0  0  0  0  0  0  0  0  0
   28.3982  -33.1051   -8.0276 C   0  0  0  0  0  0  0  0  0  0  0  0
   27.2996  -33.1607   -7.1949 C   0  0  0  0  0  0  0  0  0  0  0  0
   26.0297  -32.4909   -7.4845 C   0  0  0  0  0  0  0  0  0  0  0  0
   25.2135  -33.1649   -8.5594 C   0  0  2  0  0  0  0  0  0  0  0  0
   25.4323  -32.5167   -9.8234 N   0  0  0  0  0  0  0  0  0  0  0  0
   23.7871  -33.1465   -8.1472 C   0  0  0  0  0  0  0  0  0  0  0  0
   23.0951  -32.1259   -8.3950 O   0  0  0  0  0  0  0  0  0  0  0  0
   27.4197  -33.8935   -6.0297 C   0  0  0  0  0  0  0  0  0  0  0  0
   28.6106  -34.5453   -5.7214 C   0  0  0  0  0  0  0  0  0  0  0  0
   23.1364  -34.2210   -7.4798 N   0  0  0  0  0  0  0  0  0  0  0  0
   21.7334  -34.2442   -7.1556 C   0  0  1  0  0  0  0  0  0  0  0  0
   20.9141  -35.2282   -7.9112 C   0  0  0  0  0  0  0  0  0  0  0  0
   19.4800  -35.2242   -7.6719 C   0  0  0  0  0  0  0  0  0  0  0  0
   18.6621  -34.1082   -7.7290 C   0  0  0  0  0  0  0  0  0  0  0  0
   17.3959  -34.4684   -7.4407 N   0  0  0  0  0  0  0  0  0  0  0  0
   17.3419  -35.8060   -7.1901 C   0  0  0  0  0  0  0  0  0  0  0  0
   16.2907  -36.6260   -6.8609 C   0  0  0  0  0  0  0  0  0  0  0  0
   16.5072  -37.9656   -6.6625 C   0  0  0  0  0  0  0  0  0  0  0  0
   17.7966  -38.4329   -6.8064 C   0  0  0  0  0  0  0  0  0  0  0  0
   18.8445  -37.6046   -7.1363 C   0  0  0  0  0  0  0  0  0  0  0  0
   18.6517  -36.2628   -7.3389 C   0  0  0  0  0  0  0  0  0  0  0  0
   21.5966  -34.3672   -5.6715 C   0  0  0  0  0  0  0  0  0  0  0  0
   22.3684  -35.1054   -5.0096 O   0  0  0  0  0  0  0  0  0  0  0  0
   18.1345  -32.1081   -0.9735 C   0  0  0  0  0  0  0  0  0  0  0  0
   19.4105  -32.7871   -1.4802 C   0  0  2  0  0  0  0  0  0  0  0  0
   20.6320  -32.2035   -0.8383 C   0  0  0  0  0  0  0  0  0  0  0  0
   19.4698  -32.7553   -2.9812 C   0  0  0  0  0  0  0  0  0  0  0  0
   20.4210  -33.7582   -3.5001 C   0  0  2  0  0  0  0  0  0  0  0  0
   20.6014  -33.6648   -4.9444 N   0  0  0  0  0  0  0  0  0  0  0  0
   20.1178  -35.1150   -3.0690 C   0  0  0  0  0  0  0  0  0  0  0  0
   21.0083  -35.7779   -2.1864 O   0  0  0  0  0  0  0  0  0  0  0  0
   19.1287  -35.7987   -3.3914 O   0  0  0  0  0  0  0  0  0  0  0  0
  2  1  1  0
  3  2  2  0
  4  3  1  0
  5  4  2  0
  5 11  1  0
  6  5  1  0
  7  6  1  0
  7  8  1  6
  9 13  1  0
  9  7  1  0
 10  9  2  0
 11 12  2  0
 12  2  1  0
 14 25  1  0
 14 13  1  0
 14 15  1  6
 16 17  2  0
 16 15  1  0
 18 17  1  0
 19 24  2  0
 19 18  1  0
 20 19  1  0
 21 22  1  0
 21 20  2  0
 22 23  2  0
 23 24  1  0
 24 16  1  0
 25 32  1  0
 26 25  2  0
 28 27  1  1
 28 30  1  0
 29 28  1  0
 31 33  1  0
 31 30  1  6
 32 31  1  0
 33 34  1  0
 35 33  2  0
M  END
$$$$
