YWL.pdb
     RDKit          3D

 35 37  0  0  1  0  0  0  0  0999 V2000
   30.5565  -18.4919  -20.1293 O   0  0  0  0  0  0  0  0  0  0  0  0
   29.5833  -19.0226  -19.2940 C   0  0  0  0  0  0  0  0  0  0  0  0
   29.5063  -18.6481  -17.9731 C   0  0  0  0  0  0  0  0  0  0  0  0
   28.5391  -19.1778  -17.1494 C   0  0  0  0  0  0  0  0  0  0  0  0
   27.6146  -20.0958  -17.6030 C   0  0  0  0  0  0  0  0  0  0  0  0
   26.5709  -20.6791  -16.7570 C   0  0  0  0  0  0  0  0  0  0  0  0
   27.0651  -21.7703  -15.8400 C   0  0  2  0  0  0  0  0  0  0  0  0
   27.5195  -22.8942  -16.6120 N   0  0  0  0  0  0  0  0  0  0  0  0
   25.9712  -22.1266  -14.9014 C   0  0  0  0  0  0  0  0  0  0  0  0
   25.0779  -22.9256  -15.2829 O   0  0  0  0  0  0  0  0  0  0  0  0
   27.6900  -20.4736  -18.9299 C   0  0  0  0  0  0  0  0  0  0  0  0
   28.6674  -19.9393  -19.7650 C   0  0  0  0  0  0  0  0  0  0  0  0
   25.8601  -21.6188  -13.5773 N   0  0  0  0  0  0  0  0  0  0  0  0
   24.7978  -21.9564  -12.6652 C   0  0  1  0  0  0  0  0  0  0  0  0
   25.2225  -22.3123  -11.2856 C   0  0  0  0  0  0  0  0  0  0  0  0
   26.0446  -21.3483  -10.5723 C   0  0  0  0  0  0  0  0  0  0  0  0
   25.5688  -20.3664   -9.7194 C   0  0  0  0  0  0  0  0  0  0  0  0
   26.6052  -19.6473   -9.2455 N   0  0  0  0  0  0  0  0  0  0  0  0
   27.7723  -20.1240   -9.7610 C   0  0  0  0  0  0  0  0  0  0  0  0
   29.0746  -19.7295   -9.5756 C   0  0  0  0  0  0  0  0  0  0  0  0
   30.0864  -20.3933  -10.2208 C   0  0  0  0  0  0  0  0  0  0  0  0
   29.7392  -21.4461  -11.0410 C   0  0  0  0  0  0  0  0  0  0  0  0
   28.4318  -21.8350  -11.2215 C   0  0  0  0  0  0  0  0  0  0  0  0
   27.4044  -21.1862  -10.5873 C   0  0  0  0  0  0  0  0  0  0  0  0
   23.7742  -20.8673  -12.7131 C   0  0  0  0  0  0  0  0  0  0  0  0
   24.0621  -19.6933  -12.3699 O   0  0  0  0  0  0  0  0  0  0  0  0
   21.7018  -21.8837  -15.4280 C   0  0  0  0  0  0  0  0  0  0  0  0
   20.5970  -20.8252  -15.3580 C   0  0  2  0  0  0  0  0  0  0  0  0
   20.1430  -20.4179  -16.7265 C   0  0  0  0  0  0  0  0  0  0  0  0
   21.0310  -19.6581  -14.5171 C   0  0  0  0  0  0  0  0  0  0  0  0
   21.3935  -20.0881  -13.1520 C   0  0  2  0  0  0  0  0  0  0  0  0
   22.4429  -21.1010  -13.1436 N   0  0  0  0  0  0  0  0  0  0  0  0
   20.2444  -20.4781  -12.3481 C   0  0  0  0  0  0  0  0  0  0  0  0
   19.2045  -19.5404  -12.1233 O   0  0  0  0  0  0  0  0  0  0  0  0
   20.0494  -21.5830  -11.8085 O   0  0  0  0  0  0  0  0  0  0  0  0
  2  1  1  0
  3  2  2  0
  4  3  1  0
  5  4  2  0
  5 11  1  0
  6  5  1  0
  7  6  1  0
  7  8  1  6
  9 13  1  0
  9  7  1  0
 10  9  2  0
 11 12  2  0
 12  2  1  0
 14 25  1  0
 14 13  1  0
 14 15  1  1
 16 17  2  0
 16 15  1  0
 18 17  1  0
 19 24  2  0
 19 18  1  0
 20 19  1  0
 21 22  1  0
 21 20  2  0
 22 23  2  0
 23 24  1  0
 24 16  1  0
 25 32  1  0
 26 25  2  0
 28 27  1  6
 28 30  1  0
 29 28  1  0
 31 33  1  0
 31 30  1  6
 32 31  1  0
 33 34  1  0
 35 33  2  0
M  END
$$$$
