YWL.pdb
     RDKit          3D

 35 37  0  0  1  0  0  0  0  0999 V2000
   32.7713  -32.5149  -24.4212 O   0  0  0  0  0  0  0  0  0  0  0  0
   32.1273  -32.4442  -23.1937 C   0  0  0  0  0  0  0  0  0  0  0  0
   30.8263  -32.0081  -23.1034 C   0  0  0  0  0  0  0  0  0  0  0  0
   30.1927  -31.9400  -21.8834 C   0  0  0  0  0  0  0  0  0  0  0  0
   30.8233  -32.3007  -20.7106 C   0  0  0  0  0  0  0  0  0  0  0  0
   30.1811  -32.2433  -19.3955 C   0  0  0  0  0  0  0  0  0  0  0  0
   30.1515  -30.8624  -18.7886 C   0  0  2  0  0  0  0  0  0  0  0  0
   31.2285  -30.7143  -17.8486 N   0  0  0  0  0  0  0  0  0  0  0  0
   28.8190  -30.6500  -18.1689 C   0  0  0  0  0  0  0  0  0  0  0  0
   28.7041  -30.7570  -16.9209 O   0  0  0  0  0  0  0  0  0  0  0  0
   32.1306  -32.7392  -20.7988 C   0  0  0  0  0  0  0  0  0  0  0  0
   32.7736  -32.8090  -22.0316 C   0  0  0  0  0  0  0  0  0  0  0  0
   27.6420  -30.3283  -18.9001 N   0  0  0  0  0  0  0  0  0  0  0  0
   26.3616  -30.0580  -18.2987 C   0  0  1  0  0  0  0  0  0  0  0  0
   25.4644  -29.1588  -19.0713 C   0  0  0  0  0  0  0  0  0  0  0  0
   24.1476  -28.8934  -18.5149 C   0  0  0  0  0  0  0  0  0  0  0  0
   23.8767  -28.0042  -17.4884 C   0  0  0  0  0  0  0  0  0  0  0  0
   22.5562  -28.0219  -17.2204 N   0  0  0  0  0  0  0  0  0  0  0  0
   21.9291  -28.9053  -18.0458 C   0  0  0  0  0  0  0  0  0  0  0  0
   20.6082  -29.2645  -18.1554 C   0  0  0  0  0  0  0  0  0  0  0  0
   20.2295  -30.1931  -19.0908 C   0  0  0  0  0  0  0  0  0  0  0  0
   21.2143  -30.7315  -19.8920 C   0  0  0  0  0  0  0  0  0  0  0  0
   22.5358  -30.3663  -19.7758 C   0  0  0  0  0  0  0  0  0  0  0  0
   22.9371  -29.4408  -18.8479 C   0  0  0  0  0  0  0  0  0  0  0  0
   25.7295  -31.3632  -17.9339 C   0  0  0  0  0  0  0  0  0  0  0  0
   25.5137  -32.2433  -18.8043 O   0  0  0  0  0  0  0  0  0  0  0  0
   26.6344  -31.6289  -14.8729 C   0  0  0  0  0  0  0  0  0  0  0  0
   26.1256  -32.9467  -14.2809 C   0  0  2  0  0  0  0  0  0  0  0  0
   27.2339  -33.7182  -13.6319 C   0  0  0  0  0  0  0  0  0  0  0  0
   25.3889  -33.7464  -15.3180 C   0  0  0  0  0  0  0  0  0  0  0  0
   24.6119  -32.8698  -16.2166 C   0  0  2  0  0  0  0  0  0  0  0  0
   25.3467  -31.6706  -16.6029 N   0  0  0  0  0  0  0  0  0  0  0  0
   23.2819  -32.5625  -15.7111 C   0  0  0  0  0  0  0  0  0  0  0  0
   22.9218  -31.2099  -15.4827 O   0  0  0  0  0  0  0  0  0  0  0  0
   22.3778  -33.3751  -15.4422 O   0  0  0  0  0  0  0  0  0  0  0  0
  2  1  1  0
  3  2  2  0
  4  3  1  0
  5  4  2  0
  5 11  1  0
  6  5  1  0
  7  6  1  0
  7  8  1  1
  9 13  1  0
  9  7  1  0
 10  9  2  0
 11 12  2  0
 12  2  1  0
 14 25  1  0
 14 13  1  0
 14 15  1  6
 16 17  2  0
 16 15  1  0
 18 17  1  0
 19 24  2  0
 19 18  1  0
 20 19  1  0
 21 22  1  0
 21 20  2  0
 22 23  2  0
 23 24  1  0
 24 16  1  0
 25 32  1  0
 26 25  2  0
 28 27  1  6
 28 30  1  0
 29 28  1  0
 31 33  1  0
 31 30  1  1
 32 31  1  0
 33 34  1  0
 35 33  2  0
M  END
$$$$
