YWL.pdb
     RDKit          3D

 35 37  0  0  1  0  0  0  0  0999 V2000
   17.7415  -19.8436  -17.4014 O   0  0  0  0  0  0  0  0  0  0  0  0
   18.0587  -18.4924  -17.3858 C   0  0  0  0  0  0  0  0  0  0  0  0
   17.1233  -17.5439  -17.7271 C   0  0  0  0  0  0  0  0  0  0  0  0
   17.4434  -16.2054  -17.7100 C   0  0  0  0  0  0  0  0  0  0  0  0
   18.6993  -15.7582  -17.3548 C   0  0  0  0  0  0  0  0  0  0  0  0
   19.0756  -14.3430  -17.3232 C   0  0  0  0  0  0  0  0  0  0  0  0
   18.9869  -13.6561  -18.6634 C   0  0  2  0  0  0  0  0  0  0  0  0
   19.9733  -14.1946  -19.5592 N   0  0  0  0  0  0  0  0  0  0  0  0
   19.1429  -12.1945  -18.4535 C   0  0  0  0  0  0  0  0  0  0  0  0
   20.2970  -11.6951  -18.4830 O   0  0  0  0  0  0  0  0  0  0  0  0
   19.6408  -16.7093  -17.0114 C   0  0  0  0  0  0  0  0  0  0  0  0
   19.3194  -18.0638  -17.0281 C   0  0  0  0  0  0  0  0  0  0  0  0
   18.0599  -11.3031  -18.2170 N   0  0  0  0  0  0  0  0  0  0  0  0
   18.2033   -9.8811  -18.0395 C   0  0  1  0  0  0  0  0  0  0  0  0
   16.9583   -9.0838  -18.1969 C   0  0  0  0  0  0  0  0  0  0  0  0
   17.0815   -7.6366  -18.1323 C   0  0  0  0  0  0  0  0  0  0  0  0
   18.2122   -6.9135  -18.4737 C   0  0  0  0  0  0  0  0  0  0  0  0
   17.9772   -5.6008  -18.2797 N   0  0  0  0  0  0  0  0  0  0  0  0
   16.7097   -5.4224  -17.8141 C   0  0  0  0  0  0  0  0  0  0  0  0
   16.0184   -4.2847  -17.4769 C   0  0  0  0  0  0  0  0  0  0  0  0
   14.7253   -4.3799  -17.0302 C   0  0  0  0  0  0  0  0  0  0  0  0
   14.1714   -5.6395  -16.9399 C   0  0  0  0  0  0  0  0  0  0  0  0
   14.8709   -6.7746  -17.2797 C   0  0  0  0  0  0  0  0  0  0  0  0
   16.1641   -6.7035  -17.7281 C   0  0  0  0  0  0  0  0  0  0  0  0
   18.9083   -9.6386  -16.7432 C   0  0  0  0  0  0  0  0  0  0  0  0
   18.4241  -10.0451  -15.6574 O   0  0  0  0  0  0  0  0  0  0  0  0
   23.7230  -10.6782  -13.9771 C   0  0  0  0  0  0  0  0  0  0  0  0
   22.3626   -9.9766  -14.0314 C   0  0  2  0  0  0  0  0  0  0  0  0
   21.2475  -10.9201  -13.6981 C   0  0  0  0  0  0  0  0  0  0  0  0
   22.1698   -9.2916  -15.3547 C   0  0  0  0  0  0  0  0  0  0  0  0
   20.8465   -8.6417  -15.4326 C   0  0  2  0  0  0  0  0  0  0  0  0
   20.1447   -8.9464  -16.6744 N   0  0  0  0  0  0  0  0  0  0  0  0
   20.8912   -7.2123  -15.1611 C   0  0  0  0  0  0  0  0  0  0  0  0
   20.7260   -6.7534  -13.8294 O   0  0  0  0  0  0  0  0  0  0  0  0
   21.0654   -6.2989  -15.9889 O   0  0  0  0  0  0  0  0  0  0  0  0
  2  1  1  0
  3  2  2  0
  4  3  1  0
  5  4  2  0
  5 11  1  0
  6  5  1  0
  7  6  1  0
  7  8  1  6
  9 13  1  0
  9  7  1  0
 10  9  2  0
 11 12  2  0
 12  2  1  0
 14 25  1  0
 14 13  1  0
 14 15  1  1
 16 17  2  0
 16 15  1  0
 18 17  1  0
 19 24  2  0
 19 18  1  0
 20 19  1  0
 21 22  1  0
 21 20  2  0
 22 23  2  0
 23 24  1  0
 24 16  1  0
 25 32  1  0
 26 25  2  0
 28 27  1  6
 28 30  1  0
 29 28  1  0
 31 33  1  0
 31 30  1  6
 32 31  1  0
 33 34  1  0
 35 33  2  0
M  END
$$$$
