YWL.pdb
     RDKit          3D

 35 37  0  0  1  0  0  0  0  0999 V2000
   19.0786  -26.3572  -11.5233 O   0  0  0  0  0  0  0  0  0  0  0  0
   19.7952  -27.3332  -10.8446 C   0  0  0  0  0  0  0  0  0  0  0  0
   19.2308  -28.0232   -9.7975 C   0  0  0  0  0  0  0  0  0  0  0  0
   19.9462  -28.9899   -9.1281 C   0  0  0  0  0  0  0  0  0  0  0  0
   21.2442  -29.3079   -9.4706 C   0  0  0  0  0  0  0  0  0  0  0  0
   22.0352  -30.3311   -8.7830 C   0  0  0  0  0  0  0  0  0  0  0  0
   22.4152  -31.5006   -9.6569 C   0  0  2  0  0  0  0  0  0  0  0  0
   21.2330  -32.1749  -10.1189 N   0  0  0  0  0  0  0  0  0  0  0  0
   23.3159  -32.3921   -8.8832 C   0  0  0  0  0  0  0  0  0  0  0  0
   22.8305  -33.4050   -8.3171 O   0  0  0  0  0  0  0  0  0  0  0  0
   21.8134  -28.6160  -10.5224 C   0  0  0  0  0  0  0  0  0  0  0  0
   21.0919  -27.6377  -11.2010 C   0  0  0  0  0  0  0  0  0  0  0  0
   24.7142  -32.1776   -8.7342 N   0  0  0  0  0  0  0  0  0  0  0  0
   25.6039  -33.0752   -8.0436 C   0  0  1  0  0  0  0  0  0  0  0  0
   27.0525  -32.8824   -8.3166 C   0  0  0  0  0  0  0  0  0  0  0  0
   27.9680  -33.8831   -7.7926 C   0  0  0  0  0  0  0  0  0  0  0  0
   28.3710  -35.0273   -8.4607 C   0  0  0  0  0  0  0  0  0  0  0  0
   29.2093  -35.7306   -7.6743 N   0  0  0  0  0  0  0  0  0  0  0  0
   29.3811  -35.0842   -6.4878 C   0  0  0  0  0  0  0  0  0  0  0  0
   30.1333  -35.3996   -5.3830 C   0  0  0  0  0  0  0  0  0  0  0  0
   30.1371  -34.5602   -4.2986 C   0  0  0  0  0  0  0  0  0  0  0  0
   29.3696  -33.4169   -4.3725 C   0  0  0  0  0  0  0  0  0  0  0  0
   28.6185  -33.1082   -5.4832 C   0  0  0  0  0  0  0  0  0  0  0  0
   28.5992  -33.9324   -6.5782 C   0  0  0  0  0  0  0  0  0  0  0  0
   25.2612  -33.0481   -6.5883 C   0  0  0  0  0  0  0  0  0  0  0  0
   25.1505  -31.9600   -5.9698 O   0  0  0  0  0  0  0  0  0  0  0  0
   21.8872  -33.6662   -4.0042 C   0  0  0  0  0  0  0  0  0  0  0  0
   22.3572  -35.0040   -4.5832 C   0  0  2  0  0  0  0  0  0  0  0  0
   21.3674  -36.0952   -4.3110 C   0  0  0  0  0  0  0  0  0  0  0  0
   23.7396  -35.3374   -4.0978 C   0  0  0  0  0  0  0  0  0  0  0  0
   24.6955  -34.2610   -4.4257 C   0  0  2  0  0  0  0  0  0  0  0  0
   25.0458  -34.2348   -5.8413 N   0  0  0  0  0  0  0  0  0  0  0  0
   25.8705  -34.2546   -3.5667 C   0  0  0  0  0  0  0  0  0  0  0  0
   25.8700  -33.4538   -2.3962 O   0  0  0  0  0  0  0  0  0  0  0  0
   26.9251  -34.8939   -3.7372 O   0  0  0  0  0  0  0  0  0  0  0  0
  2  1  1  0
  3  2  2  0
  4  3  1  0
  5  4  2  0
  5 11  1  0
  6  5  1  0
  7  6  1  0
  7  8  1  1
  9 13  1  0
  9  7  1  0
 10  9  2  0
 11 12  2  0
 12  2  1  0
 14 25  1  0
 14 13  1  0
 14 15  1  1
 16 17  2  0
 16 15  1  0
 18 17  1  0
 19 24  2  0
 19 18  1  0
 20 19  1  0
 21 22  1  0
 21 20  2  0
 22 23  2  0
 23 24  1  0
 24 16  1  0
 25 32  1  0
 26 25  2  0
 28 27  1  1
 28 30  1  0
 29 28  1  0
 31 33  1  0
 31 30  1  6
 32 31  1  0
 33 34  1  0
 35 33  2  0
M  END
$$$$
