YWL.pdb
     RDKit          3D

 35 37  0  0  1  0  0  0  0  0999 V2000
   25.9079  -13.7908  -22.1393 O   0  0  0  0  0  0  0  0  0  0  0  0
   25.6910  -14.7806  -21.1908 C   0  0  0  0  0  0  0  0  0  0  0  0
   26.3551  -14.7620  -19.9867 C   0  0  0  0  0  0  0  0  0  0  0  0
   26.1361  -15.7463  -19.0499 C   0  0  0  0  0  0  0  0  0  0  0  0
   25.2530  -16.7829  -19.2708 C   0  0  0  0  0  0  0  0  0  0  0  0
   24.9930  -17.8460  -18.2975 C   0  0  0  0  0  0  0  0  0  0  0  0
   26.1934  -18.7099  -17.9995 C   0  0  2  0  0  0  0  0  0  0  0  0
   26.5488  -19.4771  -19.1617 N   0  0  0  0  0  0  0  0  0  0  0  0
   25.8784  -19.5633  -16.8259 C   0  0  0  0  0  0  0  0  0  0  0  0
   25.0768  -20.5220  -16.9680 O   0  0  0  0  0  0  0  0  0  0  0  0
   24.5845  -16.8037  -20.4798 C   0  0  0  0  0  0  0  0  0  0  0  0
   24.8044  -15.8094  -21.4290 C   0  0  0  0  0  0  0  0  0  0  0  0
   26.4291  -19.3694  -15.5287 N   0  0  0  0  0  0  0  0  0  0  0  0
   26.0684  -20.1448  -14.3699 C   0  0  1  0  0  0  0  0  0  0  0  0
   27.0523  -20.1325  -13.2553 C   0  0  0  0  0  0  0  0  0  0  0  0
   26.6945  -20.8512  -12.0431 C   0  0  0  0  0  0  0  0  0  0  0  0
   26.5558  -22.2251  -11.9385 C   0  0  0  0  0  0  0  0  0  0  0  0
   26.2048  -22.5429  -10.6769 N   0  0  0  0  0  0  0  0  0  0  0  0
   26.1038  -21.4108   -9.9265 C   0  0  0  0  0  0  0  0  0  0  0  0
   25.7824  -21.2237   -8.6045 C   0  0  0  0  0  0  0  0  0  0  0  0
   25.7560  -19.9560   -8.0821 C   0  0  0  0  0  0  0  0  0  0  0  0
   26.0597  -18.9098   -8.9275 C   0  0  0  0  0  0  0  0  0  0  0  0
   26.3805  -19.1056  -10.2511 C   0  0  0  0  0  0  0  0  0  0  0  0
   26.4129  -20.3634  -10.7948 C   0  0  0  0  0  0  0  0  0  0  0  0
   24.6876  -19.7505  -13.9525 C   0  0  0  0  0  0  0  0  0  0  0  0
   24.3894  -18.5453  -13.7597 O   0  0  0  0  0  0  0  0  0  0  0  0
   22.1722  -21.9726  -15.2285 C   0  0  0  0  0  0  0  0  0  0  0  0
   21.0104  -20.9908  -15.0490 C   0  0  2  0  0  0  0  0  0  0  0  0
   20.5765  -20.4118  -16.3609 C   0  0  0  0  0  0  0  0  0  0  0  0
   21.3555  -19.9383  -14.0337 C   0  0  0  0  0  0  0  0  0  0  0  0
   22.3887  -20.4192  -13.0950 C   0  0  2  0  0  0  0  0  0  0  0  0
   23.6569  -20.7053  -13.7561 N   0  0  0  0  0  0  0  0  0  0  0  0
   21.9389  -21.5255  -12.2628 C   0  0  0  0  0  0  0  0  0  0  0  0
   20.8720  -21.3192  -11.3515 O   0  0  0  0  0  0  0  0  0  0  0  0
   22.3931  -22.6846  -12.2500 O   0  0  0  0  0  0  0  0  0  0  0  0
  2  1  1  0
  3  2  2  0
  4  3  1  0
  5  4  2  0
  5 11  1  0
  6  5  1  0
  7  6  1  0
  7  8  1  6
  9 13  1  0
  9  7  1  0
 10  9  2  0
 11 12  2  0
 12  2  1  0
 14 25  1  0
 14 13  1  0
 14 15  1  1
 16 17  2  0
 16 15  1  0
 18 17  1  0
 19 24  2  0
 19 18  1  0
 20 19  1  0
 21 22  1  0
 21 20  2  0
 22 23  2  0
 23 24  1  0
 24 16  1  0
 25 32  1  0
 26 25  2  0
 28 27  1  6
 28 30  1  0
 29 28  1  0
 31 33  1  0
 31 30  1  6
 32 31  1  0
 33 34  1  0
 35 33  2  0
M  END
$$$$
