YWL.pdb
     RDKit          3D

 35 37  0  0  1  0  0  0  0  0999 V2000
   24.2144  -18.8067  -18.3361 O   0  0  0  0  0  0  0  0  0  0  0  0
   24.4607  -19.4514  -17.1318 C   0  0  0  0  0  0  0  0  0  0  0  0
   25.6397  -20.1272  -16.9213 C   0  0  0  0  0  0  0  0  0  0  0  0
   25.8784  -20.7648  -15.7251 C   0  0  0  0  0  0  0  0  0  0  0  0
   24.9600  -20.7563  -14.6957 C   0  0  0  0  0  0  0  0  0  0  0  0
   25.1798  -21.4214  -13.4093 C   0  0  0  0  0  0  0  0  0  0  0  0
   25.4067  -20.4710  -12.2599 C   0  0  2  0  0  0  0  0  0  0  0  0
   26.5036  -19.5914  -12.5571 N   0  0  0  0  0  0  0  0  0  0  0  0
   25.6317  -21.2688  -11.0279 C   0  0  0  0  0  0  0  0  0  0  0  0
   25.5127  -22.5198  -11.0827 O   0  0  0  0  0  0  0  0  0  0  0  0
   23.7747  -20.0780  -14.9048 C   0  0  0  0  0  0  0  0  0  0  0  0
   23.5308  -19.4323  -16.1139 C   0  0  0  0  0  0  0  0  0  0  0  0
   25.9783  -20.7081   -9.7674 N   0  0  0  0  0  0  0  0  0  0  0  0
   25.1500  -20.7810   -8.5915 C   0  0  1  0  0  0  0  0  0  0  0  0
   25.4282  -19.7633   -7.5440 C   0  0  0  0  0  0  0  0  0  0  0  0
   26.8223  -19.4837   -7.2406 C   0  0  0  0  0  0  0  0  0  0  0  0
   27.6639  -18.6906   -8.0026 C   0  0  0  0  0  0  0  0  0  0  0  0
   28.8854  -18.6624   -7.4341 N   0  0  0  0  0  0  0  0  0  0  0  0
   28.8860  -19.4206   -6.3027 C   0  0  0  0  0  0  0  0  0  0  0  0
   29.8781  -19.6930   -5.3932 C   0  0  0  0  0  0  0  0  0  0  0  0
   29.6127  -20.4986   -4.3155 C   0  0  0  0  0  0  0  0  0  0  0  0
   28.3360  -21.0059   -4.1958 C   0  0  0  0  0  0  0  0  0  0  0  0
   27.3475  -20.7283   -5.1116 C   0  0  0  0  0  0  0  0  0  0  0  0
   27.5900  -19.9262   -6.1963 C   0  0  0  0  0  0  0  0  0  0  0  0
   23.7196  -20.8152   -9.0264 C   0  0  0  0  0  0  0  0  0  0  0  0
   23.1559  -19.7871   -9.4781 O   0  0  0  0  0  0  0  0  0  0  0  0
   20.4208  -21.1144  -11.1838 C   0  0  0  0  0  0  0  0  0  0  0  0
   20.9154  -22.5385  -10.9130 C   0  0  2  0  0  0  0  0  0  0  0  0
   20.2802  -23.5241  -11.8457 C   0  0  0  0  0  0  0  0  0  0  0  0
   20.7277  -22.9009   -9.4670 C   0  0  0  0  0  0  0  0  0  0  0  0
   21.5244  -22.0221   -8.5878 C   0  0  2  0  0  0  0  0  0  0  0  0
   22.9363  -21.9957   -8.9527 N   0  0  0  0  0  0  0  0  0  0  0  0
   21.3260  -22.2935   -7.1716 C   0  0  0  0  0  0  0  0  0  0  0  0
   22.3807  -22.8739   -6.4219 O   0  0  0  0  0  0  0  0  0  0  0  0
   20.2996  -22.0690   -6.5036 O   0  0  0  0  0  0  0  0  0  0  0  0
  2  1  1  0
  3  2  2  0
  4  3  1  0
  5  4  2  0
  5 11  1  0
  6  5  1  0
  7  6  1  0
  7  8  1  6
  9 13  1  0
  9  7  1  0
 10  9  2  0
 11 12  2  0
 12  2  1  0
 14 25  1  0
 14 13  1  0
 14 15  1  1
 16 17  2  0
 16 15  1  0
 18 17  1  0
 19 24  2  0
 19 18  1  0
 20 19  1  0
 21 22  1  0
 21 20  2  0
 22 23  2  0
 23 24  1  0
 24 16  1  0
 25 32  1  0
 26 25  2  0
 28 27  1  1
 28 30  1  0
 29 28  1  0
 31 33  1  0
 31 30  1  6
 32 31  1  0
 33 34  1  0
 35 33  2  0
M  END
$$$$
