YWL.pdb
     RDKit          3D

 35 37  0  0  1  0  0  0  0  0999 V2000
   35.4511  -35.5220  -20.9708 O   0  0  0  0  0  0  0  0  0  0  0  0
   34.4840  -34.9098  -20.1856 C   0  0  0  0  0  0  0  0  0  0  0  0
   34.5403  -34.9809  -18.8134 C   0  0  0  0  0  0  0  0  0  0  0  0
   33.5785  -34.3719  -18.0397 C   0  0  0  0  0  0  0  0  0  0  0  0
   32.5279  -33.6717  -18.5958 C   0  0  0  0  0  0  0  0  0  0  0  0
   31.4878  -33.0098  -17.8050 C   0  0  0  0  0  0  0  0  0  0  0  0
   31.6478  -31.5124  -17.7143 C   0  0  2  0  0  0  0  0  0  0  0  0
   32.6113  -31.1805  -16.7009 N   0  0  0  0  0  0  0  0  0  0  0  0
   30.3149  -30.9123  -17.4540 C   0  0  0  0  0  0  0  0  0  0  0  0
   30.0045  -30.6077  -16.2738 O   0  0  0  0  0  0  0  0  0  0  0  0
   32.4692  -33.5989  -19.9743 C   0  0  0  0  0  0  0  0  0  0  0  0
   33.4409  -34.2141  -20.7589 C   0  0  0  0  0  0  0  0  0  0  0  0
   29.3466  -30.6529  -18.4633 N   0  0  0  0  0  0  0  0  0  0  0  0
   28.1218  -29.9274  -18.2454 C   0  0  1  0  0  0  0  0  0  0  0  0
   27.8637  -28.8033  -19.1836 C   0  0  0  0  0  0  0  0  0  0  0  0
   28.3863  -27.4969  -18.8176 C   0  0  0  0  0  0  0  0  0  0  0  0
   29.5992  -26.9744  -19.2345 C   0  0  0  0  0  0  0  0  0  0  0  0
   29.7668  -25.7513  -18.6944 N   0  0  0  0  0  0  0  0  0  0  0  0
   28.6909  -25.4365  -17.9207 C   0  0  0  0  0  0  0  0  0  0  0  0
   28.4020  -24.3167  -17.1802 C   0  0  0  0  0  0  0  0  0  0  0  0
   27.2240  -24.2466  -16.4815 C   0  0  0  0  0  0  0  0  0  0  0  0
   26.3699  -25.3265  -16.5586 C   0  0  0  0  0  0  0  0  0  0  0  0
   26.6669  -26.4450  -17.3028 C   0  0  0  0  0  0  0  0  0  0  0  0
   27.8382  -26.5372  -18.0087 C   0  0  0  0  0  0  0  0  0  0  0  0
   26.9995  -30.9128  -18.1706 C   0  0  0  0  0  0  0  0  0  0  0  0
   26.7767  -31.7126  -19.1137 O   0  0  0  0  0  0  0  0  0  0  0  0
   25.9136  -34.4547  -15.9726 C   0  0  0  0  0  0  0  0  0  0  0  0
   25.7728  -33.2278  -15.0665 C   0  0  2  0  0  0  0  0  0  0  0  0
   25.5655  -33.6253  -13.6369 C   0  0  0  0  0  0  0  0  0  0  0  0
   24.6987  -32.3098  -15.5773 C   0  0  0  0  0  0  0  0  0  0  0  0
   24.9803  -31.8743  -16.9597 C   0  0  2  0  0  0  0  0  0  0  0  0
   26.1404  -30.9944  -17.0446 N   0  0  0  0  0  0  0  0  0  0  0  0
   23.8168  -31.3194  -17.6357 C   0  0  0  0  0  0  0  0  0  0  0  0
   23.8606  -29.9829  -18.1080 O   0  0  0  0  0  0  0  0  0  0  0  0
   22.7378  -31.8972  -17.8634 O   0  0  0  0  0  0  0  0  0  0  0  0
  2  1  1  0
  3  2  2  0
  4  3  1  0
  5  4  2  0
  5 11  1  0
  6  5  1  0
  7  6  1  0
  7  8  1  1
  9 13  1  0
  9  7  1  0
 10  9  2  0
 11 12  2  0
 12  2  1  0
 14 25  1  0
 14 13  1  0
 14 15  1  6
 16 17  2  0
 16 15  1  0
 18 17  1  0
 19 24  2  0
 19 18  1  0
 20 19  1  0
 21 22  1  0
 21 20  2  0
 22 23  2  0
 23 24  1  0
 24 16  1  0
 25 32  1  0
 26 25  2  0
 28 27  1  6
 28 30  1  0
 29 28  1  0
 31 33  1  0
 31 30  1  1
 32 31  1  0
 33 34  1  0
 35 33  2  0
M  END
$$$$
