YWL.pdb
     RDKit          3D

 35 37  0  0  1  0  0  0  0  0999 V2000
   23.8828  -12.5723  -20.8607 O   0  0  0  0  0  0  0  0  0  0  0  0
   23.8978  -13.6698  -20.0111 C   0  0  0  0  0  0  0  0  0  0  0  0
   24.1653  -13.5208  -18.6704 C   0  0  0  0  0  0  0  0  0  0  0  0
   24.1788  -14.6127  -17.8326 C   0  0  0  0  0  0  0  0  0  0  0  0
   23.9284  -15.8896  -18.2910 C   0  0  0  0  0  0  0  0  0  0  0  0
   23.9323  -17.0741  -17.4296 C   0  0  0  0  0  0  0  0  0  0  0  0
   25.3032  -17.6623  -17.2042 C   0  0  2  0  0  0  0  0  0  0  0  0
   25.8095  -18.2155  -18.4302 N   0  0  0  0  0  0  0  0  0  0  0  0
   25.2091  -18.6707  -16.1183 C   0  0  0  0  0  0  0  0  0  0  0  0
   24.6747  -19.7824  -16.3647 O   0  0  0  0  0  0  0  0  0  0  0  0
   23.6593  -16.0418  -19.6376 C   0  0  0  0  0  0  0  0  0  0  0  0
   23.6451  -14.9389  -20.4871 C   0  0  0  0  0  0  0  0  0  0  0  0
   25.6890  -18.4644  -14.7952 N   0  0  0  0  0  0  0  0  0  0  0  0
   25.5729  -19.4274  -13.7306 C   0  0  1  0  0  0  0  0  0  0  0  0
   26.4762  -19.2149  -12.5690 C   0  0  0  0  0  0  0  0  0  0  0  0
   26.4248  -20.1959  -11.4972 C   0  0  0  0  0  0  0  0  0  0  0  0
   26.4959  -21.5688  -11.6645 C   0  0  0  0  0  0  0  0  0  0  0  0
   26.4041  -22.1698  -10.4619 N   0  0  0  0  0  0  0  0  0  0  0  0
   26.2727  -21.2301   -9.4848 C   0  0  0  0  0  0  0  0  0  0  0  0
   26.1502  -21.3485   -8.1221 C   0  0  0  0  0  0  0  0  0  0  0  0
   26.0355  -20.2227   -7.3475 C   0  0  0  0  0  0  0  0  0  0  0  0
   26.0491  -19.0018   -7.9883 C   0  0  0  0  0  0  0  0  0  0  0  0
   26.1721  -18.8916   -9.3543 C   0  0  0  0  0  0  0  0  0  0  0  0
   26.2877  -20.0029  -10.1482 C   0  0  0  0  0  0  0  0  0  0  0  0
   24.1302  -19.5382  -13.3533 C   0  0  0  0  0  0  0  0  0  0  0  0
   23.4396  -18.5129  -13.1282 O   0  0  0  0  0  0  0  0  0  0  0  0
   20.3063  -20.6115  -15.0322 C   0  0  0  0  0  0  0  0  0  0  0  0
   21.1937  -21.8417  -14.8194 C   0  0  2  0  0  0  0  0  0  0  0  0
   20.6499  -23.0386  -15.5380 C   0  0  0  0  0  0  0  0  0  0  0  0
   21.4132  -22.0922  -13.3542 C   0  0  0  0  0  0  0  0  0  0  0  0
   22.1214  -20.9631  -12.7190 C   0  0  2  0  0  0  0  0  0  0  0  0
   23.4757  -20.7910  -13.2324 N   0  0  0  0  0  0  0  0  0  0  0  0
   22.0845  -21.0067  -11.2646 C   0  0  0  0  0  0  0  0  0  0  0  0
   20.9770  -20.4429  -10.5813 O   0  0  0  0  0  0  0  0  0  0  0  0
   22.9421  -21.5005  -10.5091 O   0  0  0  0  0  0  0  0  0  0  0  0
  2  1  1  0
  3  2  2  0
  4  3  1  0
  5  4  2  0
  5 11  1  0
  6  5  1  0
  7  6  1  0
  7  8  1  6
  9 13  1  0
  9  7  1  0
 10  9  2  0
 11 12  2  0
 12  2  1  0
 14 25  1  0
 14 13  1  0
 14 15  1  1
 16 17  2  0
 16 15  1  0
 18 17  1  0
 19 24  2  0
 19 18  1  0
 20 19  1  0
 21 22  1  0
 21 20  2  0
 22 23  2  0
 23 24  1  0
 24 16  1  0
 25 32  1  0
 26 25  2  0
 28 27  1  1
 28 30  1  0
 29 28  1  0
 31 33  1  0
 31 30  1  6
 32 31  1  0
 33 34  1  0
 35 33  2  0
M  END
$$$$
