YWL.pdb
     RDKit          3D

 35 37  0  0  1  0  0  0  0  0999 V2000
   29.4660  -13.3842  -17.1263 O   0  0  0  0  0  0  0  0  0  0  0  0
   28.3889  -12.5201  -16.9858 C   0  0  0  0  0  0  0  0  0  0  0  0
   27.9183  -12.1756  -15.7404 C   0  0  0  0  0  0  0  0  0  0  0  0
   26.8497  -11.3184  -15.6072 C   0  0  0  0  0  0  0  0  0  0  0  0
   26.2095  -10.7720  -16.7003 C   0  0  0  0  0  0  0  0  0  0  0  0
   25.0716   -9.8556  -16.5974 C   0  0  0  0  0  0  0  0  0  0  0  0
   23.7300  -10.5242  -16.7678 C   0  0  2  0  0  0  0  0  0  0  0  0
   23.6831  -11.2214  -18.0237 N   0  0  0  0  0  0  0  0  0  0  0  0
   22.6712   -9.4901  -16.6485 C   0  0  0  0  0  0  0  0  0  0  0  0
   22.2570   -8.9200  -17.6903 O   0  0  0  0  0  0  0  0  0  0  0  0
   26.6806  -11.1167  -17.9526 C   0  0  0  0  0  0  0  0  0  0  0  0
   27.7613  -11.9836  -18.0900 C   0  0  0  0  0  0  0  0  0  0  0  0
   22.0816   -9.0915  -15.4168 N   0  0  0  0  0  0  0  0  0  0  0  0
   20.9671   -8.1860  -15.3062 C   0  0  1  0  0  0  0  0  0  0  0  0
   19.7350   -8.7527  -14.6971 C   0  0  0  0  0  0  0  0  0  0  0  0
   18.9922   -9.7268  -15.4802 C   0  0  0  0  0  0  0  0  0  0  0  0
   19.3606  -11.0478  -15.6728 C   0  0  0  0  0  0  0  0  0  0  0  0
   18.4504  -11.6541  -16.4599 N   0  0  0  0  0  0  0  0  0  0  0  0
   17.4737  -10.7691  -16.8030 C   0  0  0  0  0  0  0  0  0  0  0  0
   16.3472  -10.9146  -17.5748 C   0  0  0  0  0  0  0  0  0  0  0  0
   15.5076   -9.8469  -17.7639 C   0  0  0  0  0  0  0  0  0  0  0  0
   15.8428   -8.6549  -17.1570 C   0  0  0  0  0  0  0  0  0  0  0  0
   16.9736   -8.5172  -16.3852 C   0  0  0  0  0  0  0  0  0  0  0  0
   17.8271   -9.5704  -16.1829 C   0  0  0  0  0  0  0  0  0  0  0  0
   21.4431   -6.9354  -14.6385 C   0  0  0  0  0  0  0  0  0  0  0  0
   22.3566   -6.9696  -13.7765 O   0  0  0  0  0  0  0  0  0  0  0  0
   24.6619   -4.4217  -16.3474 C   0  0  0  0  0  0  0  0  0  0  0  0
   23.1505   -4.3195  -16.1216 C   0  0  2  0  0  0  0  0  0  0  0  0
   22.5517   -3.2066  -16.9265 C   0  0  0  0  0  0  0  0  0  0  0  0
   22.8376   -4.2117  -14.6560 C   0  0  0  0  0  0  0  0  0  0  0  0
   21.3961   -4.4037  -14.4014 C   0  0  2  0  0  0  0  0  0  0  0  0
   20.8946   -5.6625  -14.9410 N   0  0  0  0  0  0  0  0  0  0  0  0
   20.5840   -3.2666  -14.8091 C   0  0  0  0  0  0  0  0  0  0  0  0
   20.8073   -2.0027  -14.2059 O   0  0  0  0  0  0  0  0  0  0  0  0
   19.6762   -3.2630  -15.6611 O   0  0  0  0  0  0  0  0  0  0  0  0
  2  1  1  0
  3  2  2  0
  4  3  1  0
  5  4  2  0
  5 11  1  0
  6  5  1  0
  7  6  1  0
  7  8  1  6
  9 13  1  0
  9  7  1  0
 10  9  2  0
 11 12  2  0
 12  2  1  0
 14 25  1  0
 14 13  1  0
 14 15  1  1
 16 17  2  0
 16 15  1  0
 18 17  1  0
 19 24  2  0
 19 18  1  0
 20 19  1  0
 21 22  1  0
 21 20  2  0
 22 23  2  0
 23 24  1  0
 24 16  1  0
 25 32  1  0
 26 25  2  0
 28 27  1  1
 28 30  1  0
 29 28  1  0
 31 33  1  0
 31 30  1  6
 32 31  1  0
 33 34  1  0
 35 33  2  0
M  END
$$$$
