YWL.pdb
     RDKit          3D

 35 37  0  0  1  0  0  0  0  0999 V2000
   29.4771  -17.1450  -19.0863 O   0  0  0  0  0  0  0  0  0  0  0  0
   28.8293  -17.6883  -17.9855 C   0  0  0  0  0  0  0  0  0  0  0  0
   27.6263  -18.3398  -18.1251 C   0  0  0  0  0  0  0  0  0  0  0  0
   26.9884  -18.8766  -17.0300 C   0  0  0  0  0  0  0  0  0  0  0  0
   27.5176  -18.7880  -15.7590 C   0  0  0  0  0  0  0  0  0  0  0  0
   26.8690  -19.3482  -14.5713 C   0  0  0  0  0  0  0  0  0  0  0  0
   27.4458  -20.6686  -14.1243 C   0  0  2  0  0  0  0  0  0  0  0  0
   27.2037  -21.6747  -15.1216 N   0  0  0  0  0  0  0  0  0  0  0  0
   26.8565  -21.0168  -12.8066 C   0  0  0  0  0  0  0  0  0  0  0  0
   25.8405  -21.7573  -12.7708 O   0  0  0  0  0  0  0  0  0  0  0  0
   28.7263  -18.1339  -15.6162 C   0  0  0  0  0  0  0  0  0  0  0  0
   29.3734  -17.5901  -16.7224 C   0  0  0  0  0  0  0  0  0  0  0  0
   27.3691  -20.5637  -11.5595 N   0  0  0  0  0  0  0  0  0  0  0  0
   26.7514  -20.8252  -10.2850 C   0  0  1  0  0  0  0  0  0  0  0  0
   27.6094  -20.5915   -9.0936 C   0  0  0  0  0  0  0  0  0  0  0  0
   26.9872  -20.7310   -7.7870 C   0  0  0  0  0  0  0  0  0  0  0  0
   25.7748  -21.3532   -7.5400 C   0  0  0  0  0  0  0  0  0  0  0  0
   25.4999  -21.2865   -6.2225 N   0  0  0  0  0  0  0  0  0  0  0  0
   26.5026  -20.6316   -5.5740 C   0  0  0  0  0  0  0  0  0  0  0  0
   26.6756  -20.3229   -4.2471 C   0  0  0  0  0  0  0  0  0  0  0  0
   27.7996  -19.6477   -3.8451 C   0  0  0  0  0  0  0  0  0  0  0  0
   28.7198  -19.3049   -4.8132 C   0  0  0  0  0  0  0  0  0  0  0  0
   28.5389  -19.6178   -6.1408 C   0  0  0  0  0  0  0  0  0  0  0  0
   27.4234  -20.2916   -6.5654 C   0  0  0  0  0  0  0  0  0  0  0  0
   25.4485  -20.0928  -10.2359 C   0  0  0  0  0  0  0  0  0  0  0  0
   25.4108  -18.8371  -10.2586 O   0  0  0  0  0  0  0  0  0  0  0  0
   23.4027  -19.4614  -13.9564 C   0  0  0  0  0  0  0  0  0  0  0  0
   22.9341  -20.2612  -12.7371 C   0  0  2  0  0  0  0  0  0  0  0  0
   21.7017  -21.0555  -13.0452 C   0  0  0  0  0  0  0  0  0  0  0  0
   22.7648  -19.3628  -11.5446 C   0  0  0  0  0  0  0  0  0  0  0  0
   22.9058  -20.1166  -10.2830 C   0  0  2  0  0  0  0  0  0  0  0  0
   24.2041  -20.7702  -10.1628 N   0  0  0  0  0  0  0  0  0  0  0  0
   21.8023  -21.0326  -10.0344 C   0  0  0  0  0  0  0  0  0  0  0  0
   22.0779  -22.4043   -9.8026 O   0  0  0  0  0  0  0  0  0  0  0  0
   20.5902  -20.7507   -9.9967 O   0  0  0  0  0  0  0  0  0  0  0  0
  2  1  1  0
  3  2  2  0
  4  3  1  0
  5  4  2  0
  5 11  1  0
  6  5  1  0
  7  6  1  0
  7  8  1  6
  9 13  1  0
  9  7  1  0
 10  9  2  0
 11 12  2  0
 12  2  1  0
 14 25  1  0
 14 13  1  0
 14 15  1  1
 16 17  2  0
 16 15  1  0
 18 17  1  0
 19 24  2  0
 19 18  1  0
 20 19  1  0
 21 22  1  0
 21 20  2  0
 22 23  2  0
 23 24  1  0
 24 16  1  0
 25 32  1  0
 26 25  2  0
 28 27  1  6
 28 30  1  0
 29 28  1  0
 31 33  1  0
 31 30  1  6
 32 31  1  0
 33 34  1  0
 35 33  2  0
M  END
$$$$
