YWL.pdb
     RDKit          3D

 35 37  0  0  1  0  0  0  0  0999 V2000
   21.2560  -17.3899  -15.9576 O   0  0  0  0  0  0  0  0  0  0  0  0
   21.4041  -18.5435  -15.2002 C   0  0  0  0  0  0  0  0  0  0  0  0
   20.3666  -19.0243  -14.4363 C   0  0  0  0  0  0  0  0  0  0  0  0
   20.5192  -20.1687  -13.6871 C   0  0  0  0  0  0  0  0  0  0  0  0
   21.7026  -20.8776  -13.6671 C   0  0  0  0  0  0  0  0  0  0  0  0
   21.9011  -22.0994  -12.8842 C   0  0  0  0  0  0  0  0  0  0  0  0
   22.3174  -21.8501  -11.4558 C   0  0  2  0  0  0  0  0  0  0  0  0
   21.3000  -21.1020  -10.7696 N   0  0  0  0  0  0  0  0  0  0  0  0
   23.6300  -21.1561  -11.4631 C   0  0  0  0  0  0  0  0  0  0  0  0
   23.6611  -19.9109  -11.2881 O   0  0  0  0  0  0  0  0  0  0  0  0
   22.7465  -20.3965  -14.4339 C   0  0  0  0  0  0  0  0  0  0  0  0
   22.5946  -19.2391  -15.1925 C   0  0  0  0  0  0  0  0  0  0  0  0
   24.8773  -21.8118  -11.6578 N   0  0  0  0  0  0  0  0  0  0  0  0
   26.1479  -21.1366  -11.7201 C   0  0  1  0  0  0  0  0  0  0  0  0
   27.1398  -21.5345  -10.6865 C   0  0  0  0  0  0  0  0  0  0  0  0
   27.0967  -20.8295   -9.4157 C   0  0  0  0  0  0  0  0  0  0  0  0
   26.0098  -20.1228   -8.9288 C   0  0  0  0  0  0  0  0  0  0  0  0
   26.3253  -19.5883   -7.7328 N   0  0  0  0  0  0  0  0  0  0  0  0
   27.6041  -19.9200   -7.4014 C   0  0  0  0  0  0  0  0  0  0  0  0
   28.3626  -19.6192   -6.2969 C   0  0  0  0  0  0  0  0  0  0  0  0
   29.6472  -20.0902   -6.2031 C   0  0  0  0  0  0  0  0  0  0  0  0
   30.1237  -20.8588   -7.2442 C   0  0  0  0  0  0  0  0  0  0  0  0
   29.3572  -21.1555   -8.3477 C   0  0  0  0  0  0  0  0  0  0  0  0
   28.0713  -20.6954   -8.4629 C   0  0  0  0  0  0  0  0  0  0  0  0
   26.6672  -21.2418  -13.1185 C   0  0  0  0  0  0  0  0  0  0  0  0
   26.4908  -22.2842  -13.7975 O   0  0  0  0  0  0  0  0  0  0  0  0
   25.8656  -18.5549  -16.4548 C   0  0  0  0  0  0  0  0  0  0  0  0
   27.0073  -17.9583  -15.6263 C   0  0  2  0  0  0  0  0  0  0  0  0
   27.3393  -16.5678  -16.0749 C   0  0  0  0  0  0  0  0  0  0  0  0
   28.2004  -18.8716  -15.6295 C   0  0  0  0  0  0  0  0  0  0  0  0
   27.8486  -20.2125  -15.1217 C   0  0  2  0  0  0  0  0  0  0  0  0
   27.3761  -20.1830  -13.7421 N   0  0  0  0  0  0  0  0  0  0  0  0
   28.9011  -21.1977  -15.3230 C   0  0  0  0  0  0  0  0  0  0  0  0
   29.3434  -21.4812  -16.6403 O   0  0  0  0  0  0  0  0  0  0  0  0
   29.4904  -21.8529  -14.4436 O   0  0  0  0  0  0  0  0  0  0  0  0
  2  1  1  0
  3  2  2  0
  4  3  1  0
  5  4  2  0
  5 11  1  0
  6  5  1  0
  7  6  1  0
  7  8  1  6
  9 13  1  0
  9  7  1  0
 10  9  2  0
 11 12  2  0
 12  2  1  0
 14 25  1  0
 14 13  1  0
 14 15  1  1
 16 17  2  0
 16 15  1  0
 18 17  1  0
 19 24  2  0
 19 18  1  0
 20 19  1  0
 21 22  1  0
 21 20  2  0
 22 23  2  0
 23 24  1  0
 24 16  1  0
 25 32  1  0
 26 25  2  0
 28 27  1  6
 28 30  1  0
 29 28  1  0
 31 33  1  0
 31 30  1  1
 32 31  1  0
 33 34  1  0
 35 33  2  0
M  END
$$$$
