YWL.pdb
     RDKit          3D

 35 37  0  0  1  0  0  0  0  0999 V2000
   30.9071  -16.7188  -19.2656 O   0  0  0  0  0  0  0  0  0  0  0  0
   30.1365  -17.3307  -18.2867 C   0  0  0  0  0  0  0  0  0  0  0  0
   30.6004  -17.4541  -16.9980 C   0  0  0  0  0  0  0  0  0  0  0  0
   29.8319  -18.0619  -16.0314 C   0  0  0  0  0  0  0  0  0  0  0  0
   28.5782  -18.5686  -16.3051 C   0  0  0  0  0  0  0  0  0  0  0  0
   27.7317  -19.2196  -15.3027 C   0  0  0  0  0  0  0  0  0  0  0  0
   28.1860  -20.6081  -14.9266 C   0  0  2  0  0  0  0  0  0  0  0  0
   27.9296  -21.5200  -16.0075 N   0  0  0  0  0  0  0  0  0  0  0  0
   27.4994  -21.0031  -13.6707 C   0  0  0  0  0  0  0  0  0  0  0  0
   26.4133  -21.6333  -13.7431 O   0  0  0  0  0  0  0  0  0  0  0  0
   28.1100  -18.4457  -17.5992 C   0  0  0  0  0  0  0  0  0  0  0  0
   28.8854  -17.8313  -18.5787 C   0  0  0  0  0  0  0  0  0  0  0  0
   27.9920  -20.7138  -12.3680 N   0  0  0  0  0  0  0  0  0  0  0  0
   27.2357  -20.8946  -11.1558 C   0  0  1  0  0  0  0  0  0  0  0  0
   27.8929  -20.4191   -9.9099 C   0  0  0  0  0  0  0  0  0  0  0  0
   27.0876  -20.3946   -8.6996 C   0  0  0  0  0  0  0  0  0  0  0  0
   25.7051  -20.4637   -8.6565 C   0  0  0  0  0  0  0  0  0  0  0  0
   25.2955  -20.4013   -7.3742 N   0  0  0  0  0  0  0  0  0  0  0  0
   26.3740  -20.2916   -6.5497 C   0  0  0  0  0  0  0  0  0  0  0  0
   26.4657  -20.2016   -5.1824 C   0  0  0  0  0  0  0  0  0  0  0  0
   27.6970  -20.1035   -4.5867 C   0  0  0  0  0  0  0  0  0  0  0  0
   28.8055  -20.1002   -5.4070 C   0  0  0  0  0  0  0  0  0  0  0  0
   28.7051  -20.1906   -6.7763 C   0  0  0  0  0  0  0  0  0  0  0  0
   27.4851  -20.2891   -7.3933 C   0  0  0  0  0  0  0  0  0  0  0  0
   25.8693  -20.3244  -11.3656 C   0  0  0  0  0  0  0  0  0  0  0  0
   25.7008  -19.0893  -11.5234 O   0  0  0  0  0  0  0  0  0  0  0  0
   21.1582  -21.8786  -14.7150 C   0  0  0  0  0  0  0  0  0  0  0  0
   21.7051  -20.9085  -13.6635 C   0  0  2  0  0  0  0  0  0  0  0  0
   21.6972  -19.4969  -14.1657 C   0  0  0  0  0  0  0  0  0  0  0  0
   23.0601  -21.3493  -13.1867 C   0  0  0  0  0  0  0  0  0  0  0  0
   23.4134  -20.7023  -11.9075 C   0  0  2  0  0  0  0  0  0  0  0  0
   24.7082  -21.1390  -11.3976 N   0  0  0  0  0  0  0  0  0  0  0  0
   22.3637  -20.8016  -10.9040 C   0  0  0  0  0  0  0  0  0  0  0  0
   22.3646  -21.8986  -10.0051 O   0  0  0  0  0  0  0  0  0  0  0  0
   21.4215  -20.0075  -10.7261 O   0  0  0  0  0  0  0  0  0  0  0  0
  2  1  1  0
  3  2  2  0
  4  3  1  0
  5  4  2  0
  5 11  1  0
  6  5  1  0
  7  6  1  0
  7  8  1  6
  9 13  1  0
  9  7  1  0
 10  9  2  0
 11 12  2  0
 12  2  1  0
 14 25  1  0
 14 13  1  0
 14 15  1  1
 16 17  2  0
 16 15  1  0
 18 17  1  0
 19 24  2  0
 19 18  1  0
 20 19  1  0
 21 22  1  0
 21 20  2  0
 22 23  2  0
 23 24  1  0
 24 16  1  0
 25 32  1  0
 26 25  2  0
 28 27  1  6
 28 30  1  0
 29 28  1  0
 31 33  1  0
 31 30  1  6
 32 31  1  0
 33 34  1  0
 35 33  2  0
M  END
$$$$
