YWL.pdb
     RDKit          3D

 35 37  0  0  1  0  0  0  0  0999 V2000
   33.5072  -33.5624  -24.3910 O   0  0  0  0  0  0  0  0  0  0  0  0
   32.7496  -33.2991  -23.2581 C   0  0  0  0  0  0  0  0  0  0  0  0
   32.7800  -34.1471  -22.1760 C   0  0  0  0  0  0  0  0  0  0  0  0
   32.0266  -33.8810  -21.0553 C   0  0  0  0  0  0  0  0  0  0  0  0
   31.2172  -32.7674  -20.9655 C   0  0  0  0  0  0  0  0  0  0  0  0
   30.4036  -32.4509  -19.7895 C   0  0  0  0  0  0  0  0  0  0  0  0
   31.0511  -31.4706  -18.8431 C   0  0  2  0  0  0  0  0  0  0  0  0
   31.8742  -32.1710  -17.8957 N   0  0  0  0  0  0  0  0  0  0  0  0
   29.9830  -30.6714  -18.1911 C   0  0  0  0  0  0  0  0  0  0  0  0
   29.5601  -31.0274  -17.0614 O   0  0  0  0  0  0  0  0  0  0  0  0
   31.1851  -31.9139  -22.0515 C   0  0  0  0  0  0  0  0  0  0  0  0
   31.9462  -32.1809  -23.1862 C   0  0  0  0  0  0  0  0  0  0  0  0
   29.3936  -29.5106  -18.7645 N   0  0  0  0  0  0  0  0  0  0  0  0
   28.4488  -28.6611  -18.0864 C   0  0  1  0  0  0  0  0  0  0  0  0
   28.5744  -27.2064  -18.3665 C   0  0  0  0  0  0  0  0  0  0  0  0
   27.5749  -26.3269  -17.7823 C   0  0  0  0  0  0  0  0  0  0  0  0
   27.3759  -26.1306  -16.4260 C   0  0  0  0  0  0  0  0  0  0  0  0
   26.3610  -25.2626  -16.2454 N   0  0  0  0  0  0  0  0  0  0  0  0
   25.8703  -24.8681  -17.4531 C   0  0  0  0  0  0  0  0  0  0  0  0
   24.8546  -24.0042  -17.7818 C   0  0  0  0  0  0  0  0  0  0  0  0
   24.5578  -23.7709  -19.1002 C   0  0  0  0  0  0  0  0  0  0  0  0
   25.3095  -24.4290  -20.0507 C   0  0  0  0  0  0  0  0  0  0  0  0
   26.3255  -25.2933  -19.7131 C   0  0  0  0  0  0  0  0  0  0  0  0
   26.6395  -25.5418  -18.4022 C   0  0  0  0  0  0  0  0  0  0  0  0
   27.0750  -29.1998  -18.3288 C   0  0  0  0  0  0  0  0  0  0  0  0
   26.6889  -29.4892  -19.4890 O   0  0  0  0  0  0  0  0  0  0  0  0
   24.7988  -32.7007  -17.1532 C   0  0  0  0  0  0  0  0  0  0  0  0
   24.8637  -31.7533  -15.9515 C   0  0  2  0  0  0  0  0  0  0  0  0
   24.3278  -32.4042  -14.7130 C   0  0  0  0  0  0  0  0  0  0  0  0
   24.1849  -30.4499  -16.2645 C   0  0  0  0  0  0  0  0  0  0  0  0
   24.7639  -29.8212  -17.4684 C   0  0  2  0  0  0  0  0  0  0  0  0
   26.1496  -29.4096  -17.2743 N   0  0  0  0  0  0  0  0  0  0  0  0
   23.9410  -28.7493  -18.0092 C   0  0  0  0  0  0  0  0  0  0  0  0
   23.2034  -28.9738  -19.1996 O   0  0  0  0  0  0  0  0  0  0  0  0
   23.7951  -27.6069  -17.5362 O   0  0  0  0  0  0  0  0  0  0  0  0
  2  1  1  0
  3  2  2  0
  4  3  1  0
  5  4  2  0
  5 11  1  0
  6  5  1  0
  7  6  1  0
  7  8  1  1
  9 13  1  0
  9  7  1  0
 10  9  2  0
 11 12  2  0
 12  2  1  0
 14 25  1  0
 14 13  1  0
 14 15  1  6
 16 17  2  0
 16 15  1  0
 18 17  1  0
 19 24  2  0
 19 18  1  0
 20 19  1  0
 21 22  1  0
 21 20  2  0
 22 23  2  0
 23 24  1  0
 24 16  1  0
 25 32  1  0
 26 25  2  0
 28 27  1  6
 28 30  1  0
 29 28  1  0
 31 33  1  0
 31 30  1  1
 32 31  1  0
 33 34  1  0
 35 33  2  0
M  END
$$$$
