YWL.pdb
     RDKit          3D

 35 37  0  0  1  0  0  0  0  0999 V2000
   29.0282  -16.6754  -17.8549 O   0  0  0  0  0  0  0  0  0  0  0  0
   28.4946  -17.4194  -16.8117 C   0  0  0  0  0  0  0  0  0  0  0  0
   28.1186  -16.8158  -15.6346 C   0  0  0  0  0  0  0  0  0  0  0  0
   27.5900  -17.5586  -14.6035 C   0  0  0  0  0  0  0  0  0  0  0  0
   27.4148  -18.9236  -14.7002 C   0  0  0  0  0  0  0  0  0  0  0  0
   26.8543  -19.7458  -13.6255 C   0  0  0  0  0  0  0  0  0  0  0  0
   27.8149  -20.0103  -12.4927 C   0  0  2  0  0  0  0  0  0  0  0  0
   28.9000  -20.8347  -12.9494 N   0  0  0  0  0  0  0  0  0  0  0  0
   27.0613  -20.6270  -11.3718 C   0  0  0  0  0  0  0  0  0  0  0  0
   27.2240  -21.8503  -11.1292 O   0  0  0  0  0  0  0  0  0  0  0  0
   27.7918  -19.5322  -15.8819 C   0  0  0  0  0  0  0  0  0  0  0  0
   28.3267  -18.7831  -16.9263 C   0  0  0  0  0  0  0  0  0  0  0  0
   26.1518  -19.9191  -10.5380 N   0  0  0  0  0  0  0  0  0  0  0  0
   25.3476  -20.5307   -9.5117 C   0  0  1  0  0  0  0  0  0  0  0  0
   25.2966  -19.8044   -8.2154 C   0  0  0  0  0  0  0  0  0  0  0  0
   26.5653  -19.4548   -7.5975 C   0  0  0  0  0  0  0  0  0  0  0  0
   27.3655  -18.3849   -7.9622 C   0  0  0  0  0  0  0  0  0  0  0  0
   28.4689  -18.3695   -7.1889 N   0  0  0  0  0  0  0  0  0  0  0  0
   28.4303  -19.4079   -6.3083 C   0  0  0  0  0  0  0  0  0  0  0  0
   29.3103  -19.8018   -5.3304 C   0  0  0  0  0  0  0  0  0  0  0  0
   29.0280  -20.9023   -4.5623 C   0  0  0  0  0  0  0  0  0  0  0  0
   27.8498  -21.5730   -4.8150 C   0  0  0  0  0  0  0  0  0  0  0  0
   26.9734  -21.1718   -5.7968 C   0  0  0  0  0  0  0  0  0  0  0  0
   27.2350  -20.0755   -6.5767 C   0  0  0  0  0  0  0  0  0  0  0  0
   23.9983  -20.8247  -10.0854 C   0  0  0  0  0  0  0  0  0  0  0  0
   23.0465  -21.1852   -9.3487 O   0  0  0  0  0  0  0  0  0  0  0  0
   23.9866  -18.3877  -13.9625 C   0  0  0  0  0  0  0  0  0  0  0  0
   23.2277  -19.7123  -14.0864 C   0  0  2  0  0  0  0  0  0  0  0  0
   22.7428  -19.9354  -15.4863 C   0  0  0  0  0  0  0  0  0  0  0  0
   22.1251  -19.7908  -13.0687 C   0  0  0  0  0  0  0  0  0  0  0  0
   22.3992  -20.8362  -12.0629 C   0  0  2  0  0  0  0  0  0  0  0  0
   23.7275  -20.7121  -11.4734 N   0  0  0  0  0  0  0  0  0  0  0  0
   22.1345  -22.1831  -12.5471 C   0  0  0  0  0  0  0  0  0  0  0  0
   23.1783  -23.1432  -12.5326 O   0  0  0  0  0  0  0  0  0  0  0  0
   21.0570  -22.6197  -12.9923 O   0  0  0  0  0  0  0  0  0  0  0  0
  2  1  1  0
  3  2  2  0
  4  3  1  0
  5  4  2  0
  5 11  1  0
  6  5  1  0
  7  6  1  0
  7  8  1  6
  9 13  1  0
  9  7  1  0
 10  9  2  0
 11 12  2  0
 12  2  1  0
 14 25  1  0
 14 13  1  0
 14 15  1  1
 16 17  2  0
 16 15  1  0
 18 17  1  0
 19 24  2  0
 19 18  1  0
 20 19  1  0
 21 22  1  0
 21 20  2  0
 22 23  2  0
 23 24  1  0
 24 16  1  0
 25 32  1  0
 26 25  2  0
 28 27  1  6
 28 30  1  0
 29 28  1  0
 31 33  1  0
 31 30  1  6
 32 31  1  0
 33 34  1  0
 35 33  2  0
M  END
$$$$
