YWL.pdb
     RDKit          3D

 35 37  0  0  1  0  0  0  0  0999 V2000
   23.0594  -18.3565  -20.7749 O   0  0  0  0  0  0  0  0  0  0  0  0
   23.4739  -19.0624  -19.6540 C   0  0  0  0  0  0  0  0  0  0  0  0
   23.4727  -18.4758  -18.4102 C   0  0  0  0  0  0  0  0  0  0  0  0
   23.8849  -19.1807  -17.3022 C   0  0  0  0  0  0  0  0  0  0  0  0
   24.3124  -20.4897  -17.3853 C   0  0  0  0  0  0  0  0  0  0  0  0
   24.7560  -21.2713  -16.2288 C   0  0  0  0  0  0  0  0  0  0  0  0
   26.0547  -20.7927  -15.6285 C   0  0  2  0  0  0  0  0  0  0  0  0
   27.1574  -21.1869  -16.4617 N   0  0  0  0  0  0  0  0  0  0  0  0
   26.1607  -21.3302  -14.2484 C   0  0  0  0  0  0  0  0  0  0  0  0
   26.5600  -22.5116  -14.0843 O   0  0  0  0  0  0  0  0  0  0  0  0
   24.3144  -21.0812  -18.6340 C   0  0  0  0  0  0  0  0  0  0  0  0
   23.8980  -20.3704  -19.7562 C   0  0  0  0  0  0  0  0  0  0  0  0
   25.8365  -20.5901  -13.0777 N   0  0  0  0  0  0  0  0  0  0  0  0
   26.1209  -21.0287  -11.7357 C   0  0  1  0  0  0  0  0  0  0  0  0
   27.0335  -20.1545  -10.9525 C   0  0  0  0  0  0  0  0  0  0  0  0
   28.4137  -20.5892  -10.8112 C   0  0  0  0  0  0  0  0  0  0  0  0
   29.2953  -20.8071  -11.8568 C   0  0  0  0  0  0  0  0  0  0  0  0
   30.4810  -21.2143  -11.3625 N   0  0  0  0  0  0  0  0  0  0  0  0
   30.4183  -21.2757  -10.0033 C   0  0  0  0  0  0  0  0  0  0  0  0
   31.3586  -21.6271   -9.0663 C   0  0  0  0  0  0  0  0  0  0  0  0
   31.0366  -21.5995   -7.7335 C   0  0  0  0  0  0  0  0  0  0  0  0
   29.7577  -21.2120   -7.3929 C   0  0  0  0  0  0  0  0  0  0  0  0
   28.8212  -20.8614   -8.3380 C   0  0  0  0  0  0  0  0  0  0  0  0
   29.1206  -20.8820   -9.6753 C   0  0  0  0  0  0  0  0  0  0  0  0
   24.8226  -21.3061  -11.0475 C   0  0  0  0  0  0  0  0  0  0  0  0
   24.7907  -21.6431   -9.8374 O   0  0  0  0  0  0  0  0  0  0  0  0
   22.1755  -21.0007  -13.9758 C   0  0  0  0  0  0  0  0  0  0  0  0
   21.6067  -19.6579  -13.5076 C   0  0  2  0  0  0  0  0  0  0  0  0
   21.6430  -18.6371  -14.6036 C   0  0  0  0  0  0  0  0  0  0  0  0
   22.2984  -19.1942  -12.2569 C   0  0  0  0  0  0  0  0  0  0  0  0
   22.4974  -20.3101  -11.3109 C   0  0  2  0  0  0  0  0  0  0  0  0
   23.5762  -21.2036  -11.7173 N   0  0  0  0  0  0  0  0  0  0  0  0
   21.2701  -21.0308  -11.0059 C   0  0  0  0  0  0  0  0  0  0  0  0
   21.2277  -22.4368  -11.1872 O   0  0  0  0  0  0  0  0  0  0  0  0
   20.2031  -20.5465  -10.5853 O   0  0  0  0  0  0  0  0  0  0  0  0
  2  1  1  0
  3  2  2  0
  4  3  1  0
  5  4  2  0
  5 11  1  0
  6  5  1  0
  7  6  1  0
  7  8  1  6
  9 13  1  0
  9  7  1  0
 10  9  2  0
 11 12  2  0
 12  2  1  0
 14 25  1  0
 14 13  1  0
 14 15  1  1
 16 17  2  0
 16 15  1  0
 18 17  1  0
 19 24  2  0
 19 18  1  0
 20 19  1  0
 21 22  1  0
 21 20  2  0
 22 23  2  0
 23 24  1  0
 24 16  1  0
 25 32  1  0
 26 25  2  0
 28 27  1  6
 28 30  1  0
 29 28  1  0
 31 33  1  0
 31 30  1  6
 32 31  1  0
 33 34  1  0
 35 33  2  0
M  END
$$$$
