FPQ.pdb
     RDKit          3D

 28 29  0  0  1  0  0  0  0  0999 V2000
   26.9051  -20.3591  -17.1133 N   0  0  0  0  0  0  0  0  0  0  0  0
   27.5550  -19.7121  -16.0371 C   0  0  1  0  0  0  0  0  0  0  0  0
   27.1021  -18.2973  -15.8328 C   0  0  0  0  0  0  0  0  0  0  0  0
   27.4978  -17.4614  -16.9636 C   0  0  0  0  0  0  0  0  0  0  0  0
   26.4697  -16.8304  -17.6687 C   0  0  0  0  0  0  0  0  0  0  0  0
   26.7993  -16.0491  -18.7407 C   0  0  0  0  0  0  0  0  0  0  0  0
   28.0920  -15.8570  -19.1542 C   0  0  0  0  0  0  0  0  0  0  0  0
   29.0828  -16.4870  -18.4461 C   0  0  0  0  0  0  0  0  0  0  0  0
   28.7992  -17.2935  -17.3473 C   0  0  0  0  0  0  0  0  0  0  0  0
   27.3000  -20.4395  -14.7700 C   0  0  0  0  0  0  0  0  0  0  0  0
   26.2468  -21.1676  -14.6524 O   0  0  0  0  0  0  0  0  0  0  0  0
   28.1756  -20.3736  -13.6529 N   0  0  0  0  0  0  0  0  0  0  0  0
   29.3891  -19.6141  -13.5709 C   0  0  0  0  0  0  0  0  0  0  0  0
   29.9730  -19.8657  -12.1759 C   0  0  0  0  0  0  0  0  0  0  0  0
   29.3291  -21.2051  -11.8180 C   0  0  0  0  0  0  0  0  0  0  0  0
   27.9565  -21.0849  -12.4003 C   0  0  1  0  0  0  0  0  0  0  0  0
   27.0681  -20.2725  -11.5504 C   0  0  0  0  0  0  0  0  0  0  0  0
   27.0395  -19.0274  -11.7082 O   0  0  0  0  0  0  0  0  0  0  0  0
   21.5239  -20.1014  -11.2008 N   0  0  0  0  0  0  0  0  0  0  0  0
   22.3745  -20.9410  -11.9518 C   0  0  0  0  0  0  0  0  0  0  0  0
   21.8571  -21.7872  -12.7315 O   0  0  0  0  0  0  0  0  0  0  0  0
   23.8302  -20.7994  -11.7986 C   0  0  0  0  0  0  0  0  0  0  0  0
   24.1640  -19.6679  -10.8254 C   0  0  0  0  0  0  0  0  0  0  0  0
   25.2316  -20.1269   -9.8425 C   0  0  2  0  0  0  0  0  0  0  0  0
   26.2317  -20.8782  -10.5423 N   0  0  0  0  0  0  0  0  0  0  0  0
   24.6360  -20.8998   -8.7268 C   0  0  0  0  0  0  0  0  0  0  0  0
   23.7442  -20.3350   -7.8215 O   0  0  0  0  0  0  0  0  0  0  0  0
   24.9268  -22.1100   -8.5662 O   0  0  0  0  0  0  0  0  0  0  0  0
  2  1  1  6
  2  3  1  0
  4  3  1  0
  5  4  2  0
  6  5  1  0
  7  6  2  0
  7  8  1  0
  8  9  2  0
  9  4  1  0
 10 11  2  0
 10  2  1  0
 12 10  1  0
 13 12  1  0
 14 13  1  0
 15 14  1  0
 15 16  1  0
 16 12  1  0
 17 18  2  0
 16 17  1  1
 20 19  1  0
 21 20  2  0
 22 20  1  0
 23 22  1  0
 24 23  1  6
 24 25  1  0
 25 17  1  0
 26 24  1  0
 27 26  1  0
 28 26  2  0
M  END
$$$$
