FPQ.pdb
     RDKit          3D

 28 29  0  0  1  0  0  0  0  0999 V2000
   25.8189  -18.6142  -16.8957 N   0  0  0  0  0  0  0  0  0  0  0  0
   25.7058  -18.5668  -15.4871 C   0  0  1  0  0  0  0  0  0  0  0  0
   24.8648  -17.4266  -14.9961 C   0  0  0  0  0  0  0  0  0  0  0  0
   25.4653  -16.1472  -15.3654 C   0  0  0  0  0  0  0  0  0  0  0  0
   26.7119  -15.8535  -14.8067 C   0  0  0  0  0  0  0  0  0  0  0  0
   27.3008  -14.6602  -15.1191 C   0  0  0  0  0  0  0  0  0  0  0  0
   26.7238  -13.7400  -15.9552 C   0  0  0  0  0  0  0  0  0  0  0  0
   25.5005  -14.0514  -16.4906 C   0  0  0  0  0  0  0  0  0  0  0  0
   24.8590  -15.2531  -16.2033 C   0  0  0  0  0  0  0  0  0  0  0  0
   25.0882  -19.8156  -14.9783 C   0  0  0  0  0  0  0  0  0  0  0  0
   24.2619  -20.4667  -15.7177 O   0  0  0  0  0  0  0  0  0  0  0  0
   25.3655  -20.3436  -13.6887 N   0  0  0  0  0  0  0  0  0  0  0  0
   26.2201  -19.7563  -12.6983 C   0  0  0  0  0  0  0  0  0  0  0  0
   26.1964  -20.6926  -11.4846 C   0  0  0  0  0  0  0  0  0  0  0  0
   25.7863  -22.0146  -12.1332 C   0  0  0  0  0  0  0  0  0  0  0  0
   24.8039  -21.5868  -13.1771 C   0  0  1  0  0  0  0  0  0  0  0  0
   23.4790  -21.2989  -12.5998 C   0  0  0  0  0  0  0  0  0  0  0  0
   23.3164  -20.2473  -11.9336 O   0  0  0  0  0  0  0  0  0  0  0  0
   20.5063  -18.0574  -13.4052 N   0  0  0  0  0  0  0  0  0  0  0  0
   19.3321  -18.7985  -13.6591 C   0  0  0  0  0  0  0  0  0  0  0  0
   18.2145  -18.2294  -13.5223 O   0  0  0  0  0  0  0  0  0  0  0  0
   19.4536  -20.2043  -14.0730 C   0  0  0  0  0  0  0  0  0  0  0  0
   20.9021  -20.6800  -13.9535 C   0  0  0  0  0  0  0  0  0  0  0  0
   21.0160  -21.7244  -12.8522 C   0  0  2  0  0  0  0  0  0  0  0  0
   22.3666  -22.1995  -12.7845 N   0  0  0  0  0  0  0  0  0  0  0  0
   20.0487  -22.8283  -13.0585 C   0  0  0  0  0  0  0  0  0  0  0  0
   18.8086  -22.8597  -12.4302 O   0  0  0  0  0  0  0  0  0  0  0  0
   20.3293  -23.7842  -13.8218 O   0  0  0  0  0  0  0  0  0  0  0  0
  2  1  1  6
  2  3  1  0
  4  3  1  0
  5  4  2  0
  6  5  1  0
  7  6  2  0
  7  8  1  0
  8  9  2  0
  9  4  1  0
 10 11  2  0
 10  2  1  0
 12 10  1  0
 13 12  1  0
 14 13  1  0
 15 14  1  0
 15 16  1  0
 16 12  1  0
 17 18  2  0
 16 17  1  1
 20 19  1  0
 21 20  2  0
 22 20  1  0
 23 22  1  0
 24 23  1  6
 24 25  1  0
 25 17  1  0
 26 24  1  0
 27 26  1  0
 28 26  2  0
M  END
$$$$
