FPQ.pdb
     RDKit          3D

 28 29  0  0  1  0  0  0  0  0999 V2000
   27.3956  -20.6734  -15.6797 N   0  0  0  0  0  0  0  0  0  0  0  0
   26.6385  -20.0149  -14.6835 C   0  0  1  0  0  0  0  0  0  0  0  0
   25.5939  -19.0951  -15.2412 C   0  0  0  0  0  0  0  0  0  0  0  0
   26.2009  -17.8549  -15.7178 C   0  0  0  0  0  0  0  0  0  0  0  0
   26.4521  -16.8695  -14.7595 C   0  0  0  0  0  0  0  0  0  0  0  0
   27.0087  -15.6900  -15.1686 C   0  0  0  0  0  0  0  0  0  0  0  0
   27.3312  -15.4312  -16.4755 C   0  0  0  0  0  0  0  0  0  0  0  0
   27.0749  -16.4138  -17.3968 C   0  0  0  0  0  0  0  0  0  0  0  0
   26.5089  -17.6320  -17.0310 C   0  0  0  0  0  0  0  0  0  0  0  0
   25.9377  -21.0059  -13.8310 C   0  0  0  0  0  0  0  0  0  0  0  0
   25.5544  -22.1247  -14.3356 O   0  0  0  0  0  0  0  0  0  0  0  0
   25.6596  -20.7810  -12.4559 N   0  0  0  0  0  0  0  0  0  0  0  0
   25.9823  -19.6009  -11.7080 C   0  0  0  0  0  0  0  0  0  0  0  0
   25.4826  -19.8353  -10.2777 C   0  0  0  0  0  0  0  0  0  0  0  0
   25.4468  -21.3623  -10.2186 C   0  0  0  0  0  0  0  0  0  0  0  0
   24.9875  -21.7416  -11.5908 C   0  0  1  0  0  0  0  0  0  0  0  0
   23.5319  -21.5750  -11.7488 C   0  0  0  0  0  0  0  0  0  0  0  0
   23.0710  -20.4386  -12.0175 O   0  0  0  0  0  0  0  0  0  0  0  0
   19.2429  -24.3692   -8.4024 N   0  0  0  0  0  0  0  0  0  0  0  0
   18.4501  -23.5439   -9.2287 C   0  0  0  0  0  0  0  0  0  0  0  0
   17.2240  -23.4158   -8.9602 O   0  0  0  0  0  0  0  0  0  0  0  0
   19.0806  -22.8643  -10.3702 C   0  0  0  0  0  0  0  0  0  0  0  0
   20.5904  -23.1075  -10.3777 C   0  0  0  0  0  0  0  0  0  0  0  0
   21.2051  -22.5153  -11.6379 C   0  0  2  0  0  0  0  0  0  0  0  0
   22.6273  -22.6896  -11.6012 N   0  0  0  0  0  0  0  0  0  0  0  0
   20.8240  -21.0924  -11.8024 C   0  0  0  0  0  0  0  0  0  0  0  0
   20.1651  -20.6232  -12.9335 O   0  0  0  0  0  0  0  0  0  0  0  0
   21.0916  -20.2557  -10.9060 O   0  0  0  0  0  0  0  0  0  0  0  0
  2  1  1  6
  2  3  1  0
  4  3  1  0
  5  4  2  0
  6  5  1  0
  7  6  2  0
  7  8  1  0
  8  9  2  0
  9  4  1  0
 10 11  2  0
 10  2  1  0
 12 10  1  0
 13 12  1  0
 14 13  1  0
 15 14  1  0
 15 16  1  0
 16 12  1  0
 17 18  2  0
 16 17  1  1
 20 19  1  0
 21 20  2  0
 22 20  1  0
 23 22  1  0
 24 23  1  1
 24 25  1  0
 25 17  1  0
 26 24  1  0
 27 26  1  0
 28 26  2  0
M  END
$$$$
