FPQ.pdb
     RDKit          3D

 28 29  0  0  1  0  0  0  0  0999 V2000
   27.5408  -35.7749   -6.5881 N   0  0  0  0  0  0  0  0  0  0  0  0
   28.6661  -34.9742   -6.2854 C   0  0  1  0  0  0  0  0  0  0  0  0
   28.3089  -33.5762   -5.8774 C   0  0  0  0  0  0  0  0  0  0  0  0
   27.4612  -32.9459   -6.8863 C   0  0  0  0  0  0  0  0  0  0  0  0
   28.0716  -32.6052   -8.0962 C   0  0  0  0  0  0  0  0  0  0  0  0
   27.3137  -32.0027   -9.0610 C   0  0  0  0  0  0  0  0  0  0  0  0
   25.9832  -31.7182   -8.8949 C   0  0  0  0  0  0  0  0  0  0  0  0
   25.4074  -32.0621   -7.6989 C   0  0  0  0  0  0  0  0  0  0  0  0
   26.1361  -32.6770   -6.6845 C   0  0  0  0  0  0  0  0  0  0  0  0
   29.4369  -35.5718   -5.1678 C   0  0  0  0  0  0  0  0  0  0  0  0
   28.8277  -36.2577   -4.2670 O   0  0  0  0  0  0  0  0  0  0  0  0
   30.8437  -35.4236   -5.0350 N   0  0  0  0  0  0  0  0  0  0  0  0
   31.6796  -34.5459   -5.8012 C   0  0  0  0  0  0  0  0  0  0  0  0
   33.1116  -34.7445   -5.2911 C   0  0  0  0  0  0  0  0  0  0  0  0
   33.0222  -36.1438   -4.6824 C   0  0  0  0  0  0  0  0  0  0  0  0
   31.6554  -36.1597   -4.0747 C   0  0  1  0  0  0  0  0  0  0  0  0
   31.6184  -35.4455   -2.7863 C   0  0  0  0  0  0  0  0  0  0  0  0
   31.4102  -34.2075   -2.7778 O   0  0  0  0  0  0  0  0  0  0  0  0
   28.4793  -36.1128    3.4284 N   0  0  0  0  0  0  0  0  0  0  0  0
   28.6235  -35.6146    2.1156 C   0  0  0  0  0  0  0  0  0  0  0  0
   27.5909  -35.4690    1.4055 O   0  0  0  0  0  0  0  0  0  0  0  0
   29.9694  -35.2839    1.6239 C   0  0  0  0  0  0  0  0  0  0  0  0
   30.2272  -35.9432    0.2684 C   0  0  0  0  0  0  0  0  0  0  0  0
   31.5784  -35.5011   -0.2750 C   0  0  2  0  0  0  0  0  0  0  0  0
   31.8162  -36.1391   -1.5363 N   0  0  0  0  0  0  0  0  0  0  0  0
   32.6626  -35.7735    0.6982 C   0  0  0  0  0  0  0  0  0  0  0  0
   33.1678  -34.7929    1.5449 O   0  0  0  0  0  0  0  0  0  0  0  0
   33.1639  -36.9207    0.7858 O   0  0  0  0  0  0  0  0  0  0  0  0
  2  1  1  1
  2  3  1  0
  4  3  1  0
  5  4  2  0
  6  5  1  0
  7  6  2  0
  7  8  1  0
  8  9  2  0
  9  4  1  0
 10 11  2  0
 10  2  1  0
 12 10  1  0
 13 12  1  0
 14 13  1  0
 15 14  1  0
 15 16  1  0
 16 12  1  0
 17 18  2  0
 16 17  1  1
 20 19  1  0
 21 20  2  0
 22 20  1  0
 23 22  1  0
 24 23  1  1
 24 25  1  0
 25 17  1  0
 26 24  1  0
 27 26  1  0
 28 26  2  0
M  END
$$$$
