FPQ.pdb
     RDKit          3D

 28 29  0  0  1  0  0  0  0  0999 V2000
   25.2137  -19.2590   -8.1839 N   0  0  0  0  0  0  0  0  0  0  0  0
   26.4309  -19.6494   -8.7880 C   0  0  1  0  0  0  0  0  0  0  0  0
   27.1016  -20.7940   -8.0890 C   0  0  0  0  0  0  0  0  0  0  0  0
   27.6774  -20.3563   -6.8198 C   0  0  0  0  0  0  0  0  0  0  0  0
   26.9806  -20.7050   -5.6600 C   0  0  0  0  0  0  0  0  0  0  0  0
   27.4817  -20.3033   -4.4535 C   0  0  0  0  0  0  0  0  0  0  0  0
   28.6362  -19.5746   -4.3307 C   0  0  0  0  0  0  0  0  0  0  0  0
   29.3016  -19.2448   -5.4833 C   0  0  0  0  0  0  0  0  0  0  0  0
   28.8324  -19.6295   -6.7363 C   0  0  0  0  0  0  0  0  0  0  0  0
   26.1970  -20.0711  -10.1906 C   0  0  0  0  0  0  0  0  0  0  0  0
   24.9945  -20.2256  -10.6189 O   0  0  0  0  0  0  0  0  0  0  0  0
   27.2533  -20.3201  -11.1077 N   0  0  0  0  0  0  0  0  0  0  0  0
   28.5479  -20.8465  -10.7867 C   0  0  0  0  0  0  0  0  0  0  0  0
   29.3275  -20.9328  -12.1040 C   0  0  0  0  0  0  0  0  0  0  0  0
   28.5928  -19.8981  -12.9561 C   0  0  0  0  0  0  0  0  0  0  0  0
   27.1662  -20.0718  -12.5408 C   0  0  1  0  0  0  0  0  0  0  0  0
   26.5461  -21.2448  -13.1819 C   0  0  0  0  0  0  0  0  0  0  0  0
   26.7868  -22.3900  -12.7275 O   0  0  0  0  0  0  0  0  0  0  0  0
   21.3958  -22.1365  -12.1474 N   0  0  0  0  0  0  0  0  0  0  0  0
   21.6987  -20.9176  -12.7917 C   0  0  0  0  0  0  0  0  0  0  0  0
   20.9501  -19.9225  -12.5894 O   0  0  0  0  0  0  0  0  0  0  0  0
   22.8737  -20.8518  -13.6735 C   0  0  0  0  0  0  0  0  0  0  0  0
   23.6085  -22.1928  -13.6964 C   0  0  0  0  0  0  0  0  0  0  0  0
   24.7537  -22.1399  -14.6975 C   0  0  2  0  0  0  0  0  0  0  0  0
   25.6692  -21.1039  -14.3194 N   0  0  0  0  0  0  0  0  0  0  0  0
   24.2495  -21.9581  -16.0794 C   0  0  0  0  0  0  0  0  0  0  0  0
   24.5580  -20.8384  -16.8441 O   0  0  0  0  0  0  0  0  0  0  0  0
   23.5152  -22.8285  -16.6071 O   0  0  0  0  0  0  0  0  0  0  0  0
  2  1  1  1
  2  3  1  0
  4  3  1  0
  5  4  2  0
  6  5  1  0
  7  6  2  0
  7  8  1  0
  8  9  2  0
  9  4  1  0
 10 11  2  0
 10  2  1  0
 12 10  1  0
 13 12  1  0
 14 13  1  0
 15 14  1  0
 15 16  1  0
 16 12  1  0
 17 18  2  0
 16 17  1  6
 20 19  1  0
 21 20  2  0
 22 20  1  0
 23 22  1  0
 24 23  1  1
 24 25  1  0
 25 17  1  0
 26 24  1  0
 27 26  1  0
 28 26  2  0
M  END
$$$$
