FPQ.pdb
     RDKit          3D

 28 29  0  0  1  0  0  0  0  0999 V2000
   27.0319  -20.8448  -16.8047 N   0  0  0  0  0  0  0  0  0  0  0  0
   27.0264  -20.2701  -15.5129 C   0  0  1  0  0  0  0  0  0  0  0  0
   26.7591  -18.7946  -15.5195 C   0  0  0  0  0  0  0  0  0  0  0  0
   27.7813  -18.0894  -16.2887 C   0  0  0  0  0  0  0  0  0  0  0  0
   29.1124  -18.3577  -15.9593 C   0  0  0  0  0  0  0  0  0  0  0  0
   30.0977  -17.7083  -16.6490 C   0  0  0  0  0  0  0  0  0  0  0  0
   29.8385  -16.8066  -17.6484 C   0  0  0  0  0  0  0  0  0  0  0  0
   28.5245  -16.5603  -17.9528 C   0  0  0  0  0  0  0  0  0  0  0  0
   27.4845  -17.1955  -17.2796 C   0  0  0  0  0  0  0  0  0  0  0  0
   25.9777  -20.9000  -14.6742 C   0  0  0  0  0  0  0  0  0  0  0  0
   24.9515  -21.4377  -15.2318 O   0  0  0  0  0  0  0  0  0  0  0  0
   26.0463  -20.9419  -13.2556 N   0  0  0  0  0  0  0  0  0  0  0  0
   27.1092  -20.4263  -12.4429 C   0  0  0  0  0  0  0  0  0  0  0  0
   26.7259  -20.7080  -10.9854 C   0  0  0  0  0  0  0  0  0  0  0  0
   25.7548  -21.8768  -11.1509 C   0  0  0  0  0  0  0  0  0  0  0  0
   25.0183  -21.5275  -12.4052 C   0  0  1  0  0  0  0  0  0  0  0  0
   23.9757  -20.5139  -12.1662 C   0  0  0  0  0  0  0  0  0  0  0  0
   24.2996  -19.3021  -12.1157 O   0  0  0  0  0  0  0  0  0  0  0  0
   21.8770  -20.3328  -16.8433 N   0  0  0  0  0  0  0  0  0  0  0  0
   20.7603  -19.6407  -16.3273 C   0  0  0  0  0  0  0  0  0  0  0  0
   19.9001  -19.1910  -17.1332 O   0  0  0  0  0  0  0  0  0  0  0  0
   20.6400  -19.4691  -14.8717 C   0  0  0  0  0  0  0  0  0  0  0  0
   21.7971  -20.1594  -14.1483 C   0  0  0  0  0  0  0  0  0  0  0  0
   21.5331  -20.1808  -12.6495 C   0  0  2  0  0  0  0  0  0  0  0  0
   22.5925  -20.8854  -11.9895 N   0  0  0  0  0  0  0  0  0  0  0  0
   20.2049  -20.7655  -12.3477 C   0  0  0  0  0  0  0  0  0  0  0  0
   19.1280  -19.9920  -11.9285 O   0  0  0  0  0  0  0  0  0  0  0  0
   20.0131  -22.0002  -12.4651 O   0  0  0  0  0  0  0  0  0  0  0  0
  2  1  1  6
  2  3  1  0
  4  3  1  0
  5  4  2  0
  6  5  1  0
  7  6  2  0
  7  8  1  0
  8  9  2  0
  9  4  1  0
 10 11  2  0
 10  2  1  0
 12 10  1  0
 13 12  1  0
 14 13  1  0
 15 14  1  0
 15 16  1  0
 16 12  1  0
 17 18  2  0
 16 17  1  1
 20 19  1  0
 21 20  2  0
 22 20  1  0
 23 22  1  0
 24 23  1  6
 24 25  1  0
 25 17  1  0
 26 24  1  0
 27 26  1  0
 28 26  2  0
M  END
$$$$
