FPQ.pdb
     RDKit          3D

 28 29  0  0  1  0  0  0  0  0999 V2000
   27.7489  -21.3270  -15.7379 N   0  0  0  0  0  0  0  0  0  0  0  0
   27.1704  -20.5042  -14.7442 C   0  0  1  0  0  0  0  0  0  0  0  0
   26.4339  -19.3241  -15.3039 C   0  0  0  0  0  0  0  0  0  0  0  0
   27.3663  -18.3692  -15.8976 C   0  0  0  0  0  0  0  0  0  0  0  0
   27.5581  -18.4540  -17.2790 C   0  0  0  0  0  0  0  0  0  0  0  0
   28.4322  -17.5849  -17.8698 C   0  0  0  0  0  0  0  0  0  0  0  0
   29.1280  -16.6349  -17.1683 C   0  0  0  0  0  0  0  0  0  0  0  0
   28.9226  -16.5718  -15.8140 C   0  0  0  0  0  0  0  0  0  0  0  0
   28.0435  -17.4344  -15.1650 C   0  0  0  0  0  0  0  0  0  0  0  0
   26.2001  -21.2806  -13.9344 C   0  0  0  0  0  0  0  0  0  0  0  0
   25.6131  -22.3027  -14.4480 O   0  0  0  0  0  0  0  0  0  0  0  0
   25.8759  -20.9485  -12.5915 N   0  0  0  0  0  0  0  0  0  0  0  0
   26.5610  -19.9985  -11.7643 C   0  0  0  0  0  0  0  0  0  0  0  0
   25.8417  -19.9935  -10.4104 C   0  0  0  0  0  0  0  0  0  0  0  0
   25.1776  -21.3702  -10.4181 C   0  0  0  0  0  0  0  0  0  0  0  0
   24.7714  -21.5399  -11.8478 C   0  0  1  0  0  0  0  0  0  0  0  0
   23.5417  -20.7912  -12.1623 C   0  0  0  0  0  0  0  0  0  0  0  0
   23.5584  -19.5370  -12.1121 O   0  0  0  0  0  0  0  0  0  0  0  0
   20.4881  -21.2706  -17.0845 N   0  0  0  0  0  0  0  0  0  0  0  0
   20.5585  -22.4427  -16.3010 C   0  0  0  0  0  0  0  0  0  0  0  0
   20.4719  -23.5624  -16.8757 O   0  0  0  0  0  0  0  0  0  0  0  0
   20.7299  -22.3165  -14.8459 C   0  0  0  0  0  0  0  0  0  0  0  0
   21.0092  -20.8637  -14.4582 C   0  0  0  0  0  0  0  0  0  0  0  0
   21.1559  -20.7488  -12.9477 C   0  0  2  0  0  0  0  0  0  0  0  0
   22.3210  -21.4694  -12.5262 N   0  0  0  0  0  0  0  0  0  0  0  0
   19.9325  -21.2162  -12.2534 C   0  0  0  0  0  0  0  0  0  0  0  0
   18.7253  -20.5300  -12.3275 O   0  0  0  0  0  0  0  0  0  0  0  0
   19.9544  -22.2658  -11.5658 O   0  0  0  0  0  0  0  0  0  0  0  0
  2  1  1  6
  2  3  1  0
  4  3  1  0
  5  4  2  0
  6  5  1  0
  7  6  2  0
  7  8  1  0
  8  9  2  0
  9  4  1  0
 10 11  2  0
 10  2  1  0
 12 10  1  0
 13 12  1  0
 14 13  1  0
 15 14  1  0
 15 16  1  0
 16 12  1  0
 17 18  2  0
 16 17  1  1
 20 19  1  0
 21 20  2  0
 22 20  1  0
 23 22  1  0
 24 23  1  6
 24 25  1  0
 25 17  1  0
 26 24  1  0
 27 26  1  0
 28 26  2  0
M  END
$$$$
