FPQ.pdb
     RDKit          3D

 28 29  0  0  1  0  0  0  0  0999 V2000
   27.0279  -20.7130  -16.0942 N   0  0  0  0  0  0  0  0  0  0  0  0
   26.8556  -20.1000  -14.8318 C   0  0  1  0  0  0  0  0  0  0  0  0
   26.4779  -18.6516  -14.9206 C   0  0  0  0  0  0  0  0  0  0  0  0
   27.4819  -17.9025  -15.6720 C   0  0  0  0  0  0  0  0  0  0  0  0
   27.0097  -16.9147  -16.5401 C   0  0  0  0  0  0  0  0  0  0  0  0
   27.9182  -16.2001  -17.2696 C   0  0  0  0  0  0  0  0  0  0  0  0
   29.2704  -16.4090  -17.1875 C   0  0  0  0  0  0  0  0  0  0  0  0
   29.7089  -17.3838  -16.3287 C   0  0  0  0  0  0  0  0  0  0  0  0
   28.8240  -18.1393  -15.5642 C   0  0  0  0  0  0  0  0  0  0  0  0
   25.7834  -20.7849  -14.0695 C   0  0  0  0  0  0  0  0  0  0  0  0
   24.9168  -21.5031  -14.6911 O   0  0  0  0  0  0  0  0  0  0  0  0
   25.6582  -20.6880  -12.6575 N   0  0  0  0  0  0  0  0  0  0  0  0
   26.5153  -19.9458  -11.7797 C   0  0  0  0  0  0  0  0  0  0  0  0
   25.9749  -20.1500  -10.3595 C   0  0  0  0  0  0  0  0  0  0  0  0
   25.2079  -21.4629  -10.5161 C   0  0  0  0  0  0  0  0  0  0  0  0
   24.6127  -21.3440  -11.8833 C   0  0  1  0  0  0  0  0  0  0  0  0
   23.4166  -20.4833  -11.8890 C   0  0  0  0  0  0  0  0  0  0  0  0
   23.5462  -19.2530  -11.6753 O   0  0  0  0  0  0  0  0  0  0  0  0
   20.3957  -19.0405  -16.2682 N   0  0  0  0  0  0  0  0  0  0  0  0
   20.2672  -20.4162  -15.9792 C   0  0  0  0  0  0  0  0  0  0  0  0
   19.9844  -21.2092  -16.9187 O   0  0  0  0  0  0  0  0  0  0  0  0
   20.4673  -20.8744  -14.5963 C   0  0  0  0  0  0  0  0  0  0  0  0
   20.8097  -19.6980  -13.6810 C   0  0  0  0  0  0  0  0  0  0  0  0
   20.9481  -20.1815  -12.2445 C   0  0  2  0  0  0  0  0  0  0  0  0
   22.1018  -21.0249  -12.1350 N   0  0  0  0  0  0  0  0  0  0  0  0
   19.7149  -20.8655  -11.7881 C   0  0  0  0  0  0  0  0  0  0  0  0
   19.6615  -22.2375  -11.5681 O   0  0  0  0  0  0  0  0  0  0  0  0
   18.6640  -20.2105  -11.5838 O   0  0  0  0  0  0  0  0  0  0  0  0
  2  1  1  6
  2  3  1  0
  4  3  1  0
  5  4  2  0
  6  5  1  0
  7  6  2  0
  7  8  1  0
  8  9  2  0
  9  4  1  0
 10 11  2  0
 10  2  1  0
 12 10  1  0
 13 12  1  0
 14 13  1  0
 15 14  1  0
 15 16  1  0
 16 12  1  0
 17 18  2  0
 16 17  1  1
 20 19  1  0
 21 20  2  0
 22 20  1  0
 23 22  1  0
 24 23  1  6
 24 25  1  0
 25 17  1  0
 26 24  1  0
 27 26  1  0
 28 26  2  0
M  END
$$$$
