FPQ.pdb
     RDKit          3D

 28 29  0  0  1  0  0  0  0  0999 V2000
   27.4677  -17.8903  -17.1524 N   0  0  0  0  0  0  0  0  0  0  0  0
   27.5037  -18.1175  -15.7573 C   0  0  1  0  0  0  0  0  0  0  0  0
   27.2104  -16.8902  -14.9472 C   0  0  0  0  0  0  0  0  0  0  0  0
   26.0341  -16.1982  -15.4681 C   0  0  0  0  0  0  0  0  0  0  0  0
   24.8548  -16.3196  -14.7286 C   0  0  0  0  0  0  0  0  0  0  0  0
   23.7295  -15.6958  -15.1901 C   0  0  0  0  0  0  0  0  0  0  0  0
   23.7065  -14.9573  -16.3446 C   0  0  0  0  0  0  0  0  0  0  0  0
   24.8761  -14.8533  -17.0524 C   0  0  0  0  0  0  0  0  0  0  0  0
   26.0489  -15.4699  -16.6250 C   0  0  0  0  0  0  0  0  0  0  0  0
   26.5007  -19.1418  -15.3769 C   0  0  0  0  0  0  0  0  0  0  0  0
   25.5860  -19.4818  -16.2141 O   0  0  0  0  0  0  0  0  0  0  0  0
   26.4949  -19.7821  -14.1085 N   0  0  0  0  0  0  0  0  0  0  0  0
   27.2611  -19.3946  -12.9600 C   0  0  0  0  0  0  0  0  0  0  0  0
   26.9138  -20.3863  -11.8436 C   0  0  0  0  0  0  0  0  0  0  0  0
   26.4225  -21.5876  -12.6511 C   0  0  0  0  0  0  0  0  0  0  0  0
   25.6867  -20.9510  -13.7874 C   0  0  1  0  0  0  0  0  0  0  0  0
   24.3440  -20.4954  -13.3862 C   0  0  0  0  0  0  0  0  0  0  0  0
   24.2157  -19.3714  -12.8420 O   0  0  0  0  0  0  0  0  0  0  0  0
   21.2273  -17.9879  -16.6776 N   0  0  0  0  0  0  0  0  0  0  0  0
   20.1258  -18.2424  -15.8324 C   0  0  0  0  0  0  0  0  0  0  0  0
   19.0391  -17.6415  -16.0550 O   0  0  0  0  0  0  0  0  0  0  0  0
   20.2843  -19.1970  -14.7251 C   0  0  0  0  0  0  0  0  0  0  0  0
   21.7380  -19.6582  -14.6124 C   0  0  0  0  0  0  0  0  0  0  0  0
   21.8529  -20.7625  -13.5714 C   0  0  2  0  0  0  0  0  0  0  0  0
   23.1756  -21.3135  -13.6058 N   0  0  0  0  0  0  0  0  0  0  0  0
   20.8137  -21.7998  -13.7736 C   0  0  0  0  0  0  0  0  0  0  0  0
   19.5241  -21.6712  -13.2697 O   0  0  0  0  0  0  0  0  0  0  0  0
   21.0758  -22.8439  -14.4189 O   0  0  0  0  0  0  0  0  0  0  0  0
  2  1  1  6
  2  3  1  0
  4  3  1  0
  5  4  2  0
  6  5  1  0
  7  6  2  0
  7  8  1  0
  8  9  2  0
  9  4  1  0
 10 11  2  0
 10  2  1  0
 12 10  1  0
 13 12  1  0
 14 13  1  0
 15 14  1  0
 15 16  1  0
 16 12  1  0
 17 18  2  0
 16 17  1  1
 20 19  1  0
 21 20  2  0
 22 20  1  0
 23 22  1  0
 24 23  1  6
 24 25  1  0
 25 17  1  0
 26 24  1  0
 27 26  1  0
 28 26  2  0
M  END
$$$$
