FPQ.pdb
     RDKit          3D

 28 29  0  0  1  0  0  0  0  0999 V2000
   27.2099  -22.2365  -15.5166 N   0  0  0  0  0  0  0  0  0  0  0  0
   26.7954  -21.2186  -14.6271 C   0  0  1  0  0  0  0  0  0  0  0  0
   26.2746  -19.9966  -15.3228 C   0  0  0  0  0  0  0  0  0  0  0  0
   27.3450  -19.3262  -16.0568 C   0  0  0  0  0  0  0  0  0  0  0  0
   28.2043  -18.5139  -15.3125 C   0  0  0  0  0  0  0  0  0  0  0  0
   29.2114  -17.8603  -15.9658 C   0  0  0  0  0  0  0  0  0  0  0  0
   29.4158  -17.9663  -17.3171 C   0  0  0  0  0  0  0  0  0  0  0  0
   28.5592  -18.7692  -18.0253 C   0  0  0  0  0  0  0  0  0  0  0  0
   27.5179  -19.4557  -17.4067 C   0  0  0  0  0  0  0  0  0  0  0  0
   25.7102  -21.7155  -13.7465 C   0  0  0  0  0  0  0  0  0  0  0  0
   24.9044  -22.6212  -14.1750 O   0  0  0  0  0  0  0  0  0  0  0  0
   25.5074  -21.2339  -12.4253 N   0  0  0  0  0  0  0  0  0  0  0  0
   26.3837  -20.3639  -11.6965 C   0  0  0  0  0  0  0  0  0  0  0  0
   25.7353  -20.1318  -10.3268 C   0  0  0  0  0  0  0  0  0  0  0  0
   24.8397  -21.3646  -10.2058 C   0  0  0  0  0  0  0  0  0  0  0  0
   24.3490  -21.5627  -11.6050 C   0  0  1  0  0  0  0  0  0  0  0  0
   23.2579  -20.6312  -11.9418 C   0  0  0  0  0  0  0  0  0  0  0  0
   23.5084  -19.6239  -12.6479 O   0  0  0  0  0  0  0  0  0  0  0  0
   21.3568  -24.0169  -15.2447 N   0  0  0  0  0  0  0  0  0  0  0  0
   20.1233  -23.3317  -15.2822 C   0  0  0  0  0  0  0  0  0  0  0  0
   19.2652  -23.6744  -16.1411 O   0  0  0  0  0  0  0  0  0  0  0  0
   19.8835  -22.2453  -14.3206 C   0  0  0  0  0  0  0  0  0  0  0  0
   21.0707  -22.0937  -13.3686 C   0  0  0  0  0  0  0  0  0  0  0  0
   20.8075  -20.9605  -12.3872 C   0  0  2  0  0  0  0  0  0  0  0  0
   21.9097  -20.8531  -11.4772 N   0  0  0  0  0  0  0  0  0  0  0  0
   19.5197  -21.1531  -11.6792 C   0  0  0  0  0  0  0  0  0  0  0  0
   18.3780  -20.4260  -11.9979 O   0  0  0  0  0  0  0  0  0  0  0  0
   19.4235  -21.9955  -10.7539 O   0  0  0  0  0  0  0  0  0  0  0  0
  2  1  1  6
  2  3  1  0
  4  3  1  0
  5  4  2  0
  6  5  1  0
  7  6  2  0
  7  8  1  0
  8  9  2  0
  9  4  1  0
 10 11  2  0
 10  2  1  0
 12 10  1  0
 13 12  1  0
 14 13  1  0
 15 14  1  0
 15 16  1  0
 16 12  1  0
 17 18  2  0
 16 17  1  6
 20 19  1  0
 21 20  2  0
 22 20  1  0
 23 22  1  0
 24 23  1  6
 24 25  1  0
 25 17  1  0
 26 24  1  0
 27 26  1  0
 28 26  2  0
M  END
$$$$
