FPQ.pdb
     RDKit          3D

 28 29  0  0  1  0  0  0  0  0999 V2000
   26.6345  -18.5936  -20.5713 N   0  0  0  0  0  0  0  0  0  0  0  0
   25.7813  -18.3288  -19.4754 C   0  0  1  0  0  0  0  0  0  0  0  0
   24.5289  -19.1533  -19.4838 C   0  0  0  0  0  0  0  0  0  0  0  0
   23.5635  -18.6335  -18.5186 C   0  0  0  0  0  0  0  0  0  0  0  0
   23.3838  -19.3748  -17.3480 C   0  0  0  0  0  0  0  0  0  0  0  0
   22.4801  -18.9268  -16.4256 C   0  0  0  0  0  0  0  0  0  0  0  0
   21.7431  -17.7839  -16.5976 C   0  0  0  0  0  0  0  0  0  0  0  0
   21.9374  -17.0741  -17.7545 C   0  0  0  0  0  0  0  0  0  0  0  0
   22.8455  -17.4885  -18.7250 C   0  0  0  0  0  0  0  0  0  0  0  0
   26.4814  -18.6112  -18.1986 C   0  0  0  0  0  0  0  0  0  0  0  0
   27.1853  -19.6805  -18.0793 O   0  0  0  0  0  0  0  0  0  0  0  0
   26.4146  -17.7452  -17.0742 N   0  0  0  0  0  0  0  0  0  0  0  0
   25.6076  -16.5654  -16.9599 C   0  0  0  0  0  0  0  0  0  0  0  0
   25.8790  -15.9788  -15.5697 C   0  0  0  0  0  0  0  0  0  0  0  0
   27.2551  -16.5674  -15.2590 C   0  0  0  0  0  0  0  0  0  0  0  0
   27.1743  -17.9408  -15.8464 C   0  0  1  0  0  0  0  0  0  0  0  0
   26.4278  -18.8673  -14.9771 C   0  0  0  0  0  0  0  0  0  0  0  0
   25.1972  -19.0277  -15.1664 O   0  0  0  0  0  0  0  0  0  0  0  0
   25.7754  -22.5511  -10.4929 N   0  0  0  0  0  0  0  0  0  0  0  0
   25.5640  -21.2764   -9.9246 C   0  0  0  0  0  0  0  0  0  0  0  0
   24.8092  -21.1787   -8.9184 O   0  0  0  0  0  0  0  0  0  0  0  0
   26.2298  -20.1106  -10.5247 C   0  0  0  0  0  0  0  0  0  0  0  0
   27.1169  -20.5375  -11.6950 C   0  0  0  0  0  0  0  0  0  0  0  0
   26.3457  -20.4170  -13.0016 C   0  0  2  0  0  0  0  0  0  0  0  0
   27.0815  -19.5927  -13.9145 N   0  0  0  0  0  0  0  0  0  0  0  0
   24.9753  -19.9023  -12.7695 C   0  0  0  0  0  0  0  0  0  0  0  0
   23.8611  -20.7339  -12.7443 O   0  0  0  0  0  0  0  0  0  0  0  0
   24.7802  -18.6763  -12.5855 O   0  0  0  0  0  0  0  0  0  0  0  0
  2  1  1  6
  2  3  1  0
  4  3  1  0
  5  4  2  0
  6  5  1  0
  7  6  2  0
  7  8  1  0
  8  9  2  0
  9  4  1  0
 10 11  2  0
 10  2  1  0
 12 10  1  0
 13 12  1  0
 14 13  1  0
 15 14  1  0
 15 16  1  0
 16 12  1  0
 17 18  2  0
 16 17  1  1
 20 19  1  0
 21 20  2  0
 22 20  1  0
 23 22  1  0
 24 23  1  1
 24 25  1  0
 25 17  1  0
 26 24  1  0
 27 26  1  0
 28 26  2  0
M  END
$$$$
