FPQ.pdb
     RDKit          3D

 28 29  0  0  1  0  0  0  0  0999 V2000
   24.1269  -20.6137  -17.7078 N   0  0  0  0  0  0  0  0  0  0  0  0
   24.9675  -19.7570  -16.9604 C   0  0  1  0  0  0  0  0  0  0  0  0
   24.3465  -18.4247  -16.6640 C   0  0  0  0  0  0  0  0  0  0  0  0
   24.3967  -17.5598  -17.8402 C   0  0  0  0  0  0  0  0  0  0  0  0
   25.6344  -16.9894  -18.1485 C   0  0  0  0  0  0  0  0  0  0  0  0
   25.7188  -16.1647  -19.2352 C   0  0  0  0  0  0  0  0  0  0  0  0
   24.6447  -15.8727  -20.0352 C   0  0  0  0  0  0  0  0  0  0  0  0
   23.4412  -16.4445  -19.7118 C   0  0  0  0  0  0  0  0  0  0  0  0
   23.3029  -17.2910  -18.6151 C   0  0  0  0  0  0  0  0  0  0  0  0
   25.3088  -20.3791  -15.6580 C   0  0  0  0  0  0  0  0  0  0  0  0
   24.4796  -21.1878  -15.0998 O   0  0  0  0  0  0  0  0  0  0  0  0
   26.5297  -20.1239  -14.9774 N   0  0  0  0  0  0  0  0  0  0  0  0
   27.5626  -19.2231  -15.3989 C   0  0  0  0  0  0  0  0  0  0  0  0
   28.6690  -19.2948  -14.3400 C   0  0  0  0  0  0  0  0  0  0  0  0
   28.4057  -20.6684  -13.7233 C   0  0  0  0  0  0  0  0  0  0  0  0
   26.9123  -20.7561  -13.7217 C   0  0  1  0  0  0  0  0  0  0  0  0
   26.3180  -19.9899  -12.6122 C   0  0  0  0  0  0  0  0  0  0  0  0
   26.0581  -18.7729  -12.7782 O   0  0  0  0  0  0  0  0  0  0  0  0
   21.3549  -19.3690  -11.9641 N   0  0  0  0  0  0  0  0  0  0  0  0
   21.8395  -20.6948  -11.9605 C   0  0  0  0  0  0  0  0  0  0  0  0
   21.1035  -21.6107  -12.4198 O   0  0  0  0  0  0  0  0  0  0  0  0
   23.1822  -20.9599  -11.4226 C   0  0  0  0  0  0  0  0  0  0  0  0
   23.8436  -19.6626  -10.9555 C   0  0  0  0  0  0  0  0  0  0  0  0
   25.2106  -19.9632  -10.3574 C   0  0  2  0  0  0  0  0  0  0  0  0
   26.0291  -20.6089  -11.3410 N   0  0  0  0  0  0  0  0  0  0  0  0
   25.0884  -20.7700   -9.1201 C   0  0  0  0  0  0  0  0  0  0  0  0
   25.5553  -22.0770   -9.0335 O   0  0  0  0  0  0  0  0  0  0  0  0
   24.5490  -20.2846   -8.0962 O   0  0  0  0  0  0  0  0  0  0  0  0
  2  1  1  1
  2  3  1  0
  4  3  1  0
  5  4  2  0
  6  5  1  0
  7  6  2  0
  7  8  1  0
  8  9  2  0
  9  4  1  0
 10 11  2  0
 10  2  1  0
 12 10  1  0
 13 12  1  0
 14 13  1  0
 15 14  1  0
 15 16  1  0
 16 12  1  0
 17 18  2  0
 16 17  1  1
 20 19  1  0
 21 20  2  0
 22 20  1  0
 23 22  1  0
 24 23  1  6
 24 25  1  0
 25 17  1  0
 26 24  1  0
 27 26  1  0
 28 26  2  0
M  END
$$$$
