FPQ.pdb
     RDKit          3D

 28 29  0  0  1  0  0  0  0  0999 V2000
   20.1504  -10.4640  -15.6146 N   0  0  0  0  0  0  0  0  0  0  0  0
   19.8225   -9.0887  -15.6235 C   0  0  1  0  0  0  0  0  0  0  0  0
   18.5482   -8.7858  -16.3536 C   0  0  0  0  0  0  0  0  0  0  0  0
   18.6881   -9.0797  -17.7777 C   0  0  0  0  0  0  0  0  0  0  0  0
   17.9366  -10.1471  -18.2759 C   0  0  0  0  0  0  0  0  0  0  0  0
   18.0495  -10.4605  -19.6015 C   0  0  0  0  0  0  0  0  0  0  0  0
   18.8661   -9.7750  -20.4630 C   0  0  0  0  0  0  0  0  0  0  0  0
   19.5933   -8.7319  -19.9500 C   0  0  0  0  0  0  0  0  0  0  0  0
   19.5139   -8.3733  -18.6072 C   0  0  0  0  0  0  0  0  0  0  0  0
   19.6601   -8.5896  -14.2363 C   0  0  0  0  0  0  0  0  0  0  0  0
   19.0477   -9.3108  -13.3657 O   0  0  0  0  0  0  0  0  0  0  0  0
   20.1550   -7.3287  -13.8072 N   0  0  0  0  0  0  0  0  0  0  0  0
   20.7221   -6.3116  -14.6437 C   0  0  0  0  0  0  0  0  0  0  0  0
   21.1045   -5.1466  -13.7234 C   0  0  0  0  0  0  0  0  0  0  0  0
   21.2476   -5.8603  -12.3793 C   0  0  0  0  0  0  0  0  0  0  0  0
   20.1533   -6.8794  -12.4212 C   0  0  1  0  0  0  0  0  0  0  0  0
   18.8378   -6.2859  -12.1235 C   0  0  0  0  0  0  0  0  0  0  0  0
   18.3042   -5.5246  -12.9671 O   0  0  0  0  0  0  0  0  0  0  0  0
   13.7190   -8.6502   -8.8579 N   0  0  0  0  0  0  0  0  0  0  0  0
   14.9828   -9.0597   -9.3351 C   0  0  0  0  0  0  0  0  0  0  0  0
   15.1447  -10.2669   -9.6639 O   0  0  0  0  0  0  0  0  0  0  0  0
   16.0628   -8.0664   -9.4316 C   0  0  0  0  0  0  0  0  0  0  0  0
   15.8205   -7.1162  -10.6051 C   0  0  0  0  0  0  0  0  0  0  0  0
   16.8618   -6.0062  -10.5976 C   0  0  2  0  0  0  0  0  0  0  0  0
   18.1518   -6.5616  -10.8842 N   0  0  0  0  0  0  0  0  0  0  0  0
   16.8483   -5.2674   -9.3128 C   0  0  0  0  0  0  0  0  0  0  0  0
   15.8137   -4.4090   -8.9575 O   0  0  0  0  0  0  0  0  0  0  0  0
   17.7903   -5.3999   -8.4941 O   0  0  0  0  0  0  0  0  0  0  0  0
  2  1  1  1
  2  3  1  0
  4  3  1  0
  5  4  2  0
  6  5  1  0
  7  6  2  0
  7  8  1  0
  8  9  2  0
  9  4  1  0
 10 11  2  0
 10  2  1  0
 12 10  1  0
 13 12  1  0
 14 13  1  0
 15 14  1  0
 15 16  1  0
 16 12  1  0
 17 18  2  0
 16 17  1  6
 20 19  1  0
 21 20  2  0
 22 20  1  0
 23 22  1  0
 24 23  1  1
 24 25  1  0
 25 17  1  0
 26 24  1  0
 27 26  1  0
 28 26  2  0
M  END
$$$$
