FPQ.pdb
     RDKit          3D

 28 29  0  0  1  0  0  0  0  0999 V2000
   25.2295  -19.4614   -7.8173 N   0  0  0  0  0  0  0  0  0  0  0  0
   26.4642  -19.7771   -8.4295 C   0  0  1  0  0  0  0  0  0  0  0  0
   27.2032  -20.8855   -7.7411 C   0  0  0  0  0  0  0  0  0  0  0  0
   27.8677  -20.3919   -6.5375 C   0  0  0  0  0  0  0  0  0  0  0  0
   27.6066  -21.0786   -5.3490 C   0  0  0  0  0  0  0  0  0  0  0  0
   28.2008  -20.6395   -4.1990 C   0  0  0  0  0  0  0  0  0  0  0  0
   29.0405  -19.5567   -4.1599 C   0  0  0  0  0  0  0  0  0  0  0  0
   29.2807  -18.8996   -5.3391 C   0  0  0  0  0  0  0  0  0  0  0  0
   28.6996  -19.3070   -6.5368 C   0  0  0  0  0  0  0  0  0  0  0  0
   26.2481  -20.2027   -9.8338 C   0  0  0  0  0  0  0  0  0  0  0  0
   25.0532  -20.4058  -10.2628 O   0  0  0  0  0  0  0  0  0  0  0  0
   27.3139  -20.4035  -10.7518 N   0  0  0  0  0  0  0  0  0  0  0  0
   28.5827  -21.0039  -10.4591 C   0  0  0  0  0  0  0  0  0  0  0  0
   29.3858  -20.9957  -11.7650 C   0  0  0  0  0  0  0  0  0  0  0  0
   28.7049  -19.8604  -12.5291 C   0  0  0  0  0  0  0  0  0  0  0  0
   27.2649  -20.0201  -12.1566 C   0  0  1  0  0  0  0  0  0  0  0  0
   26.6181  -21.1052  -12.9153 C   0  0  0  0  0  0  0  0  0  0  0  0
   26.6590  -22.2763  -12.4651 O   0  0  0  0  0  0  0  0  0  0  0  0
   21.2726  -22.3155  -13.4578 N   0  0  0  0  0  0  0  0  0  0  0  0
   21.2835  -20.9400  -13.7747 C   0  0  0  0  0  0  0  0  0  0  0  0
   20.1882  -20.3674  -14.0278 O   0  0  0  0  0  0  0  0  0  0  0  0
   22.5685  -20.2255  -13.7983 C   0  0  0  0  0  0  0  0  0  0  0  0
   23.7002  -21.1317  -13.3115 C   0  0  0  0  0  0  0  0  0  0  0  0
   24.6598  -21.4239  -14.4562 C   0  0  2  0  0  0  0  0  0  0  0  0
   25.9397  -20.8492  -14.1630 N   0  0  0  0  0  0  0  0  0  0  0  0
   24.1165  -20.9402  -15.7476 C   0  0  0  0  0  0  0  0  0  0  0  0
   24.3588  -19.6565  -16.2241 O   0  0  0  0  0  0  0  0  0  0  0  0
   23.4084  -21.6924  -16.4603 O   0  0  0  0  0  0  0  0  0  0  0  0
  2  1  1  1
  2  3  1  0
  4  3  1  0
  5  4  2  0
  6  5  1  0
  7  6  2  0
  7  8  1  0
  8  9  2  0
  9  4  1  0
 10 11  2  0
 10  2  1  0
 12 10  1  0
 13 12  1  0
 14 13  1  0
 15 14  1  0
 15 16  1  0
 16 12  1  0
 17 18  2  0
 16 17  1  6
 20 19  1  0
 21 20  2  0
 22 20  1  0
 23 22  1  0
 24 23  1  1
 24 25  1  0
 25 17  1  0
 26 24  1  0
 27 26  1  0
 28 26  2  0
M  END
$$$$
