FPQ.pdb
     RDKit          3D

 28 29  0  0  1  0  0  0  0  0999 V2000
   16.6960  -14.4968  -19.2650 N   0  0  0  0  0  0  0  0  0  0  0  0
   16.7193  -13.3836  -20.1364 C   0  0  1  0  0  0  0  0  0  0  0  0
   15.4133  -13.1472  -20.8342 C   0  0  0  0  0  0  0  0  0  0  0  0
   15.1728  -14.1784  -21.8405 C   0  0  0  0  0  0  0  0  0  0  0  0
   14.1400  -15.0825  -21.5793 C   0  0  0  0  0  0  0  0  0  0  0  0
   13.8920  -16.0694  -22.4920 C   0  0  0  0  0  0  0  0  0  0  0  0
   14.6105  -16.2114  -23.6507 C   0  0  0  0  0  0  0  0  0  0  0  0
   15.6187  -15.3120  -23.8839 C   0  0  0  0  0  0  0  0  0  0  0  0
   15.9112  -14.2893  -22.9857 C   0  0  0  0  0  0  0  0  0  0  0  0
   17.0419  -12.1473  -19.3831 C   0  0  0  0  0  0  0  0  0  0  0  0
   16.5371  -11.9610  -18.2154 O   0  0  0  0  0  0  0  0  0  0  0  0
   17.8974  -11.1341  -19.8934 N   0  0  0  0  0  0  0  0  0  0  0  0
   18.5778  -11.1556  -21.1554 C   0  0  0  0  0  0  0  0  0  0  0  0
   19.3719   -9.8477  -21.2503 C   0  0  0  0  0  0  0  0  0  0  0  0
   19.5209   -9.4791  -19.7743 C   0  0  0  0  0  0  0  0  0  0  0  0
   18.2094   -9.8975  -19.1889 C   0  0  1  0  0  0  0  0  0  0  0  0
   17.1448   -8.9179  -19.4695 C   0  0  0  0  0  0  0  0  0  0  0  0
   16.6131   -8.9000  -20.6066 O   0  0  0  0  0  0  0  0  0  0  0  0
   15.4560   -7.7763  -14.9919 N   0  0  0  0  0  0  0  0  0  0  0  0
   14.7149   -8.7269  -15.7267 C   0  0  0  0  0  0  0  0  0  0  0  0
   14.4668   -9.8442  -15.1960 O   0  0  0  0  0  0  0  0  0  0  0  0
   14.2598   -8.3811  -17.0816 C   0  0  0  0  0  0  0  0  0  0  0  0
   14.7415   -6.9837  -17.4738 C   0  0  0  0  0  0  0  0  0  0  0  0
   15.6247   -7.0674  -18.7106 C   0  0  2  0  0  0  0  0  0  0  0  0
   16.7019   -7.9807  -18.4655 N   0  0  0  0  0  0  0  0  0  0  0  0
   16.1136   -5.7269  -19.1117 C   0  0  0  0  0  0  0  0  0  0  0  0
   15.9553   -5.2309  -20.4011 O   0  0  0  0  0  0  0  0  0  0  0  0
   16.6957   -4.9884  -18.2805 O   0  0  0  0  0  0  0  0  0  0  0  0
  2  1  1  1
  2  3  1  0
  4  3  1  0
  5  4  2  0
  6  5  1  0
  7  6  2  0
  7  8  1  0
  8  9  2  0
  9  4  1  0
 10 11  2  0
 10  2  1  0
 12 10  1  0
 13 12  1  0
 14 13  1  0
 15 14  1  0
 15 16  1  0
 16 12  1  0
 17 18  2  0
 16 17  1  6
 20 19  1  0
 21 20  2  0
 22 20  1  0
 23 22  1  0
 24 23  1  1
 24 25  1  0
 25 17  1  0
 26 24  1  0
 27 26  1  0
 28 26  2  0
M  END
$$$$
