NMR.pdb
     RDKit          3D

 28 27  0  0  1  0  0  0  0  0999 V2000
    8.5723  -12.8721   16.8890 N   0  0  0  0  0  0  0  0  0  0  0  0
    7.8587  -13.6349   17.8695 C   0  0  0  0  0  0  0  0  0  0  0  0
    7.0838  -14.5518   17.4830 O   0  0  0  0  0  0  0  0  0  0  0  0
    8.0289  -13.3512   19.3045 C   0  0  0  0  0  0  0  0  0  0  0  0
    8.4351  -14.6237   20.0083 C   0  0  2  0  0  0  0  0  0  0  0  0
    7.4041  -15.6147   20.0041 N   0  0  0  0  0  0  0  0  0  0  0  0
    8.7332  -14.2688   21.4299 C   0  0  0  0  0  0  0  0  0  0  0  0
    9.6741  -13.4940   21.7256 O   0  0  0  0  0  0  0  0  0  0  0  0
    6.0340  -12.2089   28.2543 C   0  0  0  0  0  0  0  0  0  0  0  0
    5.6759  -12.7548   26.5483 S   0  0  0  0  0  0  0  0  0  0  0  0
    7.2505  -13.4902   25.9249 C   0  0  0  0  0  0  0  0  0  0  0  0
    7.0058  -13.8772   24.5011 C   0  0  0  0  0  0  0  0  0  0  0  0
    8.2337  -14.3958   23.8430 C   0  0  2  0  0  0  0  0  0  0  0  0
    7.9463  -14.8113   22.4636 N   0  0  0  0  0  0  0  0  0  0  0  0
    8.6616  -15.6624   24.5325 C   0  0  0  0  0  0  0  0  0  0  0  0
    7.9876  -16.7238   24.5008 O   0  0  0  0  0  0  0  0  0  0  0  0
   14.8839  -19.0939   21.6089 N   0  0  0  0  0  0  0  0  0  0  0  0
   13.5494  -19.4652   21.3680 C   0  0  0  0  0  0  0  0  0  0  0  0
   13.2704  -20.1145   20.2942 N   0  0  0  0  0  0  0  0  0  0  0  0
   12.5131  -19.1391   22.2815 N   0  0  0  0  0  0  0  0  0  0  0  0
   12.7402  -18.3056   23.4483 C   0  0  0  0  0  0  0  0  0  0  0  0
   11.4249  -18.2032   24.2089 C   0  0  0  0  0  0  0  0  0  0  0  0
   11.5811  -17.3741   25.4556 C   0  0  0  0  0  0  0  0  0  0  0  0
   10.2114  -16.9735   25.9470 C   0  0  2  0  0  0  0  0  0  0  0  0
    9.8736  -15.7169   25.2669 N   0  0  0  0  0  0  0  0  0  0  0  0
   10.2115  -16.6704   27.3935 C   0  0  0  0  0  0  0  0  0  0  0  0
   10.2018  -15.5075   27.8709 O   0  0  0  0  0  0  0  0  0  0  0  0
   10.2226  -17.7053   28.3264 O   0  0  0  0  0  0  0  0  0  0  0  0
  2  3  2  0
  2  1  1  0
  4  2  1  0
  5  4  1  0
  5  6  1  1
  7  5  1  0
  8  7  2  0
 10 11  1  0
 10  9  1  0
 11 12  1  0
 13 12  1  1
 13 14  1  0
 14  7  1  0
 15 13  1  0
 15 16  2  0
 18 17  1  0
 18 19  2  0
 20 21  1  0
 20 18  1  0
 22 21  1  0
 23 22  1  0
 24 23  1  6
 25 24  1  0
 25 15  1  0
 26 28  1  0
 26 24  1  0
 27 26  2  0
M  END
$$$$
