NMR.pdb
     RDKit          3D

 28 27  0  0  1  0  0  0  0  0999 V2000
    6.9597  -14.8750   17.3055 N   0  0  0  0  0  0  0  0  0  0  0  0
    7.4068  -13.5630   17.6678 C   0  0  0  0  0  0  0  0  0  0  0  0
    7.3688  -12.6455   16.8032 O   0  0  0  0  0  0  0  0  0  0  0  0
    7.9020  -13.2924   19.0280 C   0  0  0  0  0  0  0  0  0  0  0  0
    7.8934  -14.5807   19.8153 C   0  0  2  0  0  0  0  0  0  0  0  0
    6.5735  -15.0730   20.0613 N   0  0  0  0  0  0  0  0  0  0  0  0
    8.5379  -14.2986   21.1348 C   0  0  0  0  0  0  0  0  0  0  0  0
    9.7152  -13.8727   21.2083 O   0  0  0  0  0  0  0  0  0  0  0  0
    7.3038  -12.3111   27.4473 C   0  0  0  0  0  0  0  0  0  0  0  0
    6.0819  -12.3480   26.0900 S   0  0  0  0  0  0  0  0  0  0  0  0
    7.0556  -12.6896   24.5589 C   0  0  0  0  0  0  0  0  0  0  0  0
    7.6088  -14.0714   24.7051 C   0  0  0  0  0  0  0  0  0  0  0  0
    8.5381  -14.4223   23.5992 C   0  0  2  0  0  0  0  0  0  0  0  0
    7.8150  -14.5131   22.3237 N   0  0  0  0  0  0  0  0  0  0  0  0
    9.0685  -15.8113   23.8269 C   0  0  0  0  0  0  0  0  0  0  0  0
    8.3333  -16.8313   23.8585 O   0  0  0  0  0  0  0  0  0  0  0  0
   15.1810  -16.7332   18.9740 N   0  0  0  0  0  0  0  0  0  0  0  0
   15.1481  -15.7122   19.9400 C   0  0  0  0  0  0  0  0  0  0  0  0
   15.9168  -14.6927   19.7914 N   0  0  0  0  0  0  0  0  0  0  0  0
   14.2883  -15.7858   21.0669 N   0  0  0  0  0  0  0  0  0  0  0  0
   13.3892  -16.9045   21.2861 C   0  0  0  0  0  0  0  0  0  0  0  0
   12.6338  -16.6458   22.5828 C   0  0  0  0  0  0  0  0  0  0  0  0
   11.6540  -17.7518   22.8709 C   0  0  0  0  0  0  0  0  0  0  0  0
   10.9156  -17.4262   24.1464 C   0  0  2  0  0  0  0  0  0  0  0  0
   10.4550  -16.0377   24.0208 N   0  0  0  0  0  0  0  0  0  0  0  0
   11.8085  -17.4577   25.3236 C   0  0  0  0  0  0  0  0  0  0  0  0
   12.0124  -16.4755   26.0813 O   0  0  0  0  0  0  0  0  0  0  0  0
   12.4894  -18.6272   25.6557 O   0  0  0  0  0  0  0  0  0  0  0  0
  2  3  2  0
  2  1  1  0
  4  2  1  0
  5  4  1  0
  5  6  1  1
  7  5  1  0
  8  7  2  0
 10 11  1  0
 10  9  1  0
 11 12  1  0
 13 12  1  1
 13 14  1  0
 14  7  1  0
 15 13  1  0
 15 16  2  0
 18 17  1  0
 18 19  2  0
 20 21  1  0
 20 18  1  0
 22 21  1  0
 23 22  1  0
 24 23  1  6
 25 24  1  0
 25 15  1  0
 26 28  1  0
 26 24  1  0
 27 26  2  0
M  END
$$$$
