NMR.pdb
     RDKit          3D

 28 27  0  0  1  0  0  0  0  0999 V2000
    7.9366  -14.7331   16.3918 N   0  0  0  0  0  0  0  0  0  0  0  0
    7.8318  -14.3505   17.7684 C   0  0  0  0  0  0  0  0  0  0  0  0
    6.9526  -13.5102   18.1025 O   0  0  0  0  0  0  0  0  0  0  0  0
    8.7370  -14.9302   18.7751 C   0  0  0  0  0  0  0  0  0  0  0  0
    7.9096  -15.5780   19.8593 C   0  0  2  0  0  0  0  0  0  0  0  0
    6.5284  -15.2123   19.7979 N   0  0  0  0  0  0  0  0  0  0  0  0
    8.4558  -15.1137   21.1716 C   0  0  0  0  0  0  0  0  0  0  0  0
    9.6907  -15.0120   21.3652 O   0  0  0  0  0  0  0  0  0  0  0  0
    7.4719  -11.5504   27.9385 C   0  0  0  0  0  0  0  0  0  0  0  0
    6.7219  -11.9944   26.3332 S   0  0  0  0  0  0  0  0  0  0  0  0
    7.6404  -13.4884   25.7561 C   0  0  0  0  0  0  0  0  0  0  0  0
    7.1058  -13.8196   24.3991 C   0  0  0  0  0  0  0  0  0  0  0  0
    8.1464  -14.4082   23.5157 C   0  0  2  0  0  0  0  0  0  0  0  0
    7.5723  -14.7819   22.2162 N   0  0  0  0  0  0  0  0  0  0  0  0
    8.6110  -15.7111   24.1067 C   0  0  0  0  0  0  0  0  0  0  0  0
    7.8576  -16.7077   24.2517 O   0  0  0  0  0  0  0  0  0  0  0  0
   12.6351  -22.8640   23.1124 N   0  0  0  0  0  0  0  0  0  0  0  0
   13.5261  -22.1001   23.8865 C   0  0  0  0  0  0  0  0  0  0  0  0
   14.7616  -22.4512   23.9374 N   0  0  0  0  0  0  0  0  0  0  0  0
   13.0899  -20.9574   24.6068 N   0  0  0  0  0  0  0  0  0  0  0  0
   12.6615  -19.7387   23.9443 C   0  0  0  0  0  0  0  0  0  0  0  0
   12.2776  -18.7344   25.0227 C   0  0  0  0  0  0  0  0  0  0  0  0
   11.7242  -17.4719   24.4175 C   0  0  0  0  0  0  0  0  0  0  0  0
   10.3636  -17.2039   25.0132 C   0  0  2  0  0  0  0  0  0  0  0  0
    9.9520  -15.8774   24.5371 N   0  0  0  0  0  0  0  0  0  0  0  0
   10.4154  -17.1131   26.4874 C   0  0  0  0  0  0  0  0  0  0  0  0
   10.4481  -16.0315   27.1273 O   0  0  0  0  0  0  0  0  0  0  0  0
   10.4305  -18.2721   27.2608 O   0  0  0  0  0  0  0  0  0  0  0  0
  2  3  2  0
  2  1  1  0
  4  2  1  0
  5  4  1  0
  5  6  1  6
  7  5  1  0
  8  7  2  0
 10 11  1  0
 10  9  1  0
 11 12  1  0
 13 12  1  1
 13 14  1  0
 14  7  1  0
 15 13  1  0
 15 16  2  0
 18 17  1  0
 18 19  2  0
 20 21  1  0
 20 18  1  0
 22 21  1  0
 23 22  1  0
 24 23  1  6
 25 24  1  0
 25 15  1  0
 26 28  1  0
 26 24  1  0
 27 26  2  0
M  END
$$$$
