NMR.pdb
     RDKit          3D

 28 27  0  0  1  0  0  0  0  0999 V2000
    8.6477  -12.6467   16.8330 N   0  0  0  0  0  0  0  0  0  0  0  0
    7.7444  -13.3986   17.6522 C   0  0  0  0  0  0  0  0  0  0  0  0
    6.9291  -14.1850   17.0977 O   0  0  0  0  0  0  0  0  0  0  0  0
    7.7694  -13.2541   19.1175 C   0  0  0  0  0  0  0  0  0  0  0  0
    8.3529  -14.5089   19.7214 C   0  0  2  0  0  0  0  0  0  0  0  0
    7.4733  -15.6324   19.6268 N   0  0  0  0  0  0  0  0  0  0  0  0
    8.5988  -14.2314   21.1700 C   0  0  0  0  0  0  0  0  0  0  0  0
    9.4426  -13.3793   21.5372 O   0  0  0  0  0  0  0  0  0  0  0  0
    5.7865  -11.1607   26.5900 C   0  0  0  0  0  0  0  0  0  0  0  0
    5.7692  -12.9157   26.0836 S   0  0  0  0  0  0  0  0  0  0  0  0
    7.1082  -13.0785   24.8228 C   0  0  0  0  0  0  0  0  0  0  0  0
    7.1527  -14.5215   24.4324 C   0  0  0  0  0  0  0  0  0  0  0  0
    8.3070  -14.8265   23.5468 C   0  0  2  0  0  0  0  0  0  0  0  0
    7.8723  -14.9368   22.1480 N   0  0  0  0  0  0  0  0  0  0  0  0
    8.8342  -16.1947   23.8825 C   0  0  0  0  0  0  0  0  0  0  0  0
    8.2767  -17.2576   23.5065 O   0  0  0  0  0  0  0  0  0  0  0  0
   16.4670  -14.6830   21.6871 N   0  0  0  0  0  0  0  0  0  0  0  0
   15.8155  -15.2584   20.5820 C   0  0  0  0  0  0  0  0  0  0  0  0
   16.2957  -15.0593   19.4063 N   0  0  0  0  0  0  0  0  0  0  0  0
   14.6471  -16.0486   20.7395 N   0  0  0  0  0  0  0  0  0  0  0  0
   13.4073  -15.5058   21.2650 C   0  0  0  0  0  0  0  0  0  0  0  0
   12.8215  -16.5320   22.2257 C   0  0  0  0  0  0  0  0  0  0  0  0
   11.5711  -16.0103   22.8818 C   0  0  0  0  0  0  0  0  0  0  0  0
   11.1902  -16.9397   24.0085 C   0  0  2  0  0  0  0  0  0  0  0  0
   10.0120  -16.3506   24.6569 N   0  0  0  0  0  0  0  0  0  0  0  0
   12.2399  -17.0065   25.0467 C   0  0  0  0  0  0  0  0  0  0  0  0
   13.0705  -17.9443   25.1513 O   0  0  0  0  0  0  0  0  0  0  0  0
   12.3565  -15.9894   25.9920 O   0  0  0  0  0  0  0  0  0  0  0  0
  2  3  2  0
  2  1  1  0
  4  2  1  0
  5  4  1  0
  5  6  1  1
  7  5  1  0
  8  7  2  0
 10 11  1  0
 10  9  1  0
 11 12  1  0
 13 12  1  1
 13 14  1  0
 14  7  1  0
 15 13  1  0
 15 16  2  0
 18 17  1  0
 18 19  2  0
 20 21  1  0
 20 18  1  0
 22 21  1  0
 23 22  1  0
 24 23  1  6
 25 24  1  0
 25 15  1  0
 26 28  1  0
 26 24  1  0
 27 26  2  0
M  END
$$$$
