NMR.pdb
     RDKit          3D

 28 27  0  0  1  0  0  0  0  0999 V2000
    6.9081  -13.2273   17.0405 N   0  0  0  0  0  0  0  0  0  0  0  0
    7.9014  -14.1142   17.5689 C   0  0  0  0  0  0  0  0  0  0  0  0
    8.2241  -15.1349   16.9018 O   0  0  0  0  0  0  0  0  0  0  0  0
    8.5338  -13.8369   18.8695 C   0  0  0  0  0  0  0  0  0  0  0  0
    8.2620  -14.9941   19.8005 C   0  0  2  0  0  0  0  0  0  0  0  0
    6.8743  -15.3301   19.8794 N   0  0  0  0  0  0  0  0  0  0  0  0
    8.7194  -14.5837   21.1638 C   0  0  0  0  0  0  0  0  0  0  0  0
    9.9173  -14.2880   21.3887 O   0  0  0  0  0  0  0  0  0  0  0  0
    6.9401  -11.2753   27.9023 C   0  0  0  0  0  0  0  0  0  0  0  0
    6.2332  -12.1679   26.4740 S   0  0  0  0  0  0  0  0  0  0  0  0
    7.6560  -13.0398   25.6838 C   0  0  0  0  0  0  0  0  0  0  0  0
    7.2038  -13.4404   24.3156 C   0  0  0  0  0  0  0  0  0  0  0  0
    8.2795  -14.1197   23.5470 C   0  0  2  0  0  0  0  0  0  0  0  0
    7.7926  -14.5257   22.2218 N   0  0  0  0  0  0  0  0  0  0  0  0
    8.6268  -15.4144   24.2294 C   0  0  0  0  0  0  0  0  0  0  0  0
    7.9151  -16.4480   24.1458 O   0  0  0  0  0  0  0  0  0  0  0  0
   16.2937  -17.9626   22.5585 N   0  0  0  0  0  0  0  0  0  0  0  0
   15.9519  -17.2016   23.6903 C   0  0  0  0  0  0  0  0  0  0  0  0
   16.8184  -16.3839   24.1727 N   0  0  0  0  0  0  0  0  0  0  0  0
   14.6777  -17.3187   24.3046 N   0  0  0  0  0  0  0  0  0  0  0  0
   13.6752  -18.2606   23.8403 C   0  0  0  0  0  0  0  0  0  0  0  0
   12.4531  -18.1180   24.7377 C   0  0  0  0  0  0  0  0  0  0  0  0
   11.7234  -16.8305   24.4618 C   0  0  0  0  0  0  0  0  0  0  0  0
   10.3948  -16.8626   25.1772 C   0  0  2  0  0  0  0  0  0  0  0  0
    9.8006  -15.5296   25.0168 N   0  0  0  0  0  0  0  0  0  0  0  0
   10.5568  -17.0676   26.6318 C   0  0  0  0  0  0  0  0  0  0  0  0
   10.4824  -16.1490   27.4867 O   0  0  0  0  0  0  0  0  0  0  0  0
   10.8093  -18.3418   27.1362 O   0  0  0  0  0  0  0  0  0  0  0  0
  2  3  2  0
  2  1  1  0
  4  2  1  0
  5  4  1  0
  5  6  1  1
  7  5  1  0
  8  7  2  0
 10 11  1  0
 10  9  1  0
 11 12  1  0
 13 12  1  1
 13 14  1  0
 14  7  1  0
 15 13  1  0
 15 16  2  0
 18 17  1  0
 18 19  2  0
 20 21  1  0
 20 18  1  0
 22 21  1  0
 23 22  1  0
 24 23  1  6
 25 24  1  0
 25 15  1  0
 26 28  1  0
 26 24  1  0
 27 26  2  0
M  END
$$$$
