NMR.pdb
     RDKit          3D

 28 27  0  0  1  0  0  0  0  0999 V2000
    7.6860  -12.9925   17.0386 N   0  0  0  0  0  0  0  0  0  0  0  0
    8.4612  -13.9016   17.8292 C   0  0  0  0  0  0  0  0  0  0  0  0
    8.8597  -14.9777   17.3058 O   0  0  0  0  0  0  0  0  0  0  0  0
    8.7861  -13.5828   19.2297 C   0  0  0  0  0  0  0  0  0  0  0  0
    8.4673  -14.7824   20.0894 C   0  0  2  0  0  0  0  0  0  0  0  0
    7.1011  -15.1924   19.9869 N   0  0  0  0  0  0  0  0  0  0  0  0
    8.7309  -14.3935   21.5091 C   0  0  0  0  0  0  0  0  0  0  0  0
    9.8676  -14.0174   21.8824 O   0  0  0  0  0  0  0  0  0  0  0  0
    5.9774  -10.5587   26.2626 C   0  0  0  0  0  0  0  0  0  0  0  0
    5.6637  -12.3204   26.6291 S   0  0  0  0  0  0  0  0  0  0  0  0
    7.1322  -13.2292   25.9760 C   0  0  0  0  0  0  0  0  0  0  0  0
    6.8548  -13.5059   24.5326 C   0  0  0  0  0  0  0  0  0  0  0  0
    8.0069  -14.1578   23.8561 C   0  0  2  0  0  0  0  0  0  0  0  0
    7.6870  -14.4480   22.4520 N   0  0  0  0  0  0  0  0  0  0  0  0
    8.2366  -15.5101   24.4735 C   0  0  0  0  0  0  0  0  0  0  0  0
    7.6038  -16.5403   24.1272 O   0  0  0  0  0  0  0  0  0  0  0  0
   12.7200  -20.1683   20.7227 N   0  0  0  0  0  0  0  0  0  0  0  0
   13.0140  -20.5890   22.0317 C   0  0  0  0  0  0  0  0  0  0  0  0
   13.4869  -21.7706   22.2120 N   0  0  0  0  0  0  0  0  0  0  0  0
   12.8000  -19.7396   23.1486 N   0  0  0  0  0  0  0  0  0  0  0  0
   11.8672  -18.6277   23.1113 C   0  0  0  0  0  0  0  0  0  0  0  0
   12.0289  -17.8424   24.4060 C   0  0  0  0  0  0  0  0  0  0  0  0
   11.1091  -16.6512   24.4376 C   0  0  0  0  0  0  0  0  0  0  0  0
   10.0295  -16.8986   25.4630 C   0  0  2  0  0  0  0  0  0  0  0  0
    9.2004  -15.6874   25.4986 N   0  0  0  0  0  0  0  0  0  0  0  0
   10.5864  -17.0551   26.8230 C   0  0  0  0  0  0  0  0  0  0  0  0
   10.8412  -16.0970   27.5959 O   0  0  0  0  0  0  0  0  0  0  0  0
   10.8634  -18.3251   27.3250 O   0  0  0  0  0  0  0  0  0  0  0  0
  2  3  2  0
  2  1  1  0
  4  2  1  0
  5  4  1  0
  5  6  1  1
  7  5  1  0
  8  7  2  0
 10 11  1  0
 10  9  1  0
 11 12  1  0
 13 12  1  1
 13 14  1  0
 14  7  1  0
 15 13  1  0
 15 16  2  0
 18 17  1  0
 18 19  2  0
 20 21  1  0
 20 18  1  0
 22 21  1  0
 23 22  1  0
 24 23  1  6
 25 24  1  0
 25 15  1  0
 26 28  1  0
 26 24  1  0
 27 26  2  0
M  END
$$$$
