NMR.pdb
     RDKit          3D

 28 27  0  0  1  0  0  0  0  0999 V2000
    6.5139  -13.1386   19.6631 N   0  0  0  0  0  0  0  0  0  0  0  0
    7.7751  -13.2783   18.9981 C   0  0  0  0  0  0  0  0  0  0  0  0
    8.0937  -12.4386   18.1125 O   0  0  0  0  0  0  0  0  0  0  0  0
    8.6830  -14.3847   19.3445 C   0  0  0  0  0  0  0  0  0  0  0  0
    8.0213  -15.2492   20.3907 C   0  0  2  0  0  0  0  0  0  0  0  0
    6.5962  -15.1304   20.3898 N   0  0  0  0  0  0  0  0  0  0  0  0
    8.5249  -14.7963   21.7239 C   0  0  0  0  0  0  0  0  0  0  0  0
    9.7415  -14.5600   21.9161 O   0  0  0  0  0  0  0  0  0  0  0  0
    7.0992  -12.0585   27.6697 C   0  0  0  0  0  0  0  0  0  0  0  0
    6.0580  -11.7095   26.2100 S   0  0  0  0  0  0  0  0  0  0  0  0
    6.9770  -12.4095   24.7698 C   0  0  0  0  0  0  0  0  0  0  0  0
    7.1682  -13.8656   25.0531 C   0  0  0  0  0  0  0  0  0  0  0  0
    8.1690  -14.4858   24.1457 C   0  0  2  0  0  0  0  0  0  0  0  0
    7.6211  -14.6292   22.7903 N   0  0  0  0  0  0  0  0  0  0  0  0
    8.4286  -15.8978   24.5944 C   0  0  0  0  0  0  0  0  0  0  0  0
    7.7637  -16.8830   24.1831 O   0  0  0  0  0  0  0  0  0  0  0  0
   13.9919  -19.6060   20.3548 N   0  0  0  0  0  0  0  0  0  0  0  0
   14.2958  -20.0115   21.6663 C   0  0  0  0  0  0  0  0  0  0  0  0
   15.3432  -20.7292   21.8667 N   0  0  0  0  0  0  0  0  0  0  0  0
   13.4739  -19.6455   22.7642 N   0  0  0  0  0  0  0  0  0  0  0  0
   12.2007  -18.9700   22.5899 C   0  0  0  0  0  0  0  0  0  0  0  0
   11.5543  -18.8363   23.9624 C   0  0  0  0  0  0  0  0  0  0  0  0
   10.8174  -17.5300   24.0911 C   0  0  0  0  0  0  0  0  0  0  0  0
   10.1239  -17.4939   25.4312 C   0  0  2  0  0  0  0  0  0  0  0  0
    9.4598  -16.1877   25.5238 N   0  0  0  0  0  0  0  0  0  0  0  0
   11.0863  -17.5456   26.5516 C   0  0  0  0  0  0  0  0  0  0  0  0
   11.4635  -16.5401   27.2050 O   0  0  0  0  0  0  0  0  0  0  0  0
   11.6380  -18.7629   26.9459 O   0  0  0  0  0  0  0  0  0  0  0  0
  2  3  2  0
  2  1  1  0
  4  2  1  0
  5  4  1  0
  5  6  1  1
  7  5  1  0
  8  7  2  0
 10 11  1  0
 10  9  1  0
 11 12  1  0
 13 12  1  1
 13 14  1  0
 14  7  1  0
 15 13  1  0
 15 16  2  0
 18 17  1  0
 18 19  2  0
 20 21  1  0
 20 18  1  0
 22 21  1  0
 23 22  1  0
 24 23  1  6
 25 24  1  0
 25 15  1  0
 26 28  1  0
 26 24  1  0
 27 26  2  0
M  END
$$$$
