NMR.pdb
     RDKit          3D

 28 27  0  0  1  0  0  0  0  0999 V2000
    8.6239  -12.9376   16.9705 N   0  0  0  0  0  0  0  0  0  0  0  0
    8.1438  -13.7750   18.0291 C   0  0  0  0  0  0  0  0  0  0  0  0
    7.5303  -14.8372   17.7356 O   0  0  0  0  0  0  0  0  0  0  0  0
    8.3641  -13.3999   19.4359 C   0  0  0  0  0  0  0  0  0  0  0  0
    8.7862  -14.6272   20.2075 C   0  0  2  0  0  0  0  0  0  0  0  0
    7.8534  -15.7049   20.0914 N   0  0  0  0  0  0  0  0  0  0  0  0
    8.8702  -14.2381   21.6489 C   0  0  0  0  0  0  0  0  0  0  0  0
    9.7410  -13.4336   22.0580 O   0  0  0  0  0  0  0  0  0  0  0  0
    7.0063  -10.5462   26.5151 C   0  0  0  0  0  0  0  0  0  0  0  0
    6.0763  -12.1182   26.4978 S   0  0  0  0  0  0  0  0  0  0  0  0
    7.3044  -13.4126   26.0233 C   0  0  0  0  0  0  0  0  0  0  0  0
    7.1248  -13.6539   24.5582 C   0  0  0  0  0  0  0  0  0  0  0  0
    8.1865  -14.5328   24.0014 C   0  0  2  0  0  0  0  0  0  0  0  0
    7.9566  -14.7815   22.5719 N   0  0  0  0  0  0  0  0  0  0  0  0
    8.0817  -15.8916   24.6379 C   0  0  0  0  0  0  0  0  0  0  0  0
    7.2183  -16.7428   24.3032 O   0  0  0  0  0  0  0  0  0  0  0  0
   12.1181  -19.7114   20.6422 N   0  0  0  0  0  0  0  0  0  0  0  0
   12.8535  -20.2164   21.7289 C   0  0  0  0  0  0  0  0  0  0  0  0
   13.0975  -21.4775   21.7803 N   0  0  0  0  0  0  0  0  0  0  0  0
   13.3278  -19.3661   22.7617 N   0  0  0  0  0  0  0  0  0  0  0  0
   12.6876  -18.1035   23.0835 C   0  0  0  0  0  0  0  0  0  0  0  0
   11.6665  -18.3674   24.1822 C   0  0  0  0  0  0  0  0  0  0  0  0
   10.7034  -17.2183   24.3164 C   0  0  0  0  0  0  0  0  0  0  0  0
    9.7686  -17.5003   25.4674 C   0  0  2  0  0  0  0  0  0  0  0  0
    8.9734  -16.2826   25.6690 N   0  0  0  0  0  0  0  0  0  0  0  0
   10.5019  -17.7256   26.7306 C   0  0  0  0  0  0  0  0  0  0  0  0
   10.7488  -18.8610   27.2105 O   0  0  0  0  0  0  0  0  0  0  0  0
   10.9693  -16.6427   27.4724 O   0  0  0  0  0  0  0  0  0  0  0  0
  2  3  2  0
  2  1  1  0
  4  2  1  0
  5  4  1  0
  5  6  1  1
  7  5  1  0
  8  7  2  0
 10 11  1  0
 10  9  1  0
 11 12  1  0
 13 12  1  1
 13 14  1  0
 14  7  1  0
 15 13  1  0
 15 16  2  0
 18 17  1  0
 18 19  2  0
 20 21  1  0
 20 18  1  0
 22 21  1  0
 23 22  1  0
 24 23  1  6
 25 24  1  0
 25 15  1  0
 26 28  1  0
 26 24  1  0
 27 26  2  0
M  END
$$$$
