NMR.pdb
     RDKit          3D

 28 27  0  0  1  0  0  0  0  0999 V2000
   10.4744  -16.4507   18.3658 N   0  0  0  0  0  0  0  0  0  0  0  0
    9.2634  -15.8816   18.8778 C   0  0  0  0  0  0  0  0  0  0  0  0
    8.2368  -15.8723   18.1453 O   0  0  0  0  0  0  0  0  0  0  0  0
    9.2204  -15.3173   20.2374 C   0  0  0  0  0  0  0  0  0  0  0  0
    8.7885  -16.3973   21.2001 C   0  0  2  0  0  0  0  0  0  0  0  0
    7.4723  -16.8876   20.9314 N   0  0  0  0  0  0  0  0  0  0  0  0
    8.7909  -15.7976   22.5699 C   0  0  0  0  0  0  0  0  0  0  0  0
    9.8488  -15.6950   23.2355 O   0  0  0  0  0  0  0  0  0  0  0  0
    7.1297  -11.0950   25.5379 C   0  0  0  0  0  0  0  0  0  0  0  0
    7.4719  -12.4545   26.7089 S   0  0  0  0  0  0  0  0  0  0  0  0
    6.2595  -13.7827   26.2907 C   0  0  0  0  0  0  0  0  0  0  0  0
    6.4098  -14.0515   24.8271 C   0  0  0  0  0  0  0  0  0  0  0  0
    7.5975  -14.8954   24.5321 C   0  0  2  0  0  0  0  0  0  0  0  0
    7.5849  -15.3363   23.1309 N   0  0  0  0  0  0  0  0  0  0  0  0
    7.5022  -16.1701   25.3250 C   0  0  0  0  0  0  0  0  0  0  0  0
    6.4540  -16.8621   25.3906 O   0  0  0  0  0  0  0  0  0  0  0  0
    4.9476  -22.9424   26.9955 N   0  0  0  0  0  0  0  0  0  0  0  0
    6.1708  -22.9506   27.6887 C   0  0  0  0  0  0  0  0  0  0  0  0
    6.2723  -23.6547   28.7594 N   0  0  0  0  0  0  0  0  0  0  0  0
    7.2867  -22.2019   27.2313 N   0  0  0  0  0  0  0  0  0  0  0  0
    7.1501  -20.8726   26.6640 C   0  0  0  0  0  0  0  0  0  0  0  0
    8.5466  -20.3639   26.3318 C   0  0  0  0  0  0  0  0  0  0  0  0
    8.4897  -19.0127   25.6706 C   0  0  0  0  0  0  0  0  0  0  0  0
    8.4785  -17.9486   26.7410 C   0  0  2  0  0  0  0  0  0  0  0  0
    8.6173  -16.6598   26.0516 N   0  0  0  0  0  0  0  0  0  0  0  0
    9.6450  -18.0603   27.6416 C   0  0  0  0  0  0  0  0  0  0  0  0
   10.7091  -17.4054   27.5028 O   0  0  0  0  0  0  0  0  0  0  0  0
    9.6112  -18.9330   28.7273 O   0  0  0  0  0  0  0  0  0  0  0  0
  2  3  2  0
  2  1  1  0
  4  2  1  0
  5  4  1  0
  5  6  1  6
  7  5  1  0
  8  7  2  0
 10 11  1  0
 10  9  1  0
 11 12  1  0
 13 12  1  6
 13 14  1  0
 14  7  1  0
 15 13  1  0
 15 16  2  0
 18 17  1  0
 18 19  2  0
 20 21  1  0
 20 18  1  0
 22 21  1  0
 23 22  1  0
 24 23  1  6
 25 24  1  0
 25 15  1  0
 26 28  1  0
 26 24  1  0
 27 26  2  0
M  END
$$$$
