NMR.pdb
     RDKit          3D

 28 27  0  0  1  0  0  0  0  0999 V2000
    7.5873  -12.2596   17.7556 N   0  0  0  0  0  0  0  0  0  0  0  0
    8.2455  -13.3658   18.3845 C   0  0  0  0  0  0  0  0  0  0  0  0
    8.4260  -14.4242   17.7227 O   0  0  0  0  0  0  0  0  0  0  0  0
    8.7029  -13.2665   19.7807 C   0  0  0  0  0  0  0  0  0  0  0  0
    8.4958  -14.6001   20.4577 C   0  0  2  0  0  0  0  0  0  0  0  0
    7.1249  -15.0064   20.4780 N   0  0  0  0  0  0  0  0  0  0  0  0
    8.9594  -14.4565   21.8721 C   0  0  0  0  0  0  0  0  0  0  0  0
   10.1572  -14.2029   22.1438 O   0  0  0  0  0  0  0  0  0  0  0  0
    7.1603  -11.7281   27.8061 C   0  0  0  0  0  0  0  0  0  0  0  0
    6.1061  -11.9304   26.3282 S   0  0  0  0  0  0  0  0  0  0  0  0
    7.2432  -12.4845   24.9832 C   0  0  0  0  0  0  0  0  0  0  0  0
    7.4748  -13.9467   25.1964 C   0  0  0  0  0  0  0  0  0  0  0  0
    8.5354  -14.4816   24.3028 C   0  0  2  0  0  0  0  0  0  0  0  0
    8.0384  -14.6076   22.9261 N   0  0  0  0  0  0  0  0  0  0  0  0
    8.8570  -15.8924   24.7138 C   0  0  0  0  0  0  0  0  0  0  0  0
    8.0754  -16.8591   24.5230 O   0  0  0  0  0  0  0  0  0  0  0  0
   15.1229  -22.9788   23.9717 N   0  0  0  0  0  0  0  0  0  0  0  0
   14.8584  -21.6086   23.8007 C   0  0  0  0  0  0  0  0  0  0  0  0
   15.6823  -20.8985   23.1156 N   0  0  0  0  0  0  0  0  0  0  0  0
   13.7073  -21.0000   24.3659 N   0  0  0  0  0  0  0  0  0  0  0  0
   13.4066  -19.5910   24.1868 C   0  0  0  0  0  0  0  0  0  0  0  0
   12.1212  -19.2905   24.9461 C   0  0  0  0  0  0  0  0  0  0  0  0
   11.7098  -17.8531   24.7707 C   0  0  0  0  0  0  0  0  0  0  0  0
   10.4290  -17.6181   25.5338 C   0  0  2  0  0  0  0  0  0  0  0  0
   10.0859  -16.2024   25.3502 N   0  0  0  0  0  0  0  0  0  0  0  0
   10.6102  -17.8114   26.9878 C   0  0  0  0  0  0  0  0  0  0  0  0
   10.9029  -18.9108   27.5226 O   0  0  0  0  0  0  0  0  0  0  0  0
   10.4575  -16.7372   27.8620 O   0  0  0  0  0  0  0  0  0  0  0  0
  2  3  2  0
  2  1  1  0
  4  2  1  0
  5  4  1  0
  5  6  1  1
  7  5  1  0
  8  7  2  0
 10 11  1  0
 10  9  1  0
 11 12  1  0
 13 12  1  1
 13 14  1  0
 14  7  1  0
 15 13  1  0
 15 16  2  0
 18 17  1  0
 18 19  2  0
 20 21  1  0
 20 18  1  0
 22 21  1  0
 23 22  1  0
 24 23  1  6
 25 24  1  0
 25 15  1  0
 26 28  1  0
 26 24  1  0
 27 26  2  0
M  END
$$$$
