NMR.pdb
     RDKit          3D

 28 27  0  0  1  0  0  0  0  0999 V2000
    7.3877  -11.8316   18.2940 N   0  0  0  0  0  0  0  0  0  0  0  0
    7.5673  -13.2288   18.5543 C   0  0  0  0  0  0  0  0  0  0  0  0
    6.6599  -14.0346   18.2105 O   0  0  0  0  0  0  0  0  0  0  0  0
    8.7920  -13.7140   19.2124 C   0  0  0  0  0  0  0  0  0  0  0  0
    8.4519  -14.9304   20.0398 C   0  0  2  0  0  0  0  0  0  0  0  0
    7.0540  -15.2320   20.0361 N   0  0  0  0  0  0  0  0  0  0  0  0
    8.8607  -14.6377   21.4480 C   0  0  0  0  0  0  0  0  0  0  0  0
   10.0555  -14.3974   21.7442 O   0  0  0  0  0  0  0  0  0  0  0  0
    6.5741  -10.7622   26.3584 C   0  0  0  0  0  0  0  0  0  0  0  0
    6.2849  -12.5050   26.8224 S   0  0  0  0  0  0  0  0  0  0  0  0
    7.6617  -13.4577   26.0440 C   0  0  0  0  0  0  0  0  0  0  0  0
    7.2497  -13.7248   24.6313 C   0  0  0  0  0  0  0  0  0  0  0  0
    8.3347  -14.3665   23.8435 C   0  0  2  0  0  0  0  0  0  0  0  0
    7.8906  -14.6297   22.4682 N   0  0  0  0  0  0  0  0  0  0  0  0
    8.6128  -15.7307   24.4131 C   0  0  0  0  0  0  0  0  0  0  0  0
    7.8281  -16.7045   24.2795 O   0  0  0  0  0  0  0  0  0  0  0  0
   15.5706  -20.4150   26.0477 N   0  0  0  0  0  0  0  0  0  0  0  0
   14.6206  -21.2944   25.4992 C   0  0  0  0  0  0  0  0  0  0  0  0
   14.7944  -22.5605   25.6383 N   0  0  0  0  0  0  0  0  0  0  0  0
   13.4823  -20.8137   24.8007 N   0  0  0  0  0  0  0  0  0  0  0  0
   13.2440  -19.3979   24.5853 C   0  0  0  0  0  0  0  0  0  0  0  0
   11.8975  -19.0537   25.2080 C   0  0  0  0  0  0  0  0  0  0  0  0
   11.4313  -17.6894   24.7751 C   0  0  0  0  0  0  0  0  0  0  0  0
   10.1261  -17.3802   25.4670 C   0  0  2  0  0  0  0  0  0  0  0  0
    9.8012  -15.9852   25.1439 N   0  0  0  0  0  0  0  0  0  0  0  0
   10.2539  -17.4419   26.9381 C   0  0  0  0  0  0  0  0  0  0  0  0
   10.5347  -16.4549   27.6642 O   0  0  0  0  0  0  0  0  0  0  0  0
   10.0599  -18.6480   27.6084 O   0  0  0  0  0  0  0  0  0  0  0  0
  2  3  2  0
  2  1  1  0
  4  2  1  0
  5  4  1  0
  5  6  1  1
  7  5  1  0
  8  7  2  0
 10 11  1  0
 10  9  1  0
 11 12  1  0
 13 12  1  1
 13 14  1  0
 14  7  1  0
 15 13  1  0
 15 16  2  0
 18 17  1  0
 18 19  2  0
 20 21  1  0
 20 18  1  0
 22 21  1  0
 23 22  1  0
 24 23  1  6
 25 24  1  0
 25 15  1  0
 26 28  1  0
 26 24  1  0
 27 26  2  0
M  END
$$$$
