NMR.pdb
     RDKit          3D

 28 27  0  0  1  0  0  0  0  0999 V2000
    6.9266  -12.8980   17.7710 N   0  0  0  0  0  0  0  0  0  0  0  0
    8.0378  -13.5742   18.3713 C   0  0  0  0  0  0  0  0  0  0  0  0
    8.7161  -14.3736   17.6702 O   0  0  0  0  0  0  0  0  0  0  0  0
    8.3805  -13.3383   19.7840 C   0  0  0  0  0  0  0  0  0  0  0  0
    8.3848  -14.6609   20.5121 C   0  0  2  0  0  0  0  0  0  0  0  0
    7.1452  -15.3643   20.3945 N   0  0  0  0  0  0  0  0  0  0  0  0
    8.6186  -14.3696   21.9601 C   0  0  0  0  0  0  0  0  0  0  0  0
    9.6859  -13.8430   22.3557 O   0  0  0  0  0  0  0  0  0  0  0  0
    5.7794  -12.1748   27.6956 C   0  0  0  0  0  0  0  0  0  0  0  0
    6.8525  -11.8015   26.2654 S   0  0  0  0  0  0  0  0  0  0  0  0
    6.1989  -12.8282   24.8770 C   0  0  0  0  0  0  0  0  0  0  0  0
    6.7002  -14.2191   25.1028 C   0  0  0  0  0  0  0  0  0  0  0  0
    7.9370  -14.5011   24.3279 C   0  0  2  0  0  0  0  0  0  0  0  0
    7.6252  -14.6899   22.9048 N   0  0  0  0  0  0  0  0  0  0  0  0
    8.4982  -15.8262   24.7657 C   0  0  0  0  0  0  0  0  0  0  0  0
    8.0821  -16.9283   24.3252 O   0  0  0  0  0  0  0  0  0  0  0  0
   16.1572  -15.1489   21.8561 N   0  0  0  0  0  0  0  0  0  0  0  0
   15.6177  -16.4353   21.6798 C   0  0  0  0  0  0  0  0  0  0  0  0
   16.1850  -17.2375   20.8509 N   0  0  0  0  0  0  0  0  0  0  0  0
   14.4677  -16.8608   22.3947 N   0  0  0  0  0  0  0  0  0  0  0  0
   13.6940  -15.9591   23.2289 C   0  0  0  0  0  0  0  0  0  0  0  0
   12.6432  -16.7867   23.9569 C   0  0  0  0  0  0  0  0  0  0  0  0
   11.7482  -15.9132   24.7948 C   0  0  0  0  0  0  0  0  0  0  0  0
   10.6845  -16.7755   25.4296 C   0  0  2  0  0  0  0  0  0  0  0  0
    9.5470  -15.8930   25.7179 N   0  0  0  0  0  0  0  0  0  0  0  0
   11.1215  -17.3208   26.7319 C   0  0  0  0  0  0  0  0  0  0  0  0
   10.9420  -16.7444   27.8345 O   0  0  0  0  0  0  0  0  0  0  0  0
   11.7782  -18.5482   26.7929 O   0  0  0  0  0  0  0  0  0  0  0  0
  2  3  2  0
  2  1  1  0
  4  2  1  0
  5  4  1  0
  5  6  1  1
  7  5  1  0
  8  7  2  0
 10 11  1  0
 10  9  1  0
 11 12  1  0
 13 12  1  1
 13 14  1  0
 14  7  1  0
 15 13  1  0
 15 16  2  0
 18 17  1  0
 18 19  2  0
 20 21  1  0
 20 18  1  0
 22 21  1  0
 23 22  1  0
 24 23  1  1
 25 24  1  0
 25 15  1  0
 26 28  1  0
 26 24  1  0
 27 26  2  0
M  END
$$$$
