SEV.pdb
     RDKit          3D

 23 22  0  0  1  0  0  0  0  0999 V2000
    7.8368  -12.4096   20.6418 O   0  0  0  0  0  0  0  0  0  0  0  0
    8.5230  -13.0513   19.6287 C   0  0  0  0  0  0  0  0  0  0  0  0
    8.1488  -14.5270   19.5454 C   0  0  2  0  0  0  0  0  0  0  0  0
    6.8924  -14.6091   18.8611 N   0  0  0  0  0  0  0  0  0  0  0  0
    8.0282  -15.0140   20.9675 C   0  0  0  0  0  0  0  0  0  0  0  0
    6.9380  -14.9443   21.5818 O   0  0  0  0  0  0  0  0  0  0  0  0
    9.1276  -15.5627   21.6574 N   0  0  0  0  0  0  0  0  0  0  0  0
    9.0200  -16.1395   23.0019 C   0  0  1  0  0  0  0  0  0  0  0  0
   10.0381  -17.2362   23.1653 C   0  0  0  0  0  0  0  0  0  0  0  0
   10.0636  -17.8241   24.5288 C   0  0  0  0  0  0  0  0  0  0  0  0
   11.0485  -18.9556   24.5806 C   0  0  0  0  0  0  0  0  0  0  0  0
   12.0074  -18.9622   23.7862 O   0  0  0  0  0  0  0  0  0  0  0  0
    9.2133  -15.1083   24.0299 C   0  0  0  0  0  0  0  0  0  0  0  0
   10.2260  -14.3752   23.9910 O   0  0  0  0  0  0  0  0  0  0  0  0
   10.9142  -19.9836   25.4855 O   0  0  0  0  0  0  0  0  0  0  0  0
    7.3969  -12.0115   25.0467 C   0  0  0  0  0  0  0  0  0  0  0  0
    7.5713  -12.8556   26.2599 C   0  0  1  0  0  0  0  0  0  0  0  0
    6.2863  -13.5598   26.6446 C   0  0  0  0  0  0  0  0  0  0  0  0
    8.6341  -13.9236   26.1089 C   0  0  2  0  0  0  0  0  0  0  0  0
    8.2942  -14.8881   25.0938 N   0  0  0  0  0  0  0  0  0  0  0  0
    8.8487  -14.6080   27.4140 C   0  0  0  0  0  0  0  0  0  0  0  0
    9.3062  -13.9496   28.5258 O   0  0  0  0  0  0  0  0  0  0  0  0
    8.6021  -15.8263   27.4956 O   0  0  0  0  0  0  0  0  0  0  0  0
  1  2  1  0
  3  5  1  0
  3  4  1  1
  3  2  1  0
  5  6  2  0
  7  8  1  0
  7  5  1  0
  8 13  1  0
  8  9  1  6
 10 11  1  0
 10  9  1  0
 11 15  1  0
 11 12  2  0
 13 14  2  0
 13 20  1  0
 17 18  1  6
 17 16  1  0
 19 17  1  0
 19 20  1  6
 21 19  1  0
 21 22  1  0
 23 21  2  0
M  END
$$$$
