SEV.pdb
     RDKit          3D

 23 22  0  0  1  0  0  0  0  0999 V2000
    9.1351  -12.0797   20.5562 O   0  0  0  0  0  0  0  0  0  0  0  0
    8.0830  -12.3788   19.7119 C   0  0  0  0  0  0  0  0  0  0  0  0
    7.9916  -13.8760   19.4387 C   0  0  2  0  0  0  0  0  0  0  0  0
    6.8736  -14.0815   18.5661 N   0  0  0  0  0  0  0  0  0  0  0  0
    7.7689  -14.5374   20.7756 C   0  0  0  0  0  0  0  0  0  0  0  0
    6.6314  -14.5603   21.3011 O   0  0  0  0  0  0  0  0  0  0  0  0
    8.8224  -15.1514   21.4819 N   0  0  0  0  0  0  0  0  0  0  0  0
    8.6335  -15.8268   22.7703 C   0  0  1  0  0  0  0  0  0  0  0  0
    9.5587  -17.0107   22.8618 C   0  0  0  0  0  0  0  0  0  0  0  0
    9.4048  -17.7887   24.1173 C   0  0  0  0  0  0  0  0  0  0  0  0
   10.3229  -18.9761   24.1002 C   0  0  0  0  0  0  0  0  0  0  0  0
   11.5412  -18.7985   23.9139 O   0  0  0  0  0  0  0  0  0  0  0  0
    8.8776  -14.9026   23.8856 C   0  0  0  0  0  0  0  0  0  0  0  0
    9.9035  -14.1872   23.8857 O   0  0  0  0  0  0  0  0  0  0  0  0
    9.8475  -20.2541   24.2855 O   0  0  0  0  0  0  0  0  0  0  0  0
    6.8938  -11.9540   25.0188 C   0  0  0  0  0  0  0  0  0  0  0  0
    7.1657  -12.8069   26.2077 C   0  0  1  0  0  0  0  0  0  0  0  0
    5.9485  -13.6130   26.6120 C   0  0  0  0  0  0  0  0  0  0  0  0
    8.3003  -13.7888   26.0039 C   0  0  2  0  0  0  0  0  0  0  0  0
    7.9945  -14.7695   24.9935 N   0  0  0  0  0  0  0  0  0  0  0  0
    8.6192  -14.4637   27.2925 C   0  0  0  0  0  0  0  0  0  0  0  0
    9.1049  -13.7854   28.3801 O   0  0  0  0  0  0  0  0  0  0  0  0
    8.4364  -15.6926   27.3828 O   0  0  0  0  0  0  0  0  0  0  0  0
  1  2  1  0
  3  5  1  0
  3  4  1  6
  3  2  1  0
  5  6  2  0
  7  8  1  0
  7  5  1  0
  8 13  1  0
  8  9  1  1
 10 11  1  0
 10  9  1  0
 11 15  1  0
 11 12  2  0
 13 14  2  0
 13 20  1  0
 17 18  1  6
 17 16  1  0
 19 17  1  0
 19 20  1  6
 21 19  1  0
 21 22  1  0
 23 21  2  0
M  END
$$$$
