SEV.pdb
     RDKit          3D

 23 22  0  0  1  0  0  0  0  0999 V2000
    7.9226  -16.4174   18.6920 O   0  0  0  0  0  0  0  0  0  0  0  0
    7.2658  -16.2352   19.8938 C   0  0  0  0  0  0  0  0  0  0  0  0
    6.8348  -17.5644   20.5042 C   0  0  2  0  0  0  0  0  0  0  0  0
    5.6633  -17.9955   19.8002 N   0  0  0  0  0  0  0  0  0  0  0  0
    6.5280  -17.2847   21.9539 C   0  0  0  0  0  0  0  0  0  0  0  0
    5.3976  -16.8731   22.3051 O   0  0  0  0  0  0  0  0  0  0  0  0
    7.4923  -17.4736   22.9640 N   0  0  0  0  0  0  0  0  0  0  0  0
    7.2056  -17.2765   24.3890 C   0  0  1  0  0  0  0  0  0  0  0  0
    7.6984  -18.4630   25.1735 C   0  0  0  0  0  0  0  0  0  0  0  0
    7.4790  -18.3398   26.6370 C   0  0  0  0  0  0  0  0  0  0  0  0
    7.9634  -19.5778   27.3339 C   0  0  0  0  0  0  0  0  0  0  0  0
    8.4901  -20.4850   26.6630 O   0  0  0  0  0  0  0  0  0  0  0  0
    7.8333  -16.0437   24.8827 C   0  0  0  0  0  0  0  0  0  0  0  0
    8.9917  -15.7470   24.5160 O   0  0  0  0  0  0  0  0  0  0  0  0
    7.8378  -19.7310   28.6956 O   0  0  0  0  0  0  0  0  0  0  0  0
    7.6548  -11.6666   27.1875 C   0  0  0  0  0  0  0  0  0  0  0  0
    6.9574  -12.8573   26.6300 C   0  0  1  0  0  0  0  0  0  0  0  0
    6.1111  -12.5006   25.4252 C   0  0  0  0  0  0  0  0  0  0  0  0
    7.8962  -13.9649   26.2003 C   0  0  2  0  0  0  0  0  0  0  0  0
    7.1858  -15.1445   25.7757 N   0  0  0  0  0  0  0  0  0  0  0  0
    8.8234  -14.2998   27.3165 C   0  0  0  0  0  0  0  0  0  0  0  0
    9.8223  -13.4545   27.7246 O   0  0  0  0  0  0  0  0  0  0  0  0
    8.6836  -15.3914   27.9003 O   0  0  0  0  0  0  0  0  0  0  0  0
  1  2  1  0
  3  5  1  0
  3  4  1  6
  3  2  1  0
  5  6  2  0
  7  8  1  0
  7  5  1  0
  8 13  1  0
  8  9  1  1
 10 11  1  0
 10  9  1  0
 11 15  1  0
 11 12  2  0
 13 14  2  0
 13 20  1  0
 17 18  1  6
 17 16  1  0
 19 17  1  0
 19 20  1  1
 21 19  1  0
 21 22  1  0
 23 21  2  0
M  END
$$$$
