SEV.pdb
     RDKit          3D

 23 22  0  0  1  0  0  0  0  0999 V2000
    8.7260  -11.9578   20.1257 O   0  0  0  0  0  0  0  0  0  0  0  0
    9.1594  -13.1870   19.6674 C   0  0  0  0  0  0  0  0  0  0  0  0
    8.0249  -14.2052   19.6355 C   0  0  2  0  0  0  0  0  0  0  0  0
    6.8630  -13.5315   19.1358 N   0  0  0  0  0  0  0  0  0  0  0  0
    7.8226  -14.6582   21.0595 C   0  0  0  0  0  0  0  0  0  0  0  0
    6.8383  -14.2632   21.7273 O   0  0  0  0  0  0  0  0  0  0  0  0
    8.7249  -15.5369   21.6917 N   0  0  0  0  0  0  0  0  0  0  0  0
    8.5008  -16.0816   23.0351 C   0  0  1  0  0  0  0  0  0  0  0  0
    9.3508  -17.3083   23.2324 C   0  0  0  0  0  0  0  0  0  0  0  0
    9.1471  -17.9664   24.5479 C   0  0  0  0  0  0  0  0  0  0  0  0
   10.0231  -19.1806   24.6547 C   0  0  0  0  0  0  0  0  0  0  0  0
    9.9749  -19.8747   25.6874 O   0  0  0  0  0  0  0  0  0  0  0  0
    8.8080  -15.0789   24.0636 C   0  0  0  0  0  0  0  0  0  0  0  0
    9.8562  -14.4021   23.9772 O   0  0  0  0  0  0  0  0  0  0  0  0
   10.8766  -19.5420   23.6375 O   0  0  0  0  0  0  0  0  0  0  0  0
    6.6335  -12.1441   25.1726 C   0  0  0  0  0  0  0  0  0  0  0  0
    7.1551  -12.8440   26.3781 C   0  0  1  0  0  0  0  0  0  0  0  0
    6.0853  -13.6800   27.0501 C   0  0  0  0  0  0  0  0  0  0  0  0
    8.3212  -13.7654   26.0882 C   0  0  2  0  0  0  0  0  0  0  0  0
    7.9629  -14.8252   25.1801 N   0  0  0  0  0  0  0  0  0  0  0  0
    8.8401  -14.3363   27.3620 C   0  0  0  0  0  0  0  0  0  0  0  0
    9.4312  -13.5655   28.3292 O   0  0  0  0  0  0  0  0  0  0  0  0
    8.7315  -15.5624   27.5534 O   0  0  0  0  0  0  0  0  0  0  0  0
  1  2  1  0
  3  5  1  0
  3  4  1  1
  3  2  1  0
  5  6  2  0
  7  8  1  0
  7  5  1  0
  8 13  1  0
  8  9  1  1
 10 11  1  0
 10  9  1  0
 11 15  1  0
 11 12  2  0
 13 14  2  0
 13 20  1  0
 17 18  1  6
 17 16  1  0
 19 17  1  0
 19 20  1  6
 21 19  1  0
 21 22  1  0
 23 21  2  0
M  END
$$$$
