SEV.pdb
     RDKit          3D

 23 22  0  0  1  0  0  0  0  0999 V2000
    5.4045  -15.8560   22.3351 O   0  0  0  0  0  0  0  0  0  0  0  0
    6.0851  -15.4286   21.2112 C   0  0  0  0  0  0  0  0  0  0  0  0
    7.0289  -16.5040   20.6846 C   0  0  2  0  0  0  0  0  0  0  0  0
    6.2308  -17.6505   20.3646 N   0  0  0  0  0  0  0  0  0  0  0  0
    7.9932  -16.8060   21.8041 C   0  0  0  0  0  0  0  0  0  0  0  0
    7.8402  -17.8153   22.5311 O   0  0  0  0  0  0  0  0  0  0  0  0
    9.0962  -15.9721   22.0755 N   0  0  0  0  0  0  0  0  0  0  0  0
   10.0801  -16.2647   23.1234 C   0  0  1  0  0  0  0  0  0  0  0  0
   11.4657  -15.9727   22.6127 C   0  0  0  0  0  0  0  0  0  0  0  0
   12.5302  -16.1942   23.6242 C   0  0  0  0  0  0  0  0  0  0  0  0
   13.8752  -15.9027   23.0250 C   0  0  0  0  0  0  0  0  0  0  0  0
   14.2379  -16.5316   22.0134 O   0  0  0  0  0  0  0  0  0  0  0  0
    9.8065  -15.4762   24.3321 C   0  0  0  0  0  0  0  0  0  0  0  0
   10.5074  -15.6436   25.3543 O   0  0  0  0  0  0  0  0  0  0  0  0
   14.7140  -14.9571   23.5689 O   0  0  0  0  0  0  0  0  0  0  0  0
    6.1190  -13.4192   25.3512 C   0  0  0  0  0  0  0  0  0  0  0  0
    7.4510  -12.7911   25.5661 C   0  0  1  0  0  0  0  0  0  0  0  0
    7.4881  -11.9729   26.8405 C   0  0  0  0  0  0  0  0  0  0  0  0
    8.5869  -13.7891   25.6465 C   0  0  2  0  0  0  0  0  0  0  0  0
    8.7656  -14.5090   24.4112 N   0  0  0  0  0  0  0  0  0  0  0  0
    8.3408  -14.7426   26.7637 C   0  0  0  0  0  0  0  0  0  0  0  0
    8.1193  -16.0795   26.5573 O   0  0  0  0  0  0  0  0  0  0  0  0
    8.3367  -14.3055   27.9302 O   0  0  0  0  0  0  0  0  0  0  0  0
  1  2  1  0
  3  5  1  0
  3  4  1  1
  3  2  1  0
  5  6  2  0
  7  8  1  0
  7  5  1  0
  8 13  1  0
  8  9  1  6
 10 11  1  0
 10  9  1  0
 11 15  1  0
 11 12  2  0
 13 14  2  0
 13 20  1  0
 17 18  1  1
 17 16  1  0
 19 17  1  0
 19 20  1  6
 21 19  1  0
 21 22  1  0
 23 21  2  0
M  END
$$$$
