SEV.pdb
     RDKit          3D

 23 22  0  0  1  0  0  0  0  0999 V2000
    8.8994  -11.8563   18.6725 O   0  0  0  0  0  0  0  0  0  0  0  0
    8.2919  -12.5396   19.7084 C   0  0  0  0  0  0  0  0  0  0  0  0
    8.3767  -14.0490   19.5101 C   0  0  2  0  0  0  0  0  0  0  0  0
    7.4064  -14.4025   18.5165 N   0  0  0  0  0  0  0  0  0  0  0  0
    8.0435  -14.6704   20.8432 C   0  0  0  0  0  0  0  0  0  0  0  0
    6.8526  -14.8315   21.1989 O   0  0  0  0  0  0  0  0  0  0  0  0
    9.0497  -15.0916   21.7353 N   0  0  0  0  0  0  0  0  0  0  0  0
    8.7605  -15.7751   23.0006 C   0  0  1  0  0  0  0  0  0  0  0  0
    9.5959  -17.0231   23.1043 C   0  0  0  0  0  0  0  0  0  0  0  0
    9.5008  -17.6929   24.4263 C   0  0  0  0  0  0  0  0  0  0  0  0
   10.3090  -18.9577   24.4193 C   0  0  0  0  0  0  0  0  0  0  0  0
   11.1822  -19.1150   23.5455 O   0  0  0  0  0  0  0  0  0  0  0  0
    9.0224  -14.8909   24.1439 C   0  0  0  0  0  0  0  0  0  0  0  0
   10.1464  -14.3573   24.2713 O   0  0  0  0  0  0  0  0  0  0  0  0
   10.1059  -19.9450   25.3561 O   0  0  0  0  0  0  0  0  0  0  0  0
    7.2957  -11.7001   25.3085 C   0  0  0  0  0  0  0  0  0  0  0  0
    7.4220  -12.6309   26.4629 C   0  0  1  0  0  0  0  0  0  0  0  0
    6.0995  -13.2862   26.8044 C   0  0  0  0  0  0  0  0  0  0  0  0
    8.4237  -13.7440   26.2385 C   0  0  2  0  0  0  0  0  0  0  0  0
    8.0493  -14.5981   25.1401 N   0  0  0  0  0  0  0  0  0  0  0  0
    8.5711  -14.5468   27.4841 C   0  0  0  0  0  0  0  0  0  0  0  0
    9.1008  -14.0289   28.6373 O   0  0  0  0  0  0  0  0  0  0  0  0
    8.1975  -15.7352   27.4748 O   0  0  0  0  0  0  0  0  0  0  0  0
  1  2  1  0
  3  5  1  0
  3  4  1  6
  3  2  1  0
  5  6  2  0
  7  8  1  0
  7  5  1  0
  8 13  1  0
  8  9  1  1
 10 11  1  0
 10  9  1  0
 11 15  1  0
 11 12  2  0
 13 14  2  0
 13 20  1  0
 17 18  1  6
 17 16  1  0
 19 17  1  0
 19 20  1  6
 21 19  1  0
 21 22  1  0
 23 21  2  0
M  END
$$$$
