SEV.pdb
     RDKit          3D

 23 22  0  0  1  0  0  0  0  0999 V2000
    9.8353  -14.9943   20.3494 O   0  0  0  0  0  0  0  0  0  0  0  0
    8.8351  -15.7060   19.7154 C   0  0  0  0  0  0  0  0  0  0  0  0
    8.6646  -17.0947   20.3215 C   0  0  2  0  0  0  0  0  0  0  0  0
    7.6519  -17.7681   19.5635 N   0  0  0  0  0  0  0  0  0  0  0  0
    8.2269  -16.8826   21.7490 C   0  0  0  0  0  0  0  0  0  0  0  0
    7.0528  -16.5366   22.0179 O   0  0  0  0  0  0  0  0  0  0  0  0
    9.1136  -17.0634   22.8293 N   0  0  0  0  0  0  0  0  0  0  0  0
    8.6941  -16.9674   24.2316 C   0  0  1  0  0  0  0  0  0  0  0  0
    9.4090  -18.0117   25.0466 C   0  0  0  0  0  0  0  0  0  0  0  0
    8.9922  -18.0407   26.4716 C   0  0  0  0  0  0  0  0  0  0  0  0
    9.8588  -18.9958   27.2397 C   0  0  0  0  0  0  0  0  0  0  0  0
    9.8611  -20.2005   26.9248 O   0  0  0  0  0  0  0  0  0  0  0  0
    8.9676  -15.6277   24.7683 C   0  0  0  0  0  0  0  0  0  0  0  0
   10.0804  -15.0935   24.5667 O   0  0  0  0  0  0  0  0  0  0  0  0
   10.6489  -18.5690   28.2824 O   0  0  0  0  0  0  0  0  0  0  0  0
    6.8755  -12.3243   24.4245 C   0  0  0  0  0  0  0  0  0  0  0  0
    7.2638  -12.5713   25.8398 C   0  0  1  0  0  0  0  0  0  0  0  0
    6.0985  -13.0824   26.6618 C   0  0  0  0  0  0  0  0  0  0  0  0
    8.3889  -13.5728   25.9947 C   0  0  2  0  0  0  0  0  0  0  0  0
    8.0183  -14.8829   25.5229 N   0  0  0  0  0  0  0  0  0  0  0  0
    8.8077  -13.6423   27.4221 C   0  0  0  0  0  0  0  0  0  0  0  0
    8.7631  -14.8041   28.1483 O   0  0  0  0  0  0  0  0  0  0  0  0
    9.2138  -12.6027   27.9753 O   0  0  0  0  0  0  0  0  0  0  0  0
  1  2  1  0
  3  5  1  0
  3  4  1  6
  3  2  1  0
  5  6  2  0
  7  8  1  0
  7  5  1  0
  8 13  1  0
  8  9  1  1
 10 11  1  0
 10  9  1  0
 11 15  1  0
 11 12  2  0
 13 14  2  0
 13 20  1  0
 17 18  1  1
 17 16  1  0
 19 17  1  0
 19 20  1  1
 21 19  1  0
 21 22  1  0
 23 21  2  0
M  END
$$$$
