SEV.pdb
     RDKit          3D

 23 22  0  0  1  0  0  0  0  0999 V2000
    8.8846  -12.4000   18.1139 O   0  0  0  0  0  0  0  0  0  0  0  0
    8.4395  -12.8737   19.3331 C   0  0  0  0  0  0  0  0  0  0  0  0
    8.2863  -14.3907   19.3230 C   0  0  2  0  0  0  0  0  0  0  0  0
    7.1243  -14.6954   18.5414 N   0  0  0  0  0  0  0  0  0  0  0  0
    8.1012  -14.8071   20.7605 C   0  0  0  0  0  0  0  0  0  0  0  0
    6.9738  -14.7570   21.3055 O   0  0  0  0  0  0  0  0  0  0  0  0
    9.1801  -15.2656   21.5427 N   0  0  0  0  0  0  0  0  0  0  0  0
    9.0047  -15.8843   22.8611 C   0  0  1  0  0  0  0  0  0  0  0  0
   10.0396  -16.9596   23.0575 C   0  0  0  0  0  0  0  0  0  0  0  0
    9.9599  -17.6254   24.3825 C   0  0  0  0  0  0  0  0  0  0  0  0
   11.0146  -18.6883   24.4863 C   0  0  0  0  0  0  0  0  0  0  0  0
   11.2700  -19.1830   25.6001 O   0  0  0  0  0  0  0  0  0  0  0  0
    9.1063  -14.8793   23.9276 C   0  0  0  0  0  0  0  0  0  0  0  0
   10.0646  -14.0757   23.9340 O   0  0  0  0  0  0  0  0  0  0  0  0
   11.7037  -19.1267   23.3788 O   0  0  0  0  0  0  0  0  0  0  0  0
    5.8975  -13.4659   26.4811 C   0  0  0  0  0  0  0  0  0  0  0  0
    7.1533  -12.7955   26.0471 C   0  0  1  0  0  0  0  0  0  0  0  0
    7.5388  -11.6653   26.9793 C   0  0  0  0  0  0  0  0  0  0  0  0
    8.3430  -13.7287   25.9659 C   0  0  2  0  0  0  0  0  0  0  0  0
    8.1556  -14.7627   24.9801 N   0  0  0  0  0  0  0  0  0  0  0  0
    8.5987  -14.3353   27.3017 C   0  0  0  0  0  0  0  0  0  0  0  0
    8.9652  -13.5902   28.3923 O   0  0  0  0  0  0  0  0  0  0  0  0
    8.4740  -15.5680   27.4302 O   0  0  0  0  0  0  0  0  0  0  0  0
  1  2  1  0
  3  5  1  0
  3  4  1  6
  3  2  1  0
  5  6  2  0
  7  8  1  0
  7  5  1  0
  8 13  1  0
  8  9  1  1
 10 11  1  0
 10  9  1  0
 11 15  1  0
 11 12  2  0
 13 14  2  0
 13 20  1  0
 17 18  1  1
 17 16  1  0
 19 17  1  0
 19 20  1  6
 21 19  1  0
 21 22  1  0
 23 21  2  0
M  END
$$$$
