SEV.pdb
     RDKit          3D

 23 22  0  0  1  0  0  0  0  0999 V2000
    8.6719  -12.2271   18.1240 O   0  0  0  0  0  0  0  0  0  0  0  0
    8.1146  -12.8289   19.2360 C   0  0  0  0  0  0  0  0  0  0  0  0
    8.3260  -14.3389   19.2212 C   0  0  2  0  0  0  0  0  0  0  0  0
    7.4733  -14.8776   18.2032 N   0  0  0  0  0  0  0  0  0  0  0  0
    7.9252  -14.8357   20.5875 C   0  0  0  0  0  0  0  0  0  0  0  0
    6.7250  -15.0711   20.8606 O   0  0  0  0  0  0  0  0  0  0  0  0
    8.8767  -15.0535   21.6040 N   0  0  0  0  0  0  0  0  0  0  0  0
    8.5541  -15.7191   22.8707 C   0  0  1  0  0  0  0  0  0  0  0  0
    9.2976  -17.0250   22.9601 C   0  0  0  0  0  0  0  0  0  0  0  0
   10.7741  -16.8712   22.9231 C   0  0  0  0  0  0  0  0  0  0  0  0
   11.4326  -18.2140   23.0515 C   0  0  0  0  0  0  0  0  0  0  0  0
   11.5127  -18.7455   24.1748 O   0  0  0  0  0  0  0  0  0  0  0  0
    8.8938  -14.8608   24.0133 C   0  0  0  0  0  0  0  0  0  0  0  0
    9.9567  -14.2018   24.0003 O   0  0  0  0  0  0  0  0  0  0  0  0
   11.9484  -18.8686   21.9565 O   0  0  0  0  0  0  0  0  0  0  0  0
    7.0890  -11.8787   25.4790 C   0  0  0  0  0  0  0  0  0  0  0  0
    7.4012  -12.8381   26.5730 C   0  0  1  0  0  0  0  0  0  0  0  0
    6.1807  -13.6331   26.9894 C   0  0  0  0  0  0  0  0  0  0  0  0
    8.4804  -13.8379   26.2142 C   0  0  2  0  0  0  0  0  0  0  0  0
    8.0649  -14.7313   25.1628 N   0  0  0  0  0  0  0  0  0  0  0  0
    8.8679  -14.6157   27.4236 C   0  0  0  0  0  0  0  0  0  0  0  0
    8.7384  -15.9783   27.4971 O   0  0  0  0  0  0  0  0  0  0  0  0
    9.3273  -14.0015   28.4052 O   0  0  0  0  0  0  0  0  0  0  0  0
  1  2  1  0
  3  5  1  0
  3  4  1  6
  3  2  1  0
  5  6  2  0
  7  8  1  0
  7  5  1  0
  8 13  1  0
  8  9  1  1
 10 11  1  0
 10  9  1  0
 11 15  1  0
 11 12  2  0
 13 14  2  0
 13 20  1  0
 17 18  1  6
 17 16  1  0
 19 17  1  0
 19 20  1  6
 21 19  1  0
 21 22  1  0
 23 21  2  0
M  END
$$$$
