SEV.pdb
     RDKit          3D

 23 22  0  0  1  0  0  0  0  0999 V2000
    8.6425  -12.5144   18.4824 O   0  0  0  0  0  0  0  0  0  0  0  0
    8.2161  -13.0944   19.6617 C   0  0  0  0  0  0  0  0  0  0  0  0
    8.1953  -14.6158   19.5626 C   0  0  2  0  0  0  0  0  0  0  0  0
    7.0853  -14.9724   18.7293 N   0  0  0  0  0  0  0  0  0  0  0  0
    8.0090  -15.1290   20.9683 C   0  0  0  0  0  0  0  0  0  0  0  0
    6.8703  -15.1813   21.4892 O   0  0  0  0  0  0  0  0  0  0  0  0
    9.0991  -15.5669   21.7466 N   0  0  0  0  0  0  0  0  0  0  0  0
    8.9425  -16.1568   23.0805 C   0  0  1  0  0  0  0  0  0  0  0  0
    9.9745  -17.2340   23.2821 C   0  0  0  0  0  0  0  0  0  0  0  0
    9.9278  -17.8561   24.6297 C   0  0  0  0  0  0  0  0  0  0  0  0
   11.0368  -18.8578   24.7704 C   0  0  0  0  0  0  0  0  0  0  0  0
   10.7523  -20.0569   24.9489 O   0  0  0  0  0  0  0  0  0  0  0  0
    9.0676  -15.1304   24.1238 C   0  0  0  0  0  0  0  0  0  0  0  0
   10.0809  -14.3980   24.1556 O   0  0  0  0  0  0  0  0  0  0  0  0
   12.3583  -18.4798   24.7064 O   0  0  0  0  0  0  0  0  0  0  0  0
    7.1651  -11.9478   27.2891 C   0  0  0  0  0  0  0  0  0  0  0  0
    7.0143  -13.0330   26.2818 C   0  0  1  0  0  0  0  0  0  0  0  0
    6.5976  -12.4915   24.9297 C   0  0  0  0  0  0  0  0  0  0  0  0
    8.2767  -13.8409   26.0661 C   0  0  2  0  0  0  0  0  0  0  0  0
    8.0800  -14.9145   25.1254 N   0  0  0  0  0  0  0  0  0  0  0  0
    8.7560  -14.3824   27.3680 C   0  0  0  0  0  0  0  0  0  0  0  0
    9.2463  -13.5799   28.3652 O   0  0  0  0  0  0  0  0  0  0  0  0
    8.7084  -15.6130   27.5553 O   0  0  0  0  0  0  0  0  0  0  0  0
  1  2  1  0
  3  5  1  0
  3  4  1  6
  3  2  1  0
  5  6  2  0
  7  8  1  0
  7  5  1  0
  8 13  1  0
  8  9  1  1
 10 11  1  0
 10  9  1  0
 11 15  1  0
 11 12  2  0
 13 14  2  0
 13 20  1  0
 17 18  1  6
 17 16  1  0
 19 17  1  0
 19 20  1  6
 21 19  1  0
 21 22  1  0
 23 21  2  0
M  END
$$$$
