SEV.pdb
     RDKit          3D

 23 22  0  0  1  0  0  0  0  0999 V2000
    7.6053  -16.9310   18.3217 O   0  0  0  0  0  0  0  0  0  0  0  0
    6.8169  -16.4712   19.3590 C   0  0  0  0  0  0  0  0  0  0  0  0
    7.4641  -15.2902   20.0740 C   0  0  2  0  0  0  0  0  0  0  0  0
    8.7322  -15.0574   19.4483 N   0  0  0  0  0  0  0  0  0  0  0  0
    7.6345  -15.7082   21.5129 C   0  0  0  0  0  0  0  0  0  0  0  0
    6.6390  -15.9143   22.2458 O   0  0  0  0  0  0  0  0  0  0  0  0
    8.9098  -15.8826   22.0866 N   0  0  0  0  0  0  0  0  0  0  0  0
    9.1112  -16.4074   23.4415 C   0  0  1  0  0  0  0  0  0  0  0  0
   10.3011  -17.3294   23.4556 C   0  0  0  0  0  0  0  0  0  0  0  0
   10.0334  -18.6537   22.8393 C   0  0  0  0  0  0  0  0  0  0  0  0
   11.2951  -19.4660   22.8021 C   0  0  0  0  0  0  0  0  0  0  0  0
   11.2658  -20.6501   23.1865 O   0  0  0  0  0  0  0  0  0  0  0  0
    9.3036  -15.3133   24.4024 C   0  0  0  0  0  0  0  0  0  0  0  0
   10.2200  -14.4817   24.2209 O   0  0  0  0  0  0  0  0  0  0  0  0
   12.4807  -18.9310   22.3532 O   0  0  0  0  0  0  0  0  0  0  0  0
    7.7643  -12.0184   27.5678 C   0  0  0  0  0  0  0  0  0  0  0  0
    7.5601  -13.1145   26.5820 C   0  0  1  0  0  0  0  0  0  0  0  0
    7.2314  -12.5777   25.2040 C   0  0  0  0  0  0  0  0  0  0  0  0
    8.7606  -14.0246   26.4286 C   0  0  2  0  0  0  0  0  0  0  0  0
    8.4892  -15.1389   25.5563 N   0  0  0  0  0  0  0  0  0  0  0  0
    9.1941  -14.5153   27.7662 C   0  0  0  0  0  0  0  0  0  0  0  0
    9.8392  -13.7143   28.6724 O   0  0  0  0  0  0  0  0  0  0  0  0
    8.9600  -15.7003   28.0708 O   0  0  0  0  0  0  0  0  0  0  0  0
  1  2  1  0
  3  5  1  0
  3  4  1  6
  3  2  1  0
  5  6  2  0
  7  8  1  0
  7  5  1  0
  8 13  1  0
  8  9  1  6
 10 11  1  0
 10  9  1  0
 11 15  1  0
 11 12  2  0
 13 14  2  0
 13 20  1  0
 17 18  1  6
 17 16  1  0
 19 17  1  0
 19 20  1  6
 21 19  1  0
 21 22  1  0
 23 21  2  0
M  END
$$$$
