SEV.pdb
     RDKit          3D

 23 22  0  0  1  0  0  0  0  0999 V2000
    8.2116  -13.2666   19.8064 O   0  0  0  0  0  0  0  0  0  0  0  0
    7.5327  -14.2563   19.1217 C   0  0  0  0  0  0  0  0  0  0  0  0
    8.2245  -15.6081   19.2585 C   0  0  2  0  0  0  0  0  0  0  0  0
    7.5079  -16.5375   18.4360 N   0  0  0  0  0  0  0  0  0  0  0  0
    8.1320  -15.9854   20.7156 C   0  0  0  0  0  0  0  0  0  0  0  0
    7.0884  -16.4982   21.1831 O   0  0  0  0  0  0  0  0  0  0  0  0
    9.2068  -15.7781   21.6032 N   0  0  0  0  0  0  0  0  0  0  0  0
    9.1735  -16.1949   23.0092 C   0  0  1  0  0  0  0  0  0  0  0  0
   10.3675  -17.0613   23.3088 C   0  0  0  0  0  0  0  0  0  0  0  0
   10.1598  -18.4938   22.9768 C   0  0  0  0  0  0  0  0  0  0  0  0
   11.3974  -19.2794   23.2999 C   0  0  0  0  0  0  0  0  0  0  0  0
   11.3144  -20.5147   23.4327 O   0  0  0  0  0  0  0  0  0  0  0  0
    9.1556  -15.0272   23.9001 C   0  0  0  0  0  0  0  0  0  0  0  0
   10.0665  -14.1736   23.8230 O   0  0  0  0  0  0  0  0  0  0  0  0
   12.6190  -18.6644   23.4522 O   0  0  0  0  0  0  0  0  0  0  0  0
    5.7439  -13.6338   26.2082 C   0  0  0  0  0  0  0  0  0  0  0  0
    6.8843  -12.8503   25.6601 C   0  0  1  0  0  0  0  0  0  0  0  0
    7.1067  -11.5658   26.4318 C   0  0  0  0  0  0  0  0  0  0  0  0
    8.1975  -13.6043   25.6660 C   0  0  2  0  0  0  0  0  0  0  0  0
    8.1383  -14.8038   24.8698 N   0  0  0  0  0  0  0  0  0  0  0  0
    8.5799  -13.9376   27.0662 C   0  0  0  0  0  0  0  0  0  0  0  0
    8.9024  -12.9787   27.9910 O   0  0  0  0  0  0  0  0  0  0  0  0
    8.6070  -15.1353   27.4075 O   0  0  0  0  0  0  0  0  0  0  0  0
  1  2  1  0
  3  5  1  0
  3  4  1  6
  3  2  1  0
  5  6  2  0
  7  8  1  0
  7  5  1  0
  8 13  1  0
  8  9  1  1
 10 11  1  0
 10  9  1  0
 11 15  1  0
 11 12  2  0
 13 14  2  0
 13 20  1  0
 17 18  1  1
 17 16  1  0
 19 17  1  0
 19 20  1  6
 21 19  1  0
 21 22  1  0
 23 21  2  0
M  END
$$$$
