SEV.pdb
     RDKit          3D

 23 22  0  0  1  0  0  0  0  0999 V2000
    9.0079  -12.4199   20.3293 O   0  0  0  0  0  0  0  0  0  0  0  0
    8.0444  -12.8837   19.4542 C   0  0  0  0  0  0  0  0  0  0  0  0
    8.0894  -14.4022   19.3245 C   0  0  2  0  0  0  0  0  0  0  0  0
    7.0270  -14.7851   18.4422 N   0  0  0  0  0  0  0  0  0  0  0  0
    7.8713  -14.9522   20.7116 C   0  0  0  0  0  0  0  0  0  0  0  0
    6.7238  -14.9970   21.2135 O   0  0  0  0  0  0  0  0  0  0  0  0
    8.9405  -15.4339   21.4930 N   0  0  0  0  0  0  0  0  0  0  0  0
    8.7533  -16.0432   22.8141 C   0  0  1  0  0  0  0  0  0  0  0  0
    9.7546  -17.1505   23.0076 C   0  0  0  0  0  0  0  0  0  0  0  0
    9.6695  -17.8018   24.3394 C   0  0  0  0  0  0  0  0  0  0  0  0
   10.7354  -18.8512   24.4657 C   0  0  0  0  0  0  0  0  0  0  0  0
   11.4903  -18.8332   25.4559 O   0  0  0  0  0  0  0  0  0  0  0  0
    8.8931  -15.0392   23.8771 C   0  0  0  0  0  0  0  0  0  0  0  0
    9.8849  -14.2773   23.8849 O   0  0  0  0  0  0  0  0  0  0  0  0
   10.8954  -19.8305   23.5124 O   0  0  0  0  0  0  0  0  0  0  0  0
    6.9358  -11.9779   27.1362 C   0  0  0  0  0  0  0  0  0  0  0  0
    6.8144  -13.0588   26.1204 C   0  0  1  0  0  0  0  0  0  0  0  0
    6.3144  -12.5289   24.7922 C   0  0  0  0  0  0  0  0  0  0  0  0
    8.1151  -13.7842   25.8472 C   0  0  2  0  0  0  0  0  0  0  0  0
    7.9435  -14.8778   24.9248 N   0  0  0  0  0  0  0  0  0  0  0  0
    8.6932  -14.2799   27.1270 C   0  0  0  0  0  0  0  0  0  0  0  0
    9.1801  -13.4369   28.0920 O   0  0  0  0  0  0  0  0  0  0  0  0
    8.7346  -15.5089   27.3256 O   0  0  0  0  0  0  0  0  0  0  0  0
  1  2  1  0
  3  5  1  0
  3  4  1  6
  3  2  1  0
  5  6  2  0
  7  8  1  0
  7  5  1  0
  8 13  1  0
  8  9  1  1
 10 11  1  0
 10  9  1  0
 11 15  1  0
 11 12  2  0
 13 14  2  0
 13 20  1  0
 17 18  1  6
 17 16  1  0
 19 17  1  0
 19 20  1  6
 21 19  1  0
 21 22  1  0
 23 21  2  0
M  END
$$$$
