QVL.pdb
     RDKit          3D

 25 24  0  0  1  0  0  0  0  0999 V2000
    7.4012  -18.1679   26.2857 N   0  0  0  0  0  0  0  0  0  0  0  0
    7.0034  -19.2424   25.4434 C   0  0  0  0  0  0  0  0  0  0  0  0
    6.3662  -20.1944   25.9158 O   0  0  0  0  0  0  0  0  0  0  0  0
    7.3667  -19.1804   24.0327 C   0  0  0  0  0  0  0  0  0  0  0  0
    6.3312  -18.6741   23.0973 C   0  0  0  0  0  0  0  0  0  0  0  0
    6.7993  -18.5693   21.6775 C   0  0  2  0  0  0  0  0  0  0  0  0
    7.5467  -19.7364   21.2506 N   0  0  0  0  0  0  0  0  0  0  0  0
    7.6865  -17.3936   21.5127 C   0  0  0  0  0  0  0  0  0  0  0  0
    8.9060  -17.5689   21.5458 O   0  0  0  0  0  0  0  0  0  0  0  0
    6.8550  -14.0453   19.1460 C   0  0  0  0  0  0  0  0  0  0  0  0
    7.1909  -13.7867   20.5871 C   0  0  2  0  0  0  0  0  0  0  0  0
    7.8897  -12.4451   20.6078 C   0  0  0  0  0  0  0  0  0  0  0  0
    7.9765  -14.8990   21.1697 C   0  0  2  0  0  0  0  0  0  0  0  0
    7.1825  -16.1205   21.3250 N   0  0  0  0  0  0  0  0  0  0  0  0
    8.5636  -14.6806   22.4984 C   0  0  0  0  0  0  0  0  0  0  0  0
    9.6769  -14.0989   22.5911 O   0  0  0  0  0  0  0  0  0  0  0  0
    8.0943  -11.7461   26.5356 C   0  0  0  0  0  0  0  0  0  0  0  0
    7.1820  -12.9459   26.7061 C   0  0  1  0  0  0  0  0  0  0  0  0
    5.8053  -12.3827   27.0538 C   0  0  0  0  0  0  0  0  0  0  0  0
    7.0454  -13.6511   25.3954 C   0  0  0  0  0  0  0  0  0  0  0  0
    8.3262  -14.3336   24.9531 C   0  0  2  0  0  0  0  0  0  0  0  0
    7.9706  -15.0737   23.7208 N   0  0  0  0  0  0  0  0  0  0  0  0
    8.8124  -15.3157   25.9498 C   0  0  0  0  0  0  0  0  0  0  0  0
    8.8575  -16.6648   25.6486 O   0  0  0  0  0  0  0  0  0  0  0  0
    9.1947  -14.9527   27.0891 O   0  0  0  0  0  0  0  0  0  0  0  0
  2  4  1  0
  2  1  1  0
  3  2  2  0
  5  6  1  0
  5  4  1  0
  6  7  1  1
  8  9  2  0
  8  6  1  0
 11 10  1  6
 11 13  1  0
 11 12  1  0
 13 14  1  1
 14  8  1  0
 15 22  1  0
 15 13  1  0
 16 15  2  0
 18 17  1  6
 19 18  1  0
 20 18  1  0
 21 20  1  1
 21 23  1  0
 21 22  1  0
 23 24  1  0
 25 23  2  0
M  END
$$$$
