QVL.pdb
     RDKit          3D

 25 24  0  0  1  0  0  0  0  0999 V2000
   13.1842  -14.5789   20.3586 N   0  0  0  0  0  0  0  0  0  0  0  0
   13.1046  -14.2034   18.9893 C   0  0  0  0  0  0  0  0  0  0  0  0
   14.1403  -13.9581   18.3549 O   0  0  0  0  0  0  0  0  0  0  0  0
   11.7849  -14.1211   18.3750 C   0  0  0  0  0  0  0  0  0  0  0  0
   10.6256  -14.4786   19.2305 C   0  0  0  0  0  0  0  0  0  0  0  0
   10.1273  -15.8760   19.0192 C   0  0  2  0  0  0  0  0  0  0  0  0
    9.3789  -16.0189   17.7852 N   0  0  0  0  0  0  0  0  0  0  0  0
    9.2289  -16.2761   20.1279 C   0  0  0  0  0  0  0  0  0  0  0  0
    8.0111  -16.2063   19.9515 O   0  0  0  0  0  0  0  0  0  0  0  0
    9.0289  -19.6075   21.7540 C   0  0  0  0  0  0  0  0  0  0  0  0
    9.3259  -18.6138   22.8408 C   0  0  2  0  0  0  0  0  0  0  0  0
    8.6362  -19.1453   24.0779 C   0  0  0  0  0  0  0  0  0  0  0  0
    8.9197  -17.2440   22.4501 C   0  0  2  0  0  0  0  0  0  0  0  0
    9.7208  -16.7204   21.3407 N   0  0  0  0  0  0  0  0  0  0  0  0
    9.0062  -16.2001   23.4799 C   0  0  0  0  0  0  0  0  0  0  0  0
   10.1394  -15.7971   23.8538 O   0  0  0  0  0  0  0  0  0  0  0  0
    7.6893  -11.7024   26.1624 C   0  0  0  0  0  0  0  0  0  0  0  0
    6.8356  -12.9086   26.5045 C   0  0  1  0  0  0  0  0  0  0  0  0
    5.4092  -12.3849   26.6613 C   0  0  0  0  0  0  0  0  0  0  0  0
    6.8279  -13.8516   25.3449 C   0  0  0  0  0  0  0  0  0  0  0  0
    8.1452  -14.5831   25.1669 C   0  0  2  0  0  0  0  0  0  0  0  0
    7.8967  -15.5853   24.1056 N   0  0  0  0  0  0  0  0  0  0  0  0
    8.5544  -15.3089   26.3918 C   0  0  0  0  0  0  0  0  0  0  0  0
    7.9500  -16.5030   26.7408 O   0  0  0  0  0  0  0  0  0  0  0  0
    9.4561  -14.8627   27.1427 O   0  0  0  0  0  0  0  0  0  0  0  0
  2  4  1  0
  2  1  1  0
  3  2  2  0
  5  6  1  0
  5  4  1  0
  6  7  1  6
  8  9  2  0
  8  6  1  0
 11 10  1  6
 11 13  1  0
 11 12  1  0
 13 14  1  6
 14  8  1  0
 15 22  1  0
 15 13  1  0
 16 15  2  0
 18 17  1  6
 19 18  1  0
 20 18  1  0
 21 20  1  1
 21 23  1  0
 21 22  1  0
 23 24  1  0
 25 23  2  0
M  END
$$$$
