QVL.pdb
     RDKit          3D

 25 24  0  0  1  0  0  0  0  0999 V2000
   15.1804  -14.0945   18.7937 N   0  0  0  0  0  0  0  0  0  0  0  0
   13.8165  -14.3397   18.4744 C   0  0  0  0  0  0  0  0  0  0  0  0
   13.1334  -13.4460   17.9547 O   0  0  0  0  0  0  0  0  0  0  0  0
   13.2662  -15.6559   18.7756 C   0  0  0  0  0  0  0  0  0  0  0  0
   13.4294  -16.1463   20.1672 C   0  0  0  0  0  0  0  0  0  0  0  0
   12.2209  -16.8507   20.7049 C   0  0  2  0  0  0  0  0  0  0  0  0
   11.4031  -17.4308   19.6572 N   0  0  0  0  0  0  0  0  0  0  0  0
   11.3651  -15.9039   21.4583 C   0  0  0  0  0  0  0  0  0  0  0  0
   11.9050  -15.1171   22.2383 O   0  0  0  0  0  0  0  0  0  0  0  0
    8.3789  -13.8121   19.8356 C   0  0  0  0  0  0  0  0  0  0  0  0
    7.9333  -14.5856   21.0437 C   0  0  2  0  0  0  0  0  0  0  0  0
    6.8631  -13.7392   21.6970 C   0  0  0  0  0  0  0  0  0  0  0  0
    9.0753  -14.9220   21.9249 C   0  0  2  0  0  0  0  0  0  0  0  0
    9.9914  -15.8840   21.3070 N   0  0  0  0  0  0  0  0  0  0  0  0
    8.7613  -15.5134   23.2324 C   0  0  0  0  0  0  0  0  0  0  0  0
    8.7365  -16.7671   23.3505 O   0  0  0  0  0  0  0  0  0  0  0  0
    9.2464  -12.9991   28.2433 C   0  0  0  0  0  0  0  0  0  0  0  0
    9.3598  -14.1573   27.2703 C   0  0  1  0  0  0  0  0  0  0  0  0
    9.8008  -15.3625   28.0989 C   0  0  0  0  0  0  0  0  0  0  0  0
    8.0056  -14.4766   26.7245 C   0  0  0  0  0  0  0  0  0  0  0  0
    8.0421  -15.5127   25.6167 C   0  0  2  0  0  0  0  0  0  0  0  0
    8.4795  -14.7785   24.4075 N   0  0  0  0  0  0  0  0  0  0  0  0
    6.7050  -16.0879   25.3413 C   0  0  0  0  0  0  0  0  0  0  0  0
    6.3286  -17.2979   25.8954 O   0  0  0  0  0  0  0  0  0  0  0  0
    5.8812  -15.4962   24.6015 O   0  0  0  0  0  0  0  0  0  0  0  0
  2  4  1  0
  2  1  1  0
  3  2  2  0
  5  6  1  0
  5  4  1  0
  6  7  1  6
  8  9  2  0
  8  6  1  0
 11 10  1  6
 11 13  1  0
 11 12  1  0
 13 14  1  6
 14  8  1  0
 15 22  1  0
 15 13  1  0
 16 15  2  0
 18 17  1  1
 19 18  1  0
 20 18  1  0
 21 20  1  1
 21 23  1  0
 21 22  1  0
 23 24  1  0
 25 23  2  0
M  END
$$$$
