QVL.pdb
     RDKit          3D

 25 24  0  0  1  0  0  0  0  0999 V2000
   13.0428  -14.0638   20.6534 N   0  0  0  0  0  0  0  0  0  0  0  0
   12.5453  -13.9815   19.3237 C   0  0  0  0  0  0  0  0  0  0  0  0
   13.1550  -14.5392   18.4004 O   0  0  0  0  0  0  0  0  0  0  0  0
   11.3158  -13.2317   19.0954 C   0  0  0  0  0  0  0  0  0  0  0  0
   10.1439  -13.5991   19.9291 C   0  0  0  0  0  0  0  0  0  0  0  0
    9.4013  -14.8015   19.4306 C   0  0  2  0  0  0  0  0  0  0  0  0
    8.5189  -14.4903   18.3226 N   0  0  0  0  0  0  0  0  0  0  0  0
    8.5655  -15.3758   20.5113 C   0  0  0  0  0  0  0  0  0  0  0  0
    7.3464  -15.2002   20.4673 O   0  0  0  0  0  0  0  0  0  0  0  0
    7.8748  -18.8099   21.3542 C   0  0  0  0  0  0  0  0  0  0  0  0
    8.5101  -18.2307   22.5861 C   0  0  2  0  0  0  0  0  0  0  0  0
    7.8741  -18.9561   23.7515 C   0  0  0  0  0  0  0  0  0  0  0  0
    8.3696  -16.7568   22.6278 C   0  0  2  0  0  0  0  0  0  0  0  0
    9.1165  -16.0953   21.5549 N   0  0  0  0  0  0  0  0  0  0  0  0
    8.8167  -16.0754   23.8499 C   0  0  0  0  0  0  0  0  0  0  0  0
   10.0508  -15.9568   24.0718 O   0  0  0  0  0  0  0  0  0  0  0  0
    6.0521  -12.0550   26.2292 C   0  0  0  0  0  0  0  0  0  0  0  0
    7.1700  -12.8968   25.6441 C   0  0  1  0  0  0  0  0  0  0  0  0
    8.3880  -11.9788   25.5574 C   0  0  0  0  0  0  0  0  0  0  0  0
    7.5167  -13.9902   26.6023 C   0  0  0  0  0  0  0  0  0  0  0  0
    8.5579  -14.9491   26.0560 C   0  0  2  0  0  0  0  0  0  0  0  0
    7.9591  -15.5200   24.8279 N   0  0  0  0  0  0  0  0  0  0  0  0
    8.8368  -16.0661   26.9883 C   0  0  0  0  0  0  0  0  0  0  0  0
    8.1776  -17.2751   26.8598 O   0  0  0  0  0  0  0  0  0  0  0  0
    9.6745  -15.9467   27.9156 O   0  0  0  0  0  0  0  0  0  0  0  0
  2  4  1  0
  2  1  1  0
  3  2  2  0
  5  6  1  0
  5  4  1  0
  6  7  1  6
  8  9  2  0
  8  6  1  0
 11 10  1  6
 11 13  1  0
 11 12  1  0
 13 14  1  6
 14  8  1  0
 15 22  1  0
 15 13  1  0
 16 15  2  0
 18 17  1  1
 19 18  1  0
 20 18  1  0
 21 20  1  1
 21 23  1  0
 21 22  1  0
 23 24  1  0
 25 23  2  0
M  END
$$$$
