QVL.pdb
     RDKit          3D

 25 24  0  0  1  0  0  0  0  0999 V2000
   11.3046  -20.7093   22.7345 N   0  0  0  0  0  0  0  0  0  0  0  0
   12.4786  -20.7731   21.9344 C   0  0  0  0  0  0  0  0  0  0  0  0
   12.9277  -21.8732   21.5831 O   0  0  0  0  0  0  0  0  0  0  0  0
   13.1183  -19.5200   21.5519 C   0  0  0  0  0  0  0  0  0  0  0  0
   12.4395  -18.2678   21.9701 C   0  0  0  0  0  0  0  0  0  0  0  0
   11.7531  -17.5494   20.8482 C   0  0  2  0  0  0  0  0  0  0  0  0
   12.6851  -17.0432   19.8592 N   0  0  0  0  0  0  0  0  0  0  0  0
   10.9905  -16.3901   21.3687 C   0  0  0  0  0  0  0  0  0  0  0  0
   11.5521  -15.2944   21.4236 O   0  0  0  0  0  0  0  0  0  0  0  0
    7.6991  -15.0643   20.0727 C   0  0  0  0  0  0  0  0  0  0  0  0
    7.5222  -15.3815   21.5304 C   0  0  2  0  0  0  0  0  0  0  0  0
    6.5421  -14.3550   22.0543 C   0  0  0  0  0  0  0  0  0  0  0  0
    8.8213  -15.4111   22.2412 C   0  0  2  0  0  0  0  0  0  0  0  0
    9.6791  -16.5093   21.7888 N   0  0  0  0  0  0  0  0  0  0  0  0
    8.7826  -15.5636   23.7017 C   0  0  0  0  0  0  0  0  0  0  0  0
    9.5282  -16.4171   24.2512 O   0  0  0  0  0  0  0  0  0  0  0  0
    5.9083  -11.9544   26.4986 C   0  0  0  0  0  0  0  0  0  0  0  0
    7.1469  -12.7409   26.1138 C   0  0  1  0  0  0  0  0  0  0  0  0
    8.3147  -12.0660   26.8309 C   0  0  0  0  0  0  0  0  0  0  0  0
    7.0410  -14.1267   26.6636 C   0  0  0  0  0  0  0  0  0  0  0  0
    8.0207  -15.0939   26.0257 C   0  0  2  0  0  0  0  0  0  0  0  0
    7.9606  -14.8119   24.5734 N   0  0  0  0  0  0  0  0  0  0  0  0
    7.6288  -16.5076   26.2316 C   0  0  0  0  0  0  0  0  0  0  0  0
    6.8850  -17.1806   25.2794 O   0  0  0  0  0  0  0  0  0  0  0  0
    7.9591  -17.1305   27.2704 O   0  0  0  0  0  0  0  0  0  0  0  0
  2  4  1  0
  2  1  1  0
  3  2  2  0
  5  6  1  0
  5  4  1  0
  6  7  1  6
  8  9  2  0
  8  6  1  0
 11 10  1  6
 11 13  1  0
 11 12  1  0
 13 14  1  6
 14  8  1  0
 15 22  1  0
 15 13  1  0
 16 15  2  0
 18 17  1  1
 19 18  1  0
 20 18  1  0
 21 20  1  1
 21 23  1  0
 21 22  1  0
 23 24  1  0
 25 23  2  0
M  END
$$$$
