QVL.pdb
     RDKit          3D

 25 24  0  0  1  0  0  0  0  0999 V2000
    8.2892  -12.2919   19.1342 N   0  0  0  0  0  0  0  0  0  0  0  0
    8.4713  -13.3082   18.1563 C   0  0  0  0  0  0  0  0  0  0  0  0
    8.7823  -13.0011   16.9968 O   0  0  0  0  0  0  0  0  0  0  0  0
    8.2823  -14.6954   18.5635 C   0  0  0  0  0  0  0  0  0  0  0  0
    7.8581  -14.9283   19.9668 C   0  0  0  0  0  0  0  0  0  0  0  0
    7.5942  -16.3684   20.2868 C   0  0  2  0  0  0  0  0  0  0  0  0
    6.4613  -16.9021   19.5555 N   0  0  0  0  0  0  0  0  0  0  0  0
    7.3021  -16.5304   21.7308 C   0  0  0  0  0  0  0  0  0  0  0  0
    6.1314  -16.4444   22.1064 O   0  0  0  0  0  0  0  0  0  0  0  0
    7.8755  -19.5189   23.6660 C   0  0  0  0  0  0  0  0  0  0  0  0
    8.6086  -18.4436   24.4163 C   0  0  2  0  0  0  0  0  0  0  0  0
    8.4782  -18.8067   25.8791 C   0  0  0  0  0  0  0  0  0  0  0  0
    8.1008  -17.0963   24.0689 C   0  0  2  0  0  0  0  0  0  0  0  0
    8.3016  -16.7729   22.6541 N   0  0  0  0  0  0  0  0  0  0  0  0
    8.6853  -15.9547   24.7850 C   0  0  0  0  0  0  0  0  0  0  0  0
    9.7540  -15.4426   24.3582 O   0  0  0  0  0  0  0  0  0  0  0  0
    5.5962  -12.4361   27.3179 C   0  0  0  0  0  0  0  0  0  0  0  0
    6.6133  -13.2052   26.4966 C   0  0  1  0  0  0  0  0  0  0  0  0
    7.0141  -12.2809   25.3483 C   0  0  0  0  0  0  0  0  0  0  0  0
    7.8399  -13.4337   27.3196 C   0  0  0  0  0  0  0  0  0  0  0  0
    8.8875  -14.2658   26.6040 C   0  0  2  0  0  0  0  0  0  0  0  0
    8.1367  -15.3582   25.9441 N   0  0  0  0  0  0  0  0  0  0  0  0
    9.8543  -14.8804   27.5432 C   0  0  0  0  0  0  0  0  0  0  0  0
   10.9121  -14.1469   28.0488 O   0  0  0  0  0  0  0  0  0  0  0  0
    9.7407  -16.0774   27.9042 O   0  0  0  0  0  0  0  0  0  0  0  0
  2  4  1  0
  2  1  1  0
  3  2  2  0
  5  6  1  0
  5  4  1  0
  6  7  1  6
  8  9  2  0
  8  6  1  0
 11 10  1  6
 11 13  1  0
 11 12  1  0
 13 14  1  6
 14  8  1  0
 15 22  1  0
 15 13  1  0
 16 15  2  0
 18 17  1  1
 19 18  1  0
 20 18  1  0
 21 20  1  1
 21 23  1  0
 21 22  1  0
 23 24  1  0
 25 23  2  0
M  END
$$$$
