QVL.pdb
     RDKit          3D

 25 24  0  0  1  0  0  0  0  0999 V2000
   14.7709  -16.7917   19.7770 N   0  0  0  0  0  0  0  0  0  0  0  0
   14.4525  -15.5720   20.4351 C   0  0  0  0  0  0  0  0  0  0  0  0
   14.6869  -15.4434   21.6450 O   0  0  0  0  0  0  0  0  0  0  0  0
   13.8529  -14.5020   19.6467 C   0  0  0  0  0  0  0  0  0  0  0  0
   12.5284  -14.0033   20.0944 C   0  0  0  0  0  0  0  0  0  0  0  0
   11.3730  -14.7933   19.5589 C   0  0  2  0  0  0  0  0  0  0  0  0
   11.0943  -14.4974   18.1669 N   0  0  0  0  0  0  0  0  0  0  0  0
   10.1423  -14.4927   20.3280 C   0  0  0  0  0  0  0  0  0  0  0  0
    9.5207  -13.4622   20.0623 O   0  0  0  0  0  0  0  0  0  0  0  0
    7.1233  -16.1652   20.0660 C   0  0  0  0  0  0  0  0  0  0  0  0
    7.4452  -16.3053   21.5266 C   0  0  2  0  0  0  0  0  0  0  0  0
    6.1103  -16.3179   22.2383 C   0  0  0  0  0  0  0  0  0  0  0  0
    8.3754  -15.2463   21.9818 C   0  0  2  0  0  0  0  0  0  0  0  0
    9.6821  -15.3324   21.3247 N   0  0  0  0  0  0  0  0  0  0  0  0
    8.6956  -15.2063   23.4148 C   0  0  0  0  0  0  0  0  0  0  0  0
    9.7983  -15.6675   23.8119 O   0  0  0  0  0  0  0  0  0  0  0  0
    6.1964  -11.6982   26.7241 C   0  0  0  0  0  0  0  0  0  0  0  0
    7.2761  -12.4903   26.0116 C   0  0  1  0  0  0  0  0  0  0  0  0
    8.5951  -11.7913   26.3356 C   0  0  0  0  0  0  0  0  0  0  0  0
    7.3531  -13.8608   26.6030 C   0  0  0  0  0  0  0  0  0  0  0  0
    8.2758  -14.7874   25.8336 C   0  0  2  0  0  0  0  0  0  0  0  0
    7.8523  -14.6764   24.4190 N   0  0  0  0  0  0  0  0  0  0  0  0
    8.1218  -16.2021   26.2452 C   0  0  0  0  0  0  0  0  0  0  0  0
    8.8874  -16.7271   27.2705 O   0  0  0  0  0  0  0  0  0  0  0  0
    7.2967  -16.9594   25.6780 O   0  0  0  0  0  0  0  0  0  0  0  0
  2  4  1  0
  2  1  1  0
  3  2  2  0
  5  6  1  0
  5  4  1  0
  6  7  1  6
  8  9  2  0
  8  6  1  0
 11 10  1  6
 11 13  1  0
 11 12  1  0
 13 14  1  6
 14  8  1  0
 15 22  1  0
 15 13  1  0
 16 15  2  0
 18 17  1  1
 19 18  1  0
 20 18  1  0
 21 20  1  1
 21 23  1  0
 21 22  1  0
 23 24  1  0
 25 23  2  0
M  END
$$$$
