QVL.pdb
     RDKit          3D

 25 24  0  0  1  0  0  0  0  0999 V2000
   15.8993  -18.0371   21.1193 N   0  0  0  0  0  0  0  0  0  0  0  0
   15.2893  -18.6419   19.9859 C   0  0  0  0  0  0  0  0  0  0  0  0
   15.9288  -19.4499   19.2978 O   0  0  0  0  0  0  0  0  0  0  0  0
   13.9115  -18.2818   19.6732 C   0  0  0  0  0  0  0  0  0  0  0  0
   13.2585  -17.2949   20.5694 C   0  0  0  0  0  0  0  0  0  0  0  0
   11.9690  -17.7773   21.1614 C   0  0  2  0  0  0  0  0  0  0  0  0
   11.3490  -18.8212   20.3683 N   0  0  0  0  0  0  0  0  0  0  0  0
   10.9975  -16.6623   21.2586 C   0  0  0  0  0  0  0  0  0  0  0  0
   11.4118  -15.5091   21.1273 O   0  0  0  0  0  0  0  0  0  0  0  0
    7.4548  -16.2842   19.5129 C   0  0  0  0  0  0  0  0  0  0  0  0
    7.3425  -16.2362   21.0101 C   0  0  2  0  0  0  0  0  0  0  0  0
    6.1923  -15.2979   21.3021 C   0  0  0  0  0  0  0  0  0  0  0  0
    8.6267  -15.8499   21.6389 C   0  0  2  0  0  0  0  0  0  0  0  0
    9.6532  -16.8848   21.4906 N   0  0  0  0  0  0  0  0  0  0  0  0
    8.6084  -15.5658   23.0800 C   0  0  0  0  0  0  0  0  0  0  0  0
    9.1334  -16.3887   23.8760 O   0  0  0  0  0  0  0  0  0  0  0  0
    8.2320  -12.3605   27.5664 C   0  0  0  0  0  0  0  0  0  0  0  0
    6.9583  -12.8529   26.9061 C   0  0  1  0  0  0  0  0  0  0  0  0
    5.9507  -11.7114   27.0298 C   0  0  0  0  0  0  0  0  0  0  0  0
    7.2072  -13.0574   25.4466 C   0  0  0  0  0  0  0  0  0  0  0  0
    7.9691  -14.3351   25.1485 C   0  0  2  0  0  0  0  0  0  0  0  0
    8.0401  -14.4137   23.6716 N   0  0  0  0  0  0  0  0  0  0  0  0
    7.2573  -15.5399   25.6349 C   0  0  0  0  0  0  0  0  0  0  0  0
    7.7999  -16.3253   26.6356 O   0  0  0  0  0  0  0  0  0  0  0  0
    6.1481  -15.8793   25.1548 O   0  0  0  0  0  0  0  0  0  0  0  0
  2  4  1  0
  2  1  1  0
  3  2  2  0
  5  6  1  0
  5  4  1  0
  6  7  1  6
  8  9  2  0
  8  6  1  0
 11 10  1  6
 11 13  1  0
 11 12  1  0
 13 14  1  1
 14  8  1  0
 15 22  1  0
 15 13  1  0
 16 15  2  0
 18 17  1  1
 19 18  1  0
 20 18  1  0
 21 20  1  6
 21 23  1  0
 21 22  1  0
 23 24  1  0
 25 23  2  0
M  END
$$$$
