QVL.pdb
     RDKit          3D

 25 24  0  0  1  0  0  0  0  0999 V2000
   12.5041  -20.4859   24.4419 N   0  0  0  0  0  0  0  0  0  0  0  0
   13.4816  -20.1511   23.4649 C   0  0  0  0  0  0  0  0  0  0  0  0
   14.6690  -20.4533   23.6502 O   0  0  0  0  0  0  0  0  0  0  0  0
   13.0408  -19.4540   22.2626 C   0  0  0  0  0  0  0  0  0  0  0  0
   12.5051  -18.0815   22.4441 C   0  0  0  0  0  0  0  0  0  0  0  0
   11.9584  -17.4755   21.1872 C   0  0  2  0  0  0  0  0  0  0  0  0
   12.9997  -16.9591   20.3200 N   0  0  0  0  0  0  0  0  0  0  0  0
   11.0541  -16.3466   21.5102 C   0  0  0  0  0  0  0  0  0  0  0  0
   11.4677  -15.1973   21.3457 O   0  0  0  0  0  0  0  0  0  0  0  0
    7.9437  -15.3544   19.9574 C   0  0  0  0  0  0  0  0  0  0  0  0
    7.5943  -15.6043   21.3969 C   0  0  2  0  0  0  0  0  0  0  0  0
    6.4924  -14.6210   21.7248 C   0  0  0  0  0  0  0  0  0  0  0  0
    8.7867  -15.5062   22.2701 C   0  0  2  0  0  0  0  0  0  0  0  0
    9.7728  -16.5519   21.9860 N   0  0  0  0  0  0  0  0  0  0  0  0
    8.5660  -15.6043   23.7190 C   0  0  0  0  0  0  0  0  0  0  0  0
    9.1151  -16.5370   24.3632 O   0  0  0  0  0  0  0  0  0  0  0  0
    7.9154  -12.0833   25.2690 C   0  0  0  0  0  0  0  0  0  0  0  0
    7.4553  -12.5965   26.6202 C   0  0  1  0  0  0  0  0  0  0  0  0
    6.4653  -11.5607   27.1499 C   0  0  0  0  0  0  0  0  0  0  0  0
    6.6943  -13.8689   26.4310 C   0  0  0  0  0  0  0  0  0  0  0  0
    7.5578  -15.0052   25.9160 C   0  0  2  0  0  0  0  0  0  0  0  0
    7.7708  -14.7156   24.4795 N   0  0  0  0  0  0  0  0  0  0  0  0
    6.8793  -16.3179   26.0202 C   0  0  0  0  0  0  0  0  0  0  0  0
    7.0957  -17.1406   27.1107 O   0  0  0  0  0  0  0  0  0  0  0  0
    6.0936  -16.7178   25.1264 O   0  0  0  0  0  0  0  0  0  0  0  0
  2  4  1  0
  2  1  1  0
  3  2  2  0
  5  6  1  0
  5  4  1  0
  6  7  1  6
  8  9  2  0
  8  6  1  0
 11 10  1  6
 11 13  1  0
 11 12  1  0
 13 14  1  6
 14  8  1  0
 15 22  1  0
 15 13  1  0
 16 15  2  0
 18 17  1  6
 19 18  1  0
 20 18  1  0
 21 20  1  6
 21 23  1  0
 21 22  1  0
 23 24  1  0
 25 23  2  0
M  END
$$$$
