QVL.pdb
     RDKit          3D

 25 24  0  0  1  0  0  0  0  0999 V2000
   11.0247  -20.7703   22.4544 N   0  0  0  0  0  0  0  0  0  0  0  0
   12.1821  -20.7750   21.6282 C   0  0  0  0  0  0  0  0  0  0  0  0
   12.6468  -21.8495   21.2221 O   0  0  0  0  0  0  0  0  0  0  0  0
   12.7866  -19.4933   21.2852 C   0  0  0  0  0  0  0  0  0  0  0  0
   12.0861  -18.2746   21.7624 C   0  0  0  0  0  0  0  0  0  0  0  0
   11.5594  -17.4093   20.6580 C   0  0  2  0  0  0  0  0  0  0  0  0
   12.6119  -16.9008   19.7997 N   0  0  0  0  0  0  0  0  0  0  0  0
   10.8432  -16.2386   21.2174 C   0  0  0  0  0  0  0  0  0  0  0  0
   11.4656  -15.1853   21.3659 O   0  0  0  0  0  0  0  0  0  0  0  0
    7.9213  -14.4390   19.8388 C   0  0  0  0  0  0  0  0  0  0  0  0
    7.5175  -14.9271   21.2009 C   0  0  2  0  0  0  0  0  0  0  0  0
    6.5622  -13.8853   21.7400 C   0  0  0  0  0  0  0  0  0  0  0  0
    8.6980  -15.1822   22.0584 C   0  0  2  0  0  0  0  0  0  0  0  0
    9.5087  -16.3014   21.5718 N   0  0  0  0  0  0  0  0  0  0  0  0
    8.4443  -15.5082   23.4680 C   0  0  0  0  0  0  0  0  0  0  0  0
    8.8475  -16.6097   23.9269 O   0  0  0  0  0  0  0  0  0  0  0  0
    6.0356  -11.7345   26.5626 C   0  0  0  0  0  0  0  0  0  0  0  0
    7.1510  -12.6752   26.1485 C   0  0  1  0  0  0  0  0  0  0  0  0
    8.3393  -12.3427   27.0490 C   0  0  0  0  0  0  0  0  0  0  0  0
    6.7502  -14.0813   26.4585 C   0  0  0  0  0  0  0  0  0  0  0  0
    7.6416  -15.1125   25.7921 C   0  0  2  0  0  0  0  0  0  0  0  0
    7.7706  -14.6686   24.3853 N   0  0  0  0  0  0  0  0  0  0  0  0
    7.0330  -16.4631   25.7893 C   0  0  0  0  0  0  0  0  0  0  0  0
    6.2873  -16.9000   24.7095 O   0  0  0  0  0  0  0  0  0  0  0  0
    7.1765  -17.2442   26.7616 O   0  0  0  0  0  0  0  0  0  0  0  0
  2  4  1  0
  2  1  1  0
  3  2  2  0
  5  6  1  0
  5  4  1  0
  6  7  1  1
  8  9  2  0
  8  6  1  0
 11 10  1  6
 11 13  1  0
 11 12  1  0
 13 14  1  6
 14  8  1  0
 15 22  1  0
 15 13  1  0
 16 15  2  0
 18 17  1  1
 19 18  1  0
 20 18  1  0
 21 20  1  1
 21 23  1  0
 21 22  1  0
 23 24  1  0
 25 23  2  0
M  END
$$$$
