QVL.pdb
     RDKit          3D

 25 24  0  0  1  0  0  0  0  0999 V2000
    7.2753  -12.8595   17.1252 N   0  0  0  0  0  0  0  0  0  0  0  0
    8.3295  -13.7141   16.7001 C   0  0  0  0  0  0  0  0  0  0  0  0
    8.7625  -13.6317   15.5420 O   0  0  0  0  0  0  0  0  0  0  0  0
    8.8690  -14.6696   17.6601 C   0  0  0  0  0  0  0  0  0  0  0  0
    8.1991  -14.7389   18.9830 C   0  0  0  0  0  0  0  0  0  0  0  0
    8.8968  -15.6276   19.9675 C   0  0  2  0  0  0  0  0  0  0  0  0
    9.2168  -16.9288   19.4128 N   0  0  0  0  0  0  0  0  0  0  0  0
    8.0398  -15.8538   21.1553 C   0  0  0  0  0  0  0  0  0  0  0  0
    6.9848  -15.2234   21.2470 O   0  0  0  0  0  0  0  0  0  0  0  0
    6.7490  -19.1335   22.5690 C   0  0  0  0  0  0  0  0  0  0  0  0
    7.4859  -18.4321   23.6743 C   0  0  2  0  0  0  0  0  0  0  0  0
    6.7132  -18.7398   24.9379 C   0  0  0  0  0  0  0  0  0  0  0  0
    7.6479  -16.9879   23.3880 C   0  0  2  0  0  0  0  0  0  0  0  0
    8.3936  -16.7455   22.1503 N   0  0  0  0  0  0  0  0  0  0  0  0
    8.3495  -16.1800   24.3944 C   0  0  0  0  0  0  0  0  0  0  0  0
    9.6037  -16.0793   24.3373 O   0  0  0  0  0  0  0  0  0  0  0  0
    5.8918  -12.0132   26.6521 C   0  0  0  0  0  0  0  0  0  0  0  0
    6.8970  -12.9196   25.9676 C   0  0  1  0  0  0  0  0  0  0  0  0
    7.8861  -11.9945   25.2607 C   0  0  0  0  0  0  0  0  0  0  0  0
    7.6685  -13.6712   27.0038 C   0  0  0  0  0  0  0  0  0  0  0  0
    8.5707  -14.7384   26.4131 C   0  0  2  0  0  0  0  0  0  0  0  0
    7.7231  -15.4803   25.4520 N   0  0  0  0  0  0  0  0  0  0  0  0
    9.0482  -15.6988   27.4349 C   0  0  0  0  0  0  0  0  0  0  0  0
    8.5054  -16.9680   27.5201 O   0  0  0  0  0  0  0  0  0  0  0  0
    9.9537  -15.3889   28.2474 O   0  0  0  0  0  0  0  0  0  0  0  0
  2  4  1  0
  2  1  1  0
  3  2  2  0
  5  6  1  0
  5  4  1  0
  6  7  1  6
  8  9  2  0
  8  6  1  0
 11 10  1  6
 11 13  1  0
 11 12  1  0
 13 14  1  6
 14  8  1  0
 15 22  1  0
 15 13  1  0
 16 15  2  0
 18 17  1  1
 19 18  1  0
 20 18  1  0
 21 20  1  1
 21 23  1  0
 21 22  1  0
 23 24  1  0
 25 23  2  0
M  END
$$$$
