QVL.pdb
     RDKit          3D

 25 24  0  0  1  0  0  0  0  0999 V2000
   15.9843  -15.4700   21.5144 N   0  0  0  0  0  0  0  0  0  0  0  0
   14.9511  -15.3680   22.4863 C   0  0  0  0  0  0  0  0  0  0  0  0
   15.1620  -15.7305   23.6523 O   0  0  0  0  0  0  0  0  0  0  0  0
   13.6625  -14.8311   22.0655 C   0  0  0  0  0  0  0  0  0  0  0  0
   13.4518  -14.6656   20.6054 C   0  0  0  0  0  0  0  0  0  0  0  0
   12.2049  -15.3233   20.0968 C   0  0  2  0  0  0  0  0  0  0  0  0
   12.0619  -15.2072   18.6584 N   0  0  0  0  0  0  0  0  0  0  0  0
   11.0074  -14.7018   20.7101 C   0  0  0  0  0  0  0  0  0  0  0  0
   10.8255  -13.4934   20.5496 O   0  0  0  0  0  0  0  0  0  0  0  0
    7.5930  -15.3065   19.7983 C   0  0  0  0  0  0  0  0  0  0  0  0
    7.6711  -15.6594   21.2564 C   0  0  2  0  0  0  0  0  0  0  0  0
    6.3078  -15.3359   21.8270 C   0  0  0  0  0  0  0  0  0  0  0  0
    8.7977  -14.9667   21.9233 C   0  0  2  0  0  0  0  0  0  0  0  0
   10.1011  -15.4386   21.4491 N   0  0  0  0  0  0  0  0  0  0  0  0
    8.8839  -15.0818   23.3852 C   0  0  0  0  0  0  0  0  0  0  0  0
    9.8263  -15.7434   23.8957 O   0  0  0  0  0  0  0  0  0  0  0  0
    6.1188  -11.6857   26.6566 C   0  0  0  0  0  0  0  0  0  0  0  0
    7.3012  -12.4733   26.1251 C   0  0  1  0  0  0  0  0  0  0  0  0
    8.5164  -11.9966   26.9187 C   0  0  0  0  0  0  0  0  0  0  0  0
    7.1129  -13.9210   26.4453 C   0  0  0  0  0  0  0  0  0  0  0  0
    8.1102  -14.8192   25.7378 C   0  0  2  0  0  0  0  0  0  0  0  0
    7.9780  -14.4948   24.2991 N   0  0  0  0  0  0  0  0  0  0  0  0
    7.7939  -16.2559   25.9115 C   0  0  0  0  0  0  0  0  0  0  0  0
    8.4113  -17.0009   26.8998 O   0  0  0  0  0  0  0  0  0  0  0  0
    6.9613  -16.8338   25.1707 O   0  0  0  0  0  0  0  0  0  0  0  0
  2  4  1  0
  2  1  1  0
  3  2  2  0
  5  6  1  0
  5  4  1  0
  6  7  1  6
  8  9  2  0
  8  6  1  0
 11 10  1  6
 11 13  1  0
 11 12  1  0
 13 14  1  6
 14  8  1  0
 15 22  1  0
 15 13  1  0
 16 15  2  0
 18 17  1  1
 19 18  1  0
 20 18  1  0
 21 20  1  1
 21 23  1  0
 21 22  1  0
 23 24  1  0
 25 23  2  0
M  END
$$$$
