QVL.pdb
     RDKit          3D

 25 24  0  0  1  0  0  0  0  0999 V2000
   15.2010  -18.7391   21.4110 N   0  0  0  0  0  0  0  0  0  0  0  0
   14.2943  -19.8345   21.3918 C   0  0  0  0  0  0  0  0  0  0  0  0
   14.7200  -20.9857   21.2217 O   0  0  0  0  0  0  0  0  0  0  0  0
   12.8753  -19.5553   21.5769 C   0  0  0  0  0  0  0  0  0  0  0  0
   12.4846  -18.1281   21.6952 C   0  0  0  0  0  0  0  0  0  0  0  0
   11.4877  -17.6876   20.6666 C   0  0  2  0  0  0  0  0  0  0  0  0
   12.1057  -17.3670   19.3945 N   0  0  0  0  0  0  0  0  0  0  0  0
   10.7736  -16.4735   21.1277 C   0  0  0  0  0  0  0  0  0  0  0  0
   11.3674  -15.3941   21.0930 O   0  0  0  0  0  0  0  0  0  0  0  0
    7.7450  -14.8650   19.7973 C   0  0  0  0  0  0  0  0  0  0  0  0
    7.4355  -15.2170   21.2245 C   0  0  2  0  0  0  0  0  0  0  0  0
    6.5031  -14.1327   21.7182 C   0  0  0  0  0  0  0  0  0  0  0  0
    8.6717  -15.3770   22.0247 C   0  0  2  0  0  0  0  0  0  0  0  0
    9.4720  -16.5246   21.5900 N   0  0  0  0  0  0  0  0  0  0  0  0
    8.5123  -15.5772   23.4712 C   0  0  0  0  0  0  0  0  0  0  0  0
    9.0905  -16.5494   24.0251 O   0  0  0  0  0  0  0  0  0  0  0  0
    6.1195  -11.6866   26.4980 C   0  0  0  0  0  0  0  0  0  0  0  0
    7.1999  -12.6713   26.0935 C   0  0  1  0  0  0  0  0  0  0  0  0
    8.3792  -12.4113   27.0290 C   0  0  0  0  0  0  0  0  0  0  0  0
    6.7261  -14.0623   26.3667 C   0  0  0  0  0  0  0  0  0  0  0  0
    7.6181  -15.1240   25.7509 C   0  0  2  0  0  0  0  0  0  0  0  0
    7.7473  -14.7483   24.3244 N   0  0  0  0  0  0  0  0  0  0  0  0
    7.0100  -16.4734   25.8130 C   0  0  0  0  0  0  0  0  0  0  0  0
    6.1630  -16.9136   24.8122 O   0  0  0  0  0  0  0  0  0  0  0  0
    7.2454  -17.2504   26.7706 O   0  0  0  0  0  0  0  0  0  0  0  0
  2  4  1  0
  2  1  1  0
  3  2  2  0
  5  6  1  0
  5  4  1  0
  6  7  1  6
  8  9  2  0
  8  6  1  0
 11 10  1  6
 11 13  1  0
 11 12  1  0
 13 14  1  6
 14  8  1  0
 15 22  1  0
 15 13  1  0
 16 15  2  0
 18 17  1  1
 19 18  1  0
 20 18  1  0
 21 20  1  1
 21 23  1  0
 21 22  1  0
 23 24  1  0
 25 23  2  0
M  END
$$$$
