RVV.pdb
     RDKit          3D

 26 25  0  0  1  0  0  0  0  0999 V2000
   23.4342  -23.4958  -20.8504 N   0  0  0  0  0  0  0  0  0  0  0  0
   23.0704  -23.7191  -19.4971 C   0  0  0  0  0  0  0  0  0  0  0  0
   23.1706  -24.8923  -19.0104 N   0  0  0  0  0  0  0  0  0  0  0  0
   22.6029  -22.6502  -18.7019 N   0  0  0  0  0  0  0  0  0  0  0  0
   22.4320  -21.3149  -19.2205 C   0  0  0  0  0  0  0  0  0  0  0  0
   23.5356  -20.4367  -18.6862 C   0  0  0  0  0  0  0  0  0  0  0  0
   23.0119  -19.1780  -18.0429 C   0  0  0  0  0  0  0  0  0  0  0  0
   21.7616  -19.4177  -17.2440 C   0  0  2  0  0  0  0  0  0  0  0  0
   20.6904  -18.6103  -17.7716 N   0  0  0  0  0  0  0  0  0  0  0  0
   21.9764  -19.1768  -15.7918 C   0  0  0  0  0  0  0  0  0  0  0  0
   22.0330  -17.9620  -15.4287 O   0  0  0  0  0  0  0  0  0  0  0  0
   22.8773  -25.1414  -18.0417 C   0  0  0  0  0  0  0  0  0  0  0  0
   19.8492  -19.5600  -13.0323 C   0  0  2  0  0  0  0  0  0  0  0  0
   21.0596  -20.3614  -12.6904 C   0  0  0  0  0  0  0  0  0  0  0  0
   20.8376  -21.8517  -12.8116 C   0  0  2  0  0  0  0  0  0  0  0  0
   22.3288  -19.9333  -13.4030 N   0  0  0  0  0  0  0  0  0  0  0  0
   22.1138  -20.2141  -14.8438 C   0  0  0  0  0  0  0  0  0  0  0  0
   23.5221  -20.6951  -12.9795 O   0  0  0  0  0  0  0  0  0  0  0  0
   23.6131  -21.9348  -13.2851 C   0  0  0  0  0  0  0  0  0  0  0  0
   27.1727  -20.2307  -13.5559 C   0  0  1  0  0  0  0  0  0  0  0  0
   27.0593  -20.4067  -12.0579 C   0  0  0  0  0  0  0  0  0  0  0  0
   28.2132  -21.1779  -11.5129 C   0  0  2  0  0  0  0  0  0  0  0  0
   25.7098  -21.0104  -11.7659 N   0  0  0  0  0  0  0  0  0  0  0  0
   24.6210  -20.1904  -12.2473 C   0  0  0  0  0  0  0  0  0  0  0  0
   25.5330  -21.2335  -10.3210 O   0  0  0  0  0  0  0  0  0  0  0  0
   26.0702  -22.2171   -9.7709 O   0  0  0  0  0  0  0  0  0  0  0  0
  2  1  1  0
  2  3  2  0
  4  2  1  0
  5  4  1  0
  6  5  1  0
  7  6  1  0
  7  8  1  0
  8  9  1  6
 10  8  1  0
 10 16  1  0
 11 10  2  0
 13 15  1  0
 13 12  1  1
 14 13  1  0
 15 16  1  1
 17 15  1  0
 18 17  2  0
 20 19  1  1
 20 22  1  0
 21 20  1  0
 22 23  1  6
 22 24  1  0
 23 17  1  0
 24 26  1  0
 25 24  2  0
M  END
$$$$
