RVV.pdb
     RDKit          3D

 26 25  0  0  1  0  0  0  0  0999 V2000
   27.1993  -33.4116  -18.8120 N   0  0  0  0  0  0  0  0  0  0  0  0
   27.5834  -32.8761  -17.5553 C   0  0  0  0  0  0  0  0  0  0  0  0
   26.9275  -33.2016  -16.5126 N   0  0  0  0  0  0  0  0  0  0  0  0
   28.6809  -31.9924  -17.4655 N   0  0  0  0  0  0  0  0  0  0  0  0
   29.5096  -31.6674  -18.6008 C   0  0  0  0  0  0  0  0  0  0  0  0
   30.6425  -30.7832  -18.1433 C   0  0  0  0  0  0  0  0  0  0  0  0
   31.4684  -30.2620  -19.2916 C   0  0  0  0  0  0  0  0  0  0  0  0
   32.6090  -29.3969  -18.8337 C   0  0  2  0  0  0  0  0  0  0  0  0
   33.5153  -30.1795  -18.0313 N   0  0  0  0  0  0  0  0  0  0  0  0
   32.1322  -28.1859  -18.1132 C   0  0  0  0  0  0  0  0  0  0  0  0
   32.0549  -28.2807  -16.8499 O   0  0  0  0  0  0  0  0  0  0  0  0
   27.1693  -32.8726  -15.5535 C   0  0  0  0  0  0  0  0  0  0  0  0
   31.8583  -23.2779  -18.1070 C   0  0  2  0  0  0  0  0  0  0  0  0
   32.2811  -24.6481  -18.5167 C   0  0  0  0  0  0  0  0  0  0  0  0
   33.7391  -24.9285  -18.2326 C   0  0  1  0  0  0  0  0  0  0  0  0
   31.3945  -25.7678  -18.0048 N   0  0  0  0  0  0  0  0  0  0  0  0
   31.7775  -26.9839  -18.7635 C   0  0  0  0  0  0  0  0  0  0  0  0
   29.9562  -25.5321  -18.2482 O   0  0  0  0  0  0  0  0  0  0  0  0
   29.5294  -25.4619  -19.4530 C   0  0  0  0  0  0  0  0  0  0  0  0
   26.8921  -25.3988  -15.2377 C   0  0  1  0  0  0  0  0  0  0  0  0
   26.6263  -25.8533  -16.6557 C   0  0  0  0  0  0  0  0  0  0  0  0
   26.7032  -27.3377  -16.7734 C   0  0  1  0  0  0  0  0  0  0  0  0
   27.5673  -25.1044  -17.5636 N   0  0  0  0  0  0  0  0  0  0  0  0
   28.9558  -25.3708  -17.2625 C   0  0  0  0  0  0  0  0  0  0  0  0
   27.3344  -23.6526  -17.4833 O   0  0  0  0  0  0  0  0  0  0  0  0
   26.3956  -23.1346  -18.1229 O   0  0  0  0  0  0  0  0  0  0  0  0
  2  1  1  0
  2  3  2  0
  4  2  1  0
  5  4  1  0
  6  5  1  0
  7  6  1  0
  7  8  1  0
  8  9  1  1
 10  8  1  0
 10 16  1  0
 11 10  2  0
 13 15  1  0
 13 12  1  6
 14 13  1  0
 15 16  1  6
 17 15  1  0
 18 17  2  0
 20 19  1  1
 20 22  1  0
 21 20  1  0
 22 23  1  1
 22 24  1  0
 23 17  1  0
 24 26  1  0
 25 24  2  0
M  END
$$$$
