RVV.pdb
     RDKit          3D

 26 25  0  0  1  0  0  0  0  0999 V2000
   17.9449  -17.7697  -15.7616 N   0  0  0  0  0  0  0  0  0  0  0  0
   19.0475  -17.0350  -16.2698 C   0  0  0  0  0  0  0  0  0  0  0  0
   18.9306  -16.4259  -17.3827 N   0  0  0  0  0  0  0  0  0  0  0  0
   20.2592  -16.9820  -15.5469 N   0  0  0  0  0  0  0  0  0  0  0  0
   20.5243  -17.8351  -14.4142 C   0  0  0  0  0  0  0  0  0  0  0  0
   20.6456  -19.2604  -14.8921 C   0  0  0  0  0  0  0  0  0  0  0  0
   20.8322  -20.2360  -13.7581 C   0  0  0  0  0  0  0  0  0  0  0  0
   22.2082  -20.1636  -13.1577 C   0  0  2  0  0  0  0  0  0  0  0  0
   23.1865  -20.5359  -14.1486 N   0  0  0  0  0  0  0  0  0  0  0  0
   22.3205  -20.9913  -11.9267 C   0  0  0  0  0  0  0  0  0  0  0  0
   22.2683  -22.2487  -12.0914 O   0  0  0  0  0  0  0  0  0  0  0  0
   19.7047  -15.8910  -17.8311 C   0  0  0  0  0  0  0  0  0  0  0  0
   23.8537  -21.1912   -7.2066 C   0  0  1  0  0  0  0  0  0  0  0  0
   23.7056  -20.6242   -8.5780 C   0  0  0  0  0  0  0  0  0  0  0  0
   25.0208  -20.4974   -9.3124 C   0  0  1  0  0  0  0  0  0  0  0  0
   22.6571  -21.3042   -9.4384 N   0  0  0  0  0  0  0  0  0  0  0  0
   22.4768  -20.4448  -10.6343 C   0  0  0  0  0  0  0  0  0  0  0  0
   21.3413  -21.4178   -8.7757 O   0  0  0  0  0  0  0  0  0  0  0  0
   20.6273  -20.3668   -8.6195 C   0  0  0  0  0  0  0  0  0  0  0  0
   18.8366  -24.7562   -8.5778 C   0  0  1  0  0  0  0  0  0  0  0  0
   18.4093  -23.3238   -8.3468 C   0  0  0  0  0  0  0  0  0  0  0  0
   18.0524  -22.6503   -9.6284 C   0  0  1  0  0  0  0  0  0  0  0  0
   19.4985  -22.6388   -7.5625 N   0  0  0  0  0  0  0  0  0  0  0  0
   20.7552  -22.6032   -8.2760 C   0  0  0  0  0  0  0  0  0  0  0  0
   19.7088  -23.2997   -6.2635 O   0  0  0  0  0  0  0  0  0  0  0  0
   20.7005  -24.0385   -6.0922 O   0  0  0  0  0  0  0  0  0  0  0  0
  2  1  1  0
  2  3  2  0
  4  2  1  0
  5  4  1  0
  6  5  1  0
  7  6  1  0
  7  8  1  0
  8  9  1  6
 10  8  1  0
 10 16  1  0
 11 10  2  0
 13 15  1  0
 13 12  1  1
 14 13  1  0
 15 16  1  1
 17 15  1  0
 18 17  2  0
 20 19  1  1
 20 22  1  0
 21 20  1  0
 22 23  1  6
 22 24  1  0
 23 17  1  0
 24 26  1  0
 25 24  2  0
M  END
$$$$
