RVV.pdb
     RDKit          3D

 26 25  0  0  1  0  0  0  0  0999 V2000
   25.2758  -16.4110  -18.3682 N   0  0  0  0  0  0  0  0  0  0  0  0
   24.3663  -16.0660  -19.4015 C   0  0  0  0  0  0  0  0  0  0  0  0
   24.6488  -15.1008  -20.1836 N   0  0  0  0  0  0  0  0  0  0  0  0
   23.1625  -16.7871  -19.5578 N   0  0  0  0  0  0  0  0  0  0  0  0
   22.7673  -17.8411  -18.6556 C   0  0  0  0  0  0  0  0  0  0  0  0
   23.3237  -17.5472  -17.2849 C   0  0  0  0  0  0  0  0  0  0  0  0
   23.4683  -18.7884  -16.4419 C   0  0  0  0  0  0  0  0  0  0  0  0
   24.6706  -19.6059  -16.8234 C   0  0  2  0  0  0  0  0  0  0  0  0
   24.3085  -20.5412  -17.8586 N   0  0  0  0  0  0  0  0  0  0  0  0
   25.2755  -20.2855  -15.6465 C   0  0  0  0  0  0  0  0  0  0  0  0
   24.7787  -21.4108  -15.3338 O   0  0  0  0  0  0  0  0  0  0  0  0
   24.0246  -14.7825  -20.9553 C   0  0  0  0  0  0  0  0  0  0  0  0
   29.1446  -20.4222  -12.4961 C   0  0  1  0  0  0  0  0  0  0  0  0
   28.4251  -20.1420  -13.7720 C   0  0  0  0  0  0  0  0  0  0  0  0
   29.1033  -20.7464  -14.9802 C   0  0  1  0  0  0  0  0  0  0  0  0
   26.9431  -20.4667  -13.7519 N   0  0  0  0  0  0  0  0  0  0  0  0
   26.3409  -19.7407  -14.8971 C   0  0  0  0  0  0  0  0  0  0  0  0
   26.2595  -20.0014  -12.5273 O   0  0  0  0  0  0  0  0  0  0  0  0
   26.1111  -18.7448  -12.3334 C   0  0  0  0  0  0  0  0  0  0  0  0
   22.8947  -20.3920  -11.3497 C   0  0  1  0  0  0  0  0  0  0  0  0
   23.6906  -20.8068  -10.1322 C   0  0  0  0  0  0  0  0  0  0  0  0
   23.0273  -20.3627   -8.8728 C   0  0  2  0  0  0  0  0  0  0  0  0
   25.0993  -20.3019  -10.3087 N   0  0  0  0  0  0  0  0  0  0  0  0
   25.7264  -20.8185  -11.5043 C   0  0  0  0  0  0  0  0  0  0  0  0
   25.9342  -20.6499   -9.1466 O   0  0  0  0  0  0  0  0  0  0  0  0
   26.4687  -21.7760   -9.0768 O   0  0  0  0  0  0  0  0  0  0  0  0
  2  1  1  0
  2  3  2  0
  4  2  1  0
  5  4  1  0
  6  5  1  0
  7  6  1  0
  7  8  1  0
  8  9  1  6
 10  8  1  0
 10 16  1  0
 11 10  2  0
 13 15  1  0
 13 12  1  6
 14 13  1  0
 15 16  1  6
 17 15  1  0
 18 17  2  0
 20 19  1  1
 20 22  1  0
 21 20  1  0
 22 23  1  6
 22 24  1  0
 23 17  1  0
 24 26  1  0
 25 24  2  0
M  END
$$$$
