RVV.pdb
     RDKit          3D

 26 25  0  0  1  0  0  0  0  0999 V2000
   29.8035  -17.4173  -19.1128 N   0  0  0  0  0  0  0  0  0  0  0  0
   30.4442  -18.3756  -18.2852 C   0  0  0  0  0  0  0  0  0  0  0  0
   31.4409  -19.0254  -18.7408 N   0  0  0  0  0  0  0  0  0  0  0  0
   29.9792  -18.6035  -16.9717 N   0  0  0  0  0  0  0  0  0  0  0  0
   28.6487  -18.2426  -16.5466 C   0  0  0  0  0  0  0  0  0  0  0  0
   27.6462  -19.0269  -17.3555 C   0  0  0  0  0  0  0  0  0  0  0  0
   26.5948  -19.6806  -16.4956 C   0  0  0  0  0  0  0  0  0  0  0  0
   27.1562  -20.7774  -15.6347 C   0  0  2  0  0  0  0  0  0  0  0  0
   27.5949  -21.8679  -16.4689 N   0  0  0  0  0  0  0  0  0  0  0  0
   26.1840  -21.2239  -14.6011 C   0  0  0  0  0  0  0  0  0  0  0  0
   25.4699  -22.2291  -14.9019 O   0  0  0  0  0  0  0  0  0  0  0  0
   31.9410  -19.7653  -18.2034 C   0  0  0  0  0  0  0  0  0  0  0  0
   24.6397  -20.8624   -9.8517 C   0  0  2  0  0  0  0  0  0  0  0  0
   25.5690  -20.6150  -10.9915 C   0  0  0  0  0  0  0  0  0  0  0  0
   26.9661  -21.1351  -10.7412 C   0  0  1  0  0  0  0  0  0  0  0  0
   25.0491  -21.0612  -12.3453 N   0  0  0  0  0  0  0  0  0  0  0  0
   26.0366  -20.5909  -13.3477 C   0  0  0  0  0  0  0  0  0  0  0  0
   23.7451  -20.4617  -12.6971 O   0  0  0  0  0  0  0  0  0  0  0  0
   23.6636  -19.1947  -12.8609 C   0  0  0  0  0  0  0  0  0  0  0  0
   20.6092  -22.2139  -14.8025 C   0  0  1  0  0  0  0  0  0  0  0  0
   20.8415  -20.7309  -14.6168 C   0  0  0  0  0  0  0  0  0  0  0  0
   21.7859  -20.1970  -15.6397 C   0  0  1  0  0  0  0  0  0  0  0  0
   21.2727  -20.5072  -13.1903 N   0  0  0  0  0  0  0  0  0  0  0  0
   22.5277  -21.1555  -12.8835 C   0  0  0  0  0  0  0  0  0  0  0  0
   20.2478  -20.9869  -12.2479 O   0  0  0  0  0  0  0  0  0  0  0  0
   20.3465  -22.1251  -11.7444 O   0  0  0  0  0  0  0  0  0  0  0  0
  2  1  1  0
  2  3  2  0
  4  2  1  0
  5  4  1  0
  6  5  1  0
  7  6  1  0
  7  8  1  0
  8  9  1  6
 10  8  1  0
 10 16  1  0
 11 10  2  0
 13 15  1  0
 13 12  1  1
 14 13  1  0
 15 16  1  1
 17 15  1  0
 18 17  2  0
 20 19  1  6
 20 22  1  0
 21 20  1  0
 22 23  1  6
 22 24  1  0
 23 17  1  0
 24 26  1  0
 25 24  2  0
M  END
$$$$
