RVV.pdb
     RDKit          3D

 26 25  0  0  1  0  0  0  0  0999 V2000
   23.1327  -22.5254  -17.6204 N   0  0  0  0  0  0  0  0  0  0  0  0
   21.9369  -22.7312  -18.3562 C   0  0  0  0  0  0  0  0  0  0  0  0
   21.6958  -23.8834  -18.8436 N   0  0  0  0  0  0  0  0  0  0  0  0
   21.0268  -21.6682  -18.5439 N   0  0  0  0  0  0  0  0  0  0  0  0
   21.2881  -20.3309  -18.0699 C   0  0  0  0  0  0  0  0  0  0  0  0
   20.7104  -20.1804  -16.6849 C   0  0  0  0  0  0  0  0  0  0  0  0
   20.9291  -18.8023  -16.1145 C   0  0  0  0  0  0  0  0  0  0  0  0
   22.3734  -18.3875  -16.1505 C   0  0  2  0  0  0  0  0  0  0  0  0
   23.1687  -19.3481  -15.4278 N   0  0  0  0  0  0  0  0  0  0  0  0
   22.5666  -17.0054  -15.6353 C   0  0  0  0  0  0  0  0  0  0  0  0
   22.2331  -16.8070  -14.4269 O   0  0  0  0  0  0  0  0  0  0  0  0
   20.8777  -24.0907  -19.4554 C   0  0  0  0  0  0  0  0  0  0  0  0
   25.6465  -15.3169  -14.9960 C   0  0  2  0  0  0  0  0  0  0  0  0
   24.8663  -14.4215  -15.8978 C   0  0  0  0  0  0  0  0  0  0  0  0
   25.3659  -14.4356  -17.3245 C   0  0  2  0  0  0  0  0  0  0  0  0
   23.3622  -14.6119  -15.8386 N   0  0  0  0  0  0  0  0  0  0  0  0
   23.0877  -15.9507  -16.4161 C   0  0  0  0  0  0  0  0  0  0  0  0
   22.6159  -13.6235  -16.6445 O   0  0  0  0  0  0  0  0  0  0  0  0
   22.6021  -13.7389  -17.9193 C   0  0  0  0  0  0  0  0  0  0  0  0
   19.2404  -11.5893  -15.4427 C   0  0  1  0  0  0  0  0  0  0  0  0
   19.6424  -11.8341  -16.8801 C   0  0  0  0  0  0  0  0  0  0  0  0
   19.1780  -13.1694  -17.3539 C   0  0  1  0  0  0  0  0  0  0  0  0
   21.1296  -11.6154  -16.9862 N   0  0  0  0  0  0  0  0  0  0  0  0
   21.8831  -12.5209  -16.1486 C   0  0  0  0  0  0  0  0  0  0  0  0
   21.4862  -10.2317  -16.6301 O   0  0  0  0  0  0  0  0  0  0  0  0
   21.2215   -9.2972  -17.4145 O   0  0  0  0  0  0  0  0  0  0  0  0
  2  1  1  0
  2  3  2  0
  4  2  1  0
  5  4  1  0
  6  5  1  0
  7  6  1  0
  7  8  1  0
  8  9  1  1
 10  8  1  0
 10 16  1  0
 11 10  2  0
 13 15  1  0
 13 12  1  1
 14 13  1  0
 15 16  1  1
 17 15  1  0
 18 17  2  0
 20 19  1  6
 20 22  1  0
 21 20  1  0
 22 23  1  1
 22 24  1  0
 23 17  1  0
 24 26  1  0
 25 24  2  0
M  END
$$$$
