RVV.pdb
     RDKit          3D

 26 25  0  0  1  0  0  0  0  0999 V2000
   21.0558  -17.0652  -15.4301 N   0  0  0  0  0  0  0  0  0  0  0  0
   20.3716  -17.1170  -16.6721 C   0  0  0  0  0  0  0  0  0  0  0  0
   20.0015  -18.2457  -17.1330 N   0  0  0  0  0  0  0  0  0  0  0  0
   20.1055  -15.9286  -17.3864 N   0  0  0  0  0  0  0  0  0  0  0  0
   20.1536  -14.6256  -16.7691 C   0  0  0  0  0  0  0  0  0  0  0  0
   19.7525  -13.5865  -17.7860 C   0  0  0  0  0  0  0  0  0  0  0  0
   19.7306  -12.1934  -17.2105 C   0  0  0  0  0  0  0  0  0  0  0  0
   18.3347  -11.7009  -16.9495 C   0  0  2  0  0  0  0  0  0  0  0  0
   17.4353  -12.2613  -17.9266 N   0  0  0  0  0  0  0  0  0  0  0  0
   18.2673  -10.2151  -16.9190 C   0  0  0  0  0  0  0  0  0  0  0  0
   18.1046   -9.6394  -18.0384 O   0  0  0  0  0  0  0  0  0  0  0  0
   19.4544  -18.3577  -18.0131 C   0  0  0  0  0  0  0  0  0  0  0  0
   16.8706   -6.2804  -14.4472 C   0  0  1  0  0  0  0  0  0  0  0  0
   16.9543   -7.6637  -14.9980 C   0  0  0  0  0  0  0  0  0  0  0  0
   15.7438   -8.0500  -15.8170 C   0  0  1  0  0  0  0  0  0  0  0  0
   18.2422   -7.9786  -15.7356 N   0  0  0  0  0  0  0  0  0  0  0  0
   18.3743   -9.4564  -15.7332 C   0  0  0  0  0  0  0  0  0  0  0  0
   19.4438   -7.4283  -15.0746 O   0  0  0  0  0  0  0  0  0  0  0  0
   19.9042   -8.0089  -14.0308 C   0  0  0  0  0  0  0  0  0  0  0  0
   23.8512   -5.5632  -15.3246 C   0  0  1  0  0  0  0  0  0  0  0  0
   22.5520   -5.9531  -15.9939 C   0  0  0  0  0  0  0  0  0  0  0  0
   22.2770   -5.0989  -17.1847 C   0  0  2  0  0  0  0  0  0  0  0  0
   21.4694   -5.9321  -14.9459 N   0  0  0  0  0  0  0  0  0  0  0  0
   20.1747   -6.2885  -15.4808 C   0  0  0  0  0  0  0  0  0  0  0  0
   21.3730   -4.6058  -14.3133 O   0  0  0  0  0  0  0  0  0  0  0  0
   20.4948   -3.7996  -14.6842 O   0  0  0  0  0  0  0  0  0  0  0  0
  2  1  1  0
  2  3  2  0
  4  2  1  0
  5  4  1  0
  6  5  1  0
  7  6  1  0
  7  8  1  0
  8  9  1  6
 10  8  1  0
 10 16  1  0
 11 10  2  0
 13 15  1  0
 13 12  1  1
 14 13  1  0
 15 16  1  1
 17 15  1  0
 18 17  2  0
 20 19  1  6
 20 22  1  0
 21 20  1  0
 22 23  1  1
 22 24  1  0
 23 17  1  0
 24 26  1  0
 25 24  2  0
M  END
$$$$
