RVV.pdb
     RDKit          3D

 26 25  0  0  1  0  0  0  0  0999 V2000
   31.1466  -24.7291  -17.6257 N   0  0  0  0  0  0  0  0  0  0  0  0
   30.9957  -24.3019  -18.9704 C   0  0  0  0  0  0  0  0  0  0  0  0
   31.1392  -25.1474  -19.9126 N   0  0  0  0  0  0  0  0  0  0  0  0
   30.6898  -22.9536  -19.2570 N   0  0  0  0  0  0  0  0  0  0  0  0
   30.4645  -21.9729  -18.2232 C   0  0  0  0  0  0  0  0  0  0  0  0
   29.1830  -22.3073  -17.5017 C   0  0  0  0  0  0  0  0  0  0  0  0
   28.4490  -21.0785  -17.0287 C   0  0  0  0  0  0  0  0  0  0  0  0
   27.0307  -21.0295  -17.5240 C   0  0  2  0  0  0  0  0  0  0  0  0
   27.0149  -20.5928  -18.8976 N   0  0  0  0  0  0  0  0  0  0  0  0
   26.1703  -20.1778  -16.6596 C   0  0  0  0  0  0  0  0  0  0  0  0
   26.0805  -18.9558  -16.9903 O   0  0  0  0  0  0  0  0  0  0  0  0
   30.9919  -24.9195  -20.9190 C   0  0  0  0  0  0  0  0  0  0  0  0
   24.0448  -18.4595  -16.8393 C   0  0  2  0  0  0  0  0  0  0  0  0
   23.5061  -19.3117  -15.7404 C   0  0  0  0  0  0  0  0  0  0  0  0
   22.6340  -20.4412  -16.2391 C   0  0  2  0  0  0  0  0  0  0  0  0
   24.5454  -19.8118  -14.7546 N   0  0  0  0  0  0  0  0  0  0  0  0
   25.4790  -20.6658  -15.5293 C   0  0  0  0  0  0  0  0  0  0  0  0
   23.9751  -20.6476  -13.6778 O   0  0  0  0  0  0  0  0  0  0  0  0
   23.5075  -21.8040  -13.9653 C   0  0  0  0  0  0  0  0  0  0  0  0
   24.4971  -19.8430   -9.4904 C   0  0  1  0  0  0  0  0  0  0  0  0
   24.5885  -21.2069  -10.1380 C   0  0  0  0  0  0  0  0  0  0  0  0
   25.9878  -21.5216  -10.5458 C   0  0  1  0  0  0  0  0  0  0  0  0
   23.5847  -21.2519  -11.2610 N   0  0  0  0  0  0  0  0  0  0  0  0
   23.8849  -20.3033  -12.3096 C   0  0  0  0  0  0  0  0  0  0  0  0
   22.2234  -20.9933  -10.7626 O   0  0  0  0  0  0  0  0  0  0  0  0
   21.6953  -19.8761  -10.9400 O   0  0  0  0  0  0  0  0  0  0  0  0
  2  1  1  0
  2  3  2  0
  4  2  1  0
  5  4  1  0
  6  5  1  0
  7  6  1  0
  7  8  1  0
  8  9  1  6
 10  8  1  0
 10 16  1  0
 11 10  2  0
 13 15  1  0
 13 12  1  1
 14 13  1  0
 15 16  1  1
 17 15  1  0
 18 17  2  0
 20 19  1  1
 20 22  1  0
 21 20  1  0
 22 23  1  6
 22 24  1  0
 23 17  1  0
 24 26  1  0
 25 24  2  0
M  END
$$$$
