RVV.pdb
     RDKit          3D

 26 25  0  0  1  0  0  0  0  0999 V2000
   16.5072  -24.5758   -5.1469 N   0  0  0  0  0  0  0  0  0  0  0  0
   16.9732  -25.9102   -5.2730 C   0  0  0  0  0  0  0  0  0  0  0  0
   16.6443  -26.7708   -4.3930 N   0  0  0  0  0  0  0  0  0  0  0  0
   17.7921  -26.2763   -6.3634 N   0  0  0  0  0  0  0  0  0  0  0  0
   18.2500  -25.3223   -7.3439 C   0  0  0  0  0  0  0  0  0  0  0  0
   19.0078  -26.0542   -8.4230 C   0  0  0  0  0  0  0  0  0  0  0  0
   18.0945  -26.7018   -9.4324 C   0  0  0  0  0  0  0  0  0  0  0  0
   18.8455  -27.2862  -10.5959 C   0  0  2  0  0  0  0  0  0  0  0  0
   19.8285  -28.2234  -10.1132 N   0  0  0  0  0  0  0  0  0  0  0  0
   19.4550  -26.2310  -11.4491 C   0  0  0  0  0  0  0  0  0  0  0  0
   20.7235  -26.1924  -11.4707 O   0  0  0  0  0  0  0  0  0  0  0  0
   16.9414  -27.7695   -4.4241 C   0  0  0  0  0  0  0  0  0  0  0  0
   18.8072  -23.4754  -15.4858 C   0  0  2  0  0  0  0  0  0  0  0  0
   18.5641  -24.5486  -14.4792 C   0  0  0  0  0  0  0  0  0  0  0  0
   18.7247  -25.9407  -15.0462 C   0  0  1  0  0  0  0  0  0  0  0  0
   19.3333  -24.3901  -13.1810 N   0  0  0  0  0  0  0  0  0  0  0  0
   18.6983  -25.3088  -12.2044 C   0  0  0  0  0  0  0  0  0  0  0  0
   19.2545  -23.0263  -12.6178 O   0  0  0  0  0  0  0  0  0  0  0  0
   18.1778  -22.6518  -12.0355 C   0  0  0  0  0  0  0  0  0  0  0  0
   21.1780  -19.1015  -10.5132 C   0  0  1  0  0  0  0  0  0  0  0  0
   21.4368  -20.3951  -11.2530 C   0  0  0  0  0  0  0  0  0  0  0  0
   22.6501  -20.2948  -12.1139 C   0  0  2  0  0  0  0  0  0  0  0  0
   20.1756  -20.7643  -11.9904 N   0  0  0  0  0  0  0  0  0  0  0  0
   20.2746  -22.0480  -12.6475 C   0  0  0  0  0  0  0  0  0  0  0  0
   19.8328  -19.7426  -12.9941 O   0  0  0  0  0  0  0  0  0  0  0  0
   20.1742  -19.8980  -14.1848 O   0  0  0  0  0  0  0  0  0  0  0  0
  2  1  1  0
  2  3  2  0
  4  2  1  0
  5  4  1  0
  6  5  1  0
  7  6  1  0
  7  8  1  0
  8  9  1  1
 10  8  1  0
 10 16  1  0
 11 10  2  0
 13 15  1  0
 13 12  1  6
 14 13  1  0
 15 16  1  6
 17 15  1  0
 18 17  2  0
 20 19  1  1
 20 22  1  0
 21 20  1  0
 22 23  1  6
 22 24  1  0
 23 17  1  0
 24 26  1  0
 25 24  2  0
M  END
$$$$
