RVV.pdb
     RDKit          3D

 26 25  0  0  1  0  0  0  0  0999 V2000
   27.6795  -21.0036  -18.1411 N   0  0  0  0  0  0  0  0  0  0  0  0
   29.0556  -20.7020  -17.9710 C   0  0  0  0  0  0  0  0  0  0  0  0
   29.8729  -20.9694  -18.9111 N   0  0  0  0  0  0  0  0  0  0  0  0
   29.5103  -20.1120  -16.7715 N   0  0  0  0  0  0  0  0  0  0  0  0
   28.6151  -19.7349  -15.7049 C   0  0  0  0  0  0  0  0  0  0  0  0
   27.8423  -18.5095  -16.1241 C   0  0  0  0  0  0  0  0  0  0  0  0
   26.8183  -18.0938  -15.0991 C   0  0  0  0  0  0  0  0  0  0  0  0
   25.5978  -18.9708  -15.1169 C   0  0  2  0  0  0  0  0  0  0  0  0
   24.7121  -18.5428  -16.1704 N   0  0  0  0  0  0  0  0  0  0  0  0
   24.9163  -19.0000  -13.7949 C   0  0  0  0  0  0  0  0  0  0  0  0
   24.4770  -17.8887  -13.3672 O   0  0  0  0  0  0  0  0  0  0  0  0
   30.8917  -20.7534  -18.8681 C   0  0  0  0  0  0  0  0  0  0  0  0
   22.0324  -21.2537  -10.6417 C   0  0  1  0  0  0  0  0  0  0  0  0
   22.8230  -21.0428  -11.8884 C   0  0  0  0  0  0  0  0  0  0  0  0
   21.9780  -20.5885  -13.0567 C   0  0  1  0  0  0  0  0  0  0  0  0
   24.0513  -20.1676  -11.7232 N   0  0  0  0  0  0  0  0  0  0  0  0
   24.7496  -20.1765  -13.0322 C   0  0  0  0  0  0  0  0  0  0  0  0
   25.0017  -20.6788  -10.7138 O   0  0  0  0  0  0  0  0  0  0  0  0
   25.5613  -21.8148  -10.9011 C   0  0  0  0  0  0  0  0  0  0  0  0
   27.4259  -18.5856   -8.1834 C   0  0  1  0  0  0  0  0  0  0  0  0
   26.6609  -19.6670   -7.4532 C   0  0  0  0  0  0  0  0  0  0  0  0
   27.4782  -20.2658   -6.3592 C   0  0  2  0  0  0  0  0  0  0  0  0
   26.1684  -20.6554   -8.4786 N   0  0  0  0  0  0  0  0  0  0  0  0
   25.3813  -20.0295   -9.5169 C   0  0  0  0  0  0  0  0  0  0  0  0
   25.3640  -21.7147   -7.8466 O   0  0  0  0  0  0  0  0  0  0  0  0
   24.1711  -21.4988   -7.5483 O   0  0  0  0  0  0  0  0  0  0  0  0
  2  1  1  0
  2  3  2  0
  4  2  1  0
  5  4  1  0
  6  5  1  0
  7  6  1  0
  7  8  1  0
  8  9  1  6
 10  8  1  0
 10 16  1  0
 11 10  2  0
 13 15  1  0
 13 12  1  6
 14 13  1  0
 15 16  1  6
 17 15  1  0
 18 17  2  0
 20 19  1  1
 20 22  1  0
 21 20  1  0
 22 23  1  6
 22 24  1  0
 23 17  1  0
 24 26  1  0
 25 24  2  0
M  END
$$$$
