RVV.pdb
     RDKit          3D

 26 25  0  0  1  0  0  0  0  0999 V2000
   17.0575  -27.7529  -12.8945 N   0  0  0  0  0  0  0  0  0  0  0  0
   17.3278  -29.0890  -12.5002 C   0  0  0  0  0  0  0  0  0  0  0  0
   17.3874  -30.0007  -13.3881 N   0  0  0  0  0  0  0  0  0  0  0  0
   17.5278  -29.4005  -11.1376 N   0  0  0  0  0  0  0  0  0  0  0  0
   17.6966  -28.3852  -10.1268 C   0  0  0  0  0  0  0  0  0  0  0  0
   18.9706  -27.6265  -10.4024 C   0  0  0  0  0  0  0  0  0  0  0  0
   19.2025  -26.5097   -9.4168 C   0  0  0  0  0  0  0  0  0  0  0  0
   18.1708  -25.4222   -9.5266 C   0  0  2  0  0  0  0  0  0  0  0  0
   18.6415  -24.4007  -10.4281 N   0  0  0  0  0  0  0  0  0  0  0  0
   17.8080  -24.8653   -8.1957 C   0  0  0  0  0  0  0  0  0  0  0  0
   18.5981  -23.9935   -7.7198 O   0  0  0  0  0  0  0  0  0  0  0  0
   17.5983  -30.9992  -13.1757 C   0  0  0  0  0  0  0  0  0  0  0  0
   14.2916  -23.8605   -4.9123 C   0  0  1  0  0  0  0  0  0  0  0  0
   14.9365  -24.1456   -6.2264 C   0  0  0  0  0  0  0  0  0  0  0  0
   14.8647  -22.9807   -7.1872 C   0  0  1  0  0  0  0  0  0  0  0  0
   16.3457  -24.7005   -6.1371 N   0  0  0  0  0  0  0  0  0  0  0  0
   16.6598  -25.2599   -7.4749 C   0  0  0  0  0  0  0  0  0  0  0  0
   16.4804  -25.7991   -5.1581 O   0  0  0  0  0  0  0  0  0  0  0  0
   15.8981  -26.9157   -5.3876 C   0  0  0  0  0  0  0  0  0  0  0  0
   19.6384  -27.2913   -3.3686 C   0  0  1  0  0  0  0  0  0  0  0  0
   18.6033  -26.9540   -2.3186 C   0  0  0  0  0  0  0  0  0  0  0  0
   18.6443  -27.9219   -1.1852 C   0  0  2  0  0  0  0  0  0  0  0  0
   17.2661  -26.8520   -3.0058 N   0  0  0  0  0  0  0  0  0  0  0  0
   17.2105  -25.7574   -3.9483 C   0  0  0  0  0  0  0  0  0  0  0  0
   16.1798  -26.6895   -2.0250 O   0  0  0  0  0  0  0  0  0  0  0  0
   15.9168  -25.5585   -1.5663 O   0  0  0  0  0  0  0  0  0  0  0  0
  2  1  1  0
  2  3  2  0
  4  2  1  0
  5  4  1  0
  6  5  1  0
  7  6  1  0
  7  8  1  0
  8  9  1  6
 10  8  1  0
 10 16  1  0
 11 10  2  0
 13 15  1  0
 13 12  1  6
 14 13  1  0
 15 16  1  6
 17 15  1  0
 18 17  2  0
 20 19  1  1
 20 22  1  0
 21 20  1  0
 22 23  1  6
 22 24  1  0
 23 17  1  0
 24 26  1  0
 25 24  2  0
M  END
$$$$
