RVV.pdb
     RDKit          3D

 26 25  0  0  1  0  0  0  0  0999 V2000
   20.5780  -17.5432  -17.2026 N   0  0  0  0  0  0  0  0  0  0  0  0
   21.2279  -17.1284  -18.3939 C   0  0  0  0  0  0  0  0  0  0  0  0
   20.5837  -16.4330  -19.2453 N   0  0  0  0  0  0  0  0  0  0  0  0
   22.5737  -17.4844  -18.6296 N   0  0  0  0  0  0  0  0  0  0  0  0
   23.2840  -18.4251  -17.7978 C   0  0  0  0  0  0  0  0  0  0  0  0
   22.9589  -18.1436  -16.3522 C   0  0  0  0  0  0  0  0  0  0  0  0
   23.3992  -19.2552  -15.4342 C   0  0  0  0  0  0  0  0  0  0  0  0
   24.5507  -20.0420  -15.9948 C   0  0  2  0  0  0  0  0  0  0  0  0
   24.0567  -21.0133  -16.9382 N   0  0  0  0  0  0  0  0  0  0  0  0
   25.3659  -20.6730  -14.9222 C   0  0  0  0  0  0  0  0  0  0  0  0
   24.9365  -21.7786  -14.4704 O   0  0  0  0  0  0  0  0  0  0  0  0
   20.9861  -16.1152  -20.1528 C   0  0  0  0  0  0  0  0  0  0  0  0
   29.6031  -20.5613  -12.2557 C   0  0  1  0  0  0  0  0  0  0  0  0
   28.7439  -20.3236  -13.4513 C   0  0  0  0  0  0  0  0  0  0  0  0
   29.3213  -20.9053  -14.7215 C   0  0  1  0  0  0  0  0  0  0  0  0
   27.2884  -20.7154  -13.2775 N   0  0  0  0  0  0  0  0  0  0  0  0
   26.5531  -20.1042  -14.4119 C   0  0  0  0  0  0  0  0  0  0  0  0
   26.6877  -20.1945  -12.0319 O   0  0  0  0  0  0  0  0  0  0  0  0
   26.5131  -18.9330  -11.9022 C   0  0  0  0  0  0  0  0  0  0  0  0
   23.4426  -20.9602  -10.2940 C   0  0  1  0  0  0  0  0  0  0  0  0
   24.4997  -21.0955   -9.2206 C   0  0  0  0  0  0  0  0  0  0  0  0
   23.9945  -20.6257   -7.8988 C   0  0  2  0  0  0  0  0  0  0  0  0
   25.7396  -20.3882   -9.7035 N   0  0  0  0  0  0  0  0  0  0  0  0
   26.2642  -20.9613  -10.9224 C   0  0  0  0  0  0  0  0  0  0  0  0
   26.7943  -20.4114   -8.6759 O   0  0  0  0  0  0  0  0  0  0  0  0
   27.6682  -21.3027   -8.6983 O   0  0  0  0  0  0  0  0  0  0  0  0
  2  1  1  0
  2  3  2  0
  4  2  1  0
  5  4  1  0
  6  5  1  0
  7  6  1  0
  7  8  1  0
  8  9  1  6
 10  8  1  0
 10 16  1  0
 11 10  2  0
 13 15  1  0
 13 12  1  6
 14 13  1  0
 15 16  1  6
 17 15  1  0
 18 17  2  0
 20 19  1  1
 20 22  1  0
 21 20  1  0
 22 23  1  6
 22 24  1  0
 23 17  1  0
 24 26  1  0
 25 24  2  0
M  END
$$$$
