RVV.pdb
     RDKit          3D

 26 25  0  0  1  0  0  0  0  0999 V2000
   30.4782  -23.6557  -17.1641 N   0  0  0  0  0  0  0  0  0  0  0  0
   30.5481  -22.5579  -18.0605 C   0  0  0  0  0  0  0  0  0  0  0  0
   31.2560  -22.6588  -19.1151 N   0  0  0  0  0  0  0  0  0  0  0  0
   29.8396  -21.3685  -17.7833 N   0  0  0  0  0  0  0  0  0  0  0  0
   28.7937  -21.3021  -16.7919 C   0  0  0  0  0  0  0  0  0  0  0  0
   27.4698  -21.5844  -17.4568 C   0  0  0  0  0  0  0  0  0  0  0  0
   26.3583  -21.8009  -16.4618 C   0  0  0  0  0  0  0  0  0  0  0  0
   26.8155  -22.5530  -15.2434 C   0  0  2  0  0  0  0  0  0  0  0  0
   27.0755  -23.9266  -15.5945 N   0  0  0  0  0  0  0  0  0  0  0  0
   25.8424  -22.4397  -14.1239 C   0  0  0  0  0  0  0  0  0  0  0  0
   24.9319  -23.3231  -14.0825 O   0  0  0  0  0  0  0  0  0  0  0  0
   31.3603  -21.8932  -19.8147 C   0  0  0  0  0  0  0  0  0  0  0  0
   24.6218  -20.2392   -9.7974 C   0  0  1  0  0  0  0  0  0  0  0  0
   25.5372  -20.6057  -10.9162 C   0  0  0  0  0  0  0  0  0  0  0  0
   26.7614  -21.3642  -10.4565 C   0  0  1  0  0  0  0  0  0  0  0  0
   24.8661  -21.2996  -12.0867 N   0  0  0  0  0  0  0  0  0  0  0  0
   25.8972  -21.4224  -13.1464 C   0  0  0  0  0  0  0  0  0  0  0  0
   23.7403  -20.5296  -12.6553 O   0  0  0  0  0  0  0  0  0  0  0  0
   23.9788  -19.6315  -13.5358 C   0  0  0  0  0  0  0  0  0  0  0  0
   20.7168  -21.9628  -14.4510 C   0  0  1  0  0  0  0  0  0  0  0  0
   21.2054  -20.5317  -14.4809 C   0  0  0  0  0  0  0  0  0  0  0  0
   22.4698  -20.4058  -15.2612 C   0  0  1  0  0  0  0  0  0  0  0  0
   21.2983  -20.0468  -13.0572 N   0  0  0  0  0  0  0  0  0  0  0  0
   22.3736  -20.6787  -12.3265 C   0  0  0  0  0  0  0  0  0  0  0  0
   20.0347  -20.2787  -12.3373 O   0  0  0  0  0  0  0  0  0  0  0  0
   19.9527  -21.2031  -11.5021 O   0  0  0  0  0  0  0  0  0  0  0  0
  2  1  1  0
  2  3  2  0
  4  2  1  0
  5  4  1  0
  6  5  1  0
  7  6  1  0
  7  8  1  0
  8  9  1  6
 10  8  1  0
 10 16  1  0
 11 10  2  0
 13 15  1  0
 13 12  1  1
 14 13  1  0
 15 16  1  6
 17 15  1  0
 18 17  2  0
 20 19  1  6
 20 22  1  0
 21 20  1  0
 22 23  1  6
 22 24  1  0
 23 17  1  0
 24 26  1  0
 25 24  2  0
M  END
$$$$
