QMN.pdb
     RDKit          3D

 26 25  0  0  1  0  0  0  0  0999 V2000
    8.2758  -12.4226   17.4871 N   0  0  0  0  0  0  0  0  0  0  0  0
    8.0559  -13.7134   16.9804 C   0  0  0  0  0  0  0  0  0  0  0  0
    8.0881  -13.8931   15.7340 O   0  0  0  0  0  0  0  0  0  0  0  0
    7.7961  -14.8091   17.9120 C   0  0  0  0  0  0  0  0  0  0  0  0
    8.9518  -15.1753   18.7962 C   0  0  0  0  0  0  0  0  0  0  0  0
    8.3473  -15.9040   20.0043 C   0  0  2  0  0  0  0  0  0  0  0  0
    6.8884  -15.8734   19.9113 N   0  0  0  0  0  0  0  0  0  0  0  0
    8.7601  -15.2571   21.2699 C   0  0  0  0  0  0  0  0  0  0  0  0
    9.9723  -14.9382   21.4390 O   0  0  0  0  0  0  0  0  0  0  0  0
    6.8207  -11.4017   27.8256 C   0  0  0  0  0  0  0  0  0  0  0  0
    6.2997  -12.1429   26.2652 S   0  0  0  0  0  0  0  0  0  0  0  0
    7.6514  -13.2054   25.6422 C   0  0  0  0  0  0  0  0  0  0  0  0
    7.2452  -13.7460   24.3143 C   0  0  0  0  0  0  0  0  0  0  0  0
    8.3413  -14.5443   23.6757 C   0  0  2  0  0  0  0  0  0  0  0  0
    7.8801  -14.9614   22.3288 N   0  0  0  0  0  0  0  0  0  0  0  0
    8.6334  -15.7363   24.4928 C   0  0  0  0  0  0  0  0  0  0  0  0
    7.8256  -16.7299   24.2976 O   0  0  0  0  0  0  0  0  0  0  0  0
   10.6639  -20.5361   24.1572 N   0  0  0  0  0  0  0  0  0  0  0  0
   10.8631  -19.4574   25.0470 C   0  0  0  0  0  0  0  0  0  0  0  0
   11.4365  -19.6892   26.1331 O   0  0  0  0  0  0  0  0  0  0  0  0
   10.4168  -18.1043   24.7178 C   0  0  0  0  0  0  0  0  0  0  0  0
    9.9309  -17.2880   25.8994 C   0  0  2  0  0  0  0  0  0  0  0  0
    9.6586  -15.9169   25.4251 N   0  0  0  0  0  0  0  0  0  0  0  0
   10.9016  -17.1967   26.9990 C   0  0  0  0  0  0  0  0  0  0  0  0
   12.0482  -16.3926   26.9619 O   0  0  0  0  0  0  0  0  0  0  0  0
   10.7381  -17.8542   28.0445 O   0  0  0  0  0  0  0  0  0  0  0  0
  1  2  1  0
  2  3  2  0
  4  5  1  0
  4  2  1  0
  6  7  1  6
  6  5  1  0
  8  6  1  0
  9  8  2  0
 11 10  1  0
 12 13  1  0
 12 11  1  0
 14 13  1  1
 14 16  1  0
 14 15  1  0
 15  8  1  0
 16 17  2  0
 18 19  1  0
 19 21  1  0
 20 19  2  0
 22 21  1  6
 23 22  1  0
 23 16  1  0
 24 25  1  0
 24 22  1  0
 26 24  2  0
M  END
$$$$
