QMN.pdb
     RDKit          3D

 26 25  0  0  1  0  0  0  0  0999 V2000
   10.0144  -18.4777   17.5187 N   0  0  0  0  0  0  0  0  0  0  0  0
    8.6146  -18.4884   17.4112 C   0  0  0  0  0  0  0  0  0  0  0  0
    8.0764  -19.2021   16.5235 O   0  0  0  0  0  0  0  0  0  0  0  0
    7.8238  -17.6724   18.3303 C   0  0  0  0  0  0  0  0  0  0  0  0
    8.6138  -16.9814   19.4026 C   0  0  0  0  0  0  0  0  0  0  0  0
    7.5832  -16.3449   20.3453 C   0  0  2  0  0  0  0  0  0  0  0  0
    6.8021  -15.3498   19.6122 N   0  0  0  0  0  0  0  0  0  0  0  0
    8.2526  -15.6822   21.4868 C   0  0  0  0  0  0  0  0  0  0  0  0
    9.4725  -15.3619   21.3922 O   0  0  0  0  0  0  0  0  0  0  0  0
    7.2740  -11.4186   28.0254 C   0  0  0  0  0  0  0  0  0  0  0  0
    6.5414  -12.3375   26.6565 S   0  0  0  0  0  0  0  0  0  0  0  0
    7.8551  -13.3085   25.8343 C   0  0  0  0  0  0  0  0  0  0  0  0
    7.2681  -13.9610   24.6300 C   0  0  0  0  0  0  0  0  0  0  0  0
    8.3023  -14.6946   23.8307 C   0  0  2  0  0  0  0  0  0  0  0  0
    7.6155  -15.3723   22.7039 N   0  0  0  0  0  0  0  0  0  0  0  0
    8.9730  -15.6964   24.6795 C   0  0  0  0  0  0  0  0  0  0  0  0
    8.3062  -16.7955   24.8385 O   0  0  0  0  0  0  0  0  0  0  0  0
   13.4263  -16.1572   23.6343 N   0  0  0  0  0  0  0  0  0  0  0  0
   12.6363  -17.0885   24.3439 C   0  0  0  0  0  0  0  0  0  0  0  0
   12.2771  -18.1280   23.7502 O   0  0  0  0  0  0  0  0  0  0  0  0
   12.2446  -16.8548   25.7332 C   0  0  0  0  0  0  0  0  0  0  0  0
   10.7485  -16.8094   25.9749 C   0  0  2  0  0  0  0  0  0  0  0  0
   10.2159  -15.6032   25.3112 N   0  0  0  0  0  0  0  0  0  0  0  0
   10.3769  -16.7398   27.3951 C   0  0  0  0  0  0  0  0  0  0  0  0
   10.2819  -17.8594   28.2318 O   0  0  0  0  0  0  0  0  0  0  0  0
   10.1220  -15.6440   27.9301 O   0  0  0  0  0  0  0  0  0  0  0  0
  1  2  1  0
  2  3  2  0
  4  5  1  0
  4  2  1  0
  6  7  1  6
  6  5  1  0
  8  6  1  0
  9  8  2  0
 11 10  1  0
 12 13  1  0
 12 11  1  0
 14 13  1  1
 14 16  1  0
 14 15  1  0
 15  8  1  0
 16 17  2  0
 18 19  1  0
 19 21  1  0
 20 19  2  0
 22 21  1  1
 23 22  1  0
 23 16  1  0
 24 25  1  0
 24 22  1  0
 26 24  2  0
M  END
$$$$
