QMN.pdb
     RDKit          3D

 26 25  0  0  1  0  0  0  0  0999 V2000
    7.0310  -19.1701   20.3408 N   0  0  0  0  0  0  0  0  0  0  0  0
    7.1271  -18.9064   18.9652 C   0  0  0  0  0  0  0  0  0  0  0  0
    6.3601  -19.5149   18.1724 O   0  0  0  0  0  0  0  0  0  0  0  0
    8.1127  -17.9358   18.4936 C   0  0  0  0  0  0  0  0  0  0  0  0
    8.9114  -17.2690   19.5747 C   0  0  0  0  0  0  0  0  0  0  0  0
    7.9753  -16.2370   20.2184 C   0  0  2  0  0  0  0  0  0  0  0  0
    7.7695  -15.1229   19.2940 N   0  0  0  0  0  0  0  0  0  0  0  0
    8.5534  -15.7145   21.4768 C   0  0  0  0  0  0  0  0  0  0  0  0
    9.8050  -15.7615   21.6530 O   0  0  0  0  0  0  0  0  0  0  0  0
    7.2113  -11.3805   27.9499 C   0  0  0  0  0  0  0  0  0  0  0  0
    6.5506  -12.1985   26.4838 S   0  0  0  0  0  0  0  0  0  0  0  0
    7.8586  -13.2541   25.7633 C   0  0  0  0  0  0  0  0  0  0  0  0
    7.3494  -13.8177   24.4812 C   0  0  0  0  0  0  0  0  0  0  0  0
    8.3957  -14.6192   23.7674 C   0  0  2  0  0  0  0  0  0  0  0  0
    7.7936  -15.1531   22.5211 N   0  0  0  0  0  0  0  0  0  0  0  0
    8.8412  -15.7348   24.6222 C   0  0  0  0  0  0  0  0  0  0  0  0
    7.9677  -16.6805   24.7661 O   0  0  0  0  0  0  0  0  0  0  0  0
   12.6607  -17.2186   23.3955 N   0  0  0  0  0  0  0  0  0  0  0  0
   11.9388  -18.0249   24.3032 C   0  0  0  0  0  0  0  0  0  0  0  0
   11.4862  -19.1144   23.8904 O   0  0  0  0  0  0  0  0  0  0  0  0
   11.7217  -17.6084   25.6880 C   0  0  0  0  0  0  0  0  0  0  0  0
   10.3110  -17.1506   26.0024 C   0  0  2  0  0  0  0  0  0  0  0  0
   10.0676  -15.8902   25.2737 N   0  0  0  0  0  0  0  0  0  0  0  0
   10.0724  -16.8955   27.4299 C   0  0  0  0  0  0  0  0  0  0  0  0
    9.9350  -17.9063   28.3902 O   0  0  0  0  0  0  0  0  0  0  0  0
    9.9789  -15.7292   27.8580 O   0  0  0  0  0  0  0  0  0  0  0  0
  1  2  1  0
  2  3  2  0
  4  5  1  0
  4  2  1  0
  6  7  1  6
  6  5  1  0
  8  6  1  0
  9  8  2  0
 11 10  1  0
 12 13  1  0
 12 11  1  0
 14 13  1  1
 14 16  1  0
 14 15  1  0
 15  8  1  0
 16 17  2  0
 18 19  1  0
 19 21  1  0
 20 19  2  0
 22 21  1  1
 23 22  1  0
 23 16  1  0
 24 25  1  0
 24 22  1  0
 26 24  2  0
M  END
$$$$
