QMN.pdb
     RDKit          3D

 26 25  0  0  1  0  0  0  0  0999 V2000
    8.4237  -12.2208   17.8073 N   0  0  0  0  0  0  0  0  0  0  0  0
    7.9592  -13.5299   17.6030 C   0  0  0  0  0  0  0  0  0  0  0  0
    7.7291  -13.9189   16.4271 O   0  0  0  0  0  0  0  0  0  0  0  0
    7.7561  -14.4016   18.7583 C   0  0  0  0  0  0  0  0  0  0  0  0
    8.9117  -15.3023   19.0821 C   0  0  0  0  0  0  0  0  0  0  0  0
    8.4576  -16.1651   20.2676 C   0  0  2  0  0  0  0  0  0  0  0  0
    7.0027  -16.3076   20.2370 N   0  0  0  0  0  0  0  0  0  0  0  0
    8.8511  -15.5440   21.5520 C   0  0  0  0  0  0  0  0  0  0  0  0
   10.0645  -15.2509   21.7554 O   0  0  0  0  0  0  0  0  0  0  0  0
    6.7071  -11.5480   27.9458 C   0  0  0  0  0  0  0  0  0  0  0  0
    6.1970  -12.4070   26.4435 S   0  0  0  0  0  0  0  0  0  0  0  0
    7.5698  -13.4800   25.8883 C   0  0  0  0  0  0  0  0  0  0  0  0
    7.2381  -13.9963   24.5303 C   0  0  0  0  0  0  0  0  0  0  0  0
    8.3825  -14.7499   23.9230 C   0  0  2  0  0  0  0  0  0  0  0  0
    7.9509  -15.2461   22.5932 N   0  0  0  0  0  0  0  0  0  0  0  0
    8.7453  -15.8894   24.7855 C   0  0  0  0  0  0  0  0  0  0  0  0
    7.8690  -16.8430   24.8087 O   0  0  0  0  0  0  0  0  0  0  0  0
   12.9004  -19.6542   26.3579 N   0  0  0  0  0  0  0  0  0  0  0  0
   11.5447  -19.4010   26.0530 C   0  0  0  0  0  0  0  0  0  0  0  0
   10.7055  -20.2860   26.3261 O   0  0  0  0  0  0  0  0  0  0  0  0
   11.1232  -18.1437   25.4369 C   0  0  0  0  0  0  0  0  0  0  0  0
   10.0974  -17.3576   26.2297 C   0  0  2  0  0  0  0  0  0  0  0  0
    9.8983  -16.0591   25.5564 N   0  0  0  0  0  0  0  0  0  0  0  0
   10.4986  -17.0854   27.6170 C   0  0  0  0  0  0  0  0  0  0  0  0
   10.4328  -18.0322   28.6475 O   0  0  0  0  0  0  0  0  0  0  0  0
   10.9276  -15.9624   27.9437 O   0  0  0  0  0  0  0  0  0  0  0  0
  1  2  1  0
  2  3  2  0
  4  5  1  0
  4  2  1  0
  6  7  1  1
  6  5  1  0
  8  6  1  0
  9  8  2  0
 11 10  1  0
 12 13  1  0
 12 11  1  0
 14 13  1  1
 14 16  1  0
 14 15  1  0
 15  8  1  0
 16 17  2  0
 18 19  1  0
 19 21  1  0
 20 19  2  0
 22 21  1  6
 23 22  1  0
 23 16  1  0
 24 25  1  0
 24 22  1  0
 26 24  2  0
M  END
$$$$
