QMN.pdb
     RDKit          3D

 26 25  0  0  1  0  0  0  0  0999 V2000
    8.0325  -12.7618   17.7512 N   0  0  0  0  0  0  0  0  0  0  0  0
    7.9679  -14.0855   17.2876 C   0  0  0  0  0  0  0  0  0  0  0  0
    7.4278  -14.3158   16.1731 O   0  0  0  0  0  0  0  0  0  0  0  0
    8.5277  -15.1559   18.1103 C   0  0  0  0  0  0  0  0  0  0  0  0
    9.2242  -14.6969   19.3576 C   0  0  0  0  0  0  0  0  0  0  0  0
    8.9299  -15.7610   20.4238 C   0  0  2  0  0  0  0  0  0  0  0  0
    7.5374  -16.1923   20.3099 N   0  0  0  0  0  0  0  0  0  0  0  0
    9.1540  -15.2204   21.7832 C   0  0  0  0  0  0  0  0  0  0  0  0
   10.2874  -14.7474   22.0856 O   0  0  0  0  0  0  0  0  0  0  0  0
    7.1891  -11.0451   26.9527 C   0  0  0  0  0  0  0  0  0  0  0  0
    6.2199  -12.5330   26.6334 S   0  0  0  0  0  0  0  0  0  0  0  0
    7.3642  -13.9003   26.2264 C   0  0  0  0  0  0  0  0  0  0  0  0
    7.2037  -14.2282   24.7816 C   0  0  0  0  0  0  0  0  0  0  0  0
    8.4600  -14.7961   24.1935 C   0  0  2  0  0  0  0  0  0  0  0  0
    8.1728  -15.1917   22.7930 N   0  0  0  0  0  0  0  0  0  0  0  0
    8.8852  -15.9771   24.9669 C   0  0  0  0  0  0  0  0  0  0  0  0
    8.0740  -16.9844   24.8947 O   0  0  0  0  0  0  0  0  0  0  0  0
   10.9514  -19.7816   24.6845 N   0  0  0  0  0  0  0  0  0  0  0  0
   11.9765  -18.8599   24.9922 C   0  0  0  0  0  0  0  0  0  0  0  0
   13.0681  -18.9734   24.3942 O   0  0  0  0  0  0  0  0  0  0  0  0
   11.7779  -17.7992   25.9789 C   0  0  0  0  0  0  0  0  0  0  0  0
   10.3285  -17.4766   26.2853 C   0  0  2  0  0  0  0  0  0  0  0  0
   10.0358  -16.1348   25.7441 N   0  0  0  0  0  0  0  0  0  0  0  0
   10.0134  -17.4588   27.7206 C   0  0  0  0  0  0  0  0  0  0  0  0
    9.6892  -18.6025   28.4619 O   0  0  0  0  0  0  0  0  0  0  0  0
   10.0216  -16.3882   28.3577 O   0  0  0  0  0  0  0  0  0  0  0  0
  1  2  1  0
  2  3  2  0
  4  5  1  0
  4  2  1  0
  6  7  1  1
  6  5  1  0
  8  6  1  0
  9  8  2  0
 11 10  1  0
 12 13  1  0
 12 11  1  0
 14 13  1  1
 14 16  1  0
 14 15  1  0
 15  8  1  0
 16 17  2  0
 18 19  1  0
 19 21  1  0
 20 19  2  0
 22 21  1  1
 23 22  1  0
 23 16  1  0
 24 25  1  0
 24 22  1  0
 26 24  2  0
M  END
$$$$
