QMN.pdb
     RDKit          3D

 26 25  0  0  1  0  0  0  0  0999 V2000
    7.8903  -12.4111   17.6089 N   0  0  0  0  0  0  0  0  0  0  0  0
    7.6878  -13.7808   17.8412 C   0  0  0  0  0  0  0  0  0  0  0  0
    7.4709  -14.5404   16.8598 O   0  0  0  0  0  0  0  0  0  0  0  0
    7.7340  -14.2848   19.2122 C   0  0  0  0  0  0  0  0  0  0  0  0
    9.0752  -14.7911   19.6554 C   0  0  0  0  0  0  0  0  0  0  0  0
    8.7937  -15.8745   20.7055 C   0  0  2  0  0  0  0  0  0  0  0  0
    7.3793  -16.2422   20.6587 N   0  0  0  0  0  0  0  0  0  0  0  0
    9.1169  -15.3866   22.0649 C   0  0  0  0  0  0  0  0  0  0  0  0
   10.2597  -14.8958   22.2944 O   0  0  0  0  0  0  0  0  0  0  0  0
    6.8701  -11.8816   27.3147 C   0  0  0  0  0  0  0  0  0  0  0  0
    6.1061  -12.1550   25.7032 S   0  0  0  0  0  0  0  0  0  0  0  0
    7.2908  -13.0540   24.6391 C   0  0  0  0  0  0  0  0  0  0  0  0
    7.4994  -14.4116   25.2172 C   0  0  0  0  0  0  0  0  0  0  0  0
    8.6279  -15.1373   24.5489 C   0  0  2  0  0  0  0  0  0  0  0  0
    8.2225  -15.4286   23.1519 N   0  0  0  0  0  0  0  0  0  0  0  0
    8.9026  -16.3990   25.2606 C   0  0  0  0  0  0  0  0  0  0  0  0
    8.5817  -17.4664   24.6006 O   0  0  0  0  0  0  0  0  0  0  0  0
   11.5863  -18.5345   23.3419 N   0  0  0  0  0  0  0  0  0  0  0  0
   11.2917  -18.8001   24.6975 C   0  0  0  0  0  0  0  0  0  0  0  0
   10.9260  -19.9553   25.0043 O   0  0  0  0  0  0  0  0  0  0  0  0
   11.4083  -17.7625   25.7212 C   0  0  0  0  0  0  0  0  0  0  0  0
   10.3032  -17.7637   26.7591 C   0  0  2  0  0  0  0  0  0  0  0  0
    9.4609  -16.5734   26.5297 N   0  0  0  0  0  0  0  0  0  0  0  0
   10.7885  -17.7082   28.1452 C   0  0  0  0  0  0  0  0  0  0  0  0
   10.6420  -16.5914   28.9783 O   0  0  0  0  0  0  0  0  0  0  0  0
   11.3705  -18.6860   28.6522 O   0  0  0  0  0  0  0  0  0  0  0  0
  1  2  1  0
  2  3  2  0
  4  5  1  0
  4  2  1  0
  6  7  1  1
  6  5  1  0
  8  6  1  0
  9  8  2  0
 11 10  1  0
 12 13  1  0
 12 11  1  0
 14 13  1  1
 14 16  1  0
 14 15  1  0
 15  8  1  0
 16 17  2  0
 18 19  1  0
 19 21  1  0
 20 19  2  0
 22 21  1  6
 23 22  1  0
 23 16  1  0
 24 25  1  0
 24 22  1  0
 26 24  2  0
M  END
$$$$
