QMN.pdb
     RDKit          3D

 26 25  0  0  1  0  0  0  0  0999 V2000
    9.9164  -13.7288   17.4827 N   0  0  0  0  0  0  0  0  0  0  0  0
    8.5260  -13.5534   17.5668 C   0  0  0  0  0  0  0  0  0  0  0  0
    7.9602  -12.7690   16.7597 O   0  0  0  0  0  0  0  0  0  0  0  0
    7.7768  -14.2843   18.5869 C   0  0  0  0  0  0  0  0  0  0  0  0
    8.6040  -15.1874   19.4539 C   0  0  0  0  0  0  0  0  0  0  0  0
    7.6758  -15.6597   20.5814 C   0  0  2  0  0  0  0  0  0  0  0  0
    6.3167  -15.1861   20.3238 N   0  0  0  0  0  0  0  0  0  0  0  0
    8.1264  -15.1337   21.8893 C   0  0  0  0  0  0  0  0  0  0  0  0
    9.2076  -14.4811   21.9584 O   0  0  0  0  0  0  0  0  0  0  0  0
    5.8934  -11.3323   26.4478 C   0  0  0  0  0  0  0  0  0  0  0  0
    7.4685  -12.2106   26.5042 S   0  0  0  0  0  0  0  0  0  0  0  0
    7.1340  -14.0054   26.6085 C   0  0  0  0  0  0  0  0  0  0  0  0
    6.7319  -14.4841   25.2558 C   0  0  0  0  0  0  0  0  0  0  0  0
    7.9193  -14.8213   24.4055 C   0  0  2  0  0  0  0  0  0  0  0  0
    7.4219  -15.3096   23.0960 N   0  0  0  0  0  0  0  0  0  0  0  0
    8.7191  -15.8742   25.0579 C   0  0  0  0  0  0  0  0  0  0  0  0
    8.1076  -17.0091   25.1852 O   0  0  0  0  0  0  0  0  0  0  0  0
   13.0035  -16.0002   23.7467 N   0  0  0  0  0  0  0  0  0  0  0  0
   12.4129  -17.0904   24.4231 C   0  0  0  0  0  0  0  0  0  0  0  0
   12.1687  -18.1264   23.7678 O   0  0  0  0  0  0  0  0  0  0  0  0
   12.0928  -17.0215   25.8482 C   0  0  0  0  0  0  0  0  0  0  0  0
   10.6110  -16.9953   26.1683 C   0  0  2  0  0  0  0  0  0  0  0  0
   10.0294  -15.7945   25.5369 N   0  0  0  0  0  0  0  0  0  0  0  0
   10.3139  -16.9333   27.6063 C   0  0  0  0  0  0  0  0  0  0  0  0
   10.5430  -17.9909   28.4960 O   0  0  0  0  0  0  0  0  0  0  0  0
    9.8288  -15.9018   28.1089 O   0  0  0  0  0  0  0  0  0  0  0  0
  1  2  1  0
  2  3  2  0
  4  5  1  0
  4  2  1  0
  6  7  1  6
  6  5  1  0
  8  6  1  0
  9  8  2  0
 11 10  1  0
 12 13  1  0
 12 11  1  0
 14 13  1  1
 14 16  1  0
 14 15  1  0
 15  8  1  0
 16 17  2  0
 18 19  1  0
 19 21  1  0
 20 19  2  0
 22 21  1  1
 23 22  1  0
 23 16  1  0
 24 25  1  0
 24 22  1  0
 26 24  2  0
M  END
$$$$
