QMN.pdb
     RDKit          3D

 26 25  0  0  1  0  0  0  0  0999 V2000
    7.5722  -19.4027   18.2982 N   0  0  0  0  0  0  0  0  0  0  0  0
    6.6798  -18.5763   17.5969 C   0  0  0  0  0  0  0  0  0  0  0  0
    6.0564  -19.0504   16.6103 O   0  0  0  0  0  0  0  0  0  0  0  0
    6.5007  -17.1923   18.0309 C   0  0  0  0  0  0  0  0  0  0  0  0
    7.3558  -16.7775   19.1920 C   0  0  0  0  0  0  0  0  0  0  0  0
    6.9393  -15.3403   19.5336 C   0  0  2  0  0  0  0  0  0  0  0  0
    7.1470  -14.4831   18.3674 N   0  0  0  0  0  0  0  0  0  0  0  0
    7.7389  -14.8147   20.6627 C   0  0  0  0  0  0  0  0  0  0  0  0
    8.9227  -14.4201   20.4562 O   0  0  0  0  0  0  0  0  0  0  0  0
    6.9465  -13.1530   28.1283 C   0  0  0  0  0  0  0  0  0  0  0  0
    6.5543  -12.4697   26.5052 S   0  0  0  0  0  0  0  0  0  0  0  0
    7.8105  -13.0474   25.3083 C   0  0  0  0  0  0  0  0  0  0  0  0
    7.1023  -13.6428   24.1401 C   0  0  0  0  0  0  0  0  0  0  0  0
    8.0586  -14.1181   23.0884 C   0  0  2  0  0  0  0  0  0  0  0  0
    7.2674  -14.7178   21.9861 N   0  0  0  0  0  0  0  0  0  0  0  0
    8.9657  -15.1313   23.6580 C   0  0  0  0  0  0  0  0  0  0  0  0
    8.4211  -16.2913   23.8469 O   0  0  0  0  0  0  0  0  0  0  0  0
   13.3954  -18.2590   23.9080 N   0  0  0  0  0  0  0  0  0  0  0  0
   13.4489  -16.9955   24.5371 C   0  0  0  0  0  0  0  0  0  0  0  0
   14.2952  -16.8241   25.4407 O   0  0  0  0  0  0  0  0  0  0  0  0
   12.5466  -15.9118   24.1505 C   0  0  0  0  0  0  0  0  0  0  0  0
   11.0725  -16.2113   24.3397 C   0  0  2  0  0  0  0  0  0  0  0  0
   10.3126  -14.9914   24.0032 N   0  0  0  0  0  0  0  0  0  0  0  0
   10.7150  -16.5969   25.7121 C   0  0  0  0  0  0  0  0  0  0  0  0
   10.3610  -15.6816   26.7119 O   0  0  0  0  0  0  0  0  0  0  0  0
   10.7131  -17.7951   26.0533 O   0  0  0  0  0  0  0  0  0  0  0  0
  1  2  1  0
  2  3  2  0
  4  5  1  0
  4  2  1  0
  6  7  1  6
  6  5  1  0
  8  6  1  0
  9  8  2  0
 11 10  1  0
 12 13  1  0
 12 11  1  0
 14 13  1  1
 14 16  1  0
 14 15  1  0
 15  8  1  0
 16 17  2  0
 18 19  1  0
 19 21  1  0
 20 19  2  0
 22 21  1  1
 23 22  1  0
 23 16  1  0
 24 25  1  0
 24 22  1  0
 26 24  2  0
M  END
$$$$
