QMN.pdb
     RDKit          3D

 26 25  0  0  1  0  0  0  0  0999 V2000
    8.7220  -12.6825   17.6282 N   0  0  0  0  0  0  0  0  0  0  0  0
    8.1487  -13.9620   17.5540 C   0  0  0  0  0  0  0  0  0  0  0  0
    7.5711  -14.3109   16.4902 O   0  0  0  0  0  0  0  0  0  0  0  0
    8.2379  -14.8502   18.7112 C   0  0  0  0  0  0  0  0  0  0  0  0
    8.9160  -14.2587   19.9119 C   0  0  0  0  0  0  0  0  0  0  0  0
    8.9269  -15.3618   20.9791 C   0  0  2  0  0  0  0  0  0  0  0  0
    7.7029  -16.1544   20.8726 N   0  0  0  0  0  0  0  0  0  0  0  0
    9.0035  -14.7793   22.3376 C   0  0  0  0  0  0  0  0  0  0  0  0
   10.1125  -14.3509   22.7692 O   0  0  0  0  0  0  0  0  0  0  0  0
    6.6126  -10.2441   26.3911 C   0  0  0  0  0  0  0  0  0  0  0  0
    5.7266  -11.7676   26.7775 S   0  0  0  0  0  0  0  0  0  0  0  0
    6.8489  -13.1840   26.4980 C   0  0  0  0  0  0  0  0  0  0  0  0
    6.8502  -13.4975   25.0411 C   0  0  0  0  0  0  0  0  0  0  0  0
    8.0395  -14.3200   24.6465 C   0  0  2  0  0  0  0  0  0  0  0  0
    7.9038  -14.6625   23.2095 N   0  0  0  0  0  0  0  0  0  0  0  0
    8.0827  -15.5551   25.4504 C   0  0  0  0  0  0  0  0  0  0  0  0
    7.9012  -15.3737   26.7201 O   0  0  0  0  0  0  0  0  0  0  0  0
    8.1367  -20.3235   27.5682 N   0  0  0  0  0  0  0  0  0  0  0  0
    7.3957  -20.2580   26.3675 C   0  0  0  0  0  0  0  0  0  0  0  0
    6.7393  -21.2653   26.0260 O   0  0  0  0  0  0  0  0  0  0  0  0
    7.3882  -19.0522   25.5403 C   0  0  0  0  0  0  0  0  0  0  0  0
    8.2992  -17.9412   26.0245 C   0  0  2  0  0  0  0  0  0  0  0  0
    8.2851  -16.8666   25.0125 N   0  0  0  0  0  0  0  0  0  0  0  0
    9.6956  -18.3575   26.2159 C   0  0  0  0  0  0  0  0  0  0  0  0
   10.7682  -17.8559   25.4671 O   0  0  0  0  0  0  0  0  0  0  0  0
    9.9915  -19.2032   27.0815 O   0  0  0  0  0  0  0  0  0  0  0  0
  1  2  1  0
  2  3  2  0
  4  5  1  0
  4  2  1  0
  6  7  1  1
  6  5  1  0
  8  6  1  0
  9  8  2  0
 11 10  1  0
 12 13  1  0
 12 11  1  0
 14 13  1  1
 14 16  1  0
 14 15  1  0
 15  8  1  0
 16 17  2  0
 18 19  1  0
 19 21  1  0
 20 19  2  0
 22 21  1  6
 23 22  1  0
 23 16  1  0
 24 25  1  0
 24 22  1  0
 26 24  2  0
M  END
$$$$
