QMN.pdb
     RDKit          3D

 26 25  0  0  1  0  0  0  0  0999 V2000
    8.1171  -19.7172   20.3478 N   0  0  0  0  0  0  0  0  0  0  0  0
    8.5916  -19.3629   19.0748 C   0  0  0  0  0  0  0  0  0  0  0  0
    8.1826  -20.0048   18.0710 O   0  0  0  0  0  0  0  0  0  0  0  0
    9.5449  -18.2621   18.9514 C   0  0  0  0  0  0  0  0  0  0  0  0
    9.9739  -17.6478   20.2515 C   0  0  0  0  0  0  0  0  0  0  0  0
    8.9033  -16.6051   20.6016 C   0  0  2  0  0  0  0  0  0  0  0  0
    8.6631  -15.7461   19.4431 N   0  0  0  0  0  0  0  0  0  0  0  0
    9.3393  -15.7644   21.7389 C   0  0  0  0  0  0  0  0  0  0  0  0
   10.5662  -15.7162   22.0426 O   0  0  0  0  0  0  0  0  0  0  0  0
    6.8442  -10.8171   26.2856 C   0  0  0  0  0  0  0  0  0  0  0  0
    6.2568  -12.5209   26.3708 S   0  0  0  0  0  0  0  0  0  0  0  0
    7.6354  -13.6379   25.9279 C   0  0  0  0  0  0  0  0  0  0  0  0
    7.4489  -14.0706   24.5141 C   0  0  0  0  0  0  0  0  0  0  0  0
    8.6472  -14.8028   23.9901 C   0  0  2  0  0  0  0  0  0  0  0  0
    8.4667  -14.9924   22.5299 N   0  0  0  0  0  0  0  0  0  0  0  0
    8.7604  -16.1155   24.6520 C   0  0  0  0  0  0  0  0  0  0  0  0
    8.5860  -17.1287   23.8641 O   0  0  0  0  0  0  0  0  0  0  0  0
   12.8885  -17.3721   23.6187 N   0  0  0  0  0  0  0  0  0  0  0  0
   11.9299  -17.7551   24.5827 C   0  0  0  0  0  0  0  0  0  0  0  0
   11.5644  -18.9501   24.6059 O   0  0  0  0  0  0  0  0  0  0  0  0
   11.3749  -16.7911   25.5319 C   0  0  0  0  0  0  0  0  0  0  0  0
   10.1665  -17.2811   26.3053 C   0  0  2  0  0  0  0  0  0  0  0  0
    9.0335  -16.3872   25.9952 N   0  0  0  0  0  0  0  0  0  0  0  0
   10.3521  -17.2791   27.7632 C   0  0  0  0  0  0  0  0  0  0  0  0
   10.5861  -18.4340   28.5209 O   0  0  0  0  0  0  0  0  0  0  0  0
   10.3065  -16.2129   28.4060 O   0  0  0  0  0  0  0  0  0  0  0  0
  1  2  1  0
  2  3  2  0
  4  5  1  0
  4  2  1  0
  6  7  1  6
  6  5  1  0
  8  6  1  0
  9  8  2  0
 11 10  1  0
 12 13  1  0
 12 11  1  0
 14 13  1  1
 14 16  1  0
 14 15  1  0
 15  8  1  0
 16 17  2  0
 18 19  1  0
 19 21  1  0
 20 19  2  0
 22 21  1  6
 23 22  1  0
 23 16  1  0
 24 25  1  0
 24 22  1  0
 26 24  2  0
M  END
$$$$
