QMN.pdb
     RDKit          3D

 26 25  0  0  1  0  0  0  0  0999 V2000
    8.4863  -18.5317   16.8083 N   0  0  0  0  0  0  0  0  0  0  0  0
    9.3527  -17.8288   17.6606 C   0  0  0  0  0  0  0  0  0  0  0  0
   10.3180  -18.4415   18.1895 O   0  0  0  0  0  0  0  0  0  0  0  0
    9.1097  -16.4093   17.9095 C   0  0  0  0  0  0  0  0  0  0  0  0
    9.7065  -15.8784   19.1797 C   0  0  0  0  0  0  0  0  0  0  0  0
    8.9113  -16.5227   20.3236 C   0  0  2  0  0  0  0  0  0  0  0  0
    7.4798  -16.3826   20.0607 N   0  0  0  0  0  0  0  0  0  0  0  0
    9.2267  -15.8727   21.6154 C   0  0  0  0  0  0  0  0  0  0  0  0
   10.4347  -15.6753   21.9338 O   0  0  0  0  0  0  0  0  0  0  0  0
    6.7041  -11.4093   27.5769 C   0  0  0  0  0  0  0  0  0  0  0  0
    6.3303  -12.2804   26.0418 S   0  0  0  0  0  0  0  0  0  0  0  0
    7.7297  -13.3878   25.6419 C   0  0  0  0  0  0  0  0  0  0  0  0
    7.4662  -14.0112   24.3143 C   0  0  0  0  0  0  0  0  0  0  0  0
    8.5943  -14.8963   23.8777 C   0  0  2  0  0  0  0  0  0  0  0  0
    8.2560  -15.4454   22.5418 N   0  0  0  0  0  0  0  0  0  0  0  0
    8.7659  -15.9998   24.8403 C   0  0  0  0  0  0  0  0  0  0  0  0
    8.2557  -17.1274   24.4581 O   0  0  0  0  0  0  0  0  0  0  0  0
   11.9279  -18.3795   23.2335 N   0  0  0  0  0  0  0  0  0  0  0  0
   11.4177  -18.3593   24.5505 C   0  0  0  0  0  0  0  0  0  0  0  0
   10.9800  -19.4283   25.0279 O   0  0  0  0  0  0  0  0  0  0  0  0
   11.3979  -17.1302   25.3424 C   0  0  0  0  0  0  0  0  0  0  0  0
   10.3255  -17.0787   26.4130 C   0  0  2  0  0  0  0  0  0  0  0  0
    9.4046  -15.9733   26.0829 N   0  0  0  0  0  0  0  0  0  0  0  0
   10.8465  -16.8384   27.7660 C   0  0  0  0  0  0  0  0  0  0  0  0
   11.6865  -15.7679   28.0991 O   0  0  0  0  0  0  0  0  0  0  0  0
   10.5521  -17.6043   28.7034 O   0  0  0  0  0  0  0  0  0  0  0  0
  1  2  1  0
  2  3  2  0
  4  5  1  0
  4  2  1  0
  6  7  1  6
  6  5  1  0
  8  6  1  0
  9  8  2  0
 11 10  1  0
 12 13  1  0
 12 11  1  0
 14 13  1  1
 14 16  1  0
 14 15  1  0
 15  8  1  0
 16 17  2  0
 18 19  1  0
 19 21  1  0
 20 19  2  0
 22 21  1  6
 23 22  1  0
 23 16  1  0
 24 25  1  0
 24 22  1  0
 26 24  2  0
M  END
$$$$
