EPA.pdb
     RDKit          3D

 22 22  0  0  1  0  0  0  0  0999 V2000
   25.9476  -20.5754  -18.8621 N   0  0  0  0  0  0  0  0  0  0  0  0
   26.4404  -19.7276  -17.8031 C   0  0  1  0  0  0  0  0  0  0  0  0
   25.6051  -18.4820  -17.7600 C   0  0  0  0  0  0  0  0  0  0  0  0
   24.1299  -18.7154  -17.6758 C   0  0  0  0  0  0  0  0  0  0  0  0
   23.5822  -18.6078  -16.3267 C   0  0  0  0  0  0  0  0  0  0  0  0
   23.2570  -19.5998  -15.6641 O   0  0  0  0  0  0  0  0  0  0  0  0
   26.3023  -20.3911  -16.4570 C   0  0  0  0  0  0  0  0  0  0  0  0
   25.5181  -21.3665  -16.4094 O   0  0  0  0  0  0  0  0  0  0  0  0
   23.4164  -17.3551  -15.7591 O   0  0  0  0  0  0  0  0  0  0  0  0
   26.9824  -19.9850  -15.3004 N   0  0  0  0  0  0  0  0  0  0  0  0
   27.8637  -18.8524  -15.1808 C   0  0  0  0  0  0  0  0  0  0  0  0
   28.5533  -18.9898  -13.8233 C   0  0  0  0  0  0  0  0  0  0  0  0
   28.3031  -20.4533  -13.4570 C   0  0  0  0  0  0  0  0  0  0  0  0
   26.9171  -20.6345  -14.0322 C   0  0  1  0  0  0  0  0  0  0  0  0
   25.9660  -19.9966  -13.0854 C   0  0  0  0  0  0  0  0  0  0  0  0
   25.3646  -18.9229  -13.3388 O   0  0  0  0  0  0  0  0  0  0  0  0
   23.2345  -20.6225  -11.7839 C   0  0  0  0  0  0  0  0  0  0  0  0
   24.5064  -20.3530  -11.0547 C   0  0  2  0  0  0  0  0  0  0  0  0
   25.6971  -20.5966  -11.8266 N   0  0  0  0  0  0  0  0  0  0  0  0
   24.4929  -21.0846   -9.7710 C   0  0  0  0  0  0  0  0  0  0  0  0
   23.6059  -20.7361   -8.9348 O   0  0  0  0  0  0  0  0  0  0  0  0
   25.3512  -22.0928   -9.4223 O   0  0  0  0  0  0  0  0  0  0  0  0
  2  1  1  6
  3  4  1  0
  3  2  1  0
  4  5  1  0
  5  9  1  0
  5  6  2  0
  7 10  1  0
  7  2  1  0
  8  7  2  0
 10 14  1  0
 11 12  1  0
 11 10  1  0
 12 13  1  0
 13 14  1  0
 14 15  1  1
 15 19  1  0
 15 16  2  0
 18 17  1  6
 18 20  1  0
 19 18  1  0
 20 22  1  0
 21 20  2  0
M  END
$$$$
