EPA.pdb
     RDKit          3D

 22 22  0  0  1  0  0  0  0  0999 V2000
   17.3631  -11.7594  -14.7677 N   0  0  0  0  0  0  0  0  0  0  0  0
   17.7651  -10.4217  -15.1312 C   0  0  1  0  0  0  0  0  0  0  0  0
   16.5345   -9.6175  -15.4309 C   0  0  0  0  0  0  0  0  0  0  0  0
   15.8188  -10.0051  -16.6860 C   0  0  0  0  0  0  0  0  0  0  0  0
   14.6962   -9.1367  -17.0284 C   0  0  0  0  0  0  0  0  0  0  0  0
   14.8169   -8.1689  -17.7885 O   0  0  0  0  0  0  0  0  0  0  0  0
   18.4705   -9.7303  -13.9930 C   0  0  0  0  0  0  0  0  0  0  0  0
   18.0793  -10.0377  -12.8437 O   0  0  0  0  0  0  0  0  0  0  0  0
   13.4473   -9.3966  -16.4885 O   0  0  0  0  0  0  0  0  0  0  0  0
   19.5031   -8.7957  -14.1522 N   0  0  0  0  0  0  0  0  0  0  0  0
   20.0236   -8.3019  -15.4009 C   0  0  0  0  0  0  0  0  0  0  0  0
   21.2948   -7.5257  -15.0564 C   0  0  0  0  0  0  0  0  0  0  0  0
   21.6209   -8.0099  -13.6429 C   0  0  0  0  0  0  0  0  0  0  0  0
   20.2228   -8.1703  -13.0913 C   0  0  1  0  0  0  0  0  0  0  0  0
   19.7276   -6.8096  -12.7577 C   0  0  0  0  0  0  0  0  0  0  0  0
   19.2937   -6.0080  -13.6225 O   0  0  0  0  0  0  0  0  0  0  0  0
   18.8926   -5.0979   -9.4665 C   0  0  0  0  0  0  0  0  0  0  0  0
   19.0069   -5.1998  -10.9493 C   0  0  2  0  0  0  0  0  0  0  0  0
   19.7281   -6.3570  -11.4116 N   0  0  0  0  0  0  0  0  0  0  0  0
   19.5497   -3.9327  -11.4813 C   0  0  0  0  0  0  0  0  0  0  0  0
   20.7022   -3.9915  -12.0063 O   0  0  0  0  0  0  0  0  0  0  0  0
   18.9131   -2.7209  -11.4504 O   0  0  0  0  0  0  0  0  0  0  0  0
  2  1  1  1
  3  4  1  0
  3  2  1  0
  4  5  1  0
  5  9  1  0
  5  6  2  0
  7 10  1  0
  7  2  1  0
  8  7  2  0
 10 14  1  0
 11 12  1  0
 11 10  1  0
 12 13  1  0
 13 14  1  0
 14 15  1  6
 15 19  1  0
 15 16  2  0
 18 17  1  1
 18 20  1  0
 19 18  1  0
 20 22  1  0
 21 20  2  0
M  END
$$$$
