EPA.pdb
     RDKit          3D

 22 22  0  0  1  0  0  0  0  0999 V2000
   22.9769  -19.9732  -14.8537 N   0  0  0  0  0  0  0  0  0  0  0  0
   23.9178  -19.1364  -15.5593 C   0  0  1  0  0  0  0  0  0  0  0  0
   23.6471  -19.2483  -17.0308 C   0  0  0  0  0  0  0  0  0  0  0  0
   23.7641  -20.6310  -17.5894 C   0  0  0  0  0  0  0  0  0  0  0  0
   22.7771  -20.9475  -18.6178 C   0  0  0  0  0  0  0  0  0  0  0  0
   21.8396  -20.1887  -18.8900 O   0  0  0  0  0  0  0  0  0  0  0  0
   23.7452  -17.6845  -15.1940 C   0  0  0  0  0  0  0  0  0  0  0  0
   22.6709  -17.3920  -14.6206 O   0  0  0  0  0  0  0  0  0  0  0  0
   22.8849  -22.1370  -19.3192 O   0  0  0  0  0  0  0  0  0  0  0  0
   24.6920  -16.6843  -15.4552 N   0  0  0  0  0  0  0  0  0  0  0  0
   25.9693  -16.8632  -16.0960 C   0  0  0  0  0  0  0  0  0  0  0  0
   26.7295  -15.5506  -15.9062 C   0  0  0  0  0  0  0  0  0  0  0  0
   25.9537  -14.8633  -14.7817 C   0  0  0  0  0  0  0  0  0  0  0  0
   24.5492  -15.3042  -15.1243 C   0  0  1  0  0  0  0  0  0  0  0  0
   24.0943  -14.4636  -16.2621 C   0  0  0  0  0  0  0  0  0  0  0  0
   24.4574  -14.6628  -17.4483 O   0  0  0  0  0  0  0  0  0  0  0  0
   21.2766  -11.9648  -16.6261 C   0  0  0  0  0  0  0  0  0  0  0  0
   22.4947  -12.6907  -17.0860 C   0  0  2  0  0  0  0  0  0  0  0  0
   23.2083  -13.3762  -16.0402 N   0  0  0  0  0  0  0  0  0  0  0  0
   23.3502  -11.7626  -17.8541 C   0  0  0  0  0  0  0  0  0  0  0  0
   24.4925  -11.5145  -17.3631 O   0  0  0  0  0  0  0  0  0  0  0  0
   23.0084  -11.1606  -19.0354 O   0  0  0  0  0  0  0  0  0  0  0  0
  2  1  1  1
  3  4  1  0
  3  2  1  0
  4  5  1  0
  5  9  1  0
  5  6  2  0
  7 10  1  0
  7  2  1  0
  8  7  2  0
 10 14  1  0
 11 12  1  0
 11 10  1  0
 12 13  1  0
 13 14  1  0
 14 15  1  6
 15 19  1  0
 15 16  2  0
 18 17  1  1
 18 20  1  0
 19 18  1  0
 20 22  1  0
 21 20  2  0
M  END
$$$$
