EPA.pdb
     RDKit          3D

 22 22  0  0  1  0  0  0  0  0999 V2000
   18.9671  -12.4762  -17.4304 N   0  0  0  0  0  0  0  0  0  0  0  0
   20.2682  -11.8543  -17.3688 C   0  0  1  0  0  0  0  0  0  0  0  0
   20.4860  -11.0754  -18.6325 C   0  0  0  0  0  0  0  0  0  0  0  0
   20.7112  -11.9080  -19.8547 C   0  0  0  0  0  0  0  0  0  0  0  0
   19.4931  -12.4741  -20.4270 C   0  0  0  0  0  0  0  0  0  0  0  0
   18.8324  -11.8849  -21.2902 O   0  0  0  0  0  0  0  0  0  0  0  0
   20.3549  -10.8704  -16.2305 C   0  0  0  0  0  0  0  0  0  0  0  0
   19.2605  -10.4440  -15.7958 O   0  0  0  0  0  0  0  0  0  0  0  0
   19.0526  -13.7143  -19.9950 O   0  0  0  0  0  0  0  0  0  0  0  0
   21.5546  -10.4264  -15.6573 N   0  0  0  0  0  0  0  0  0  0  0  0
   22.8855  -10.7574  -16.0968 C   0  0  0  0  0  0  0  0  0  0  0  0
   23.8320  -10.2578  -15.0052 C   0  0  0  0  0  0  0  0  0  0  0  0
   22.9000  -10.0492  -13.8108 C   0  0  0  0  0  0  0  0  0  0  0  0
   21.6607   -9.5632  -14.5267 C   0  0  1  0  0  0  0  0  0  0  0  0
   21.8946   -8.1401  -14.8847 C   0  0  0  0  0  0  0  0  0  0  0  0
   22.6726   -7.7848  -15.8053 O   0  0  0  0  0  0  0  0  0  0  0  0
   19.9547   -4.9976  -14.2681 C   0  0  0  0  0  0  0  0  0  0  0  0
   21.2154   -5.7249  -14.5902 C   0  0  2  0  0  0  0  0  0  0  0  0
   21.2274   -7.1045  -14.1783 N   0  0  0  0  0  0  0  0  0  0  0  0
   22.3643   -4.9577  -14.0664 C   0  0  0  0  0  0  0  0  0  0  0  0
   22.8562   -5.3607  -12.9695 O   0  0  0  0  0  0  0  0  0  0  0  0
   22.9281   -3.8632  -14.6657 O   0  0  0  0  0  0  0  0  0  0  0  0
  2  1  1  6
  3  4  1  0
  3  2  1  0
  4  5  1  0
  5  9  1  0
  5  6  2  0
  7 10  1  0
  7  2  1  0
  8  7  2  0
 10 14  1  0
 11 12  1  0
 11 10  1  0
 12 13  1  0
 13 14  1  0
 14 15  1  6
 15 19  1  0
 15 16  2  0
 18 17  1  1
 18 20  1  0
 19 18  1  0
 20 22  1  0
 21 20  2  0
M  END
$$$$
