EPA.pdb
     RDKit          3D

 22 22  0  0  1  0  0  0  0  0999 V2000
   21.6840  -20.7800  -13.9082 N   0  0  0  0  0  0  0  0  0  0  0  0
   21.3007  -20.3069  -12.5996 C   0  0  1  0  0  0  0  0  0  0  0  0
   19.9231  -19.7191  -12.6882 C   0  0  0  0  0  0  0  0  0  0  0  0
   19.2664  -19.8523  -14.0256 C   0  0  0  0  0  0  0  0  0  0  0  0
   19.0443  -18.5836  -14.7132 C   0  0  0  0  0  0  0  0  0  0  0  0
   18.1174  -17.8223  -14.4129 O   0  0  0  0  0  0  0  0  0  0  0  0
   21.2287  -21.4368  -11.6049 C   0  0  0  0  0  0  0  0  0  0  0  0
   21.0438  -22.5769  -12.0893 O   0  0  0  0  0  0  0  0  0  0  0  0
   19.8956  -18.2095  -15.7398 O   0  0  0  0  0  0  0  0  0  0  0  0
   21.3534  -21.2797  -10.2175 N   0  0  0  0  0  0  0  0  0  0  0  0
   21.5117  -20.0357   -9.5094 C   0  0  0  0  0  0  0  0  0  0  0  0
   21.8696  -20.4065   -8.0701 C   0  0  0  0  0  0  0  0  0  0  0  0
   22.3022  -21.8685   -8.1890 C   0  0  0  0  0  0  0  0  0  0  0  0
   21.3468  -22.3385   -9.2618 C   0  0  1  0  0  0  0  0  0  0  0  0
   20.0272  -22.5434   -8.6101 C   0  0  0  0  0  0  0  0  0  0  0  0
   19.1868  -21.6213   -8.4611 O   0  0  0  0  0  0  0  0  0  0  0  0
   17.9216  -25.5681   -8.1734 C   0  0  0  0  0  0  0  0  0  0  0  0
   18.3196  -24.1950   -7.7512 C   0  0  2  0  0  0  0  0  0  0  0  0
   19.6613  -23.8252   -8.1204 N   0  0  0  0  0  0  0  0  0  0  0  0
   18.0561  -24.0374   -6.3059 C   0  0  0  0  0  0  0  0  0  0  0  0
   19.0716  -24.0300   -5.5469 O   0  0  0  0  0  0  0  0  0  0  0  0
   16.8194  -23.9013   -5.7343 O   0  0  0  0  0  0  0  0  0  0  0  0
  2  1  1  6
  3  4  1  0
  3  2  1  0
  4  5  1  0
  5  9  1  0
  5  6  2  0
  7 10  1  0
  7  2  1  0
  8  7  2  0
 10 14  1  0
 11 12  1  0
 11 10  1  0
 12 13  1  0
 13 14  1  0
 14 15  1  1
 15 19  1  0
 15 16  2  0
 18 17  1  1
 18 20  1  0
 19 18  1  0
 20 22  1  0
 21 20  2  0
M  END
$$$$
