EPA.pdb
     RDKit          3D

 22 22  0  0  1  0  0  0  0  0999 V2000
   23.8448  -14.7080  -18.7026 N   0  0  0  0  0  0  0  0  0  0  0  0
   24.6955  -13.5436  -18.6416 C   0  0  1  0  0  0  0  0  0  0  0  0
   24.7870  -12.9460  -20.0147 C   0  0  0  0  0  0  0  0  0  0  0  0
   25.5870  -13.7423  -20.9964 C   0  0  0  0  0  0  0  0  0  0  0  0
   25.7823  -13.0837  -22.2847 C   0  0  0  0  0  0  0  0  0  0  0  0
   25.8615  -11.8546  -22.3936 O   0  0  0  0  0  0  0  0  0  0  0  0
   24.1136  -12.4829  -17.7430 C   0  0  0  0  0  0  0  0  0  0  0  0
   22.8812  -12.5625  -17.5351 O   0  0  0  0  0  0  0  0  0  0  0  0
   25.8836  -13.8531  -23.4321 O   0  0  0  0  0  0  0  0  0  0  0  0
   24.8562  -11.4514  -17.1517 N   0  0  0  0  0  0  0  0  0  0  0  0
   26.2313  -11.1231  -17.4259 C   0  0  0  0  0  0  0  0  0  0  0  0
   26.6521  -10.1182  -16.3534 C   0  0  0  0  0  0  0  0  0  0  0  0
   25.5704  -10.2823  -15.2849 C   0  0  0  0  0  0  0  0  0  0  0  0
   24.3697  -10.5434  -16.1651 C   0  0  1  0  0  0  0  0  0  0  0  0
   23.9441   -9.2328  -16.7211 C   0  0  0  0  0  0  0  0  0  0  0  0
   24.6536   -8.5618  -17.5118 O   0  0  0  0  0  0  0  0  0  0  0  0
   20.5903   -7.7429  -17.2631 C   0  0  0  0  0  0  0  0  0  0  0  0
   22.0595   -7.5863  -17.0655 C   0  0  2  0  0  0  0  0  0  0  0  0
   22.6851   -8.6792  -16.3674 N   0  0  0  0  0  0  0  0  0  0  0  0
   22.3268   -6.2749  -16.4394 C   0  0  0  0  0  0  0  0  0  0  0  0
   22.7382   -6.2979  -15.2404 O   0  0  0  0  0  0  0  0  0  0  0  0
   22.1662   -5.0579  -17.0458 O   0  0  0  0  0  0  0  0  0  0  0  0
  2  1  1  6
  3  4  1  0
  3  2  1  0
  4  5  1  0
  5  9  1  0
  5  6  2  0
  7 10  1  0
  7  2  1  0
  8  7  2  0
 10 14  1  0
 11 12  1  0
 11 10  1  0
 12 13  1  0
 13 14  1  0
 14 15  1  6
 15 19  1  0
 15 16  2  0
 18 17  1  1
 18 20  1  0
 19 18  1  0
 20 22  1  0
 21 20  2  0
M  END
$$$$
