EPA.pdb
     RDKit          3D

 22 22  0  0  1  0  0  0  0  0999 V2000
   18.4928  -12.6376  -16.1246 N   0  0  0  0  0  0  0  0  0  0  0  0
   18.2592  -11.2684  -16.5170 C   0  0  1  0  0  0  0  0  0  0  0  0
   17.0988  -10.7365  -15.7287 C   0  0  0  0  0  0  0  0  0  0  0  0
   15.7982  -11.4339  -15.9738 C   0  0  0  0  0  0  0  0  0  0  0  0
   15.4807  -12.4710  -14.9963 C   0  0  0  0  0  0  0  0  0  0  0  0
   15.9891  -12.4951  -13.8695 O   0  0  0  0  0  0  0  0  0  0  0  0
   19.4428  -10.3934  -16.1936 C   0  0  0  0  0  0  0  0  0  0  0  0
   20.1449  -10.7643  -15.2251 O   0  0  0  0  0  0  0  0  0  0  0  0
   14.5797  -13.4679  -15.3324 O   0  0  0  0  0  0  0  0  0  0  0  0
   19.7827   -9.2293  -16.8969 N   0  0  0  0  0  0  0  0  0  0  0  0
   19.1198   -8.7137  -18.0668 C   0  0  0  0  0  0  0  0  0  0  0  0
   20.0134   -7.5967  -18.6061 C   0  0  0  0  0  0  0  0  0  0  0  0
   21.3503   -7.8602  -17.9117 C   0  0  0  0  0  0  0  0  0  0  0  0
   20.8568   -8.3498  -16.5696 C   0  0  1  0  0  0  0  0  0  0  0  0
   20.4316   -7.1525  -15.7989 C   0  0  0  0  0  0  0  0  0  0  0  0
   19.3187   -6.5928  -15.9628 O   0  0  0  0  0  0  0  0  0  0  0  0
   21.6080   -5.6223  -12.5781 C   0  0  0  0  0  0  0  0  0  0  0  0
   20.8918   -5.5701  -13.8844 C   0  0  2  0  0  0  0  0  0  0  0  0
   21.2935   -6.5850  -14.8234 N   0  0  0  0  0  0  0  0  0  0  0  0
   20.9911   -4.2032  -14.4367 C   0  0  0  0  0  0  0  0  0  0  0  0
   21.6486   -4.0785  -15.5135 O   0  0  0  0  0  0  0  0  0  0  0  0
   20.4364   -3.0806  -13.8828 O   0  0  0  0  0  0  0  0  0  0  0  0
  2  1  1  1
  3  4  1  0
  3  2  1  0
  4  5  1  0
  5  9  1  0
  5  6  2  0
  7 10  1  0
  7  2  1  0
  8  7  2  0
 10 14  1  0
 11 12  1  0
 11 10  1  0
 12 13  1  0
 13 14  1  0
 14 15  1  1
 15 19  1  0
 15 16  2  0
 18 17  1  1
 18 20  1  0
 19 18  1  0
 20 22  1  0
 21 20  2  0
M  END
$$$$
