EPA.pdb
     RDKit          3D

 22 22  0  0  1  0  0  0  0  0999 V2000
   28.1999  -21.5604  -15.4891 N   0  0  0  0  0  0  0  0  0  0  0  0
   27.7142  -20.8217  -14.3482 C   0  0  1  0  0  0  0  0  0  0  0  0
   27.5351  -19.3869  -14.7486 C   0  0  0  0  0  0  0  0  0  0  0  0
   26.6123  -19.1661  -15.9051 C   0  0  0  0  0  0  0  0  0  0  0  0
   26.9777  -18.0376  -16.7564 C   0  0  0  0  0  0  0  0  0  0  0  0
   28.0268  -18.0154  -17.4104 O   0  0  0  0  0  0  0  0  0  0  0  0
   26.3638  -21.3213  -13.9031 C   0  0  0  0  0  0  0  0  0  0  0  0
   25.7987  -22.1257  -14.6790 O   0  0  0  0  0  0  0  0  0  0  0  0
   26.1267  -16.9480  -16.8418 O   0  0  0  0  0  0  0  0  0  0  0  0
   25.7338  -20.9435  -12.7092 N   0  0  0  0  0  0  0  0  0  0  0  0
   26.1004  -19.8377  -11.8625 C   0  0  0  0  0  0  0  0  0  0  0  0
   25.2990  -20.0049  -10.5714 C   0  0  0  0  0  0  0  0  0  0  0  0
   24.8430  -21.4632  -10.6360 C   0  0  0  0  0  0  0  0  0  0  0  0
   24.6111  -21.6000  -12.1233 C   0  0  1  0  0  0  0  0  0  0  0  0
   23.3134  -20.9417  -12.4240 C   0  0  0  0  0  0  0  0  0  0  0  0
   23.1652  -19.6940  -12.4354 O   0  0  0  0  0  0  0  0  0  0  0  0
   20.2082  -22.2587  -14.1149 C   0  0  0  0  0  0  0  0  0  0  0  0
   20.9975  -21.2197  -13.3939 C   0  0  2  0  0  0  0  0  0  0  0  0
   22.1645  -21.7232  -12.7173 N   0  0  0  0  0  0  0  0  0  0  0  0
   20.0973  -20.4605  -12.5016 C   0  0  0  0  0  0  0  0  0  0  0  0
   19.1651  -19.8109  -13.0641 O   0  0  0  0  0  0  0  0  0  0  0  0
   20.1924  -20.4063  -11.1367 O   0  0  0  0  0  0  0  0  0  0  0  0
  2  1  1  6
  3  4  1  0
  3  2  1  0
  4  5  1  0
  5  9  1  0
  5  6  2  0
  7 10  1  0
  7  2  1  0
  8  7  2  0
 10 14  1  0
 11 12  1  0
 11 10  1  0
 12 13  1  0
 13 14  1  0
 14 15  1  6
 15 19  1  0
 15 16  2  0
 18 17  1  1
 18 20  1  0
 19 18  1  0
 20 22  1  0
 21 20  2  0
M  END
$$$$
