FCD.pdb
     RDKit          3D

 26 26  0  0  1  0  0  0  0  0999 V2000
    6.0710  -17.1955   25.7645 N   0  0  0  0  0  0  0  0  0  0  0  0
    6.8402  -16.0938   25.2227 C   0  0  1  0  0  0  0  0  0  0  0  0
    7.4709  -15.3791   26.3977 C   0  0  0  0  0  0  0  0  0  0  0  0
    7.0023  -13.9743   26.4709 C   0  0  0  0  0  0  0  0  0  0  0  0
    5.8517  -13.6495   27.1907 C   0  0  0  0  0  0  0  0  0  0  0  0
    5.4045  -12.3414   27.2663 C   0  0  0  0  0  0  0  0  0  0  0  0
    6.0696  -11.3215   26.6415 C   0  0  0  0  0  0  0  0  0  0  0  0
    7.2056  -11.6172   25.9265 C   0  0  0  0  0  0  0  0  0  0  0  0
    7.6550  -12.9295   25.8501 C   0  0  0  0  0  0  0  0  0  0  0  0
    7.8743  -16.5344   24.2808 C   0  0  0  0  0  0  0  0  0  0  0  0
    8.1511  -17.7623   24.2359 O   0  0  0  0  0  0  0  0  0  0  0  0
    8.5798  -15.6750   23.4215 N   0  0  0  0  0  0  0  0  0  0  0  0
    9.3989  -16.1469   22.3292 C   0  0  1  0  0  0  0  0  0  0  0  0
    9.0621  -15.4442   21.0275 C   0  0  0  0  0  0  0  0  0  0  0  0
    7.3859  -15.8239   20.5190 S   0  0  0  0  0  0  0  0  0  0  0  0
   10.8365  -15.9055   22.6052 C   0  0  0  0  0  0  0  0  0  0  0  0
   11.2892  -14.7143   22.7180 O   0  0  0  0  0  0  0  0  0  0  0  0
   11.7189  -16.9940   22.7454 N   0  0  0  0  0  0  0  0  0  0  0  0
   13.1839  -16.8007   22.9150 C   0  0  1  0  0  0  0  0  0  0  0  0
   13.7829  -18.0885   23.4052 C   0  0  0  0  0  0  0  0  0  0  0  0
   13.5324  -18.2861   24.8349 C   0  0  0  0  0  0  0  0  0  0  0  0
   13.7816  -19.3316   25.4645 O   0  0  0  0  0  0  0  0  0  0  0  0
   13.6636  -16.3960   21.5646 C   0  0  0  0  0  0  0  0  0  0  0  0
   14.8423  -15.7106   21.3703 O   0  0  0  0  0  0  0  0  0  0  0  0
   12.9654  -17.2411   25.6077 O   0  0  0  0  0  0  0  0  0  0  0  0
   13.0001  -16.6665   20.5163 O   0  0  0  0  0  0  0  0  0  0  0  0
  2 10  1  0
  2  1  1  1
  3  2  1  0
  4  3  1  0
  5  4  2  0
  6  5  1  0
  7  8  1  0
  7  6  2  0
  8  9  2  0
  9  4  1  0
 10 11  2  0
 12 13  1  0
 12 10  1  0
 13 14  1  6
 14 15  1  0
 16 17  2  0
 16 13  1  0
 18 16  1  0
 19 18  1  0
 19 20  1  6
 20 21  1  0
 21 25  1  0
 21 22  2  0
 23 24  1  0
 23 19  1  0
 26 23  2  0
M  END
$$$$
