FCD.pdb
     RDKit          3D

 26 26  0  0  1  0  0  0  0  0999 V2000
    5.7677  -18.0244   25.7428 N   0  0  0  0  0  0  0  0  0  0  0  0
    6.1840  -16.6606   25.4865 C   0  0  1  0  0  0  0  0  0  0  0  0
    6.9031  -16.1804   26.7281 C   0  0  0  0  0  0  0  0  0  0  0  0
    7.1322  -14.7168   26.6692 C   0  0  0  0  0  0  0  0  0  0  0  0
    8.4287  -14.2069   26.5875 C   0  0  0  0  0  0  0  0  0  0  0  0
    8.6551  -12.8421   26.5320 C   0  0  0  0  0  0  0  0  0  0  0  0
    7.6220  -11.9448   26.5548 C   0  0  0  0  0  0  0  0  0  0  0  0
    6.3361  -12.4235   26.6350 C   0  0  0  0  0  0  0  0  0  0  0  0
    6.1080  -13.7928   26.6909 C   0  0  0  0  0  0  0  0  0  0  0  0
    7.0595  -16.5464   24.3155 C   0  0  0  0  0  0  0  0  0  0  0  0
    7.9650  -17.4090   24.1659 O   0  0  0  0  0  0  0  0  0  0  0  0
    6.9555  -15.5351   23.3454 N   0  0  0  0  0  0  0  0  0  0  0  0
    7.8375  -15.4393   22.2055 C   0  0  1  0  0  0  0  0  0  0  0  0
    7.5301  -14.2208   21.3556 C   0  0  0  0  0  0  0  0  0  0  0  0
    8.5722  -14.1870   19.8978 S   0  0  0  0  0  0  0  0  0  0  0  0
    9.2520  -15.3321   22.6404 C   0  0  0  0  0  0  0  0  0  0  0  0
    9.6169  -14.4178   23.4573 O   0  0  0  0  0  0  0  0  0  0  0  0
   10.2093  -16.2425   22.1528 N   0  0  0  0  0  0  0  0  0  0  0  0
   11.6442  -16.1528   22.5342 C   0  0  1  0  0  0  0  0  0  0  0  0
   12.1131  -17.5162   22.9571 C   0  0  0  0  0  0  0  0  0  0  0  0
   12.8153  -17.4669   24.2418 C   0  0  0  0  0  0  0  0  0  0  0  0
   13.0843  -16.4239   24.8676 O   0  0  0  0  0  0  0  0  0  0  0  0
   12.3222  -15.6421   21.3107 C   0  0  0  0  0  0  0  0  0  0  0  0
   11.6866  -15.5532   20.0922 O   0  0  0  0  0  0  0  0  0  0  0  0
   13.2427  -18.6672   24.8640 O   0  0  0  0  0  0  0  0  0  0  0  0
   13.5332  -15.2607   21.3336 O   0  0  0  0  0  0  0  0  0  0  0  0
  2 10  1  0
  2  1  1  1
  3  2  1  0
  4  3  1  0
  5  4  2  0
  6  5  1  0
  7  8  1  0
  7  6  2  0
  8  9  2  0
  9  4  1  0
 10 11  2  0
 12 13  1  0
 12 10  1  0
 13 14  1  1
 14 15  1  0
 16 17  2  0
 16 13  1  0
 18 16  1  0
 19 18  1  0
 19 20  1  6
 20 21  1  0
 21 25  1  0
 21 22  2  0
 23 24  1  0
 23 19  1  0
 26 23  2  0
M  END
$$$$
