FCD.pdb
     RDKit          3D

 26 26  0  0  1  0  0  0  0  0999 V2000
    6.0510  -17.6889   25.9168 N   0  0  0  0  0  0  0  0  0  0  0  0
    6.5966  -16.4528   25.3940 C   0  0  1  0  0  0  0  0  0  0  0  0
    7.3351  -15.7831   26.5321 C   0  0  0  0  0  0  0  0  0  0  0  0
    7.0795  -14.3226   26.5366 C   0  0  0  0  0  0  0  0  0  0  0  0
    7.8856  -13.4615   25.7909 C   0  0  0  0  0  0  0  0  0  0  0  0
    7.6567  -12.0961   25.7873 C   0  0  0  0  0  0  0  0  0  0  0  0
    6.6364  -11.5406   26.5108 C   0  0  0  0  0  0  0  0  0  0  0  0
    5.8290  -12.3690   27.2531 C   0  0  0  0  0  0  0  0  0  0  0  0
    6.0581  -13.7392   27.2575 C   0  0  0  0  0  0  0  0  0  0  0  0
    7.4996  -16.6680   24.2586 C   0  0  0  0  0  0  0  0  0  0  0  0
    8.1995  -17.7151   24.2479 O   0  0  0  0  0  0  0  0  0  0  0  0
    7.6367  -15.7808   23.1776 N   0  0  0  0  0  0  0  0  0  0  0  0
    8.4243  -16.0801   22.0042 C   0  0  1  0  0  0  0  0  0  0  0  0
    8.1099  -15.1365   20.8585 C   0  0  0  0  0  0  0  0  0  0  0  0
    6.3814  -15.2531   20.3991 S   0  0  0  0  0  0  0  0  0  0  0  0
    9.8737  -15.9569   22.2961 C   0  0  0  0  0  0  0  0  0  0  0  0
   10.3307  -14.9365   22.9178 O   0  0  0  0  0  0  0  0  0  0  0  0
   10.7627  -16.9696   21.8872 N   0  0  0  0  0  0  0  0  0  0  0  0
   12.2236  -16.8872   22.1542 C   0  0  1  0  0  0  0  0  0  0  0  0
   12.6853  -18.2080   22.7017 C   0  0  0  0  0  0  0  0  0  0  0  0
   12.4845  -18.2873   24.1506 C   0  0  0  0  0  0  0  0  0  0  0  0
   12.4692  -17.3099   24.9228 O   0  0  0  0  0  0  0  0  0  0  0  0
   12.8235  -16.5464   20.8346 C   0  0  0  0  0  0  0  0  0  0  0  0
   14.0824  -16.0021   20.7099 O   0  0  0  0  0  0  0  0  0  0  0  0
   12.2878  -19.5464   24.7725 O   0  0  0  0  0  0  0  0  0  0  0  0
   12.1945  -16.7433   19.7492 O   0  0  0  0  0  0  0  0  0  0  0  0
  2 10  1  0
  2  1  1  1
  3  2  1  0
  4  3  1  0
  5  4  2  0
  6  5  1  0
  7  8  1  0
  7  6  2  0
  8  9  2  0
  9  4  1  0
 10 11  2  0
 12 13  1  0
 12 10  1  0
 13 14  1  6
 14 15  1  0
 16 17  2  0
 16 13  1  0
 18 16  1  0
 19 18  1  0
 19 20  1  6
 20 21  1  0
 21 25  1  0
 21 22  2  0
 23 24  1  0
 23 19  1  0
 26 23  2  0
M  END
$$$$
