FCD.pdb
     RDKit          3D

 26 26  0  0  1  0  0  0  0  0999 V2000
    6.0003  -15.7136   22.2559 N   0  0  0  0  0  0  0  0  0  0  0  0
    7.0799  -16.6609   22.0666 C   0  0  1  0  0  0  0  0  0  0  0  0
    7.6744  -16.3823   20.7035 C   0  0  0  0  0  0  0  0  0  0  0  0
    7.7391  -14.9234   20.4471 C   0  0  0  0  0  0  0  0  0  0  0  0
    8.8632  -14.1882   20.8255 C   0  0  0  0  0  0  0  0  0  0  0  0
    8.9350  -12.8256   20.5913 C   0  0  0  0  0  0  0  0  0  0  0  0
    7.9121  -12.1501   19.9828 C   0  0  0  0  0  0  0  0  0  0  0  0
    6.7944  -12.8532   19.6011 C   0  0  0  0  0  0  0  0  0  0  0  0
    6.7214  -14.2205   19.8358 C   0  0  0  0  0  0  0  0  0  0  0  0
    8.1127  -16.5570   23.1027 C   0  0  0  0  0  0  0  0  0  0  0  0
    8.5611  -15.4132   23.3802 O   0  0  0  0  0  0  0  0  0  0  0  0
    8.6374  -17.6523   23.8095 N   0  0  0  0  0  0  0  0  0  0  0  0
    9.7186  -17.5351   24.7602 C   0  0  1  0  0  0  0  0  0  0  0  0
    9.2942  -17.9637   26.1523 C   0  0  0  0  0  0  0  0  0  0  0  0
   10.6092  -17.6679   27.3336 S   0  0  0  0  0  0  0  0  0  0  0  0
   10.8653  -18.3888   24.3630 C   0  0  0  0  0  0  0  0  0  0  0  0
   10.6777  -19.5866   23.9549 O   0  0  0  0  0  0  0  0  0  0  0  0
   12.1775  -17.8825   24.4336 N   0  0  0  0  0  0  0  0  0  0  0  0
   13.3596  -18.7122   24.0779 C   0  0  1  0  0  0  0  0  0  0  0  0
   14.4572  -17.8026   23.6031 C   0  0  0  0  0  0  0  0  0  0  0  0
   14.2979  -17.4645   22.1866 C   0  0  0  0  0  0  0  0  0  0  0  0
   14.0409  -16.3265   21.7499 O   0  0  0  0  0  0  0  0  0  0  0  0
   13.6915  -19.4425   25.3325 C   0  0  0  0  0  0  0  0  0  0  0  0
   13.2037  -19.0632   26.5633 O   0  0  0  0  0  0  0  0  0  0  0  0
   14.4366  -18.4700   21.1965 O   0  0  0  0  0  0  0  0  0  0  0  0
   14.4497  -20.4611   25.3264 O   0  0  0  0  0  0  0  0  0  0  0  0
  2 10  1  0
  2  1  1  1
  3  2  1  0
  4  3  1  0
  5  4  2  0
  6  5  1  0
  7  8  1  0
  7  6  2  0
  8  9  2  0
  9  4  1  0
 10 11  2  0
 12 13  1  0
 12 10  1  0
 13 14  1  1
 14 15  1  0
 16 17  2  0
 16 13  1  0
 18 16  1  0
 19 18  1  0
 19 20  1  1
 20 21  1  0
 21 25  1  0
 21 22  2  0
 23 24  1  0
 23 19  1  0
 26 23  2  0
M  END
$$$$
