FCD.pdb
     RDKit          3D

 26 26  0  0  1  0  0  0  0  0999 V2000
    5.8270  -17.8485   25.8409 N   0  0  0  0  0  0  0  0  0  0  0  0
    6.3066  -16.5291   25.4829 C   0  0  1  0  0  0  0  0  0  0  0  0
    7.0992  -16.0147   26.6645 C   0  0  0  0  0  0  0  0  0  0  0  0
    7.1651  -14.5336   26.6478 C   0  0  0  0  0  0  0  0  0  0  0  0
    5.9954  -13.7734   26.6853 C   0  0  0  0  0  0  0  0  0  0  0  0
    6.0444  -12.3898   26.6702 C   0  0  0  0  0  0  0  0  0  0  0  0
    7.2352  -11.7174   26.6184 C   0  0  0  0  0  0  0  0  0  0  0  0
    8.4008  -12.4449   26.5808 C   0  0  0  0  0  0  0  0  0  0  0  0
    8.3526  -13.8332   26.5958 C   0  0  0  0  0  0  0  0  0  0  0  0
    7.1401  -16.5378   24.2763 C   0  0  0  0  0  0  0  0  0  0  0  0
    7.9995  -17.4507   24.1559 O   0  0  0  0  0  0  0  0  0  0  0  0
    7.0438  -15.5921   23.2414 N   0  0  0  0  0  0  0  0  0  0  0  0
    7.9400  -15.5656   22.1087 C   0  0  1  0  0  0  0  0  0  0  0  0
    7.6383  -14.4061   21.1781 C   0  0  0  0  0  0  0  0  0  0  0  0
    8.7216  -14.4422   19.7507 S   0  0  0  0  0  0  0  0  0  0  0  0
    9.3483  -15.4234   22.5534 C   0  0  0  0  0  0  0  0  0  0  0  0
    9.6680  -14.5654   23.4466 O   0  0  0  0  0  0  0  0  0  0  0  0
   10.3498  -16.2378   21.9905 N   0  0  0  0  0  0  0  0  0  0  0  0
   11.7598  -16.1876   22.4616 C   0  0  1  0  0  0  0  0  0  0  0  0
   12.0702  -17.4702   23.1800 C   0  0  0  0  0  0  0  0  0  0  0  0
   13.4974  -17.5775   23.4926 C   0  0  0  0  0  0  0  0  0  0  0  0
   14.2318  -16.6221   23.8081 O   0  0  0  0  0  0  0  0  0  0  0  0
   12.5590  -15.9907   21.2207 C   0  0  0  0  0  0  0  0  0  0  0  0
   12.2926  -16.6674   20.0512 O   0  0  0  0  0  0  0  0  0  0  0  0
   14.1411  -18.8401   23.4484 O   0  0  0  0  0  0  0  0  0  0  0  0
   13.5359  -15.1805   21.1824 O   0  0  0  0  0  0  0  0  0  0  0  0
  2 10  1  0
  2  1  1  1
  3  2  1  0
  4  3  1  0
  5  4  2  0
  6  5  1  0
  7  8  1  0
  7  6  2  0
  8  9  2  0
  9  4  1  0
 10 11  2  0
 12 13  1  0
 12 10  1  0
 13 14  1  6
 14 15  1  0
 16 17  2  0
 16 13  1  0
 18 16  1  0
 19 18  1  0
 19 20  1  6
 20 21  1  0
 21 25  1  0
 21 22  2  0
 23 24  1  0
 23 19  1  0
 26 23  2  0
M  END
$$$$
