FCD.pdb
     RDKit          3D

 26 26  0  0  1  0  0  0  0  0999 V2000
    5.7068  -17.9084   25.4118 N   0  0  0  0  0  0  0  0  0  0  0  0
    6.3366  -16.6114   25.2705 C   0  0  1  0  0  0  0  0  0  0  0  0
    6.8165  -16.2043   26.6464 C   0  0  0  0  0  0  0  0  0  0  0  0
    6.9780  -14.7330   26.7322 C   0  0  0  0  0  0  0  0  0  0  0  0
    5.8592  -13.9019   26.8031 C   0  0  0  0  0  0  0  0  0  0  0  0
    5.9976  -12.5267   26.8835 C   0  0  0  0  0  0  0  0  0  0  0  0
    7.2300  -11.9319   26.8967 C   0  0  0  0  0  0  0  0  0  0  0  0
    8.3468  -12.7302   26.8279 C   0  0  0  0  0  0  0  0  0  0  0  0
    8.2089  -14.1102   26.7470 C   0  0  0  0  0  0  0  0  0  0  0  0
    7.4573  -16.6261   24.3248 C   0  0  0  0  0  0  0  0  0  0  0  0
    8.2057  -17.6391   24.3080 O   0  0  0  0  0  0  0  0  0  0  0  0
    7.7533  -15.5817   23.4324 N   0  0  0  0  0  0  0  0  0  0  0  0
    8.7787  -15.6744   22.4191 C   0  0  1  0  0  0  0  0  0  0  0  0
    8.6287  -14.5938   21.3649 C   0  0  0  0  0  0  0  0  0  0  0  0
    7.0300  -14.7099   20.5630 S   0  0  0  0  0  0  0  0  0  0  0  0
   10.1277  -15.5260   23.0185 C   0  0  0  0  0  0  0  0  0  0  0  0
   10.4303  -14.4847   23.6972 O   0  0  0  0  0  0  0  0  0  0  0  0
   11.0914  -16.5377   22.8426 N   0  0  0  0  0  0  0  0  0  0  0  0
   12.4698  -16.4127   23.3873 C   0  0  1  0  0  0  0  0  0  0  0  0
   12.8910  -17.7472   23.9343 C   0  0  0  0  0  0  0  0  0  0  0  0
   12.3020  -17.9963   25.2523 C   0  0  0  0  0  0  0  0  0  0  0  0
   12.1280  -17.1302   26.1305 O   0  0  0  0  0  0  0  0  0  0  0  0
   13.2871  -15.9586   22.2283 C   0  0  0  0  0  0  0  0  0  0  0  0
   12.8525  -16.0663   20.9260 O   0  0  0  0  0  0  0  0  0  0  0  0
   11.8810  -19.3031   25.6066 O   0  0  0  0  0  0  0  0  0  0  0  0
   14.4375  -15.4453   22.3883 O   0  0  0  0  0  0  0  0  0  0  0  0
  2 10  1  0
  2  1  1  1
  3  2  1  0
  4  3  1  0
  5  4  2  0
  6  5  1  0
  7  8  1  0
  7  6  2  0
  8  9  2  0
  9  4  1  0
 10 11  2  0
 12 13  1  0
 12 10  1  0
 13 14  1  6
 14 15  1  0
 16 17  2  0
 16 13  1  0
 18 16  1  0
 19 18  1  0
 19 20  1  6
 20 21  1  0
 21 25  1  0
 21 22  2  0
 23 24  1  0
 23 19  1  0
 26 23  2  0
M  END
$$$$
