FCD.pdb
     RDKit          3D

 26 26  0  0  1  0  0  0  0  0999 V2000
    6.4304  -16.6787   26.0876 N   0  0  0  0  0  0  0  0  0  0  0  0
    6.9352  -15.7411   25.1052 C   0  0  1  0  0  0  0  0  0  0  0  0
    7.9208  -14.8436   25.8208 C   0  0  0  0  0  0  0  0  0  0  0  0
    7.2525  -13.6132   26.3084 C   0  0  0  0  0  0  0  0  0  0  0  0
    7.9452  -12.7007   27.1052 C   0  0  0  0  0  0  0  0  0  0  0  0
    7.3317  -11.5484   27.5663 C   0  0  0  0  0  0  0  0  0  0  0  0
    6.0291  -11.2608   27.2604 C   0  0  0  0  0  0  0  0  0  0  0  0
    5.3265  -12.1449   26.4769 C   0  0  0  0  0  0  0  0  0  0  0  0
    5.9412  -13.3014   26.0139 C   0  0  0  0  0  0  0  0  0  0  0  0
    7.5837  -16.4051   23.9697 C   0  0  0  0  0  0  0  0  0  0  0  0
    8.1050  -17.5353   24.1626 O   0  0  0  0  0  0  0  0  0  0  0  0
    7.6626  -15.8628   22.6757 N   0  0  0  0  0  0  0  0  0  0  0  0
    8.5108  -16.4070   21.6408 C   0  0  1  0  0  0  0  0  0  0  0  0
    8.2305  -15.7734   20.2910 C   0  0  0  0  0  0  0  0  0  0  0  0
    7.1286  -14.3709   20.4672 S   0  0  0  0  0  0  0  0  0  0  0  0
    9.9419  -16.1714   21.9534 C   0  0  0  0  0  0  0  0  0  0  0  0
   10.3101  -15.1142   22.5723 O   0  0  0  0  0  0  0  0  0  0  0  0
   10.9115  -17.1169   21.5675 N   0  0  0  0  0  0  0  0  0  0  0  0
   12.3269  -17.0175   22.0141 C   0  0  1  0  0  0  0  0  0  0  0  0
   12.5464  -17.9987   23.1306 C   0  0  0  0  0  0  0  0  0  0  0  0
   13.7294  -17.6534   23.9227 C   0  0  0  0  0  0  0  0  0  0  0  0
   14.4929  -16.6985   23.6845 O   0  0  0  0  0  0  0  0  0  0  0  0
   13.1236  -17.3167   20.7922 C   0  0  0  0  0  0  0  0  0  0  0  0
   14.2272  -16.5785   20.4264 O   0  0  0  0  0  0  0  0  0  0  0  0
   14.0771  -18.4314   25.0560 O   0  0  0  0  0  0  0  0  0  0  0  0
   12.8186  -18.2778   20.0203 O   0  0  0  0  0  0  0  0  0  0  0  0
  2 10  1  0
  2  1  1  1
  3  2  1  0
  4  3  1  0
  5  4  2  0
  6  5  1  0
  7  8  1  0
  7  6  2  0
  8  9  2  0
  9  4  1  0
 10 11  2  0
 12 13  1  0
 12 10  1  0
 13 14  1  6
 14 15  1  0
 16 17  2  0
 16 13  1  0
 18 16  1  0
 19 18  1  0
 19 20  1  1
 20 21  1  0
 21 25  1  0
 21 22  2  0
 23 24  1  0
 23 19  1  0
 26 23  2  0
M  END
$$$$
