FCD.pdb
     RDKit          3D

 26 26  0  0  1  0  0  0  0  0999 V2000
    9.5891  -15.6871   21.8020 N   0  0  0  0  0  0  0  0  0  0  0  0
    9.1927  -14.8773   22.9360 C   0  0  1  0  0  0  0  0  0  0  0  0
    7.6819  -14.9257   23.0032 C   0  0  0  0  0  0  0  0  0  0  0  0
    7.1727  -14.0002   24.0437 C   0  0  0  0  0  0  0  0  0  0  0  0
    7.3177  -12.6203   23.8947 C   0  0  0  0  0  0  0  0  0  0  0  0
    6.8463  -11.7464   24.8595 C   0  0  0  0  0  0  0  0  0  0  0  0
    6.2230  -12.1991   25.9907 C   0  0  0  0  0  0  0  0  0  0  0  0
    6.0687  -13.5545   26.1594 C   0  0  0  0  0  0  0  0  0  0  0  0
    6.5415  -14.4321   25.1919 C   0  0  0  0  0  0  0  0  0  0  0  0
    9.7731  -15.3476   24.1981 C   0  0  0  0  0  0  0  0  0  0  0  0
   10.2339  -16.5191   24.2386 O   0  0  0  0  0  0  0  0  0  0  0  0
    9.8501  -14.5756   25.3697 N   0  0  0  0  0  0  0  0  0  0  0  0
   10.6022  -14.9799   26.5349 C   0  0  1  0  0  0  0  0  0  0  0  0
   10.3297  -14.0767   27.7231 C   0  0  0  0  0  0  0  0  0  0  0  0
   11.1296  -14.7109   29.1962 S   0  0  0  0  0  0  0  0  0  0  0  0
   10.2477  -16.3630   26.9379 C   0  0  0  0  0  0  0  0  0  0  0  0
    9.0240  -16.7123   27.0685 O   0  0  0  0  0  0  0  0  0  0  0  0
   11.2635  -17.3074   27.1816 N   0  0  0  0  0  0  0  0  0  0  0  0
   10.9554  -18.7075   27.5783 C   0  0  1  0  0  0  0  0  0  0  0  0
   12.0150  -19.6096   27.0116 C   0  0  0  0  0  0  0  0  0  0  0  0
   11.7760  -19.8926   25.5943 C   0  0  0  0  0  0  0  0  0  0  0  0
   10.6543  -20.0678   25.0816 O   0  0  0  0  0  0  0  0  0  0  0  0
   10.9338  -18.6752   29.0669 C   0  0  0  0  0  0  0  0  0  0  0  0
   11.2545  -17.5476   29.7896 O   0  0  0  0  0  0  0  0  0  0  0  0
   12.8680  -19.9847   24.6945 O   0  0  0  0  0  0  0  0  0  0  0  0
   10.6154  -19.6985   29.7481 O   0  0  0  0  0  0  0  0  0  0  0  0
  2 10  1  0
  2  1  1  6
  3  2  1  0
  4  3  1  0
  5  4  2  0
  6  5  1  0
  7  8  1  0
  7  6  2  0
  8  9  2  0
  9  4  1  0
 10 11  2  0
 12 13  1  0
 12 10  1  0
 13 14  1  1
 14 15  1  0
 16 17  2  0
 16 13  1  0
 18 16  1  0
 19 18  1  0
 19 20  1  1
 20 21  1  0
 21 25  1  0
 21 22  2  0
 23 24  1  0
 23 19  1  0
 26 23  2  0
M  END
$$$$
