FCD.pdb
     RDKit          3D

 26 26  0  0  1  0  0  0  0  0999 V2000
    6.8361  -16.1974   24.2604 N   0  0  0  0  0  0  0  0  0  0  0  0
    7.8315  -15.4030   23.5696 C   0  0  1  0  0  0  0  0  0  0  0  0
    7.1739  -14.0874   23.2146 C   0  0  0  0  0  0  0  0  0  0  0  0
    6.7236  -13.3789   24.4366 C   0  0  0  0  0  0  0  0  0  0  0  0
    7.3368  -12.1887   24.8303 C   0  0  0  0  0  0  0  0  0  0  0  0
    6.9250  -11.5182   25.9694 C   0  0  0  0  0  0  0  0  0  0  0  0
    5.9060  -11.9936   26.7495 C   0  0  0  0  0  0  0  0  0  0  0  0
    5.2868  -13.1643   26.3817 C   0  0  0  0  0  0  0  0  0  0  0  0
    5.6994  -13.8379   25.2389 C   0  0  0  0  0  0  0  0  0  0  0  0
    9.0315  -15.1695   24.3797 C   0  0  0  0  0  0  0  0  0  0  0  0
   10.0627  -14.7363   23.8007 O   0  0  0  0  0  0  0  0  0  0  0  0
    9.1081  -15.3976   25.7642 N   0  0  0  0  0  0  0  0  0  0  0  0
   10.3522  -15.3945   26.4983 C   0  0  1  0  0  0  0  0  0  0  0  0
   10.1437  -15.0433   27.9595 C   0  0  0  0  0  0  0  0  0  0  0  0
   10.0403  -13.2670   28.1746 S   0  0  0  0  0  0  0  0  0  0  0  0
   10.9966  -16.7300   26.4500 C   0  0  0  0  0  0  0  0  0  0  0  0
   10.3004  -17.7963   26.5716 O   0  0  0  0  0  0  0  0  0  0  0  0
   12.3894  -16.8334   26.2692 N   0  0  0  0  0  0  0  0  0  0  0  0
   13.0800  -18.1500   26.2250 C   0  0  1  0  0  0  0  0  0  0  0  0
   14.4169  -17.9671   25.5641 C   0  0  0  0  0  0  0  0  0  0  0  0
   14.2883  -17.2848   24.2742 C   0  0  0  0  0  0  0  0  0  0  0  0
   13.5963  -17.6882   23.3202 O   0  0  0  0  0  0  0  0  0  0  0  0
   13.1723  -18.5688   27.6510 C   0  0  0  0  0  0  0  0  0  0  0  0
   13.5609  -19.8348   28.0291 O   0  0  0  0  0  0  0  0  0  0  0  0
   14.9818  -16.0702   24.0410 O   0  0  0  0  0  0  0  0  0  0  0  0
   12.8929  -17.7688   28.5968 O   0  0  0  0  0  0  0  0  0  0  0  0
  2 10  1  0
  2  1  1  1
  3  2  1  0
  4  3  1  0
  5  4  2  0
  6  5  1  0
  7  8  1  0
  7  6  2  0
  8  9  2  0
  9  4  1  0
 10 11  2  0
 12 13  1  0
 12 10  1  0
 13 14  1  1
 14 15  1  0
 16 17  2  0
 16 13  1  0
 18 16  1  0
 19 18  1  0
 19 20  1  1
 20 21  1  0
 21 25  1  0
 21 22  2  0
 23 24  1  0
 23 19  1  0
 26 23  2  0
M  END
$$$$
