VWR.pdb
     RDKit          3D

 33 34  0  0  1  0  0  0  0  0999 V2000
    6.8224  -18.9299   20.4489 C   0  0  0  0  0  0  0  0  0  0  0  0
    7.7003  -18.5355   19.2715 C   0  0  1  0  0  0  0  0  0  0  0  0
    7.0783  -18.9676   17.9624 C   0  0  0  0  0  0  0  0  0  0  0  0
    8.0650  -17.0788   19.3094 C   0  0  2  0  0  0  0  0  0  0  0  0
    8.9318  -16.8278   18.1650 N   0  0  0  0  0  0  0  0  0  0  0  0
    8.6712  -16.6132   20.5498 C   0  0  0  0  0  0  0  0  0  0  0  0
    9.8310  -16.9602   20.8767 O   0  0  0  0  0  0  0  0  0  0  0  0
    7.9670  -15.7509   21.4302 N   0  0  0  0  0  0  0  0  0  0  0  0
    8.4290  -15.4173   22.7716 C   0  0  1  0  0  0  0  0  0  0  0  0
    7.6085  -14.2387   23.2181 C   0  0  0  0  0  0  0  0  0  0  0  0
    7.6699  -13.9072   24.6328 C   0  0  0  0  0  0  0  0  0  0  0  0
    8.4034  -14.6333   25.5726 C   0  0  0  0  0  0  0  0  0  0  0  0
    8.2732  -14.0754   26.7954 N   0  0  0  0  0  0  0  0  0  0  0  0
    7.4776  -13.0079   26.6834 C   0  0  0  0  0  0  0  0  0  0  0  0
    7.0404  -12.1187   27.6310 C   0  0  0  0  0  0  0  0  0  0  0  0
    6.2112  -11.0896   27.2813 C   0  0  0  0  0  0  0  0  0  0  0  0
    5.8124  -10.9460   25.9627 C   0  0  0  0  0  0  0  0  0  0  0  0
    6.2594  -11.8439   25.0286 C   0  0  0  0  0  0  0  0  0  0  0  0
    7.0980  -12.8945   25.3482 C   0  0  0  0  0  0  0  0  0  0  0  0
    8.5088  -16.5508   23.6696 C   0  0  0  0  0  0  0  0  0  0  0  0
    7.6042  -17.4448   23.6320 O   0  0  0  0  0  0  0  0  0  0  0  0
   14.2304  -21.1230   22.3356 N   0  0  0  0  0  0  0  0  0  0  0  0
   14.2356  -19.8463   21.6343 C   0  0  0  0  0  0  0  0  0  0  0  0
   15.2728  -19.4349   21.1355 N   0  0  0  0  0  0  0  0  0  0  0  0
   13.0155  -19.1126   21.5462 N   0  0  0  0  0  0  0  0  0  0  0  0
   11.8714  -19.5610   22.2678 C   0  0  0  0  0  0  0  0  0  0  0  0
   11.5712  -18.5993   23.3897 C   0  0  0  0  0  0  0  0  0  0  0  0
   10.1829  -18.9468   23.9052 C   0  0  0  0  0  0  0  0  0  0  0  0
    9.8292  -18.0990   25.1473 C   0  0  2  0  0  0  0  0  0  0  0  0
    9.5588  -16.7601   24.6231 N   0  0  0  0  0  0  0  0  0  0  0  0
   10.9612  -18.1321   26.0865 C   0  0  0  0  0  0  0  0  0  0  0  0
   10.9821  -18.9190   27.0626 O   0  0  0  0  0  0  0  0  0  0  0  0
   12.0358  -17.2841   25.9027 O   0  0  0  0  0  0  0  0  0  0  0  0
  2  1  1  1
  2  3  1  0
  2  4  1  0
  4  5  1  6
  4  6  1  0
  6  8  1  0
  6  7  2  0
  8  9  1  0
  9 20  1  0
  9 10  1  1
 10 11  1  0
 11 19  1  0
 11 12  2  0
 12 13  1  0
 14 15  2  0
 14 13  1  0
 16 15  1  0
 17 16  2  0
 18 17  1  0
 18 19  2  0
 19 14  1  0
 20 21  2  0
 22 23  1  0
 23 24  2  0
 25 26  1  0
 25 23  1  0
 27 26  1  0
 28 27  1  0
 29 28  1  6
 30 29  1  0
 30 20  1  0
 31 33  1  0
 31 29  1  0
 32 31  2  0
M  END
$$$$
