VWR.pdb
     RDKit          3D

 33 34  0  0  1  0  0  0  0  0999 V2000
    8.3351  -11.9568   20.1735 C   0  0  0  0  0  0  0  0  0  0  0  0
    7.3684  -13.1291   20.2349 C   0  0  1  0  0  0  0  0  0  0  0  0
    6.3846  -13.0816   19.0872 C   0  0  0  0  0  0  0  0  0  0  0  0
    8.0887  -14.4421   20.3524 C   0  0  2  0  0  0  0  0  0  0  0  0
    7.0766  -15.4890   20.2909 N   0  0  0  0  0  0  0  0  0  0  0  0
    8.9395  -14.5911   21.5257 C   0  0  0  0  0  0  0  0  0  0  0  0
    9.9579  -13.8769   21.6851 O   0  0  0  0  0  0  0  0  0  0  0  0
    8.6431  -15.5517   22.5277 N   0  0  0  0  0  0  0  0  0  0  0  0
    9.4534  -15.7441   23.7238 C   0  0  1  0  0  0  0  0  0  0  0  0
    8.5222  -16.2667   24.7830 C   0  0  0  0  0  0  0  0  0  0  0  0
    7.4669  -15.3654   25.2178 C   0  0  0  0  0  0  0  0  0  0  0  0
    6.1055  -15.6641   25.1403 C   0  0  0  0  0  0  0  0  0  0  0  0
    5.3763  -14.6385   25.6300 N   0  0  0  0  0  0  0  0  0  0  0  0
    6.2189  -13.6796   26.0246 C   0  0  0  0  0  0  0  0  0  0  0  0
    5.9734  -12.4503   26.5798 C   0  0  0  0  0  0  0  0  0  0  0  0
    7.0098  -11.6191   26.9019 C   0  0  0  0  0  0  0  0  0  0  0  0
    8.3135  -12.0227   26.6658 C   0  0  0  0  0  0  0  0  0  0  0  0
    8.5404  -13.2551   26.1105 C   0  0  0  0  0  0  0  0  0  0  0  0
    7.5164  -14.1193   25.7736 C   0  0  0  0  0  0  0  0  0  0  0  0
   10.6807  -16.4784   23.4960 C   0  0  0  0  0  0  0  0  0  0  0  0
   10.6574  -17.7506   23.4876 O   0  0  0  0  0  0  0  0  0  0  0  0
   15.5425  -14.4053   18.0186 N   0  0  0  0  0  0  0  0  0  0  0  0
   16.3796  -15.5820   18.2103 C   0  0  0  0  0  0  0  0  0  0  0  0
   16.9084  -16.1114   17.2439 N   0  0  0  0  0  0  0  0  0  0  0  0
   16.5619  -16.0797   19.5345 N   0  0  0  0  0  0  0  0  0  0  0  0
   15.9518  -15.4033   20.6304 C   0  0  0  0  0  0  0  0  0  0  0  0
   15.2248  -16.3989   21.4987 C   0  0  0  0  0  0  0  0  0  0  0  0
   13.8981  -15.7605   21.8810 C   0  0  0  0  0  0  0  0  0  0  0  0
   13.0959  -16.6826   22.8258 C   0  0  2  0  0  0  0  0  0  0  0  0
   11.9595  -15.8726   23.2651 N   0  0  0  0  0  0  0  0  0  0  0  0
   13.9661  -17.1036   23.9349 C   0  0  0  0  0  0  0  0  0  0  0  0
   13.8870  -16.5749   25.0692 O   0  0  0  0  0  0  0  0  0  0  0  0
   14.8971  -18.1051   23.7400 O   0  0  0  0  0  0  0  0  0  0  0  0
  2  1  1  6
  2  3  1  0
  2  4  1  0
  4  5  1  1
  4  6  1  0
  6  8  1  0
  6  7  2  0
  8  9  1  0
  9 20  1  0
  9 10  1  1
 10 11  1  0
 11 19  1  0
 11 12  2  0
 12 13  1  0
 14 15  2  0
 14 13  1  0
 16 15  1  0
 17 16  2  0
 18 17  1  0
 18 19  2  0
 19 14  1  0
 20 21  2  0
 22 23  1  0
 23 24  2  0
 25 26  1  0
 25 23  1  0
 27 26  1  0
 28 27  1  0
 29 28  1  6
 30 29  1  0
 30 20  1  0
 31 33  1  0
 31 29  1  0
 32 31  2  0
M  END
$$$$
