VWR.pdb
     RDKit          3D

 33 34  0  0  1  0  0  0  0  0999 V2000
    6.9041  -15.1398   16.2954 C   0  0  0  0  0  0  0  0  0  0  0  0
    7.6183  -15.2700   17.6316 C   0  0  1  0  0  0  0  0  0  0  0  0
    9.0335  -15.7694   17.4439 C   0  0  0  0  0  0  0  0  0  0  0  0
    7.5315  -14.0052   18.4374 C   0  0  2  0  0  0  0  0  0  0  0  0
    8.1684  -12.9561   17.6514 N   0  0  0  0  0  0  0  0  0  0  0  0
    8.0870  -14.0756   19.7824 C   0  0  0  0  0  0  0  0  0  0  0  0
    9.2866  -13.7867   20.0061 O   0  0  0  0  0  0  0  0  0  0  0  0
    7.2873  -14.4751   20.8849 N   0  0  0  0  0  0  0  0  0  0  0  0
    7.7946  -14.5969   22.2457 C   0  0  1  0  0  0  0  0  0  0  0  0
    6.6140  -14.3917   23.1546 C   0  0  0  0  0  0  0  0  0  0  0  0
    6.8872  -14.4087   24.5829 C   0  0  0  0  0  0  0  0  0  0  0  0
    7.1852  -15.5651   25.3059 C   0  0  0  0  0  0  0  0  0  0  0  0
    7.4012  -15.2590   26.6033 N   0  0  0  0  0  0  0  0  0  0  0  0
    7.2534  -13.9393   26.7499 C   0  0  0  0  0  0  0  0  0  0  0  0
    7.3630  -13.1485   27.8646 C   0  0  0  0  0  0  0  0  0  0  0  0
    7.1581  -11.7998   27.7767 C   0  0  0  0  0  0  0  0  0  0  0  0
    6.8388  -11.2312   26.5548 C   0  0  0  0  0  0  0  0  0  0  0  0
    6.7338  -12.0368   25.4509 C   0  0  0  0  0  0  0  0  0  0  0  0
    6.9348  -13.4027   25.5049 C   0  0  0  0  0  0  0  0  0  0  0  0
    8.6109  -15.7718   22.4707 C   0  0  0  0  0  0  0  0  0  0  0  0
    8.3328  -16.8540   21.8619 O   0  0  0  0  0  0  0  0  0  0  0  0
   16.1618  -15.1810   20.8782 N   0  0  0  0  0  0  0  0  0  0  0  0
   15.4868  -14.8891   19.6208 C   0  0  0  0  0  0  0  0  0  0  0  0
   15.9628  -14.0621   18.8570 N   0  0  0  0  0  0  0  0  0  0  0  0
   14.2825  -15.5899   19.3156 N   0  0  0  0  0  0  0  0  0  0  0  0
   13.0563  -15.1736   19.9104 C   0  0  0  0  0  0  0  0  0  0  0  0
   12.7488  -16.0465   21.1008 C   0  0  0  0  0  0  0  0  0  0  0  0
   11.4394  -15.5418   21.6879 C   0  0  0  0  0  0  0  0  0  0  0  0
   11.0074  -16.4064   22.8930 C   0  0  2  0  0  0  0  0  0  0  0  0
    9.7465  -15.8174   23.3446 N   0  0  0  0  0  0  0  0  0  0  0  0
   12.0634  -16.3614   23.9164 C   0  0  0  0  0  0  0  0  0  0  0  0
   13.2059  -16.8320   23.7026 O   0  0  0  0  0  0  0  0  0  0  0  0
   11.8080  -15.7892   25.1472 O   0  0  0  0  0  0  0  0  0  0  0  0
  2  1  1  6
  2  3  1  0
  2  4  1  0
  4  5  1  6
  4  6  1  0
  6  8  1  0
  6  7  2  0
  8  9  1  0
  9 20  1  0
  9 10  1  1
 10 11  1  0
 11 19  1  0
 11 12  2  0
 12 13  1  0
 14 15  2  0
 14 13  1  0
 16 15  1  0
 17 16  2  0
 18 17  1  0
 18 19  2  0
 19 14  1  0
 20 21  2  0
 22 23  1  0
 23 24  2  0
 25 26  1  0
 25 23  1  0
 27 26  1  0
 28 27  1  0
 29 28  1  6
 30 29  1  0
 30 20  1  0
 31 33  1  0
 31 29  1  0
 32 31  2  0
M  END
$$$$
