VWR.pdb
     RDKit          3D

 33 34  0  0  1  0  0  0  0  0999 V2000
    7.5580  -13.6967   16.8459 C   0  0  0  0  0  0  0  0  0  0  0  0
    8.0050  -13.4772   18.2828 C   0  0  1  0  0  0  0  0  0  0  0  0
    6.8897  -12.8820   19.1129 C   0  0  0  0  0  0  0  0  0  0  0  0
    8.5978  -14.7215   18.8800 C   0  0  2  0  0  0  0  0  0  0  0  0
    7.6572  -15.8051   18.6246 N   0  0  0  0  0  0  0  0  0  0  0  0
    8.9450  -14.6387   20.2926 C   0  0  0  0  0  0  0  0  0  0  0  0
   10.0149  -14.1034   20.6686 O   0  0  0  0  0  0  0  0  0  0  0  0
    8.0825  -15.1628   21.2905 N   0  0  0  0  0  0  0  0  0  0  0  0
    8.3842  -15.1268   22.7159 C   0  0  1  0  0  0  0  0  0  0  0  0
    7.0587  -15.1231   23.4265 C   0  0  0  0  0  0  0  0  0  0  0  0
    7.0941  -14.8760   24.8592 C   0  0  0  0  0  0  0  0  0  0  0  0
    6.8861  -15.8615   25.8258 C   0  0  0  0  0  0  0  0  0  0  0  0
    6.9932  -15.3295   27.0622 N   0  0  0  0  0  0  0  0  0  0  0  0
    7.2646  -14.0277   26.9333 C   0  0  0  0  0  0  0  0  0  0  0  0
    7.4581  -13.0591   27.8841 C   0  0  0  0  0  0  0  0  0  0  0  0
    7.7207  -11.7700   27.5126 C   0  0  0  0  0  0  0  0  0  0  0  0
    7.7916  -11.4428   26.1686 C   0  0  0  0  0  0  0  0  0  0  0  0
    7.5959  -12.4240   25.2317 C   0  0  0  0  0  0  0  0  0  0  0  0
    7.3291  -13.7360   25.5730 C   0  0  0  0  0  0  0  0  0  0  0  0
    9.3631  -16.1067   23.1391 C   0  0  0  0  0  0  0  0  0  0  0  0
    9.2941  -17.2954   22.6905 O   0  0  0  0  0  0  0  0  0  0  0  0
   17.6922  -17.6023   24.5436 N   0  0  0  0  0  0  0  0  0  0  0  0
   16.9998  -17.0973   23.3657 C   0  0  0  0  0  0  0  0  0  0  0  0
   17.3857  -17.4215   22.2523 N   0  0  0  0  0  0  0  0  0  0  0  0
   15.8779  -16.2364   23.5522 N   0  0  0  0  0  0  0  0  0  0  0  0
   15.1743  -16.2560   24.7912 C   0  0  0  0  0  0  0  0  0  0  0  0
   13.9284  -17.0940   24.6530 C   0  0  0  0  0  0  0  0  0  0  0  0
   12.7907  -16.1378   24.3287 C   0  0  0  0  0  0  0  0  0  0  0  0
   11.4323  -16.8734   24.3451 C   0  0  2  0  0  0  0  0  0  0  0  0
   10.4419  -15.8393   24.0447 N   0  0  0  0  0  0  0  0  0  0  0  0
   11.2387  -17.4898   25.6670 C   0  0  0  0  0  0  0  0  0  0  0  0
   11.7659  -18.5883   25.9631 O   0  0  0  0  0  0  0  0  0  0  0  0
   10.4620  -16.8561   26.6171 O   0  0  0  0  0  0  0  0  0  0  0  0
  2  1  1  6
  2  3  1  0
  2  4  1  0
  4  5  1  1
  4  6  1  0
  6  8  1  0
  6  7  2  0
  8  9  1  0
  9 20  1  0
  9 10  1  1
 10 11  1  0
 11 19  1  0
 11 12  2  0
 12 13  1  0
 14 15  2  0
 14 13  1  0
 16 15  1  0
 17 16  2  0
 18 17  1  0
 18 19  2  0
 19 14  1  0
 20 21  2  0
 22 23  1  0
 23 24  2  0
 25 26  1  0
 25 23  1  0
 27 26  1  0
 28 27  1  0
 29 28  1  1
 30 29  1  0
 30 20  1  0
 31 33  1  0
 31 29  1  0
 32 31  2  0
M  END
$$$$
