VWR.pdb
     RDKit          3D

 33 34  0  0  1  0  0  0  0  0999 V2000
    8.7785  -17.6865   19.8617 C   0  0  0  0  0  0  0  0  0  0  0  0
    7.8289  -16.5337   19.5754 C   0  0  1  0  0  0  0  0  0  0  0  0
    6.8400  -16.9018   18.4919 C   0  0  0  0  0  0  0  0  0  0  0  0
    7.1802  -16.0194   20.8288 C   0  0  2  0  0  0  0  0  0  0  0  0
    6.3021  -14.9251   20.4346 N   0  0  0  0  0  0  0  0  0  0  0  0
    8.0928  -15.6150   21.8902 C   0  0  0  0  0  0  0  0  0  0  0  0
    8.7152  -14.5279   21.8331 O   0  0  0  0  0  0  0  0  0  0  0  0
    8.3078  -16.4403   23.0247 N   0  0  0  0  0  0  0  0  0  0  0  0
    9.2803  -16.1387   24.0675 C   0  0  1  0  0  0  0  0  0  0  0  0
    8.5510  -16.2768   25.3755 C   0  0  0  0  0  0  0  0  0  0  0  0
    7.5241  -15.2845   25.6509 C   0  0  0  0  0  0  0  0  0  0  0  0
    6.1566  -15.5639   25.6759 C   0  0  0  0  0  0  0  0  0  0  0  0
    5.4593  -14.4458   25.9703 N   0  0  0  0  0  0  0  0  0  0  0  0
    6.3285  -13.4451   26.1382 C   0  0  0  0  0  0  0  0  0  0  0  0
    6.1196  -12.1244   26.4413 C   0  0  0  0  0  0  0  0  0  0  0  0
    7.1782  -11.2673   26.5581 C   0  0  0  0  0  0  0  0  0  0  0  0
    8.4673  -11.7375   26.3695 C   0  0  0  0  0  0  0  0  0  0  0  0
    8.6575  -13.0609   26.0675 C   0  0  0  0  0  0  0  0  0  0  0  0
    7.6103  -13.9534   25.9425 C   0  0  0  0  0  0  0  0  0  0  0  0
   10.5365  -16.8458   23.9284 C   0  0  0  0  0  0  0  0  0  0  0  0
   10.5293  -18.1026   23.7292 O   0  0  0  0  0  0  0  0  0  0  0  0
   18.8260  -14.0577   23.6161 N   0  0  0  0  0  0  0  0  0  0  0  0
   18.9845  -15.4740   23.3148 C   0  0  0  0  0  0  0  0  0  0  0  0
   20.1047  -15.9366   23.1567 N   0  0  0  0  0  0  0  0  0  0  0  0
   17.8150  -16.2850   23.2189 N   0  0  0  0  0  0  0  0  0  0  0  0
   16.5323  -15.6956   23.4141 C   0  0  0  0  0  0  0  0  0  0  0  0
   15.4590  -16.7265   23.1716 C   0  0  0  0  0  0  0  0  0  0  0  0
   14.1243  -16.0267   23.3784 C   0  0  0  0  0  0  0  0  0  0  0  0
   13.0430  -17.0294   23.8386 C   0  0  2  0  0  0  0  0  0  0  0  0
   11.8286  -16.2278   23.9915 N   0  0  0  0  0  0  0  0  0  0  0  0
   13.4792  -17.6596   25.0945 C   0  0  0  0  0  0  0  0  0  0  0  0
   13.2569  -17.1279   26.2081 O   0  0  0  0  0  0  0  0  0  0  0  0
   14.1495  -18.8668   25.0646 O   0  0  0  0  0  0  0  0  0  0  0  0
  2  1  1  1
  2  3  1  0
  2  4  1  0
  4  5  1  6
  4  6  1  0
  6  8  1  0
  6  7  2  0
  8  9  1  0
  9 20  1  0
  9 10  1  1
 10 11  1  0
 11 19  1  0
 11 12  2  0
 12 13  1  0
 14 15  2  0
 14 13  1  0
 16 15  1  0
 17 16  2  0
 18 17  1  0
 18 19  2  0
 19 14  1  0
 20 21  2  0
 22 23  1  0
 23 24  2  0
 25 26  1  0
 25 23  1  0
 27 26  1  0
 28 27  1  0
 29 28  1  1
 30 29  1  0
 30 20  1  0
 31 33  1  0
 31 29  1  0
 32 31  2  0
M  END
$$$$
