VWR.pdb
     RDKit          3D

 33 34  0  0  1  0  0  0  0  0999 V2000
    7.9385  -16.5847   19.2927 C   0  0  0  0  0  0  0  0  0  0  0  0
    7.5909  -15.1283   19.0266 C   0  0  1  0  0  0  0  0  0  0  0  0
    6.5760  -15.0077   17.9119 C   0  0  0  0  0  0  0  0  0  0  0  0
    7.1881  -14.4112   20.2836 C   0  0  2  0  0  0  0  0  0  0  0  0
    6.8313  -13.0509   19.9011 N   0  0  0  0  0  0  0  0  0  0  0  0
    8.1719  -14.4223   21.3582 C   0  0  0  0  0  0  0  0  0  0  0  0
    9.1135  -13.5946   21.3860 O   0  0  0  0  0  0  0  0  0  0  0  0
    8.0969  -15.3727   22.4097 N   0  0  0  0  0  0  0  0  0  0  0  0
    9.0784  -15.4656   23.4830 C   0  0  1  0  0  0  0  0  0  0  0  0
    8.3170  -15.8695   24.7156 C   0  0  0  0  0  0  0  0  0  0  0  0
    7.3567  -14.9046   25.2272 C   0  0  0  0  0  0  0  0  0  0  0  0
    5.9837  -15.1417   25.3134 C   0  0  0  0  0  0  0  0  0  0  0  0
    5.3587  -14.0660   25.8384 N   0  0  0  0  0  0  0  0  0  0  0  0
    6.2804  -13.1341   26.0975 C   0  0  0  0  0  0  0  0  0  0  0  0
    6.1514  -11.8755   26.6256 C   0  0  0  0  0  0  0  0  0  0  0  0
    7.2520  -11.0827   26.7965 C   0  0  0  0  0  0  0  0  0  0  0  0
    8.5025  -11.5553   26.4342 C   0  0  0  0  0  0  0  0  0  0  0  0
    8.6127  -12.8162   25.9082 C   0  0  0  0  0  0  0  0  0  0  0  0
    7.5214  -13.6430   25.7226 C   0  0  0  0  0  0  0  0  0  0  0  0
   10.2549  -16.2395   23.1445 C   0  0  0  0  0  0  0  0  0  0  0  0
   10.2761  -17.4876   23.3911 O   0  0  0  0  0  0  0  0  0  0  0  0
   16.1602  -14.9230   17.2666 N   0  0  0  0  0  0  0  0  0  0  0  0
   16.5055  -14.2845   18.5295 C   0  0  0  0  0  0  0  0  0  0  0  0
   17.2174  -13.2911   18.5297 N   0  0  0  0  0  0  0  0  0  0  0  0
   15.9909  -14.8418   19.7375 N   0  0  0  0  0  0  0  0  0  0  0  0
   15.2411  -16.0527   19.6901 C   0  0  0  0  0  0  0  0  0  0  0  0
   14.8173  -16.4410   21.0841 C   0  0  0  0  0  0  0  0  0  0  0  0
   13.5145  -15.7082   21.3664 C   0  0  0  0  0  0  0  0  0  0  0  0
   12.5905  -16.5565   22.2681 C   0  0  2  0  0  0  0  0  0  0  0  0
   11.4325  -15.7012   22.5291 N   0  0  0  0  0  0  0  0  0  0  0  0
   13.3222  -16.9241   23.4905 C   0  0  0  0  0  0  0  0  0  0  0  0
   14.2421  -17.7761   23.4743 O   0  0  0  0  0  0  0  0  0  0  0  0
   13.0023  -16.3251   24.6931 O   0  0  0  0  0  0  0  0  0  0  0  0
  2  1  1  1
  2  3  1  0
  2  4  1  0
  4  5  1  6
  4  6  1  0
  6  8  1  0
  6  7  2  0
  8  9  1  0
  9 20  1  0
  9 10  1  1
 10 11  1  0
 11 19  1  0
 11 12  2  0
 12 13  1  0
 14 15  2  0
 14 13  1  0
 16 15  1  0
 17 16  2  0
 18 17  1  0
 18 19  2  0
 19 14  1  0
 20 21  2  0
 22 23  1  0
 23 24  2  0
 25 26  1  0
 25 23  1  0
 27 26  1  0
 28 27  1  0
 29 28  1  6
 30 29  1  0
 30 20  1  0
 31 33  1  0
 31 29  1  0
 32 31  2  0
M  END
$$$$
