VWR.pdb
     RDKit          3D

 33 34  0  0  1  0  0  0  0  0999 V2000
    7.8335  -15.1752   16.3064 C   0  0  0  0  0  0  0  0  0  0  0  0
    8.4817  -15.2142   17.6816 C   0  0  1  0  0  0  0  0  0  0  0  0
    9.9803  -15.3849   17.5702 C   0  0  0  0  0  0  0  0  0  0  0  0
    8.0737  -14.0403   18.5254 C   0  0  2  0  0  0  0  0  0  0  0  0
    8.5646  -12.8435   17.8541 N   0  0  0  0  0  0  0  0  0  0  0  0
    8.5028  -14.0852   19.9170 C   0  0  0  0  0  0  0  0  0  0  0  0
    9.6003  -13.5955   20.2749 O   0  0  0  0  0  0  0  0  0  0  0  0
    7.6914  -14.6866   20.9142 N   0  0  0  0  0  0  0  0  0  0  0  0
    8.0371  -14.7065   22.3299 C   0  0  1  0  0  0  0  0  0  0  0  0
    6.7355  -14.6529   23.0815 C   0  0  0  0  0  0  0  0  0  0  0  0
    6.8266  -14.6560   24.5330 C   0  0  0  0  0  0  0  0  0  0  0  0
    6.8446  -15.8152   25.3106 C   0  0  0  0  0  0  0  0  0  0  0  0
    6.9476  -15.4956   26.6185 N   0  0  0  0  0  0  0  0  0  0  0  0
    6.9973  -14.1643   26.7192 C   0  0  0  0  0  0  0  0  0  0  0  0
    7.0962  -13.3570   27.8229 C   0  0  0  0  0  0  0  0  0  0  0  0
    7.1230  -11.9974   27.6833 C   0  0  0  0  0  0  0  0  0  0  0  0
    7.0503  -11.4346   26.4198 C   0  0  0  0  0  0  0  0  0  0  0  0
    6.9522  -12.2569   25.3276 C   0  0  0  0  0  0  0  0  0  0  0  0
    6.9229  -13.6342   25.4335 C   0  0  0  0  0  0  0  0  0  0  0  0
    8.9744  -15.7480   22.6963 C   0  0  0  0  0  0  0  0  0  0  0  0
    8.7292  -16.9538   22.3724 O   0  0  0  0  0  0  0  0  0  0  0  0
   14.0441  -13.8377   19.6624 N   0  0  0  0  0  0  0  0  0  0  0  0
   13.6641  -15.1369   19.1243 C   0  0  0  0  0  0  0  0  0  0  0  0
   14.0951  -15.4901   18.0365 N   0  0  0  0  0  0  0  0  0  0  0  0
   12.7970  -15.9663   19.8955 N   0  0  0  0  0  0  0  0  0  0  0  0
   12.4588  -15.5852   21.2263 C   0  0  0  0  0  0  0  0  0  0  0  0
   12.9365  -16.6399   22.1922 C   0  0  0  0  0  0  0  0  0  0  0  0
   12.4771  -16.2072   23.5762 C   0  0  0  0  0  0  0  0  0  0  0  0
   11.0224  -16.6563   23.8384 C   0  0  2  0  0  0  0  0  0  0  0  0
   10.1978  -15.5263   23.4102 N   0  0  0  0  0  0  0  0  0  0  0  0
   10.8700  -16.9720   25.2673 C   0  0  0  0  0  0  0  0  0  0  0  0
   10.5137  -16.1026   26.0978 O   0  0  0  0  0  0  0  0  0  0  0  0
   11.1197  -18.2520   25.7220 O   0  0  0  0  0  0  0  0  0  0  0  0
  2  1  1  6
  2  3  1  0
  2  4  1  0
  4  5  1  6
  4  6  1  0
  6  8  1  0
  6  7  2  0
  8  9  1  0
  9 20  1  0
  9 10  1  1
 10 11  1  0
 11 19  1  0
 11 12  2  0
 12 13  1  0
 14 15  2  0
 14 13  1  0
 16 15  1  0
 17 16  2  0
 18 17  1  0
 18 19  2  0
 19 14  1  0
 20 21  2  0
 22 23  1  0
 23 24  2  0
 25 26  1  0
 25 23  1  0
 27 26  1  0
 28 27  1  0
 29 28  1  1
 30 29  1  0
 30 20  1  0
 31 33  1  0
 31 29  1  0
 32 31  2  0
M  END
$$$$
