VWR.pdb
     RDKit          3D

 33 34  0  0  1  0  0  0  0  0999 V2000
    8.7512  -12.3699   18.7764 C   0  0  0  0  0  0  0  0  0  0  0  0
    8.2513  -13.7543   18.3936 C   0  0  1  0  0  0  0  0  0  0  0  0
    8.1732  -13.9065   16.8910 C   0  0  0  0  0  0  0  0  0  0  0  0
    9.0431  -14.8399   19.0653 C   0  0  2  0  0  0  0  0  0  0  0  0
    8.3677  -16.0987   18.7772 N   0  0  0  0  0  0  0  0  0  0  0  0
    9.2620  -14.6672   20.4953 C   0  0  0  0  0  0  0  0  0  0  0  0
   10.1329  -13.8758   20.9287 O   0  0  0  0  0  0  0  0  0  0  0  0
    8.4958  -15.3910   21.4459 N   0  0  0  0  0  0  0  0  0  0  0  0
    8.5814  -15.1721   22.8842 C   0  0  1  0  0  0  0  0  0  0  0  0
    7.1653  -15.1398   23.3898 C   0  0  0  0  0  0  0  0  0  0  0  0
    6.9840  -14.7533   24.7800 C   0  0  0  0  0  0  0  0  0  0  0  0
    6.5095  -15.6125   25.7726 C   0  0  0  0  0  0  0  0  0  0  0  0
    6.4626  -14.9702   26.9595 N   0  0  0  0  0  0  0  0  0  0  0  0
    6.8914  -13.7187   26.7729 C   0  0  0  0  0  0  0  0  0  0  0  0
    7.0250  -12.6808   27.6587 C   0  0  0  0  0  0  0  0  0  0  0  0
    7.4850  -11.4657   27.2338 C   0  0  0  0  0  0  0  0  0  0  0  0
    7.8177  -11.2842   25.9016 C   0  0  0  0  0  0  0  0  0  0  0  0
    7.6783  -12.3329   25.0301 C   0  0  0  0  0  0  0  0  0  0  0  0
    7.2168  -13.5734   25.4265 C   0  0  0  0  0  0  0  0  0  0  0  0
    9.5101  -16.0519   23.5631 C   0  0  0  0  0  0  0  0  0  0  0  0
    9.7418  -15.8823   24.8027 O   0  0  0  0  0  0  0  0  0  0  0  0
   12.6915  -13.6342   20.4782 N   0  0  0  0  0  0  0  0  0  0  0  0
   13.6327  -14.4622   19.7361 C   0  0  0  0  0  0  0  0  0  0  0  0
   13.8617  -14.2126   18.5618 N   0  0  0  0  0  0  0  0  0  0  0  0
   14.2678  -15.5452   20.4130 N   0  0  0  0  0  0  0  0  0  0  0  0
   13.9831  -15.7782   21.7898 C   0  0  0  0  0  0  0  0  0  0  0  0
   12.8464  -16.7612   21.9128 C   0  0  0  0  0  0  0  0  0  0  0  0
   12.5341  -16.8869   23.3962 C   0  0  0  0  0  0  0  0  0  0  0  0
   11.3126  -17.8044   23.6254 C   0  0  2  0  0  0  0  0  0  0  0  0
   10.2075  -17.1370   22.9371 N   0  0  0  0  0  0  0  0  0  0  0  0
   11.0876  -17.9478   25.0722 C   0  0  0  0  0  0  0  0  0  0  0  0
   11.0697  -19.0727   25.6260 O   0  0  0  0  0  0  0  0  0  0  0  0
   10.8911  -16.8268   25.8547 O   0  0  0  0  0  0  0  0  0  0  0  0
  2  1  1  6
  2  3  1  0
  2  4  1  0
  4  5  1  1
  4  6  1  0
  6  8  1  0
  6  7  2  0
  8  9  1  0
  9 20  1  0
  9 10  1  1
 10 11  1  0
 11 19  1  0
 11 12  2  0
 12 13  1  0
 14 15  2  0
 14 13  1  0
 16 15  1  0
 17 16  2  0
 18 17  1  0
 18 19  2  0
 19 14  1  0
 20 21  2  0
 22 23  1  0
 23 24  2  0
 25 26  1  0
 25 23  1  0
 27 26  1  0
 28 27  1  0
 29 28  1  1
 30 29  1  0
 30 20  1  0
 31 33  1  0
 31 29  1  0
 32 31  2  0
M  END
$$$$
