VWR.pdb
     RDKit          3D

 33 34  0  0  1  0  0  0  0  0999 V2000
    7.9509  -13.1851   16.9779 C   0  0  0  0  0  0  0  0  0  0  0  0
    8.3975  -13.1730   18.4315 C   0  0  1  0  0  0  0  0  0  0  0  0
    7.3905  -12.4553   19.3024 C   0  0  0  0  0  0  0  0  0  0  0  0
    8.7399  -14.5507   18.9225 C   0  0  2  0  0  0  0  0  0  0  0  0
    7.6287  -15.4202   18.5575 N   0  0  0  0  0  0  0  0  0  0  0  0
    9.0539  -14.6539   20.3415 C   0  0  0  0  0  0  0  0  0  0  0  0
   10.1747  -14.3090   20.7859 O   0  0  0  0  0  0  0  0  0  0  0  0
    8.1001  -15.1497   21.2683 N   0  0  0  0  0  0  0  0  0  0  0  0
    8.3029  -15.1480   22.7115 C   0  0  1  0  0  0  0  0  0  0  0  0
    6.9443  -14.9546   23.3270 C   0  0  0  0  0  0  0  0  0  0  0  0
    6.9147  -14.6787   24.7545 C   0  0  0  0  0  0  0  0  0  0  0  0
    6.8310  -15.6661   25.7378 C   0  0  0  0  0  0  0  0  0  0  0  0
    6.8354  -15.1017   26.9645 N   0  0  0  0  0  0  0  0  0  0  0  0
    6.9193  -13.7769   26.8130 C   0  0  0  0  0  0  0  0  0  0  0  0
    6.9523  -12.7733   27.7465 C   0  0  0  0  0  0  0  0  0  0  0  0
    7.0343  -11.4668   27.3525 C   0  0  0  0  0  0  0  0  0  0  0  0
    7.0847  -11.1575   26.0034 C   0  0  0  0  0  0  0  0  0  0  0  0
    7.0511  -12.1736   25.0841 C   0  0  0  0  0  0  0  0  0  0  0  0
    6.9688  -13.5039   25.4482 C   0  0  0  0  0  0  0  0  0  0  0  0
    9.1026  -16.2528   23.1987 C   0  0  0  0  0  0  0  0  0  0  0  0
    8.9640  -17.4048   22.6764 O   0  0  0  0  0  0  0  0  0  0  0  0
   17.1372  -18.7212   24.5967 N   0  0  0  0  0  0  0  0  0  0  0  0
   16.3248  -19.6890   23.8719 C   0  0  0  0  0  0  0  0  0  0  0  0
   16.7854  -20.7909   23.6122 N   0  0  0  0  0  0  0  0  0  0  0  0
   15.0016  -19.3174   23.4901 N   0  0  0  0  0  0  0  0  0  0  0  0
   14.4806  -18.0549   23.8964 C   0  0  0  0  0  0  0  0  0  0  0  0
   13.1635  -18.2541   24.6029 C   0  0  0  0  0  0  0  0  0  0  0  0
   12.2418  -17.1381   24.1348 C   0  0  0  0  0  0  0  0  0  0  0  0
   10.8138  -17.3347   24.6904 C   0  0  2  0  0  0  0  0  0  0  0  0
   10.0733  -16.1526   24.2490 N   0  0  0  0  0  0  0  0  0  0  0  0
   10.8836  -17.4570   26.1550 C   0  0  0  0  0  0  0  0  0  0  0  0
   10.5489  -16.5132   26.9097 O   0  0  0  0  0  0  0  0  0  0  0  0
   11.3246  -18.6331   26.7292 O   0  0  0  0  0  0  0  0  0  0  0  0
  2  1  1  6
  2  3  1  0
  2  4  1  0
  4  5  1  1
  4  6  1  0
  6  8  1  0
  6  7  2  0
  8  9  1  0
  9 20  1  0
  9 10  1  1
 10 11  1  0
 11 19  1  0
 11 12  2  0
 12 13  1  0
 14 15  2  0
 14 13  1  0
 16 15  1  0
 17 16  2  0
 18 17  1  0
 18 19  2  0
 19 14  1  0
 20 21  2  0
 22 23  1  0
 23 24  2  0
 25 26  1  0
 25 23  1  0
 27 26  1  0
 28 27  1  0
 29 28  1  1
 30 29  1  0
 30 20  1  0
 31 33  1  0
 31 29  1  0
 32 31  2  0
M  END
$$$$
