VWR.pdb
     RDKit          3D

 33 34  0  0  1  0  0  0  0  0999 V2000
    7.1541  -13.4674   18.5001 C   0  0  0  0  0  0  0  0  0  0  0  0
    7.9686  -13.5072   19.7838 C   0  0  1  0  0  0  0  0  0  0  0  0
    7.2708  -12.7514   20.8925 C   0  0  0  0  0  0  0  0  0  0  0  0
    8.3477  -14.9106   20.1619 C   0  0  2  0  0  0  0  0  0  0  0  0
    7.1113  -15.6781   20.2411 N   0  0  0  0  0  0  0  0  0  0  0  0
    9.1368  -15.0437   21.3794 C   0  0  0  0  0  0  0  0  0  0  0  0
   10.2848  -14.5469   21.4675 O   0  0  0  0  0  0  0  0  0  0  0  0
    8.6311  -15.7420   22.5070 N   0  0  0  0  0  0  0  0  0  0  0  0
    9.3818  -15.9281   23.7423 C   0  0  1  0  0  0  0  0  0  0  0  0
    8.3671  -16.2370   24.8086 C   0  0  0  0  0  0  0  0  0  0  0  0
    7.4646  -15.1568   25.1743 C   0  0  0  0  0  0  0  0  0  0  0  0
    6.0756  -15.2272   25.0551 C   0  0  0  0  0  0  0  0  0  0  0  0
    5.5135  -14.0768   25.4841 N   0  0  0  0  0  0  0  0  0  0  0  0
    6.4920  -13.2575   25.8795 C   0  0  0  0  0  0  0  0  0  0  0  0
    6.4386  -11.9845   26.3857 C   0  0  0  0  0  0  0  0  0  0  0  0
    7.5890  -11.3259   26.7200 C   0  0  0  0  0  0  0  0  0  0  0  0
    8.8134  -11.9496   26.5463 C   0  0  0  0  0  0  0  0  0  0  0  0
    8.8479  -13.2226   26.0394 C   0  0  0  0  0  0  0  0  0  0  0  0
    7.7047  -13.9162   25.6918 C   0  0  0  0  0  0  0  0  0  0  0  0
   10.5117  -16.8257   23.6193 C   0  0  0  0  0  0  0  0  0  0  0  0
   10.7078  -17.4395   22.5222 O   0  0  0  0  0  0  0  0  0  0  0  0
   13.5005  -14.7342   18.7675 N   0  0  0  0  0  0  0  0  0  0  0  0
   14.5078  -14.5299   19.7998 C   0  0  0  0  0  0  0  0  0  0  0  0
   15.4962  -13.8542   19.5545 N   0  0  0  0  0  0  0  0  0  0  0  0
   14.3027  -15.1264   21.0792 N   0  0  0  0  0  0  0  0  0  0  0  0
   14.3905  -16.5419   21.2177 C   0  0  0  0  0  0  0  0  0  0  0  0
   13.2043  -17.0491   21.9982 C   0  0  0  0  0  0  0  0  0  0  0  0
   13.5067  -16.7981   23.4677 C   0  0  0  0  0  0  0  0  0  0  0  0
   12.7171  -17.7754   24.3665 C   0  0  2  0  0  0  0  0  0  0  0  0
   11.4621  -17.0836   24.6613 N   0  0  0  0  0  0  0  0  0  0  0  0
   13.5116  -18.0654   25.5703 C   0  0  0  0  0  0  0  0  0  0  0  0
   13.3366  -17.4356   26.6404 O   0  0  0  0  0  0  0  0  0  0  0  0
   14.4766  -19.0531   25.5393 O   0  0  0  0  0  0  0  0  0  0  0  0
  2  1  1  6
  2  3  1  0
  2  4  1  0
  4  5  1  1
  4  6  1  0
  6  8  1  0
  6  7  2  0
  8  9  1  0
  9 20  1  0
  9 10  1  1
 10 11  1  0
 11 19  1  0
 11 12  2  0
 12 13  1  0
 14 15  2  0
 14 13  1  0
 16 15  1  0
 17 16  2  0
 18 17  1  0
 18 19  2  0
 19 14  1  0
 20 21  2  0
 22 23  1  0
 23 24  2  0
 25 26  1  0
 25 23  1  0
 27 26  1  0
 28 27  1  0
 29 28  1  6
 30 29  1  0
 30 20  1  0
 31 33  1  0
 31 29  1  0
 32 31  2  0
M  END
$$$$
