VWR.pdb
     RDKit          3D

 33 34  0  0  1  0  0  0  0  0999 V2000
   10.4481  -19.2718   20.1937 C   0  0  0  0  0  0  0  0  0  0  0  0
   10.4619  -18.2851   19.0365 C   0  0  1  0  0  0  0  0  0  0  0  0
   10.3892  -19.0054   17.7086 C   0  0  0  0  0  0  0  0  0  0  0  0
    9.4155  -17.2196   19.1980 C   0  0  2  0  0  0  0  0  0  0  0  0
    9.4908  -16.3677   18.0180 N   0  0  0  0  0  0  0  0  0  0  0  0
    9.4957  -16.4387   20.4254 C   0  0  0  0  0  0  0  0  0  0  0  0
   10.5175  -15.7667   20.7027 O   0  0  0  0  0  0  0  0  0  0  0  0
    8.4183  -16.4140   21.3492 N   0  0  0  0  0  0  0  0  0  0  0  0
    8.4970  -15.7857   22.6618 C   0  0  1  0  0  0  0  0  0  0  0  0
    7.0944  -15.3747   23.0163 C   0  0  0  0  0  0  0  0  0  0  0  0
    6.8810  -14.9125   24.3785 C   0  0  0  0  0  0  0  0  0  0  0  0
    6.5918  -15.7568   25.4520 C   0  0  0  0  0  0  0  0  0  0  0  0
    6.4600  -15.0369   26.5868 N   0  0  0  0  0  0  0  0  0  0  0  0
    6.6541  -13.7492   26.2879 C   0  0  0  0  0  0  0  0  0  0  0  0
    6.6219  -12.6345   27.0854 C   0  0  0  0  0  0  0  0  0  0  0  0
    6.8472  -11.3967   26.5507 C   0  0  0  0  0  0  0  0  0  0  0  0
    7.1096  -11.2702   25.1966 C   0  0  0  0  0  0  0  0  0  0  0  0
    7.1383  -12.3955   24.4145 C   0  0  0  0  0  0  0  0  0  0  0  0
    6.9153  -13.6607   24.9228 C   0  0  0  0  0  0  0  0  0  0  0  0
    9.2328  -16.5552   23.6437 C   0  0  0  0  0  0  0  0  0  0  0  0
    8.9958  -17.7989   23.7708 O   0  0  0  0  0  0  0  0  0  0  0  0
   16.4796  -18.6717   24.3292 N   0  0  0  0  0  0  0  0  0  0  0  0
   15.9844  -18.6999   22.9596 C   0  0  0  0  0  0  0  0  0  0  0  0
   16.7439  -18.9937   22.0482 N   0  0  0  0  0  0  0  0  0  0  0  0
   14.6128  -18.3863   22.7246 N   0  0  0  0  0  0  0  0  0  0  0  0
   14.0095  -17.3012   23.4239 C   0  0  0  0  0  0  0  0  0  0  0  0
   13.0882  -17.8359   24.4911 C   0  0  0  0  0  0  0  0  0  0  0  0
   12.4517  -16.6299   25.1652 C   0  0  0  0  0  0  0  0  0  0  0  0
   10.9542  -16.8842   25.4472 C   0  0  2  0  0  0  0  0  0  0  0  0
   10.2429  -16.0174   24.5073 N   0  0  0  0  0  0  0  0  0  0  0  0
   10.6717  -16.5622   26.8547 C   0  0  0  0  0  0  0  0  0  0  0  0
    9.9558  -15.5834   27.1738 O   0  0  0  0  0  0  0  0  0  0  0  0
   11.1983  -17.3473   27.8616 O   0  0  0  0  0  0  0  0  0  0  0  0
  2  1  1  1
  2  3  1  0
  2  4  1  0
  4  5  1  6
  4  6  1  0
  6  8  1  0
  6  7  2  0
  8  9  1  0
  9 20  1  0
  9 10  1  1
 10 11  1  0
 11 19  1  0
 11 12  2  0
 12 13  1  0
 14 15  2  0
 14 13  1  0
 16 15  1  0
 17 16  2  0
 18 17  1  0
 18 19  2  0
 19 14  1  0
 20 21  2  0
 22 23  1  0
 23 24  2  0
 25 26  1  0
 25 23  1  0
 27 26  1  0
 28 27  1  0
 29 28  1  1
 30 29  1  0
 30 20  1  0
 31 33  1  0
 31 29  1  0
 32 31  2  0
M  END
$$$$
