VWR.pdb
     RDKit          3D

 33 34  0  0  1  0  0  0  0  0999 V2000
    9.6951  -19.0956   20.6539 C   0  0  0  0  0  0  0  0  0  0  0  0
    9.3386  -17.8485   19.8599 C   0  0  1  0  0  0  0  0  0  0  0  0
    8.8645  -18.2079   18.4694 C   0  0  0  0  0  0  0  0  0  0  0  0
    8.3832  -16.9635   20.6084 C   0  0  2  0  0  0  0  0  0  0  0  0
    8.1301  -15.8022   19.7651 N   0  0  0  0  0  0  0  0  0  0  0  0
    8.8057  -16.5693   21.9459 C   0  0  0  0  0  0  0  0  0  0  0  0
    9.7181  -15.7263   22.1173 O   0  0  0  0  0  0  0  0  0  0  0  0
    8.1978  -17.1284   23.1002 N   0  0  0  0  0  0  0  0  0  0  0  0
    8.6911  -16.9132   24.4546 C   0  0  1  0  0  0  0  0  0  0  0  0
    7.4923  -16.5466   25.2856 C   0  0  0  0  0  0  0  0  0  0  0  0
    6.9833  -15.1938   25.1245 C   0  0  0  0  0  0  0  0  0  0  0  0
    5.9694  -14.8435   24.2313 C   0  0  0  0  0  0  0  0  0  0  0  0
    5.7087  -13.5216   24.3195 N   0  0  0  0  0  0  0  0  0  0  0  0
    6.5208  -12.9978   25.2422 C   0  0  0  0  0  0  0  0  0  0  0  0
    6.6468  -11.7080   25.6899 C   0  0  0  0  0  0  0  0  0  0  0  0
    7.5667  -11.3984   26.6525 C   0  0  0  0  0  0  0  0  0  0  0  0
    8.3741  -12.3939   27.1773 C   0  0  0  0  0  0  0  0  0  0  0  0
    8.2341  -13.6779   26.7183 C   0  0  0  0  0  0  0  0  0  0  0  0
    7.3147  -14.0247   25.7471 C   0  0  0  0  0  0  0  0  0  0  0  0
    9.5445  -17.9734   24.9496 C   0  0  0  0  0  0  0  0  0  0  0  0
    9.0222  -19.0610   25.3538 O   0  0  0  0  0  0  0  0  0  0  0  0
   14.8830  -18.0742   20.5306 N   0  0  0  0  0  0  0  0  0  0  0  0
   15.7558  -18.4281   21.6419 C   0  0  0  0  0  0  0  0  0  0  0  0
   16.9409  -18.1327   21.5974 N   0  0  0  0  0  0  0  0  0  0  0  0
   15.1916  -19.1097   22.7607 N   0  0  0  0  0  0  0  0  0  0  0  0
   13.8090  -19.4548   22.7502 C   0  0  0  0  0  0  0  0  0  0  0  0
   13.0320  -18.4581   23.5726 C   0  0  0  0  0  0  0  0  0  0  0  0
   13.1350  -18.9101   25.0214 C   0  0  0  0  0  0  0  0  0  0  0  0
   11.7404  -18.9543   25.6844 C   0  0  2  0  0  0  0  0  0  0  0  0
   10.9747  -17.9005   25.0184 N   0  0  0  0  0  0  0  0  0  0  0  0
   11.8916  -18.7303   27.1306 C   0  0  0  0  0  0  0  0  0  0  0  0
   11.4013  -17.7231   27.6941 O   0  0  0  0  0  0  0  0  0  0  0  0
   12.5858  -19.6420   27.9016 O   0  0  0  0  0  0  0  0  0  0  0  0
  2  1  1  1
  2  3  1  0
  2  4  1  0
  4  5  1  6
  4  6  1  0
  6  8  1  0
  6  7  2  0
  8  9  1  0
  9 20  1  0
  9 10  1  1
 10 11  1  0
 11 19  1  0
 11 12  2  0
 12 13  1  0
 14 15  2  0
 14 13  1  0
 16 15  1  0
 17 16  2  0
 18 17  1  0
 18 19  2  0
 19 14  1  0
 20 21  2  0
 22 23  1  0
 23 24  2  0
 25 26  1  0
 25 23  1  0
 27 26  1  0
 28 27  1  0
 29 28  1  6
 30 29  1  0
 30 20  1  0
 31 33  1  0
 31 29  1  0
 32 31  2  0
M  END
$$$$
