VWR.pdb
     RDKit          3D

 33 34  0  0  1  0  0  0  0  0999 V2000
    9.7168  -19.5064   20.2931 C   0  0  0  0  0  0  0  0  0  0  0  0
   10.3643  -18.5688   19.2860 C   0  0  1  0  0  0  0  0  0  0  0  0
   10.3690  -19.1788   17.9021 C   0  0  0  0  0  0  0  0  0  0  0  0
    9.7597  -17.1945   19.3328 C   0  0  2  0  0  0  0  0  0  0  0  0
   10.4372  -16.3974   18.3181 N   0  0  0  0  0  0  0  0  0  0  0  0
    9.7875  -16.5379   20.6331 C   0  0  0  0  0  0  0  0  0  0  0  0
   10.8713  -16.2182   21.1768 O   0  0  0  0  0  0  0  0  0  0  0  0
    8.5866  -16.2391   21.3282 N   0  0  0  0  0  0  0  0  0  0  0  0
    8.5511  -15.7402   22.6971 C   0  0  1  0  0  0  0  0  0  0  0  0
    7.1749  -15.1690   22.9011 C   0  0  0  0  0  0  0  0  0  0  0  0
    6.8378  -14.7633   24.2564 C   0  0  0  0  0  0  0  0  0  0  0  0
    6.2650  -15.6126   25.2047 C   0  0  0  0  0  0  0  0  0  0  0  0
    6.0815  -14.9528   26.3685 N   0  0  0  0  0  0  0  0  0  0  0  0
    6.5163  -13.6995   26.2097 C   0  0  0  0  0  0  0  0  0  0  0  0
    6.5415  -12.6468   27.0877 C   0  0  0  0  0  0  0  0  0  0  0  0
    7.0339  -11.4331   26.6960 C   0  0  0  0  0  0  0  0  0  0  0  0
    7.5097  -11.2683   25.4058 C   0  0  0  0  0  0  0  0  0  0  0  0
    7.4772  -12.3317   24.5415 C   0  0  0  0  0  0  0  0  0  0  0  0
    6.9867  -13.5711   24.9051 C   0  0  0  0  0  0  0  0  0  0  0  0
    9.0324  -16.6843   23.6843 C   0  0  0  0  0  0  0  0  0  0  0  0
    8.5720  -17.8704   23.6937 O   0  0  0  0  0  0  0  0  0  0  0  0
   16.0466  -15.4066   23.5280 N   0  0  0  0  0  0  0  0  0  0  0  0
   15.9481  -16.8531   23.6690 C   0  0  0  0  0  0  0  0  0  0  0  0
   16.9632  -17.5332   23.6446 N   0  0  0  0  0  0  0  0  0  0  0  0
   14.6567  -17.4344   23.8389 N   0  0  0  0  0  0  0  0  0  0  0  0
   13.5150  -16.5899   23.9572 C   0  0  0  0  0  0  0  0  0  0  0  0
   12.8692  -16.7968   25.3039 C   0  0  0  0  0  0  0  0  0  0  0  0
   11.8217  -17.8852   25.1252 C   0  0  0  0  0  0  0  0  0  0  0  0
   10.4429  -17.4108   25.6355 C   0  0  2  0  0  0  0  0  0  0  0  0
   10.0208  -16.3869   24.6794 N   0  0  0  0  0  0  0  0  0  0  0  0
   10.5923  -16.8937   27.0048 C   0  0  0  0  0  0  0  0  0  0  0  0
   10.4139  -15.6818   27.2725 O   0  0  0  0  0  0  0  0  0  0  0  0
   10.9352  -17.7503   28.0325 O   0  0  0  0  0  0  0  0  0  0  0  0
  2  1  1  1
  2  3  1  0
  2  4  1  0
  4  5  1  6
  4  6  1  0
  6  8  1  0
  6  7  2  0
  8  9  1  0
  9 20  1  0
  9 10  1  1
 10 11  1  0
 11 19  1  0
 11 12  2  0
 12 13  1  0
 14 15  2  0
 14 13  1  0
 16 15  1  0
 17 16  2  0
 18 17  1  0
 18 19  2  0
 19 14  1  0
 20 21  2  0
 22 23  1  0
 23 24  2  0
 25 26  1  0
 25 23  1  0
 27 26  1  0
 28 27  1  0
 29 28  1  6
 30 29  1  0
 30 20  1  0
 31 33  1  0
 31 29  1  0
 32 31  2  0
M  END
$$$$
