VYA.pdb
     RDKit          3D

 25 25  0  0  1  0  0  0  0  0999 V2000
    9.3200  -19.4504   18.0681 C   0  0  0  0  0  0  0  0  0  0  0  0
    9.4530  -18.6898   19.3790 C   0  0  2  0  0  0  0  0  0  0  0  0
    8.8127  -19.4855   20.5011 C   0  0  0  0  0  0  0  0  0  0  0  0
    8.6493  -17.4192   19.2270 C   0  0  2  0  0  0  0  0  0  0  0  0
    9.1829  -16.6900   18.1122 N   0  0  0  0  0  0  0  0  0  0  0  0
    8.8106  -16.6334   20.4888 C   0  0  0  0  0  0  0  0  0  0  0  0
    9.9119  -16.1756   20.8624 O   0  0  0  0  0  0  0  0  0  0  0  0
    7.7288  -12.0709   27.7827 O   0  0  0  0  0  0  0  0  0  0  0  0
    7.4679  -12.7826   26.6296 C   0  0  0  0  0  0  0  0  0  0  0  0
    7.1315  -14.1194   26.7358 C   0  0  0  0  0  0  0  0  0  0  0  0
    6.8732  -14.8185   25.5725 C   0  0  0  0  0  0  0  0  0  0  0  0
    6.9445  -14.2205   24.3446 C   0  0  0  0  0  0  0  0  0  0  0  0
    6.6938  -14.9180   23.0811 C   0  0  0  0  0  0  0  0  0  0  0  0
    7.8730  -15.5884   22.5549 C   0  0  2  0  0  0  0  0  0  0  0  0
    7.7374  -16.3475   21.3538 N   0  0  0  0  0  0  0  0  0  0  0  0
    8.4875  -16.4667   23.5716 C   0  0  0  0  0  0  0  0  0  0  0  0
    8.0054  -17.5938   23.9241 O   0  0  0  0  0  0  0  0  0  0  0  0
    7.2832  -12.8862   24.2846 C   0  0  0  0  0  0  0  0  0  0  0  0
    7.5492  -12.1493   25.4230 C   0  0  0  0  0  0  0  0  0  0  0  0
   11.8274  -17.0203   24.5837 C   0  0  0  0  0  0  0  0  0  0  0  0
   10.3872  -16.9826   25.0498 C   0  0  2  0  0  0  0  0  0  0  0  0
    9.6952  -16.0356   24.2036 N   0  0  0  0  0  0  0  0  0  0  0  0
   10.2940  -16.5464   26.4607 C   0  0  0  0  0  0  0  0  0  0  0  0
   10.8324  -17.2806   27.4978 O   0  0  0  0  0  0  0  0  0  0  0  0
    9.7090  -15.4752   26.7417 O   0  0  0  0  0  0  0  0  0  0  0  0
  2  1  1  6
  2  4  1  0
  3  2  1  0
  4  6  1  0
  4  5  1  6
  6  7  2  0
  8  9  1  0
  9 10  2  0
  9 19  1  0
 10 11  1  0
 11 12  2  0
 12 13  1  0
 14 13  1  1
 14 16  1  0
 15 14  1  0
 15  6  1  0
 16 17  2  0
 18 12  1  0
 19 18  2  0
 21 20  1  6
 21 23  1  0
 22 21  1  0
 22 16  1  0
 23 25  2  0
 23 24  1  0
M  END
$$$$
