VYA.pdb
     RDKit          3D

 25 25  0  0  1  0  0  0  0  0999 V2000
    7.4337  -12.8128   21.4825 C   0  0  0  0  0  0  0  0  0  0  0  0
    8.4052  -13.3986   20.4688 C   0  0  2  0  0  0  0  0  0  0  0  0
    7.8128  -13.3022   19.0752 C   0  0  0  0  0  0  0  0  0  0  0  0
    8.5342  -14.8693   20.7909 C   0  0  2  0  0  0  0  0  0  0  0  0
    7.2349  -15.4649   20.6630 N   0  0  0  0  0  0  0  0  0  0  0  0
    9.0208  -14.9783   22.2006 C   0  0  0  0  0  0  0  0  0  0  0  0
   10.0041  -14.3351   22.6265 O   0  0  0  0  0  0  0  0  0  0  0  0
    6.2887  -10.6058   26.5248 O   0  0  0  0  0  0  0  0  0  0  0  0
    6.6883  -11.9047   26.2849 C   0  0  0  0  0  0  0  0  0  0  0  0
    5.8071  -12.7656   25.6572 C   0  0  0  0  0  0  0  0  0  0  0  0
    6.2216  -14.0627   25.4239 C   0  0  0  0  0  0  0  0  0  0  0  0
    7.4634  -14.4978   25.7971 C   0  0  0  0  0  0  0  0  0  0  0  0
    7.9473  -15.8641   25.5859 C   0  0  0  0  0  0  0  0  0  0  0  0
    8.8980  -15.9706   24.4897 C   0  0  2  0  0  0  0  0  0  0  0  0
    8.4114  -15.8120   23.1573 N   0  0  0  0  0  0  0  0  0  0  0  0
    9.6385  -17.2478   24.5459 C   0  0  0  0  0  0  0  0  0  0  0  0
    9.1793  -18.3568   24.1141 O   0  0  0  0  0  0  0  0  0  0  0  0
    8.3098  -13.6065   26.4198 C   0  0  0  0  0  0  0  0  0  0  0  0
    7.9361  -12.3002   26.6723 C   0  0  0  0  0  0  0  0  0  0  0  0
   13.1485  -18.1473   24.9798 C   0  0  0  0  0  0  0  0  0  0  0  0
   11.6816  -18.4976   25.1149 C   0  0  2  0  0  0  0  0  0  0  0  0
   10.9491  -17.2505   25.1168 N   0  0  0  0  0  0  0  0  0  0  0  0
   11.4208  -19.2270   26.3757 C   0  0  0  0  0  0  0  0  0  0  0  0
   11.8984  -20.5015   26.6039 O   0  0  0  0  0  0  0  0  0  0  0  0
   10.7444  -18.6832   27.2787 O   0  0  0  0  0  0  0  0  0  0  0  0
  2  1  1  1
  2  4  1  0
  3  2  1  0
  4  6  1  0
  4  5  1  1
  6  7  2  0
  8  9  1  0
  9 10  2  0
  9 19  1  0
 10 11  1  0
 11 12  2  0
 12 13  1  0
 14 13  1  1
 14 16  1  0
 15 14  1  0
 15  6  1  0
 16 17  2  0
 18 12  1  0
 19 18  2  0
 21 20  1  1
 21 23  1  0
 22 21  1  0
 22 16  1  0
 23 25  2  0
 23 24  1  0
M  END
$$$$
