VYA.pdb
     RDKit          3D

 25 25  0  0  1  0  0  0  0  0999 V2000
    2.8421  -19.4136   20.3041 C   0  0  0  0  0  0  0  0  0  0  0  0
    3.5376  -18.6566   21.4257 C   0  0  2  0  0  0  0  0  0  0  0  0
    4.3745  -17.5325   20.8442 C   0  0  0  0  0  0  0  0  0  0  0  0
    4.4961  -19.6275   22.0754 C   0  0  2  0  0  0  0  0  0  0  0  0
    3.7624  -20.8141   22.4113 N   0  0  0  0  0  0  0  0  0  0  0  0
    5.0255  -18.9747   23.3121 C   0  0  0  0  0  0  0  0  0  0  0  0
    4.2861  -18.6072   24.2503 O   0  0  0  0  0  0  0  0  0  0  0  0
    5.9180  -23.0565   28.3652 O   0  0  0  0  0  0  0  0  0  0  0  0
    6.4099  -21.9775   27.6594 C   0  0  0  0  0  0  0  0  0  0  0  0
    6.1486  -20.7029   28.1270 C   0  0  0  0  0  0  0  0  0  0  0  0
    6.6478  -19.6329   27.4095 C   0  0  0  0  0  0  0  0  0  0  0  0
    7.3801  -19.8126   26.2684 C   0  0  0  0  0  0  0  0  0  0  0  0
    7.9204  -18.7143   25.4638 C   0  0  0  0  0  0  0  0  0  0  0  0
    6.9095  -18.0425   24.6615 C   0  0  2  0  0  0  0  0  0  0  0  0
    6.3952  -18.7229   23.5171 N   0  0  0  0  0  0  0  0  0  0  0  0
    7.3750  -16.7122   24.2187 C   0  0  0  0  0  0  0  0  0  0  0  0
    8.0375  -16.5097   23.1476 O   0  0  0  0  0  0  0  0  0  0  0  0
    7.6170  -21.0999   25.8382 C   0  0  0  0  0  0  0  0  0  0  0  0
    7.1369  -22.1987   26.5253 C   0  0  0  0  0  0  0  0  0  0  0  0
    6.8721  -13.2339   25.3904 C   0  0  0  0  0  0  0  0  0  0  0  0
    7.6567  -14.3080   24.6668 C   0  0  2  0  0  0  0  0  0  0  0  0
    7.0693  -15.5778   25.0333 N   0  0  0  0  0  0  0  0  0  0  0  0
    9.0816  -14.2881   25.0653 C   0  0  0  0  0  0  0  0  0  0  0  0
    9.9765  -13.3662   24.5614 O   0  0  0  0  0  0  0  0  0  0  0  0
    9.5077  -15.1308   25.8881 O   0  0  0  0  0  0  0  0  0  0  0  0
  2  1  1  6
  2  4  1  0
  3  2  1  0
  4  6  1  0
  4  5  1  1
  6  7  2  0
  8  9  1  0
  9 10  2  0
  9 19  1  0
 10 11  1  0
 11 12  2  0
 12 13  1  0
 14 13  1  6
 14 16  1  0
 15 14  1  0
 15  6  1  0
 16 17  2  0
 18 12  1  0
 19 18  2  0
 21 20  1  1
 21 23  1  0
 22 21  1  0
 22 16  1  0
 23 25  2  0
 23 24  1  0
M  END
$$$$
