VYA.pdb
     RDKit          3D

 25 25  0  0  1  0  0  0  0  0999 V2000
   11.2081  -18.9823   20.3761 C   0  0  0  0  0  0  0  0  0  0  0  0
    9.7099  -18.9665   20.1123 C   0  0  2  0  0  0  0  0  0  0  0  0
    9.3846  -19.8797   18.9450 C   0  0  0  0  0  0  0  0  0  0  0  0
    9.3598  -17.5610   19.6817 C   0  0  2  0  0  0  0  0  0  0  0  0
   10.3471  -17.1309   18.7334 N   0  0  0  0  0  0  0  0  0  0  0  0
    9.3971  -16.6964   20.9011 C   0  0  0  0  0  0  0  0  0  0  0  0
   10.4529  -16.1877   21.3354 O   0  0  0  0  0  0  0  0  0  0  0  0
    7.3292  -11.6600   27.7134 O   0  0  0  0  0  0  0  0  0  0  0  0
    7.2768  -12.4015   26.5508 C   0  0  0  0  0  0  0  0  0  0  0  0
    7.9674  -11.9481   25.4421 C   0  0  0  0  0  0  0  0  0  0  0  0
    7.9054  -12.7014   24.2856 C   0  0  0  0  0  0  0  0  0  0  0  0
    7.1861  -13.8630   24.2230 C   0  0  0  0  0  0  0  0  0  0  0  0
    7.0763  -14.6912   23.0198 C   0  0  0  0  0  0  0  0  0  0  0  0
    8.2561  -15.5078   22.7785 C   0  0  2  0  0  0  0  0  0  0  0  0
    8.2489  -16.3875   21.6546 N   0  0  0  0  0  0  0  0  0  0  0  0
    8.6055  -16.3081   23.9702 C   0  0  0  0  0  0  0  0  0  0  0  0
    7.9143  -17.2926   24.3946 O   0  0  0  0  0  0  0  0  0  0  0  0
    6.5131  -14.2781   25.3513 C   0  0  0  0  0  0  0  0  0  0  0  0
    6.5482  -13.5556   26.5289 C   0  0  0  0  0  0  0  0  0  0  0  0
   11.6825  -17.1848   25.4620 C   0  0  0  0  0  0  0  0  0  0  0  0
   10.2261  -16.8733   25.7350 C   0  0  2  0  0  0  0  0  0  0  0  0
    9.7877  -15.9659   24.6976 N   0  0  0  0  0  0  0  0  0  0  0  0
   10.0561  -16.2323   27.0579 C   0  0  0  0  0  0  0  0  0  0  0  0
   10.3496  -16.8850   28.2379 O   0  0  0  0  0  0  0  0  0  0  0  0
    9.6317  -15.0560   27.1276 O   0  0  0  0  0  0  0  0  0  0  0  0
  2  1  1  6
  2  4  1  0
  3  2  1  0
  4  6  1  0
  4  5  1  6
  6  7  2  0
  8  9  1  0
  9 10  2  0
  9 19  1  0
 10 11  1  0
 11 12  2  0
 12 13  1  0
 14 13  1  1
 14 16  1  0
 15 14  1  0
 15  6  1  0
 16 17  2  0
 18 12  1  0
 19 18  2  0
 21 20  1  6
 21 23  1  0
 22 21  1  0
 22 16  1  0
 23 25  2  0
 23 24  1  0
M  END
$$$$
