VYA.pdb
     RDKit          3D

 25 25  0  0  1  0  0  0  0  0999 V2000
    8.0997  -14.8101   19.5058 C   0  0  0  0  0  0  0  0  0  0  0  0
    8.0708  -16.3292   19.4281 C   0  0  2  0  0  0  0  0  0  0  0  0
    6.9251  -16.7759   18.5393 C   0  0  0  0  0  0  0  0  0  0  0  0
    7.7671  -16.8294   20.8214 C   0  0  2  0  0  0  0  0  0  0  0  0
    6.5343  -16.2305   21.2465 N   0  0  0  0  0  0  0  0  0  0  0  0
    8.8902  -16.3952   21.7080 C   0  0  0  0  0  0  0  0  0  0  0  0
   10.0808  -16.7065   21.4901 O   0  0  0  0  0  0  0  0  0  0  0  0
    5.1365  -12.6123   27.2103 O   0  0  0  0  0  0  0  0  0  0  0  0
    6.2719  -12.9471   26.5009 C   0  0  0  0  0  0  0  0  0  0  0  0
    6.1456  -13.2861   25.1665 C   0  0  0  0  0  0  0  0  0  0  0  0
    7.2914  -13.6187   24.4698 C   0  0  0  0  0  0  0  0  0  0  0  0
    8.5212  -13.6180   25.0681 C   0  0  0  0  0  0  0  0  0  0  0  0
    9.7640  -13.9750   24.3799 C   0  0  0  0  0  0  0  0  0  0  0  0
    9.7302  -15.3060   23.7931 C   0  0  2  0  0  0  0  0  0  0  0  0
    8.6959  -15.6035   22.8557 N   0  0  0  0  0  0  0  0  0  0  0  0
    9.7007  -16.3505   24.8375 C   0  0  0  0  0  0  0  0  0  0  0  0
    8.6292  -16.8686   25.2964 O   0  0  0  0  0  0  0  0  0  0  0  0
    8.6014  -13.2736   26.3998 C   0  0  0  0  0  0  0  0  0  0  0  0
    7.4811  -12.9339   27.1342 C   0  0  0  0  0  0  0  0  0  0  0  0
   12.1044  -18.8408   25.8259 C   0  0  0  0  0  0  0  0  0  0  0  0
   10.9158  -17.9880   26.2168 C   0  0  2  0  0  0  0  0  0  0  0  0
   10.9429  -16.8147   25.3716 N   0  0  0  0  0  0  0  0  0  0  0  0
   10.9968  -17.5778   27.6363 C   0  0  0  0  0  0  0  0  0  0  0  0
   10.8601  -18.4774   28.6739 O   0  0  0  0  0  0  0  0  0  0  0  0
   11.1961  -16.3753   27.9243 O   0  0  0  0  0  0  0  0  0  0  0  0
  2  1  1  1
  2  4  1  0
  3  2  1  0
  4  6  1  0
  4  5  1  1
  6  7  2  0
  8  9  1  0
  9 10  2  0
  9 19  1  0
 10 11  1  0
 11 12  2  0
 12 13  1  0
 14 13  1  1
 14 16  1  0
 15 14  1  0
 15  6  1  0
 16 17  2  0
 18 12  1  0
 19 18  2  0
 21 20  1  6
 21 23  1  0
 22 21  1  0
 22 16  1  0
 23 25  2  0
 23 24  1  0
M  END
$$$$
