VYA.pdb
     RDKit          3D

 25 25  0  0  1  0  0  0  0  0999 V2000
    6.9216  -16.6346   18.2794 C   0  0  0  0  0  0  0  0  0  0  0  0
    7.5799  -16.5411   19.6478 C   0  0  2  0  0  0  0  0  0  0  0  0
    6.8889  -17.4838   20.6152 C   0  0  0  0  0  0  0  0  0  0  0  0
    7.3360  -15.1375   20.1519 C   0  0  2  0  0  0  0  0  0  0  0  0
    7.8941  -14.2225   19.1977 N   0  0  0  0  0  0  0  0  0  0  0  0
    8.0328  -15.0068   21.4684 C   0  0  0  0  0  0  0  0  0  0  0  0
    9.2778  -15.0209   21.5770 O   0  0  0  0  0  0  0  0  0  0  0  0
   10.1894  -13.9562   29.8137 O   0  0  0  0  0  0  0  0  0  0  0  0
    9.4536  -14.0382   28.6491 C   0  0  0  0  0  0  0  0  0  0  0  0
    8.9380  -15.2650   28.2741 C   0  0  0  0  0  0  0  0  0  0  0  0
    8.2036  -15.3311   27.1058 C   0  0  0  0  0  0  0  0  0  0  0  0
    7.9845  -14.2249   26.3318 C   0  0  0  0  0  0  0  0  0  0  0  0
    7.2257  -14.2424   25.0791 C   0  0  0  0  0  0  0  0  0  0  0  0
    7.9936  -14.7510   23.9528 C   0  0  2  0  0  0  0  0  0  0  0  0
    7.3435  -14.8578   22.6867 N   0  0  0  0  0  0  0  0  0  0  0  0
    8.5886  -16.0674   24.2621 C   0  0  0  0  0  0  0  0  0  0  0  0
    7.9169  -17.1475   24.3588 O   0  0  0  0  0  0  0  0  0  0  0  0
    8.5165  -13.0222   26.7430 C   0  0  0  0  0  0  0  0  0  0  0  0
    9.2570  -12.9111   27.9046 C   0  0  0  0  0  0  0  0  0  0  0  0
   11.6267  -17.6588   23.6136 C   0  0  0  0  0  0  0  0  0  0  0  0
   10.5788  -17.4527   24.6871 C   0  0  2  0  0  0  0  0  0  0  0  0
   10.0014  -16.1451   24.4666 N   0  0  0  0  0  0  0  0  0  0  0  0
   11.1805  -17.5070   26.0379 C   0  0  0  0  0  0  0  0  0  0  0  0
   11.7883  -18.6439   26.5304 O   0  0  0  0  0  0  0  0  0  0  0  0
   11.1457  -16.4942   26.7739 O   0  0  0  0  0  0  0  0  0  0  0  0
  2  1  1  6
  2  4  1  0
  3  2  1  0
  4  6  1  0
  4  5  1  6
  6  7  2  0
  8  9  1  0
  9 10  2  0
  9 19  1  0
 10 11  1  0
 11 12  2  0
 12 13  1  0
 14 13  1  1
 14 16  1  0
 15 14  1  0
 15  6  1  0
 16 17  2  0
 18 12  1  0
 19 18  2  0
 21 20  1  6
 21 23  1  0
 22 21  1  0
 22 16  1  0
 23 25  2  0
 23 24  1  0
M  END
$$$$
