VYA.pdb
     RDKit          3D

 25 25  0  0  1  0  0  0  0  0999 V2000
    9.2265  -15.2238   19.1870 C   0  0  0  0  0  0  0  0  0  0  0  0
    7.7496  -15.0573   19.5121 C   0  0  2  0  0  0  0  0  0  0  0  0
    6.9833  -14.7035   18.2512 C   0  0  0  0  0  0  0  0  0  0  0  0
    7.6407  -13.8699   20.4404 C   0  0  2  0  0  0  0  0  0  0  0  0
    8.2508  -12.7448   19.7916 N   0  0  0  0  0  0  0  0  0  0  0  0
    8.3799  -14.2122   21.6943 C   0  0  0  0  0  0  0  0  0  0  0  0
    9.5466  -13.8235   21.9171 O   0  0  0  0  0  0  0  0  0  0  0  0
    6.4172  -10.3470   27.2896 O   0  0  0  0  0  0  0  0  0  0  0  0
    6.7498  -11.5808   26.7688 C   0  0  0  0  0  0  0  0  0  0  0  0
    8.0819  -11.8638   26.5299 C   0  0  0  0  0  0  0  0  0  0  0  0
    8.3991  -13.1033   26.0084 C   0  0  0  0  0  0  0  0  0  0  0  0
    7.4356  -14.0334   25.7308 C   0  0  0  0  0  0  0  0  0  0  0  0
    7.7158  -15.3553   25.1655 C   0  0  0  0  0  0  0  0  0  0  0  0
    8.4988  -15.2986   23.9405 C   0  0  2  0  0  0  0  0  0  0  0  0
    7.8216  -14.9974   22.7207 N   0  0  0  0  0  0  0  0  0  0  0  0
    9.2585  -16.5486   23.7329 C   0  0  0  0  0  0  0  0  0  0  0  0
    8.7551  -17.6158   23.2482 O   0  0  0  0  0  0  0  0  0  0  0  0
    6.1205  -13.7098   25.9845 C   0  0  0  0  0  0  0  0  0  0  0  0
    5.7588  -12.4821   26.5059 C   0  0  0  0  0  0  0  0  0  0  0  0
   12.7590  -17.4568   23.4648 C   0  0  0  0  0  0  0  0  0  0  0  0
   11.3606  -17.8158   23.9214 C   0  0  2  0  0  0  0  0  0  0  0  0
   10.6416  -16.5728   24.0938 N   0  0  0  0  0  0  0  0  0  0  0  0
   11.3907  -18.5526   25.2044 C   0  0  0  0  0  0  0  0  0  0  0  0
   12.0299  -19.7678   25.3433 O   0  0  0  0  0  0  0  0  0  0  0  0
   10.8208  -18.0707   26.2102 O   0  0  0  0  0  0  0  0  0  0  0  0
  2  1  1  6
  2  4  1  0
  3  2  1  0
  4  6  1  0
  4  5  1  6
  6  7  2  0
  8  9  1  0
  9 10  2  0
  9 19  1  0
 10 11  1  0
 11 12  2  0
 12 13  1  0
 14 13  1  1
 14 16  1  0
 15 14  1  0
 15  6  1  0
 16 17  2  0
 18 12  1  0
 19 18  2  0
 21 20  1  1
 21 23  1  0
 22 21  1  0
 22 16  1  0
 23 25  2  0
 23 24  1  0
M  END
$$$$
