VYA.pdb
     RDKit          3D

 25 25  0  0  1  0  0  0  0  0999 V2000
   13.1331  -17.7650   22.3061 C   0  0  0  0  0  0  0  0  0  0  0  0
   11.9011  -18.6116   22.0232 C   0  0  2  0  0  0  0  0  0  0  0  0
   12.2548  -19.7250   21.0550 C   0  0  0  0  0  0  0  0  0  0  0  0
   10.9104  -17.7144   21.3184 C   0  0  2  0  0  0  0  0  0  0  0  0
   11.5682  -17.1382   20.1806 N   0  0  0  0  0  0  0  0  0  0  0  0
   10.5078  -16.6458   22.2837 C   0  0  0  0  0  0  0  0  0  0  0  0
   11.1910  -15.6169   22.4747 O   0  0  0  0  0  0  0  0  0  0  0  0
    6.1189  -11.1382   27.3681 O   0  0  0  0  0  0  0  0  0  0  0  0
    6.4610  -12.1695   26.5174 C   0  0  0  0  0  0  0  0  0  0  0  0
    7.1751  -11.8755   25.3706 C   0  0  0  0  0  0  0  0  0  0  0  0
    7.5102  -12.9186   24.5289 C   0  0  0  0  0  0  0  0  0  0  0  0
    7.1532  -14.2091   24.8075 C   0  0  0  0  0  0  0  0  0  0  0  0
    7.4709  -15.3486   23.9436 C   0  0  0  0  0  0  0  0  0  0  0  0
    8.8904  -15.6664   23.9161 C   0  0  2  0  0  0  0  0  0  0  0  0
    9.3302  -16.7139   23.0521 N   0  0  0  0  0  0  0  0  0  0  0  0
    9.3988  -15.9619   25.2714 C   0  0  0  0  0  0  0  0  0  0  0  0
    9.5329  -17.1406   25.7404 O   0  0  0  0  0  0  0  0  0  0  0  0
    6.4421  -14.4573   25.9613 C   0  0  0  0  0  0  0  0  0  0  0  0
    6.0864  -13.4441   26.8312 C   0  0  0  0  0  0  0  0  0  0  0  0
   10.8001  -13.8424   27.9961 C   0  0  0  0  0  0  0  0  0  0  0  0
   10.5065  -15.1654   27.3205 C   0  0  2  0  0  0  0  0  0  0  0  0
    9.7652  -14.8674   26.1149 N   0  0  0  0  0  0  0  0  0  0  0  0
    9.6977  -16.0434   28.1949 C   0  0  0  0  0  0  0  0  0  0  0  0
    8.4119  -16.4260   27.8711 O   0  0  0  0  0  0  0  0  0  0  0  0
   10.1818  -16.4636   29.2709 O   0  0  0  0  0  0  0  0  0  0  0  0
  2  1  1  6
  2  4  1  0
  3  2  1  0
  4  6  1  0
  4  5  1  6
  6  7  2  0
  8  9  1  0
  9 10  2  0
  9 19  1  0
 10 11  1  0
 11 12  2  0
 12 13  1  0
 14 13  1  1
 14 16  1  0
 15 14  1  0
 15  6  1  0
 16 17  2  0
 18 12  1  0
 19 18  2  0
 21 20  1  1
 21 23  1  0
 22 21  1  0
 22 16  1  0
 23 25  2  0
 23 24  1  0
M  END
$$$$
