VYA.pdb
     RDKit          3D

 25 25  0  0  1  0  0  0  0  0999 V2000
    7.2523  -13.7349   18.7311 C   0  0  0  0  0  0  0  0  0  0  0  0
    7.3360  -14.3418   20.1236 C   0  0  2  0  0  0  0  0  0  0  0  0
    6.5518  -13.4888   21.1032 C   0  0  0  0  0  0  0  0  0  0  0  0
    8.7864  -14.2703   20.5418 C   0  0  2  0  0  0  0  0  0  0  0  0
    9.5489  -15.0740   19.6297 N   0  0  0  0  0  0  0  0  0  0  0  0
    8.8809  -14.8233   21.9278 C   0  0  0  0  0  0  0  0  0  0  0  0
    9.0757  -16.0361   22.1584 O   0  0  0  0  0  0  0  0  0  0  0  0
   10.7335  -15.9824   30.2332 O   0  0  0  0  0  0  0  0  0  0  0  0
   10.3032  -15.3759   29.0707 C   0  0  0  0  0  0  0  0  0  0  0  0
    9.1674  -14.5886   29.1133 C   0  0  0  0  0  0  0  0  0  0  0  0
    8.7492  -13.9882   27.9415 C   0  0  0  0  0  0  0  0  0  0  0  0
    9.4272  -14.1580   26.7659 C   0  0  0  0  0  0  0  0  0  0  0  0
    9.0198  -13.5560   25.4942 C   0  0  0  0  0  0  0  0  0  0  0  0
    8.9382  -14.5188   24.4064 C   0  0  2  0  0  0  0  0  0  0  0  0
    8.7583  -14.0237   23.0799 N   0  0  0  0  0  0  0  0  0  0  0  0
    7.8813  -15.5204   24.6567 C   0  0  0  0  0  0  0  0  0  0  0  0
    6.6373  -15.2440   24.7134 O   0  0  0  0  0  0  0  0  0  0  0  0
   10.5542  -14.9507   26.7686 C   0  0  0  0  0  0  0  0  0  0  0  0
   11.0079  -15.5699   27.9178 C   0  0  0  0  0  0  0  0  0  0  0  0
    7.1050  -18.8003   24.0494 C   0  0  0  0  0  0  0  0  0  0  0  0
    7.2343  -17.8312   25.2057 C   0  0  2  0  0  0  0  0  0  0  0  0
    8.2667  -16.8837   24.8479 N   0  0  0  0  0  0  0  0  0  0  0  0
    7.6167  -18.5337   26.4507 C   0  0  0  0  0  0  0  0  0  0  0  0
    6.7617  -19.3988   27.1030 O   0  0  0  0  0  0  0  0  0  0  0  0
    8.7528  -18.3481   26.9440 O   0  0  0  0  0  0  0  0  0  0  0  0
  2  1  1  6
  2  4  1  0
  3  2  1  0
  4  6  1  0
  4  5  1  6
  6  7  2  0
  8  9  1  0
  9 10  2  0
  9 19  1  0
 10 11  1  0
 11 12  2  0
 12 13  1  0
 14 13  1  1
 14 16  1  0
 15 14  1  0
 15  6  1  0
 16 17  2  0
 18 12  1  0
 19 18  2  0
 21 20  1  6
 21 23  1  0
 22 21  1  0
 22 16  1  0
 23 25  2  0
 23 24  1  0
M  END
$$$$
