VYA.pdb
     RDKit          3D

 25 25  0  0  1  0  0  0  0  0999 V2000
    9.5385  -19.3253   18.5505 C   0  0  0  0  0  0  0  0  0  0  0  0
    9.5429  -18.6069   19.8915 C   0  0  2  0  0  0  0  0  0  0  0  0
    8.5666  -19.2806   20.8378 C   0  0  0  0  0  0  0  0  0  0  0  0
    9.0186  -17.2124   19.6387 C   0  0  2  0  0  0  0  0  0  0  0  0
    9.8712  -16.5897   18.6668 N   0  0  0  0  0  0  0  0  0  0  0  0
    9.0771  -16.4697   20.9351 C   0  0  0  0  0  0  0  0  0  0  0  0
   10.1386  -16.3144   21.5763 O   0  0  0  0  0  0  0  0  0  0  0  0
    7.4693  -11.8509   28.0831 O   0  0  0  0  0  0  0  0  0  0  0  0
    7.3108  -12.4571   26.8536 C   0  0  0  0  0  0  0  0  0  0  0  0
    6.4012  -13.4917   26.7354 C   0  0  0  0  0  0  0  0  0  0  0  0
    6.2538  -14.0885   25.4982 C   0  0  0  0  0  0  0  0  0  0  0  0
    6.9789  -13.6800   24.4129 C   0  0  0  0  0  0  0  0  0  0  0  0
    6.8711  -14.2865   23.0839 C   0  0  0  0  0  0  0  0  0  0  0  0
    7.9861  -15.1651   22.7646 C   0  0  2  0  0  0  0  0  0  0  0  0
    7.9440  -15.8881   21.5348 N   0  0  0  0  0  0  0  0  0  0  0  0
    8.2260  -16.1402   23.8483 C   0  0  0  0  0  0  0  0  0  0  0  0
    7.4069  -17.0640   24.1693 O   0  0  0  0  0  0  0  0  0  0  0  0
    7.8741  -12.6452   24.5753 C   0  0  0  0  0  0  0  0  0  0  0  0
    8.0530  -12.0200   25.7946 C   0  0  0  0  0  0  0  0  0  0  0  0
   10.9009  -17.8606   25.1068 C   0  0  0  0  0  0  0  0  0  0  0  0
    9.7051  -17.0646   25.5855 C   0  0  2  0  0  0  0  0  0  0  0  0
    9.4467  -16.0508   24.5869 N   0  0  0  0  0  0  0  0  0  0  0  0
    9.9807  -16.4181   26.8877 C   0  0  0  0  0  0  0  0  0  0  0  0
    9.9246  -17.1084   28.0815 O   0  0  0  0  0  0  0  0  0  0  0  0
   10.2770  -15.2018   26.9263 O   0  0  0  0  0  0  0  0  0  0  0  0
  2  1  1  6
  2  4  1  0
  3  2  1  0
  4  6  1  0
  4  5  1  6
  6  7  2  0
  8  9  1  0
  9 10  2  0
  9 19  1  0
 10 11  1  0
 11 12  2  0
 12 13  1  0
 14 13  1  1
 14 16  1  0
 15 14  1  0
 15  6  1  0
 16 17  2  0
 18 12  1  0
 19 18  2  0
 21 20  1  6
 21 23  1  0
 22 21  1  0
 22 16  1  0
 23 25  2  0
 23 24  1  0
M  END
$$$$
