VYA.pdb
     RDKit          3D

 25 25  0  0  1  0  0  0  0  0999 V2000
    6.9598  -12.8286   20.7743 C   0  0  0  0  0  0  0  0  0  0  0  0
    8.3470  -13.2404   20.3047 C   0  0  2  0  0  0  0  0  0  0  0  0
    8.4125  -13.1879   18.7897 C   0  0  0  0  0  0  0  0  0  0  0  0
    8.5283  -14.6869   20.7026 C   0  0  2  0  0  0  0  0  0  0  0  0
    7.4300  -15.4348   20.1608 N   0  0  0  0  0  0  0  0  0  0  0  0
    8.5121  -14.7461   22.1966 C   0  0  0  0  0  0  0  0  0  0  0  0
    7.8938  -13.9168   22.8980 O   0  0  0  0  0  0  0  0  0  0  0  0
    6.5215  -10.7909   27.0733 O   0  0  0  0  0  0  0  0  0  0  0  0
    6.8271  -12.0317   26.5524 C   0  0  0  0  0  0  0  0  0  0  0  0
    7.9468  -12.6922   27.0230 C   0  0  0  0  0  0  0  0  0  0  0  0
    8.2396  -13.9336   26.4918 C   0  0  0  0  0  0  0  0  0  0  0  0
    7.4554  -14.5054   25.5282 C   0  0  0  0  0  0  0  0  0  0  0  0
    7.7278  -15.8110   24.9226 C   0  0  0  0  0  0  0  0  0  0  0  0
    9.0582  -15.9048   24.3411 C   0  0  2  0  0  0  0  0  0  0  0  0
    9.1905  -15.7380   22.9298 N   0  0  0  0  0  0  0  0  0  0  0  0
    9.7119  -17.1791   24.7037 C   0  0  0  0  0  0  0  0  0  0  0  0
    9.3164  -18.3226   24.2996 O   0  0  0  0  0  0  0  0  0  0  0  0
    6.3488  -13.8123   25.0881 C   0  0  0  0  0  0  0  0  0  0  0  0
    6.0189  -12.5686   25.5922 C   0  0  0  0  0  0  0  0  0  0  0  0
   12.9537  -18.2587   25.6523 C   0  0  0  0  0  0  0  0  0  0  0  0
   11.4703  -18.3960   25.9233 C   0  0  2  0  0  0  0  0  0  0  0  0
   10.8572  -17.1379   25.5583 N   0  0  0  0  0  0  0  0  0  0  0  0
   11.2125  -18.6760   27.3533 C   0  0  0  0  0  0  0  0  0  0  0  0
   10.4566  -17.8362   28.1457 O   0  0  0  0  0  0  0  0  0  0  0  0
   11.6897  -19.7076   27.8795 O   0  0  0  0  0  0  0  0  0  0  0  0
  2  1  1  6
  2  4  1  0
  3  2  1  0
  4  6  1  0
  4  5  1  6
  6  7  2  0
  8  9  1  0
  9 10  2  0
  9 19  1  0
 10 11  1  0
 11 12  2  0
 12 13  1  0
 14 13  1  6
 14 16  1  0
 15 14  1  0
 15  6  1  0
 16 17  2  0
 18 12  1  0
 19 18  2  0
 21 20  1  1
 21 23  1  0
 22 21  1  0
 22 16  1  0
 23 25  2  0
 23 24  1  0
M  END
$$$$
