VYA.pdb
     RDKit          3D

 25 25  0  0  1  0  0  0  0  0999 V2000
    8.9510  -18.3656   20.2546 C   0  0  0  0  0  0  0  0  0  0  0  0
    7.6917  -17.5152   20.1813 C   0  0  2  0  0  0  0  0  0  0  0  0
    6.9968  -17.7407   18.8514 C   0  0  0  0  0  0  0  0  0  0  0  0
    8.1403  -16.0724   20.2038 C   0  0  2  0  0  0  0  0  0  0  0  0
    9.0987  -15.8916   19.1512 N   0  0  0  0  0  0  0  0  0  0  0  0
    8.7743  -15.8210   21.5345 C   0  0  0  0  0  0  0  0  0  0  0  0
   10.0096  -15.8801   21.7152 O   0  0  0  0  0  0  0  0  0  0  0  0
   10.4363  -14.2288   29.9166 O   0  0  0  0  0  0  0  0  0  0  0  0
    9.7841  -14.3376   28.7054 C   0  0  0  0  0  0  0  0  0  0  0  0
    9.1661  -15.5331   28.3887 C   0  0  0  0  0  0  0  0  0  0  0  0
    8.5173  -15.6266   27.1726 C   0  0  0  0  0  0  0  0  0  0  0  0
    8.4788  -14.5769   26.2967 C   0  0  0  0  0  0  0  0  0  0  0  0
    7.8173  -14.6272   24.9908 C   0  0  0  0  0  0  0  0  0  0  0  0
    8.6202  -15.2806   23.9683 C   0  0  2  0  0  0  0  0  0  0  0  0
    8.0320  -15.4987   22.6863 N   0  0  0  0  0  0  0  0  0  0  0  0
    9.1431  -16.5770   24.4464 C   0  0  0  0  0  0  0  0  0  0  0  0
    8.4227  -17.6155   24.6193 O   0  0  0  0  0  0  0  0  0  0  0  0
    9.1077  -13.4037   26.6526 C   0  0  0  0  0  0  0  0  0  0  0  0
    9.7680  -13.2668   27.8589 C   0  0  0  0  0  0  0  0  0  0  0  0
   12.1743  -18.2672   24.0427 C   0  0  0  0  0  0  0  0  0  0  0  0
   11.0658  -17.9961   25.0380 C   0  0  2  0  0  0  0  0  0  0  0  0
   10.5393  -16.6835   24.7348 N   0  0  0  0  0  0  0  0  0  0  0  0
   11.5781  -18.0156   26.4261 C   0  0  0  0  0  0  0  0  0  0  0  0
   12.1074  -19.1527   27.0020 O   0  0  0  0  0  0  0  0  0  0  0  0
   11.5376  -16.9719   27.1173 O   0  0  0  0  0  0  0  0  0  0  0  0
  2  1  1  6
  2  4  1  0
  3  2  1  0
  4  6  1  0
  4  5  1  6
  6  7  2  0
  8  9  1  0
  9 10  2  0
  9 19  1  0
 10 11  1  0
 11 12  2  0
 12 13  1  0
 14 13  1  1
 14 16  1  0
 15 14  1  0
 15  6  1  0
 16 17  2  0
 18 12  1  0
 19 18  2  0
 21 20  1  6
 21 23  1  0
 22 21  1  0
 22 16  1  0
 23 25  2  0
 23 24  1  0
M  END
$$$$
