VYA.pdb
     RDKit          3D

 25 25  0  0  1  0  0  0  0  0999 V2000
    7.2620  -13.6516   18.9713 C   0  0  0  0  0  0  0  0  0  0  0  0
    7.4804  -14.3781   20.2901 C   0  0  2  0  0  0  0  0  0  0  0  0
    6.6384  -13.7346   21.3760 C   0  0  0  0  0  0  0  0  0  0  0  0
    8.9270  -14.1627   20.6699 C   0  0  2  0  0  0  0  0  0  0  0  0
    9.7428  -14.8413   19.7039 N   0  0  0  0  0  0  0  0  0  0  0  0
    9.1266  -14.7548   22.0283 C   0  0  0  0  0  0  0  0  0  0  0  0
    9.4429  -15.9513   22.2029 O   0  0  0  0  0  0  0  0  0  0  0  0
   10.9395  -16.1419   30.3453 O   0  0  0  0  0  0  0  0  0  0  0  0
   10.5279  -15.5118   29.1887 C   0  0  0  0  0  0  0  0  0  0  0  0
    9.2516  -14.9825   29.1386 C   0  0  0  0  0  0  0  0  0  0  0  0
    8.8541  -14.3547   27.9739 C   0  0  0  0  0  0  0  0  0  0  0  0
    9.6865  -14.2520   26.8935 C   0  0  0  0  0  0  0  0  0  0  0  0
    9.3109  -13.6095   25.6319 C   0  0  0  0  0  0  0  0  0  0  0  0
    9.2484  -14.5386   24.5139 C   0  0  2  0  0  0  0  0  0  0  0  0
    8.9744  -14.0135   23.2153 N   0  0  0  0  0  0  0  0  0  0  0  0
    8.2773  -15.6216   24.7720 C   0  0  0  0  0  0  0  0  0  0  0  0
    7.0130  -15.4539   24.7950 O   0  0  0  0  0  0  0  0  0  0  0  0
   10.9501  -14.7934   26.9866 C   0  0  0  0  0  0  0  0  0  0  0  0
   11.3886  -15.4296   28.1323 C   0  0  0  0  0  0  0  0  0  0  0  0
    7.6743  -18.8187   24.0527 C   0  0  0  0  0  0  0  0  0  0  0  0
    7.8139  -17.9798   25.3055 C   0  0  2  0  0  0  0  0  0  0  0  0
    8.7754  -16.9401   25.0114 N   0  0  0  0  0  0  0  0  0  0  0  0
    8.2976  -18.7943   26.4423 C   0  0  0  0  0  0  0  0  0  0  0  0
    9.5118  -18.5597   27.0550 O   0  0  0  0  0  0  0  0  0  0  0  0
    7.5928  -19.7340   26.8767 O   0  0  0  0  0  0  0  0  0  0  0  0
  2  1  1  6
  2  4  1  0
  3  2  1  0
  4  6  1  0
  4  5  1  6
  6  7  2  0
  8  9  1  0
  9 10  2  0
  9 19  1  0
 10 11  1  0
 11 12  2  0
 12 13  1  0
 14 13  1  1
 14 16  1  0
 15 14  1  0
 15  6  1  0
 16 17  2  0
 18 12  1  0
 19 18  2  0
 21 20  1  6
 21 23  1  0
 22 21  1  0
 22 16  1  0
 23 25  2  0
 23 24  1  0
M  END
$$$$
