TPF.pdb
     RDKit          3D

 26 27  0  0  1  0  0  0  0  0999 V2000
    9.5987  -19.6839   19.5557 C   0  0  0  0  0  0  0  0  0  0  0  0
    8.6212  -18.5339   19.7028 C   0  0  1  0  0  0  0  0  0  0  0  0
    7.8816  -18.6173   20.8725 O   0  0  0  0  0  0  0  0  0  0  0  0
    9.2909  -17.1899   19.5304 C   0  0  2  0  0  0  0  0  0  0  0  0
    9.9871  -16.9069   20.7647 N   0  0  0  0  0  0  0  0  0  0  0  0
    8.3261  -16.1112   19.2518 C   0  0  0  0  0  0  0  0  0  0  0  0
    7.6058  -16.2848   18.2072 O   0  0  0  0  0  0  0  0  0  0  0  0
    8.1228  -14.9453   19.9953 N   0  0  0  0  0  0  0  0  0  0  0  0
    7.3173  -13.8176   19.5800 C   0  0  0  0  0  0  0  0  0  0  0  0
    7.3462  -12.7974   20.6777 C   0  0  0  0  0  0  0  0  0  0  0  0
    8.6174  -13.1305   21.4230 C   0  0  0  0  0  0  0  0  0  0  0  0
    8.6636  -14.6380   21.3022 C   0  0  1  0  0  0  0  0  0  0  0  0
    7.9815  -15.3407   22.3896 C   0  0  0  0  0  0  0  0  0  0  0  0
    6.7346  -15.1498   22.5069 O   0  0  0  0  0  0  0  0  0  0  0  0
    8.5872  -16.2072   23.3139 N   0  0  0  0  0  0  0  0  0  0  0  0
    9.2912  -15.7528   24.5274 C   0  0  1  0  0  0  0  0  0  0  0  0
    9.4469  -14.2697   24.5298 C   0  0  0  0  0  0  0  0  0  0  0  0
    8.3724  -13.6318   25.2918 C   0  0  0  0  0  0  0  0  0  0  0  0
    7.1098  -13.5594   24.7528 C   0  0  0  0  0  0  0  0  0  0  0  0
    6.0919  -12.9742   25.4710 C   0  0  0  0  0  0  0  0  0  0  0  0
    6.2741  -12.4424   26.7352 C   0  0  0  0  0  0  0  0  0  0  0  0
    7.5405  -12.5092   27.2884 C   0  0  0  0  0  0  0  0  0  0  0  0
    8.5562  -13.0961   26.5652 C   0  0  0  0  0  0  0  0  0  0  0  0
    8.6959  -16.3206   25.7299 C   0  0  0  0  0  0  0  0  0  0  0  0
    9.1167  -16.0475   27.0149 O   0  0  0  0  0  0  0  0  0  0  0  0
    7.7135  -17.1343   25.6356 O   0  0  0  0  0  0  0  0  0  0  0  0
  2  4  1  0
  2  1  1  1
  3  2  1  0
  4  6  1  0
  4  5  1  1
  6  8  1  0
  7  6  2  0
  8 12  1  0
  8  9  1  0
  9 10  1  0
 11 10  1  0
 12 11  1  0
 13 15  1  0
 12 13  1  1
 14 13  2  0
 16 15  1  0
 16 24  1  0
 16 17  1  1
 18 23  1  0
 18 17  1  0
 19 18  2  0
 20 21  2  0
 20 19  1  0
 21 22  1  0
 22 23  2  0
 24 25  1  0
 26 24  2  0
M  END
$$$$
