TPF.pdb
     RDKit          3D

 26 27  0  0  1  0  0  0  0  0999 V2000
    3.1659  -17.9683   21.0603 C   0  0  0  0  0  0  0  0  0  0  0  0
    4.4978  -17.3692   21.4684 C   0  0  1  0  0  0  0  0  0  0  0  0
    4.9670  -17.8925   22.6635 O   0  0  0  0  0  0  0  0  0  0  0  0
    5.5207  -17.4419   20.3581 C   0  0  2  0  0  0  0  0  0  0  0  0
    5.6948  -18.8406   20.0392 N   0  0  0  0  0  0  0  0  0  0  0  0
    6.8180  -16.8615   20.7481 C   0  0  0  0  0  0  0  0  0  0  0  0
    7.6585  -17.6939   21.2389 O   0  0  0  0  0  0  0  0  0  0  0  0
    7.2142  -15.5256   20.6388 N   0  0  0  0  0  0  0  0  0  0  0  0
    6.3576  -14.4281   20.2455 C   0  0  0  0  0  0  0  0  0  0  0  0
    7.1700  -13.1690   20.2829 C   0  0  0  0  0  0  0  0  0  0  0  0
    8.5879  -13.6705   20.1406 C   0  0  0  0  0  0  0  0  0  0  0  0
    8.5314  -14.9823   20.8926 C   0  0  1  0  0  0  0  0  0  0  0  0
    8.8421  -14.8620   22.3176 C   0  0  0  0  0  0  0  0  0  0  0  0
    8.0942  -14.1090   23.0093 O   0  0  0  0  0  0  0  0  0  0  0  0
    9.8957  -15.5073   22.9851 N   0  0  0  0  0  0  0  0  0  0  0  0
   10.3106  -15.1917   24.3646 C   0  0  1  0  0  0  0  0  0  0  0  0
    9.1421  -15.2124   25.2909 C   0  0  0  0  0  0  0  0  0  0  0  0
    9.5525  -14.8909   26.6585 C   0  0  0  0  0  0  0  0  0  0  0  0
    9.4757  -13.5918   27.1017 C   0  0  0  0  0  0  0  0  0  0  0  0
    9.8459  -13.2861   28.3917 C   0  0  0  0  0  0  0  0  0  0  0  0
   10.3017  -14.2367   29.2875 C   0  0  0  0  0  0  0  0  0  0  0  0
   10.3836  -15.5478   28.8532 C   0  0  0  0  0  0  0  0  0  0  0  0
   10.0117  -15.8488   27.5608 C   0  0  0  0  0  0  0  0  0  0  0  0
   11.4481  -16.0043   24.7754 C   0  0  0  0  0  0  0  0  0  0  0  0
   11.5540  -17.3638   24.5671 O   0  0  0  0  0  0  0  0  0  0  0  0
   12.4394  -15.4622   25.3750 O   0  0  0  0  0  0  0  0  0  0  0  0
  2  4  1  0
  2  1  1  6
  3  2  1  0
  4  6  1  0
  4  5  1  1
  6  8  1  0
  7  6  2  0
  8 12  1  0
  8  9  1  0
  9 10  1  0
 11 10  1  0
 12 11  1  0
 13 15  1  0
 12 13  1  1
 14 13  2  0
 16 15  1  0
 16 24  1  0
 16 17  1  1
 18 23  1  0
 18 17  1  0
 19 18  2  0
 20 21  2  0
 20 19  1  0
 21 22  1  0
 22 23  2  0
 24 25  1  0
 26 24  2  0
M  END
$$$$
