TPF.pdb
     RDKit          3D

 26 27  0  0  1  0  0  0  0  0999 V2000
    5.3056  -17.8956   22.8276 C   0  0  0  0  0  0  0  0  0  0  0  0
    5.7988  -18.6408   21.6024 C   0  0  1  0  0  0  0  0  0  0  0  0
    4.8506  -19.5208   21.1037 O   0  0  0  0  0  0  0  0  0  0  0  0
    6.3404  -17.7060   20.5454 C   0  0  2  0  0  0  0  0  0  0  0  0
    6.6946  -18.5215   19.4061 N   0  0  0  0  0  0  0  0  0  0  0  0
    7.5267  -16.9621   21.0052 C   0  0  0  0  0  0  0  0  0  0  0  0
    8.6040  -17.6509   21.0770 O   0  0  0  0  0  0  0  0  0  0  0  0
    7.5928  -15.6124   21.3624 N   0  0  0  0  0  0  0  0  0  0  0  0
    6.4599  -14.7197   21.4736 C   0  0  0  0  0  0  0  0  0  0  0  0
    6.9680  -13.3767   21.9036 C   0  0  0  0  0  0  0  0  0  0  0  0
    8.4145  -13.4011   21.4686 C   0  0  0  0  0  0  0  0  0  0  0  0
    8.7812  -14.8528   21.6872 C   0  0  1  0  0  0  0  0  0  0  0  0
    9.3012  -15.1375   23.0250 C   0  0  0  0  0  0  0  0  0  0  0  0
   10.4798  -14.7491   23.2803 O   0  0  0  0  0  0  0  0  0  0  0  0
    8.6094  -15.8029   24.0500 N   0  0  0  0  0  0  0  0  0  0  0  0
    9.1835  -16.0890   25.3779 C   0  0  1  0  0  0  0  0  0  0  0  0
    9.5907  -14.8299   26.0655 C   0  0  0  0  0  0  0  0  0  0  0  0
    8.4227  -14.0113   26.3937 C   0  0  0  0  0  0  0  0  0  0  0  0
    8.6002  -12.7149   26.8153 C   0  0  0  0  0  0  0  0  0  0  0  0
    7.5048  -11.9356   27.1108 C   0  0  0  0  0  0  0  0  0  0  0  0
    6.2046  -12.3963   27.0043 C   0  0  0  0  0  0  0  0  0  0  0  0
    6.0130  -13.6995   26.5810 C   0  0  0  0  0  0  0  0  0  0  0  0
    7.1130  -14.4757   26.2863 C   0  0  0  0  0  0  0  0  0  0  0  0
    8.3190  -16.9713   26.1506 C   0  0  0  0  0  0  0  0  0  0  0  0
    8.6747  -17.5678   27.3424 O   0  0  0  0  0  0  0  0  0  0  0  0
    7.1405  -17.2407   25.7325 O   0  0  0  0  0  0  0  0  0  0  0  0
  2  4  1  0
  2  1  1  1
  3  2  1  0
  4  6  1  0
  4  5  1  6
  6  8  1  0
  7  6  2  0
  8 12  1  0
  8  9  1  0
  9 10  1  0
 11 10  1  0
 12 11  1  0
 13 15  1  0
 12 13  1  1
 14 13  2  0
 16 15  1  0
 16 24  1  0
 16 17  1  1
 18 23  1  0
 18 17  1  0
 19 18  2  0
 20 21  2  0
 20 19  1  0
 21 22  1  0
 22 23  2  0
 24 25  1  0
 26 24  2  0
M  END
$$$$
