TPF.pdb
     RDKit          3D

 26 27  0  0  1  0  0  0  0  0999 V2000
    6.0115  -18.5992   23.9230 C   0  0  0  0  0  0  0  0  0  0  0  0
    6.3563  -19.3650   22.6604 C   0  0  1  0  0  0  0  0  0  0  0  0
    5.4833  -20.4164   22.4268 O   0  0  0  0  0  0  0  0  0  0  0  0
    6.5066  -18.4544   21.4635 C   0  0  2  0  0  0  0  0  0  0  0  0
    6.7297  -19.3037   20.3158 N   0  0  0  0  0  0  0  0  0  0  0  0
    7.6341  -17.5162   21.6073 C   0  0  0  0  0  0  0  0  0  0  0  0
    8.7947  -18.0575   21.5937 O   0  0  0  0  0  0  0  0  0  0  0  0
    7.5659  -16.1278   21.7534 N   0  0  0  0  0  0  0  0  0  0  0  0
    6.3481  -15.3603   21.8978 C   0  0  0  0  0  0  0  0  0  0  0  0
    6.7245  -13.9177   22.0523 C   0  0  0  0  0  0  0  0  0  0  0  0
    8.0953  -13.8506   21.4209 C   0  0  0  0  0  0  0  0  0  0  0  0
    8.6749  -15.1985   21.7905 C   0  0  1  0  0  0  0  0  0  0  0  0
    9.3921  -15.2054   23.0660 C   0  0  0  0  0  0  0  0  0  0  0  0
   10.5105  -14.6113   23.1019 O   0  0  0  0  0  0  0  0  0  0  0  0
    8.9501  -15.8121   24.2528 N   0  0  0  0  0  0  0  0  0  0  0  0
    9.7282  -15.8313   25.5054 C   0  0  1  0  0  0  0  0  0  0  0  0
    9.9477  -14.4482   26.0181 C   0  0  0  0  0  0  0  0  0  0  0  0
    8.6729  -13.7750   26.2706 C   0  0  0  0  0  0  0  0  0  0  0  0
    7.4984  -14.4786   26.1459 C   0  0  0  0  0  0  0  0  0  0  0  0
    6.2974  -13.8547   26.3969 C   0  0  0  0  0  0  0  0  0  0  0  0
    6.2053  -12.5276   26.7764 C   0  0  0  0  0  0  0  0  0  0  0  0
    7.3805  -11.8088   26.9053 C   0  0  0  0  0  0  0  0  0  0  0  0
    8.5804  -12.4380   26.6529 C   0  0  0  0  0  0  0  0  0  0  0  0
    9.1648  -16.7715   26.4654 C   0  0  0  0  0  0  0  0  0  0  0  0
    8.0194  -17.5111   26.2560 O   0  0  0  0  0  0  0  0  0  0  0  0
    9.7378  -16.9550   27.5942 O   0  0  0  0  0  0  0  0  0  0  0  0
  2  4  1  0
  2  1  1  1
  3  2  1  0
  4  6  1  0
  4  5  1  6
  6  8  1  0
  7  6  2  0
  8 12  1  0
  8  9  1  0
  9 10  1  0
 11 10  1  0
 12 11  1  0
 13 15  1  0
 12 13  1  1
 14 13  2  0
 16 15  1  0
 16 24  1  0
 16 17  1  1
 18 23  1  0
 18 17  1  0
 19 18  2  0
 20 21  2  0
 20 19  1  0
 21 22  1  0
 22 23  2  0
 24 25  1  0
 26 24  2  0
M  END
$$$$
