TPF.pdb
     RDKit          3D

 26 27  0  0  1  0  0  0  0  0999 V2000
    8.1609  -17.3751   16.5140 C   0  0  0  0  0  0  0  0  0  0  0  0
    8.9815  -16.5768   15.5196 C   0  0  1  0  0  0  0  0  0  0  0  0
    8.7363  -16.9566   14.2089 O   0  0  0  0  0  0  0  0  0  0  0  0
    8.8431  -15.0867   15.7310 C   0  0  2  0  0  0  0  0  0  0  0  0
    9.5382  -14.4420   14.6403 N   0  0  0  0  0  0  0  0  0  0  0  0
    9.4206  -14.6433   17.0124 C   0  0  0  0  0  0  0  0  0  0  0  0
   10.6988  -14.6904   17.0759 O   0  0  0  0  0  0  0  0  0  0  0  0
    8.7300  -14.1871   18.1387 N   0  0  0  0  0  0  0  0  0  0  0  0
    7.2999  -13.9836   18.2180 C   0  0  0  0  0  0  0  0  0  0  0  0
    6.9740  -13.5153   19.6040 C   0  0  0  0  0  0  0  0  0  0  0  0
    8.2796  -12.9254   20.0833 C   0  0  0  0  0  0  0  0  0  0  0  0
    9.2932  -13.8354   19.4247 C   0  0  1  0  0  0  0  0  0  0  0  0
    9.6581  -14.9992   20.2334 C   0  0  0  0  0  0  0  0  0  0  0  0
    9.1458  -16.1112   19.9079 O   0  0  0  0  0  0  0  0  0  0  0  0
   10.5255  -14.9917   21.3378 N   0  0  0  0  0  0  0  0  0  0  0  0
   11.1973  -16.1947   21.8634 C   0  0  1  0  0  0  0  0  0  0  0  0
   11.9370  -16.9077   20.7824 C   0  0  0  0  0  0  0  0  0  0  0  0
   12.9442  -16.0368   20.1749 C   0  0  0  0  0  0  0  0  0  0  0  0
   13.9214  -15.4773   20.9637 C   0  0  0  0  0  0  0  0  0  0  0  0
   14.8801  -14.6697   20.3955 C   0  0  0  0  0  0  0  0  0  0  0  0
   14.9152  -14.3834   19.0424 C   0  0  0  0  0  0  0  0  0  0  0  0
   13.9371  -14.9406   18.2380 C   0  0  0  0  0  0  0  0  0  0  0  0
   12.9793  -15.7485   18.8118 C   0  0  0  0  0  0  0  0  0  0  0  0
   11.9760  -15.8887   23.0563 C   0  0  0  0  0  0  0  0  0  0  0  0
   12.1211  -14.6264   23.5932 O   0  0  0  0  0  0  0  0  0  0  0  0
   12.5854  -16.8240   23.6809 O   0  0  0  0  0  0  0  0  0  0  0  0
  2  4  1  0
  2  1  1  1
  3  2  1  0
  4  6  1  0
  4  5  1  6
  6  8  1  0
  7  6  2  0
  8 12  1  0
  8  9  1  0
  9 10  1  0
 11 10  1  0
 12 11  1  0
 13 15  1  0
 12 13  1  1
 14 13  2  0
 16 15  1  0
 16 24  1  0
 16 17  1  6
 18 23  1  0
 18 17  1  0
 19 18  2  0
 20 21  2  0
 20 19  1  0
 21 22  1  0
 22 23  2  0
 24 25  1  0
 26 24  2  0
M  END
$$$$
