TPF.pdb
     RDKit          3D

 26 27  0  0  1  0  0  0  0  0999 V2000
   10.6889  -13.5873   19.7198 C   0  0  0  0  0  0  0  0  0  0  0  0
    9.4122  -12.9899   19.1608 C   0  0  1  0  0  0  0  0  0  0  0  0
    9.6334  -12.2671   17.9985 O   0  0  0  0  0  0  0  0  0  0  0  0
    8.3187  -14.0219   19.0069 C   0  0  2  0  0  0  0  0  0  0  0  0
    7.1611  -13.3318   18.4850 N   0  0  0  0  0  0  0  0  0  0  0  0
    7.9705  -14.6688   20.2845 C   0  0  0  0  0  0  0  0  0  0  0  0
    7.3608  -13.9178   21.1238 O   0  0  0  0  0  0  0  0  0  0  0  0
    8.2325  -15.9884   20.6636 N   0  0  0  0  0  0  0  0  0  0  0  0
    8.8581  -16.9905   19.8285 C   0  0  0  0  0  0  0  0  0  0  0  0
    8.9729  -18.2538   20.6269 C   0  0  0  0  0  0  0  0  0  0  0  0
    7.9002  -18.0945   21.6786 C   0  0  0  0  0  0  0  0  0  0  0  0
    7.9388  -16.6046   21.9398 C   0  0  1  0  0  0  0  0  0  0  0  0
    8.8697  -16.2126   22.9986 C   0  0  0  0  0  0  0  0  0  0  0  0
   10.0522  -15.9223   22.6485 O   0  0  0  0  0  0  0  0  0  0  0  0
    8.5680  -16.1302   24.3676 N   0  0  0  0  0  0  0  0  0  0  0  0
    9.5111  -15.6383   25.3890 C   0  0  1  0  0  0  0  0  0  0  0  0
    9.5926  -14.1494   25.3668 C   0  0  0  0  0  0  0  0  0  0  0  0
    8.3268  -13.5494   25.7909 C   0  0  0  0  0  0  0  0  0  0  0  0
    7.3551  -13.2844   24.8552 C   0  0  0  0  0  0  0  0  0  0  0  0
    6.1569  -12.7343   25.2503 C   0  0  0  0  0  0  0  0  0  0  0  0
    5.8701  -12.4263   26.5682 C   0  0  0  0  0  0  0  0  0  0  0  0
    6.8402  -12.6884   27.5193 C   0  0  0  0  0  0  0  0  0  0  0  0
    8.0382  -13.2392   27.1186 C   0  0  0  0  0  0  0  0  0  0  0  0
    9.2375  -16.2297   26.6922 C   0  0  0  0  0  0  0  0  0  0  0  0
    8.1287  -16.9958   26.9862 O   0  0  0  0  0  0  0  0  0  0  0  0
   10.0537  -16.0515   27.6608 O   0  0  0  0  0  0  0  0  0  0  0  0
  2  4  1  0
  2  1  1  6
  3  2  1  0
  4  6  1  0
  4  5  1  1
  6  8  1  0
  7  6  2  0
  8 12  1  0
  8  9  1  0
  9 10  1  0
 11 10  1  0
 12 11  1  0
 13 15  1  0
 12 13  1  1
 14 13  2  0
 16 15  1  0
 16 24  1  0
 16 17  1  1
 18 23  1  0
 18 17  1  0
 19 18  2  0
 20 21  2  0
 20 19  1  0
 21 22  1  0
 22 23  2  0
 24 25  1  0
 26 24  2  0
M  END
$$$$
