TPF.pdb
     RDKit          3D

 26 27  0  0  1  0  0  0  0  0999 V2000
   11.1221  -15.0149   19.4305 C   0  0  0  0  0  0  0  0  0  0  0  0
   10.4687  -13.7110   19.0152 C   0  0  1  0  0  0  0  0  0  0  0  0
   11.0744  -13.1492   17.9018 O   0  0  0  0  0  0  0  0  0  0  0  0
    8.9716  -13.8472   18.8587 C   0  0  2  0  0  0  0  0  0  0  0  0
    8.4724  -12.5520   18.4566 N   0  0  0  0  0  0  0  0  0  0  0  0
    8.3098  -14.2628   20.1082 C   0  0  0  0  0  0  0  0  0  0  0  0
    8.1956  -13.3436   20.9926 O   0  0  0  0  0  0  0  0  0  0  0  0
    7.8059  -15.5292   20.4179 N   0  0  0  0  0  0  0  0  0  0  0  0
    7.8915  -16.6953   19.5659 C   0  0  0  0  0  0  0  0  0  0  0  0
    7.2525  -17.8440   20.2861 C   0  0  0  0  0  0  0  0  0  0  0  0
    6.3270  -17.1628   21.2667 C   0  0  0  0  0  0  0  0  0  0  0  0
    7.1135  -15.9214   21.6268 C   0  0  1  0  0  0  0  0  0  0  0  0
    8.0064  -16.0975   22.7728 C   0  0  0  0  0  0  0  0  0  0  0  0
    9.1325  -16.6333   22.5495 O   0  0  0  0  0  0  0  0  0  0  0  0
    7.7250  -15.7252   24.0972 N   0  0  0  0  0  0  0  0  0  0  0  0
    8.6990  -15.8147   25.2008 C   0  0  1  0  0  0  0  0  0  0  0  0
    9.1578  -14.4586   25.6185 C   0  0  0  0  0  0  0  0  0  0  0  0
    8.0287  -13.6341   26.0513 C   0  0  0  0  0  0  0  0  0  0  0  0
    7.8425  -13.3890   27.3912 C   0  0  0  0  0  0  0  0  0  0  0  0
    6.7912  -12.6019   27.8029 C   0  0  0  0  0  0  0  0  0  0  0  0
    5.8905  -12.0305   26.9218 C   0  0  0  0  0  0  0  0  0  0  0  0
    6.0673  -12.2699   25.5706 C   0  0  0  0  0  0  0  0  0  0  0  0
    7.1215  -13.0587   25.1634 C   0  0  0  0  0  0  0  0  0  0  0  0
    8.2060  -16.6659   26.2757 C   0  0  0  0  0  0  0  0  0  0  0  0
    8.9716  -17.1149   27.3316 O   0  0  0  0  0  0  0  0  0  0  0  0
    6.9856  -17.0492   26.2808 O   0  0  0  0  0  0  0  0  0  0  0  0
  2  4  1  0
  2  1  1  6
  3  2  1  0
  4  6  1  0
  4  5  1  1
  6  8  1  0
  7  6  2  0
  8 12  1  0
  8  9  1  0
  9 10  1  0
 11 10  1  0
 12 11  1  0
 13 15  1  0
 12 13  1  1
 14 13  2  0
 16 15  1  0
 16 24  1  0
 16 17  1  1
 18 23  1  0
 18 17  1  0
 19 18  2  0
 20 21  2  0
 20 19  1  0
 21 22  1  0
 22 23  2  0
 24 25  1  0
 26 24  2  0
M  END
$$$$
