TPF.pdb
     RDKit          3D

 26 27  0  0  1  0  0  0  0  0999 V2000
   10.8005  -15.2271   18.9402 C   0  0  0  0  0  0  0  0  0  0  0  0
   10.1824  -13.8781   18.6272 C   0  0  1  0  0  0  0  0  0  0  0  0
   10.6557  -13.3448   17.4382 O   0  0  0  0  0  0  0  0  0  0  0  0
    8.6728  -13.9133   18.6910 C   0  0  2  0  0  0  0  0  0  0  0  0
    8.2087  -12.5803   18.3809 N   0  0  0  0  0  0  0  0  0  0  0  0
    8.1740  -14.3108   20.0196 C   0  0  0  0  0  0  0  0  0  0  0  0
    8.2205  -13.3938   20.9125 O   0  0  0  0  0  0  0  0  0  0  0  0
    7.6671  -15.5582   20.3946 N   0  0  0  0  0  0  0  0  0  0  0  0
    7.6774  -16.7476   19.5711 C   0  0  0  0  0  0  0  0  0  0  0  0
    7.0637  -17.8640   20.3608 C   0  0  0  0  0  0  0  0  0  0  0  0
    6.2143  -17.1388   21.3781 C   0  0  0  0  0  0  0  0  0  0  0  0
    7.0448  -15.9046   21.6545 C   0  0  1  0  0  0  0  0  0  0  0  0
    8.0043  -16.0687   22.7471 C   0  0  0  0  0  0  0  0  0  0  0  0
    9.1049  -16.6309   22.4685 O   0  0  0  0  0  0  0  0  0  0  0  0
    7.8126  -15.6582   24.0763 N   0  0  0  0  0  0  0  0  0  0  0  0
    8.8558  -15.7269   25.1164 C   0  0  1  0  0  0  0  0  0  0  0  0
    9.2952  -14.3608   25.5222 C   0  0  0  0  0  0  0  0  0  0  0  0
    8.1556  -13.5520   25.9572 C   0  0  0  0  0  0  0  0  0  0  0  0
    7.9428  -13.3471   27.2999 C   0  0  0  0  0  0  0  0  0  0  0  0
    6.8815  -12.5748   27.7142 C   0  0  0  0  0  0  0  0  0  0  0  0
    5.9965  -11.9797   26.8330 C   0  0  0  0  0  0  0  0  0  0  0  0
    6.2001  -12.1786   25.4790 C   0  0  0  0  0  0  0  0  0  0  0  0
    7.2641  -12.9526   25.0692 C   0  0  0  0  0  0  0  0  0  0  0  0
    8.4587  -16.6058   26.2086 C   0  0  0  0  0  0  0  0  0  0  0  0
    9.2970  -17.0222   27.2218 O   0  0  0  0  0  0  0  0  0  0  0  0
    7.2598  -17.0472   26.2721 O   0  0  0  0  0  0  0  0  0  0  0  0
  2  4  1  0
  2  1  1  6
  3  2  1  0
  4  6  1  0
  4  5  1  1
  6  8  1  0
  7  6  2  0
  8 12  1  0
  8  9  1  0
  9 10  1  0
 11 10  1  0
 12 11  1  0
 13 15  1  0
 12 13  1  1
 14 13  2  0
 16 15  1  0
 16 24  1  0
 16 17  1  1
 18 23  1  0
 18 17  1  0
 19 18  2  0
 20 21  2  0
 20 19  1  0
 21 22  1  0
 22 23  2  0
 24 25  1  0
 26 24  2  0
M  END
$$$$
