TPF.pdb
     RDKit          3D

 26 27  0  0  1  0  0  0  0  0999 V2000
    5.7086  -18.0309   23.4497 C   0  0  0  0  0  0  0  0  0  0  0  0
    6.0292  -18.9104   22.2567 C   0  0  1  0  0  0  0  0  0  0  0  0
    5.0173  -19.8180   21.9840 O   0  0  0  0  0  0  0  0  0  0  0  0
    6.4314  -18.1031   21.0439 C   0  0  2  0  0  0  0  0  0  0  0  0
    6.6653  -19.0441   19.9724 N   0  0  0  0  0  0  0  0  0  0  0  0
    7.6508  -17.3083   21.2751 C   0  0  0  0  0  0  0  0  0  0  0  0
    8.7377  -17.9842   21.3202 O   0  0  0  0  0  0  0  0  0  0  0  0
    7.7386  -15.9239   21.4458 N   0  0  0  0  0  0  0  0  0  0  0  0
    6.6142  -15.0160   21.5131 C   0  0  0  0  0  0  0  0  0  0  0  0
    7.1478  -13.6318   21.7273 C   0  0  0  0  0  0  0  0  0  0  0  0
    8.5621  -13.7239   21.2045 C   0  0  0  0  0  0  0  0  0  0  0  0
    8.9448  -15.1367   21.5880 C   0  0  1  0  0  0  0  0  0  0  0  0
    9.5533  -15.2463   22.9142 C   0  0  0  0  0  0  0  0  0  0  0  0
   10.6672  -14.6682   23.0873 O   0  0  0  0  0  0  0  0  0  0  0  0
    9.0116  -15.9356   24.0113 N   0  0  0  0  0  0  0  0  0  0  0  0
    9.5789  -15.8906   25.3718 C   0  0  1  0  0  0  0  0  0  0  0  0
    9.6763  -14.4859   25.8629 C   0  0  0  0  0  0  0  0  0  0  0  0
    8.3525  -13.9508   26.1845 C   0  0  0  0  0  0  0  0  0  0  0  0
    8.2481  -12.8243   26.9656 C   0  0  0  0  0  0  0  0  0  0  0  0
    7.0065  -12.3078   27.2588 C   0  0  0  0  0  0  0  0  0  0  0  0
    5.8303  -12.8734   26.7999 C   0  0  0  0  0  0  0  0  0  0  0  0
    5.9223  -14.0076   26.0128 C   0  0  0  0  0  0  0  0  0  0  0  0
    7.1678  -14.5209   25.7221 C   0  0  0  0  0  0  0  0  0  0  0  0
    8.8940  -16.8179   26.2629 C   0  0  0  0  0  0  0  0  0  0  0  0
    7.7969  -17.5760   25.9097 O   0  0  0  0  0  0  0  0  0  0  0  0
    9.3026  -16.9710   27.4652 O   0  0  0  0  0  0  0  0  0  0  0  0
  2  4  1  0
  2  1  1  1
  3  2  1  0
  4  6  1  0
  4  5  1  6
  6  8  1  0
  7  6  2  0
  8 12  1  0
  8  9  1  0
  9 10  1  0
 11 10  1  0
 12 11  1  0
 13 15  1  0
 12 13  1  1
 14 13  2  0
 16 15  1  0
 16 24  1  0
 16 17  1  1
 18 23  1  0
 18 17  1  0
 19 18  2  0
 20 21  2  0
 20 19  1  0
 21 22  1  0
 22 23  2  0
 24 25  1  0
 26 24  2  0
M  END
$$$$
