TPF.pdb
     RDKit          3D

 26 27  0  0  1  0  0  0  0  0999 V2000
    6.1121  -19.0835   18.2920 C   0  0  0  0  0  0  0  0  0  0  0  0
    6.8232  -18.2653   19.3524 C   0  0  1  0  0  0  0  0  0  0  0  0
    7.3984  -19.0592   20.3328 O   0  0  0  0  0  0  0  0  0  0  0  0
    7.7992  -17.2790   18.7533 C   0  0  2  0  0  0  0  0  0  0  0  0
    8.7933  -18.0512   18.0434 N   0  0  0  0  0  0  0  0  0  0  0  0
    8.4600  -16.4483   19.7756 C   0  0  0  0  0  0  0  0  0  0  0  0
    9.4574  -16.9995   20.3600 O   0  0  0  0  0  0  0  0  0  0  0  0
    8.1160  -15.1499   20.1624 N   0  0  0  0  0  0  0  0  0  0  0  0
    6.9740  -14.4067   19.6763 C   0  0  0  0  0  0  0  0  0  0  0  0
    6.9608  -13.0746   20.3632 C   0  0  0  0  0  0  0  0  0  0  0  0
    8.4009  -12.8886   20.7801 C   0  0  0  0  0  0  0  0  0  0  0  0
    8.8162  -14.3063   21.1073 C   0  0  1  0  0  0  0  0  0  0  0  0
    8.5846  -14.6846   22.5018 C   0  0  0  0  0  0  0  0  0  0  0  0
    7.4282  -15.1074   22.8002 O   0  0  0  0  0  0  0  0  0  0  0  0
    9.5306  -14.6203   23.5376 N   0  0  0  0  0  0  0  0  0  0  0  0
    9.2647  -15.0540   24.9218 C   0  0  1  0  0  0  0  0  0  0  0  0
    7.8002  -15.1980   25.1635 C   0  0  0  0  0  0  0  0  0  0  0  0
    7.2603  -14.0116   25.8291 C   0  0  0  0  0  0  0  0  0  0  0  0
    5.9025  -13.8945   26.0097 C   0  0  0  0  0  0  0  0  0  0  0  0
    5.3903  -12.7881   26.6484 C   0  0  0  0  0  0  0  0  0  0  0  0
    6.1855  -11.7635   27.1299 C   0  0  0  0  0  0  0  0  0  0  0  0
    7.5537  -11.8698   26.9541 C   0  0  0  0  0  0  0  0  0  0  0  0
    8.0617  -12.9795   26.3140 C   0  0  0  0  0  0  0  0  0  0  0  0
   10.0739  -16.2117   25.2795 C   0  0  0  0  0  0  0  0  0  0  0  0
   10.4994  -16.5033   26.5589 O   0  0  0  0  0  0  0  0  0  0  0  0
   10.4396  -17.0413   24.3772 O   0  0  0  0  0  0  0  0  0  0  0  0
  2  4  1  0
  2  1  1  6
  3  2  1  0
  4  6  1  0
  4  5  1  1
  6  8  1  0
  7  6  2  0
  8 12  1  0
  8  9  1  0
  9 10  1  0
 11 10  1  0
 12 11  1  0
 13 15  1  0
 12 13  1  1
 14 13  2  0
 16 15  1  0
 16 24  1  0
 16 17  1  6
 18 23  1  0
 18 17  1  0
 19 18  2  0
 20 21  2  0
 20 19  1  0
 21 22  1  0
 22 23  2  0
 24 25  1  0
 26 24  2  0
M  END
$$$$
