TPF.pdb
     RDKit          3D

 26 27  0  0  1  0  0  0  0  0999 V2000
    9.5151  -20.3374   21.9785 C   0  0  0  0  0  0  0  0  0  0  0  0
    8.8851  -19.7299   20.7401 C   0  0  1  0  0  0  0  0  0  0  0  0
    8.2951  -20.6850   19.9265 O   0  0  0  0  0  0  0  0  0  0  0  0
    7.9500  -18.5908   21.0756 C   0  0  2  0  0  0  0  0  0  0  0  0
    7.1637  -18.3311   19.8912 N   0  0  0  0  0  0  0  0  0  0  0  0
    8.6710  -17.3659   21.4652 C   0  0  0  0  0  0  0  0  0  0  0  0
    9.9268  -17.5171   21.6664 O   0  0  0  0  0  0  0  0  0  0  0  0
    8.1350  -16.0861   21.6333 N   0  0  0  0  0  0  0  0  0  0  0  0
    6.7403  -15.7356   21.4760 C   0  0  0  0  0  0  0  0  0  0  0  0
    6.5932  -14.2734   21.7712 C   0  0  0  0  0  0  0  0  0  0  0  0
    7.9821  -13.7320   21.5265 C   0  0  0  0  0  0  0  0  0  0  0  0
    8.8507  -14.8803   21.9918 C   0  0  1  0  0  0  0  0  0  0  0  0
    9.2043  -14.8185   23.4105 C   0  0  0  0  0  0  0  0  0  0  0  0
    9.2627  -13.6694   23.9408 O   0  0  0  0  0  0  0  0  0  0  0  0
    9.4844  -15.9201   24.2352 N   0  0  0  0  0  0  0  0  0  0  0  0
    9.0788  -16.0118   25.6500 C   0  0  1  0  0  0  0  0  0  0  0  0
    7.6350  -15.6761   25.8138 C   0  0  0  0  0  0  0  0  0  0  0  0
    7.4610  -14.2618   26.1475 C   0  0  0  0  0  0  0  0  0  0  0  0
    6.2316  -13.6709   25.9755 C   0  0  0  0  0  0  0  0  0  0  0  0
    6.0582  -12.3451   26.3020 C   0  0  0  0  0  0  0  0  0  0  0  0
    7.0770  -11.5561   26.8054 C   0  0  0  0  0  0  0  0  0  0  0  0
    8.3190  -12.1393   26.9829 C   0  0  0  0  0  0  0  0  0  0  0  0
    8.4876  -13.4671   26.6545 C   0  0  0  0  0  0  0  0  0  0  0  0
    9.4972  -17.2764   26.2407 C   0  0  0  0  0  0  0  0  0  0  0  0
    9.8450  -18.3995   25.5193 O   0  0  0  0  0  0  0  0  0  0  0  0
    9.5596  -17.3999   27.5123 O   0  0  0  0  0  0  0  0  0  0  0  0
  2  4  1  0
  2  1  1  1
  3  2  1  0
  4  6  1  0
  4  5  1  6
  6  8  1  0
  7  6  2  0
  8 12  1  0
  8  9  1  0
  9 10  1  0
 11 10  1  0
 12 11  1  0
 13 15  1  0
 12 13  1  1
 14 13  2  0
 16 15  1  0
 16 24  1  0
 16 17  1  6
 18 23  1  0
 18 17  1  0
 19 18  2  0
 20 21  2  0
 20 19  1  0
 21 22  1  0
 22 23  2  0
 24 25  1  0
 26 24  2  0
M  END
$$$$
