TPF.pdb
     RDKit          3D

 26 27  0  0  1  0  0  0  0  0999 V2000
   10.8622  -14.5352   20.0204 C   0  0  0  0  0  0  0  0  0  0  0  0
    9.9648  -13.4071   19.5493 C   0  0  1  0  0  0  0  0  0  0  0  0
   10.4820  -12.7489   18.4441 O   0  0  0  0  0  0  0  0  0  0  0  0
    8.5379  -13.8607   19.3435 C   0  0  2  0  0  0  0  0  0  0  0  0
    7.7889  -12.7043   18.9074 N   0  0  0  0  0  0  0  0  0  0  0  0
    7.9350  -14.4008   20.5751 C   0  0  0  0  0  0  0  0  0  0  0  0
    7.5634  -13.5205   21.4278 O   0  0  0  0  0  0  0  0  0  0  0  0
    7.7326  -15.7455   20.8987 N   0  0  0  0  0  0  0  0  0  0  0  0
    8.1416  -16.8719   20.0884 C   0  0  0  0  0  0  0  0  0  0  0  0
    7.7575  -18.1274   20.8115 C   0  0  0  0  0  0  0  0  0  0  0  0
    6.6433  -17.6712   21.7240 C   0  0  0  0  0  0  0  0  0  0  0  0
    7.0888  -16.2707   22.0837 C   0  0  1  0  0  0  0  0  0  0  0  0
    7.9334  -16.2058   23.2770 C   0  0  0  0  0  0  0  0  0  0  0  0
    9.1836  -16.3189   23.1056 O   0  0  0  0  0  0  0  0  0  0  0  0
    7.4804  -16.0295   24.5945 N   0  0  0  0  0  0  0  0  0  0  0  0
    8.3738  -15.9061   25.7613 C   0  0  1  0  0  0  0  0  0  0  0  0
    7.6708  -15.2569   26.9051 C   0  0  0  0  0  0  0  0  0  0  0  0
    7.1987  -13.9208   26.5391 C   0  0  0  0  0  0  0  0  0  0  0  0
    8.1121  -12.9282   26.2737 C   0  0  0  0  0  0  0  0  0  0  0  0
    7.6740  -11.6738   25.9142 C   0  0  0  0  0  0  0  0  0  0  0  0
    6.3337  -11.3497   25.8028 C   0  0  0  0  0  0  0  0  0  0  0  0
    5.4047  -12.3403   26.0674 C   0  0  0  0  0  0  0  0  0  0  0  0
    5.8483  -13.5945   26.4269 C   0  0  0  0  0  0  0  0  0  0  0  0
    9.0256  -17.1730   26.0664 C   0  0  0  0  0  0  0  0  0  0  0  0
   10.1873  -17.2983   26.7996 O   0  0  0  0  0  0  0  0  0  0  0  0
    8.5220  -18.2706   25.6445 O   0  0  0  0  0  0  0  0  0  0  0  0
  2  4  1  0
  2  1  1  6
  3  2  1  0
  4  6  1  0
  4  5  1  1
  6  8  1  0
  7  6  2  0
  8 12  1  0
  8  9  1  0
  9 10  1  0
 11 10  1  0
 12 11  1  0
 13 15  1  0
 12 13  1  1
 14 13  2  0
 16 15  1  0
 16 24  1  0
 16 17  1  1
 18 23  1  0
 18 17  1  0
 19 18  2  0
 20 21  2  0
 20 19  1  0
 21 22  1  0
 22 23  2  0
 24 25  1  0
 26 24  2  0
M  END
$$$$
