TPF.pdb
     RDKit          3D

 26 27  0  0  1  0  0  0  0  0999 V2000
    4.0537  -17.1057   21.5663 C   0  0  0  0  0  0  0  0  0  0  0  0
    4.7666  -18.2996   20.9612 C   0  0  1  0  0  0  0  0  0  0  0  0
    3.8865  -19.2013   20.3827 O   0  0  0  0  0  0  0  0  0  0  0  0
    5.8781  -17.8861   20.0243 C   0  0  2  0  0  0  0  0  0  0  0  0
    6.3867  -19.0951   19.4175 N   0  0  0  0  0  0  0  0  0  0  0  0
    6.9728  -17.1883   20.7219 C   0  0  0  0  0  0  0  0  0  0  0  0
    7.7795  -17.9495   21.3623 O   0  0  0  0  0  0  0  0  0  0  0  0
    7.2138  -15.8119   20.7541 N   0  0  0  0  0  0  0  0  0  0  0  0
    6.3435  -14.7968   20.2018 C   0  0  0  0  0  0  0  0  0  0  0  0
    6.9607  -13.4583   20.4740 C   0  0  0  0  0  0  0  0  0  0  0  0
    8.4235  -13.7860   20.6610 C   0  0  0  0  0  0  0  0  0  0  0  0
    8.3561  -15.1391   21.3349 C   0  0  1  0  0  0  0  0  0  0  0  0
    8.3057  -15.0716   22.7958 C   0  0  0  0  0  0  0  0  0  0  0  0
    7.2306  -14.6502   23.3169 O   0  0  0  0  0  0  0  0  0  0  0  0
    9.3435  -15.4325   23.6703 N   0  0  0  0  0  0  0  0  0  0  0  0
    9.2444  -15.3553   25.1396 C   0  0  1  0  0  0  0  0  0  0  0  0
    7.8219  -15.2431   25.5731 C   0  0  0  0  0  0  0  0  0  0  0  0
    7.5435  -13.9126   26.1158 C   0  0  0  0  0  0  0  0  0  0  0  0
    8.5283  -12.9535   26.0982 C   0  0  0  0  0  0  0  0  0  0  0  0
    8.2674  -11.6961   26.5933 C   0  0  0  0  0  0  0  0  0  0  0  0
    7.0399  -11.3360   27.1200 C   0  0  0  0  0  0  0  0  0  0  0  0
    6.0406  -12.2926   27.1433 C   0  0  0  0  0  0  0  0  0  0  0  0
    6.3067  -13.5502   26.6464 C   0  0  0  0  0  0  0  0  0  0  0  0
   10.0106  -16.4168   25.7793 C   0  0  0  0  0  0  0  0  0  0  0  0
   10.7261  -16.2689   26.9494 O   0  0  0  0  0  0  0  0  0  0  0  0
   10.0523  -17.5825   25.2544 O   0  0  0  0  0  0  0  0  0  0  0  0
  2  4  1  0
  2  1  1  6
  3  2  1  0
  4  6  1  0
  4  5  1  1
  6  8  1  0
  7  6  2  0
  8 12  1  0
  8  9  1  0
  9 10  1  0
 11 10  1  0
 12 11  1  0
 13 15  1  0
 12 13  1  1
 14 13  2  0
 16 15  1  0
 16 24  1  0
 16 17  1  6
 18 23  1  0
 18 17  1  0
 19 18  2  0
 20 21  2  0
 20 19  1  0
 21 22  1  0
 22 23  2  0
 24 25  1  0
 26 24  2  0
M  END
$$$$
