MWK.pdb
     RDKit          3D

 32 33  0  0  1  0  0  0  0  0999 V2000
   25.0742  -22.0171  -17.9412 C   0  0  0  0  0  0  0  0  0  0  0  0
   26.7848  -21.4778  -18.1164 S   0  0  0  0  0  0  0  0  0  0  0  0
   27.9325  -22.4817  -17.1469 C   0  0  0  0  0  0  0  0  0  0  0  0
   27.4483  -22.6314  -15.7318 C   0  0  0  0  0  0  0  0  0  0  0  0
   27.4579  -21.3535  -14.9337 C   0  0  2  0  0  0  0  0  0  0  0  0
   28.8653  -20.9225  -14.8481 N   0  0  0  0  0  0  0  0  0  0  0  0
   26.9115  -21.5447  -13.5840 C   0  0  0  0  0  0  0  0  0  0  0  0
   25.7834  -22.1054  -13.4568 O   0  0  0  0  0  0  0  0  0  0  0  0
   27.6116  -21.1187  -12.4107 N   0  0  0  0  0  0  0  0  0  0  0  0
   26.9623  -21.2101  -11.1450 C   0  0  1  0  0  0  0  0  0  0  0  0
   27.8211  -20.6965  -10.0050 C   0  0  0  0  0  0  0  0  0  0  0  0
   27.1039  -20.6861   -8.7325 C   0  0  0  0  0  0  0  0  0  0  0  0
   25.7736  -20.9562   -8.5121 C   0  0  0  0  0  0  0  0  0  0  0  0
   25.5192  -20.8342   -7.1780 N   0  0  0  0  0  0  0  0  0  0  0  0
   26.6424  -20.4935   -6.5265 C   0  0  0  0  0  0  0  0  0  0  0  0
   26.9213  -20.2506   -5.1893 C   0  0  0  0  0  0  0  0  0  0  0  0
   28.1797  -19.9076   -4.7500 C   0  0  0  0  0  0  0  0  0  0  0  0
   29.1786  -19.8131   -5.7236 C   0  0  0  0  0  0  0  0  0  0  0  0
   28.9032  -20.0525   -7.0409 C   0  0  0  0  0  0  0  0  0  0  0  0
   27.6343  -20.3980   -7.4804 C   0  0  0  0  0  0  0  0  0  0  0  0
   25.7491  -20.3112  -11.1997 C   0  0  0  0  0  0  0  0  0  0  0  0
   25.8735  -19.0616  -11.1561 O   0  0  0  0  0  0  0  0  0  0  0  0
   24.4441  -20.8507  -11.3010 N   0  0  0  0  0  0  0  0  0  0  0  0
   23.2602  -20.0074  -11.5298 C   0  0  1  0  0  0  0  0  0  0  0  0
   23.1178  -19.6531  -12.9528 C   0  0  0  0  0  0  0  0  0  0  0  0
   21.9034  -18.8294  -13.2434 C   0  0  0  0  0  0  0  0  0  0  0  0
   21.8130  -18.5635  -14.7246 C   0  0  0  0  0  0  0  0  0  0  0  0
   20.5767  -17.7148  -15.0071 C   0  0  0  0  0  0  0  0  0  0  0  0
   20.4846  -17.4596  -16.4241 N   0  0  0  0  0  0  0  0  0  0  0  0
   22.0629  -20.7118  -11.0142 C   0  0  0  0  0  0  0  0  0  0  0  0
   21.8282  -21.9032  -11.2371 O   0  0  0  0  0  0  0  0  0  0  0  0
   21.1187  -20.0311  -10.2287 O   0  0  0  0  0  0  0  0  0  0  0  0
  2  1  1  0
  3  2  1  0
  4  3  1  0
  5  7  1  0
  5  4  1  0
  5  6  1  1
  7  8  2  0
  9 10  1  0
  9  7  1  0
 10 11  1  1
 11 12  1  0
 12 13  2  0
 12 20  1  0
 13 14  1  0
 14 15  1  0
 15 16  2  0
 16 17  1  0
 18 17  2  0
 19 18  1  0
 20 19  2  0
 20 15  1  0
 21 10  1  0
 22 21  2  0
 23 21  1  0
 24 25  1  6
 24 23  1  0
 25 26  1  0
 26 27  1  0
 27 28  1  0
 28 29  1  0
 30 24  1  0
 30 32  1  0
 31 30  2  0
M  END
$$$$
