MWK.pdb
     RDKit          3D

 32 33  0  0  1  0  0  0  0  0999 V2000
   18.4287  -23.5527   -8.7283 C   0  0  0  0  0  0  0  0  0  0  0  0
   20.0256  -22.7175   -8.7267 S   0  0  0  0  0  0  0  0  0  0  0  0
   19.9828  -21.1351   -9.5980 C   0  0  0  0  0  0  0  0  0  0  0  0
   21.3527  -20.5193   -9.6561 C   0  0  0  0  0  0  0  0  0  0  0  0
   22.2099  -21.0177  -10.7906 C   0  0  2  0  0  0  0  0  0  0  0  0
   22.3133  -22.4795  -10.6278 N   0  0  0  0  0  0  0  0  0  0  0  0
   23.5501  -20.4174  -10.7712 C   0  0  0  0  0  0  0  0  0  0  0  0
   23.6602  -19.1664  -10.9330 O   0  0  0  0  0  0  0  0  0  0  0  0
   24.7329  -21.1991  -10.5755 N   0  0  0  0  0  0  0  0  0  0  0  0
   26.0054  -20.5615  -10.6530 C   0  0  1  0  0  0  0  0  0  0  0  0
   27.0063  -21.1238   -9.6615 C   0  0  0  0  0  0  0  0  0  0  0  0
   27.1833  -20.2554   -8.5003 C   0  0  0  0  0  0  0  0  0  0  0  0
   26.4822  -19.1149   -8.1856 C   0  0  0  0  0  0  0  0  0  0  0  0
   26.9687  -18.6135   -7.0146 N   0  0  0  0  0  0  0  0  0  0  0  0
   27.9630  -19.3926   -6.5602 C   0  0  0  0  0  0  0  0  0  0  0  0
   28.7747  -19.3281   -5.4369 C   0  0  0  0  0  0  0  0  0  0  0  0
   29.7494  -20.2646   -5.1779 C   0  0  0  0  0  0  0  0  0  0  0  0
   29.8879  -21.2982   -6.1091 C   0  0  0  0  0  0  0  0  0  0  0  0
   29.0878  -21.3612   -7.2156 C   0  0  0  0  0  0  0  0  0  0  0  0
   28.1066  -20.4161   -7.4738 C   0  0  0  0  0  0  0  0  0  0  0  0
   26.5647  -20.8466  -12.0273 C   0  0  0  0  0  0  0  0  0  0  0  0
   26.4145  -21.9747  -12.5602 O   0  0  0  0  0  0  0  0  0  0  0  0
   27.2706  -19.8542  -12.7490 N   0  0  0  0  0  0  0  0  0  0  0  0
   27.3631  -19.8662  -14.2175 C   0  0  1  0  0  0  0  0  0  0  0  0
   27.8069  -18.5623  -14.7403 C   0  0  0  0  0  0  0  0  0  0  0  0
   27.9267  -18.5271  -16.2310 C   0  0  0  0  0  0  0  0  0  0  0  0
   28.4123  -17.1688  -16.6693 C   0  0  0  0  0  0  0  0  0  0  0  0
   28.5125  -17.1393  -18.1916 C   0  0  0  0  0  0  0  0  0  0  0  0
   28.9332  -15.8270  -18.6186 N   0  0  0  0  0  0  0  0  0  0  0  0
   28.2681  -20.9638  -14.6321 C   0  0  0  0  0  0  0  0  0  0  0  0
   28.2837  -21.4359  -15.7728 O   0  0  0  0  0  0  0  0  0  0  0  0
   29.1704  -21.5281  -13.7159 O   0  0  0  0  0  0  0  0  0  0  0  0
  2  1  1  0
  3  2  1  0
  4  3  1  0
  5  7  1  0
  5  4  1  0
  5  6  1  1
  7  8  2  0
  9 10  1  0
  9  7  1  0
 10 11  1  1
 11 12  1  0
 12 13  2  0
 12 20  1  0
 13 14  1  0
 14 15  1  0
 15 16  2  0
 16 17  1  0
 18 17  2  0
 19 18  1  0
 20 19  2  0
 20 15  1  0
 21 10  1  0
 22 21  2  0
 23 21  1  0
 24 25  1  1
 24 23  1  0
 25 26  1  0
 26 27  1  0
 27 28  1  0
 28 29  1  0
 30 24  1  0
 30 32  1  0
 31 30  2  0
M  END
$$$$
