MWK.pdb
     RDKit          3D

 32 33  0  0  1  0  0  0  0  0999 V2000
   21.4665  -29.5293  -17.7128 C   0  0  0  0  0  0  0  0  0  0  0  0
   22.7910  -29.0391  -18.8322 S   0  0  0  0  0  0  0  0  0  0  0  0
   24.4265  -29.1802  -18.0774 C   0  0  0  0  0  0  0  0  0  0  0  0
   24.6379  -28.1008  -17.0530 C   0  0  0  0  0  0  0  0  0  0  0  0
   24.4839  -26.7000  -17.5862 C   0  0  2  0  0  0  0  0  0  0  0  0
   25.6152  -26.4736  -18.5042 N   0  0  0  0  0  0  0  0  0  0  0  0
   24.5042  -25.6982  -16.5125 C   0  0  0  0  0  0  0  0  0  0  0  0
   23.6120  -25.7480  -15.6154 O   0  0  0  0  0  0  0  0  0  0  0  0
   25.4977  -24.6701  -16.4477 N   0  0  0  0  0  0  0  0  0  0  0  0
   25.3713  -23.6455  -15.4648 C   0  0  1  0  0  0  0  0  0  0  0  0
   26.5516  -22.6928  -15.4533 C   0  0  0  0  0  0  0  0  0  0  0  0
   26.3497  -21.5718  -14.5387 C   0  0  0  0  0  0  0  0  0  0  0  0
   25.8713  -21.6106  -13.2499 C   0  0  0  0  0  0  0  0  0  0  0  0
   25.8433  -20.3396  -12.7570 N   0  0  0  0  0  0  0  0  0  0  0  0
   26.2883  -19.4780  -13.6852 C   0  0  0  0  0  0  0  0  0  0  0  0
   26.4563  -18.1008  -13.6916 C   0  0  0  0  0  0  0  0  0  0  0  0
   26.9401  -17.4230  -14.7873 C   0  0  0  0  0  0  0  0  0  0  0  0
   27.2594  -18.1934  -15.9094 C   0  0  0  0  0  0  0  0  0  0  0  0
   27.0937  -19.5502  -15.9025 C   0  0  0  0  0  0  0  0  0  0  0  0
   26.6060  -20.2303  -14.7970 C   0  0  0  0  0  0  0  0  0  0  0  0
   24.1628  -22.8180  -15.8355 C   0  0  0  0  0  0  0  0  0  0  0  0
   23.9840  -22.4371  -17.0196 O   0  0  0  0  0  0  0  0  0  0  0  0
   23.2025  -22.4506  -14.8622 N   0  0  0  0  0  0  0  0  0  0  0  0
   22.0984  -21.5239  -15.1575 C   0  0  1  0  0  0  0  0  0  0  0  0
   21.0328  -21.6148  -14.1442 C   0  0  0  0  0  0  0  0  0  0  0  0
   19.6615  -21.3944  -14.6997 C   0  0  0  0  0  0  0  0  0  0  0  0
   18.7314  -22.4689  -14.1965 C   0  0  0  0  0  0  0  0  0  0  0  0
   17.6431  -21.8289  -13.3393 C   0  0  0  0  0  0  0  0  0  0  0  0
   16.3723  -21.9464  -14.0123 N   0  0  0  0  0  0  0  0  0  0  0  0
   22.6417  -20.1495  -15.2650 C   0  0  0  0  0  0  0  0  0  0  0  0
   23.5583  -19.7249  -14.5551 O   0  0  0  0  0  0  0  0  0  0  0  0
   22.1191  -19.2481  -16.2064 O   0  0  0  0  0  0  0  0  0  0  0  0
  2  1  1  0
  3  2  1  0
  4  3  1  0
  5  7  1  0
  5  4  1  0
  5  6  1  6
  7  8  2  0
  9 10  1  0
  9  7  1  0
 10 11  1  6
 11 12  1  0
 12 13  2  0
 12 20  1  0
 13 14  1  0
 14 15  1  0
 15 16  2  0
 16 17  1  0
 18 17  2  0
 19 18  1  0
 20 19  2  0
 20 15  1  0
 21 10  1  0
 22 21  2  0
 23 21  1  0
 24 25  1  1
 24 23  1  0
 25 26  1  0
 26 27  1  0
 27 28  1  0
 28 29  1  0
 30 24  1  0
 30 32  1  0
 31 30  2  0
M  END
$$$$
