MWK.pdb
     RDKit          3D

 32 33  0  0  1  0  0  0  0  0999 V2000
   23.7708  -21.3885  -17.6019 C   0  0  0  0  0  0  0  0  0  0  0  0
   24.8164  -19.9429  -17.3479 S   0  0  0  0  0  0  0  0  0  0  0  0
   24.9421  -19.4735  -15.6076 C   0  0  0  0  0  0  0  0  0  0  0  0
   24.9602  -20.6902  -14.7253 C   0  0  0  0  0  0  0  0  0  0  0  0
   26.2019  -20.8280  -13.8831 C   0  0  2  0  0  0  0  0  0  0  0  0
   26.9980  -21.9141  -14.4834 N   0  0  0  0  0  0  0  0  0  0  0  0
   25.8850  -21.1546  -12.4867 C   0  0  0  0  0  0  0  0  0  0  0  0
   25.4666  -22.3178  -12.2125 O   0  0  0  0  0  0  0  0  0  0  0  0
   26.0338  -20.2027  -11.4284 N   0  0  0  0  0  0  0  0  0  0  0  0
   25.6885  -20.5847  -10.0993 C   0  0  1  0  0  0  0  0  0  0  0  0
   26.2222  -19.6241   -9.0537 C   0  0  0  0  0  0  0  0  0  0  0  0
   26.1910  -20.1951   -7.7096 C   0  0  0  0  0  0  0  0  0  0  0  0
   25.3509  -21.1713   -7.2274 C   0  0  0  0  0  0  0  0  0  0  0  0
   25.6630  -21.4089   -5.9215 N   0  0  0  0  0  0  0  0  0  0  0  0
   26.6787  -20.6178   -5.5417 C   0  0  0  0  0  0  0  0  0  0  0  0
   27.3610  -20.4674   -4.3430 C   0  0  0  0  0  0  0  0  0  0  0  0
   28.3925  -19.5692   -4.1903 C   0  0  0  0  0  0  0  0  0  0  0  0
   28.7276  -18.8041   -5.3115 C   0  0  0  0  0  0  0  0  0  0  0  0
   28.0551  -18.9527   -6.4922 C   0  0  0  0  0  0  0  0  0  0  0  0
   27.0162  -19.8586   -6.6429 C   0  0  0  0  0  0  0  0  0  0  0  0
   24.1821  -20.5290   -9.9959 C   0  0  0  0  0  0  0  0  0  0  0  0
   23.5156  -19.7643  -10.7374 O   0  0  0  0  0  0  0  0  0  0  0  0
   23.4836  -21.3340   -9.0640 N   0  0  0  0  0  0  0  0  0  0  0  0
   22.0265  -21.5284   -9.1296 C   0  0  1  0  0  0  0  0  0  0  0  0
   21.5569  -22.4434   -8.0747 C   0  0  0  0  0  0  0  0  0  0  0  0
   20.0928  -22.7405   -8.1516 C   0  0  0  0  0  0  0  0  0  0  0  0
   19.7161  -23.7200   -7.0692 C   0  0  0  0  0  0  0  0  0  0  0  0
   18.2225  -24.0186   -7.1609 C   0  0  0  0  0  0  0  0  0  0  0  0
   17.8838  -25.0601   -6.2216 N   0  0  0  0  0  0  0  0  0  0  0  0
   21.3622  -20.2064   -9.0492 C   0  0  0  0  0  0  0  0  0  0  0  0
   20.3375  -19.9227   -9.6768 O   0  0  0  0  0  0  0  0  0  0  0  0
   21.8882  -19.1929   -8.2318 O   0  0  0  0  0  0  0  0  0  0  0  0
  2  1  1  0
  3  2  1  0
  4  3  1  0
  5  7  1  0
  5  4  1  0
  5  6  1  6
  7  8  2  0
  9 10  1  0
  9  7  1  0
 10 11  1  1
 11 12  1  0
 12 13  2  0
 12 20  1  0
 13 14  1  0
 14 15  1  0
 15 16  2  0
 16 17  1  0
 18 17  2  0
 19 18  1  0
 20 19  2  0
 20 15  1  0
 21 10  1  0
 22 21  2  0
 23 21  1  0
 24 25  1  1
 24 23  1  0
 25 26  1  0
 26 27  1  0
 27 28  1  0
 28 29  1  0
 30 24  1  0
 30 32  1  0
 31 30  2  0
M  END
$$$$
