MWK.pdb
     RDKit          3D

 32 33  0  0  1  0  0  0  0  0999 V2000
   28.0550  -16.3463  -13.3256 C   0  0  0  0  0  0  0  0  0  0  0  0
   27.2136  -16.9082  -14.8170 S   0  0  0  0  0  0  0  0  0  0  0  0
   26.8161  -18.6701  -14.7684 C   0  0  0  0  0  0  0  0  0  0  0  0
   28.0682  -19.5015  -14.7797 C   0  0  0  0  0  0  0  0  0  0  0  0
   28.6011  -19.8402  -13.4117 C   0  0  2  0  0  0  0  0  0  0  0  0
   29.8030  -20.6677  -13.6224 N   0  0  0  0  0  0  0  0  0  0  0  0
   27.6200  -20.5806  -12.6079 C   0  0  0  0  0  0  0  0  0  0  0  0
   27.2363  -21.7183  -13.0103 O   0  0  0  0  0  0  0  0  0  0  0  0
   27.0850  -20.0590  -11.3873 N   0  0  0  0  0  0  0  0  0  0  0  0
   26.2124  -20.8742  -10.6090 C   0  0  1  0  0  0  0  0  0  0  0  0
   26.0902  -20.4009   -9.1731 C   0  0  0  0  0  0  0  0  0  0  0  0
   27.3831  -20.3492   -8.4950 C   0  0  0  0  0  0  0  0  0  0  0  0
   28.6348  -20.4267   -9.0593 C   0  0  0  0  0  0  0  0  0  0  0  0
   29.5663  -20.3359   -8.0676 N   0  0  0  0  0  0  0  0  0  0  0  0
   28.9582  -20.2020   -6.8784 C   0  0  0  0  0  0  0  0  0  0  0  0
   29.4369  -20.0729   -5.5826 C   0  0  0  0  0  0  0  0  0  0  0  0
   28.5999  -19.9470   -4.4974 C   0  0  0  0  0  0  0  0  0  0  0  0
   27.2270  -19.9551   -4.7614 C   0  0  0  0  0  0  0  0  0  0  0  0
   26.7559  -20.0823   -6.0382 C   0  0  0  0  0  0  0  0  0  0  0  0
   27.6019  -20.2089   -7.1296 C   0  0  0  0  0  0  0  0  0  0  0  0
   24.8327  -20.7546  -11.2132 C   0  0  0  0  0  0  0  0  0  0  0  0
   24.3450  -19.6281  -11.4820 O   0  0  0  0  0  0  0  0  0  0  0  0
   24.0549  -21.9043  -11.4917 N   0  0  0  0  0  0  0  0  0  0  0  0
   22.8160  -21.8427  -12.2832 C   0  0  1  0  0  0  0  0  0  0  0  0
   22.4183  -23.1765  -12.7663 C   0  0  0  0  0  0  0  0  0  0  0  0
   21.2043  -23.1565  -13.6402 C   0  0  0  0  0  0  0  0  0  0  0  0
   20.8586  -24.5623  -14.0610 C   0  0  0  0  0  0  0  0  0  0  0  0
   19.6192  -24.5289  -14.9505 C   0  0  0  0  0  0  0  0  0  0  0  0
   19.2323  -25.8784  -15.2836 N   0  0  0  0  0  0  0  0  0  0  0  0
   21.7540  -21.2136  -11.4634 C   0  0  0  0  0  0  0  0  0  0  0  0
   21.5141  -21.5404  -10.2972 O   0  0  0  0  0  0  0  0  0  0  0  0
   20.9537  -20.1905  -11.9969 O   0  0  0  0  0  0  0  0  0  0  0  0
  2  1  1  0
  3  2  1  0
  4  3  1  0
  5  7  1  0
  5  4  1  0
  5  6  1  6
  7  8  2  0
  9 10  1  0
  9  7  1  0
 10 11  1  1
 11 12  1  0
 12 13  2  0
 12 20  1  0
 13 14  1  0
 14 15  1  0
 15 16  2  0
 16 17  1  0
 18 17  2  0
 19 18  1  0
 20 19  2  0
 20 15  1  0
 21 10  1  0
 22 21  2  0
 23 21  1  0
 24 25  1  1
 24 23  1  0
 25 26  1  0
 26 27  1  0
 27 28  1  0
 28 29  1  0
 30 24  1  0
 30 32  1  0
 31 30  2  0
M  END
$$$$
