MWK.pdb
     RDKit          3D

 32 33  0  0  1  0  0  0  0  0999 V2000
   25.5754  -16.7593  -16.8759 C   0  0  0  0  0  0  0  0  0  0  0  0
   26.4026  -15.6186  -15.7525 S   0  0  0  0  0  0  0  0  0  0  0  0
   27.5733  -16.4501  -14.6557 C   0  0  0  0  0  0  0  0  0  0  0  0
   27.0571  -17.8016  -14.2482 C   0  0  0  0  0  0  0  0  0  0  0  0
   27.9580  -18.5505  -13.3006 C   0  0  2  0  0  0  0  0  0  0  0  0
   29.2125  -18.8096  -14.0306 N   0  0  0  0  0  0  0  0  0  0  0  0
   27.3627  -19.8204  -12.8649 C   0  0  0  0  0  0  0  0  0  0  0  0
   27.7201  -20.8903  -13.4400 O   0  0  0  0  0  0  0  0  0  0  0  0
   26.3940  -19.8873  -11.8135 N   0  0  0  0  0  0  0  0  0  0  0  0
   25.9239  -21.1628  -11.3846 C   0  0  1  0  0  0  0  0  0  0  0  0
   25.2828  -21.1217  -10.0105 C   0  0  0  0  0  0  0  0  0  0  0  0
   26.0544  -20.3214   -9.0629 C   0  0  0  0  0  0  0  0  0  0  0  0
   25.7417  -19.0823   -8.5549 C   0  0  0  0  0  0  0  0  0  0  0  0
   26.7341  -18.6975   -7.7026 N   0  0  0  0  0  0  0  0  0  0  0  0
   27.6803  -19.6478   -7.6420 C   0  0  0  0  0  0  0  0  0  0  0  0
   28.8727  -19.7493   -6.9400 C   0  0  0  0  0  0  0  0  0  0  0  0
   29.6964  -20.8471   -7.0422 C   0  0  0  0  0  0  0  0  0  0  0  0
   29.2732  -21.8700   -7.8962 C   0  0  0  0  0  0  0  0  0  0  0  0
   28.0983  -21.7695   -8.5875 C   0  0  0  0  0  0  0  0  0  0  0  0
   27.2705  -20.6621   -8.4824 C   0  0  0  0  0  0  0  0  0  0  0  0
   24.8377  -21.5847  -12.3464 C   0  0  0  0  0  0  0  0  0  0  0  0
   24.1991  -20.7291  -13.0091 O   0  0  0  0  0  0  0  0  0  0  0  0
   24.5112  -22.9505  -12.5261 N   0  0  0  0  0  0  0  0  0  0  0  0
   23.5323  -23.3996  -13.5287 C   0  0  1  0  0  0  0  0  0  0  0  0
   23.5572  -24.8640  -13.6880 C   0  0  0  0  0  0  0  0  0  0  0  0
   22.5849  -25.3696  -14.7063 C   0  0  0  0  0  0  0  0  0  0  0  0
   22.6613  -26.8735  -14.7781 C   0  0  0  0  0  0  0  0  0  0  0  0
   21.6698  -27.3765  -15.8233 C   0  0  0  0  0  0  0  0  0  0  0  0
   21.8039  -28.8064  -15.9617 N   0  0  0  0  0  0  0  0  0  0  0  0
   22.1889  -22.9097  -13.1402 C   0  0  0  0  0  0  0  0  0  0  0  0
   21.8188  -22.8027  -11.9672 O   0  0  0  0  0  0  0  0  0  0  0  0
   21.2550  -22.5374  -14.1206 O   0  0  0  0  0  0  0  0  0  0  0  0
  2  1  1  0
  3  2  1  0
  4  3  1  0
  5  7  1  0
  5  4  1  0
  5  6  1  6
  7  8  2  0
  9 10  1  0
  9  7  1  0
 10 11  1  1
 11 12  1  0
 12 13  2  0
 12 20  1  0
 13 14  1  0
 14 15  1  0
 15 16  2  0
 16 17  1  0
 18 17  2  0
 19 18  1  0
 20 19  2  0
 20 15  1  0
 21 10  1  0
 22 21  2  0
 23 21  1  0
 24 25  1  1
 24 23  1  0
 25 26  1  0
 26 27  1  0
 27 28  1  0
 28 29  1  0
 30 24  1  0
 30 32  1  0
 31 30  2  0
M  END
$$$$
