MWK.pdb
     RDKit          3D

 32 33  0  0  1  0  0  0  0  0999 V2000
   23.2927  -25.5707  -13.6452 C   0  0  0  0  0  0  0  0  0  0  0  0
   21.9512  -24.8781  -14.6292 S   0  0  0  0  0  0  0  0  0  0  0  0
   21.2721  -23.3655  -13.9110 C   0  0  0  0  0  0  0  0  0  0  0  0
   22.3123  -22.2815  -13.8646 C   0  0  0  0  0  0  0  0  0  0  0  0
   22.6751  -21.8283  -12.4743 C   0  0  2  0  0  0  0  0  0  0  0  0
   21.5716  -20.9666  -12.0123 N   0  0  0  0  0  0  0  0  0  0  0  0
   23.9371  -21.0774  -12.4532 C   0  0  0  0  0  0  0  0  0  0  0  0
   23.9199  -19.8475  -12.7539 O   0  0  0  0  0  0  0  0  0  0  0  0
   25.1828  -21.6896  -12.1043 N   0  0  0  0  0  0  0  0  0  0  0  0
   26.3719  -20.9039  -12.1289 C   0  0  1  0  0  0  0  0  0  0  0  0
   27.3750  -21.3218  -11.0706 C   0  0  0  0  0  0  0  0  0  0  0  0
   27.0242  -20.8176   -9.7452 C   0  0  0  0  0  0  0  0  0  0  0  0
   25.8224  -20.2901   -9.3346 C   0  0  0  0  0  0  0  0  0  0  0  0
   25.9248  -19.9441   -8.0197 N   0  0  0  0  0  0  0  0  0  0  0  0
   27.1548  -20.2305   -7.5647 C   0  0  0  0  0  0  0  0  0  0  0  0
   27.7627  -20.0784   -6.3269 C   0  0  0  0  0  0  0  0  0  0  0  0
   29.0663  -20.4541   -6.0954 C   0  0  0  0  0  0  0  0  0  0  0  0
   29.7611  -21.0034   -7.1772 C   0  0  0  0  0  0  0  0  0  0  0  0
   29.1617  -21.1531   -8.3965 C   0  0  0  0  0  0  0  0  0  0  0  0
   27.8480  -20.7736   -8.6266 C   0  0  0  0  0  0  0  0  0  0  0  0
   27.0386  -21.1450  -13.4631 C   0  0  0  0  0  0  0  0  0  0  0  0
   27.9924  -21.9565  -13.5669 O   0  0  0  0  0  0  0  0  0  0  0  0
   26.6083  -20.4655  -14.6283 N   0  0  0  0  0  0  0  0  0  0  0  0
   27.2394  -20.6777  -15.9405 C   0  0  1  0  0  0  0  0  0  0  0  0
   26.6908  -21.8662  -16.6165 C   0  0  0  0  0  0  0  0  0  0  0  0
   27.1808  -23.1578  -16.0426 C   0  0  0  0  0  0  0  0  0  0  0  0
   27.4435  -24.1404  -17.1554 C   0  0  0  0  0  0  0  0  0  0  0  0
   28.0332  -25.4188  -16.5667 C   0  0  0  0  0  0  0  0  0  0  0  0
   28.3351  -26.3424  -17.6332 N   0  0  0  0  0  0  0  0  0  0  0  0
   27.0721  -19.4523  -16.7567 C   0  0  0  0  0  0  0  0  0  0  0  0
   27.6751  -19.2552  -17.8159 O   0  0  0  0  0  0  0  0  0  0  0  0
   26.1954  -18.4357  -16.3449 O   0  0  0  0  0  0  0  0  0  0  0  0
  2  1  1  0
  3  2  1  0
  4  3  1  0
  5  7  1  0
  5  4  1  0
  5  6  1  6
  7  8  2  0
  9 10  1  0
  9  7  1  0
 10 11  1  1
 11 12  1  0
 12 13  2  0
 12 20  1  0
 13 14  1  0
 14 15  1  0
 15 16  2  0
 16 17  1  0
 18 17  2  0
 19 18  1  0
 20 19  2  0
 20 15  1  0
 21 10  1  0
 22 21  2  0
 23 21  1  0
 24 25  1  6
 24 23  1  0
 25 26  1  0
 26 27  1  0
 27 28  1  0
 28 29  1  0
 30 24  1  0
 30 32  1  0
 31 30  2  0
M  END
$$$$
