MWK.pdb
     RDKit          3D

 32 33  0  0  1  0  0  0  0  0999 V2000
   30.8875  -24.4009  -15.6870 C   0  0  0  0  0  0  0  0  0  0  0  0
   31.1225  -23.0085  -16.8066 S   0  0  0  0  0  0  0  0  0  0  0  0
   29.7804  -21.8028  -16.7071 C   0  0  0  0  0  0  0  0  0  0  0  0
   28.9463  -22.0312  -15.4778 C   0  0  0  0  0  0  0  0  0  0  0  0
   27.7565  -21.1148  -15.3557 C   0  0  2  0  0  0  0  0  0  0  0  0
   28.2901  -19.7690  -15.0766 N   0  0  0  0  0  0  0  0  0  0  0  0
   26.8537  -21.5280  -14.2735 C   0  0  0  0  0  0  0  0  0  0  0  0
   26.3029  -22.6662  -14.3403 O   0  0  0  0  0  0  0  0  0  0  0  0
   26.5773  -20.6877  -13.1485 N   0  0  0  0  0  0  0  0  0  0  0  0
   25.6690  -21.1441  -12.1493 C   0  0  1  0  0  0  0  0  0  0  0  0
   25.8532  -20.4371  -10.8200 C   0  0  0  0  0  0  0  0  0  0  0  0
   27.0988  -20.8172  -10.1583 C   0  0  0  0  0  0  0  0  0  0  0  0
   28.1759  -21.4763  -10.7030 C   0  0  0  0  0  0  0  0  0  0  0  0
   29.1269  -21.6293   -9.7379 N   0  0  0  0  0  0  0  0  0  0  0  0
   28.7006  -21.0904   -8.5847 C   0  0  0  0  0  0  0  0  0  0  0  0
   29.2724  -20.9813   -7.3254 C   0  0  0  0  0  0  0  0  0  0  0  0
   28.6269  -20.3717   -6.2737 C   0  0  0  0  0  0  0  0  0  0  0  0
   27.3520  -19.8601   -6.5334 C   0  0  0  0  0  0  0  0  0  0  0  0
   26.7891  -19.9679   -7.7744 C   0  0  0  0  0  0  0  0  0  0  0  0
   27.4420  -20.5826   -8.8320 C   0  0  0  0  0  0  0  0  0  0  0  0
   24.2757  -20.8008  -12.6221 C   0  0  0  0  0  0  0  0  0  0  0  0
   24.0327  -19.6856  -13.1478 O   0  0  0  0  0  0  0  0  0  0  0  0
   23.2102  -21.7230  -12.4862 N   0  0  0  0  0  0  0  0  0  0  0  0
   21.8510  -21.4307  -12.9683 C   0  0  1  0  0  0  0  0  0  0  0  0
   21.1623  -22.6547  -13.4136 C   0  0  0  0  0  0  0  0  0  0  0  0
   19.7994  -22.4010  -13.9754 C   0  0  0  0  0  0  0  0  0  0  0  0
   19.1806  -23.7039  -14.4141 C   0  0  0  0  0  0  0  0  0  0  0  0
   17.8428  -23.4208  -15.0913 C   0  0  0  0  0  0  0  0  0  0  0  0
   17.2431  -24.6657  -15.5063 N   0  0  0  0  0  0  0  0  0  0  0  0
   21.1012  -20.7347  -11.8964 C   0  0  0  0  0  0  0  0  0  0  0  0
   21.2369  -20.9923  -10.6965 O   0  0  0  0  0  0  0  0  0  0  0  0
   20.1782  -19.7248  -12.2125 O   0  0  0  0  0  0  0  0  0  0  0  0
  2  1  1  0
  3  2  1  0
  4  3  1  0
  5  7  1  0
  5  4  1  0
  5  6  1  1
  7  8  2  0
  9 10  1  0
  9  7  1  0
 10 11  1  1
 11 12  1  0
 12 13  2  0
 12 20  1  0
 13 14  1  0
 14 15  1  0
 15 16  2  0
 16 17  1  0
 18 17  2  0
 19 18  1  0
 20 19  2  0
 20 15  1  0
 21 10  1  0
 22 21  2  0
 23 21  1  0
 24 25  1  1
 24 23  1  0
 25 26  1  0
 26 27  1  0
 27 28  1  0
 28 29  1  0
 30 24  1  0
 30 32  1  0
 31 30  2  0
M  END
$$$$
