MWK.pdb
     RDKit          3D

 32 33  0  0  1  0  0  0  0  0999 V2000
   28.4985  -23.7923  -17.5058 C   0  0  0  0  0  0  0  0  0  0  0  0
   28.5411  -22.0307  -17.8837 S   0  0  0  0  0  0  0  0  0  0  0  0
   29.2752  -21.0525  -16.5536 C   0  0  0  0  0  0  0  0  0  0  0  0
   28.6209  -21.3640  -15.2368 C   0  0  0  0  0  0  0  0  0  0  0  0
   27.3711  -20.5690  -14.9609 C   0  0  2  0  0  0  0  0  0  0  0  0
   27.8116  -19.2223  -14.5535 N   0  0  0  0  0  0  0  0  0  0  0  0
   26.5602  -21.1725  -13.8955 C   0  0  0  0  0  0  0  0  0  0  0  0
   26.2014  -22.3812  -14.0128 O   0  0  0  0  0  0  0  0  0  0  0  0
   26.1636  -20.4402  -12.7316 N   0  0  0  0  0  0  0  0  0  0  0  0
   25.3215  -21.0708  -11.7699 C   0  0  1  0  0  0  0  0  0  0  0  0
   25.5300  -20.5368  -10.3655 C   0  0  0  0  0  0  0  0  0  0  0  0
   26.8421  -20.8883   -9.8283 C   0  0  0  0  0  0  0  0  0  0  0  0
   27.7791  -21.7326  -10.3766 C   0  0  0  0  0  0  0  0  0  0  0  0
   28.8624  -21.7774   -9.5497 N   0  0  0  0  0  0  0  0  0  0  0  0
   28.6575  -20.9889   -8.4827 C   0  0  0  0  0  0  0  0  0  0  0  0
   29.4291  -20.6871   -7.3699 C   0  0  0  0  0  0  0  0  0  0  0  0
   28.9960  -19.8303   -6.3838 C   0  0  0  0  0  0  0  0  0  0  0  0
   27.7267  -19.2695   -6.5547 C   0  0  0  0  0  0  0  0  0  0  0  0
   26.9670  -19.5672   -7.6514 C   0  0  0  0  0  0  0  0  0  0  0  0
   27.4062  -20.4309   -8.6433 C   0  0  0  0  0  0  0  0  0  0  0  0
   23.8946  -20.7406  -12.1410 C   0  0  0  0  0  0  0  0  0  0  0  0
   23.5636  -19.5648  -12.4358 O   0  0  0  0  0  0  0  0  0  0  0  0
   22.8956  -21.7434  -12.1665 N   0  0  0  0  0  0  0  0  0  0  0  0
   21.4981  -21.4522  -12.5233 C   0  0  1  0  0  0  0  0  0  0  0  0
   20.7133  -22.6890  -12.6816 C   0  0  0  0  0  0  0  0  0  0  0  0
   19.3092  -22.4497  -13.1387 C   0  0  0  0  0  0  0  0  0  0  0  0
   18.5982  -23.7686  -13.3059 C   0  0  0  0  0  0  0  0  0  0  0  0
   17.1635  -23.5110  -13.7574 C   0  0  0  0  0  0  0  0  0  0  0  0
   16.4281  -24.7523  -13.7476 N   0  0  0  0  0  0  0  0  0  0  0  0
   20.9169  -20.5579  -11.4946 C   0  0  0  0  0  0  0  0  0  0  0  0
   21.0814  -20.7219  -10.2820 O   0  0  0  0  0  0  0  0  0  0  0  0
   20.1317  -19.4559  -11.8696 O   0  0  0  0  0  0  0  0  0  0  0  0
  2  1  1  0
  3  2  1  0
  4  3  1  0
  5  7  1  0
  5  4  1  0
  5  6  1  1
  7  8  2  0
  9 10  1  0
  9  7  1  0
 10 11  1  1
 11 12  1  0
 12 13  2  0
 12 20  1  0
 13 14  1  0
 14 15  1  0
 15 16  2  0
 16 17  1  0
 18 17  2  0
 19 18  1  0
 20 19  2  0
 20 15  1  0
 21 10  1  0
 22 21  2  0
 23 21  1  0
 24 25  1  1
 24 23  1  0
 25 26  1  0
 26 27  1  0
 27 28  1  0
 28 29  1  0
 30 24  1  0
 30 32  1  0
 31 30  2  0
M  END
$$$$
