MWK.pdb
     RDKit          3D

 32 33  0  0  1  0  0  0  0  0999 V2000
   26.7482  -22.8577  -21.7873 C   0  0  0  0  0  0  0  0  0  0  0  0
   28.0509  -22.1858  -20.7389 S   0  0  0  0  0  0  0  0  0  0  0  0
   27.4031  -21.1843  -19.3817 C   0  0  0  0  0  0  0  0  0  0  0  0
   26.8640  -22.0568  -18.2829 C   0  0  0  0  0  0  0  0  0  0  0  0
   27.8081  -22.2514  -17.1249 C   0  0  2  0  0  0  0  0  0  0  0  0
   28.4303  -23.5754  -17.3084 N   0  0  0  0  0  0  0  0  0  0  0  0
   27.1106  -22.2025  -15.8334 C   0  0  0  0  0  0  0  0  0  0  0  0
   26.3716  -23.1759  -15.5023 O   0  0  0  0  0  0  0  0  0  0  0  0
   27.2391  -21.0926  -14.9390 N   0  0  0  0  0  0  0  0  0  0  0  0
   26.6605  -21.1795  -13.6393 C   0  0  1  0  0  0  0  0  0  0  0  0
   27.2197  -20.1494  -12.6764 C   0  0  0  0  0  0  0  0  0  0  0  0
   26.7135  -20.3288  -11.3179 C   0  0  0  0  0  0  0  0  0  0  0  0
   25.4224  -20.1705  -10.8714 C   0  0  0  0  0  0  0  0  0  0  0  0
   25.3877  -20.4376   -9.5347 N   0  0  0  0  0  0  0  0  0  0  0  0
   26.6153  -20.7639   -9.1004 C   0  0  0  0  0  0  0  0  0  0  0  0
   27.1133  -21.1152   -7.8540 C   0  0  0  0  0  0  0  0  0  0  0  0
   28.4411  -21.4135   -7.6489 C   0  0  0  0  0  0  0  0  0  0  0  0
   29.2780  -21.3461   -8.7668 C   0  0  0  0  0  0  0  0  0  0  0  0
   28.7867  -21.0000   -9.9945 C   0  0  0  0  0  0  0  0  0  0  0  0
   27.4484  -20.7000  -10.1981 C   0  0  0  0  0  0  0  0  0  0  0  0
   25.1890  -20.8689  -13.7841 C   0  0  0  0  0  0  0  0  0  0  0  0
   24.8068  -19.8467  -14.4071 O   0  0  0  0  0  0  0  0  0  0  0  0
   24.2045  -21.7181  -13.2238 N   0  0  0  0  0  0  0  0  0  0  0  0
   22.7639  -21.4689  -13.3903 C   0  0  1  0  0  0  0  0  0  0  0  0
   21.9627  -22.6250  -12.9521 C   0  0  0  0  0  0  0  0  0  0  0  0
   20.4911  -22.4382  -13.1455 C   0  0  0  0  0  0  0  0  0  0  0  0
   19.7622  -23.6926  -12.7357 C   0  0  0  0  0  0  0  0  0  0  0  0
   18.2584  -23.4550  -12.8388 C   0  0  0  0  0  0  0  0  0  0  0  0
   17.5591  -24.6881  -12.5705 N   0  0  0  0  0  0  0  0  0  0  0  0
   22.4022  -20.2357  -12.6527 C   0  0  0  0  0  0  0  0  0  0  0  0
   22.6031  -20.0846  -11.4439 O   0  0  0  0  0  0  0  0  0  0  0  0
   21.7976  -19.1578  -13.3194 O   0  0  0  0  0  0  0  0  0  0  0  0
  2  1  1  0
  3  2  1  0
  4  3  1  0
  5  7  1  0
  5  4  1  0
  5  6  1  6
  7  8  2  0
  9 10  1  0
  9  7  1  0
 10 11  1  1
 11 12  1  0
 12 13  2  0
 12 20  1  0
 13 14  1  0
 14 15  1  0
 15 16  2  0
 16 17  1  0
 18 17  2  0
 19 18  1  0
 20 19  2  0
 20 15  1  0
 21 10  1  0
 22 21  2  0
 23 21  1  0
 24 25  1  1
 24 23  1  0
 25 26  1  0
 26 27  1  0
 27 28  1  0
 28 29  1  0
 30 24  1  0
 30 32  1  0
 31 30  2  0
M  END
$$$$
