MWK.pdb
     RDKit          3D

 32 33  0  0  1  0  0  0  0  0999 V2000
   26.1474  -19.4225  -18.5015 C   0  0  0  0  0  0  0  0  0  0  0  0
   27.9479  -19.3675  -18.4470 S   0  0  0  0  0  0  0  0  0  0  0  0
   28.5928  -19.3905  -16.7593 C   0  0  0  0  0  0  0  0  0  0  0  0
   27.6077  -20.0262  -15.8188 C   0  0  0  0  0  0  0  0  0  0  0  0
   28.2284  -20.6378  -14.5896 C   0  0  2  0  0  0  0  0  0  0  0  0
   29.0440  -21.7753  -15.0528 N   0  0  0  0  0  0  0  0  0  0  0  0
   27.2136  -21.1064  -13.6370 C   0  0  0  0  0  0  0  0  0  0  0  0
   26.5208  -22.1234  -13.9355 O   0  0  0  0  0  0  0  0  0  0  0  0
   26.9832  -20.4522  -12.3851 N   0  0  0  0  0  0  0  0  0  0  0  0
   26.0205  -20.9965  -11.4858 C   0  0  1  0  0  0  0  0  0  0  0  0
   26.0846  -20.3699  -10.1059 C   0  0  0  0  0  0  0  0  0  0  0  0
   27.3402  -20.6663   -9.4207 C   0  0  0  0  0  0  0  0  0  0  0  0
   28.4162  -21.3751   -9.9014 C   0  0  0  0  0  0  0  0  0  0  0  0
   29.3788  -21.4138   -8.9365 N   0  0  0  0  0  0  0  0  0  0  0  0
   28.9611  -20.7527   -7.8454 C   0  0  0  0  0  0  0  0  0  0  0  0
   29.5458  -20.5006   -6.6127 C   0  0  0  0  0  0  0  0  0  0  0  0
   28.9073  -19.7820   -5.6279 C   0  0  0  0  0  0  0  0  0  0  0  0
   27.6258  -19.3105   -5.9278 C   0  0  0  0  0  0  0  0  0  0  0  0
   27.0502  -19.5591   -7.1425 C   0  0  0  0  0  0  0  0  0  0  0  0
   27.6961  -20.2835   -8.1328 C   0  0  0  0  0  0  0  0  0  0  0  0
   24.6546  -20.6637  -12.0391 C   0  0  0  0  0  0  0  0  0  0  0  0
   24.3861  -19.4998  -12.4294 O   0  0  0  0  0  0  0  0  0  0  0  0
   23.6438  -21.6507  -12.1323 N   0  0  0  0  0  0  0  0  0  0  0  0
   22.3034  -21.3558  -12.6630 C   0  0  1  0  0  0  0  0  0  0  0  0
   21.6028  -22.5859  -13.0711 C   0  0  0  0  0  0  0  0  0  0  0  0
   20.2047  -22.3461  -13.5459 C   0  0  0  0  0  0  0  0  0  0  0  0
   19.5506  -23.6618  -13.8836 C   0  0  0  0  0  0  0  0  0  0  0  0
   18.1491  -23.4000  -14.4273 C   0  0  0  0  0  0  0  0  0  0  0  0
   17.4990  -24.6585  -14.7017 N   0  0  0  0  0  0  0  0  0  0  0  0
   21.5400  -20.5985  -11.6435 C   0  0  0  0  0  0  0  0  0  0  0  0
   21.6334  -20.8097  -10.4306 O   0  0  0  0  0  0  0  0  0  0  0  0
   20.6525  -19.5806  -12.0283 O   0  0  0  0  0  0  0  0  0  0  0  0
  2  1  1  0
  3  2  1  0
  4  3  1  0
  5  7  1  0
  5  4  1  0
  5  6  1  6
  7  8  2  0
  9 10  1  0
  9  7  1  0
 10 11  1  1
 11 12  1  0
 12 13  2  0
 12 20  1  0
 13 14  1  0
 14 15  1  0
 15 16  2  0
 16 17  1  0
 18 17  2  0
 19 18  1  0
 20 19  2  0
 20 15  1  0
 21 10  1  0
 22 21  2  0
 23 21  1  0
 24 25  1  1
 24 23  1  0
 25 26  1  0
 26 27  1  0
 27 28  1  0
 28 29  1  0
 30 24  1  0
 30 32  1  0
 31 30  2  0
M  END
$$$$
