MWK.pdb
     RDKit          3D

 32 33  0  0  1  0  0  0  0  0999 V2000
   17.8933  -37.5219   -4.8436 C   0  0  0  0  0  0  0  0  0  0  0  0
   18.8209  -35.9823   -4.7136 S   0  0  0  0  0  0  0  0  0  0  0  0
   17.8169  -34.6171   -4.0865 C   0  0  0  0  0  0  0  0  0  0  0  0
   18.6403  -33.3673   -3.9478 C   0  0  0  0  0  0  0  0  0  0  0  0
   18.7847  -32.5745   -5.2209 C   0  0  2  0  0  0  0  0  0  0  0  0
   20.1227  -32.8829   -5.7580 N   0  0  0  0  0  0  0  0  0  0  0  0
   18.6622  -31.1301   -4.9855 C   0  0  0  0  0  0  0  0  0  0  0  0
   19.7173  -30.4391   -4.8728 O   0  0  0  0  0  0  0  0  0  0  0  0
   17.3916  -30.4799   -4.8797 N   0  0  0  0  0  0  0  0  0  0  0  0
   17.3499  -29.0737   -4.6505 C   0  0  1  0  0  0  0  0  0  0  0  0
   16.5935  -28.3239   -5.7306 C   0  0  0  0  0  0  0  0  0  0  0  0
   17.4649  -27.8971   -6.8225 C   0  0  0  0  0  0  0  0  0  0  0  0
   17.9242  -28.6494   -7.8781 C   0  0  0  0  0  0  0  0  0  0  0  0
   18.7098  -27.8611   -8.6659 N   0  0  0  0  0  0  0  0  0  0  0  0
   18.7744  -26.6216   -8.1546 C   0  0  0  0  0  0  0  0  0  0  0  0
   19.4255  -25.4657   -8.5607 C   0  0  0  0  0  0  0  0  0  0  0  0
   19.3412  -24.2867   -7.8557 C   0  0  0  0  0  0  0  0  0  0  0  0
   18.5601  -24.3048   -6.6963 C   0  0  0  0  0  0  0  0  0  0  0  0
   17.9189  -25.4439   -6.2968 C   0  0  0  0  0  0  0  0  0  0  0  0
   18.0057  -26.6303   -7.0092 C   0  0  0  0  0  0  0  0  0  0  0  0
   16.5845  -28.8532   -3.3666 C   0  0  0  0  0  0  0  0  0  0  0  0
   15.5469  -29.5162   -3.1158 O   0  0  0  0  0  0  0  0  0  0  0  0
   17.0141  -27.8971   -2.4150 N   0  0  0  0  0  0  0  0  0  0  0  0
   16.3111  -27.6864   -1.1395 C   0  0  1  0  0  0  0  0  0  0  0  0
   17.1464  -26.9429   -0.1803 C   0  0  0  0  0  0  0  0  0  0  0  0
   16.5219  -26.8048    1.1720 C   0  0  0  0  0  0  0  0  0  0  0  0
   17.5118  -26.1885    2.1276 C   0  0  0  0  0  0  0  0  0  0  0  0
   16.9110  -26.1721    3.5303 C   0  0  0  0  0  0  0  0  0  0  0  0
   17.9186  -25.7621    4.4780 N   0  0  0  0  0  0  0  0  0  0  0  0
   15.0290  -26.9936   -1.4074 C   0  0  0  0  0  0  0  0  0  0  0  0
   14.8997  -26.1125   -2.2625 O   0  0  0  0  0  0  0  0  0  0  0  0
   13.8756  -27.3212   -0.6766 O   0  0  0  0  0  0  0  0  0  0  0  0
  2  1  1  0
  3  2  1  0
  4  3  1  0
  5  7  1  0
  5  4  1  0
  5  6  1  1
  7  8  2  0
  9 10  1  0
  9  7  1  0
 10 11  1  6
 11 12  1  0
 12 13  2  0
 12 20  1  0
 13 14  1  0
 14 15  1  0
 15 16  2  0
 16 17  1  0
 18 17  2  0
 19 18  1  0
 20 19  2  0
 20 15  1  0
 21 10  1  0
 22 21  2  0
 23 21  1  0
 24 25  1  1
 24 23  1  0
 25 26  1  0
 26 27  1  0
 27 28  1  0
 28 29  1  0
 30 24  1  0
 30 32  1  0
 31 30  2  0
M  END
$$$$
