MWK.pdb
     RDKit          3D

 32 33  0  0  1  0  0  0  0  0999 V2000
   27.4512  -15.5396  -14.9742 C   0  0  0  0  0  0  0  0  0  0  0  0
   28.9588  -16.2031  -15.7056 S   0  0  0  0  0  0  0  0  0  0  0  0
   28.9202  -18.0025  -15.8647 C   0  0  0  0  0  0  0  0  0  0  0  0
   28.4878  -18.6443  -14.5761 C   0  0  0  0  0  0  0  0  0  0  0  0
   27.1240  -19.2828  -14.6275 C   0  0  2  0  0  0  0  0  0  0  0  0
   26.1505  -18.2187  -14.3215 N   0  0  0  0  0  0  0  0  0  0  0  0
   26.9919  -20.3749  -13.6545 C   0  0  0  0  0  0  0  0  0  0  0  0
   27.8287  -21.3247  -13.6866 O   0  0  0  0  0  0  0  0  0  0  0  0
   25.9502  -20.4001  -12.6734 N   0  0  0  0  0  0  0  0  0  0  0  0
   25.3312  -21.6431  -12.3517 C   0  0  1  0  0  0  0  0  0  0  0  0
   25.1139  -21.8237  -10.8614 C   0  0  0  0  0  0  0  0  0  0  0  0
   25.9949  -20.9722  -10.0660 C   0  0  0  0  0  0  0  0  0  0  0  0
   25.6484  -19.8881   -9.2940 C   0  0  0  0  0  0  0  0  0  0  0  0
   26.7775  -19.3824   -8.7209 N   0  0  0  0  0  0  0  0  0  0  0  0
   27.8451  -20.1041   -9.0968 C   0  0  0  0  0  0  0  0  0  0  0  0
   29.1980  -20.0116   -8.8033 C   0  0  0  0  0  0  0  0  0  0  0  0
   30.1254  -20.8872   -9.3205 C   0  0  0  0  0  0  0  0  0  0  0  0
   29.6379  -21.8878  -10.1665 C   0  0  0  0  0  0  0  0  0  0  0  0
   28.3050  -21.9784  -10.4554 C   0  0  0  0  0  0  0  0  0  0  0  0
   27.3730  -21.0947   -9.9326 C   0  0  0  0  0  0  0  0  0  0  0  0
   23.9581  -21.6343  -12.9820 C   0  0  0  0  0  0  0  0  0  0  0  0
   23.2999  -20.5677  -13.0720 O   0  0  0  0  0  0  0  0  0  0  0  0
   23.3781  -22.8233  -13.4862 N   0  0  0  0  0  0  0  0  0  0  0  0
   22.2218  -22.8096  -14.3961 C   0  0  1  0  0  0  0  0  0  0  0  0
   22.0737  -24.0960  -15.0988 C   0  0  0  0  0  0  0  0  0  0  0  0
   21.3375  -25.1279  -14.3045 C   0  0  0  0  0  0  0  0  0  0  0  0
   21.9832  -26.4759  -14.5015 C   0  0  0  0  0  0  0  0  0  0  0  0
   21.0953  -27.5523  -13.8836 C   0  0  0  0  0  0  0  0  0  0  0  0
   21.6959  -28.8472  -14.0935 N   0  0  0  0  0  0  0  0  0  0  0  0
   21.0070  -22.4605  -13.6226 C   0  0  0  0  0  0  0  0  0  0  0  0
   19.9344  -22.1484  -14.1484 O   0  0  0  0  0  0  0  0  0  0  0  0
   21.0288  -22.4703  -12.2186 O   0  0  0  0  0  0  0  0  0  0  0  0
  2  1  1  0
  3  2  1  0
  4  3  1  0
  5  7  1  0
  5  4  1  0
  5  6  1  1
  7  8  2  0
  9 10  1  0
  9  7  1  0
 10 11  1  1
 11 12  1  0
 12 13  2  0
 12 20  1  0
 13 14  1  0
 14 15  1  0
 15 16  2  0
 16 17  1  0
 18 17  2  0
 19 18  1  0
 20 19  2  0
 20 15  1  0
 21 10  1  0
 22 21  2  0
 23 21  1  0
 24 25  1  1
 24 23  1  0
 25 26  1  0
 26 27  1  0
 27 28  1  0
 28 29  1  0
 30 24  1  0
 30 32  1  0
 31 30  2  0
M  END
$$$$
