MWK.pdb
     RDKit          3D

 32 33  0  0  1  0  0  0  0  0999 V2000
   19.7091  -19.6867  -15.2082 C   0  0  0  0  0  0  0  0  0  0  0  0
   20.7304  -18.4536  -16.0354 S   0  0  0  0  0  0  0  0  0  0  0  0
   22.4983  -18.7742  -15.8440 C   0  0  0  0  0  0  0  0  0  0  0  0
   22.7601  -19.6199  -14.6293 C   0  0  0  0  0  0  0  0  0  0  0  0
   24.2171  -19.7577  -14.2709 C   0  0  2  0  0  0  0  0  0  0  0  0
   24.8209  -20.6288  -15.2958 N   0  0  0  0  0  0  0  0  0  0  0  0
   24.4017  -20.3508  -12.9401 C   0  0  0  0  0  0  0  0  0  0  0  0
   24.2056  -21.5931  -12.7938 O   0  0  0  0  0  0  0  0  0  0  0  0
   24.7954  -19.5715  -11.8061 N   0  0  0  0  0  0  0  0  0  0  0  0
   25.0266  -20.2269  -10.5616 C   0  0  1  0  0  0  0  0  0  0  0  0
   25.9291  -19.4321   -9.6371 C   0  0  0  0  0  0  0  0  0  0  0  0
   26.8734  -20.2837   -8.9181 C   0  0  0  0  0  0  0  0  0  0  0  0
   27.3371  -21.5255   -9.2847 C   0  0  0  0  0  0  0  0  0  0  0  0
   28.2040  -21.9666   -8.3292 N   0  0  0  0  0  0  0  0  0  0  0  0
   28.3171  -21.0503   -7.3547 C   0  0  0  0  0  0  0  0  0  0  0  0
   29.0532  -21.0081   -6.1794 C   0  0  0  0  0  0  0  0  0  0  0  0
   29.0045  -19.9358   -5.3180 C   0  0  0  0  0  0  0  0  0  0  0  0
   28.1694  -18.8760   -5.6842 C   0  0  0  0  0  0  0  0  0  0  0  0
   27.4445  -18.9181   -6.8423 C   0  0  0  0  0  0  0  0  0  0  0  0
   27.4956  -20.0000   -7.7081 C   0  0  0  0  0  0  0  0  0  0  0  0
   23.6928  -20.3364   -9.8603 C   0  0  0  0  0  0  0  0  0  0  0  0
   22.8553  -19.4017   -9.9238 O   0  0  0  0  0  0  0  0  0  0  0  0
   23.3519  -21.4909   -9.1151 N   0  0  0  0  0  0  0  0  0  0  0  0
   22.0630  -21.6246   -8.4179 C   0  0  1  0  0  0  0  0  0  0  0  0
   21.6931  -23.0389   -8.2353 C   0  0  0  0  0  0  0  0  0  0  0  0
   20.3768  -23.2272   -7.5501 C   0  0  0  0  0  0  0  0  0  0  0  0
   20.0582  -24.6979   -7.4581 C   0  0  0  0  0  0  0  0  0  0  0  0
   18.6786  -24.8738   -6.8304 C   0  0  0  0  0  0  0  0  0  0  0  0
   18.3505  -26.2779   -6.7805 N   0  0  0  0  0  0  0  0  0  0  0  0
   22.1398  -20.9032   -7.1258 C   0  0  0  0  0  0  0  0  0  0  0  0
   23.2045  -20.6301   -6.5635 O   0  0  0  0  0  0  0  0  0  0  0  0
   20.9691  -20.4899   -6.4696 O   0  0  0  0  0  0  0  0  0  0  0  0
  2  1  1  0
  3  2  1  0
  4  3  1  0
  5  7  1  0
  5  4  1  0
  5  6  1  6
  7  8  2  0
  9 10  1  0
  9  7  1  0
 10 11  1  1
 11 12  1  0
 12 13  2  0
 12 20  1  0
 13 14  1  0
 14 15  1  0
 15 16  2  0
 16 17  1  0
 18 17  2  0
 19 18  1  0
 20 19  2  0
 20 15  1  0
 21 10  1  0
 22 21  2  0
 23 21  1  0
 24 25  1  1
 24 23  1  0
 25 26  1  0
 26 27  1  0
 27 28  1  0
 28 29  1  0
 30 24  1  0
 30 32  1  0
 31 30  2  0
M  END
$$$$
