KVK.pdb
     RDKit          3D

 26 25  0  0  1  0  0  0  0  0999 V2000
    7.4541  -14.7746   20.4383 N   0  0  0  0  0  0  0  0  0  0  0  0
    6.8122  -15.1278   21.6627 C   0  0  1  0  0  0  0  0  0  0  0  0
    6.5708  -16.5828   21.8901 C   0  0  0  0  0  0  0  0  0  0  0  0
    5.8425  -17.2482   20.7855 C   0  0  0  0  0  0  0  0  0  0  0  0
    5.4134  -18.6485   20.9621 C   0  0  0  0  0  0  0  0  0  0  0  0
    4.7091  -19.2126   19.7716 C   0  0  0  0  0  0  0  0  0  0  0  0
    4.2985  -20.5726   19.8885 N   0  0  0  0  0  0  0  0  0  0  0  0
    7.6249  -14.6381   22.8314 C   0  0  0  0  0  0  0  0  0  0  0  0
    8.8712  -14.8265   22.7719 O   0  0  0  0  0  0  0  0  0  0  0  0
    5.8575  -13.0051   26.4486 C   0  0  0  0  0  0  0  0  0  0  0  0
    7.1195  -12.4578   25.8424 C   0  0  1  0  0  0  0  0  0  0  0  0
    7.9904  -11.9407   26.9667 C   0  0  0  0  0  0  0  0  0  0  0  0
    7.8418  -13.5003   24.9972 C   0  0  2  0  0  0  0  0  0  0  0  0
    7.0194  -13.9930   23.9496 N   0  0  0  0  0  0  0  0  0  0  0  0
    8.3468  -14.5462   25.9114 C   0  0  0  0  0  0  0  0  0  0  0  0
    7.5382  -15.4923   26.1811 O   0  0  0  0  0  0  0  0  0  0  0  0
    9.6384  -14.5615   26.4909 N   0  0  0  0  0  0  0  0  0  0  0  0
   10.1679  -15.7394   27.1352 C   0  0  1  0  0  0  0  0  0  0  0  0
   11.4642  -16.1633   26.4815 C   0  0  0  0  0  0  0  0  0  0  0  0
   12.0966  -17.3548   27.1151 C   0  0  0  0  0  0  0  0  0  0  0  0
   13.3657  -17.8106   26.4305 C   0  0  0  0  0  0  0  0  0  0  0  0
   13.8856  -19.0415   27.1051 C   0  0  0  0  0  0  0  0  0  0  0  0
   15.0650  -19.5482   26.4040 N   0  0  0  0  0  0  0  0  0  0  0  0
   10.3215  -15.4984   28.5889 C   0  0  0  0  0  0  0  0  0  0  0  0
   10.4468  -16.5834   29.4339 O   0  0  0  0  0  0  0  0  0  0  0  0
   10.3448  -14.3550   29.1038 O   0  0  0  0  0  0  0  0  0  0  0  0
  2  1  1  6
  3  2  1  0
  4  3  1  0
  4  5  1  0
  6  5  1  0
  6  7  1  0
  8  9  2  0
  8  2  1  0
 11 10  1  1
 11 13  1  0
 12 11  1  0
 13 14  1  6
 14  8  1  0
 15 17  1  0
 15 13  1  0
 16 15  2  0
 18 17  1  0
 18 24  1  0
 18 19  1  6
 20 21  1  0
 20 19  1  0
 21 22  1  0
 23 22  1  0
 24 25  1  0
 26 24  2  0
M  END
$$$$
