KVK.pdb
     RDKit          3D

 26 25  0  0  1  0  0  0  0  0999 V2000
    8.4576  -17.3029   16.2381 N   0  0  0  0  0  0  0  0  0  0  0  0
    7.7412  -17.2980   17.4720 C   0  0  1  0  0  0  0  0  0  0  0  0
    7.3560  -18.6310   18.0214 C   0  0  0  0  0  0  0  0  0  0  0  0
    6.8345  -19.5702   17.0020 C   0  0  0  0  0  0  0  0  0  0  0  0
    7.7705  -20.5158   16.3650 C   0  0  0  0  0  0  0  0  0  0  0  0
    7.1035  -21.4978   15.4581 C   0  0  0  0  0  0  0  0  0  0  0  0
    6.8620  -22.7858   16.0190 N   0  0  0  0  0  0  0  0  0  0  0  0
    8.5531  -16.6112   18.5374 C   0  0  0  0  0  0  0  0  0  0  0  0
    9.8067  -16.7329   18.4594 O   0  0  0  0  0  0  0  0  0  0  0  0
    7.5110  -12.9857   19.9016 C   0  0  0  0  0  0  0  0  0  0  0  0
    8.0102  -13.8786   21.0031 C   0  0  1  0  0  0  0  0  0  0  0  0
    6.8236  -14.2778   21.8532 C   0  0  0  0  0  0  0  0  0  0  0  0
    8.7527  -15.0925   20.4574 C   0  0  2  0  0  0  0  0  0  0  0  0
    7.9391  -15.8599   19.5824 N   0  0  0  0  0  0  0  0  0  0  0  0
    9.2806  -15.8504   21.6114 C   0  0  0  0  0  0  0  0  0  0  0  0
    8.5617  -16.8179   22.0222 O   0  0  0  0  0  0  0  0  0  0  0  0
   10.5026  -15.5753   22.2712 N   0  0  0  0  0  0  0  0  0  0  0  0
   11.1227  -16.5351   23.1528 C   0  0  1  0  0  0  0  0  0  0  0  0
   12.6146  -16.5905   22.9104 C   0  0  0  0  0  0  0  0  0  0  0  0
   13.3348  -17.5416   23.8035 C   0  0  0  0  0  0  0  0  0  0  0  0
   14.8352  -17.5423   23.6139 C   0  0  0  0  0  0  0  0  0  0  0  0
   15.4529  -18.5764   24.5025 C   0  0  0  0  0  0  0  0  0  0  0  0
   16.8960  -18.6483   24.2752 N   0  0  0  0  0  0  0  0  0  0  0  0
   10.7913  -16.2199   24.5619 C   0  0  0  0  0  0  0  0  0  0  0  0
   11.0822  -17.1516   25.5386 O   0  0  0  0  0  0  0  0  0  0  0  0
   10.2563  -15.1451   24.9248 O   0  0  0  0  0  0  0  0  0  0  0  0
  2  1  1  6
  3  2  1  0
  4  3  1  0
  4  5  1  0
  6  5  1  0
  6  7  1  0
  8  9  2  0
  8  2  1  0
 11 10  1  6
 11 13  1  0
 12 11  1  0
 13 14  1  1
 14  8  1  0
 15 17  1  0
 15 13  1  0
 16 15  2  0
 18 17  1  0
 18 24  1  0
 18 19  1  1
 20 21  1  0
 20 19  1  0
 21 22  1  0
 23 22  1  0
 24 25  1  0
 26 24  2  0
M  END
$$$$
