KVK.pdb
     RDKit          3D

 26 25  0  0  1  0  0  0  0  0999 V2000
    9.3567  -17.6678   16.7954 N   0  0  0  0  0  0  0  0  0  0  0  0
    8.3210  -17.5931   17.7740 C   0  0  1  0  0  0  0  0  0  0  0  0
    7.8940  -18.8842   18.3885 C   0  0  0  0  0  0  0  0  0  0  0  0
    6.6916  -19.4774   17.7597 C   0  0  0  0  0  0  0  0  0  0  0  0
    6.1483  -20.7321   18.3136 C   0  0  0  0  0  0  0  0  0  0  0  0
    4.8848  -21.1791   17.6537 C   0  0  0  0  0  0  0  0  0  0  0  0
    4.3375  -22.4021   18.1402 N   0  0  0  0  0  0  0  0  0  0  0  0
    8.7446  -16.6963   18.9063 C   0  0  0  0  0  0  0  0  0  0  0  0
    9.8694  -16.9351   19.4264 O   0  0  0  0  0  0  0  0  0  0  0  0
    7.8614  -12.8523   21.9116 C   0  0  0  0  0  0  0  0  0  0  0  0
    7.4529  -13.6371   20.6963 C   0  0  1  0  0  0  0  0  0  0  0  0
    7.4841  -12.7030   19.5062 C   0  0  0  0  0  0  0  0  0  0  0  0
    8.3403  -14.8579   20.4842 C   0  0  2  0  0  0  0  0  0  0  0  0
    7.9191  -15.6297   19.3691 N   0  0  0  0  0  0  0  0  0  0  0  0
    8.3813  -15.6082   21.7571 C   0  0  0  0  0  0  0  0  0  0  0  0
    7.2739  -16.0934   22.1571 O   0  0  0  0  0  0  0  0  0  0  0  0
    9.5433  -15.8154   22.5387 N   0  0  0  0  0  0  0  0  0  0  0  0
    9.5007  -16.5407   23.7857 C   0  0  1  0  0  0  0  0  0  0  0  0
    9.9722  -17.9639   23.5872 C   0  0  0  0  0  0  0  0  0  0  0  0
   11.4303  -18.0810   23.3026 C   0  0  0  0  0  0  0  0  0  0  0  0
   11.9011  -19.5032   23.0953 C   0  0  0  0  0  0  0  0  0  0  0  0
   13.3434  -19.5012   22.6953 C   0  0  0  0  0  0  0  0  0  0  0  0
   13.8630  -20.8678   22.6522 N   0  0  0  0  0  0  0  0  0  0  0  0
   10.2863  -15.8248   24.8177 C   0  0  0  0  0  0  0  0  0  0  0  0
   10.2373  -16.2743   26.1225 O   0  0  0  0  0  0  0  0  0  0  0  0
   11.0014  -14.8235   24.5744 O   0  0  0  0  0  0  0  0  0  0  0  0
  2  1  1  6
  3  2  1  0
  4  3  1  0
  4  5  1  0
  6  5  1  0
  6  7  1  0
  8  9  2  0
  8  2  1  0
 11 10  1  1
 11 13  1  0
 12 11  1  0
 13 14  1  6
 14  8  1  0
 15 17  1  0
 15 13  1  0
 16 15  2  0
 18 17  1  0
 18 24  1  0
 18 19  1  6
 20 21  1  0
 20 19  1  0
 21 22  1  0
 23 22  1  0
 24 25  1  0
 26 24  2  0
M  END
$$$$
