KVK.pdb
     RDKit          3D

 26 25  0  0  1  0  0  0  0  0999 V2000
    7.0391  -17.6418   17.9540 N   0  0  0  0  0  0  0  0  0  0  0  0
    8.4616  -17.6784   17.8480 C   0  0  1  0  0  0  0  0  0  0  0  0
    9.0311  -17.4743   16.4838 C   0  0  0  0  0  0  0  0  0  0  0  0
    8.4443  -18.3596   15.4518 C   0  0  0  0  0  0  0  0  0  0  0  0
    7.7449  -17.7465   14.3068 C   0  0  0  0  0  0  0  0  0  0  0  0
    8.4388  -17.9562   13.0006 C   0  0  0  0  0  0  0  0  0  0  0  0
    8.6810  -19.3153   12.6453 N   0  0  0  0  0  0  0  0  0  0  0  0
    9.0722  -16.6241   18.7320 C   0  0  0  0  0  0  0  0  0  0  0  0
   10.3322  -16.5533   18.7400 O   0  0  0  0  0  0  0  0  0  0  0  0
    7.4883  -13.0189   19.3370 C   0  0  0  0  0  0  0  0  0  0  0  0
    8.0281  -13.5846   20.6208 C   0  0  1  0  0  0  0  0  0  0  0  0
    6.8537  -13.8986   21.5219 C   0  0  0  0  0  0  0  0  0  0  0  0
    8.9021  -14.8094   20.3784 C   0  0  2  0  0  0  0  0  0  0  0  0
    8.2698  -15.7481   19.5206 N   0  0  0  0  0  0  0  0  0  0  0  0
    9.2815  -15.3570   21.6978 C   0  0  0  0  0  0  0  0  0  0  0  0
    8.3497  -15.9176   22.3605 O   0  0  0  0  0  0  0  0  0  0  0  0
   10.5810  -15.2985   22.2564 N   0  0  0  0  0  0  0  0  0  0  0  0
   11.0986  -16.3582   23.0883 C   0  0  1  0  0  0  0  0  0  0  0  0
   11.0659  -17.6768   22.3482 C   0  0  0  0  0  0  0  0  0  0  0  0
   11.5645  -18.8298   23.1499 C   0  0  0  0  0  0  0  0  0  0  0  0
   11.4963  -20.1548   22.4241 C   0  0  0  0  0  0  0  0  0  0  0  0
   12.0591  -21.2339   23.2954 C   0  0  0  0  0  0  0  0  0  0  0  0
   11.9243  -22.5372   22.6452 N   0  0  0  0  0  0  0  0  0  0  0  0
   12.4579  -16.0125   23.5655 C   0  0  0  0  0  0  0  0  0  0  0  0
   12.8353  -16.3981   24.8366 O   0  0  0  0  0  0  0  0  0  0  0  0
   13.2959  -15.3836   22.8761 O   0  0  0  0  0  0  0  0  0  0  0  0
  2  1  1  6
  3  2  1  0
  4  3  1  0
  4  5  1  0
  6  5  1  0
  6  7  1  0
  8  9  2  0
  8  2  1  0
 11 10  1  6
 11 13  1  0
 12 11  1  0
 13 14  1  6
 14  8  1  0
 15 17  1  0
 15 13  1  0
 16 15  2  0
 18 17  1  0
 18 24  1  0
 18 19  1  6
 20 21  1  0
 20 19  1  0
 21 22  1  0
 23 22  1  0
 24 25  1  0
 26 24  2  0
M  END
$$$$
