KVK.pdb
     RDKit          3D

 26 25  0  0  1  0  0  0  0  0999 V2000
    5.8879  -20.3088   25.4193 N   0  0  0  0  0  0  0  0  0  0  0  0
    6.8010  -19.4019   26.0354 C   0  0  1  0  0  0  0  0  0  0  0  0
    8.1259  -19.9616   26.4332 C   0  0  0  0  0  0  0  0  0  0  0  0
    8.1259  -20.6110   27.7642 C   0  0  0  0  0  0  0  0  0  0  0  0
    9.0620  -20.1189   28.7926 C   0  0  0  0  0  0  0  0  0  0  0  0
    8.9364  -20.8258   30.1026 C   0  0  0  0  0  0  0  0  0  0  0  0
    8.7838  -22.2410   30.0245 N   0  0  0  0  0  0  0  0  0  0  0  0
    7.0811  -18.2455   25.1132 C   0  0  0  0  0  0  0  0  0  0  0  0
    6.9970  -18.4762   23.8754 O   0  0  0  0  0  0  0  0  0  0  0  0
    8.0565  -13.4651   24.3419 C   0  0  0  0  0  0  0  0  0  0  0  0
    7.6002  -14.5430   25.2851 C   0  0  1  0  0  0  0  0  0  0  0  0
    6.1500  -14.2792   25.6276 C   0  0  0  0  0  0  0  0  0  0  0  0
    7.8013  -15.9345   24.6970 C   0  0  2  0  0  0  0  0  0  0  0  0
    7.4234  -16.9538   25.6107 N   0  0  0  0  0  0  0  0  0  0  0  0
    9.2021  -16.0270   24.2346 C   0  0  0  0  0  0  0  0  0  0  0  0
   10.0837  -16.1665   25.1430 O   0  0  0  0  0  0  0  0  0  0  0  0
    9.6144  -15.9713   22.8814 N   0  0  0  0  0  0  0  0  0  0  0  0
   10.9452  -16.3555   22.4763 C   0  0  1  0  0  0  0  0  0  0  0  0
   11.0714  -16.3197   20.9696 C   0  0  0  0  0  0  0  0  0  0  0  0
   12.3629  -16.8618   20.4605 C   0  0  0  0  0  0  0  0  0  0  0  0
   12.4519  -16.9149   18.9517 C   0  0  0  0  0  0  0  0  0  0  0  0
   13.6589  -17.7024   18.5476 C   0  0  0  0  0  0  0  0  0  0  0  0
   13.6632  -17.9240   17.1018 N   0  0  0  0  0  0  0  0  0  0  0  0
   11.9490  -15.4969   23.1472 C   0  0  0  0  0  0  0  0  0  0  0  0
   13.1418  -16.0610   23.5545 O   0  0  0  0  0  0  0  0  0  0  0  0
   11.7783  -14.2745   23.3697 O   0  0  0  0  0  0  0  0  0  0  0  0
  2  1  1  6
  3  2  1  0
  4  3  1  0
  4  5  1  0
  6  5  1  0
  6  7  1  0
  8  9  2  0
  8  2  1  0
 11 10  1  6
 11 13  1  0
 12 11  1  0
 13 14  1  1
 14  8  1  0
 15 17  1  0
 15 13  1  0
 16 15  2  0
 18 17  1  0
 18 24  1  0
 18 19  1  6
 20 21  1  0
 20 19  1  0
 21 22  1  0
 23 22  1  0
 24 25  1  0
 26 24  2  0
M  END
$$$$
