KVK.pdb
     RDKit          3D

 26 25  0  0  1  0  0  0  0  0999 V2000
    7.5884  -14.1836   20.6857 N   0  0  0  0  0  0  0  0  0  0  0  0
    6.9965  -14.7492   21.8543 C   0  0  1  0  0  0  0  0  0  0  0  0
    6.7311  -16.2173   21.8197 C   0  0  0  0  0  0  0  0  0  0  0  0
    7.3321  -16.9068   20.6550 C   0  0  0  0  0  0  0  0  0  0  0  0
    7.0247  -18.3335   20.4400 C   0  0  0  0  0  0  0  0  0  0  0  0
    7.6166  -18.8902   19.1865 C   0  0  0  0  0  0  0  0  0  0  0  0
    7.4414  -20.2918   18.9946 N   0  0  0  0  0  0  0  0  0  0  0  0
    7.8748  -14.4983   23.0508 C   0  0  0  0  0  0  0  0  0  0  0  0
    9.1187  -14.6160   22.8738 O   0  0  0  0  0  0  0  0  0  0  0  0
    7.2848  -11.5449   25.7478 C   0  0  0  0  0  0  0  0  0  0  0  0
    7.5877  -12.8719   26.3857 C   0  0  1  0  0  0  0  0  0  0  0  0
    6.3022  -13.4096   26.9758 C   0  0  0  0  0  0  0  0  0  0  0  0
    8.2109  -13.8487   25.3955 C   0  0  2  0  0  0  0  0  0  0  0  0
    7.3312  -14.1444   24.3206 N   0  0  0  0  0  0  0  0  0  0  0  0
    8.6550  -15.0354   26.1565 C   0  0  0  0  0  0  0  0  0  0  0  0
    7.7412  -15.8504   26.5067 O   0  0  0  0  0  0  0  0  0  0  0  0
    9.9966  -15.3152   26.5114 N   0  0  0  0  0  0  0  0  0  0  0  0
   10.3531  -16.4929   27.2657 C   0  0  1  0  0  0  0  0  0  0  0  0
   11.5427  -17.1843   26.6377 C   0  0  0  0  0  0  0  0  0  0  0  0
   11.2956  -17.6653   25.2490 C   0  0  0  0  0  0  0  0  0  0  0  0
   12.4976  -18.3190   24.6049 C   0  0  0  0  0  0  0  0  0  0  0  0
   12.1558  -18.7316   23.2073 C   0  0  0  0  0  0  0  0  0  0  0  0
   13.2972  -19.3947   22.5773 N   0  0  0  0  0  0  0  0  0  0  0  0
   10.5916  -16.1360   28.6836 C   0  0  0  0  0  0  0  0  0  0  0  0
   10.7697  -17.1496   29.6043 O   0  0  0  0  0  0  0  0  0  0  0  0
   10.6420  -14.9549   29.1025 O   0  0  0  0  0  0  0  0  0  0  0  0
  2  1  1  6
  3  2  1  0
  4  3  1  0
  4  5  1  0
  6  5  1  0
  6  7  1  0
  8  9  2  0
  8  2  1  0
 11 10  1  6
 11 13  1  0
 12 11  1  0
 13 14  1  6
 14  8  1  0
 15 17  1  0
 15 13  1  0
 16 15  2  0
 18 17  1  0
 18 24  1  0
 18 19  1  6
 20 21  1  0
 20 19  1  0
 21 22  1  0
 23 22  1  0
 24 25  1  0
 26 24  2  0
M  END
$$$$
