KVK.pdb
     RDKit          3D

 26 25  0  0  1  0  0  0  0  0999 V2000
    7.2417  -16.4467   21.2448 N   0  0  0  0  0  0  0  0  0  0  0  0
    6.6745  -16.4563   22.5541 C   0  0  1  0  0  0  0  0  0  0  0  0
    6.5099  -17.7931   23.1964 C   0  0  0  0  0  0  0  0  0  0  0  0
    5.5940  -18.6992   22.4661 C   0  0  0  0  0  0  0  0  0  0  0  0
    5.3229  -20.0360   23.0279 C   0  0  0  0  0  0  0  0  0  0  0  0
    4.3865  -20.8538   22.1997 C   0  0  0  0  0  0  0  0  0  0  0  0
    4.9588  -21.4594   21.0432 N   0  0  0  0  0  0  0  0  0  0  0  0
    7.5182  -15.6305   23.4880 C   0  0  0  0  0  0  0  0  0  0  0  0
    8.7666  -15.8042   23.4253 O   0  0  0  0  0  0  0  0  0  0  0  0
    5.8349  -13.2377   26.6738 C   0  0  0  0  0  0  0  0  0  0  0  0
    7.0501  -12.7885   25.9114 C   0  0  1  0  0  0  0  0  0  0  0  0
    7.9399  -12.0196   26.8637 C   0  0  0  0  0  0  0  0  0  0  0  0
    7.7830  -13.9606   25.2695 C   0  0  2  0  0  0  0  0  0  0  0  0
    6.9386  -14.6979   24.3977 N   0  0  0  0  0  0  0  0  0  0  0  0
    8.3791  -14.7653   26.3566 C   0  0  0  0  0  0  0  0  0  0  0  0
    7.5747  -15.5022   27.0137 O   0  0  0  0  0  0  0  0  0  0  0  0
    9.7514  -14.7680   26.7041 N   0  0  0  0  0  0  0  0  0  0  0  0
   10.2976  -15.7267   27.6345 C   0  0  1  0  0  0  0  0  0  0  0  0
   11.6045  -16.2834   27.1155 C   0  0  0  0  0  0  0  0  0  0  0  0
   11.4476  -17.2074   25.9569 C   0  0  0  0  0  0  0  0  0  0  0  0
   12.7582  -17.7004   25.3855 C   0  0  0  0  0  0  0  0  0  0  0  0
   12.4898  -18.6926   24.2974 C   0  0  0  0  0  0  0  0  0  0  0  0
   13.7467  -19.1919   23.7406 N   0  0  0  0  0  0  0  0  0  0  0  0
   10.4389  -15.1113   28.9747 C   0  0  0  0  0  0  0  0  0  0  0  0
   10.2064  -13.7572   29.1133 O   0  0  0  0  0  0  0  0  0  0  0  0
   10.7607  -15.7540   30.0025 O   0  0  0  0  0  0  0  0  0  0  0  0
  2  1  1  6
  3  2  1  0
  4  3  1  0
  4  5  1  0
  6  5  1  0
  6  7  1  0
  8  9  2  0
  8  2  1  0
 11 10  1  1
 11 13  1  0
 12 11  1  0
 13 14  1  1
 14  8  1  0
 15 17  1  0
 15 13  1  0
 16 15  2  0
 18 17  1  0
 18 24  1  0
 18 19  1  6
 20 21  1  0
 20 19  1  0
 21 22  1  0
 23 22  1  0
 24 25  1  0
 26 24  2  0
M  END
$$$$
