KVK.pdb
     RDKit          3D

 26 25  0  0  1  0  0  0  0  0999 V2000
    7.8268  -17.7589   16.4469 N   0  0  0  0  0  0  0  0  0  0  0  0
    7.1969  -17.6949   17.7255 C   0  0  1  0  0  0  0  0  0  0  0  0
    6.9493  -18.9979   18.4095 C   0  0  0  0  0  0  0  0  0  0  0  0
    6.0318  -19.8962   17.6715 C   0  0  0  0  0  0  0  0  0  0  0  0
    6.5489  -21.1862   17.1770 C   0  0  0  0  0  0  0  0  0  0  0  0
    5.5216  -22.0120   16.4739 C   0  0  0  0  0  0  0  0  0  0  0  0
    5.9812  -23.2624   15.9666 N   0  0  0  0  0  0  0  0  0  0  0  0
    8.0258  -16.8642   18.6682 C   0  0  0  0  0  0  0  0  0  0  0  0
    9.2547  -17.1430   18.7363 O   0  0  0  0  0  0  0  0  0  0  0  0
    8.4802  -12.9426   21.6557 C   0  0  0  0  0  0  0  0  0  0  0  0
    7.5872  -13.7779   20.7814 C   0  0  1  0  0  0  0  0  0  0  0  0
    7.1091  -12.9091   19.6384 C   0  0  0  0  0  0  0  0  0  0  0  0
    8.2930  -15.0338   20.2841 C   0  0  2  0  0  0  0  0  0  0  0  0
    7.4540  -15.8143   19.4454 N   0  0  0  0  0  0  0  0  0  0  0  0
    8.8059  -15.7571   21.4666 C   0  0  0  0  0  0  0  0  0  0  0  0
    7.9281  -16.2685   22.2346 O   0  0  0  0  0  0  0  0  0  0  0  0
   10.1752  -15.9126   21.7907 N   0  0  0  0  0  0  0  0  0  0  0  0
   10.6028  -16.6863   22.9315 C   0  0  1  0  0  0  0  0  0  0  0  0
   11.0848  -18.0518   22.4949 C   0  0  0  0  0  0  0  0  0  0  0  0
   11.5195  -18.9254   23.6213 C   0  0  0  0  0  0  0  0  0  0  0  0
   12.1621  -20.2207   23.1782 C   0  0  0  0  0  0  0  0  0  0  0  0
   12.6086  -20.9957   24.3784 C   0  0  0  0  0  0  0  0  0  0  0  0
   13.1077  -22.3115   23.9797 N   0  0  0  0  0  0  0  0  0  0  0  0
   11.6318  -15.9420   23.6943 C   0  0  0  0  0  0  0  0  0  0  0  0
   11.7974  -16.2215   25.0365 O   0  0  0  0  0  0  0  0  0  0  0  0
   12.3699  -15.0633   23.1882 O   0  0  0  0  0  0  0  0  0  0  0  0
  2  1  1  6
  3  2  1  0
  4  3  1  0
  4  5  1  0
  6  5  1  0
  6  7  1  0
  8  9  2  0
  8  2  1  0
 11 10  1  1
 11 13  1  0
 12 11  1  0
 13 14  1  1
 14  8  1  0
 15 17  1  0
 15 13  1  0
 16 15  2  0
 18 17  1  0
 18 24  1  0
 18 19  1  6
 20 21  1  0
 20 19  1  0
 21 22  1  0
 23 22  1  0
 24 25  1  0
 26 24  2  0
M  END
$$$$
