KVK.pdb
     RDKit          3D

 26 25  0  0  1  0  0  0  0  0999 V2000
    7.9421  -14.4580   20.4789 N   0  0  0  0  0  0  0  0  0  0  0  0
    7.3592  -15.1253   21.5972 C   0  0  1  0  0  0  0  0  0  0  0  0
    7.4992  -16.6106   21.6309 C   0  0  0  0  0  0  0  0  0  0  0  0
    6.8302  -17.3004   20.5040 C   0  0  0  0  0  0  0  0  0  0  0  0
    6.0152  -18.4965   20.7888 C   0  0  0  0  0  0  0  0  0  0  0  0
    5.3338  -19.0566   19.5831 C   0  0  0  0  0  0  0  0  0  0  0  0
    4.5510  -20.2264   19.8082 N   0  0  0  0  0  0  0  0  0  0  0  0
    7.9583  -14.6070   22.8772 C   0  0  0  0  0  0  0  0  0  0  0  0
    9.2146  -14.4911   22.9072 O   0  0  0  0  0  0  0  0  0  0  0  0
    7.4872  -12.8353   27.4685 C   0  0  0  0  0  0  0  0  0  0  0  0
    6.8458  -13.1389   26.1433 C   0  0  1  0  0  0  0  0  0  0  0  0
    6.4267  -11.8267   25.5169 C   0  0  0  0  0  0  0  0  0  0  0  0
    7.7740  -13.9331   25.2319 C   0  0  2  0  0  0  0  0  0  0  0  0
    7.1494  -14.2628   23.9999 N   0  0  0  0  0  0  0  0  0  0  0  0
    8.2585  -15.1023   25.9954 C   0  0  0  0  0  0  0  0  0  0  0  0
    7.3630  -15.8920   26.4385 O   0  0  0  0  0  0  0  0  0  0  0  0
    9.6192  -15.3914   26.2583 N   0  0  0  0  0  0  0  0  0  0  0  0
   10.0181  -16.5728   26.9850 C   0  0  1  0  0  0  0  0  0  0  0  0
   11.3121  -17.1246   26.4296 C   0  0  0  0  0  0  0  0  0  0  0  0
   11.3003  -17.3150   24.9516 C   0  0  0  0  0  0  0  0  0  0  0  0
   12.5737  -17.9181   24.4021 C   0  0  0  0  0  0  0  0  0  0  0  0
   12.4137  -18.1797   22.9371 C   0  0  0  0  0  0  0  0  0  0  0  0
   13.6301  -18.7799   22.3900 N   0  0  0  0  0  0  0  0  0  0  0  0
   10.1079  -16.2732   28.4330 C   0  0  0  0  0  0  0  0  0  0  0  0
   10.1922  -17.3231   29.3261 O   0  0  0  0  0  0  0  0  0  0  0  0
   10.1120  -15.1098   28.9017 O   0  0  0  0  0  0  0  0  0  0  0  0
  2  1  1  6
  3  2  1  0
  4  3  1  0
  4  5  1  0
  6  5  1  0
  6  7  1  0
  8  9  2  0
  8  2  1  0
 11 10  1  1
 11 13  1  0
 12 11  1  0
 13 14  1  6
 14  8  1  0
 15 17  1  0
 15 13  1  0
 16 15  2  0
 18 17  1  0
 18 24  1  0
 18 19  1  6
 20 21  1  0
 20 19  1  0
 21 22  1  0
 23 22  1  0
 24 25  1  0
 26 24  2  0
M  END
$$$$
