KVK.pdb
     RDKit          3D

 26 25  0  0  1  0  0  0  0  0999 V2000
    7.6578  -15.0312   20.7124 N   0  0  0  0  0  0  0  0  0  0  0  0
    7.1369  -15.4802   21.9626 C   0  0  1  0  0  0  0  0  0  0  0  0
    7.1375  -16.9549   22.1909 C   0  0  0  0  0  0  0  0  0  0  0  0
    6.3336  -17.7134   21.2052 C   0  0  0  0  0  0  0  0  0  0  0  0
    6.2152  -19.1753   21.3622 C   0  0  0  0  0  0  0  0  0  0  0  0
    4.8140  -19.6407   21.5891 C   0  0  0  0  0  0  0  0  0  0  0  0
    4.1287  -20.1126   20.4316 N   0  0  0  0  0  0  0  0  0  0  0  0
    7.9160  -14.8683   23.0960 C   0  0  0  0  0  0  0  0  0  0  0  0
    9.1732  -14.9548   23.0293 O   0  0  0  0  0  0  0  0  0  0  0  0
    7.1236  -11.4300   25.2091 C   0  0  0  0  0  0  0  0  0  0  0  0
    7.3393  -12.6531   26.0559 C   0  0  1  0  0  0  0  0  0  0  0  0
    5.9918  -13.1018   26.5783 C   0  0  0  0  0  0  0  0  0  0  0  0
    8.0472  -13.7603   25.2841 C   0  0  2  0  0  0  0  0  0  0  0  0
    7.2686  -14.2226   24.1901 N   0  0  0  0  0  0  0  0  0  0  0  0
    8.4158  -14.8153   26.2515 C   0  0  0  0  0  0  0  0  0  0  0  0
    7.5086  -15.6661   26.5250 O   0  0  0  0  0  0  0  0  0  0  0  0
    9.6803  -14.9357   26.8767 N   0  0  0  0  0  0  0  0  0  0  0  0
   10.0249  -16.0852   27.6784 C   0  0  1  0  0  0  0  0  0  0  0  0
   11.1858  -16.8328   27.0613 C   0  0  0  0  0  0  0  0  0  0  0  0
   11.5600  -18.0751   27.7944 C   0  0  0  0  0  0  0  0  0  0  0  0
   12.7135  -18.8293   27.1716 C   0  0  0  0  0  0  0  0  0  0  0  0
   12.9931  -20.0656   27.9677 C   0  0  0  0  0  0  0  0  0  0  0  0
   14.1164  -20.8021   27.3889 N   0  0  0  0  0  0  0  0  0  0  0  0
   10.2995  -15.6687   29.0733 C   0  0  0  0  0  0  0  0  0  0  0  0
   10.4464  -16.6419   30.0420 O   0  0  0  0  0  0  0  0  0  0  0  0
   10.4080  -14.4715   29.4312 O   0  0  0  0  0  0  0  0  0  0  0  0
  2  1  1  6
  3  2  1  0
  4  3  1  0
  4  5  1  0
  6  5  1  0
  6  7  1  0
  8  9  2  0
  8  2  1  0
 11 10  1  6
 11 13  1  0
 12 11  1  0
 13 14  1  6
 14  8  1  0
 15 17  1  0
 15 13  1  0
 16 15  2  0
 18 17  1  0
 18 24  1  0
 18 19  1  6
 20 21  1  0
 20 19  1  0
 21 22  1  0
 23 22  1  0
 24 25  1  0
 26 24  2  0
M  END
$$$$
