KVK.pdb
     RDKit          3D

 26 25  0  0  1  0  0  0  0  0999 V2000
    7.3187  -13.2367   20.3031 N   0  0  0  0  0  0  0  0  0  0  0  0
    7.3819  -14.3832   21.1501 C   0  0  1  0  0  0  0  0  0  0  0  0
    8.0530  -15.5902   20.5846 C   0  0  0  0  0  0  0  0  0  0  0  0
    7.1214  -16.5505   19.9497 C   0  0  0  0  0  0  0  0  0  0  0  0
    7.6592  -17.8230   19.4326 C   0  0  0  0  0  0  0  0  0  0  0  0
    6.6166  -18.7194   18.8487 C   0  0  0  0  0  0  0  0  0  0  0  0
    7.0818  -19.9882   18.3951 N   0  0  0  0  0  0  0  0  0  0  0  0
    8.1078  -14.0439   22.4245 C   0  0  0  0  0  0  0  0  0  0  0  0
    8.5620  -12.8705   22.5212 O   0  0  0  0  0  0  0  0  0  0  0  0
    7.7245  -12.3328   24.4222 C   0  0  0  0  0  0  0  0  0  0  0  0
    7.9536  -13.4865   25.3582 C   0  0  1  0  0  0  0  0  0  0  0  0
    6.6018  -14.0095   25.7928 C   0  0  0  0  0  0  0  0  0  0  0  0
    8.8058  -14.5761   24.7184 C   0  0  2  0  0  0  0  0  0  0  0  0
    8.2743  -14.9981   23.4710 N   0  0  0  0  0  0  0  0  0  0  0  0
    8.9597  -15.6631   25.7081 C   0  0  0  0  0  0  0  0  0  0  0  0
    7.8858  -16.0885   26.2443 O   0  0  0  0  0  0  0  0  0  0  0  0
   10.1932  -16.2453   26.0873 N   0  0  0  0  0  0  0  0  0  0  0  0
   10.2575  -17.5296   26.7426 C   0  0  1  0  0  0  0  0  0  0  0  0
   11.4575  -18.3121   26.2579 C   0  0  0  0  0  0  0  0  0  0  0  0
   11.5252  -18.4543   24.7760 C   0  0  0  0  0  0  0  0  0  0  0  0
   12.9202  -18.3087   24.2104 C   0  0  0  0  0  0  0  0  0  0  0  0
   12.8702  -18.4139   22.7181 C   0  0  0  0  0  0  0  0  0  0  0  0
   14.1906  -18.1570   22.1438 N   0  0  0  0  0  0  0  0  0  0  0  0
   10.2567  -17.3509   28.2132 C   0  0  0  0  0  0  0  0  0  0  0  0
   10.2243  -16.0701   28.7282 O   0  0  0  0  0  0  0  0  0  0  0  0
   10.2840  -18.3043   29.0277 O   0  0  0  0  0  0  0  0  0  0  0  0
  2  1  1  6
  3  2  1  0
  4  3  1  0
  4  5  1  0
  6  5  1  0
  6  7  1  0
  8  9  2  0
  8  2  1  0
 11 10  1  6
 11 13  1  0
 12 11  1  0
 13 14  1  6
 14  8  1  0
 15 17  1  0
 15 13  1  0
 16 15  2  0
 18 17  1  0
 18 24  1  0
 18 19  1  6
 20 21  1  0
 20 19  1  0
 21 22  1  0
 23 22  1  0
 24 25  1  0
 26 24  2  0
M  END
$$$$
