KVK.pdb
     RDKit          3D

 26 25  0  0  1  0  0  0  0  0999 V2000
    9.4956  -17.4248   16.9383 N   0  0  0  0  0  0  0  0  0  0  0  0
    8.7494  -17.3343   18.1511 C   0  0  1  0  0  0  0  0  0  0  0  0
    8.7495  -18.5457   19.0226 C   0  0  0  0  0  0  0  0  0  0  0  0
    8.1557  -19.7425   18.3837 C   0  0  0  0  0  0  0  0  0  0  0  0
    8.0336  -20.9812   19.1754 C   0  0  0  0  0  0  0  0  0  0  0  0
    7.4841  -22.1341   18.4006 C   0  0  0  0  0  0  0  0  0  0  0  0
    7.3241  -23.3462   19.1337 N   0  0  0  0  0  0  0  0  0  0  0  0
    9.2673  -16.1984   18.9922 C   0  0  0  0  0  0  0  0  0  0  0  0
   10.5168  -16.0211   18.9953 O   0  0  0  0  0  0  0  0  0  0  0  0
    7.3376  -12.6162   19.8324 C   0  0  0  0  0  0  0  0  0  0  0  0
    7.9063  -13.3403   21.0206 C   0  0  1  0  0  0  0  0  0  0  0  0
    6.7558  -13.9624   21.7816 C   0  0  0  0  0  0  0  0  0  0  0  0
    8.9435  -14.3786   20.6096 C   0  0  2  0  0  0  0  0  0  0  0  0
    8.3925  -15.3631   19.7473 N   0  0  0  0  0  0  0  0  0  0  0  0
    9.5437  -14.9252   21.8448 C   0  0  0  0  0  0  0  0  0  0  0  0
   10.0607  -14.0752   22.6399 O   0  0  0  0  0  0  0  0  0  0  0  0
    9.5792  -16.2976   22.1902 N   0  0  0  0  0  0  0  0  0  0  0  0
   10.1621  -16.7544   23.4289 C   0  0  1  0  0  0  0  0  0  0  0  0
    9.9442  -18.2412   23.6004 C   0  0  0  0  0  0  0  0  0  0  0  0
   10.5743  -18.8045   24.8278 C   0  0  0  0  0  0  0  0  0  0  0  0
   10.3607  -20.2920   24.9978 C   0  0  0  0  0  0  0  0  0  0  0  0
   11.0618  -20.7617   26.2340 C   0  0  0  0  0  0  0  0  0  0  0  0
   10.6652  -22.1321   26.5562 N   0  0  0  0  0  0  0  0  0  0  0  0
   11.5956  -16.3843   23.4835 C   0  0  0  0  0  0  0  0  0  0  0  0
   12.3435  -16.4451   22.3243 O   0  0  0  0  0  0  0  0  0  0  0  0
   12.1770  -16.0147   24.5316 O   0  0  0  0  0  0  0  0  0  0  0  0
  2  1  1  6
  3  2  1  0
  4  3  1  0
  4  5  1  0
  6  5  1  0
  6  7  1  0
  8  9  2  0
  8  2  1  0
 11 10  1  6
 11 13  1  0
 12 11  1  0
 13 14  1  1
 14  8  1  0
 15 17  1  0
 15 13  1  0
 16 15  2  0
 18 17  1  0
 18 24  1  0
 18 19  1  6
 20 21  1  0
 20 19  1  0
 21 22  1  0
 23 22  1  0
 24 25  1  0
 26 24  2  0
M  END
$$$$
