KVK.pdb
     RDKit          3D

 26 25  0  0  1  0  0  0  0  0999 V2000
    8.8737  -17.5071   16.1107 N   0  0  0  0  0  0  0  0  0  0  0  0
    7.8344  -17.1887   17.0350 C   0  0  1  0  0  0  0  0  0  0  0  0
    6.9678  -18.3210   17.4753 C   0  0  0  0  0  0  0  0  0  0  0  0
    7.7119  -19.5707   17.7544 C   0  0  0  0  0  0  0  0  0  0  0  0
    6.9526  -20.7794   18.1264 C   0  0  0  0  0  0  0  0  0  0  0  0
    6.0322  -21.2611   17.0529 C   0  0  0  0  0  0  0  0  0  0  0  0
    5.2776  -22.4284   17.3692 N   0  0  0  0  0  0  0  0  0  0  0  0
    8.4207  -16.5845   18.2828 C   0  0  0  0  0  0  0  0  0  0  0  0
    9.6303  -16.8502   18.5253 O   0  0  0  0  0  0  0  0  0  0  0  0
    8.0337  -13.3482   22.0192 C   0  0  0  0  0  0  0  0  0  0  0  0
    7.3897  -14.0070   20.8314 C   0  0  1  0  0  0  0  0  0  0  0  0
    7.0077  -12.9227   19.8474 C   0  0  0  0  0  0  0  0  0  0  0  0
    8.3002  -15.0532   20.1994 C   0  0  2  0  0  0  0  0  0  0  0  0
    7.6507  -15.7529   19.1481 N   0  0  0  0  0  0  0  0  0  0  0  0
    8.8029  -15.9229   21.2836 C   0  0  0  0  0  0  0  0  0  0  0  0
    8.0236  -16.8577   21.6585 O   0  0  0  0  0  0  0  0  0  0  0  0
   10.0626  -15.7854   21.9149 N   0  0  0  0  0  0  0  0  0  0  0  0
   10.5605  -16.7745   22.8404 C   0  0  1  0  0  0  0  0  0  0  0  0
   11.9855  -17.1491   22.4996 C   0  0  0  0  0  0  0  0  0  0  0  0
   12.5608  -18.1992   23.3869 C   0  0  0  0  0  0  0  0  0  0  0  0
   14.0124  -18.5132   23.1020 C   0  0  0  0  0  0  0  0  0  0  0  0
   14.4784  -19.6042   24.0146 C   0  0  0  0  0  0  0  0  0  0  0  0
   15.8834  -19.9194   23.7575 N   0  0  0  0  0  0  0  0  0  0  0  0
   10.4233  -16.2840   24.2316 C   0  0  0  0  0  0  0  0  0  0  0  0
   10.4480  -17.1990   25.2655 O   0  0  0  0  0  0  0  0  0  0  0  0
   10.2846  -15.0736   24.5298 O   0  0  0  0  0  0  0  0  0  0  0  0
  2  1  1  6
  3  2  1  0
  4  3  1  0
  4  5  1  0
  6  5  1  0
  6  7  1  0
  8  9  2  0
  8  2  1  0
 11 10  1  1
 11 13  1  0
 12 11  1  0
 13 14  1  6
 14  8  1  0
 15 17  1  0
 15 13  1  0
 16 15  2  0
 18 17  1  0
 18 24  1  0
 18 19  1  6
 20 21  1  0
 20 19  1  0
 21 22  1  0
 23 22  1  0
 24 25  1  0
 26 24  2  0
M  END
$$$$
