NWS.pdb
     RDKit          3D

 29 30  0  0  1  0  0  0  0  0999 V2000
   10.8597  -21.9946    0.9021 N   0  0  0  0  0  0  0  0  0  0  0  0
   11.3524  -20.8134    1.5087 C   0  0  0  0  0  0  0  0  0  0  0  0
   10.6593  -19.7694    1.4537 O   0  0  0  0  0  0  0  0  0  0  0  0
   12.6676  -20.8416    2.1833 C   0  0  0  0  0  0  0  0  0  0  0  0
   13.4303  -19.5983    1.7247 C   0  0  2  0  0  0  0  0  0  0  0  0
   13.6159  -19.7841    0.2853 N   0  0  0  0  0  0  0  0  0  0  0  0
   14.7781  -19.7185    2.4171 C   0  0  0  0  0  0  0  0  0  0  0  0
   15.7564  -20.1842    1.7935 O   0  0  0  0  0  0  0  0  0  0  0  0
   14.9177  -19.3040    3.7520 N   0  0  0  0  0  0  0  0  0  0  0  0
   16.1252  -19.2406    4.4767 C   0  0  1  0  0  0  0  0  0  0  0  0
   16.4008  -17.9375    5.2152 C   0  0  0  0  0  0  0  0  0  0  0  0
   16.5677  -16.7851    4.2936 C   0  0  0  0  0  0  0  0  0  0  0  0
   15.7796  -15.6888    4.0610 C   0  0  0  0  0  0  0  0  0  0  0  0
   16.3090  -14.9166    3.1149 N   0  0  0  0  0  0  0  0  0  0  0  0
   17.4539  -15.4995    2.7167 C   0  0  0  0  0  0  0  0  0  0  0  0
   18.3774  -15.0976    1.7492 C   0  0  0  0  0  0  0  0  0  0  0  0
   19.4842  -15.8889    1.5246 C   0  0  0  0  0  0  0  0  0  0  0  0
   19.7086  -17.0476    2.2121 C   0  0  0  0  0  0  0  0  0  0  0  0
   18.7668  -17.4303    3.1760 C   0  0  0  0  0  0  0  0  0  0  0  0
   17.6490  -16.6706    3.4314 C   0  0  0  0  0  0  0  0  0  0  0  0
   16.3400  -20.4328    5.2946 C   0  0  0  0  0  0  0  0  0  0  0  0
   15.3096  -20.9253    5.9075 O   0  0  0  0  0  0  0  0  0  0  0  0
   18.9861  -24.0263    7.0602 O   0  0  0  0  0  0  0  0  0  0  0  0
   19.0060  -22.8953    6.2464 C   0  0  0  0  0  0  0  0  0  0  0  0
   17.6708  -22.2324    6.3083 C   0  0  2  0  0  0  0  0  0  0  0  0
   17.5984  -21.0677    5.4543 N   0  0  0  0  0  0  0  0  0  0  0  0
   17.4433  -21.7890    7.7245 C   0  0  0  0  0  0  0  0  0  0  0  0
   16.9929  -22.6399    8.7058 O   0  0  0  0  0  0  0  0  0  0  0  0
   17.6784  -20.5883    8.0098 O   0  0  0  0  0  0  0  0  0  0  0  0
  2  1  1  0
  3  2  2  0
  4  5  1  0
  4  2  1  0
  5  6  1  6
  7  8  2  0
  7  5  1  0
  9  7  1  0
 10  9  1  0
 11 12  1  0
 10 11  1  1
 12 13  2  0
 12 20  1  0
 13 14  1  0
 14 15  1  0
 15 16  2  0
 16 17  1  0
 18 17  2  0
 19 18  1  0
 20 19  2  0
 20 15  1  0
 21 22  2  0
 21 10  1  0
 23 24  1  0
 25 26  1  0
 25 24  1  1
 26 21  1  0
 27 25  1  0
 28 27  1  0
 29 27  2  0
M  END
$$$$
