NWS.pdb
     RDKit          3D

 29 30  0  0  1  0  0  0  0  0999 V2000
   28.6970  -17.8112  -15.7695 N   0  0  0  0  0  0  0  0  0  0  0  0
   27.9698  -18.8160  -16.4529 C   0  0  0  0  0  0  0  0  0  0  0  0
   28.2075  -19.0157  -17.6682 O   0  0  0  0  0  0  0  0  0  0  0  0
   26.9502  -19.5959  -15.7195 C   0  0  0  0  0  0  0  0  0  0  0  0
   27.6665  -20.2835  -14.5568 C   0  0  2  0  0  0  0  0  0  0  0  0
   28.4573  -21.3448  -15.1807 N   0  0  0  0  0  0  0  0  0  0  0  0
   26.5406  -20.9129  -13.7528 C   0  0  0  0  0  0  0  0  0  0  0  0
   25.9801  -21.9475  -14.1749 O   0  0  0  0  0  0  0  0  0  0  0  0
   26.1375  -20.3305  -12.5396 N   0  0  0  0  0  0  0  0  0  0  0  0
   25.2150  -20.8781  -11.6251 C   0  0  1  0  0  0  0  0  0  0  0  0
   25.4256  -20.5214  -10.1596 C   0  0  0  0  0  0  0  0  0  0  0  0
   26.8092  -20.8013   -9.6986 C   0  0  0  0  0  0  0  0  0  0  0  0
   27.8251  -21.5243  -10.2665 C   0  0  0  0  0  0  0  0  0  0  0  0
   28.8978  -21.5340   -9.4785 N   0  0  0  0  0  0  0  0  0  0  0  0
   28.5962  -20.8145   -8.3829 C   0  0  0  0  0  0  0  0  0  0  0  0
   29.3702  -20.5253   -7.2569 C   0  0  0  0  0  0  0  0  0  0  0  0
   28.8154  -19.7580   -6.2543 C   0  0  0  0  0  0  0  0  0  0  0  0
   27.5405  -19.2728   -6.3229 C   0  0  0  0  0  0  0  0  0  0  0  0
   26.7836  -19.5782   -7.4615 C   0  0  0  0  0  0  0  0  0  0  0  0
   27.2981  -20.3402   -8.4846 C   0  0  0  0  0  0  0  0  0  0  0  0
   23.8331  -20.7169  -12.0734 C   0  0  0  0  0  0  0  0  0  0  0  0
   23.3650  -19.5096  -12.1301 O   0  0  0  0  0  0  0  0  0  0  0  0
   21.3080  -22.6179  -14.9389 O   0  0  0  0  0  0  0  0  0  0  0  0
   21.0101  -22.6560  -13.5782 C   0  0  0  0  0  0  0  0  0  0  0  0
   21.6556  -21.4887  -12.9098 C   0  0  2  0  0  0  0  0  0  0  0  0
   22.9883  -21.7957  -12.4400 N   0  0  0  0  0  0  0  0  0  0  0  0
   20.8152  -21.1166  -11.7227 C   0  0  0  0  0  0  0  0  0  0  0  0
   21.2591  -21.2477  -10.4282 O   0  0  0  0  0  0  0  0  0  0  0  0
   19.6611  -20.6685  -11.9363 O   0  0  0  0  0  0  0  0  0  0  0  0
  2  1  1  0
  3  2  2  0
  4  5  1  0
  4  2  1  0
  5  6  1  6
  7  8  2  0
  7  5  1  0
  9  7  1  0
 10  9  1  0
 11 12  1  0
 10 11  1  1
 12 13  2  0
 12 20  1  0
 13 14  1  0
 14 15  1  0
 15 16  2  0
 16 17  1  0
 18 17  2  0
 19 18  1  0
 20 19  2  0
 20 15  1  0
 21 22  2  0
 21 10  1  0
 23 24  1  0
 25 26  1  0
 25 24  1  1
 26 21  1  0
 27 25  1  0
 28 27  1  0
 29 27  2  0
M  END
$$$$
