NWS.pdb
     RDKit          3D

 29 30  0  0  1  0  0  0  0  0999 V2000
   29.1849  -21.1372  -18.2043 N   0  0  0  0  0  0  0  0  0  0  0  0
   27.7925  -21.1392  -18.4633 C   0  0  0  0  0  0  0  0  0  0  0  0
   27.3895  -20.8412  -19.6131 O   0  0  0  0  0  0  0  0  0  0  0  0
   26.8550  -21.4862  -17.3741 C   0  0  0  0  0  0  0  0  0  0  0  0
   27.6873  -21.6344  -16.1001 C   0  0  2  0  0  0  0  0  0  0  0  0
   28.3880  -22.9091  -16.2582 N   0  0  0  0  0  0  0  0  0  0  0  0
   26.6497  -21.7734  -14.9980 C   0  0  0  0  0  0  0  0  0  0  0  0
   25.8939  -22.7690  -14.9797 O   0  0  0  0  0  0  0  0  0  0  0  0
   26.5471  -20.7844  -14.0057 N   0  0  0  0  0  0  0  0  0  0  0  0
   25.6858  -20.8178  -12.8902 C   0  0  1  0  0  0  0  0  0  0  0  0
   26.0755  -19.9367  -11.7107 C   0  0  0  0  0  0  0  0  0  0  0  0
   27.3417  -20.3723  -11.0685 C   0  0  0  0  0  0  0  0  0  0  0  0
   28.5083  -20.8555  -11.6002 C   0  0  0  0  0  0  0  0  0  0  0  0
   29.3803  -21.1516  -10.6392 N   0  0  0  0  0  0  0  0  0  0  0  0
   28.7934  -20.8638   -9.4637 C   0  0  0  0  0  0  0  0  0  0  0  0
   29.2784  -20.9975   -8.1609 C   0  0  0  0  0  0  0  0  0  0  0  0
   28.4620  -20.6301   -7.1119 C   0  0  0  0  0  0  0  0  0  0  0  0
   27.2004  -20.1421   -7.3011 C   0  0  0  0  0  0  0  0  0  0  0  0
   26.7360  -20.0192   -8.6171 C   0  0  0  0  0  0  0  0  0  0  0  0
   27.5173  -20.3741   -9.6921 C   0  0  0  0  0  0  0  0  0  0  0  0
   24.2812  -20.6924  -13.2748 C   0  0  0  0  0  0  0  0  0  0  0  0
   23.9514  -19.6618  -13.9883 O   0  0  0  0  0  0  0  0  0  0  0  0
   20.7125  -23.3723  -12.9496 O   0  0  0  0  0  0  0  0  0  0  0  0
   21.3783  -22.7184  -13.9846 C   0  0  0  0  0  0  0  0  0  0  0  0
   21.9491  -21.4431  -13.4615 C   0  0  2  0  0  0  0  0  0  0  0  0
   23.2741  -21.6223  -12.9105 N   0  0  0  0  0  0  0  0  0  0  0  0
   21.0488  -20.9525  -12.3648 C   0  0  0  0  0  0  0  0  0  0  0  0
   19.7468  -20.5716  -12.5875 O   0  0  0  0  0  0  0  0  0  0  0  0
   21.5182  -20.8928  -11.2010 O   0  0  0  0  0  0  0  0  0  0  0  0
  2  1  1  0
  3  2  2  0
  4  5  1  0
  4  2  1  0
  5  6  1  6
  7  8  2  0
  7  5  1  0
  9  7  1  0
 10  9  1  0
 11 12  1  0
 10 11  1  1
 12 13  2  0
 12 20  1  0
 13 14  1  0
 14 15  1  0
 15 16  2  0
 16 17  1  0
 18 17  2  0
 19 18  1  0
 20 19  2  0
 20 15  1  0
 21 22  2  0
 21 10  1  0
 23 24  1  0
 25 26  1  0
 25 24  1  1
 26 21  1  0
 27 25  1  0
 28 27  1  0
 29 27  2  0
M  END
$$$$
