NWS.pdb
     RDKit          3D

 29 30  0  0  1  0  0  0  0  0999 V2000
   29.1066  -20.5841  -18.7059 N   0  0  0  0  0  0  0  0  0  0  0  0
   27.9132  -21.2837  -19.0095 C   0  0  0  0  0  0  0  0  0  0  0  0
   27.3542  -21.0779  -20.1134 O   0  0  0  0  0  0  0  0  0  0  0  0
   27.3581  -22.2304  -18.0189 C   0  0  0  0  0  0  0  0  0  0  0  0
   28.2970  -22.2142  -16.8123 C   0  0  2  0  0  0  0  0  0  0  0  0
   28.9787  -23.5083  -16.8526 N   0  0  0  0  0  0  0  0  0  0  0  0
   27.3583  -22.1865  -15.6171 C   0  0  0  0  0  0  0  0  0  0  0  0
   26.4145  -23.0034  -15.5506 O   0  0  0  0  0  0  0  0  0  0  0  0
   27.5574  -21.2451  -14.5936 N   0  0  0  0  0  0  0  0  0  0  0  0
   26.8379  -21.1741  -13.3835 C   0  0  1  0  0  0  0  0  0  0  0  0
   27.5375  -20.4797  -12.2226 C   0  0  0  0  0  0  0  0  0  0  0  0
   26.7422  -20.5247  -10.9693 C   0  0  0  0  0  0  0  0  0  0  0  0
   25.3960  -20.4032  -10.7451 C   0  0  0  0  0  0  0  0  0  0  0  0
   25.1236  -20.4774   -9.4444 N   0  0  0  0  0  0  0  0  0  0  0  0
   26.2915  -20.6501   -8.8000 C   0  0  0  0  0  0  0  0  0  0  0  0
   26.5536  -20.7792   -7.4344 C   0  0  0  0  0  0  0  0  0  0  0  0
   27.8605  -20.9434   -7.0259 C   0  0  0  0  0  0  0  0  0  0  0  0
   28.9040  -20.9839   -7.9063 C   0  0  0  0  0  0  0  0  0  0  0  0
   28.6156  -20.8502   -9.2707 C   0  0  0  0  0  0  0  0  0  0  0  0
   27.3265  -20.6844   -9.7209 C   0  0  0  0  0  0  0  0  0  0  0  0
   25.4607  -20.7286  -13.5869 C   0  0  0  0  0  0  0  0  0  0  0  0
   25.2878  -19.5479  -14.0929 O   0  0  0  0  0  0  0  0  0  0  0  0
   22.5431  -23.2352  -14.2474 O   0  0  0  0  0  0  0  0  0  0  0  0
   22.3536  -21.9131  -14.6451 C   0  0  0  0  0  0  0  0  0  0  0  0
   23.0212  -21.0125  -13.6607 C   0  0  2  0  0  0  0  0  0  0  0  0
   24.3202  -21.5064  -13.2609 N   0  0  0  0  0  0  0  0  0  0  0  0
   22.1512  -20.9420  -12.4391 C   0  0  0  0  0  0  0  0  0  0  0  0
   20.8405  -20.5298  -12.4836 O   0  0  0  0  0  0  0  0  0  0  0  0
   22.6553  -21.2763  -11.3380 O   0  0  0  0  0  0  0  0  0  0  0  0
  2  1  1  0
  3  2  2  0
  4  5  1  0
  4  2  1  0
  5  6  1  1
  7  8  2  0
  7  5  1  0
  9  7  1  0
 10  9  1  0
 11 12  1  0
 10 11  1  1
 12 13  2  0
 12 20  1  0
 13 14  1  0
 14 15  1  0
 15 16  2  0
 16 17  1  0
 18 17  2  0
 19 18  1  0
 20 19  2  0
 20 15  1  0
 21 22  2  0
 21 10  1  0
 23 24  1  0
 25 26  1  0
 25 24  1  6
 26 21  1  0
 27 25  1  0
 28 27  1  0
 29 27  2  0
M  END
$$$$
