NWS.pdb
     RDKit          3D

 29 30  0  0  1  0  0  0  0  0999 V2000
   26.5065  -27.0281  -17.3664 N   0  0  0  0  0  0  0  0  0  0  0  0
   26.2705  -25.6404  -17.5225 C   0  0  0  0  0  0  0  0  0  0  0  0
   26.6554  -25.0747  -18.5738 O   0  0  0  0  0  0  0  0  0  0  0  0
   25.5841  -24.8979  -16.4440 C   0  0  0  0  0  0  0  0  0  0  0  0
   26.3373  -23.5800  -16.2610 C   0  0  2  0  0  0  0  0  0  0  0  0
   27.7146  -23.9753  -15.9647 N   0  0  0  0  0  0  0  0  0  0  0  0
   25.7173  -22.9732  -15.0130 C   0  0  0  0  0  0  0  0  0  0  0  0
   25.7003  -23.6274  -13.9478 O   0  0  0  0  0  0  0  0  0  0  0  0
   25.1690  -21.6807  -15.0624 N   0  0  0  0  0  0  0  0  0  0  0  0
   24.6856  -20.9444  -13.9617 C   0  0  1  0  0  0  0  0  0  0  0  0
   25.4395  -19.6653  -13.6226 C   0  0  0  0  0  0  0  0  0  0  0  0
   26.7935  -19.9310  -13.0735 C   0  0  0  0  0  0  0  0  0  0  0  0
   28.0252  -19.9599  -13.6728 C   0  0  0  0  0  0  0  0  0  0  0  0
   28.9731  -20.2744  -12.7930 N   0  0  0  0  0  0  0  0  0  0  0  0
   28.3714  -20.4546  -11.6036 C   0  0  0  0  0  0  0  0  0  0  0  0
   28.9156  -20.8007  -10.3648 C   0  0  0  0  0  0  0  0  0  0  0  0
   28.0680  -20.9296   -9.2847 C   0  0  0  0  0  0  0  0  0  0  0  0
   26.7201  -20.7317   -9.3829 C   0  0  0  0  0  0  0  0  0  0  0  0
   26.1982  -20.3873  -10.6365 C   0  0  0  0  0  0  0  0  0  0  0  0
   27.0079  -20.2485  -11.7398 C   0  0  0  0  0  0  0  0  0  0  0  0
   23.2348  -20.7731  -14.0080 C   0  0  0  0  0  0  0  0  0  0  0  0
   22.7134  -20.4348  -15.1454 O   0  0  0  0  0  0  0  0  0  0  0  0
   20.6311  -20.7575  -10.7497 O   0  0  0  0  0  0  0  0  0  0  0  0
   20.1553  -21.2858  -11.9482 C   0  0  0  0  0  0  0  0  0  0  0  0
   20.9625  -20.7319  -13.0741 C   0  0  2  0  0  0  0  0  0  0  0  0
   22.3801  -20.9507  -12.8900 N   0  0  0  0  0  0  0  0  0  0  0  0
   20.7208  -19.2512  -13.1276 C   0  0  0  0  0  0  0  0  0  0  0  0
   19.5092  -18.7090  -13.4854 O   0  0  0  0  0  0  0  0  0  0  0  0
   21.6740  -18.4885  -12.8308 O   0  0  0  0  0  0  0  0  0  0  0  0
  2  1  1  0
  3  2  2  0
  4  5  1  0
  4  2  1  0
  5  6  1  1
  7  8  2  0
  7  5  1  0
  9  7  1  0
 10  9  1  0
 11 12  1  0
 10 11  1  6
 12 13  2  0
 12 20  1  0
 13 14  1  0
 14 15  1  0
 15 16  2  0
 16 17  1  0
 18 17  2  0
 19 18  1  0
 20 19  2  0
 20 15  1  0
 21 22  2  0
 21 10  1  0
 23 24  1  0
 25 26  1  0
 25 24  1  1
 26 21  1  0
 27 25  1  0
 28 27  1  0
 29 27  2  0
M  END
$$$$
