NWS.pdb
     RDKit          3D

 29 30  0  0  1  0  0  0  0  0999 V2000
   18.4797  -15.4744  -18.3709 N   0  0  0  0  0  0  0  0  0  0  0  0
   18.1651  -14.7602  -17.1891 C   0  0  0  0  0  0  0  0  0  0  0  0
   16.9800  -14.7604  -16.7781 O   0  0  0  0  0  0  0  0  0  0  0  0
   19.2371  -14.0322  -16.4772 C   0  0  0  0  0  0  0  0  0  0  0  0
   20.5081  -14.1806  -17.3140 C   0  0  2  0  0  0  0  0  0  0  0  0
   20.9985  -15.5258  -17.0125 N   0  0  0  0  0  0  0  0  0  0  0  0
   21.4626  -13.1603  -16.7157 C   0  0  0  0  0  0  0  0  0  0  0  0
   21.8549  -13.2949  -15.5364 O   0  0  0  0  0  0  0  0  0  0  0  0
   21.9002  -12.0736  -17.4909 N   0  0  0  0  0  0  0  0  0  0  0  0
   22.7375  -11.0280  -17.0519 C   0  0  1  0  0  0  0  0  0  0  0  0
   24.0242  -10.8186  -17.8393 C   0  0  0  0  0  0  0  0  0  0  0  0
   24.8961  -12.0207  -17.8354 C   0  0  0  0  0  0  0  0  0  0  0  0
   24.9585  -13.0980  -18.6796 C   0  0  0  0  0  0  0  0  0  0  0  0
   25.8824  -13.9656  -18.2733 N   0  0  0  0  0  0  0  0  0  0  0  0
   26.4382  -13.4644  -17.1557 C   0  0  0  0  0  0  0  0  0  0  0  0
   27.4452  -13.9867  -16.3411 C   0  0  0  0  0  0  0  0  0  0  0  0
   27.8369  -13.2663  -15.2323 C   0  0  0  0  0  0  0  0  0  0  0  0
   27.2771  -12.0646  -14.9036 C   0  0  0  0  0  0  0  0  0  0  0  0
   26.2676  -11.5628  -15.7353 C   0  0  0  0  0  0  0  0  0  0  0  0
   25.8468  -12.2489  -16.8507 C   0  0  0  0  0  0  0  0  0  0  0  0
   21.9945   -9.7933  -16.8068 C   0  0  0  0  0  0  0  0  0  0  0  0
   21.1658   -9.4074  -17.7256 O   0  0  0  0  0  0  0  0  0  0  0  0
   20.4567   -8.4569  -13.3983 O   0  0  0  0  0  0  0  0  0  0  0  0
   21.1144   -7.4316  -14.0750 C   0  0  0  0  0  0  0  0  0  0  0  0
   21.2963   -7.8329  -15.5005 C   0  0  2  0  0  0  0  0  0  0  0  0
   22.1333   -9.0044  -15.6362 N   0  0  0  0  0  0  0  0  0  0  0  0
   21.9646   -6.6950  -16.2164 C   0  0  0  0  0  0  0  0  0  0  0  0
   21.4229   -5.4328  -16.2730 O   0  0  0  0  0  0  0  0  0  0  0  0
   23.0633   -6.9204  -16.7823 O   0  0  0  0  0  0  0  0  0  0  0  0
  2  1  1  0
  3  2  2  0
  4  5  1  0
  4  2  1  0
  5  6  1  1
  7  8  2  0
  7  5  1  0
  9  7  1  0
 10  9  1  0
 11 12  1  0
 10 11  1  6
 12 13  2  0
 12 20  1  0
 13 14  1  0
 14 15  1  0
 15 16  2  0
 16 17  1  0
 18 17  2  0
 19 18  1  0
 20 19  2  0
 20 15  1  0
 21 22  2  0
 21 10  1  0
 23 24  1  0
 25 26  1  0
 25 24  1  1
 26 21  1  0
 27 25  1  0
 28 27  1  0
 29 27  2  0
M  END
$$$$
