NWS.pdb
     RDKit          3D

 29 30  0  0  1  0  0  0  0  0999 V2000
   26.5035  -25.5270  -17.9011 N   0  0  0  0  0  0  0  0  0  0  0  0
   26.6958  -25.7468  -16.5153 C   0  0  0  0  0  0  0  0  0  0  0  0
   27.4427  -26.6854  -16.1484 O   0  0  0  0  0  0  0  0  0  0  0  0
   26.0096  -24.8704  -15.5422 C   0  0  0  0  0  0  0  0  0  0  0  0
   25.2604  -23.8095  -16.3490 C   0  0  2  0  0  0  0  0  0  0  0  0
   26.2993  -22.8871  -16.8081 N   0  0  0  0  0  0  0  0  0  0  0  0
   24.3953  -23.1060  -15.3160 C   0  0  0  0  0  0  0  0  0  0  0  0
   23.6130  -23.7727  -14.6044 O   0  0  0  0  0  0  0  0  0  0  0  0
   24.4809  -21.7120  -15.1651 N   0  0  0  0  0  0  0  0  0  0  0  0
   23.7258  -20.9290  -14.2684 C   0  0  1  0  0  0  0  0  0  0  0  0
   24.4537  -19.7621  -13.6143 C   0  0  0  0  0  0  0  0  0  0  0  0
   25.4570  -20.2059  -12.6134 C   0  0  0  0  0  0  0  0  0  0  0  0
   26.7871  -20.5104  -12.7367 C   0  0  0  0  0  0  0  0  0  0  0  0
   27.2949  -20.8978  -11.5689 N   0  0  0  0  0  0  0  0  0  0  0  0
   26.3005  -20.8501  -10.6645 C   0  0  0  0  0  0  0  0  0  0  0  0
   26.3085  -21.1617   -9.3032 C   0  0  0  0  0  0  0  0  0  0  0  0
   25.1357  -21.0313   -8.5895 C   0  0  0  0  0  0  0  0  0  0  0  0
   23.9707  -20.6102   -9.1646 C   0  0  0  0  0  0  0  0  0  0  0  0
   23.9877  -20.3056  -10.5319 C   0  0  0  0  0  0  0  0  0  0  0  0
   25.1355  -20.4219  -11.2809 C   0  0  0  0  0  0  0  0  0  0  0  0
   22.4192  -20.5698  -14.8163 C   0  0  0  0  0  0  0  0  0  0  0  0
   22.4051  -19.8964  -15.9237 O   0  0  0  0  0  0  0  0  0  0  0  0
   19.1706  -22.6868  -14.9234 O   0  0  0  0  0  0  0  0  0  0  0  0
   19.3656  -21.5481  -15.7026 C   0  0  0  0  0  0  0  0  0  0  0  0
   19.9641  -20.4780  -14.8524 C   0  0  2  0  0  0  0  0  0  0  0  0
   21.1841  -20.9103  -14.2075 N   0  0  0  0  0  0  0  0  0  0  0  0
   18.9684  -20.1295  -13.7841 C   0  0  0  0  0  0  0  0  0  0  0  0
   17.7082  -19.6596  -14.0684 O   0  0  0  0  0  0  0  0  0  0  0  0
   19.3152  -20.2783  -12.5858 O   0  0  0  0  0  0  0  0  0  0  0  0
  2  1  1  0
  3  2  2  0
  4  5  1  0
  4  2  1  0
  5  6  1  1
  7  8  2  0
  7  5  1  0
  9  7  1  0
 10  9  1  0
 11 12  1  0
 10 11  1  6
 12 13  2  0
 12 20  1  0
 13 14  1  0
 14 15  1  0
 15 16  2  0
 16 17  1  0
 18 17  2  0
 19 18  1  0
 20 19  2  0
 20 15  1  0
 21 22  2  0
 21 10  1  0
 23 24  1  0
 25 26  1  0
 25 24  1  6
 26 21  1  0
 27 25  1  0
 28 27  1  0
 29 27  2  0
M  END
$$$$
