NWS.pdb
     RDKit          3D

 29 30  0  0  1  0  0  0  0  0999 V2000
   28.7554  -20.1206  -16.7374 N   0  0  0  0  0  0  0  0  0  0  0  0
   29.0157  -21.3375  -16.0614 C   0  0  0  0  0  0  0  0  0  0  0  0
   29.9906  -22.0372  -16.4267 O   0  0  0  0  0  0  0  0  0  0  0  0
   28.1317  -21.7511  -14.9509 C   0  0  0  0  0  0  0  0  0  0  0  0
   27.0427  -20.6851  -14.8275 C   0  0  2  0  0  0  0  0  0  0  0  0
   27.7256  -19.5165  -14.2718 N   0  0  0  0  0  0  0  0  0  0  0  0
   26.0947  -21.2482  -13.7813 C   0  0  0  0  0  0  0  0  0  0  0  0
   25.5561  -22.3610  -13.9670 O   0  0  0  0  0  0  0  0  0  0  0  0
   25.8307  -20.5169  -12.6113 N   0  0  0  0  0  0  0  0  0  0  0  0
   24.9311  -20.8856  -11.5905 C   0  0  1  0  0  0  0  0  0  0  0  0
   25.2659  -20.3965  -10.1876 C   0  0  0  0  0  0  0  0  0  0  0  0
   26.6686  -20.6935   -9.8007 C   0  0  0  0  0  0  0  0  0  0  0  0
   27.6457  -21.4238  -10.4243 C   0  0  0  0  0  0  0  0  0  0  0  0
   28.7577  -21.4493   -9.6933 N   0  0  0  0  0  0  0  0  0  0  0  0
   28.5213  -20.7329   -8.5798 C   0  0  0  0  0  0  0  0  0  0  0  0
   29.3558  -20.4582   -7.4942 C   0  0  0  0  0  0  0  0  0  0  0  0
   28.8621  -19.6908   -6.4601 C   0  0  0  0  0  0  0  0  0  0  0  0
   27.5907  -19.1919   -6.4598 C   0  0  0  0  0  0  0  0  0  0  0  0
   26.7724  -19.4829   -7.5591 C   0  0  0  0  0  0  0  0  0  0  0  0
   27.2248  -20.2444   -8.6114 C   0  0  0  0  0  0  0  0  0  0  0  0
   23.5394  -20.6557  -11.9732 C   0  0  0  0  0  0  0  0  0  0  0  0
   23.1773  -19.4293  -12.1851 O   0  0  0  0  0  0  0  0  0  0  0  0
   19.7897  -23.0290  -13.3561 O   0  0  0  0  0  0  0  0  0  0  0  0
   20.9080  -22.3154  -13.7829 C   0  0  0  0  0  0  0  0  0  0  0  0
   21.3026  -21.3520  -12.7143 C   0  0  2  0  0  0  0  0  0  0  0  0
   22.5770  -21.6875  -12.1189 N   0  0  0  0  0  0  0  0  0  0  0  0
   20.2558  -21.4042  -11.6394 C   0  0  0  0  0  0  0  0  0  0  0  0
   20.5236  -21.8374  -10.3625 O   0  0  0  0  0  0  0  0  0  0  0  0
   19.0919  -21.0339  -11.9334 O   0  0  0  0  0  0  0  0  0  0  0  0
  2  1  1  0
  3  2  2  0
  4  5  1  0
  4  2  1  0
  5  6  1  1
  7  8  2  0
  7  5  1  0
  9  7  1  0
 10  9  1  0
 11 12  1  0
 10 11  1  1
 12 13  2  0
 12 20  1  0
 13 14  1  0
 14 15  1  0
 15 16  2  0
 16 17  1  0
 18 17  2  0
 19 18  1  0
 20 19  2  0
 20 15  1  0
 21 22  2  0
 21 10  1  0
 23 24  1  0
 25 26  1  0
 25 24  1  6
 26 21  1  0
 27 25  1  0
 28 27  1  0
 29 27  2  0
M  END
$$$$
