NWS.pdb
     RDKit          3D

 29 30  0  0  1  0  0  0  0  0999 V2000
   17.4576  -19.6271  -17.0951 N   0  0  0  0  0  0  0  0  0  0  0  0
   17.7300  -19.1029  -15.8080 C   0  0  0  0  0  0  0  0  0  0  0  0
   17.0110  -19.4591  -14.8439 O   0  0  0  0  0  0  0  0  0  0  0  0
   18.8472  -18.1497  -15.6371 C   0  0  0  0  0  0  0  0  0  0  0  0
   19.5140  -17.9950  -17.0042 C   0  0  2  0  0  0  0  0  0  0  0  0
   20.4251  -19.1353  -17.1064 N   0  0  0  0  0  0  0  0  0  0  0  0
   20.3303  -16.7196  -16.8721 C   0  0  0  0  0  0  0  0  0  0  0  0
   20.5777  -16.2562  -15.7377 O   0  0  0  0  0  0  0  0  0  0  0  0
   20.8038  -16.0702  -18.0243 N   0  0  0  0  0  0  0  0  0  0  0  0
   21.5677  -14.8857  -18.0514 C   0  0  1  0  0  0  0  0  0  0  0  0
   22.8615  -14.9359  -18.8534 C   0  0  0  0  0  0  0  0  0  0  0  0
   23.8782  -15.8268  -18.2386 C   0  0  0  0  0  0  0  0  0  0  0  0
   24.0749  -17.1793  -18.3341 C   0  0  0  0  0  0  0  0  0  0  0  0
   25.1016  -17.5634  -17.5793 N   0  0  0  0  0  0  0  0  0  0  0  0
   25.5913  -16.4634  -16.9799 C   0  0  0  0  0  0  0  0  0  0  0  0
   26.6574  -16.3253  -16.0884 C   0  0  0  0  0  0  0  0  0  0  0  0
   26.9567  -15.0679  -15.6074 C   0  0  0  0  0  0  0  0  0  0  0  0
   26.2500  -13.9569  -15.9704 C   0  0  0  0  0  0  0  0  0  0  0  0
   25.1840  -14.1216  -16.8643 C   0  0  0  0  0  0  0  0  0  0  0  0
   24.8516  -15.3577  -17.3679 C   0  0  0  0  0  0  0  0  0  0  0  0
   20.7490  -13.7086  -18.3355 C   0  0  0  0  0  0  0  0  0  0  0  0
   19.9279  -13.7845  -19.3355 O   0  0  0  0  0  0  0  0  0  0  0  0
   19.5407  -11.1255  -15.6043 O   0  0  0  0  0  0  0  0  0  0  0  0
   18.8639  -11.2493  -16.8161 C   0  0  0  0  0  0  0  0  0  0  0  0
   19.8605  -11.4584  -17.9065 C   0  0  2  0  0  0  0  0  0  0  0  0
   20.8075  -12.5041  -17.5888 N   0  0  0  0  0  0  0  0  0  0  0  0
   20.6215  -10.1766  -18.0852 C   0  0  0  0  0  0  0  0  0  0  0  0
   20.0239   -9.0097  -18.4989 O   0  0  0  0  0  0  0  0  0  0  0  0
   21.8542  -10.1858  -17.8431 O   0  0  0  0  0  0  0  0  0  0  0  0
  2  1  1  0
  3  2  2  0
  4  5  1  0
  4  2  1  0
  5  6  1  1
  7  8  2  0
  7  5  1  0
  9  7  1  0
 10  9  1  0
 11 12  1  0
 10 11  1  6
 12 13  2  0
 12 20  1  0
 13 14  1  0
 14 15  1  0
 15 16  2  0
 16 17  1  0
 18 17  2  0
 19 18  1  0
 20 19  2  0
 20 15  1  0
 21 22  2  0
 21 10  1  0
 23 24  1  0
 25 26  1  0
 25 24  1  1
 26 21  1  0
 27 25  1  0
 28 27  1  0
 29 27  2  0
M  END
$$$$
