NWS.pdb
     RDKit          3D

 29 30  0  0  1  0  0  0  0  0999 V2000
   29.1487  -18.5972  -16.0600 N   0  0  0  0  0  0  0  0  0  0  0  0
   27.7359  -18.5057  -16.0260 C   0  0  0  0  0  0  0  0  0  0  0  0
   27.1610  -17.7114  -16.8083 O   0  0  0  0  0  0  0  0  0  0  0  0
   26.9800  -19.3419  -15.0694 C   0  0  0  0  0  0  0  0  0  0  0  0
   28.0068  -20.1525  -14.2780 C   0  0  2  0  0  0  0  0  0  0  0  0
   28.3135  -21.3010  -15.1311 N   0  0  0  0  0  0  0  0  0  0  0  0
   27.2351  -20.6330  -13.0599 C   0  0  0  0  0  0  0  0  0  0  0  0
   26.3987  -21.5544  -13.1793 O   0  0  0  0  0  0  0  0  0  0  0  0
   27.4670  -20.0412  -11.8072 N   0  0  0  0  0  0  0  0  0  0  0  0
   26.7553  -20.3103  -10.6204 C   0  0  1  0  0  0  0  0  0  0  0  0
   27.3025  -19.6778   -9.3477 C   0  0  0  0  0  0  0  0  0  0  0  0
   26.6373  -20.1934   -8.1242 C   0  0  0  0  0  0  0  0  0  0  0  0
   25.4314  -20.8178   -7.9426 C   0  0  0  0  0  0  0  0  0  0  0  0
   25.2233  -21.0814   -6.6547 N   0  0  0  0  0  0  0  0  0  0  0  0
   26.2942  -20.6324   -5.9761 C   0  0  0  0  0  0  0  0  0  0  0  0
   26.5665  -20.6603   -4.6066 C   0  0  0  0  0  0  0  0  0  0  0  0
   27.7536  -20.1201   -4.1587 C   0  0  0  0  0  0  0  0  0  0  0  0
   28.6692  -19.5604   -5.0037 C   0  0  0  0  0  0  0  0  0  0  0  0
   28.3723  -19.5427   -6.3727 C   0  0  0  0  0  0  0  0  0  0  0  0
   27.1999  -20.0704   -6.8617 C   0  0  0  0  0  0  0  0  0  0  0  0
   25.3145  -20.1312  -10.7896 C   0  0  0  0  0  0  0  0  0  0  0  0
   24.8710  -18.9148  -10.8503 O   0  0  0  0  0  0  0  0  0  0  0  0
   23.3216  -21.7852  -13.4477 O   0  0  0  0  0  0  0  0  0  0  0  0
   22.5221  -21.8625  -12.3090 C   0  0  0  0  0  0  0  0  0  0  0  0
   23.0351  -20.8983  -11.2926 C   0  0  2  0  0  0  0  0  0  0  0  0
   24.3890  -21.2019  -10.8852 N   0  0  0  0  0  0  0  0  0  0  0  0
   22.1505  -20.9919  -10.0831 C   0  0  0  0  0  0  0  0  0  0  0  0
   20.7874  -20.8247  -10.1454 O   0  0  0  0  0  0  0  0  0  0  0  0
   22.6922  -21.2332   -8.9756 O   0  0  0  0  0  0  0  0  0  0  0  0
  2  1  1  0
  3  2  2  0
  4  5  1  0
  4  2  1  0
  5  6  1  6
  7  8  2  0
  7  5  1  0
  9  7  1  0
 10  9  1  0
 11 12  1  0
 10 11  1  1
 12 13  2  0
 12 20  1  0
 13 14  1  0
 14 15  1  0
 15 16  2  0
 16 17  1  0
 18 17  2  0
 19 18  1  0
 20 19  2  0
 20 15  1  0
 21 22  2  0
 21 10  1  0
 23 24  1  0
 25 26  1  0
 25 24  1  6
 26 21  1  0
 27 25  1  0
 28 27  1  0
 29 27  2  0
M  END
$$$$
