NWS.pdb
     RDKit          3D

 29 30  0  0  1  0  0  0  0  0999 V2000
   28.6272  -23.1015  -19.7334 N   0  0  0  0  0  0  0  0  0  0  0  0
   28.0462  -22.2069  -18.8019 C   0  0  0  0  0  0  0  0  0  0  0  0
   28.0265  -20.9816  -19.0694 O   0  0  0  0  0  0  0  0  0  0  0  0
   27.4853  -22.7389  -17.5417 C   0  0  0  0  0  0  0  0  0  0  0  0
   28.0401  -21.8763  -16.4078 C   0  0  2  0  0  0  0  0  0  0  0  0
   29.3216  -22.4925  -16.0628 N   0  0  0  0  0  0  0  0  0  0  0  0
   27.0615  -22.0973  -15.2659 C   0  0  0  0  0  0  0  0  0  0  0  0
   26.6882  -23.2567  -14.9846 O   0  0  0  0  0  0  0  0  0  0  0  0
   26.5838  -20.9988  -14.5321 N   0  0  0  0  0  0  0  0  0  0  0  0
   25.7280  -21.0600  -13.4136 C   0  0  1  0  0  0  0  0  0  0  0  0
   26.0609  -20.1259  -12.2578 C   0  0  0  0  0  0  0  0  0  0  0  0
   27.2430  -20.5794  -11.4817 C   0  0  0  0  0  0  0  0  0  0  0  0
   28.4833  -21.0013  -11.8827 C   0  0  0  0  0  0  0  0  0  0  0  0
   29.2284  -21.3456  -10.8349 N   0  0  0  0  0  0  0  0  0  0  0  0
   28.4829  -21.1514   -9.7324 C   0  0  0  0  0  0  0  0  0  0  0  0
   28.7948  -21.3650   -8.3880 C   0  0  0  0  0  0  0  0  0  0  0  0
   27.8363  -21.0874   -7.4361 C   0  0  0  0  0  0  0  0  0  0  0  0
   26.5972  -20.6128   -7.7603 C   0  0  0  0  0  0  0  0  0  0  0  0
   26.3079  -20.4086   -9.1157 C   0  0  0  0  0  0  0  0  0  0  0  0
   27.2347  -20.6728  -10.0972 C   0  0  0  0  0  0  0  0  0  0  0  0
   24.3177  -21.0361  -13.7972 C   0  0  0  0  0  0  0  0  0  0  0  0
   23.9205  -20.0475  -14.5354 O   0  0  0  0  0  0  0  0  0  0  0  0
   21.8264  -24.0802  -14.6250 O   0  0  0  0  0  0  0  0  0  0  0  0
   21.2416  -23.1474  -13.7707 C   0  0  0  0  0  0  0  0  0  0  0  0
   22.0071  -21.8695  -13.8546 C   0  0  2  0  0  0  0  0  0  0  0  0
   23.3738  -22.0202  -13.4068 N   0  0  0  0  0  0  0  0  0  0  0  0
   21.3302  -20.8693  -12.9629 C   0  0  0  0  0  0  0  0  0  0  0  0
   21.9581  -20.2898  -11.8860 O   0  0  0  0  0  0  0  0  0  0  0  0
   20.1411  -20.5587  -13.2236 O   0  0  0  0  0  0  0  0  0  0  0  0
  2  1  1  0
  3  2  2  0
  4  5  1  0
  4  2  1  0
  5  6  1  1
  7  8  2  0
  7  5  1  0
  9  7  1  0
 10  9  1  0
 11 12  1  0
 10 11  1  1
 12 13  2  0
 12 20  1  0
 13 14  1  0
 14 15  1  0
 15 16  2  0
 16 17  1  0
 18 17  2  0
 19 18  1  0
 20 19  2  0
 20 15  1  0
 21 22  2  0
 21 10  1  0
 23 24  1  0
 25 26  1  0
 25 24  1  1
 26 21  1  0
 27 25  1  0
 28 27  1  0
 29 27  2  0
M  END
$$$$
