NWS.pdb
     RDKit          3D

 29 30  0  0  1  0  0  0  0  0999 V2000
   29.1680  -18.7558  -15.9751 N   0  0  0  0  0  0  0  0  0  0  0  0
   27.8036  -18.7844  -16.3533 C   0  0  0  0  0  0  0  0  0  0  0  0
   27.4214  -18.0544  -17.2991 O   0  0  0  0  0  0  0  0  0  0  0  0
   26.8690  -19.6666  -15.6226 C   0  0  0  0  0  0  0  0  0  0  0  0
   27.6776  -20.3627  -14.5274 C   0  0  2  0  0  0  0  0  0  0  0  0
   28.4066  -21.4255  -15.2200 N   0  0  0  0  0  0  0  0  0  0  0  0
   26.6205  -20.9895  -13.6330 C   0  0  0  0  0  0  0  0  0  0  0  0
   25.9638  -21.9711  -14.0428 O   0  0  0  0  0  0  0  0  0  0  0  0
   26.3885  -20.4641  -12.3509 N   0  0  0  0  0  0  0  0  0  0  0  0
   25.3741  -20.8717  -11.4609 C   0  0  1  0  0  0  0  0  0  0  0  0
   25.5832  -20.5206   -9.9937 C   0  0  0  0  0  0  0  0  0  0  0  0
   26.9428  -20.8738   -9.5119 C   0  0  0  0  0  0  0  0  0  0  0  0
   27.9088  -21.6887  -10.0411 C   0  0  0  0  0  0  0  0  0  0  0  0
   28.9755  -21.7371   -9.2465 N   0  0  0  0  0  0  0  0  0  0  0  0
   28.7200  -20.9512   -8.1853 C   0  0  0  0  0  0  0  0  0  0  0  0
   29.5079  -20.6664   -7.0679 C   0  0  0  0  0  0  0  0  0  0  0  0
   29.0034  -19.8197   -6.1033 C   0  0  0  0  0  0  0  0  0  0  0  0
   27.7650  -19.2521   -6.2013 C   0  0  0  0  0  0  0  0  0  0  0  0
   26.9930  -19.5548   -7.3305 C   0  0  0  0  0  0  0  0  0  0  0  0
   27.4578  -20.3943   -8.3160 C   0  0  0  0  0  0  0  0  0  0  0  0
   24.0399  -20.5398  -11.9571 C   0  0  0  0  0  0  0  0  0  0  0  0
   23.8517  -19.3331  -12.3911 O   0  0  0  0  0  0  0  0  0  0  0  0
   22.1837  -21.6863  -14.7350 O   0  0  0  0  0  0  0  0  0  0  0  0
   21.2636  -21.8374  -13.6993 C   0  0  0  0  0  0  0  0  0  0  0  0
   21.6988  -21.0031  -12.5415 C   0  0  2  0  0  0  0  0  0  0  0  0
   22.9551  -21.4533  -11.9846 N   0  0  0  0  0  0  0  0  0  0  0  0
   20.6479  -21.1136  -11.4750 C   0  0  0  0  0  0  0  0  0  0  0  0
   19.3400  -20.7431  -11.6799 O   0  0  0  0  0  0  0  0  0  0  0  0
   20.9925  -21.5648  -10.3543 O   0  0  0  0  0  0  0  0  0  0  0  0
  2  1  1  0
  3  2  2  0
  4  5  1  0
  4  2  1  0
  5  6  1  6
  7  8  2  0
  7  5  1  0
  9  7  1  0
 10  9  1  0
 11 12  1  0
 10 11  1  1
 12 13  2  0
 12 20  1  0
 13 14  1  0
 14 15  1  0
 15 16  2  0
 16 17  1  0
 18 17  2  0
 19 18  1  0
 20 19  2  0
 20 15  1  0
 21 22  2  0
 21 10  1  0
 23 24  1  0
 25 26  1  0
 25 24  1  6
 26 21  1  0
 27 25  1  0
 28 27  1  0
 29 27  2  0
M  END
$$$$
