NWS.pdb
     RDKit          3D

 29 30  0  0  1  0  0  0  0  0999 V2000
   17.3717  -15.5264  -16.1573 N   0  0  0  0  0  0  0  0  0  0  0  0
   17.2599  -14.4246  -15.2746 C   0  0  0  0  0  0  0  0  0  0  0  0
   16.3955  -14.4610  -14.3663 O   0  0  0  0  0  0  0  0  0  0  0  0
   18.1581  -13.2636  -15.4500 C   0  0  0  0  0  0  0  0  0  0  0  0
   18.8679  -13.4480  -16.7916 C   0  0  2  0  0  0  0  0  0  0  0  0
   19.7651  -14.5853  -16.5860 N   0  0  0  0  0  0  0  0  0  0  0  0
   19.6982  -12.1840  -16.9443 C   0  0  0  0  0  0  0  0  0  0  0  0
   20.8267  -12.1150  -16.4109 O   0  0  0  0  0  0  0  0  0  0  0  0
   19.1945  -11.1019  -17.6850 N   0  0  0  0  0  0  0  0  0  0  0  0
   19.8877   -9.9124  -17.9879 C   0  0  1  0  0  0  0  0  0  0  0  0
   19.7157   -9.3729  -19.4016 C   0  0  0  0  0  0  0  0  0  0  0  0
   20.3382  -10.2502  -20.4255 C   0  0  0  0  0  0  0  0  0  0  0  0
   20.6903  -11.5738  -20.3921 C   0  0  0  0  0  0  0  0  0  0  0  0
   21.2540  -11.9434  -21.5398 N   0  0  0  0  0  0  0  0  0  0  0  0
   21.2765  -10.8631  -22.3408 C   0  0  0  0  0  0  0  0  0  0  0  0
   21.7656  -10.7188  -23.6409 C   0  0  0  0  0  0  0  0  0  0  0  0
   21.6721   -9.4840  -24.2478 C   0  0  0  0  0  0  0  0  0  0  0  0
   21.1203   -8.4010  -23.6248 C   0  0  0  0  0  0  0  0  0  0  0  0
   20.6386   -8.5706  -22.3202 C   0  0  0  0  0  0  0  0  0  0  0  0
   20.7123   -9.7848  -21.6781 C   0  0  0  0  0  0  0  0  0  0  0  0
   19.7190   -8.8971  -16.9501 C   0  0  0  0  0  0  0  0  0  0  0  0
   18.5069   -8.6134  -16.5891 O   0  0  0  0  0  0  0  0  0  0  0  0
   21.1039   -8.8149  -13.4501 O   0  0  0  0  0  0  0  0  0  0  0  0
   21.4322   -7.6032  -14.0550 C   0  0  0  0  0  0  0  0  0  0  0  0
   20.5002   -7.3647  -15.1954 C   0  0  2  0  0  0  0  0  0  0  0  0
   20.7951   -8.2126  -16.3291 N   0  0  0  0  0  0  0  0  0  0  0  0
   20.6582   -5.9354  -15.6266 C   0  0  0  0  0  0  0  0  0  0  0  0
   20.3294   -4.8746  -14.8163 O   0  0  0  0  0  0  0  0  0  0  0  0
   21.1105   -5.7149  -16.7777 O   0  0  0  0  0  0  0  0  0  0  0  0
  2  1  1  0
  3  2  2  0
  4  5  1  0
  4  2  1  0
  5  6  1  1
  7  8  2  0
  7  5  1  0
  9  7  1  0
 10  9  1  0
 11 12  1  0
 10 11  1  6
 12 13  2  0
 12 20  1  0
 13 14  1  0
 14 15  1  0
 15 16  2  0
 16 17  1  0
 18 17  2  0
 19 18  1  0
 20 19  2  0
 20 15  1  0
 21 22  2  0
 21 10  1  0
 23 24  1  0
 25 26  1  0
 25 24  1  1
 26 21  1  0
 27 25  1  0
 28 27  1  0
 29 27  2  0
M  END
$$$$
