NWS.pdb
     RDKit          3D

 29 30  0  0  1  0  0  0  0  0999 V2000
   29.5273  -20.8204  -14.0566 N   0  0  0  0  0  0  0  0  0  0  0  0
   28.1143  -20.8755  -14.1345 C   0  0  0  0  0  0  0  0  0  0  0  0
   27.5386  -20.3228  -15.1023 O   0  0  0  0  0  0  0  0  0  0  0  0
   27.3585  -21.5760  -13.0744 C   0  0  0  0  0  0  0  0  0  0  0  0
   26.1008  -20.7497  -12.8037 C   0  0  2  0  0  0  0  0  0  0  0  0
   26.5962  -19.4131  -12.4737 N   0  0  0  0  0  0  0  0  0  0  0  0
   25.5091  -21.3807  -11.5538 C   0  0  0  0  0  0  0  0  0  0  0  0
   25.4600  -22.6256  -11.4512 O   0  0  0  0  0  0  0  0  0  0  0  0
   25.0230  -20.5623  -10.5207 N   0  0  0  0  0  0  0  0  0  0  0  0
   24.3611  -21.0042   -9.3571 C   0  0  1  0  0  0  0  0  0  0  0  0
   24.7582  -20.3216   -8.0549 C   0  0  0  0  0  0  0  0  0  0  0  0
   26.2301  -20.1921   -7.9058 C   0  0  0  0  0  0  0  0  0  0  0  0
   27.2338  -20.1327   -8.8365 C   0  0  0  0  0  0  0  0  0  0  0  0
   28.4234  -20.0468   -8.2458 N   0  0  0  0  0  0  0  0  0  0  0  0
   28.2117  -20.0477   -6.9175 C   0  0  0  0  0  0  0  0  0  0  0  0
   29.1242  -19.9816   -5.8624 C   0  0  0  0  0  0  0  0  0  0  0  0
   28.6420  -20.0054   -4.5706 C   0  0  0  0  0  0  0  0  0  0  0  0
   27.3086  -20.0912   -4.2874 C   0  0  0  0  0  0  0  0  0  0  0  0
   26.4134  -20.1583   -5.3629 C   0  0  0  0  0  0  0  0  0  0  0  0
   26.8519  -20.1376   -6.6665 C   0  0  0  0  0  0  0  0  0  0  0  0
   22.9153  -21.1012   -9.5491 C   0  0  0  0  0  0  0  0  0  0  0  0
   22.3270  -20.1073  -10.1373 O   0  0  0  0  0  0  0  0  0  0  0  0
   20.5558  -24.3585   -8.5214 O   0  0  0  0  0  0  0  0  0  0  0  0
   20.2013  -23.6060   -9.6395 C   0  0  0  0  0  0  0  0  0  0  0  0
   20.7291  -22.2202   -9.4757 C   0  0  2  0  0  0  0  0  0  0  0  0
   22.1328  -22.2070   -9.1285 N   0  0  0  0  0  0  0  0  0  0  0  0
   19.9651  -21.5665   -8.3608 C   0  0  0  0  0  0  0  0  0  0  0  0
   18.5973  -21.4304   -8.3778 O   0  0  0  0  0  0  0  0  0  0  0  0
   20.6159  -21.1307   -7.3785 O   0  0  0  0  0  0  0  0  0  0  0  0
  2  1  1  0
  3  2  2  0
  4  5  1  0
  4  2  1  0
  5  6  1  1
  7  8  2  0
  7  5  1  0
  9  7  1  0
 10  9  1  0
 11 12  1  0
 10 11  1  1
 12 13  2  0
 12 20  1  0
 13 14  1  0
 14 15  1  0
 15 16  2  0
 16 17  1  0
 18 17  2  0
 19 18  1  0
 20 19  2  0
 20 15  1  0
 21 22  2  0
 21 10  1  0
 23 24  1  0
 25 26  1  0
 25 24  1  1
 26 21  1  0
 27 25  1  0
 28 27  1  0
 29 27  2  0
M  END
$$$$
