NWS.pdb
     RDKit          3D

 29 30  0  0  1  0  0  0  0  0999 V2000
   28.8025  -19.6260  -17.0089 N   0  0  0  0  0  0  0  0  0  0  0  0
   29.0122  -20.9555  -16.5683 C   0  0  0  0  0  0  0  0  0  0  0  0
   29.7274  -21.7180  -17.2614 O   0  0  0  0  0  0  0  0  0  0  0  0
   28.3805  -21.4086  -15.3107 C   0  0  0  0  0  0  0  0  0  0  0  0
   27.4973  -20.2621  -14.8175 C   0  0  2  0  0  0  0  0  0  0  0  0
   28.3876  -19.4245  -14.0134 N   0  0  0  0  0  0  0  0  0  0  0  0
   26.4936  -20.9407  -13.8997 C   0  0  0  0  0  0  0  0  0  0  0  0
   25.9946  -22.0384  -14.2298 O   0  0  0  0  0  0  0  0  0  0  0  0
   26.1339  -20.3325  -12.6856 N   0  0  0  0  0  0  0  0  0  0  0  0
   25.1833  -20.8199  -11.7657 C   0  0  1  0  0  0  0  0  0  0  0  0
   25.4258  -20.4794  -10.3013 C   0  0  0  0  0  0  0  0  0  0  0  0
   26.8190  -20.7645   -9.8735 C   0  0  0  0  0  0  0  0  0  0  0  0
   27.8030  -21.5302  -10.4416 C   0  0  0  0  0  0  0  0  0  0  0  0
   28.9009  -21.5255   -9.6892 N   0  0  0  0  0  0  0  0  0  0  0  0
   28.6482  -20.7536   -8.6172 C   0  0  0  0  0  0  0  0  0  0  0  0
   29.4639  -20.4300   -7.5307 C   0  0  0  0  0  0  0  0  0  0  0  0
   28.9559  -19.6097   -6.5454 C   0  0  0  0  0  0  0  0  0  0  0  0
   27.6879  -19.1044   -6.5939 C   0  0  0  0  0  0  0  0  0  0  0  0
   26.8886  -19.4450   -7.6929 C   0  0  0  0  0  0  0  0  0  0  0  0
   27.3557  -20.2602   -8.6975 C   0  0  0  0  0  0  0  0  0  0  0  0
   23.8122  -20.5684  -12.2053 C   0  0  0  0  0  0  0  0  0  0  0  0
   23.4815  -19.3377  -12.4419 O   0  0  0  0  0  0  0  0  0  0  0  0
   21.1359  -23.5128  -13.2220 O   0  0  0  0  0  0  0  0  0  0  0  0
   21.0429  -22.2854  -13.8754 C   0  0  0  0  0  0  0  0  0  0  0  0
   21.5717  -21.2187  -12.9763 C   0  0  2  0  0  0  0  0  0  0  0  0
   22.8374  -21.5839  -12.3799 N   0  0  0  0  0  0  0  0  0  0  0  0
   20.5759  -21.0135  -11.8717 C   0  0  0  0  0  0  0  0  0  0  0  0
   19.2949  -20.5696  -12.0997 O   0  0  0  0  0  0  0  0  0  0  0  0
   20.9423  -21.2618  -10.6960 O   0  0  0  0  0  0  0  0  0  0  0  0
  2  1  1  0
  3  2  2  0
  4  5  1  0
  4  2  1  0
  5  6  1  1
  7  8  2  0
  7  5  1  0
  9  7  1  0
 10  9  1  0
 11 12  1  0
 10 11  1  1
 12 13  2  0
 12 20  1  0
 13 14  1  0
 14 15  1  0
 15 16  2  0
 16 17  1  0
 18 17  2  0
 19 18  1  0
 20 19  2  0
 20 15  1  0
 21 22  2  0
 21 10  1  0
 23 24  1  0
 25 26  1  0
 25 24  1  6
 26 21  1  0
 27 25  1  0
 28 27  1  0
 29 27  2  0
M  END
$$$$
