ELV.pdb
     RDKit          3D

 25 24  0  0  1  0  0  0  0  0999 V2000
   10.5763  -16.4010   20.2182 N   0  0  0  0  0  0  0  0  0  0  0  0
   10.0146  -17.0665   21.3680 C   0  0  1  0  0  0  0  0  0  0  0  0
   10.8461  -18.2493   21.7136 C   0  0  0  0  0  0  0  0  0  0  0  0
   10.6462  -19.4626   20.8666 C   0  0  0  0  0  0  0  0  0  0  0  0
   10.0348  -20.6024   21.5709 C   0  0  0  0  0  0  0  0  0  0  0  0
   10.4475  -21.0480   22.6625 O   0  0  0  0  0  0  0  0  0  0  0  0
    9.9168  -16.0770   22.4714 C   0  0  0  0  0  0  0  0  0  0  0  0
   10.8197  -15.2385   22.6853 O   0  0  0  0  0  0  0  0  0  0  0  0
    8.9209  -21.2536   21.0155 O   0  0  0  0  0  0  0  0  0  0  0  0
    5.9203  -13.1877   26.2271 C   0  0  0  0  0  0  0  0  0  0  0  0
    7.3064  -13.5039   25.7839 C   0  0  2  0  0  0  0  0  0  0  0  0
    7.9254  -12.2768   25.1289 C   0  0  0  0  0  0  0  0  0  0  0  0
    7.3142  -14.6485   24.7924 C   0  0  0  0  0  0  0  0  0  0  0  0
    8.6887  -15.1001   24.4434 C   0  0  2  0  0  0  0  0  0  0  0  0
    8.8127  -16.0030   23.3564 N   0  0  0  0  0  0  0  0  0  0  0  0
    9.3920  -15.6813   25.6249 C   0  0  0  0  0  0  0  0  0  0  0  0
    9.4550  -16.9487   25.7897 O   0  0  0  0  0  0  0  0  0  0  0  0
    9.6057  -14.2766   29.6169 C   0  0  0  0  0  0  0  0  0  0  0  0
   10.8866  -14.3892   28.8263 C   0  0  2  0  0  0  0  0  0  0  0  0
   11.3386  -13.0585   28.3510 C   0  0  0  0  0  0  0  0  0  0  0  0
   10.7600  -15.4263   27.7446 C   0  0  2  0  0  0  0  0  0  0  0  0
   10.0185  -14.9034   26.6147 N   0  0  0  0  0  0  0  0  0  0  0  0
   10.2345  -16.7118   28.2221 C   0  0  0  0  0  0  0  0  0  0  0  0
    8.9741  -17.2181   27.8460 O   0  0  0  0  0  0  0  0  0  0  0  0
   10.8898  -17.4452   29.0062 O   0  0  0  0  0  0  0  0  0  0  0  0
  2  1  1  6
  3  2  1  0
  4  3  1  0
  5  4  1  0
  5  6  2  0
  7  2  1  0
  7  8  2  0
  9  5  1  0
 11 10  1  6
 11 12  1  0
 11 13  1  0
 14 15  1  0
 14 13  1  1
 15  7  1  0
 16 14  1  0
 17 16  2  0
 19 18  1  6
 20 19  1  0
 21 19  1  0
 21 22  1  6
 22 16  1  0
 23 24  1  0
 23 21  1  0
 25 23  2  0
M  END
$$$$
