ELV.pdb
     RDKit          3D

 25 24  0  0  1  0  0  0  0  0999 V2000
    9.3215  -16.2147   20.1416 N   0  0  0  0  0  0  0  0  0  0  0  0
    9.1697  -16.9933   21.3463 C   0  0  1  0  0  0  0  0  0  0  0  0
   10.2315  -18.0321   21.4041 C   0  0  0  0  0  0  0  0  0  0  0  0
    9.9178  -19.3297   20.7352 C   0  0  0  0  0  0  0  0  0  0  0  0
   10.9639  -20.3565   20.8778 C   0  0  0  0  0  0  0  0  0  0  0  0
   12.1422  -20.2074   20.4908 O   0  0  0  0  0  0  0  0  0  0  0  0
    9.1976  -16.0627   22.5035 C   0  0  0  0  0  0  0  0  0  0  0  0
   10.2019  -15.3636   22.7618 O   0  0  0  0  0  0  0  0  0  0  0  0
   10.6589  -21.5889   21.4788 O   0  0  0  0  0  0  0  0  0  0  0  0
    5.4830  -13.0532   26.4838 C   0  0  0  0  0  0  0  0  0  0  0  0
    6.8243  -13.3846   25.9282 C   0  0  2  0  0  0  0  0  0  0  0  0
    7.3785  -12.1805   25.1793 C   0  0  0  0  0  0  0  0  0  0  0  0
    6.7456  -14.5618   24.9789 C   0  0  0  0  0  0  0  0  0  0  0  0
    8.0828  -15.0103   24.5038 C   0  0  2  0  0  0  0  0  0  0  0  0
    8.1084  -15.8933   23.3939 N   0  0  0  0  0  0  0  0  0  0  0  0
    8.8834  -15.6151   25.6091 C   0  0  0  0  0  0  0  0  0  0  0  0
    9.1085  -16.8743   25.6398 O   0  0  0  0  0  0  0  0  0  0  0  0
   10.5665  -13.0850   28.5335 C   0  0  0  0  0  0  0  0  0  0  0  0
   10.1871  -14.4866   28.9459 C   0  0  2  0  0  0  0  0  0  0  0  0
   11.0027  -14.9426   30.0981 C   0  0  0  0  0  0  0  0  0  0  0  0
   10.2045  -15.4168   27.7643 C   0  0  2  0  0  0  0  0  0  0  0  0
    9.4331  -14.8690   26.6667 N   0  0  0  0  0  0  0  0  0  0  0  0
    9.8198  -16.7947   28.0960 C   0  0  0  0  0  0  0  0  0  0  0  0
   10.7486  -17.7871   28.4682 O   0  0  0  0  0  0  0  0  0  0  0  0
    8.6205  -17.1731   28.0661 O   0  0  0  0  0  0  0  0  0  0  0  0
  2  1  1  6
  3  2  1  0
  4  3  1  0
  5  4  1  0
  5  6  2  0
  7  2  1  0
  7  8  2  0
  9  5  1  0
 11 10  1  6
 11 12  1  0
 11 13  1  0
 14 15  1  0
 14 13  1  1
 15  7  1  0
 16 14  1  0
 17 16  2  0
 19 18  1  6
 20 19  1  0
 21 19  1  0
 21 22  1  6
 22 16  1  0
 23 24  1  0
 23 21  1  0
 25 23  2  0
M  END
$$$$
