ELV.pdb
     RDKit          3D

 25 24  0  0  1  0  0  0  0  0999 V2000
    8.7367  -14.6825   20.4104 N   0  0  0  0  0  0  0  0  0  0  0  0
    8.1620  -15.6764   21.2835 C   0  0  1  0  0  0  0  0  0  0  0  0
    8.5705  -17.0321   20.8308 C   0  0  0  0  0  0  0  0  0  0  0  0
    7.5568  -18.1149   21.0024 C   0  0  0  0  0  0  0  0  0  0  0  0
    6.6290  -18.2653   19.8686 C   0  0  0  0  0  0  0  0  0  0  0  0
    6.7135  -17.6091   18.8090 O   0  0  0  0  0  0  0  0  0  0  0  0
    8.5871  -15.3705   22.6735 C   0  0  0  0  0  0  0  0  0  0  0  0
    9.7937  -15.2597   22.9833 O   0  0  0  0  0  0  0  0  0  0  0  0
    5.5744  -19.1901   19.9439 O   0  0  0  0  0  0  0  0  0  0  0  0
    8.2416  -11.9727   25.7680 C   0  0  0  0  0  0  0  0  0  0  0  0
    6.9658  -12.6902   25.4939 C   0  0  2  0  0  0  0  0  0  0  0  0
    5.8317  -12.0276   26.2638 C   0  0  0  0  0  0  0  0  0  0  0  0
    7.0583  -14.1442   25.9069 C   0  0  0  0  0  0  0  0  0  0  0  0
    8.0345  -14.9150   25.0898 C   0  0  2  0  0  0  0  0  0  0  0  0
    7.6772  -15.1825   23.7433 N   0  0  0  0  0  0  0  0  0  0  0  0
    8.4039  -16.2035   25.7470 C   0  0  0  0  0  0  0  0  0  0  0  0
    7.5165  -17.0947   25.9829 O   0  0  0  0  0  0  0  0  0  0  0  0
   12.5442  -17.6762   26.3996 C   0  0  0  0  0  0  0  0  0  0  0  0
   11.2488  -18.4095   26.1493 C   0  0  2  0  0  0  0  0  0  0  0  0
   11.0357  -18.6355   24.6986 C   0  0  0  0  0  0  0  0  0  0  0  0
   10.1037  -17.7293   26.8478 C   0  0  2  0  0  0  0  0  0  0  0  0
    9.7143  -16.5242   26.1438 N   0  0  0  0  0  0  0  0  0  0  0  0
   10.3422  -17.4987   28.2784 C   0  0  0  0  0  0  0  0  0  0  0  0
   10.5441  -18.5411   29.2052 O   0  0  0  0  0  0  0  0  0  0  0  0
   10.3803  -16.3395   28.7653 O   0  0  0  0  0  0  0  0  0  0  0  0
  2  1  1  6
  3  2  1  0
  4  3  1  0
  5  4  1  0
  5  6  2  0
  7  2  1  0
  7  8  2  0
  9  5  1  0
 11 10  1  1
 11 12  1  0
 11 13  1  0
 14 15  1  0
 14 13  1  1
 15  7  1  0
 16 14  1  0
 17 16  2  0
 19 18  1  6
 20 19  1  0
 21 19  1  0
 21 22  1  6
 22 16  1  0
 23 24  1  0
 23 21  1  0
 25 23  2  0
M  END
$$$$
