ELV.pdb
     RDKit          3D

 25 24  0  0  1  0  0  0  0  0999 V2000
    8.6045  -16.6309   20.0586 N   0  0  0  0  0  0  0  0  0  0  0  0
    9.3388  -17.0683   21.2205 C   0  0  1  0  0  0  0  0  0  0  0  0
   10.7060  -17.4887   20.8156 C   0  0  0  0  0  0  0  0  0  0  0  0
   11.5740  -18.0336   21.9015 C   0  0  0  0  0  0  0  0  0  0  0  0
   12.9443  -18.3660   21.4762 C   0  0  0  0  0  0  0  0  0  0  0  0
   13.9648  -17.7842   21.9012 O   0  0  0  0  0  0  0  0  0  0  0  0
    9.3359  -15.9619   22.2114 C   0  0  0  0  0  0  0  0  0  0  0  0
   10.0633  -14.9538   22.0744 O   0  0  0  0  0  0  0  0  0  0  0  0
   13.1582  -19.3908   20.5397 O   0  0  0  0  0  0  0  0  0  0  0  0
    5.9737  -13.2873   26.6710 C   0  0  0  0  0  0  0  0  0  0  0  0
    7.2437  -13.4425   25.9090 C   0  0  2  0  0  0  0  0  0  0  0  0
    7.4367  -12.2452   24.9887 C   0  0  0  0  0  0  0  0  0  0  0  0
    7.2288  -14.7070   25.0760 C   0  0  0  0  0  0  0  0  0  0  0  0
    8.5152  -14.9459   24.3669 C   0  0  2  0  0  0  0  0  0  0  0  0
    8.5235  -15.9575   23.3724 N   0  0  0  0  0  0  0  0  0  0  0  0
    9.6284  -15.2139   25.3247 C   0  0  0  0  0  0  0  0  0  0  0  0
   10.8382  -15.2921   24.9154 O   0  0  0  0  0  0  0  0  0  0  0  0
    9.6164  -14.2886   29.4808 C   0  0  0  0  0  0  0  0  0  0  0  0
   10.7775  -14.5713   28.5587 C   0  0  2  0  0  0  0  0  0  0  0  0
   11.2068  -13.3413   27.8491 C   0  0  0  0  0  0  0  0  0  0  0  0
   10.4751  -15.7364   27.6569 C   0  0  2  0  0  0  0  0  0  0  0  0
    9.4365  -15.3949   26.7059 N   0  0  0  0  0  0  0  0  0  0  0  0
   10.1934  -16.9822   28.3817 C   0  0  0  0  0  0  0  0  0  0  0  0
   11.1325  -17.6173   29.2190 O   0  0  0  0  0  0  0  0  0  0  0  0
    9.0806  -17.5621   28.2948 O   0  0  0  0  0  0  0  0  0  0  0  0
  2  1  1  6
  3  2  1  0
  4  3  1  0
  5  4  1  0
  5  6  2  0
  7  2  1  0
  7  8  2  0
  9  5  1  0
 11 10  1  6
 11 12  1  0
 11 13  1  0
 14 15  1  0
 14 13  1  1
 15  7  1  0
 16 14  1  0
 17 16  2  0
 19 18  1  6
 20 19  1  0
 21 19  1  0
 21 22  1  1
 22 16  1  0
 23 24  1  0
 23 21  1  0
 25 23  2  0
M  END
$$$$
