ELV.pdb
     RDKit          3D

 25 24  0  0  1  0  0  0  0  0999 V2000
    8.3431  -17.7810   21.3846 N   0  0  0  0  0  0  0  0  0  0  0  0
    9.6930  -17.3404   21.6376 C   0  0  1  0  0  0  0  0  0  0  0  0
   10.2974  -16.8390   20.3755 C   0  0  0  0  0  0  0  0  0  0  0  0
   10.9523  -17.8634   19.5087 C   0  0  0  0  0  0  0  0  0  0  0  0
   12.3376  -17.5414   19.1263 C   0  0  0  0  0  0  0  0  0  0  0  0
   12.6534  -16.5654   18.4134 O   0  0  0  0  0  0  0  0  0  0  0  0
    9.6501  -16.3170   22.7132 C   0  0  0  0  0  0  0  0  0  0  0  0
   10.6563  -15.6393   23.0174 O   0  0  0  0  0  0  0  0  0  0  0  0
   13.3938  -18.3548   19.5689 O   0  0  0  0  0  0  0  0  0  0  0  0
    5.8511  -13.2810   26.6286 C   0  0  0  0  0  0  0  0  0  0  0  0
    7.1841  -13.5284   26.0126 C   0  0  2  0  0  0  0  0  0  0  0  0
    7.7030  -12.2423   25.3844 C   0  0  0  0  0  0  0  0  0  0  0  0
    7.1014  -14.5996   24.9454 C   0  0  0  0  0  0  0  0  0  0  0  0
    8.4306  -15.1719   24.5981 C   0  0  2  0  0  0  0  0  0  0  0  0
    8.4869  -16.0293   23.4695 N   0  0  0  0  0  0  0  0  0  0  0  0
    9.0449  -15.8782   25.7610 C   0  0  0  0  0  0  0  0  0  0  0  0
    9.0020  -17.1541   25.8476 O   0  0  0  0  0  0  0  0  0  0  0  0
   10.0366  -14.3472   29.7082 C   0  0  0  0  0  0  0  0  0  0  0  0
   11.1063  -14.8279   28.7578 C   0  0  2  0  0  0  0  0  0  0  0  0
   11.7967  -13.6857   28.1102 C   0  0  0  0  0  0  0  0  0  0  0  0
   10.5536  -15.8459   27.7986 C   0  0  2  0  0  0  0  0  0  0  0  0
    9.6963  -15.2145   26.8157 N   0  0  0  0  0  0  0  0  0  0  0  0
    9.9116  -16.9888   28.4607 C   0  0  0  0  0  0  0  0  0  0  0  0
   10.6124  -17.9056   29.2698 O   0  0  0  0  0  0  0  0  0  0  0  0
    8.6806  -17.2178   28.3413 O   0  0  0  0  0  0  0  0  0  0  0  0
  2  1  1  6
  3  2  1  0
  4  3  1  0
  5  4  1  0
  5  6  2  0
  7  2  1  0
  7  8  2  0
  9  5  1  0
 11 10  1  6
 11 12  1  0
 11 13  1  0
 14 15  1  0
 14 13  1  1
 15  7  1  0
 16 14  1  0
 17 16  2  0
 19 18  1  6
 20 19  1  0
 21 19  1  0
 21 22  1  6
 22 16  1  0
 23 24  1  0
 23 21  1  0
 25 23  2  0
M  END
$$$$
