ELV.pdb
     RDKit          3D

 25 24  0  0  1  0  0  0  0  0999 V2000
    8.5811  -17.0933   20.0231 N   0  0  0  0  0  0  0  0  0  0  0  0
    9.4634  -17.2762   21.1494 C   0  0  1  0  0  0  0  0  0  0  0  0
   10.8037  -17.7017   20.6673 C   0  0  0  0  0  0  0  0  0  0  0  0
   11.1122  -17.4034   19.2371 C   0  0  0  0  0  0  0  0  0  0  0  0
   12.4177  -17.9075   18.7782 C   0  0  0  0  0  0  0  0  0  0  0  0
   13.2439  -18.4770   19.5221 O   0  0  0  0  0  0  0  0  0  0  0  0
    9.4945  -16.0078   21.9216 C   0  0  0  0  0  0  0  0  0  0  0  0
    9.1391  -14.9205   21.4159 O   0  0  0  0  0  0  0  0  0  0  0  0
   12.7929  -17.7584   17.4328 O   0  0  0  0  0  0  0  0  0  0  0  0
    5.7140  -14.4038   25.3775 C   0  0  0  0  0  0  0  0  0  0  0  0
    7.1834  -14.1942   25.2571 C   0  0  2  0  0  0  0  0  0  0  0  0
    7.4638  -12.7439   24.8886 C   0  0  0  0  0  0  0  0  0  0  0  0
    7.7777  -15.0961   24.1957 C   0  0  0  0  0  0  0  0  0  0  0  0
    9.2573  -15.2149   24.3021 C   0  0  2  0  0  0  0  0  0  0  0  0
    9.9215  -15.9266   23.2702 N   0  0  0  0  0  0  0  0  0  0  0  0
    9.6686  -15.7917   25.6161 C   0  0  0  0  0  0  0  0  0  0  0  0
    9.9826  -17.0280   25.7176 O   0  0  0  0  0  0  0  0  0  0  0  0
   10.5413  -13.0593   28.6432 C   0  0  0  0  0  0  0  0  0  0  0  0
   10.2080  -14.4537   29.1155 C   0  0  2  0  0  0  0  0  0  0  0  0
   10.9158  -14.7719   30.3798 C   0  0  0  0  0  0  0  0  0  0  0  0
   10.4180  -15.4573   28.0152 C   0  0  2  0  0  0  0  0  0  0  0  0
    9.7394  -15.0425   26.8040 N   0  0  0  0  0  0  0  0  0  0  0  0
   10.0902  -16.8344   28.4061 C   0  0  0  0  0  0  0  0  0  0  0  0
    8.8935  -17.4786   28.0328 O   0  0  0  0  0  0  0  0  0  0  0  0
   10.8710  -17.5278   29.1073 O   0  0  0  0  0  0  0  0  0  0  0  0
  2  1  1  6
  3  2  1  0
  4  3  1  0
  5  4  1  0
  5  6  2  0
  7  2  1  0
  7  8  2  0
  9  5  1  0
 11 10  1  6
 11 12  1  0
 11 13  1  0
 14 15  1  0
 14 13  1  6
 15  7  1  0
 16 14  1  0
 17 16  2  0
 19 18  1  6
 20 19  1  0
 21 19  1  0
 21 22  1  6
 22 16  1  0
 23 24  1  0
 23 21  1  0
 25 23  2  0
M  END
$$$$
