ELV.pdb
     RDKit          3D

 25 24  0  0  1  0  0  0  0  0999 V2000
    8.6024  -16.5662   21.0493 N   0  0  0  0  0  0  0  0  0  0  0  0
    9.8463  -16.5558   21.7795 C   0  0  1  0  0  0  0  0  0  0  0  0
   10.9477  -16.1236   20.8796 C   0  0  0  0  0  0  0  0  0  0  0  0
   11.1788  -16.9700   19.6713 C   0  0  0  0  0  0  0  0  0  0  0  0
   12.5780  -17.3874   19.4792 C   0  0  0  0  0  0  0  0  0  0  0  0
   13.5458  -16.5976   19.4798 O   0  0  0  0  0  0  0  0  0  0  0  0
    9.6785  -15.6753   22.9639 C   0  0  0  0  0  0  0  0  0  0  0  0
   10.6512  -15.3293   23.6698 O   0  0  0  0  0  0  0  0  0  0  0  0
   12.8836  -18.7440   19.2807 O   0  0  0  0  0  0  0  0  0  0  0  0
    8.1698  -12.5993   26.4906 C   0  0  0  0  0  0  0  0  0  0  0  0
    6.9867  -12.4375   25.6007 C   0  0  2  0  0  0  0  0  0  0  0  0
    5.7101  -12.6116   26.4118 C   0  0  0  0  0  0  0  0  0  0  0  0
    7.0026  -13.4576   24.4816 C   0  0  0  0  0  0  0  0  0  0  0  0
    8.2149  -14.3205   24.5047 C   0  0  2  0  0  0  0  0  0  0  0  0
    8.4254  -15.1643   23.3839 N   0  0  0  0  0  0  0  0  0  0  0  0
    8.2724  -15.1533   25.7423 C   0  0  0  0  0  0  0  0  0  0  0  0
    8.2059  -14.6104   26.8990 O   0  0  0  0  0  0  0  0  0  0  0  0
    8.8327  -19.5742   25.7787 C   0  0  0  0  0  0  0  0  0  0  0  0
    7.8425  -18.7623   26.5781 C   0  0  2  0  0  0  0  0  0  0  0  0
    6.5150  -18.7383   25.9163 C   0  0  0  0  0  0  0  0  0  0  0  0
    8.4006  -17.4040   26.9028 C   0  0  2  0  0  0  0  0  0  0  0  0
    8.4001  -16.5536   25.7296 N   0  0  0  0  0  0  0  0  0  0  0  0
    9.7084  -17.4505   27.5693 C   0  0  0  0  0  0  0  0  0  0  0  0
    9.9014  -17.9988   28.8532 O   0  0  0  0  0  0  0  0  0  0  0  0
   10.7467  -16.9965   27.0234 O   0  0  0  0  0  0  0  0  0  0  0  0
  2  1  1  6
  3  2  1  0
  4  3  1  0
  5  4  1  0
  5  6  2  0
  7  2  1  0
  7  8  2  0
  9  5  1  0
 11 10  1  1
 11 12  1  0
 11 13  1  0
 14 15  1  0
 14 13  1  6
 15  7  1  0
 16 14  1  0
 17 16  2  0
 19 18  1  6
 20 19  1  0
 21 19  1  0
 21 22  1  6
 22 16  1  0
 23 24  1  0
 23 21  1  0
 25 23  2  0
M  END
$$$$
