ELV.pdb
     RDKit          3D

 25 24  0  0  1  0  0  0  0  0999 V2000
    8.2864  -17.7852   21.3214 N   0  0  0  0  0  0  0  0  0  0  0  0
    9.6382  -17.2898   21.4101 C   0  0  1  0  0  0  0  0  0  0  0  0
   10.0245  -16.6645   20.1179 C   0  0  0  0  0  0  0  0  0  0  0  0
   10.0124  -17.5620   18.9246 C   0  0  0  0  0  0  0  0  0  0  0  0
   10.3946  -16.9034   17.6640 C   0  0  0  0  0  0  0  0  0  0  0  0
   10.7839  -15.7189   17.5882 O   0  0  0  0  0  0  0  0  0  0  0  0
    9.7111  -16.3518   22.5594 C   0  0  0  0  0  0  0  0  0  0  0  0
   10.7382  -15.6780   22.7947 O   0  0  0  0  0  0  0  0  0  0  0  0
   10.3314  -17.6149   16.4544 O   0  0  0  0  0  0  0  0  0  0  0  0
    7.9141  -12.4729   24.4866 C   0  0  0  0  0  0  0  0  0  0  0  0
    6.8449  -13.5092   24.4658 C   0  0  2  0  0  0  0  0  0  0  0  0
    5.6351  -13.0105   25.2440 C   0  0  0  0  0  0  0  0  0  0  0  0
    7.3286  -14.8044   25.0837 C   0  0  0  0  0  0  0  0  0  0  0  0
    8.6510  -15.2370   24.5556 C   0  0  2  0  0  0  0  0  0  0  0  0
    8.6427  -16.1468   23.4672 N   0  0  0  0  0  0  0  0  0  0  0  0
    9.5164  -15.7975   25.6351 C   0  0  0  0  0  0  0  0  0  0  0  0
    9.8677  -17.0278   25.6185 O   0  0  0  0  0  0  0  0  0  0  0  0
   11.8383  -15.0318   30.0004 C   0  0  0  0  0  0  0  0  0  0  0  0
   11.0714  -14.4780   28.8241 C   0  0  2  0  0  0  0  0  0  0  0  0
    9.8594  -13.7496   29.2729 C   0  0  0  0  0  0  0  0  0  0  0  0
   10.8105  -15.5494   27.8014 C   0  0  2  0  0  0  0  0  0  0  0  0
    9.9955  -15.0386   26.7176 N   0  0  0  0  0  0  0  0  0  0  0  0
   10.2774  -16.7916   28.3754 C   0  0  0  0  0  0  0  0  0  0  0  0
   11.0788  -17.7399   29.0422 O   0  0  0  0  0  0  0  0  0  0  0  0
    9.0562  -17.0841   28.3031 O   0  0  0  0  0  0  0  0  0  0  0  0
  2  1  1  6
  3  2  1  0
  4  3  1  0
  5  4  1  0
  5  6  2  0
  7  2  1  0
  7  8  2  0
  9  5  1  0
 11 10  1  1
 11 12  1  0
 11 13  1  0
 14 15  1  0
 14 13  1  1
 15  7  1  0
 16 14  1  0
 17 16  2  0
 19 18  1  1
 20 19  1  0
 21 19  1  0
 21 22  1  6
 22 16  1  0
 23 24  1  0
 23 21  1  0
 25 23  2  0
M  END
$$$$
