ELV.pdb
     RDKit          3D

 25 24  0  0  1  0  0  0  0  0999 V2000
    8.9940  -15.7225   20.0323 N   0  0  0  0  0  0  0  0  0  0  0  0
    9.3137  -16.5881   21.1410 C   0  0  1  0  0  0  0  0  0  0  0  0
   10.5985  -17.2859   20.8728 C   0  0  0  0  0  0  0  0  0  0  0  0
   10.5343  -18.4395   19.9270 C   0  0  0  0  0  0  0  0  0  0  0  0
   11.7801  -19.2192   19.8325 C   0  0  0  0  0  0  0  0  0  0  0  0
   12.8067  -18.9735   20.5004 O   0  0  0  0  0  0  0  0  0  0  0  0
    9.3418  -15.7638   22.3763 C   0  0  0  0  0  0  0  0  0  0  0  0
   10.0465  -14.7343   22.4646 O   0  0  0  0  0  0  0  0  0  0  0  0
   11.8589  -20.3103   18.9514 O   0  0  0  0  0  0  0  0  0  0  0  0
    7.6691  -12.6179   25.0403 C   0  0  0  0  0  0  0  0  0  0  0  0
    6.6131  -13.6619   24.9292 C   0  0  2  0  0  0  0  0  0  0  0  0
    5.4677  -13.3324   25.8766 C   0  0  0  0  0  0  0  0  0  0  0  0
    7.1608  -15.0306   25.2755 C   0  0  0  0  0  0  0  0  0  0  0  0
    8.5142  -15.2716   24.7053 C   0  0  2  0  0  0  0  0  0  0  0  0
    8.5865  -16.0704   23.5353 N   0  0  0  0  0  0  0  0  0  0  0  0
    9.4462  -15.8383   25.7244 C   0  0  0  0  0  0  0  0  0  0  0  0
    9.9805  -16.9884   25.5535 O   0  0  0  0  0  0  0  0  0  0  0  0
    9.6948  -14.6775   29.9657 C   0  0  0  0  0  0  0  0  0  0  0  0
   10.8805  -14.6823   29.0317 C   0  0  2  0  0  0  0  0  0  0  0  0
   11.1970  -13.3102   28.5647 C   0  0  0  0  0  0  0  0  0  0  0  0
   10.6904  -15.6867   27.9285 C   0  0  2  0  0  0  0  0  0  0  0  0
    9.7957  -15.1712   26.9119 N   0  0  0  0  0  0  0  0  0  0  0  0
   10.2975  -17.0180   28.4079 C   0  0  0  0  0  0  0  0  0  0  0  0
   11.1454  -17.8445   29.1722 O   0  0  0  0  0  0  0  0  0  0  0  0
    9.1641  -17.5037   28.1595 O   0  0  0  0  0  0  0  0  0  0  0  0
  2  1  1  6
  3  2  1  0
  4  3  1  0
  5  4  1  0
  5  6  2  0
  7  2  1  0
  7  8  2  0
  9  5  1  0
 11 10  1  1
 11 12  1  0
 11 13  1  0
 14 15  1  0
 14 13  1  1
 15  7  1  0
 16 14  1  0
 17 16  2  0
 19 18  1  6
 20 19  1  0
 21 19  1  0
 21 22  1  6
 22 16  1  0
 23 24  1  0
 23 21  1  0
 25 23  2  0
M  END
$$$$
