ELV.pdb
     RDKit          3D

 25 24  0  0  1  0  0  0  0  0999 V2000
    8.7636  -15.2042   19.6295 N   0  0  0  0  0  0  0  0  0  0  0  0
    7.7467  -15.5527   20.5913 C   0  0  1  0  0  0  0  0  0  0  0  0
    7.4466  -17.0053   20.4934 C   0  0  0  0  0  0  0  0  0  0  0  0
    7.3786  -17.5702   19.1128 C   0  0  0  0  0  0  0  0  0  0  0  0
    6.9653  -18.9825   19.0529 C   0  0  0  0  0  0  0  0  0  0  0  0
    7.7310  -19.9187   18.7402 O   0  0  0  0  0  0  0  0  0  0  0  0
    8.2245  -15.1429   21.9366 C   0  0  0  0  0  0  0  0  0  0  0  0
    9.4364  -15.1782   22.2435 O   0  0  0  0  0  0  0  0  0  0  0  0
    5.6412  -19.3387   19.3579 O   0  0  0  0  0  0  0  0  0  0  0  0
    6.3330  -12.2764   27.1596 C   0  0  0  0  0  0  0  0  0  0  0  0
    7.3514  -13.0506   26.3972 C   0  0  2  0  0  0  0  0  0  0  0  0
    8.6441  -12.2507   26.3141 C   0  0  0  0  0  0  0  0  0  0  0  0
    6.8683  -13.3536   24.9943 C   0  0  0  0  0  0  0  0  0  0  0  0
    7.7703  -14.2833   24.2617 C   0  0  2  0  0  0  0  0  0  0  0  0
    7.3624  -14.6868   22.9644 N   0  0  0  0  0  0  0  0  0  0  0  0
    8.0695  -15.5051   25.0657 C   0  0  0  0  0  0  0  0  0  0  0  0
    7.1233  -16.2424   25.5110 O   0  0  0  0  0  0  0  0  0  0  0  0
   12.0519  -17.2998   25.2058 C   0  0  0  0  0  0  0  0  0  0  0  0
   10.6932  -17.9574   25.2025 C   0  0  2  0  0  0  0  0  0  0  0  0
   10.2380  -18.2340   23.8179 C   0  0  0  0  0  0  0  0  0  0  0  0
    9.7156  -17.1731   26.0338 C   0  0  2  0  0  0  0  0  0  0  0  0
    9.3736  -15.9239   25.3840 N   0  0  0  0  0  0  0  0  0  0  0  0
   10.1438  -16.9896   27.4265 C   0  0  0  0  0  0  0  0  0  0  0  0
   10.2650  -18.0531   28.3434 O   0  0  0  0  0  0  0  0  0  0  0  0
   10.4313  -15.8550   27.8872 O   0  0  0  0  0  0  0  0  0  0  0  0
  2  1  1  6
  3  2  1  0
  4  3  1  0
  5  4  1  0
  5  6  2  0
  7  2  1  0
  7  8  2  0
  9  5  1  0
 11 10  1  6
 11 12  1  0
 11 13  1  0
 14 15  1  0
 14 13  1  1
 15  7  1  0
 16 14  1  0
 17 16  2  0
 19 18  1  6
 20 19  1  0
 21 19  1  0
 21 22  1  6
 22 16  1  0
 23 24  1  0
 23 21  1  0
 25 23  2  0
M  END
$$$$
