ELV.pdb
     RDKit          3D

 25 24  0  0  1  0  0  0  0  0999 V2000
    9.0781  -15.3745   20.8379 N   0  0  0  0  0  0  0  0  0  0  0  0
    8.4991  -16.1702   21.8924 C   0  0  1  0  0  0  0  0  0  0  0  0
    8.9623  -17.5771   21.7655 C   0  0  0  0  0  0  0  0  0  0  0  0
    8.4335  -18.3395   20.5956 C   0  0  0  0  0  0  0  0  0  0  0  0
    8.8408  -19.7542   20.5567 C   0  0  0  0  0  0  0  0  0  0  0  0
    8.5365  -20.5405   19.6350 O   0  0  0  0  0  0  0  0  0  0  0  0
    8.8629  -15.5491   23.1916 C   0  0  0  0  0  0  0  0  0  0  0  0
   10.0511  -15.3008   23.4926 O   0  0  0  0  0  0  0  0  0  0  0  0
    9.6174  -20.2887   21.5980 O   0  0  0  0  0  0  0  0  0  0  0  0
    8.0439  -11.7279   25.6517 C   0  0  0  0  0  0  0  0  0  0  0  0
    6.8536  -12.6191   25.5722 C   0  0  2  0  0  0  0  0  0  0  0  0
    5.6844  -11.9762   26.3053 C   0  0  0  0  0  0  0  0  0  0  0  0
    7.1414  -13.9702   26.1926 C   0  0  0  0  0  0  0  0  0  0  0  0
    8.2144  -14.7156   25.4799 C   0  0  2  0  0  0  0  0  0  0  0  0
    7.9110  -15.1931   24.1791 N   0  0  0  0  0  0  0  0  0  0  0  0
    8.7255  -15.8562   26.2962 C   0  0  0  0  0  0  0  0  0  0  0  0
    7.9722  -16.8540   26.5687 O   0  0  0  0  0  0  0  0  0  0  0  0
   12.9539  -16.3542   27.3474 C   0  0  0  0  0  0  0  0  0  0  0  0
   11.9231  -17.4226   27.0747 C   0  0  2  0  0  0  0  0  0  0  0  0
   11.9355  -17.8234   25.6464 C   0  0  0  0  0  0  0  0  0  0  0  0
   10.5730  -17.0105   27.5936 C   0  0  2  0  0  0  0  0  0  0  0  0
   10.0327  -15.9174   26.8107 N   0  0  0  0  0  0  0  0  0  0  0  0
   10.5569  -16.7372   29.0364 C   0  0  0  0  0  0  0  0  0  0  0  0
   10.2321  -15.4781   29.5800 O   0  0  0  0  0  0  0  0  0  0  0  0
   10.8365  -17.6254   29.8821 O   0  0  0  0  0  0  0  0  0  0  0  0
  2  1  1  6
  3  2  1  0
  4  3  1  0
  5  4  1  0
  5  6  2  0
  7  2  1  0
  7  8  2  0
  9  5  1  0
 11 10  1  1
 11 12  1  0
 11 13  1  0
 14 15  1  0
 14 13  1  1
 15  7  1  0
 16 14  1  0
 17 16  2  0
 19 18  1  6
 20 19  1  0
 21 19  1  0
 21 22  1  6
 22 16  1  0
 23 24  1  0
 23 21  1  0
 25 23  2  0
M  END
$$$$
