RQL.pdb
     RDKit          3D

 29 28  0  0  1  0  0  0  0  0999 V2000
   12.5992  -18.0564   -6.2974 N   0  0  0  0  0  0  0  0  0  0  0  0
   11.5463  -18.8014   -6.9350 C   0  0  0  0  0  0  0  0  0  0  0  0
   11.4357  -18.8068   -8.2247 N   0  0  0  0  0  0  0  0  0  0  0  0
   10.6052  -19.5456   -6.1886 N   0  0  0  0  0  0  0  0  0  0  0  0
   10.8452  -19.7964   -4.7708 C   0  0  0  0  0  0  0  0  0  0  0  0
   11.8356  -20.9251   -4.6012 C   0  0  0  0  0  0  0  0  0  0  0  0
   12.0163  -21.2118   -3.1442 C   0  0  0  0  0  0  0  0  0  0  0  0
   12.9866  -22.3144   -2.9306 C   0  0  2  0  0  0  0  0  0  0  0  0
   12.5170  -23.5598   -3.5827 N   0  0  0  0  0  0  0  0  0  0  0  0
   13.2756  -22.6022   -1.5089 C   0  0  0  0  0  0  0  0  0  0  0  0
   12.5228  -23.2229   -0.7218 O   0  0  0  0  0  0  0  0  0  0  0  0
   10.7007  -19.3574   -8.7141 N   0  0  0  0  0  0  0  0  0  0  0  0
   15.2686  -24.9831    2.6049 C   0  0  0  0  0  0  0  0  0  0  0  0
   15.1845  -25.6129    1.3311 O   0  0  0  0  0  0  0  0  0  0  0  0
   14.8056  -26.7825    1.1494 C   0  0  0  0  0  0  0  0  0  0  0  0
   15.5843  -24.7963    0.1303 C   0  0  0  0  0  0  0  0  0  0  0  0
   15.9993  -23.4163    0.5383 C   0  0  2  0  0  0  0  0  0  0  0  0
   14.8654  -22.4609    0.3801 N   0  0  0  0  0  0  0  0  0  0  0  0
   14.5083  -22.1456   -0.9641 C   0  0  0  0  0  0  0  0  0  0  0  0
   15.2952  -21.1682    1.0329 O   0  0  0  0  0  0  0  0  0  0  0  0
   16.1086  -20.3824    0.4487 C   0  0  0  0  0  0  0  0  0  0  0  0
   13.6454  -17.2811    1.6704 C   0  0  2  0  0  0  0  0  0  0  0  0
   12.9717  -18.4156    2.4370 C   0  0  0  0  0  0  0  0  0  0  0  0
   11.7352  -17.8512    3.0624 C   0  0  0  0  0  0  0  0  0  0  0  0
   13.9703  -18.9010    3.4471 C   0  0  2  0  0  0  0  0  0  0  0  0
   15.2191  -19.4969    2.8348 N   0  0  0  0  0  0  0  0  0  0  0  0
   14.8227  -20.7822    2.2953 C   0  0  0  0  0  0  0  0  0  0  0  0
   16.2878  -19.7192    3.8225 O   0  0  0  0  0  0  0  0  0  0  0  0
   16.7007  -20.9966    4.1494 O   0  0  0  0  0  0  0  0  0  0  0  0
  1  2  1  0
  2  3  2  0
  4  5  1  0
  4  2  1  0
  6  5  1  0
  7  6  1  0
  8 10  1  0
  8  7  1  0
  8  9  1  1
 10 11  2  0
 13 12  1  0
 13 14  2  0
 15 13  1  0
 16 15  1  0
 17 16  1  6
 17 19  1  0
 18 17  1  0
 18 10  1  0
 19 20  2  0
 19 26  1  0
 22 21  1  6
 22 24  1  0
 23 22  1  0
 25 24  1  6
 25 27  1  0
 26 25  1  0
 27 29  2  0
 27 28  1  0
M  END
$$$$
