RQL.pdb
     RDKit          3D

 29 28  0  0  1  0  0  0  0  0999 V2000
   25.8311  -24.3277  -17.9665 N   0  0  0  0  0  0  0  0  0  0  0  0
   24.9747  -23.2510  -17.5451 C   0  0  0  0  0  0  0  0  0  0  0  0
   23.8328  -23.5012  -16.9892 N   0  0  0  0  0  0  0  0  0  0  0  0
   25.3417  -21.8977  -17.7194 N   0  0  0  0  0  0  0  0  0  0  0  0
   26.6700  -21.5704  -18.2283 C   0  0  0  0  0  0  0  0  0  0  0  0
   27.6819  -21.6066  -17.1065 C   0  0  0  0  0  0  0  0  0  0  0  0
   27.6502  -20.3063  -16.3675 C   0  0  0  0  0  0  0  0  0  0  0  0
   28.1028  -20.4755  -14.9643 C   0  0  2  0  0  0  0  0  0  0  0  0
   28.1852  -21.9122  -14.6094 N   0  0  0  0  0  0  0  0  0  0  0  0
   27.2560  -19.7872  -13.9659 C   0  0  0  0  0  0  0  0  0  0  0  0
   26.8436  -18.6062  -14.0479 O   0  0  0  0  0  0  0  0  0  0  0  0
   23.2093  -22.7438  -16.6422 N   0  0  0  0  0  0  0  0  0  0  0  0
   21.9696  -21.1396  -13.6740 C   0  0  0  0  0  0  0  0  0  0  0  0
   21.9349  -20.3290  -12.5044 O   0  0  0  0  0  0  0  0  0  0  0  0
   20.8938  -19.9089  -11.9715 C   0  0  0  0  0  0  0  0  0  0  0  0
   23.2557  -19.9626  -11.8799 C   0  0  0  0  0  0  0  0  0  0  0  0
   24.3956  -20.4869  -12.6976 C   0  0  2  0  0  0  0  0  0  0  0  0
   25.6992  -20.1202  -12.0734 N   0  0  0  0  0  0  0  0  0  0  0  0
   26.8621  -20.5066  -12.8030 C   0  0  0  0  0  0  0  0  0  0  0  0
   25.7589  -20.8364  -10.7447 O   0  0  0  0  0  0  0  0  0  0  0  0
   25.7245  -22.1076  -10.6877 C   0  0  0  0  0  0  0  0  0  0  0  0
   28.7392  -20.8108   -7.5409 C   0  0  1  0  0  0  0  0  0  0  0  0
   27.8775  -19.5527   -7.5974 C   0  0  0  0  0  0  0  0  0  0  0  0
   28.4500  -18.5821   -6.6133 C   0  0  0  0  0  0  0  0  0  0  0  0
   26.4787  -19.9770   -7.2563 C   0  0  2  0  0  0  0  0  0  0  0  0
   25.8464  -20.8856   -8.2879 N   0  0  0  0  0  0  0  0  0  0  0  0
   25.8536  -20.1408   -9.5311 C   0  0  0  0  0  0  0  0  0  0  0  0
   24.4529  -21.2326   -7.9642 O   0  0  0  0  0  0  0  0  0  0  0  0
   24.1591  -22.1394   -6.9640 O   0  0  0  0  0  0  0  0  0  0  0  0
  1  2  1  0
  2  3  2  0
  4  5  1  0
  4  2  1  0
  6  5  1  0
  7  6  1  0
  8 10  1  0
  8  7  1  0
  8  9  1  1
 10 11  2  0
 13 12  1  0
 13 14  2  0
 15 13  1  0
 16 15  1  0
 17 16  1  6
 17 19  1  0
 18 17  1  0
 18 10  1  0
 19 20  2  0
 19 26  1  0
 22 21  1  6
 22 24  1  0
 23 22  1  0
 25 24  1  6
 25 27  1  0
 26 25  1  0
 27 29  2  0
 27 28  1  0
M  END
$$$$
