RQL.pdb
     RDKit          3D

 29 28  0  0  1  0  0  0  0  0999 V2000
   17.6990  -24.5571   -6.5837 N   0  0  0  0  0  0  0  0  0  0  0  0
   17.4860  -24.0264   -7.9040 C   0  0  0  0  0  0  0  0  0  0  0  0
   16.3443  -23.5081   -8.2255 N   0  0  0  0  0  0  0  0  0  0  0  0
   18.5006  -24.0501   -8.8871 N   0  0  0  0  0  0  0  0  0  0  0  0
   19.6803  -23.2056   -8.7265 C   0  0  0  0  0  0  0  0  0  0  0  0
   19.7919  -22.2401   -9.8835 C   0  0  0  0  0  0  0  0  0  0  0  0
   21.0737  -21.4770   -9.7712 C   0  0  0  0  0  0  0  0  0  0  0  0
   21.2421  -20.5403  -10.9099 C   0  0  2  0  0  0  0  0  0  0  0  0
   19.9389  -20.2658  -11.5603 N   0  0  0  0  0  0  0  0  0  0  0  0
   22.1991  -21.0012  -11.9391 C   0  0  0  0  0  0  0  0  0  0  0  0
   23.3634  -21.4121  -11.7220 O   0  0  0  0  0  0  0  0  0  0  0  0
   16.1301  -23.2025   -9.1969 N   0  0  0  0  0  0  0  0  0  0  0  0
   21.0717  -21.8691  -18.1798 C   0  0  0  0  0  0  0  0  0  0  0  0
   22.3824  -22.3934  -17.9967 O   0  0  0  0  0  0  0  0  0  0  0  0
   23.0650  -22.9091  -18.8981 C   0  0  0  0  0  0  0  0  0  0  0  0
   22.9707  -22.3115  -16.6124 C   0  0  0  0  0  0  0  0  0  0  0  0
   22.0359  -21.6091  -15.6767 C   0  0  2  0  0  0  0  0  0  0  0  0
   22.6481  -21.4824  -14.3230 N   0  0  0  0  0  0  0  0  0  0  0  0
   21.7861  -20.9866  -13.3008 C   0  0  0  0  0  0  0  0  0  0  0  0
   23.7844  -20.4955  -14.4531 O   0  0  0  0  0  0  0  0  0  0  0  0
   23.5807  -19.2462  -14.3196 C   0  0  0  0  0  0  0  0  0  0  0  0
   26.9818  -19.2007  -12.0984 C   0  0  2  0  0  0  0  0  0  0  0  0
   27.1746  -20.6178  -12.6307 C   0  0  0  0  0  0  0  0  0  0  0  0
   28.3795  -21.1845  -11.9484 C   0  0  0  0  0  0  0  0  0  0  0  0
   27.3454  -20.4965  -14.1170 C   0  0  2  0  0  0  0  0  0  0  0  0
   26.1434  -19.9103  -14.8249 N   0  0  0  0  0  0  0  0  0  0  0  0
   25.0970  -20.9077  -14.7235 C   0  0  0  0  0  0  0  0  0  0  0  0
   26.3947  -19.6464  -16.2512 O   0  0  0  0  0  0  0  0  0  0  0  0
   26.9810  -18.4654  -16.6642 O   0  0  0  0  0  0  0  0  0  0  0  0
  1  2  1  0
  2  3  2  0
  4  5  1  0
  4  2  1  0
  6  5  1  0
  7  6  1  0
  8 10  1  0
  8  7  1  0
  8  9  1  6
 10 11  2  0
 13 12  1  0
 13 14  2  0
 15 13  1  0
 16 15  1  0
 17 16  1  1
 17 19  1  0
 18 17  1  0
 18 10  1  0
 19 20  2  0
 19 26  1  0
 22 21  1  1
 22 24  1  0
 23 22  1  0
 25 24  1  1
 25 27  1  0
 26 25  1  0
 27 29  2  0
 27 28  1  0
M  END
$$$$
