RQL.pdb
     RDKit          3D

 29 28  0  0  1  0  0  0  0  0999 V2000
   25.7528  -16.4956  -15.2411 N   0  0  0  0  0  0  0  0  0  0  0  0
   26.6430  -15.9810  -16.2475 C   0  0  0  0  0  0  0  0  0  0  0  0
   27.1415  -14.7917  -16.1353 N   0  0  0  0  0  0  0  0  0  0  0  0
   27.0028  -16.7431  -17.3816 N   0  0  0  0  0  0  0  0  0  0  0  0
   26.3545  -18.0287  -17.6218 C   0  0  0  0  0  0  0  0  0  0  0  0
   27.2864  -19.1597  -17.2530 C   0  0  0  0  0  0  0  0  0  0  0  0
   27.5848  -19.0992  -15.7883 C   0  0  0  0  0  0  0  0  0  0  0  0
   27.8572  -20.4511  -15.2400 C   0  0  2  0  0  0  0  0  0  0  0  0
   28.0310  -21.4356  -16.3342 N   0  0  0  0  0  0  0  0  0  0  0  0
   26.8194  -20.9504  -14.3119 C   0  0  0  0  0  0  0  0  0  0  0  0
   25.9184  -21.7735  -14.5983 O   0  0  0  0  0  0  0  0  0  0  0  0
   27.7261  -14.3646  -16.8827 N   0  0  0  0  0  0  0  0  0  0  0  0
   26.2373  -19.7214   -8.0528 C   0  0  0  0  0  0  0  0  0  0  0  0
   25.2375  -20.7041   -8.2999 O   0  0  0  0  0  0  0  0  0  0  0  0
   24.5158  -21.2081   -7.4227 C   0  0  0  0  0  0  0  0  0  0  0  0
   25.0515  -21.1554   -9.7249 C   0  0  0  0  0  0  0  0  0  0  0  0
   26.0978  -20.5576  -10.6142 C   0  0  2  0  0  0  0  0  0  0  0  0
   25.8502  -20.9301  -12.0367 N   0  0  0  0  0  0  0  0  0  0  0  0
   26.8231  -20.4699  -12.9724 C   0  0  0  0  0  0  0  0  0  0  0  0
   24.5351  -20.2973  -12.4266 O   0  0  0  0  0  0  0  0  0  0  0  0
   24.4937  -19.1102  -12.8842 C   0  0  0  0  0  0  0  0  0  0  0  0
   21.9426  -19.0865  -15.6035 C   0  0  2  0  0  0  0  0  0  0  0  0
   22.8382  -20.3135  -15.4591 C   0  0  0  0  0  0  0  0  0  0  0  0
   22.8811  -20.9872  -16.7942 C   0  0  0  0  0  0  0  0  0  0  0  0
   22.2221  -21.1688  -14.3904 C   0  0  2  0  0  0  0  0  0  0  0  0
   22.1612  -20.5025  -13.0333 N   0  0  0  0  0  0  0  0  0  0  0  0
   23.3176  -20.9816  -12.3031 C   0  0  0  0  0  0  0  0  0  0  0  0
   20.9524  -20.8639  -12.2747 O   0  0  0  0  0  0  0  0  0  0  0  0
   19.7844  -20.1380  -12.4085 O   0  0  0  0  0  0  0  0  0  0  0  0
  1  2  1  0
  2  3  2  0
  4  5  1  0
  4  2  1  0
  6  5  1  0
  7  6  1  0
  8 10  1  0
  8  7  1  0
  8  9  1  6
 10 11  2  0
 13 12  1  0
 13 14  2  0
 15 13  1  0
 16 15  1  0
 17 16  1  1
 17 19  1  0
 18 17  1  0
 18 10  1  0
 19 20  2  0
 19 26  1  0
 22 21  1  6
 22 24  1  0
 23 22  1  0
 25 24  1  6
 25 27  1  0
 26 25  1  0
 27 29  2  0
 27 28  1  0
M  END
$$$$
