RQL.pdb
     RDKit          3D

 29 28  0  0  1  0  0  0  0  0999 V2000
   30.3005  -25.0289  -17.4553 N   0  0  0  0  0  0  0  0  0  0  0  0
   31.3261  -24.5355  -16.5750 C   0  0  0  0  0  0  0  0  0  0  0  0
   32.5622  -24.8755  -16.7536 N   0  0  0  0  0  0  0  0  0  0  0  0
   31.0279  -23.6727  -15.4965 N   0  0  0  0  0  0  0  0  0  0  0  0
   29.6378  -23.3364  -15.2049 C   0  0  0  0  0  0  0  0  0  0  0  0
   28.9183  -22.9456  -16.4751 C   0  0  0  0  0  0  0  0  0  0  0  0
   27.4921  -22.6238  -16.1585 C   0  0  0  0  0  0  0  0  0  0  0  0
   27.2595  -21.1580  -16.1612 C   0  0  2  0  0  0  0  0  0  0  0  0
   28.3675  -20.4524  -16.8476 N   0  0  0  0  0  0  0  0  0  0  0  0
   27.0817  -20.5689  -14.8162 C   0  0  0  0  0  0  0  0  0  0  0  0
   27.5518  -19.4723  -14.4313 O   0  0  0  0  0  0  0  0  0  0  0  0
   33.3276  -24.5152  -16.1475 N   0  0  0  0  0  0  0  0  0  0  0  0
   21.3376  -21.2205  -13.3111 C   0  0  0  0  0  0  0  0  0  0  0  0
   21.7336  -20.3054  -12.2952 O   0  0  0  0  0  0  0  0  0  0  0  0
   20.9479  -19.7285  -11.5243 C   0  0  0  0  0  0  0  0  0  0  0  0
   23.2071  -20.0258  -12.1551 C   0  0  0  0  0  0  0  0  0  0  0  0
   23.9980  -20.8282  -13.1417 C   0  0  2  0  0  0  0  0  0  0  0  0
   25.4590  -20.5998  -12.9502 N   0  0  0  0  0  0  0  0  0  0  0  0
   26.3149  -21.2899  -13.8586 C   0  0  0  0  0  0  0  0  0  0  0  0
   25.7969  -21.1002  -11.5656 O   0  0  0  0  0  0  0  0  0  0  0  0
   25.8481  -22.3478  -11.3182 C   0  0  0  0  0  0  0  0  0  0  0  0
   27.5903  -18.7797   -6.2674 C   0  0  1  0  0  0  0  0  0  0  0  0
   27.5355  -20.0771   -7.0690 C   0  0  0  0  0  0  0  0  0  0  0  0
   28.8923  -20.7023   -6.9885 C   0  0  0  0  0  0  0  0  0  0  0  0
   27.1465  -19.6985   -8.4685 C   0  0  2  0  0  0  0  0  0  0  0  0
   26.3612  -20.7682   -9.1955 N   0  0  0  0  0  0  0  0  0  0  0  0
   26.0656  -20.2230  -10.5053 C   0  0  0  0  0  0  0  0  0  0  0  0
   25.0883  -21.0917   -8.5307 O   0  0  0  0  0  0  0  0  0  0  0  0
   23.9483  -20.3507   -8.7765 O   0  0  0  0  0  0  0  0  0  0  0  0
  1  2  1  0
  2  3  2  0
  4  5  1  0
  4  2  1  0
  6  5  1  0
  7  6  1  0
  8 10  1  0
  8  7  1  0
  8  9  1  1
 10 11  2  0
 13 12  1  0
 13 14  2  0
 15 13  1  0
 16 15  1  0
 17 16  1  6
 17 19  1  0
 18 17  1  0
 18 10  1  0
 19 20  2  0
 19 26  1  0
 22 21  1  1
 22 24  1  0
 23 22  1  0
 25 24  1  6
 25 27  1  0
 26 25  1  0
 27 29  2  0
 27 28  1  0
M  END
$$$$
