RQL.pdb
     RDKit          3D

 29 28  0  0  1  0  0  0  0  0999 V2000
   15.3263  -15.5386  -16.6867 N   0  0  0  0  0  0  0  0  0  0  0  0
   16.1060  -15.0940  -15.5621 C   0  0  0  0  0  0  0  0  0  0  0  0
   17.3935  -15.2275  -15.5636 N   0  0  0  0  0  0  0  0  0  0  0  0
   15.5050  -14.5028  -14.4282 N   0  0  0  0  0  0  0  0  0  0  0  0
   14.0592  -14.3042  -14.3994 C   0  0  0  0  0  0  0  0  0  0  0  0
   13.7370  -12.8317  -14.2921 C   0  0  0  0  0  0  0  0  0  0  0  0
   14.2915  -12.2945  -13.0107 C   0  0  0  0  0  0  0  0  0  0  0  0
   14.0804  -10.8292  -12.9072 C   0  0  2  0  0  0  0  0  0  0  0  0
   14.2124  -10.1852  -14.2356 N   0  0  0  0  0  0  0  0  0  0  0  0
   14.9886  -10.1503  -11.9576 C   0  0  0  0  0  0  0  0  0  0  0  0
   15.1583  -10.4664  -10.7565 O   0  0  0  0  0  0  0  0  0  0  0  0
   17.9901  -14.8410  -14.8037 N   0  0  0  0  0  0  0  0  0  0  0  0
   18.0875   -7.9658  -14.8934 C   0  0  0  0  0  0  0  0  0  0  0  0
   18.8635   -8.9179  -14.1739 O   0  0  0  0  0  0  0  0  0  0  0  0
   19.5890   -9.7768  -14.7033 C   0  0  0  0  0  0  0  0  0  0  0  0
   18.7921   -8.8708  -12.6700 C   0  0  0  0  0  0  0  0  0  0  0  0
   17.8637   -7.7876  -12.2142 C   0  0  2  0  0  0  0  0  0  0  0  0
   16.6605   -8.3728  -11.5559 N   0  0  0  0  0  0  0  0  0  0  0  0
   15.7463   -9.0397  -12.4239 C   0  0  0  0  0  0  0  0  0  0  0  0
   15.9082   -7.2224  -10.9292 O   0  0  0  0  0  0  0  0  0  0  0  0
   15.1067   -6.5148  -11.6200 C   0  0  0  0  0  0  0  0  0  0  0  0
   12.4794   -6.1233   -8.9455 C   0  0  2  0  0  0  0  0  0  0  0  0
   13.4129   -7.0120   -8.1285 C   0  0  0  0  0  0  0  0  0  0  0  0
   12.6654   -7.4238   -6.8997 C   0  0  0  0  0  0  0  0  0  0  0  0
   14.6305   -6.1882   -7.8254 C   0  0  2  0  0  0  0  0  0  0  0  0
   15.3745   -5.7203   -9.0571 N   0  0  0  0  0  0  0  0  0  0  0  0
   16.0582   -6.8881   -9.5759 C   0  0  0  0  0  0  0  0  0  0  0  0
   16.3816   -4.6894   -8.7573 O   0  0  0  0  0  0  0  0  0  0  0  0
   16.0133   -3.3746   -8.5458 O   0  0  0  0  0  0  0  0  0  0  0  0
  1  2  1  0
  2  3  2  0
  4  5  1  0
  4  2  1  0
  6  5  1  0
  7  6  1  0
  8 10  1  0
  8  7  1  0
  8  9  1  6
 10 11  2  0
 13 12  1  0
 13 14  2  0
 15 13  1  0
 16 15  1  0
 17 16  1  1
 17 19  1  0
 18 17  1  0
 18 10  1  0
 19 20  2  0
 19 26  1  0
 22 21  1  6
 22 24  1  0
 23 22  1  0
 25 24  1  6
 25 27  1  0
 26 25  1  0
 27 29  2  0
 27 28  1  0
M  END
$$$$
