RQL.pdb
     RDKit          3D

 29 28  0  0  1  0  0  0  0  0999 V2000
   13.2091  -13.9228  -17.0811 N   0  0  0  0  0  0  0  0  0  0  0  0
   13.9011  -14.9995  -17.7385 C   0  0  0  0  0  0  0  0  0  0  0  0
   13.6020  -16.2303  -17.4715 N   0  0  0  0  0  0  0  0  0  0  0  0
   14.9198  -14.7587  -18.6876 N   0  0  0  0  0  0  0  0  0  0  0  0
   15.5121  -13.4284  -18.7878 C   0  0  0  0  0  0  0  0  0  0  0  0
   16.5146  -13.2188  -17.6767 C   0  0  0  0  0  0  0  0  0  0  0  0
   17.1192  -11.8564  -17.8043 C   0  0  0  0  0  0  0  0  0  0  0  0
   18.5733  -11.8849  -17.5088 C   0  0  2  0  0  0  0  0  0  0  0  0
   19.0504  -13.2799  -17.3572 N   0  0  0  0  0  0  0  0  0  0  0  0
   18.9640  -11.1158  -16.3073 C   0  0  0  0  0  0  0  0  0  0  0  0
   19.2512  -11.6042  -15.1890 O   0  0  0  0  0  0  0  0  0  0  0  0
   14.0620  -17.0284  -17.9556 N   0  0  0  0  0  0  0  0  0  0  0  0
   21.3639   -5.2917  -16.1233 C   0  0  0  0  0  0  0  0  0  0  0  0
   21.3726   -5.6884  -14.7562 O   0  0  0  0  0  0  0  0  0  0  0  0
   21.9279   -5.0530  -13.8439 C   0  0  0  0  0  0  0  0  0  0  0  0
   20.6569   -6.9663  -14.4045 C   0  0  0  0  0  0  0  0  0  0  0  0
   20.0527   -7.5918  -15.6237 C   0  0  2  0  0  0  0  0  0  0  0  0
   19.4526   -8.9153  -15.2898 N   0  0  0  0  0  0  0  0  0  0  0  0
   19.0268   -9.6975  -16.4038 C   0  0  0  0  0  0  0  0  0  0  0  0
   18.2237   -8.6351  -14.4572 O   0  0  0  0  0  0  0  0  0  0  0  0
   17.1144   -8.3454  -15.0102 C   0  0  0  0  0  0  0  0  0  0  0  0
   15.2405  -10.8289  -12.5450 C   0  0  2  0  0  0  0  0  0  0  0  0
   16.6259  -10.9827  -11.9239 C   0  0  0  0  0  0  0  0  0  0  0  0
   16.5347  -12.0792  -10.9101 C   0  0  0  0  0  0  0  0  0  0  0  0
   16.9733   -9.6533  -11.3198 C   0  0  2  0  0  0  0  0  0  0  0  0
   17.0133   -8.5187  -12.3201 N   0  0  0  0  0  0  0  0  0  0  0  0
   18.2511   -8.6814  -13.0562 C   0  0  0  0  0  0  0  0  0  0  0  0
   17.0268   -7.1937  -11.6788 O   0  0  0  0  0  0  0  0  0  0  0  0
   15.8933   -6.6828  -11.0763 O   0  0  0  0  0  0  0  0  0  0  0  0
  1  2  1  0
  2  3  2  0
  4  5  1  0
  4  2  1  0
  6  5  1  0
  7  6  1  0
  8 10  1  0
  8  7  1  0
  8  9  1  1
 10 11  2  0
 13 12  1  0
 13 14  2  0
 15 13  1  0
 16 15  1  0
 17 16  1  6
 17 19  1  0
 18 17  1  0
 18 10  1  0
 19 20  2  0
 19 26  1  0
 22 21  1  6
 22 24  1  0
 23 22  1  0
 25 24  1  6
 25 27  1  0
 26 25  1  0
 27 29  2  0
 27 28  1  0
M  END
$$$$
