RQL.pdb
     RDKit          3D

 29 28  0  0  1  0  0  0  0  0999 V2000
   31.2199  -24.4172  -18.4095 N   0  0  0  0  0  0  0  0  0  0  0  0
   30.4039  -24.5185  -17.2288 C   0  0  0  0  0  0  0  0  0  0  0  0
   30.9105  -24.9456  -16.1169 N   0  0  0  0  0  0  0  0  0  0  0  0
   29.0370  -24.1608  -17.2371 N   0  0  0  0  0  0  0  0  0  0  0  0
   28.6584  -22.7561  -17.1180 C   0  0  0  0  0  0  0  0  0  0  0  0
   29.6463  -22.0223  -16.2409 C   0  0  0  0  0  0  0  0  0  0  0  0
   28.9056  -21.2717  -15.1798 C   0  0  0  0  0  0  0  0  0  0  0  0
   27.5780  -20.8225  -15.6677 C   0  0  2  0  0  0  0  0  0  0  0  0
   27.7278  -19.7824  -16.7129 N   0  0  0  0  0  0  0  0  0  0  0  0
   26.6844  -20.3063  -14.6082 C   0  0  0  0  0  0  0  0  0  0  0  0
   26.5839  -19.1069  -14.2577 O   0  0  0  0  0  0  0  0  0  0  0  0
   31.8946  -25.2771  -16.0492 N   0  0  0  0  0  0  0  0  0  0  0  0
   21.6123  -19.2809  -13.9254 C   0  0  0  0  0  0  0  0  0  0  0  0
   21.6123  -19.6194  -12.5427 O   0  0  0  0  0  0  0  0  0  0  0  0
   20.8365  -19.1356  -11.7011 C   0  0  0  0  0  0  0  0  0  0  0  0
   22.6258  -20.6336  -12.0810 C   0  0  0  0  0  0  0  0  0  0  0  0
   23.4926  -21.0770  -13.2190 C   0  0  1  0  0  0  0  0  0  0  0  0
   24.9246  -20.7740  -12.9346 N   0  0  0  0  0  0  0  0  0  0  0  0
   25.8571  -21.2314  -13.9119 C   0  0  0  0  0  0  0  0  0  0  0  0
   25.2666  -21.4764  -11.6417 O   0  0  0  0  0  0  0  0  0  0  0  0
   25.3797  -22.7435  -11.5989 C   0  0  0  0  0  0  0  0  0  0  0  0
   28.3023  -19.1390   -7.8319 C   0  0  1  0  0  0  0  0  0  0  0  0
   26.8755  -19.6551   -7.9946 C   0  0  0  0  0  0  0  0  0  0  0  0
   26.2674  -19.7071   -6.6285 C   0  0  0  0  0  0  0  0  0  0  0  0
   26.9807  -21.0057   -8.6411 C   0  0  1  0  0  0  0  0  0  0  0  0
   25.6761  -21.5111   -9.2175 N   0  0  0  0  0  0  0  0  0  0  0  0
   25.4720  -20.7718  -10.4471 C   0  0  0  0  0  0  0  0  0  0  0  0
   24.5272  -21.2621   -8.3314 O   0  0  0  0  0  0  0  0  0  0  0  0
   23.6132  -20.2652   -8.6140 O   0  0  0  0  0  0  0  0  0  0  0  0
  1  2  1  0
  2  3  2  0
  4  5  1  0
  4  2  1  0
  6  5  1  0
  7  6  1  0
  8 10  1  0
  8  7  1  0
  8  9  1  6
 10 11  2  0
 13 12  1  0
 13 14  2  0
 15 13  1  0
 16 15  1  0
 17 16  1  6
 17 19  1  0
 18 17  1  0
 18 10  1  0
 19 20  2  0
 19 26  1  0
 22 21  1  6
 22 24  1  0
 23 22  1  0
 25 24  1  6
 25 27  1  0
 26 25  1  0
 27 29  2  0
 27 28  1  0
M  END
$$$$
