RQL.pdb
     RDKit          3D

 29 28  0  0  1  0  0  0  0  0999 V2000
   16.7302  -20.3816  -13.8701 N   0  0  0  0  0  0  0  0  0  0  0  0
   16.4009  -20.2414  -15.2637 C   0  0  0  0  0  0  0  0  0  0  0  0
   15.1743  -20.0520  -15.6312 N   0  0  0  0  0  0  0  0  0  0  0  0
   17.3897  -20.3043  -16.2710 N   0  0  0  0  0  0  0  0  0  0  0  0
   18.7922  -20.1068  -15.9182 C   0  0  0  0  0  0  0  0  0  0  0  0
   19.5326  -21.4232  -15.9670 C   0  0  0  0  0  0  0  0  0  0  0  0
   19.9626  -21.8022  -14.5852 C   0  0  0  0  0  0  0  0  0  0  0  0
   20.8801  -20.7866  -14.0113 C   0  0  2  0  0  0  0  0  0  0  0  0
   20.7561  -19.4992  -14.7351 N   0  0  0  0  0  0  0  0  0  0  0  0
   22.3028  -21.1906  -14.0004 C   0  0  0  0  0  0  0  0  0  0  0  0
   22.7519  -22.2707  -13.5497 O   0  0  0  0  0  0  0  0  0  0  0  0
   14.8967  -20.0174  -16.6336 N   0  0  0  0  0  0  0  0  0  0  0  0
   26.7722  -18.9236  -17.7772 C   0  0  0  0  0  0  0  0  0  0  0  0
   25.9851  -20.0582  -18.1229 O   0  0  0  0  0  0  0  0  0  0  0  0
   25.9332  -20.5571  -19.2599 C   0  0  0  0  0  0  0  0  0  0  0  0
   25.1642  -20.6876  -17.0280 C   0  0  0  0  0  0  0  0  0  0  0  0
   25.4185  -20.0121  -15.7158 C   0  0  2  0  0  0  0  0  0  0  0  0
   24.6372  -20.6693  -14.6290 N   0  0  0  0  0  0  0  0  0  0  0  0
   23.2644  -20.2927  -14.5429 C   0  0  0  0  0  0  0  0  0  0  0  0
   25.2843  -20.2640  -13.3256 O   0  0  0  0  0  0  0  0  0  0  0  0
   24.6838  -19.4893  -12.5134 C   0  0  0  0  0  0  0  0  0  0  0  0
   27.9053  -20.3066   -8.8571 C   0  0  1  0  0  0  0  0  0  0  0  0
   26.4600  -20.0968   -9.2994 C   0  0  0  0  0  0  0  0  0  0  0  0
   25.5843  -20.6532   -8.2215 C   0  0  0  0  0  0  0  0  0  0  0  0
   26.3055  -20.8141  -10.6088 C   0  0  2  0  0  0  0  0  0  0  0  0
   27.1503  -20.2391  -11.7247 N   0  0  0  0  0  0  0  0  0  0  0  0
   26.5589  -20.7178  -12.9580 C   0  0  0  0  0  0  0  0  0  0  0  0
   28.5488  -20.6959  -11.6740 O   0  0  0  0  0  0  0  0  0  0  0  0
   29.4927  -20.0176  -10.9269 O   0  0  0  0  0  0  0  0  0  0  0  0
  1  2  1  0
  2  3  2  0
  4  5  1  0
  4  2  1  0
  6  5  1  0
  7  6  1  0
  8 10  1  0
  8  7  1  0
  8  9  1  6
 10 11  2  0
 13 12  1  0
 13 14  2  0
 15 13  1  0
 16 15  1  0
 17 16  1  6
 17 19  1  0
 18 17  1  0
 18 10  1  0
 19 20  2  0
 19 26  1  0
 22 21  1  1
 22 24  1  0
 23 22  1  0
 25 24  1  6
 25 27  1  0
 26 25  1  0
 27 29  2  0
 27 28  1  0
M  END
$$$$
