RQL.pdb
     RDKit          3D

 29 28  0  0  1  0  0  0  0  0999 V2000
   17.1798  -14.1109  -15.7205 N   0  0  0  0  0  0  0  0  0  0  0  0
   17.6500  -12.9082  -16.3549 C   0  0  0  0  0  0  0  0  0  0  0  0
   17.1571  -11.7577  -16.0250 N   0  0  0  0  0  0  0  0  0  0  0  0
   18.6539  -12.9357  -17.3488 N   0  0  0  0  0  0  0  0  0  0  0  0
   19.2554  -14.2095  -17.7312 C   0  0  0  0  0  0  0  0  0  0  0  0
   20.6090  -14.3643  -17.0774 C   0  0  0  0  0  0  0  0  0  0  0  0
   21.6036  -14.8203  -18.0975 C   0  0  0  0  0  0  0  0  0  0  0  0
   22.9420  -15.0228  -17.4890 C   0  0  2  0  0  0  0  0  0  0  0  0
   22.9329  -16.1935  -16.5800 N   0  0  0  0  0  0  0  0  0  0  0  0
   23.4563  -13.8502  -16.7487 C   0  0  0  0  0  0  0  0  0  0  0  0
   23.2069  -13.5756  -15.5513 O   0  0  0  0  0  0  0  0  0  0  0  0
   17.4862  -10.8706  -16.4582 N   0  0  0  0  0  0  0  0  0  0  0  0
   28.7955  -10.7627  -17.9476 C   0  0  0  0  0  0  0  0  0  0  0  0
   28.3592  -10.2088  -16.7110 O   0  0  0  0  0  0  0  0  0  0  0  0
   29.0424   -9.4520  -16.0004 C   0  0  0  0  0  0  0  0  0  0  0  0
   26.9743  -10.5719  -16.2430 C   0  0  0  0  0  0  0  0  0  0  0  0
   26.3363  -11.5534  -17.1772 C   0  0  2  0  0  0  0  0  0  0  0  0
   24.9536  -11.8821  -16.7261 N   0  0  0  0  0  0  0  0  0  0  0  0
   24.3101  -12.9404  -17.4329 C   0  0  0  0  0  0  0  0  0  0  0  0
   24.1210  -10.6407  -16.9448 O   0  0  0  0  0  0  0  0  0  0  0  0
   23.7083  -10.3298  -18.1081 C   0  0  0  0  0  0  0  0  0  0  0  0
   20.0617   -9.2786  -15.9490 C   0  0  2  0  0  0  0  0  0  0  0  0
   21.0243   -9.4560  -14.7783 C   0  0  0  0  0  0  0  0  0  0  0  0
   20.2283   -9.2830  -13.5234 C   0  0  0  0  0  0  0  0  0  0  0  0
   22.0934   -8.4152  -14.9426 C   0  0  2  0  0  0  0  0  0  0  0  0
   22.9612   -8.6176  -16.1654 N   0  0  0  0  0  0  0  0  0  0  0  0
   23.7708   -9.7874  -15.8890 C   0  0  0  0  0  0  0  0  0  0  0  0
   23.8616   -7.4811  -16.4196 O   0  0  0  0  0  0  0  0  0  0  0  0
   23.3695   -6.2677  -16.8606 O   0  0  0  0  0  0  0  0  0  0  0  0
  1  2  1  0
  2  3  2  0
  4  5  1  0
  4  2  1  0
  6  5  1  0
  7  6  1  0
  8 10  1  0
  8  7  1  0
  8  9  1  1
 10 11  2  0
 13 12  1  0
 13 14  2  0
 15 13  1  0
 16 15  1  0
 17 16  1  1
 17 19  1  0
 18 17  1  0
 18 10  1  0
 19 20  2  0
 19 26  1  0
 22 21  1  1
 22 24  1  0
 23 22  1  0
 25 24  1  6
 25 27  1  0
 26 25  1  0
 27 29  2  0
 27 28  1  0
M  END
$$$$
