QHQ.pdb
     RDKit          3D

 29 29  0  0  1  0  0  0  0  0999 V2000
   11.4197  -20.5785   13.7643 N   0  0  0  0  0  0  0  0  0  0  0  0
   12.3180  -19.4728   13.9316 C   0  0  0  0  0  0  0  0  0  0  0  0
   13.5011  -19.7428   14.1725 O   0  0  0  0  0  0  0  0  0  0  0  0
   11.7283  -18.1217   13.7975 C   0  0  0  0  0  0  0  0  0  0  0  0
   10.2590  -18.2155   13.5691 C   0  0  0  0  0  0  0  0  0  0  0  0
    9.5732  -16.9090   13.4266 C   0  0  2  0  0  0  0  0  0  0  0  0
   10.1898  -16.2268   12.2643 N   0  0  0  0  0  0  0  0  0  0  0  0
    9.7617  -15.9918   14.6078 C   0  0  0  0  0  0  0  0  0  0  0  0
   10.7026  -15.1361   14.5250 O   0  0  0  0  0  0  0  0  0  0  0  0
    8.9881  -16.0194   15.7683 N   0  0  0  0  0  0  0  0  0  0  0  0
    9.1467  -15.0885   16.8977 C   0  0  1  0  0  0  0  0  0  0  0  0
    7.8347  -14.9389   17.5327 C   0  0  0  0  0  0  0  0  0  0  0  0
    7.7581  -14.1618   18.7774 C   0  0  0  0  0  0  0  0  0  0  0  0
    8.1300  -12.8088   18.7730 C   0  0  0  0  0  0  0  0  0  0  0  0
    7.9808  -12.3083   20.0029 N   0  0  0  0  0  0  0  0  0  0  0  0
    7.5227  -13.3246   20.7738 C   0  0  0  0  0  0  0  0  0  0  0  0
    7.3953  -14.4293   20.0206 N   0  0  0  0  0  0  0  0  0  0  0  0
   10.2789  -15.5038   17.7300 C   0  0  0  0  0  0  0  0  0  0  0  0
   10.6029  -16.7196   17.7299 O   0  0  0  0  0  0  0  0  0  0  0  0
   16.3274  -13.0603   20.0118 N   0  0  0  0  0  0  0  0  0  0  0  0
   15.8436  -14.1020   19.2153 C   0  0  0  0  0  0  0  0  0  0  0  0
   16.3980  -14.3911   18.1363 O   0  0  0  0  0  0  0  0  0  0  0  0
   14.6515  -14.8822   19.6523 C   0  0  0  0  0  0  0  0  0  0  0  0
   13.4107  -14.4256   18.9287 C   0  0  0  0  0  0  0  0  0  0  0  0
   12.1744  -15.2103   19.2903 C   0  0  2  0  0  0  0  0  0  0  0  0
   11.0377  -14.6429   18.5374 N   0  0  0  0  0  0  0  0  0  0  0  0
   11.8600  -15.2122   20.7327 C   0  0  0  0  0  0  0  0  0  0  0  0
   12.7077  -15.7046   21.5544 O   0  0  0  0  0  0  0  0  0  0  0  0
   10.7080  -14.7194   21.3032 O   0  0  0  0  0  0  0  0  0  0  0  0
  2  1  1  0
  3  2  2  0
  4  2  1  0
  5  4  1  0
  6  5  1  0
  6  7  1  6
  8  6  1  0
  9  8  2  0
 10  8  1  0
 11 10  1  0
 11 12  1  1
 12 13  1  0
 13 14  2  0
 14 15  1  0
 16 15  1  0
 17 13  1  0
 17 16  2  0
 18 26  1  0
 18 11  1  0
 19 18  2  0
 21 20  1  0
 22 21  2  0
 23 21  1  0
 25 24  1  1
 24 23  1  0
 25 26  1  0
 27 25  1  0
 28 27  2  0
 29 27  1  0
M  END
$$$$
