QHQ.pdb
     RDKit          3D

 29 29  0  0  1  0  0  0  0  0999 V2000
   12.3996  -14.2895   11.1596 N   0  0  0  0  0  0  0  0  0  0  0  0
   11.0646  -14.7693   10.9469 C   0  0  0  0  0  0  0  0  0  0  0  0
   10.4171  -14.2402   10.0351 O   0  0  0  0  0  0  0  0  0  0  0  0
   10.6045  -15.8507   11.8469 C   0  0  0  0  0  0  0  0  0  0  0  0
   11.0119  -15.5673   13.2517 C   0  0  0  0  0  0  0  0  0  0  0  0
   10.5733  -16.5842   14.2373 C   0  0  2  0  0  0  0  0  0  0  0  0
    9.2332  -17.0475   13.8062 N   0  0  0  0  0  0  0  0  0  0  0  0
   10.4079  -16.0442   15.6348 C   0  0  0  0  0  0  0  0  0  0  0  0
    9.2916  -15.4934   15.9083 O   0  0  0  0  0  0  0  0  0  0  0  0
   11.3818  -16.1043   16.6317 N   0  0  0  0  0  0  0  0  0  0  0  0
   11.1663  -16.6691   17.9740 C   0  0  1  0  0  0  0  0  0  0  0  0
   10.5506  -17.9877   17.8034 C   0  0  0  0  0  0  0  0  0  0  0  0
   10.0916  -18.6931   19.0079 C   0  0  0  0  0  0  0  0  0  0  0  0
   10.9923  -19.4934   19.7271 C   0  0  0  0  0  0  0  0  0  0  0  0
   10.3615  -20.0319   20.7747 N   0  0  0  0  0  0  0  0  0  0  0  0
    9.0841  -19.5820   20.7216 C   0  0  0  0  0  0  0  0  0  0  0  0
    8.9411  -18.7795   19.6541 N   0  0  0  0  0  0  0  0  0  0  0  0
   12.4004  -16.5740   18.7583 C   0  0  0  0  0  0  0  0  0  0  0  0
   13.3284  -17.3859   18.5078 O   0  0  0  0  0  0  0  0  0  0  0  0
    9.8918  -17.9999   23.1894 N   0  0  0  0  0  0  0  0  0  0  0  0
   10.7588  -17.2127   23.9524 C   0  0  0  0  0  0  0  0  0  0  0  0
   10.6185  -17.1227   25.1883 O   0  0  0  0  0  0  0  0  0  0  0  0
   11.8670  -16.4684   23.2902 C   0  0  0  0  0  0  0  0  0  0  0  0
   11.8729  -16.7160   21.8035 C   0  0  0  0  0  0  0  0  0  0  0  0
   13.0733  -16.1372   21.0971 C   0  0  2  0  0  0  0  0  0  0  0  0
   12.6307  -15.6393   19.7792 N   0  0  0  0  0  0  0  0  0  0  0  0
   14.1863  -17.0903   20.9168 C   0  0  0  0  0  0  0  0  0  0  0  0
   14.9396  -17.3640   21.9136 O   0  0  0  0  0  0  0  0  0  0  0  0
   14.5058  -17.7380   19.7447 O   0  0  0  0  0  0  0  0  0  0  0  0
  2  1  1  0
  3  2  2  0
  4  2  1  0
  5  4  1  0
  6  5  1  0
  6  7  1  6
  8  6  1  0
  9  8  2  0
 10  8  1  0
 11 10  1  0
 11 12  1  6
 12 13  1  0
 13 14  2  0
 14 15  1  0
 16 15  1  0
 17 13  1  0
 17 16  2  0
 18 26  1  0
 18 11  1  0
 19 18  2  0
 21 20  1  0
 22 21  2  0
 23 21  1  0
 25 24  1  6
 24 23  1  0
 25 26  1  0
 27 25  1  0
 28 27  2  0
 29 27  1  0
M  END
$$$$
