QHQ.pdb
     RDKit          3D

 29 29  0  0  1  0  0  0  0  0999 V2000
   13.1080  -21.1043   16.7000 N   0  0  0  0  0  0  0  0  0  0  0  0
   13.9261  -20.3091   17.5694 C   0  0  0  0  0  0  0  0  0  0  0  0
   14.8004  -20.9014   18.2139 O   0  0  0  0  0  0  0  0  0  0  0  0
   13.6330  -18.8584   17.6013 C   0  0  0  0  0  0  0  0  0  0  0  0
   12.5206  -18.5315   16.6657 C   0  0  0  0  0  0  0  0  0  0  0  0
   12.1625  -17.0939   16.6130 C   0  0  2  0  0  0  0  0  0  0  0  0
   13.2741  -16.4013   15.9194 N   0  0  0  0  0  0  0  0  0  0  0  0
   12.0392  -16.4484   17.9695 C   0  0  0  0  0  0  0  0  0  0  0  0
   13.0830  -15.8819   18.4321 O   0  0  0  0  0  0  0  0  0  0  0  0
   10.8769  -16.4328   18.7408 N   0  0  0  0  0  0  0  0  0  0  0  0
   10.7450  -15.7437   20.0351 C   0  0  1  0  0  0  0  0  0  0  0  0
    9.3137  -15.5904   20.3085 C   0  0  0  0  0  0  0  0  0  0  0  0
    8.6098  -14.4658   19.6769 C   0  0  0  0  0  0  0  0  0  0  0  0
    9.3188  -13.5828   18.8482 C   0  0  0  0  0  0  0  0  0  0  0  0
    8.4839  -12.6467   18.3878 N   0  0  0  0  0  0  0  0  0  0  0  0
    7.2676  -12.9300   18.9144 C   0  0  0  0  0  0  0  0  0  0  0  0
    7.3630  -14.0255   19.6855 N   0  0  0  0  0  0  0  0  0  0  0  0
   11.5778  -16.4089   21.0405 C   0  0  0  0  0  0  0  0  0  0  0  0
   11.5667  -17.6664   21.0846 O   0  0  0  0  0  0  0  0  0  0  0  0
   17.0565  -14.8191   23.2506 N   0  0  0  0  0  0  0  0  0  0  0  0
   16.6769  -15.2346   21.9713 C   0  0  0  0  0  0  0  0  0  0  0  0
   17.4434  -15.0876   20.9986 O   0  0  0  0  0  0  0  0  0  0  0  0
   15.3423  -15.8620   21.7569 C   0  0  0  0  0  0  0  0  0  0  0  0
   14.5531  -15.9072   23.0402 C   0  0  0  0  0  0  0  0  0  0  0  0
   13.2021  -16.5627   22.8984 C   0  0  2  0  0  0  0  0  0  0  0  0
   12.3946  -15.7466   21.9696 N   0  0  0  0  0  0  0  0  0  0  0  0
   12.4737  -16.7279   24.1719 C   0  0  0  0  0  0  0  0  0  0  0  0
   13.0027  -17.4230   25.1063 O   0  0  0  0  0  0  0  0  0  0  0  0
   11.2411  -16.1902   24.4666 O   0  0  0  0  0  0  0  0  0  0  0  0
  2  1  1  0
  3  2  2  0
  4  2  1  0
  5  4  1  0
  6  5  1  0
  6  7  1  6
  8  6  1  0
  9  8  2  0
 10  8  1  0
 11 10  1  0
 11 12  1  1
 12 13  1  0
 13 14  2  0
 14 15  1  0
 16 15  1  0
 17 13  1  0
 17 16  2  0
 18 26  1  0
 18 11  1  0
 19 18  2  0
 21 20  1  0
 22 21  2  0
 23 21  1  0
 25 24  1  1
 24 23  1  0
 25 26  1  0
 27 25  1  0
 28 27  2  0
 29 27  1  0
M  END
$$$$
