QHQ.pdb
     RDKit          3D

 29 29  0  0  1  0  0  0  0  0999 V2000
   15.1467  -17.7135   14.1832 N   0  0  0  0  0  0  0  0  0  0  0  0
   15.4753  -16.4841   13.5211 C   0  0  0  0  0  0  0  0  0  0  0  0
   14.7597  -16.1516   12.5683 O   0  0  0  0  0  0  0  0  0  0  0  0
   16.6417  -15.7437   14.0526 C   0  0  0  0  0  0  0  0  0  0  0  0
   16.4453  -15.4297   15.4957 C   0  0  0  0  0  0  0  0  0  0  0  0
   15.6388  -14.2136   15.7572 C   0  0  2  0  0  0  0  0  0  0  0  0
   16.5588  -13.0574   15.6421 N   0  0  0  0  0  0  0  0  0  0  0  0
   15.0567  -14.1577   17.1464 C   0  0  0  0  0  0  0  0  0  0  0  0
   15.8030  -13.6793   18.0622 O   0  0  0  0  0  0  0  0  0  0  0  0
   13.7761  -14.5909   17.4908 N   0  0  0  0  0  0  0  0  0  0  0  0
   13.2564  -14.6436   18.8672 C   0  0  1  0  0  0  0  0  0  0  0  0
   11.7939  -14.6763   18.7847 C   0  0  0  0  0  0  0  0  0  0  0  0
   11.0472  -15.0943   19.9792 C   0  0  0  0  0  0  0  0  0  0  0  0
   11.1471  -14.3391   21.1577 C   0  0  0  0  0  0  0  0  0  0  0  0
   10.3900  -14.9007   22.1046 N   0  0  0  0  0  0  0  0  0  0  0  0
    9.8200  -15.9921   21.5381 C   0  0  0  0  0  0  0  0  0  0  0  0
   10.2264  -16.0919   20.2618 N   0  0  0  0  0  0  0  0  0  0  0  0
   13.9347  -15.7053   19.6153 C   0  0  0  0  0  0  0  0  0  0  0  0
   14.1746  -16.7897   19.0238 O   0  0  0  0  0  0  0  0  0  0  0  0
   18.9642  -14.7963   19.2056 N   0  0  0  0  0  0  0  0  0  0  0  0
   18.7505  -15.7024   20.2480 C   0  0  0  0  0  0  0  0  0  0  0  0
   19.5852  -16.5940   20.5001 O   0  0  0  0  0  0  0  0  0  0  0  0
   17.5134  -15.6100   21.0738 C   0  0  0  0  0  0  0  0  0  0  0  0
   16.5011  -16.6429   20.6497 C   0  0  0  0  0  0  0  0  0  0  0  0
   15.2477  -16.6437   21.4886 C   0  0  2  0  0  0  0  0  0  0  0  0
   14.3410  -15.6074   20.9547 N   0  0  0  0  0  0  0  0  0  0  0  0
   15.4821  -16.4020   22.9260 C   0  0  0  0  0  0  0  0  0  0  0  0
   16.1191  -17.2762   23.6088 O   0  0  0  0  0  0  0  0  0  0  0  0
   15.0720  -15.2924   23.6302 O   0  0  0  0  0  0  0  0  0  0  0  0
  2  1  1  0
  3  2  2  0
  4  2  1  0
  5  4  1  0
  6  5  1  0
  6  7  1  1
  8  6  1  0
  9  8  2  0
 10  8  1  0
 11 10  1  0
 11 12  1  6
 12 13  1  0
 13 14  2  0
 14 15  1  0
 16 15  1  0
 17 13  1  0
 17 16  2  0
 18 26  1  0
 18 11  1  0
 19 18  2  0
 21 20  1  0
 22 21  2  0
 23 21  1  0
 25 24  1  6
 24 23  1  0
 25 26  1  0
 27 25  1  0
 28 27  2  0
 29 27  1  0
M  END
$$$$
