QHQ.pdb
     RDKit          3D

 29 29  0  0  1  0  0  0  0  0999 V2000
   17.0495  -14.9940   18.6146 N   0  0  0  0  0  0  0  0  0  0  0  0
   16.6791  -14.3432   17.3912 C   0  0  0  0  0  0  0  0  0  0  0  0
   17.5459  -14.2669   16.5117 O   0  0  0  0  0  0  0  0  0  0  0  0
   15.2926  -13.8304   17.3141 C   0  0  0  0  0  0  0  0  0  0  0  0
   14.5390  -14.1797   18.5509 C   0  0  0  0  0  0  0  0  0  0  0  0
   13.2246  -14.8217   18.3106 C   0  0  2  0  0  0  0  0  0  0  0  0
   12.5779  -14.0725   17.2075 N   0  0  0  0  0  0  0  0  0  0  0  0
   12.2855  -14.7423   19.4869 C   0  0  0  0  0  0  0  0  0  0  0  0
   12.4945  -13.8054   20.3254 O   0  0  0  0  0  0  0  0  0  0  0  0
   11.2213  -15.6146   19.7161 N   0  0  0  0  0  0  0  0  0  0  0  0
   10.3696  -15.5926   20.9167 C   0  0  1  0  0  0  0  0  0  0  0  0
    8.9759  -15.6580   20.4693 C   0  0  0  0  0  0  0  0  0  0  0  0
    8.4762  -14.5711   19.6160 C   0  0  0  0  0  0  0  0  0  0  0  0
    8.3765  -13.2719   20.1369 C   0  0  0  0  0  0  0  0  0  0  0  0
    7.9029  -12.4550   19.1916 N   0  0  0  0  0  0  0  0  0  0  0  0
    7.7055  -13.2211   18.0911 C   0  0  0  0  0  0  0  0  0  0  0  0
    8.0553  -14.4886   18.3652 N   0  0  0  0  0  0  0  0  0  0  0  0
   10.8389  -16.5935   21.8785 C   0  0  0  0  0  0  0  0  0  0  0  0
   11.3668  -17.6451   21.4327 O   0  0  0  0  0  0  0  0  0  0  0  0
   15.6611  -16.9601   22.8333 N   0  0  0  0  0  0  0  0  0  0  0  0
   15.4344  -16.8571   24.2086 C   0  0  0  0  0  0  0  0  0  0  0  0
   16.3794  -16.6622   24.9986 O   0  0  0  0  0  0  0  0  0  0  0  0
   14.0503  -16.9802   24.7470 C   0  0  0  0  0  0  0  0  0  0  0  0
   13.0450  -17.1083   23.6313 C   0  0  0  0  0  0  0  0  0  0  0  0
   11.6285  -17.3047   24.1111 C   0  0  2  0  0  0  0  0  0  0  0  0
   10.7435  -16.4709   23.2730 N   0  0  0  0  0  0  0  0  0  0  0  0
   11.4203  -16.9706   25.5339 C   0  0  0  0  0  0  0  0  0  0  0  0
   11.9695  -17.6980   26.4314 O   0  0  0  0  0  0  0  0  0  0  0  0
   10.6705  -15.9184   26.0094 O   0  0  0  0  0  0  0  0  0  0  0  0
  2  1  1  0
  3  2  2  0
  4  2  1  0
  5  4  1  0
  6  5  1  0
  6  7  1  6
  8  6  1  0
  9  8  2  0
 10  8  1  0
 11 10  1  0
 11 12  1  6
 12 13  1  0
 13 14  2  0
 14 15  1  0
 16 15  1  0
 17 13  1  0
 17 16  2  0
 18 26  1  0
 18 11  1  0
 19 18  2  0
 21 20  1  0
 22 21  2  0
 23 21  1  0
 25 24  1  6
 24 23  1  0
 25 26  1  0
 27 25  1  0
 28 27  2  0
 29 27  1  0
M  END
$$$$
