QHQ.pdb
     RDKit          3D

 29 29  0  0  1  0  0  0  0  0999 V2000
    9.1350  -12.7083   18.0653 N   0  0  0  0  0  0  0  0  0  0  0  0
    8.1368  -13.5536   17.4764 C   0  0  0  0  0  0  0  0  0  0  0  0
    8.2807  -13.8436   16.2824 O   0  0  0  0  0  0  0  0  0  0  0  0
    7.0369  -13.9886   18.3664 C   0  0  0  0  0  0  0  0  0  0  0  0
    7.4135  -13.7907   19.7943 C   0  0  0  0  0  0  0  0  0  0  0  0
    8.3916  -14.7754   20.3154 C   0  0  2  0  0  0  0  0  0  0  0  0
    8.2887  -15.9772   19.4544 N   0  0  0  0  0  0  0  0  0  0  0  0
    8.1020  -15.2333   21.7220 C   0  0  0  0  0  0  0  0  0  0  0  0
    8.0709  -14.3328   22.6234 O   0  0  0  0  0  0  0  0  0  0  0  0
    7.8722  -16.5573   22.0965 N   0  0  0  0  0  0  0  0  0  0  0  0
    7.7617  -17.0221   23.4890 C   0  0  1  0  0  0  0  0  0  0  0  0
    7.1132  -18.3358   23.4647 C   0  0  0  0  0  0  0  0  0  0  0  0
    6.9174  -19.0296   24.7450 C   0  0  0  0  0  0  0  0  0  0  0  0
    6.6334  -18.2847   25.8999 C   0  0  0  0  0  0  0  0  0  0  0  0
    6.4959  -19.1166   26.9363 N   0  0  0  0  0  0  0  0  0  0  0  0
    6.6890  -20.3665   26.4487 C   0  0  0  0  0  0  0  0  0  0  0  0
    6.9408  -20.2940   25.1314 N   0  0  0  0  0  0  0  0  0  0  0  0
    9.0587  -16.8990   24.1595 C   0  0  0  0  0  0  0  0  0  0  0  0
   10.0992  -17.1175   23.4865 O   0  0  0  0  0  0  0  0  0  0  0  0
    9.8890  -12.8759   27.9639 N   0  0  0  0  0  0  0  0  0  0  0  0
    9.8768  -13.9984   28.7965 C   0  0  0  0  0  0  0  0  0  0  0  0
    9.5393  -13.9021   29.9932 O   0  0  0  0  0  0  0  0  0  0  0  0
   10.2700  -15.3308   28.2570 C   0  0  0  0  0  0  0  0  0  0  0  0
   10.7480  -15.2180   26.8320 C   0  0  0  0  0  0  0  0  0  0  0  0
   10.6091  -16.4960   26.0430 C   0  0  2  0  0  0  0  0  0  0  0  0
    9.2337  -16.5545   25.5083 N   0  0  0  0  0  0  0  0  0  0  0  0
   10.8896  -17.7196   26.8198 C   0  0  0  0  0  0  0  0  0  0  0  0
    9.9157  -18.4693   27.1744 O   0  0  0  0  0  0  0  0  0  0  0  0
   12.1360  -18.1517   27.2136 O   0  0  0  0  0  0  0  0  0  0  0  0
  2  1  1  0
  3  2  2  0
  4  2  1  0
  5  4  1  0
  6  5  1  0
  6  7  1  6
  8  6  1  0
  9  8  2  0
 10  8  1  0
 11 10  1  0
 11 12  1  6
 12 13  1  0
 13 14  2  0
 14 15  1  0
 16 15  1  0
 17 13  1  0
 17 16  2  0
 18 26  1  0
 18 11  1  0
 19 18  2  0
 21 20  1  0
 22 21  2  0
 23 21  1  0
 25 24  1  1
 24 23  1  0
 25 26  1  0
 27 25  1  0
 28 27  2  0
 29 27  1  0
M  END
$$$$
