QHQ.pdb
     RDKit          3D

 29 29  0  0  1  0  0  0  0  0999 V2000
    9.2755  -22.5567   19.9155 N   0  0  0  0  0  0  0  0  0  0  0  0
   10.1539  -22.3937   18.7932 C   0  0  0  0  0  0  0  0  0  0  0  0
   10.8338  -23.3742   18.4661 O   0  0  0  0  0  0  0  0  0  0  0  0
   10.1515  -21.0626   18.1456 C   0  0  0  0  0  0  0  0  0  0  0  0
    9.2074  -20.1457   18.8441 C   0  0  0  0  0  0  0  0  0  0  0  0
    9.2862  -18.7312   18.4075 C   0  0  2  0  0  0  0  0  0  0  0  0
   10.3267  -18.6660   17.3541 N   0  0  0  0  0  0  0  0  0  0  0  0
    9.7218  -17.7830   19.4952 C   0  0  0  0  0  0  0  0  0  0  0  0
   10.9679  -17.5244   19.5655 O   0  0  0  0  0  0  0  0  0  0  0  0
    8.8648  -17.1817   20.4171 N   0  0  0  0  0  0  0  0  0  0  0  0
    9.3059  -16.3172   21.5241 C   0  0  1  0  0  0  0  0  0  0  0  0
    8.2341  -15.3524   21.7835 C   0  0  0  0  0  0  0  0  0  0  0  0
    8.0757  -14.2323   20.8458 C   0  0  0  0  0  0  0  0  0  0  0  0
    8.9707  -14.0949   19.7737 C   0  0  0  0  0  0  0  0  0  0  0  0
    8.6378  -13.0161   19.0592 N   0  0  0  0  0  0  0  0  0  0  0  0
    7.5517  -12.4785   19.6661 C   0  0  0  0  0  0  0  0  0  0  0  0
    7.2290  -13.2224   20.7368 N   0  0  0  0  0  0  0  0  0  0  0  0
    9.7855  -17.1400   22.6377 C   0  0  0  0  0  0  0  0  0  0  0  0
    9.1486  -18.1876   22.9206 O   0  0  0  0  0  0  0  0  0  0  0  0
   12.1661  -21.2318   22.0839 N   0  0  0  0  0  0  0  0  0  0  0  0
   12.9678  -21.1735   23.2273 C   0  0  0  0  0  0  0  0  0  0  0  0
   13.5960  -22.1773   23.6184 O   0  0  0  0  0  0  0  0  0  0  0  0
   13.0798  -19.9011   23.9949 C   0  0  0  0  0  0  0  0  0  0  0  0
   12.3508  -18.7818   23.2966 C   0  0  0  0  0  0  0  0  0  0  0  0
   11.5100  -17.9365   24.2205 C   0  0  2  0  0  0  0  0  0  0  0  0
   10.9108  -16.8475   23.4232 N   0  0  0  0  0  0  0  0  0  0  0  0
   12.2537  -17.3632   25.3597 C   0  0  0  0  0  0  0  0  0  0  0  0
   12.6238  -16.1398   25.3095 O   0  0  0  0  0  0  0  0  0  0  0  0
   12.6000  -18.0342   26.5109 O   0  0  0  0  0  0  0  0  0  0  0  0
  2  1  1  0
  3  2  2  0
  4  2  1  0
  5  4  1  0
  6  5  1  0
  6  7  1  6
  8  6  1  0
  9  8  2  0
 10  8  1  0
 11 10  1  0
 11 12  1  1
 12 13  1  0
 13 14  2  0
 14 15  1  0
 16 15  1  0
 17 13  1  0
 17 16  2  0
 18 26  1  0
 18 11  1  0
 19 18  2  0
 21 20  1  0
 22 21  2  0
 23 21  1  0
 25 24  1  6
 24 23  1  0
 25 26  1  0
 27 25  1  0
 28 27  2  0
 29 27  1  0
M  END
$$$$
