QHQ.pdb
     RDKit          3D

 29 29  0  0  1  0  0  0  0  0999 V2000
   14.2545  -17.4164   10.9163 N   0  0  0  0  0  0  0  0  0  0  0  0
   13.0796  -16.6360   10.6555 C   0  0  0  0  0  0  0  0  0  0  0  0
   13.0038  -16.0891    9.5484 O   0  0  0  0  0  0  0  0  0  0  0  0
   12.0806  -16.5691   11.7458 C   0  0  0  0  0  0  0  0  0  0  0  0
   12.6918  -15.9945   12.9772 C   0  0  0  0  0  0  0  0  0  0  0  0
   12.3385  -16.7051   14.2293 C   0  0  2  0  0  0  0  0  0  0  0  0
   11.1265  -17.5071   13.9386 N   0  0  0  0  0  0  0  0  0  0  0  0
   11.9777  -15.7862   15.3684 C   0  0  0  0  0  0  0  0  0  0  0  0
   12.8821  -14.9795   15.7630 O   0  0  0  0  0  0  0  0  0  0  0  0
   10.7395  -15.7629   16.0106 N   0  0  0  0  0  0  0  0  0  0  0  0
   10.4181  -14.9144   17.1699 C   0  0  1  0  0  0  0  0  0  0  0  0
    8.9590  -14.8793   17.2989 C   0  0  0  0  0  0  0  0  0  0  0  0
    8.3834  -14.0579   18.3728 C   0  0  0  0  0  0  0  0  0  0  0  0
    9.2338  -13.3328   19.2214 C   0  0  0  0  0  0  0  0  0  0  0  0
    8.4978  -12.6647   20.1142 N   0  0  0  0  0  0  0  0  0  0  0  0
    7.2042  -12.9600   19.8377 C   0  0  0  0  0  0  0  0  0  0  0  0
    7.1555  -13.7978   18.7890 N   0  0  0  0  0  0  0  0  0  0  0  0
   11.2089  -15.3352   18.3295 C   0  0  0  0  0  0  0  0  0  0  0  0
   11.4184  -16.5652   18.4918 O   0  0  0  0  0  0  0  0  0  0  0  0
   16.3534  -13.8883   19.2044 N   0  0  0  0  0  0  0  0  0  0  0  0
   16.3141  -14.3376   20.5273 C   0  0  0  0  0  0  0  0  0  0  0  0
   17.3639  -14.6286   21.1342 O   0  0  0  0  0  0  0  0  0  0  0  0
   15.0067  -14.4740   21.2294 C   0  0  0  0  0  0  0  0  0  0  0  0
   13.8714  -14.0069   20.3550 C   0  0  0  0  0  0  0  0  0  0  0  0
   12.7464  -15.0047   20.2375 C   0  0  2  0  0  0  0  0  0  0  0  0
   11.7558  -14.4648   19.2846 N   0  0  0  0  0  0  0  0  0  0  0  0
   12.0807  -15.3187   21.5173 C   0  0  0  0  0  0  0  0  0  0  0  0
   12.6941  -16.0391   22.3781 O   0  0  0  0  0  0  0  0  0  0  0  0
   10.8241  -14.8993   21.8919 O   0  0  0  0  0  0  0  0  0  0  0  0
  2  1  1  0
  3  2  2  0
  4  2  1  0
  5  4  1  0
  6  5  1  0
  6  7  1  6
  8  6  1  0
  9  8  2  0
 10  8  1  0
 11 10  1  0
 11 12  1  1
 12 13  1  0
 13 14  2  0
 14 15  1  0
 16 15  1  0
 17 13  1  0
 17 16  2  0
 18 26  1  0
 18 11  1  0
 19 18  2  0
 21 20  1  0
 22 21  2  0
 23 21  1  0
 25 24  1  1
 24 23  1  0
 25 26  1  0
 27 25  1  0
 28 27  2  0
 29 27  1  0
M  END
$$$$
