QHQ.pdb
     RDKit          3D

 29 29  0  0  1  0  0  0  0  0999 V2000
   17.3355  -15.5849   20.9824 N   0  0  0  0  0  0  0  0  0  0  0  0
   17.2751  -16.2259   19.7006 C   0  0  0  0  0  0  0  0  0  0  0  0
   18.2944  -16.8142   19.3191 O   0  0  0  0  0  0  0  0  0  0  0  0
   15.9928  -16.1126   18.9698 C   0  0  0  0  0  0  0  0  0  0  0  0
   15.0198  -15.2968   19.7493 C   0  0  0  0  0  0  0  0  0  0  0  0
   13.6639  -15.2210   19.1548 C   0  0  2  0  0  0  0  0  0  0  0  0
   13.7144  -14.1748   18.1063 N   0  0  0  0  0  0  0  0  0  0  0  0
   12.5959  -14.7956   20.1296 C   0  0  0  0  0  0  0  0  0  0  0  0
   12.7735  -13.6829   20.7252 O   0  0  0  0  0  0  0  0  0  0  0  0
   11.4456  -15.5293   20.4202 N   0  0  0  0  0  0  0  0  0  0  0  0
   10.4337  -15.1335   21.4135 C   0  0  1  0  0  0  0  0  0  0  0  0
    9.1214  -15.5034   20.8768 C   0  0  0  0  0  0  0  0  0  0  0  0
    8.5105  -14.6131   19.8802 C   0  0  0  0  0  0  0  0  0  0  0  0
    9.2128  -13.4804   19.4408 C   0  0  0  0  0  0  0  0  0  0  0  0
    8.4712  -12.8247   18.5434 N   0  0  0  0  0  0  0  0  0  0  0  0
    7.3196  -13.5279   18.4153 C   0  0  0  0  0  0  0  0  0  0  0  0
    7.3616  -14.5982   19.2257 N   0  0  0  0  0  0  0  0  0  0  0  0
   10.8111  -15.6374   22.7367 C   0  0  0  0  0  0  0  0  0  0  0  0
   11.6447  -16.5777   22.7995 O   0  0  0  0  0  0  0  0  0  0  0  0
    9.4775  -15.2359   29.8698 N   0  0  0  0  0  0  0  0  0  0  0  0
   10.1461  -14.6280   28.8036 C   0  0  0  0  0  0  0  0  0  0  0  0
   10.2758  -13.3887   28.7546 O   0  0  0  0  0  0  0  0  0  0  0  0
   10.7144  -15.4625   27.7074 C   0  0  0  0  0  0  0  0  0  0  0  0
   10.3268  -14.9183   26.3564 C   0  0  0  0  0  0  0  0  0  0  0  0
   10.7638  -15.7880   25.2042 C   0  0  2  0  0  0  0  0  0  0  0  0
   10.3092  -15.1494   23.9527 N   0  0  0  0  0  0  0  0  0  0  0  0
   10.2554  -17.1727   25.2652 C   0  0  0  0  0  0  0  0  0  0  0  0
    9.1912  -17.4743   24.6229 O   0  0  0  0  0  0  0  0  0  0  0  0
   10.8310  -18.2084   25.9661 O   0  0  0  0  0  0  0  0  0  0  0  0
  2  1  1  0
  3  2  2  0
  4  2  1  0
  5  4  1  0
  6  5  1  0
  6  7  1  6
  8  6  1  0
  9  8  2  0
 10  8  1  0
 11 10  1  0
 11 12  1  6
 12 13  1  0
 13 14  2  0
 14 15  1  0
 16 15  1  0
 17 13  1  0
 17 16  2  0
 18 26  1  0
 18 11  1  0
 19 18  2  0
 21 20  1  0
 22 21  2  0
 23 21  1  0
 25 24  1  1
 24 23  1  0
 25 26  1  0
 27 25  1  0
 28 27  2  0
 29 27  1  0
M  END
$$$$
