QHQ.pdb
     RDKit          3D

 29 29  0  0  1  0  0  0  0  0999 V2000
   13.2062  -19.7263   16.5121 N   0  0  0  0  0  0  0  0  0  0  0  0
   14.1479  -18.8044   15.9455 C   0  0  0  0  0  0  0  0  0  0  0  0
   15.1009  -19.2881   15.3224 O   0  0  0  0  0  0  0  0  0  0  0  0
   13.8753  -17.3668   16.1697 C   0  0  0  0  0  0  0  0  0  0  0  0
   12.4958  -17.0229   15.7242 C   0  0  0  0  0  0  0  0  0  0  0  0
   12.1322  -15.5956   15.8923 C   0  0  2  0  0  0  0  0  0  0  0  0
   13.1646  -14.8046   15.1815 N   0  0  0  0  0  0  0  0  0  0  0  0
   12.1500  -15.1287   17.3253 C   0  0  0  0  0  0  0  0  0  0  0  0
   13.1268  -14.3886   17.6753 O   0  0  0  0  0  0  0  0  0  0  0  0
   11.1844  -15.4506   18.2793 N   0  0  0  0  0  0  0  0  0  0  0  0
   11.1845  -14.9541   19.6653 C   0  0  1  0  0  0  0  0  0  0  0  0
    9.8048  -15.0147   20.1548 C   0  0  0  0  0  0  0  0  0  0  0  0
    8.7971  -14.1896   19.4745 C   0  0  0  0  0  0  0  0  0  0  0  0
    8.7351  -12.8132   19.7402 C   0  0  0  0  0  0  0  0  0  0  0  0
    7.7525  -12.2699   19.0159 N   0  0  0  0  0  0  0  0  0  0  0  0
    7.2008  -13.2825   18.3036 C   0  0  0  0  0  0  0  0  0  0  0  0
    7.8412  -14.4273   18.5922 N   0  0  0  0  0  0  0  0  0  0  0  0
   12.2271  -15.6346   20.4378 C   0  0  0  0  0  0  0  0  0  0  0  0
   12.3683  -16.8752   20.2827 O   0  0  0  0  0  0  0  0  0  0  0  0
   19.1534  -15.3569   21.5415 N   0  0  0  0  0  0  0  0  0  0  0  0
   17.9337  -14.7916   21.9241 C   0  0  0  0  0  0  0  0  0  0  0  0
   17.8279  -13.5619   22.1021 O   0  0  0  0  0  0  0  0  0  0  0  0
   16.7398  -15.6607   22.1242 C   0  0  0  0  0  0  0  0  0  0  0  0
   15.4851  -14.9749   21.6476 C   0  0  0  0  0  0  0  0  0  0  0  0
   14.2294  -15.7770   21.8816 C   0  0  2  0  0  0  0  0  0  0  0  0
   13.0891  -15.0048   21.3485 N   0  0  0  0  0  0  0  0  0  0  0  0
   13.9807  -16.1113   23.2979 C   0  0  0  0  0  0  0  0  0  0  0  0
   13.0489  -15.5016   23.9274 O   0  0  0  0  0  0  0  0  0  0  0  0
   14.6725  -17.0458   24.0350 O   0  0  0  0  0  0  0  0  0  0  0  0
  2  1  1  0
  3  2  2  0
  4  2  1  0
  5  4  1  0
  6  5  1  0
  6  7  1  6
  8  6  1  0
  9  8  2  0
 10  8  1  0
 11 10  1  0
 11 12  1  1
 12 13  1  0
 13 14  2  0
 14 15  1  0
 16 15  1  0
 17 13  1  0
 17 16  2  0
 18 26  1  0
 18 11  1  0
 19 18  2  0
 21 20  1  0
 22 21  2  0
 23 21  1  0
 25 24  1  1
 24 23  1  0
 25 26  1  0
 27 25  1  0
 28 27  2  0
 29 27  1  0
M  END
$$$$
