QHQ.pdb
     RDKit          3D

 29 29  0  0  1  0  0  0  0  0999 V2000
   12.1570  -15.3743   16.0267 N   0  0  0  0  0  0  0  0  0  0  0  0
   13.3283  -14.9821   16.7559 C   0  0  0  0  0  0  0  0  0  0  0  0
   14.4188  -15.1431   16.1942 O   0  0  0  0  0  0  0  0  0  0  0  0
   13.1034  -14.4249   18.1087 C   0  0  0  0  0  0  0  0  0  0  0  0
   14.2122  -14.8162   19.0238 C   0  0  0  0  0  0  0  0  0  0  0  0
   13.8143  -15.7381   20.1144 C   0  0  2  0  0  0  0  0  0  0  0  0
   13.3417  -16.9857   19.4689 N   0  0  0  0  0  0  0  0  0  0  0  0
   12.6676  -15.2308   20.9508 C   0  0  0  0  0  0  0  0  0  0  0  0
   12.8754  -14.1697   21.6256 O   0  0  0  0  0  0  0  0  0  0  0  0
   11.4147  -15.8383   21.0357 N   0  0  0  0  0  0  0  0  0  0  0  0
   10.3145  -15.3630   21.8908 C   0  0  1  0  0  0  0  0  0  0  0  0
    9.0579  -15.6687   21.2022 C   0  0  0  0  0  0  0  0  0  0  0  0
    8.6367  -14.7776   20.1125 C   0  0  0  0  0  0  0  0  0  0  0  0
    9.4751  -13.7244   19.7161 C   0  0  0  0  0  0  0  0  0  0  0  0
    8.8940  -13.0523   18.7182 N   0  0  0  0  0  0  0  0  0  0  0  0
    7.7088  -13.6672   18.4852 C   0  0  0  0  0  0  0  0  0  0  0  0
    7.5720  -14.7008   19.3320 N   0  0  0  0  0  0  0  0  0  0  0  0
   10.4969  -15.8581   23.2578 C   0  0  0  0  0  0  0  0  0  0  0  0
   11.3345  -16.7770   23.4508 O   0  0  0  0  0  0  0  0  0  0  0  0
   10.2194  -13.0900   28.6621 N   0  0  0  0  0  0  0  0  0  0  0  0
   10.1712  -14.4126   29.1112 C   0  0  0  0  0  0  0  0  0  0  0  0
   10.4222  -14.6927   30.3002 O   0  0  0  0  0  0  0  0  0  0  0  0
    9.8166  -15.5083   28.1653 C   0  0  0  0  0  0  0  0  0  0  0  0
    9.6754  -14.9848   26.7590 C   0  0  0  0  0  0  0  0  0  0  0  0
   10.1301  -15.9589   25.7010 C   0  0  2  0  0  0  0  0  0  0  0  0
    9.8019  -15.3841   24.3808 N   0  0  0  0  0  0  0  0  0  0  0  0
    9.5294  -17.3024   25.8179 C   0  0  0  0  0  0  0  0  0  0  0  0
    8.4965  -17.5859   25.1187 O   0  0  0  0  0  0  0  0  0  0  0  0
    9.9846  -18.3167   26.6299 O   0  0  0  0  0  0  0  0  0  0  0  0
  2  1  1  0
  3  2  2  0
  4  2  1  0
  5  4  1  0
  6  5  1  0
  6  7  1  6
  8  6  1  0
  9  8  2  0
 10  8  1  0
 11 10  1  0
 11 12  1  6
 12 13  1  0
 13 14  2  0
 14 15  1  0
 16 15  1  0
 17 13  1  0
 17 16  2  0
 18 26  1  0
 18 11  1  0
 19 18  2  0
 21 20  1  0
 22 21  2  0
 23 21  1  0
 25 24  1  1
 24 23  1  0
 25 26  1  0
 27 25  1  0
 28 27  2  0
 29 27  1  0
M  END
$$$$
