QHQ.pdb
     RDKit          3D

 29 29  0  0  1  0  0  0  0  0999 V2000
   15.5484  -17.2409   19.4992 N   0  0  0  0  0  0  0  0  0  0  0  0
   15.4956  -16.2636   18.4505 C   0  0  0  0  0  0  0  0  0  0  0  0
   16.4231  -16.2688   17.6318 O   0  0  0  0  0  0  0  0  0  0  0  0
   14.3310  -15.3500   18.4626 C   0  0  0  0  0  0  0  0  0  0  0  0
   13.3982  -15.7104   19.5671 C   0  0  0  0  0  0  0  0  0  0  0  0
   11.9954  -15.2813   19.3532 C   0  0  2  0  0  0  0  0  0  0  0  0
   12.0431  -14.0790   18.4879 N   0  0  0  0  0  0  0  0  0  0  0  0
   11.2871  -14.8677   20.6178 C   0  0  0  0  0  0  0  0  0  0  0  0
   11.8341  -13.9448   21.3059 O   0  0  0  0  0  0  0  0  0  0  0  0
   10.0927  -15.4217   21.0786 N   0  0  0  0  0  0  0  0  0  0  0  0
    9.4458  -15.0657   22.3523 C   0  0  1  0  0  0  0  0  0  0  0  0
    8.0270  -15.4132   22.2379 C   0  0  0  0  0  0  0  0  0  0  0  0
    7.1775  -15.2333   23.4232 C   0  0  0  0  0  0  0  0  0  0  0  0
    7.6055  -14.3905   24.4604 C   0  0  0  0  0  0  0  0  0  0  0  0
    6.6822  -14.3789   25.4261 N   0  0  0  0  0  0  0  0  0  0  0  0
    5.6865  -15.1989   25.0099 C   0  0  0  0  0  0  0  0  0  0  0  0
    6.0018  -15.7026   23.8054 N   0  0  0  0  0  0  0  0  0  0  0  0
   10.2102  -15.6223   23.4716 C   0  0  0  0  0  0  0  0  0  0  0  0
   10.8862  -16.6643   23.2704 O   0  0  0  0  0  0  0  0  0  0  0  0
   11.0763  -13.5215   29.3722 N   0  0  0  0  0  0  0  0  0  0  0  0
   11.3874  -14.8776   29.5057 C   0  0  0  0  0  0  0  0  0  0  0  0
   11.6456  -15.3663   30.6236 O   0  0  0  0  0  0  0  0  0  0  0  0
   11.4135  -15.7580   28.3036 C   0  0  0  0  0  0  0  0  0  0  0  0
   10.9166  -15.0242   27.0844 C   0  0  0  0  0  0  0  0  0  0  0  0
   10.8699  -15.8766   25.8409 C   0  0  2  0  0  0  0  0  0  0  0  0
   10.2468  -15.0797   24.7651 N   0  0  0  0  0  0  0  0  0  0  0  0
   10.1340  -17.1458   26.0052 C   0  0  0  0  0  0  0  0  0  0  0  0
    8.9035  -17.2014   25.6605 O   0  0  0  0  0  0  0  0  0  0  0  0
   10.6560  -18.3165   26.5077 O   0  0  0  0  0  0  0  0  0  0  0  0
  2  1  1  0
  3  2  2  0
  4  2  1  0
  5  4  1  0
  6  5  1  0
  6  7  1  6
  8  6  1  0
  9  8  2  0
 10  8  1  0
 11 10  1  0
 11 12  1  6
 12 13  1  0
 13 14  2  0
 14 15  1  0
 16 15  1  0
 17 13  1  0
 17 16  2  0
 18 26  1  0
 18 11  1  0
 19 18  2  0
 21 20  1  0
 22 21  2  0
 23 21  1  0
 25 24  1  1
 24 23  1  0
 25 26  1  0
 27 25  1  0
 28 27  2  0
 29 27  1  0
M  END
$$$$
