QHQ.pdb
     RDKit          3D

 29 29  0  0  1  0  0  0  0  0999 V2000
   14.7821  -14.8765   10.9700 N   0  0  0  0  0  0  0  0  0  0  0  0
   13.5150  -15.2564   10.4153 C   0  0  0  0  0  0  0  0  0  0  0  0
   13.5043  -15.6061    9.2286 O   0  0  0  0  0  0  0  0  0  0  0  0
   12.3517  -15.1876   11.3281 C   0  0  0  0  0  0  0  0  0  0  0  0
   12.7774  -14.7289   12.6802 C   0  0  0  0  0  0  0  0  0  0  0  0
   12.7016  -15.7675   13.7352 C   0  0  2  0  0  0  0  0  0  0  0  0
   11.4555  -16.5326   13.4934 N   0  0  0  0  0  0  0  0  0  0  0  0
   12.5941  -15.2090   15.1311 C   0  0  0  0  0  0  0  0  0  0  0  0
   13.5464  -14.4582   15.5232 O   0  0  0  0  0  0  0  0  0  0  0  0
   11.5390  -15.4582   16.0089 N   0  0  0  0  0  0  0  0  0  0  0  0
   11.4765  -14.9699   17.3964 C   0  0  1  0  0  0  0  0  0  0  0  0
   10.0837  -15.0774   17.8387 C   0  0  0  0  0  0  0  0  0  0  0  0
    9.7809  -14.7563   19.2402 C   0  0  0  0  0  0  0  0  0  0  0  0
   10.8137  -14.3394   20.0938 C   0  0  0  0  0  0  0  0  0  0  0  0
   10.3109  -14.1043   21.3092 N   0  0  0  0  0  0  0  0  0  0  0  0
    8.9837  -14.3671   21.2289 C   0  0  0  0  0  0  0  0  0  0  0  0
    8.6842  -14.7571   19.9791 N   0  0  0  0  0  0  0  0  0  0  0  0
   12.5139  -15.6208   18.2006 C   0  0  0  0  0  0  0  0  0  0  0  0
   12.7636  -16.8342   17.9801 O   0  0  0  0  0  0  0  0  0  0  0  0
   18.6679  -13.9812   20.1323 N   0  0  0  0  0  0  0  0  0  0  0  0
   17.4895  -13.6797   19.4438 C   0  0  0  0  0  0  0  0  0  0  0  0
   17.5244  -13.0837   18.3490 O   0  0  0  0  0  0  0  0  0  0  0  0
   16.1707  -14.0709   20.0170 C   0  0  0  0  0  0  0  0  0  0  0  0
   15.6453  -15.3222   19.3613 C   0  0  0  0  0  0  0  0  0  0  0  0
   14.3080  -15.7710   19.8954 C   0  0  2  0  0  0  0  0  0  0  0  0
   13.2581  -14.9911   19.2098 N   0  0  0  0  0  0  0  0  0  0  0  0
   14.1597  -15.6216   21.3567 C   0  0  0  0  0  0  0  0  0  0  0  0
   13.4246  -16.4505   21.9961 O   0  0  0  0  0  0  0  0  0  0  0  0
   14.7538  -14.6481   22.1279 O   0  0  0  0  0  0  0  0  0  0  0  0
  2  1  1  0
  3  2  2  0
  4  2  1  0
  5  4  1  0
  6  5  1  0
  6  7  1  6
  8  6  1  0
  9  8  2  0
 10  8  1  0
 11 10  1  0
 11 12  1  1
 12 13  1  0
 13 14  2  0
 14 15  1  0
 16 15  1  0
 17 13  1  0
 17 16  2  0
 18 26  1  0
 18 11  1  0
 19 18  2  0
 21 20  1  0
 22 21  2  0
 23 21  1  0
 25 24  1  6
 24 23  1  0
 25 26  1  0
 27 25  1  0
 28 27  2  0
 29 27  1  0
M  END
$$$$
