QFN.pdb
     RDKit          3D

 29 29  0  0  1  0  0  0  0  0999 V2000
    8.6941  -12.3589   17.3910 N   0  0  0  0  0  0  0  0  0  0  0  0
    8.3283  -13.7234   17.1326 C   0  0  0  0  0  0  0  0  0  0  0  0
    8.2434  -14.0031   15.8951 O   0  0  0  0  0  0  0  0  0  0  0  0
    8.0818  -14.6718   18.2080 C   0  0  0  0  0  0  0  0  0  0  0  0
    9.2156  -15.4766   18.7161 C   0  0  0  0  0  0  0  0  0  0  0  0
    8.9441  -16.3854   19.8590 C   0  0  2  0  0  0  0  0  0  0  0  0
    7.7259  -17.1239   19.8439 N   0  0  0  0  0  0  0  0  0  0  0  0
    9.0587  -15.7488   21.1951 C   0  0  0  0  0  0  0  0  0  0  0  0
   10.1818  -15.3199   21.5559 O   0  0  0  0  0  0  0  0  0  0  0  0
    7.9344  -15.6329   22.0370 N   0  0  0  0  0  0  0  0  0  0  0  0
    7.9969  -15.0150   23.3541 C   0  0  1  0  0  0  0  0  0  0  0  0
    6.7864  -14.2128   23.6749 C   0  0  0  0  0  0  0  0  0  0  0  0
    6.9341  -13.5515   25.0237 C   0  0  0  0  0  0  0  0  0  0  0  0
    7.7978  -12.4915   25.1226 C   0  0  0  0  0  0  0  0  0  0  0  0
    8.0015  -11.8282   26.3347 C   0  0  0  0  0  0  0  0  0  0  0  0
    7.3344  -12.2303   27.4631 C   0  0  0  0  0  0  0  0  0  0  0  0
    6.4577  -13.3136   27.3415 C   0  0  0  0  0  0  0  0  0  0  0  0
    6.2561  -13.9719   26.1323 C   0  0  0  0  0  0  0  0  0  0  0  0
    8.3951  -16.0031   24.3609 C   0  0  0  0  0  0  0  0  0  0  0  0
    7.7259  -17.1027   24.4253 O   0  0  0  0  0  0  0  0  0  0  0  0
   12.9631  -18.6401   26.7799 N   0  0  0  0  0  0  0  0  0  0  0  0
   11.6553  -18.7408   26.1749 C   0  0  0  0  0  0  0  0  0  0  0  0
   11.0498  -19.8163   26.3742 O   0  0  0  0  0  0  0  0  0  0  0  0
   11.1029  -17.6381   25.3834 C   0  0  0  0  0  0  0  0  0  0  0  0
    9.8981  -17.0250   26.0465 C   0  0  2  0  0  0  0  0  0  0  0  0
    9.4479  -15.8602   25.2684 N   0  0  0  0  0  0  0  0  0  0  0  0
   10.2234  -16.5450   27.4336 C   0  0  0  0  0  0  0  0  0  0  0  0
   10.0131  -17.3892   28.5399 O   0  0  0  0  0  0  0  0  0  0  0  0
   10.6808  -15.4247   27.7066 O   0  0  0  0  0  0  0  0  0  0  0  0
  2  1  1  0
  2  3  2  0
  4  2  1  0
  5  6  1  0
  5  4  1  0
  6  7  1  6
  8  6  1  0
  8  9  2  0
 10  8  1  0
 11 10  1  0
 12 13  1  0
 11 12  1  1
 13 14  2  0
 13 18  1  0
 14 15  1  0
 15 16  2  0
 17 16  1  0
 18 17  2  0
 19 11  1  0
 20 19  2  0
 21 22  1  0
 22 23  2  0
 24 22  1  0
 25 24  1  6
 25 26  1  0
 26 19  1  0
 27 25  1  0
 28 27  1  0
 29 27  2  0
M  END
$$$$
