QFN.pdb
     RDKit          3D

 29 29  0  0  1  0  0  0  0  0999 V2000
    8.6748  -13.3272   15.6612 N   0  0  0  0  0  0  0  0  0  0  0  0
    8.2864  -14.4779   16.4278 C   0  0  0  0  0  0  0  0  0  0  0  0
    8.2595  -15.5551   15.7527 O   0  0  0  0  0  0  0  0  0  0  0  0
    7.9577  -14.3862   17.8421 C   0  0  0  0  0  0  0  0  0  0  0  0
    9.0636  -14.2893   18.8213 C   0  0  0  0  0  0  0  0  0  0  0  0
    9.0614  -15.2599   19.9455 C   0  0  2  0  0  0  0  0  0  0  0  0
    8.0228  -16.2345   19.9778 N   0  0  0  0  0  0  0  0  0  0  0  0
    9.1313  -14.6432   21.2940 C   0  0  0  0  0  0  0  0  0  0  0  0
   10.0408  -13.8085   21.5206 O   0  0  0  0  0  0  0  0  0  0  0  0
    8.2009  -14.9901   22.2941 N   0  0  0  0  0  0  0  0  0  0  0  0
    8.1323  -14.3059   23.5777 C   0  0  1  0  0  0  0  0  0  0  0  0
    6.7516  -13.8852   23.9361 C   0  0  0  0  0  0  0  0  0  0  0  0
    6.7610  -13.0742   25.2091 C   0  0  0  0  0  0  0  0  0  0  0  0
    7.2885  -11.8100   25.1554 C   0  0  0  0  0  0  0  0  0  0  0  0
    7.3452  -10.9953   26.2884 C   0  0  0  0  0  0  0  0  0  0  0  0
    6.8696  -11.4504   27.4913 C   0  0  0  0  0  0  0  0  0  0  0  0
    6.3354  -12.7428   27.5253 C   0  0  0  0  0  0  0  0  0  0  0  0
    6.2795  -13.5519   26.3946 C   0  0  0  0  0  0  0  0  0  0  0  0
    8.8545  -15.0690   24.5998 C   0  0  0  0  0  0  0  0  0  0  0  0
    8.3662  -15.0934   25.7924 O   0  0  0  0  0  0  0  0  0  0  0  0
   10.6286  -19.3628   26.5892 N   0  0  0  0  0  0  0  0  0  0  0  0
    9.5161  -19.2595   25.6735 C   0  0  0  0  0  0  0  0  0  0  0  0
    8.8199  -20.2907   25.5516 O   0  0  0  0  0  0  0  0  0  0  0  0
    9.2485  -18.0145   24.9484 C   0  0  0  0  0  0  0  0  0  0  0  0
   10.3122  -16.9802   25.2056 C   0  0  2  0  0  0  0  0  0  0  0  0
   10.0388  -15.7820   24.3965 N   0  0  0  0  0  0  0  0  0  0  0  0
   11.6729  -17.4882   24.8175 C   0  0  0  0  0  0  0  0  0  0  0  0
   12.3953  -18.3145   25.6985 O   0  0  0  0  0  0  0  0  0  0  0  0
   12.2440  -17.2365   23.7455 O   0  0  0  0  0  0  0  0  0  0  0  0
  2  1  1  0
  2  3  2  0
  4  2  1  0
  5  6  1  0
  5  4  1  0
  6  7  1  1
  8  6  1  0
  8  9  2  0
 10  8  1  0
 11 10  1  0
 12 13  1  0
 11 12  1  1
 13 14  2  0
 13 18  1  0
 14 15  1  0
 15 16  2  0
 17 16  1  0
 18 17  2  0
 19 11  1  0
 20 19  2  0
 21 22  1  0
 22 23  2  0
 24 22  1  0
 25 24  1  6
 25 26  1  0
 26 19  1  0
 27 25  1  0
 28 27  1  0
 29 27  2  0
M  END
$$$$
