QFN.pdb
     RDKit          3D

 29 29  0  0  1  0  0  0  0  0999 V2000
    8.1982  -13.9727   16.7627 N   0  0  0  0  0  0  0  0  0  0  0  0
    7.9623  -13.1530   17.9181 C   0  0  0  0  0  0  0  0  0  0  0  0
    8.0499  -11.9060   17.6852 O   0  0  0  0  0  0  0  0  0  0  0  0
    7.6572  -13.7261   19.2200 C   0  0  0  0  0  0  0  0  0  0  0  0
    8.7773  -14.1868   20.0710 C   0  0  0  0  0  0  0  0  0  0  0  0
    8.5426  -15.3906   20.9086 C   0  0  2  0  0  0  0  0  0  0  0  0
    7.2351  -15.9565   20.9042 N   0  0  0  0  0  0  0  0  0  0  0  0
    8.9575  -15.2469   22.3266 C   0  0  0  0  0  0  0  0  0  0  0  0
   10.0579  -14.6955   22.5721 O   0  0  0  0  0  0  0  0  0  0  0  0
    8.1365  -15.7214   23.3693 N   0  0  0  0  0  0  0  0  0  0  0  0
    8.4625  -15.5339   24.7761 C   0  0  1  0  0  0  0  0  0  0  0  0
    7.2664  -15.2566   25.6152 C   0  0  0  0  0  0  0  0  0  0  0  0
    7.1937  -13.7891   25.9613 C   0  0  0  0  0  0  0  0  0  0  0  0
    6.0219  -13.1290   25.6956 C   0  0  0  0  0  0  0  0  0  0  0  0
    5.8721  -11.7688   25.9755 C   0  0  0  0  0  0  0  0  0  0  0  0
    6.9074  -11.0588   26.5269 C   0  0  0  0  0  0  0  0  0  0  0  0
    8.0945  -11.7503   26.7904 C   0  0  0  0  0  0  0  0  0  0  0  0
    8.2404  -13.1056   26.5113 C   0  0  0  0  0  0  0  0  0  0  0  0
    9.3359  -16.6141   25.2439 C   0  0  0  0  0  0  0  0  0  0  0  0
    9.5391  -16.7199   26.5122 O   0  0  0  0  0  0  0  0  0  0  0  0
   12.4755  -18.8035   22.6649 N   0  0  0  0  0  0  0  0  0  0  0  0
   11.2168  -19.5015   22.7890 C   0  0  0  0  0  0  0  0  0  0  0  0
   10.6394  -19.7684   21.7127 O   0  0  0  0  0  0  0  0  0  0  0  0
   10.6777  -19.8575   24.1043 C   0  0  0  0  0  0  0  0  0  0  0  0
   10.6868  -18.6832   25.0467 C   0  0  2  0  0  0  0  0  0  0  0  0
    9.9763  -17.5520   24.4298 N   0  0  0  0  0  0  0  0  0  0  0  0
   12.0898  -18.2305   25.3416 C   0  0  0  0  0  0  0  0  0  0  0  0
   12.9648  -19.0669   26.0596 O   0  0  0  0  0  0  0  0  0  0  0  0
   12.5701  -17.1404   24.9955 O   0  0  0  0  0  0  0  0  0  0  0  0
  2  1  1  0
  2  3  2  0
  4  2  1  0
  5  6  1  0
  5  4  1  0
  6  7  1  1
  8  6  1  0
  8  9  2  0
 10  8  1  0
 11 10  1  0
 12 13  1  0
 11 12  1  1
 13 14  2  0
 13 18  1  0
 14 15  1  0
 15 16  2  0
 17 16  1  0
 18 17  2  0
 19 11  1  0
 20 19  2  0
 21 22  1  0
 22 23  2  0
 24 22  1  0
 25 24  1  6
 25 26  1  0
 26 19  1  0
 27 25  1  0
 28 27  1  0
 29 27  2  0
M  END
$$$$
