QFN.pdb
     RDKit          3D

 29 29  0  0  1  0  0  0  0  0999 V2000
    8.5321  -12.8413   16.4878 N   0  0  0  0  0  0  0  0  0  0  0  0
    8.2554  -14.2421   16.3337 C   0  0  0  0  0  0  0  0  0  0  0  0
    7.7950  -14.5481   15.1885 O   0  0  0  0  0  0  0  0  0  0  0  0
    8.4878  -15.1960   17.4073 C   0  0  0  0  0  0  0  0  0  0  0  0
    9.0005  -14.6938   18.7020 C   0  0  0  0  0  0  0  0  0  0  0  0
    9.1091  -15.6721   19.8142 C   0  0  2  0  0  0  0  0  0  0  0  0
    8.1400  -16.7144   19.8772 N   0  0  0  0  0  0  0  0  0  0  0  0
    9.1930  -15.0639   21.1657 C   0  0  0  0  0  0  0  0  0  0  0  0
   10.0329  -14.1509   21.3567 O   0  0  0  0  0  0  0  0  0  0  0  0
    8.3523  -15.5042   22.2076 N   0  0  0  0  0  0  0  0  0  0  0  0
    8.1861  -14.7654   23.4514 C   0  0  1  0  0  0  0  0  0  0  0  0
    6.8934  -14.0334   23.5212 C   0  0  0  0  0  0  0  0  0  0  0  0
    6.8262  -13.2005   24.7782 C   0  0  0  0  0  0  0  0  0  0  0  0
    7.5054  -12.0097   24.7907 C   0  0  0  0  0  0  0  0  0  0  0  0
    7.5043  -11.1819   25.9157 C   0  0  0  0  0  0  0  0  0  0  0  0
    6.8165  -11.5496   27.0434 C   0  0  0  0  0  0  0  0  0  0  0  0
    6.1300  -12.7680   27.0107 C   0  0  0  0  0  0  0  0  0  0  0  0
    6.1321  -13.5901   25.8881 C   0  0  0  0  0  0  0  0  0  0  0  0
    8.4984  -15.6234   24.5980 C   0  0  0  0  0  0  0  0  0  0  0  0
    8.6587  -15.0614   25.7467 O   0  0  0  0  0  0  0  0  0  0  0  0
   12.6784  -18.7906   23.4483 N   0  0  0  0  0  0  0  0  0  0  0  0
   12.2986  -17.4859   23.9385 C   0  0  0  0  0  0  0  0  0  0  0  0
   13.2019  -16.8421   24.5150 O   0  0  0  0  0  0  0  0  0  0  0  0
   10.9354  -16.9794   23.7580 C   0  0  0  0  0  0  0  0  0  0  0  0
    9.9729  -17.6118   24.7281 C   0  0  2  0  0  0  0  0  0  0  0  0
    8.6396  -17.0130   24.5589 N   0  0  0  0  0  0  0  0  0  0  0  0
   10.3981  -17.3768   26.1508 C   0  0  0  0  0  0  0  0  0  0  0  0
    9.6986  -16.4562   26.9534 O   0  0  0  0  0  0  0  0  0  0  0  0
   11.3499  -17.9439   26.7088 O   0  0  0  0  0  0  0  0  0  0  0  0
  2  1  1  0
  2  3  2  0
  4  2  1  0
  5  6  1  0
  5  4  1  0
  6  7  1  1
  8  6  1  0
  8  9  2  0
 10  8  1  0
 11 10  1  0
 12 13  1  0
 11 12  1  1
 13 14  2  0
 13 18  1  0
 14 15  1  0
 15 16  2  0
 17 16  1  0
 18 17  2  0
 19 11  1  0
 20 19  2  0
 21 22  1  0
 22 23  2  0
 24 22  1  0
 25 24  1  6
 25 26  1  0
 26 19  1  0
 27 25  1  0
 28 27  1  0
 29 27  2  0
M  END
$$$$
