QFN.pdb
     RDKit          3D

 29 29  0  0  1  0  0  0  0  0999 V2000
   11.4162  -16.0918   12.9838 N   0  0  0  0  0  0  0  0  0  0  0  0
   10.0260  -16.2831   13.2894 C   0  0  0  0  0  0  0  0  0  0  0  0
    9.3245  -16.6203   12.2838 O   0  0  0  0  0  0  0  0  0  0  0  0
    9.4999  -16.0978   14.6331 C   0  0  0  0  0  0  0  0  0  0  0  0
   10.4199  -15.6338   15.6959 C   0  0  0  0  0  0  0  0  0  0  0  0
   10.4815  -16.4419   16.9405 C   0  0  2  0  0  0  0  0  0  0  0  0
    9.3091  -17.1526   17.3280 N   0  0  0  0  0  0  0  0  0  0  0  0
   10.9653  -15.7029   18.1335 C   0  0  0  0  0  0  0  0  0  0  0  0
   11.9807  -14.9753   18.0119 O   0  0  0  0  0  0  0  0  0  0  0  0
   10.3017  -15.8194   19.3714 N   0  0  0  0  0  0  0  0  0  0  0  0
   10.7716  -15.1609   20.5822 C   0  0  1  0  0  0  0  0  0  0  0  0
    9.6736  -14.8532   21.5369 C   0  0  0  0  0  0  0  0  0  0  0  0
    8.7009  -13.8748   20.9245 C   0  0  0  0  0  0  0  0  0  0  0  0
    7.4330  -14.3210   20.6551 C   0  0  0  0  0  0  0  0  0  0  0  0
    6.4731  -13.4849   20.0801 C   0  0  0  0  0  0  0  0  0  0  0  0
    6.7849  -12.1864   19.7691 C   0  0  0  0  0  0  0  0  0  0  0  0
    8.0838  -11.7505   20.0517 C   0  0  0  0  0  0  0  0  0  0  0  0
    9.0376  -12.5854   20.6254 C   0  0  0  0  0  0  0  0  0  0  0  0
   11.9209  -15.8804   21.1388 C   0  0  0  0  0  0  0  0  0  0  0  0
   11.8549  -17.1660   21.2031 O   0  0  0  0  0  0  0  0  0  0  0  0
   15.8189  -14.1558   19.6307 N   0  0  0  0  0  0  0  0  0  0  0  0
   15.6182  -15.4443   20.2521 C   0  0  0  0  0  0  0  0  0  0  0  0
   15.5440  -16.4156   19.4685 O   0  0  0  0  0  0  0  0  0  0  0  0
   15.5106  -15.5716   21.7080 C   0  0  0  0  0  0  0  0  0  0  0  0
   14.1816  -16.1467   22.1204 C   0  0  2  0  0  0  0  0  0  0  0  0
   13.0969  -15.2924   21.6118 N   0  0  0  0  0  0  0  0  0  0  0  0
   14.0511  -16.2016   23.6171 C   0  0  0  0  0  0  0  0  0  0  0  0
   14.7127  -15.2525   24.4184 O   0  0  0  0  0  0  0  0  0  0  0  0
   13.3848  -17.0425   24.2399 O   0  0  0  0  0  0  0  0  0  0  0  0
  2  1  1  0
  2  3  2  0
  4  2  1  0
  5  6  1  0
  5  4  1  0
  6  7  1  1
  8  6  1  0
  8  9  2  0
 10  8  1  0
 11 10  1  0
 12 13  1  0
 11 12  1  1
 13 14  2  0
 13 18  1  0
 14 15  1  0
 15 16  2  0
 17 16  1  0
 18 17  2  0
 19 11  1  0
 20 19  2  0
 21 22  1  0
 22 23  2  0
 24 22  1  0
 25 24  1  1
 25 26  1  0
 26 19  1  0
 27 25  1  0
 28 27  1  0
 29 27  2  0
M  END
$$$$
