QFN.pdb
     RDKit          3D

 29 29  0  0  1  0  0  0  0  0999 V2000
    8.8554  -13.6146   15.4382 N   0  0  0  0  0  0  0  0  0  0  0  0
    7.8981  -14.2763   16.2798 C   0  0  0  0  0  0  0  0  0  0  0  0
    7.0144  -14.9247   15.6352 O   0  0  0  0  0  0  0  0  0  0  0  0
    7.9590  -14.1909   17.7309 C   0  0  0  0  0  0  0  0  0  0  0  0
    9.1571  -14.7188   18.4216 C   0  0  0  0  0  0  0  0  0  0  0  0
    8.9334  -15.7022   19.5120 C   0  0  2  0  0  0  0  0  0  0  0  0
    7.7368  -16.4745   19.4729 N   0  0  0  0  0  0  0  0  0  0  0  0
    9.0547  -15.1436   20.8819 C   0  0  0  0  0  0  0  0  0  0  0  0
   10.1373  -14.5997   21.2095 O   0  0  0  0  0  0  0  0  0  0  0  0
    7.9811  -15.2259   21.7914 N   0  0  0  0  0  0  0  0  0  0  0  0
    8.0791  -14.7657   23.1695 C   0  0  1  0  0  0  0  0  0  0  0  0
    6.9471  -13.8874   23.5680 C   0  0  0  0  0  0  0  0  0  0  0  0
    7.1262  -13.4079   24.9880 C   0  0  0  0  0  0  0  0  0  0  0  0
    7.9875  -12.3636   25.2041 C   0  0  0  0  0  0  0  0  0  0  0  0
    8.2192  -11.8636   26.4876 C   0  0  0  0  0  0  0  0  0  0  0  0
    7.5827  -12.4155   27.5694 C   0  0  0  0  0  0  0  0  0  0  0  0
    6.7079  -13.4801   27.3280 C   0  0  0  0  0  0  0  0  0  0  0  0
    6.4784  -13.9754   26.0481 C   0  0  0  0  0  0  0  0  0  0  0  0
    8.3598  -15.8931   24.0632 C   0  0  0  0  0  0  0  0  0  0  0  0
    7.4761  -16.8270   24.1530 O   0  0  0  0  0  0  0  0  0  0  0  0
   12.9694  -17.5121   25.3144 N   0  0  0  0  0  0  0  0  0  0  0  0
   11.8368  -17.5878   24.4210 C   0  0  0  0  0  0  0  0  0  0  0  0
   12.0029  -17.0723   23.2942 O   0  0  0  0  0  0  0  0  0  0  0  0
   10.5881  -18.2314   24.8382 C   0  0  0  0  0  0  0  0  0  0  0  0
    9.7052  -17.2868   25.6099 C   0  0  2  0  0  0  0  0  0  0  0  0
    9.5132  -16.0501   24.8361 N   0  0  0  0  0  0  0  0  0  0  0  0
   10.3289  -16.9070   26.9240 C   0  0  0  0  0  0  0  0  0  0  0  0
   10.5624  -17.8893   27.9045 O   0  0  0  0  0  0  0  0  0  0  0  0
   10.6728  -15.7575   27.2391 O   0  0  0  0  0  0  0  0  0  0  0  0
  2  1  1  0
  2  3  2  0
  4  2  1  0
  5  6  1  0
  5  4  1  0
  6  7  1  6
  8  6  1  0
  8  9  2  0
 10  8  1  0
 11 10  1  0
 12 13  1  0
 11 12  1  1
 13 14  2  0
 13 18  1  0
 14 15  1  0
 15 16  2  0
 17 16  1  0
 18 17  2  0
 19 11  1  0
 20 19  2  0
 21 22  1  0
 22 23  2  0
 24 22  1  0
 25 24  1  6
 25 26  1  0
 26 19  1  0
 27 25  1  0
 28 27  1  0
 29 27  2  0
M  END
$$$$
