QFN.pdb
     RDKit          3D

 29 29  0  0  1  0  0  0  0  0999 V2000
    9.1175  -13.1339   16.3252 N   0  0  0  0  0  0  0  0  0  0  0  0
    7.9742  -13.9256   16.6840 C   0  0  0  0  0  0  0  0  0  0  0  0
    6.9676  -13.7387   15.9299 O   0  0  0  0  0  0  0  0  0  0  0  0
    7.9964  -14.8439   17.8121 C   0  0  0  0  0  0  0  0  0  0  0  0
    9.2500  -14.9840   18.5867 C   0  0  0  0  0  0  0  0  0  0  0  0
    9.2152  -15.8675   19.7800 C   0  0  2  0  0  0  0  0  0  0  0  0
    8.2060  -16.8718   19.8319 N   0  0  0  0  0  0  0  0  0  0  0  0
    9.1925  -15.1501   21.0793 C   0  0  0  0  0  0  0  0  0  0  0  0
   10.0852  -14.2969   21.3041 O   0  0  0  0  0  0  0  0  0  0  0  0
    8.1948  -15.4239   22.0363 N   0  0  0  0  0  0  0  0  0  0  0  0
    8.1817  -14.8121   23.3577 C   0  0  1  0  0  0  0  0  0  0  0  0
    6.9038  -14.1137   23.6593 C   0  0  0  0  0  0  0  0  0  0  0  0
    7.0054  -13.3701   24.9689 C   0  0  0  0  0  0  0  0  0  0  0  0
    6.0526  -13.6237   25.9214 C   0  0  0  0  0  0  0  0  0  0  0  0
    6.0662  -12.9728   27.1571 C   0  0  0  0  0  0  0  0  0  0  0  0
    7.0440  -12.0555   27.4442 C   0  0  0  0  0  0  0  0  0  0  0  0
    8.0069  -11.8108   26.4594 C   0  0  0  0  0  0  0  0  0  0  0  0
    7.9913  -12.4615   25.2295 C   0  0  0  0  0  0  0  0  0  0  0  0
    8.6403  -15.7714   24.3667 C   0  0  0  0  0  0  0  0  0  0  0  0
    7.7479  -16.3999   25.0519 O   0  0  0  0  0  0  0  0  0  0  0  0
    9.5792  -19.9512   26.9744 N   0  0  0  0  0  0  0  0  0  0  0  0
   10.1579  -19.6621   25.6828 C   0  0  0  0  0  0  0  0  0  0  0  0
   11.0120  -20.4806   25.2787 O   0  0  0  0  0  0  0  0  0  0  0  0
    9.7509  -18.4780   24.9214 C   0  0  0  0  0  0  0  0  0  0  0  0
   10.2875  -17.2109   25.5327 C   0  0  2  0  0  0  0  0  0  0  0  0
    9.9740  -16.0710   24.6566 N   0  0  0  0  0  0  0  0  0  0  0  0
   11.7822  -17.2681   25.6843 C   0  0  0  0  0  0  0  0  0  0  0  0
   12.3591  -18.0594   26.6952 O   0  0  0  0  0  0  0  0  0  0  0  0
   12.5908  -16.6562   24.9698 O   0  0  0  0  0  0  0  0  0  0  0  0
  2  1  1  0
  2  3  2  0
  4  2  1  0
  5  6  1  0
  5  4  1  0
  6  7  1  6
  8  6  1  0
  8  9  2  0
 10  8  1  0
 11 10  1  0
 12 13  1  0
 11 12  1  1
 13 14  2  0
 13 18  1  0
 14 15  1  0
 15 16  2  0
 17 16  1  0
 18 17  2  0
 19 11  1  0
 20 19  2  0
 21 22  1  0
 22 23  2  0
 24 22  1  0
 25 24  1  6
 25 26  1  0
 26 19  1  0
 27 25  1  0
 28 27  1  0
 29 27  2  0
M  END
$$$$
