QFN.pdb
     RDKit          3D

 29 29  0  0  1  0  0  0  0  0999 V2000
    9.1797  -20.3022   19.9460 N   0  0  0  0  0  0  0  0  0  0  0  0
    9.3744  -19.5979   18.7097 C   0  0  0  0  0  0  0  0  0  0  0  0
    9.7450  -20.3452   17.7499 O   0  0  0  0  0  0  0  0  0  0  0  0
    9.1624  -18.1629   18.5988 C   0  0  0  0  0  0  0  0  0  0  0  0
    8.6683  -17.4265   19.7841 C   0  0  0  0  0  0  0  0  0  0  0  0
    8.2993  -16.0007   19.5919 C   0  0  2  0  0  0  0  0  0  0  0  0
    8.8290  -15.3265   18.4541 N   0  0  0  0  0  0  0  0  0  0  0  0
    8.5438  -15.1349   20.7726 C   0  0  0  0  0  0  0  0  0  0  0  0
    9.6150  -14.4826   20.8210 O   0  0  0  0  0  0  0  0  0  0  0  0
    7.5971  -15.0514   21.8134 N   0  0  0  0  0  0  0  0  0  0  0  0
    7.8356  -14.2980   23.0365 C   0  0  1  0  0  0  0  0  0  0  0  0
    6.5841  -13.7779   23.6489 C   0  0  0  0  0  0  0  0  0  0  0  0
    6.8902  -13.0439   24.9319 C   0  0  0  0  0  0  0  0  0  0  0  0
    7.3980  -11.7743   24.8342 C   0  0  0  0  0  0  0  0  0  0  0  0
    7.7179  -11.0279   25.9706 C   0  0  0  0  0  0  0  0  0  0  0  0
    7.5293  -11.5579   27.2210 C   0  0  0  0  0  0  0  0  0  0  0  0
    7.0104  -12.8546   27.2995 C   0  0  0  0  0  0  0  0  0  0  0  0
    6.6917  -13.5954   26.1655 C   0  0  0  0  0  0  0  0  0  0  0  0
    8.7221  -15.0481   23.9309 C   0  0  0  0  0  0  0  0  0  0  0  0
    9.1937  -14.4387   24.9640 O   0  0  0  0  0  0  0  0  0  0  0  0
   10.7912  -20.5491   25.6427 N   0  0  0  0  0  0  0  0  0  0  0  0
   10.4570  -19.1620   25.8689 C   0  0  0  0  0  0  0  0  0  0  0  0
   10.9884  -18.6354   26.8705 O   0  0  0  0  0  0  0  0  0  0  0  0
    9.5500  -18.4474   24.9666 C   0  0  0  0  0  0  0  0  0  0  0  0
    9.9749  -17.0166   24.7678 C   0  0  2  0  0  0  0  0  0  0  0  0
    9.1071  -16.3809   23.7639 N   0  0  0  0  0  0  0  0  0  0  0  0
   11.3886  -16.9318   24.2634 C   0  0  0  0  0  0  0  0  0  0  0  0
   12.4318  -16.5851   25.1423 O   0  0  0  0  0  0  0  0  0  0  0  0
   11.7376  -17.1490   23.0930 O   0  0  0  0  0  0  0  0  0  0  0  0
  2  1  1  0
  2  3  2  0
  4  2  1  0
  5  6  1  0
  5  4  1  0
  6  7  1  6
  8  6  1  0
  8  9  2  0
 10  8  1  0
 11 10  1  0
 12 13  1  0
 11 12  1  1
 13 14  2  0
 13 18  1  0
 14 15  1  0
 15 16  2  0
 17 16  1  0
 18 17  2  0
 19 11  1  0
 20 19  2  0
 21 22  1  0
 22 23  2  0
 24 22  1  0
 25 24  1  6
 25 26  1  0
 26 19  1  0
 27 25  1  0
 28 27  1  0
 29 27  2  0
M  END
$$$$
