QFN.pdb
     RDKit          3D

 29 29  0  0  1  0  0  0  0  0999 V2000
    8.5154  -12.7092   16.9370 N   0  0  0  0  0  0  0  0  0  0  0  0
    8.2115  -14.0542   16.5357 C   0  0  0  0  0  0  0  0  0  0  0  0
    7.5384  -14.1255   15.4592 O   0  0  0  0  0  0  0  0  0  0  0  0
    8.6448  -15.2062   17.3115 C   0  0  0  0  0  0  0  0  0  0  0  0
    9.4641  -14.9765   18.5228 C   0  0  0  0  0  0  0  0  0  0  0  0
    9.2211  -15.8682   19.6854 C   0  0  2  0  0  0  0  0  0  0  0  0
    8.0787  -16.7184   19.6413 N   0  0  0  0  0  0  0  0  0  0  0  0
    9.2093  -15.1794   21.0003 C   0  0  0  0  0  0  0  0  0  0  0  0
   10.1499  -14.3931   21.2690 O   0  0  0  0  0  0  0  0  0  0  0  0
    8.1689  -15.4066   21.9235 N   0  0  0  0  0  0  0  0  0  0  0  0
    8.1601  -14.8262   23.2590 C   0  0  1  0  0  0  0  0  0  0  0  0
    7.0163  -13.9019   23.4807 C   0  0  0  0  0  0  0  0  0  0  0  0
    6.9981  -13.4189   24.9107 C   0  0  0  0  0  0  0  0  0  0  0  0
    7.8743  -12.4235   25.2583 C   0  0  0  0  0  0  0  0  0  0  0  0
    7.9304  -11.9245   26.5617 C   0  0  0  0  0  0  0  0  0  0  0  0
    7.1010  -12.4278   27.5306 C   0  0  0  0  0  0  0  0  0  0  0  0
    6.2144  -13.4429   27.1559 C   0  0  0  0  0  0  0  0  0  0  0  0
    6.1601  -13.9373   25.8564 C   0  0  0  0  0  0  0  0  0  0  0  0
    8.3425  -15.8726   24.2692 C   0  0  0  0  0  0  0  0  0  0  0  0
    7.3869  -16.7204   24.4397 O   0  0  0  0  0  0  0  0  0  0  0  0
   11.5547  -18.2521   23.2279 N   0  0  0  0  0  0  0  0  0  0  0  0
   11.3958  -17.9891   24.6394 C   0  0  0  0  0  0  0  0  0  0  0  0
   12.3702  -17.4415   25.1993 O   0  0  0  0  0  0  0  0  0  0  0  0
   10.1620  -18.3539   25.3408 C   0  0  0  0  0  0  0  0  0  0  0  0
    9.5334  -17.1647   26.0177 C   0  0  2  0  0  0  0  0  0  0  0  0
    9.4727  -16.0372   25.0743 N   0  0  0  0  0  0  0  0  0  0  0  0
   10.3432  -16.7202   27.2036 C   0  0  0  0  0  0  0  0  0  0  0  0
   10.5057  -17.5769   28.3084 O   0  0  0  0  0  0  0  0  0  0  0  0
   10.9074  -15.6199   27.3042 O   0  0  0  0  0  0  0  0  0  0  0  0
  2  1  1  0
  2  3  2  0
  4  2  1  0
  5  6  1  0
  5  4  1  0
  6  7  1  6
  8  6  1  0
  8  9  2  0
 10  8  1  0
 11 10  1  0
 12 13  1  0
 11 12  1  1
 13 14  2  0
 13 18  1  0
 14 15  1  0
 15 16  2  0
 17 16  1  0
 18 17  2  0
 19 11  1  0
 20 19  2  0
 21 22  1  0
 22 23  2  0
 24 22  1  0
 25 24  1  6
 25 26  1  0
 26 19  1  0
 27 25  1  0
 28 27  1  0
 29 27  2  0
M  END
$$$$
