QFN.pdb
     RDKit          3D

 29 29  0  0  1  0  0  0  0  0999 V2000
    9.1452  -13.1414   15.6587 N   0  0  0  0  0  0  0  0  0  0  0  0
    8.0980  -14.1022   15.8659 C   0  0  0  0  0  0  0  0  0  0  0  0
    7.9750  -14.9359   14.9137 O   0  0  0  0  0  0  0  0  0  0  0  0
    7.2708  -14.0941   17.0626 C   0  0  0  0  0  0  0  0  0  0  0  0
    7.8890  -13.6984   18.3481 C   0  0  0  0  0  0  0  0  0  0  0  0
    8.3003  -14.7898   19.2676 C   0  0  2  0  0  0  0  0  0  0  0  0
    7.4706  -15.9459   19.3371 N   0  0  0  0  0  0  0  0  0  0  0  0
    8.5701  -14.3547   20.6610 C   0  0  0  0  0  0  0  0  0  0  0  0
    9.4029  -13.4343   20.8466 O   0  0  0  0  0  0  0  0  0  0  0  0
    7.9092  -14.9635   21.7468 N   0  0  0  0  0  0  0  0  0  0  0  0
    8.0510  -14.4950   23.1183 C   0  0  1  0  0  0  0  0  0  0  0  0
    6.7478  -14.1657   23.7548 C   0  0  0  0  0  0  0  0  0  0  0  0
    6.9671  -13.4507   25.0659 C   0  0  0  0  0  0  0  0  0  0  0  0
    6.5344  -14.0703   26.2098 C   0  0  0  0  0  0  0  0  0  0  0  0
    6.6889  -13.4752   27.4639 C   0  0  0  0  0  0  0  0  0  0  0  0
    7.2823  -12.2443   27.5763 C   0  0  0  0  0  0  0  0  0  0  0  0
    7.7168  -11.6286   26.3977 C   0  0  0  0  0  0  0  0  0  0  0  0
    7.5624  -12.2244   25.1497 C   0  0  0  0  0  0  0  0  0  0  0  0
    8.9236  -15.3967   23.8759 C   0  0  0  0  0  0  0  0  0  0  0  0
    8.7438  -15.4823   25.1492 O   0  0  0  0  0  0  0  0  0  0  0  0
    8.6073  -19.3877   24.4226 N   0  0  0  0  0  0  0  0  0  0  0  0
    9.5045  -18.9130   23.3948 C   0  0  0  0  0  0  0  0  0  0  0  0
    9.0632  -18.9667   22.2263 O   0  0  0  0  0  0  0  0  0  0  0  0
   10.8388  -18.4094   23.7314 C   0  0  0  0  0  0  0  0  0  0  0  0
   10.7889  -16.9901   24.2318 C   0  0  2  0  0  0  0  0  0  0  0  0
    9.9455  -16.1825   23.3366 N   0  0  0  0  0  0  0  0  0  0  0  0
   12.1576  -16.3683   24.2480 C   0  0  0  0  0  0  0  0  0  0  0  0
   13.1208  -16.8068   25.1757 O   0  0  0  0  0  0  0  0  0  0  0  0
   12.5345  -15.4650   23.4860 O   0  0  0  0  0  0  0  0  0  0  0  0
  2  1  1  0
  2  3  2  0
  4  2  1  0
  5  6  1  0
  5  4  1  0
  6  7  1  1
  8  6  1  0
  8  9  2  0
 10  8  1  0
 11 10  1  0
 12 13  1  0
 11 12  1  1
 13 14  2  0
 13 18  1  0
 14 15  1  0
 15 16  2  0
 17 16  1  0
 18 17  2  0
 19 11  1  0
 20 19  2  0
 21 22  1  0
 22 23  2  0
 24 22  1  0
 25 24  1  6
 25 26  1  0
 26 19  1  0
 27 25  1  0
 28 27  1  0
 29 27  2  0
M  END
$$$$
