QFN.pdb
     RDKit          3D

 29 29  0  0  1  0  0  0  0  0999 V2000
    8.4466  -12.8559   17.4487 N   0  0  0  0  0  0  0  0  0  0  0  0
    8.3499  -14.2877   17.5067 C   0  0  0  0  0  0  0  0  0  0  0  0
    7.1731  -14.7277   17.3103 O   0  0  0  0  0  0  0  0  0  0  0  0
    9.5078  -15.1280   17.7704 C   0  0  0  0  0  0  0  0  0  0  0  0
   10.2638  -14.9182   19.0257 C   0  0  0  0  0  0  0  0  0  0  0  0
    9.9056  -15.7750   20.1847 C   0  0  2  0  0  0  0  0  0  0  0  0
    8.7472  -16.5963   20.0690 N   0  0  0  0  0  0  0  0  0  0  0  0
    9.8095  -15.0545   21.4790 C   0  0  0  0  0  0  0  0  0  0  0  0
   10.7581  -14.3045   21.8149 O   0  0  0  0  0  0  0  0  0  0  0  0
    8.6821  -15.2128   22.3099 N   0  0  0  0  0  0  0  0  0  0  0  0
    8.5423  -14.5274   23.5871 C   0  0  1  0  0  0  0  0  0  0  0  0
    7.1539  -14.0607   23.8443 C   0  0  0  0  0  0  0  0  0  0  0  0
    7.0752  -13.3458   25.1714 C   0  0  0  0  0  0  0  0  0  0  0  0
    7.6899  -12.1249   25.2751 C   0  0  0  0  0  0  0  0  0  0  0  0
    7.6740  -11.4000   26.4688 C   0  0  0  0  0  0  0  0  0  0  0  0
    7.0366  -11.9024   27.5739 C   0  0  0  0  0  0  0  0  0  0  0  0
    6.4155  -13.1495   27.4478 C   0  0  0  0  0  0  0  0  0  0  0  0
    6.4322  -13.8690   26.2569 C   0  0  0  0  0  0  0  0  0  0  0  0
    9.1614  -15.3150   24.6571 C   0  0  0  0  0  0  0  0  0  0  0  0
    8.9174  -14.9745   25.8760 O   0  0  0  0  0  0  0  0  0  0  0  0
   10.0026  -18.3602   28.5732 N   0  0  0  0  0  0  0  0  0  0  0  0
    9.5466  -18.8358   27.2876 C   0  0  0  0  0  0  0  0  0  0  0  0
    9.4874  -20.0781   27.1618 O   0  0  0  0  0  0  0  0  0  0  0  0
    9.1863  -17.8982   26.2205 C   0  0  0  0  0  0  0  0  0  0  0  0
   10.4003  -17.2260   25.6360 C   0  0  2  0  0  0  0  0  0  0  0  0
   10.0022  -16.4159   24.4740 N   0  0  0  0  0  0  0  0  0  0  0  0
   11.4079  -18.2355   25.1608 C   0  0  0  0  0  0  0  0  0  0  0  0
   12.3235  -18.7997   26.0686 O   0  0  0  0  0  0  0  0  0  0  0  0
   11.5122  -18.6362   23.9915 O   0  0  0  0  0  0  0  0  0  0  0  0
  2  1  1  0
  2  3  2  0
  4  2  1  0
  5  6  1  0
  5  4  1  0
  6  7  1  6
  8  6  1  0
  8  9  2  0
 10  8  1  0
 11 10  1  0
 12 13  1  0
 11 12  1  1
 13 14  2  0
 13 18  1  0
 14 15  1  0
 15 16  2  0
 17 16  1  0
 18 17  2  0
 19 11  1  0
 20 19  2  0
 21 22  1  0
 22 23  2  0
 24 22  1  0
 25 24  1  6
 25 26  1  0
 26 19  1  0
 27 25  1  0
 28 27  1  0
 29 27  2  0
M  END
$$$$
