QFN.pdb
     RDKit          3D

 29 29  0  0  1  0  0  0  0  0999 V2000
    8.0814  -12.4435   16.7686 N   0  0  0  0  0  0  0  0  0  0  0  0
    8.1085  -13.8479   16.4692 C   0  0  0  0  0  0  0  0  0  0  0  0
    8.2427  -14.1029   15.2307 O   0  0  0  0  0  0  0  0  0  0  0  0
    7.9881  -14.8594   17.5079 C   0  0  0  0  0  0  0  0  0  0  0  0
    9.1089  -15.0348   18.4589 C   0  0  0  0  0  0  0  0  0  0  0  0
    8.9342  -16.0434   19.5350 C   0  0  2  0  0  0  0  0  0  0  0  0
    7.7294  -16.8039   19.5415 N   0  0  0  0  0  0  0  0  0  0  0  0
    9.1347  -15.5208   20.9098 C   0  0  0  0  0  0  0  0  0  0  0  0
   10.2733  -15.0975   21.2257 O   0  0  0  0  0  0  0  0  0  0  0  0
    8.0730  -15.5045   21.8365 N   0  0  0  0  0  0  0  0  0  0  0  0
    8.1945  -14.9169   23.1634 C   0  0  1  0  0  0  0  0  0  0  0  0
    6.9402  -14.2640   23.6241 C   0  0  0  0  0  0  0  0  0  0  0  0
    7.1719  -13.5364   24.9262 C   0  0  0  0  0  0  0  0  0  0  0  0
    6.5678  -14.0353   26.0511 C   0  0  0  0  0  0  0  0  0  0  0  0
    6.7213  -13.4187   27.2950 C   0  0  0  0  0  0  0  0  0  0  0  0
    7.4874  -12.2880   27.4159 C   0  0  0  0  0  0  0  0  0  0  0  0
    8.0952  -11.7948   26.2565 C   0  0  0  0  0  0  0  0  0  0  0  0
    7.9412  -12.4117   25.0189 C   0  0  0  0  0  0  0  0  0  0  0  0
    8.7938  -15.8792   24.0926 C   0  0  0  0  0  0  0  0  0  0  0  0
    8.2802  -17.0597   24.1536 O   0  0  0  0  0  0  0  0  0  0  0  0
   12.7619  -16.6000   23.2541 N   0  0  0  0  0  0  0  0  0  0  0  0
   12.0727  -17.4215   24.2221 C   0  0  0  0  0  0  0  0  0  0  0  0
   11.7104  -18.5465   23.8147 O   0  0  0  0  0  0  0  0  0  0  0  0
   11.8277  -16.9385   25.5838 C   0  0  0  0  0  0  0  0  0  0  0  0
   10.3637  -16.6891   25.8316 C   0  0  2  0  0  0  0  0  0  0  0  0
    9.8854  -15.6304   24.9286 N   0  0  0  0  0  0  0  0  0  0  0  0
   10.1194  -16.2270   27.2412 C   0  0  0  0  0  0  0  0  0  0  0  0
   10.0970  -17.1590   28.2955 O   0  0  0  0  0  0  0  0  0  0  0  0
    9.9276  -15.0483   27.5772 O   0  0  0  0  0  0  0  0  0  0  0  0
  2  1  1  0
  2  3  2  0
  4  2  1  0
  5  6  1  0
  5  4  1  0
  6  7  1  1
  8  6  1  0
  8  9  2  0
 10  8  1  0
 11 10  1  0
 12 13  1  0
 11 12  1  1
 13 14  2  0
 13 18  1  0
 14 15  1  0
 15 16  2  0
 17 16  1  0
 18 17  2  0
 19 11  1  0
 20 19  2  0
 21 22  1  0
 22 23  2  0
 24 22  1  0
 25 24  1  1
 25 26  1  0
 26 19  1  0
 27 25  1  0
 28 27  1  0
 29 27  2  0
M  END
$$$$
