QFN.pdb
     RDKit          3D

 29 29  0  0  1  0  0  0  0  0999 V2000
    8.1001  -12.7496   17.4753 N   0  0  0  0  0  0  0  0  0  0  0  0
    7.9675  -14.1736   17.3443 C   0  0  0  0  0  0  0  0  0  0  0  0
    7.8230  -14.5639   16.1428 O   0  0  0  0  0  0  0  0  0  0  0  0
    7.9967  -15.0594   18.4980 C   0  0  0  0  0  0  0  0  0  0  0  0
    9.3054  -15.3827   19.1096 C   0  0  0  0  0  0  0  0  0  0  0  0
    9.2914  -16.1998   20.3497 C   0  0  2  0  0  0  0  0  0  0  0  0
    8.3171  -17.2343   20.4510 N   0  0  0  0  0  0  0  0  0  0  0  0
    9.2334  -15.4130   21.6072 C   0  0  0  0  0  0  0  0  0  0  0  0
   10.0858  -14.5088   21.7836 O   0  0  0  0  0  0  0  0  0  0  0  0
    8.2474  -15.6785   22.5785 N   0  0  0  0  0  0  0  0  0  0  0  0
    8.1438  -14.9272   23.8217 C   0  0  1  0  0  0  0  0  0  0  0  0
    6.8189  -14.2740   23.9942 C   0  0  0  0  0  0  0  0  0  0  0  0
    6.8391  -13.3469   25.1852 C   0  0  0  0  0  0  0  0  0  0  0  0
    6.0358  -13.6608   26.2508 C   0  0  0  0  0  0  0  0  0  0  0  0
    5.9863  -12.8528   27.3890 C   0  0  0  0  0  0  0  0  0  0  0  0
    6.7485  -11.7154   27.4627 C   0  0  0  0  0  0  0  0  0  0  0  0
    7.5614  -11.4126   26.3652 C   0  0  0  0  0  0  0  0  0  0  0  0
    7.6093  -12.2200   25.2330 C   0  0  0  0  0  0  0  0  0  0  0  0
    8.6070  -15.7423   24.9484 C   0  0  0  0  0  0  0  0  0  0  0  0
    8.6604  -15.1898   26.1116 O   0  0  0  0  0  0  0  0  0  0  0  0
    6.4518  -19.2915   24.8661 N   0  0  0  0  0  0  0  0  0  0  0  0
    7.1998  -19.0316   26.0743 C   0  0  0  0  0  0  0  0  0  0  0  0
    6.5195  -18.7005   27.0695 O   0  0  0  0  0  0  0  0  0  0  0  0
    8.6599  -19.1548   26.0991 C   0  0  0  0  0  0  0  0  0  0  0  0
    9.3326  -17.8078   26.1113 C   0  0  2  0  0  0  0  0  0  0  0  0
    9.0006  -17.0811   24.8757 N   0  0  0  0  0  0  0  0  0  0  0  0
   10.8286  -17.9450   26.1682 C   0  0  0  0  0  0  0  0  0  0  0  0
   11.6207  -17.4833   25.1004 O   0  0  0  0  0  0  0  0  0  0  0  0
   11.4586  -18.4491   27.1105 O   0  0  0  0  0  0  0  0  0  0  0  0
  2  1  1  0
  2  3  2  0
  4  2  1  0
  5  6  1  0
  5  4  1  0
  6  7  1  6
  8  6  1  0
  8  9  2  0
 10  8  1  0
 11 10  1  0
 12 13  1  0
 11 12  1  1
 13 14  2  0
 13 18  1  0
 14 15  1  0
 15 16  2  0
 17 16  1  0
 18 17  2  0
 19 11  1  0
 20 19  2  0
 21 22  1  0
 22 23  2  0
 24 22  1  0
 25 24  1  6
 25 26  1  0
 26 19  1  0
 27 25  1  0
 28 27  1  0
 29 27  2  0
M  END
$$$$
