QFN.pdb
     RDKit          3D

 29 29  0  0  1  0  0  0  0  0999 V2000
    8.0822  -18.4781   16.2852 N   0  0  0  0  0  0  0  0  0  0  0  0
    9.1281  -18.6698   17.2505 C   0  0  0  0  0  0  0  0  0  0  0  0
   10.2905  -18.4204   16.7993 O   0  0  0  0  0  0  0  0  0  0  0  0
    8.8514  -19.1118   18.6087 C   0  0  0  0  0  0  0  0  0  0  0  0
    9.1572  -18.1931   19.7284 C   0  0  0  0  0  0  0  0  0  0  0  0
    8.2049  -17.0797   19.9720 C   0  0  2  0  0  0  0  0  0  0  0  0
    7.8855  -16.2286   18.8750 N   0  0  0  0  0  0  0  0  0  0  0  0
    8.5552  -16.2076   21.1210 C   0  0  0  0  0  0  0  0  0  0  0  0
    9.6143  -15.5371   21.0585 O   0  0  0  0  0  0  0  0  0  0  0  0
    7.7198  -16.1383   22.2541 N   0  0  0  0  0  0  0  0  0  0  0  0
    8.0189  -15.2949   23.4029 C   0  0  1  0  0  0  0  0  0  0  0  0
    6.7970  -14.7999   24.0910 C   0  0  0  0  0  0  0  0  0  0  0  0
    7.1693  -13.9041   25.2475 C   0  0  0  0  0  0  0  0  0  0  0  0
    7.0942  -12.5490   25.0538 C   0  0  0  0  0  0  0  0  0  0  0  0
    7.4295  -11.6483   26.0673 C   0  0  0  0  0  0  0  0  0  0  0  0
    7.8465  -12.1079   27.2900 C   0  0  0  0  0  0  0  0  0  0  0  0
    7.9165  -13.4938   27.4676 C   0  0  0  0  0  0  0  0  0  0  0  0
    7.5809  -14.3886   26.4563 C   0  0  0  0  0  0  0  0  0  0  0  0
    9.0193  -15.9386   24.2593 C   0  0  0  0  0  0  0  0  0  0  0  0
    8.8668  -17.1891   24.5310 O   0  0  0  0  0  0  0  0  0  0  0  0
   14.3820  -16.2759   23.6836 N   0  0  0  0  0  0  0  0  0  0  0  0
   13.6156  -16.3771   24.9040 C   0  0  0  0  0  0  0  0  0  0  0  0
   13.9376  -17.3132   25.6674 O   0  0  0  0  0  0  0  0  0  0  0  0
   12.5364  -15.4303   25.1981 C   0  0  0  0  0  0  0  0  0  0  0  0
   11.2173  -16.1307   25.3893 C   0  0  2  0  0  0  0  0  0  0  0  0
   10.1381  -15.3121   24.8147 N   0  0  0  0  0  0  0  0  0  0  0  0
   10.9097  -16.3272   26.8476 C   0  0  0  0  0  0  0  0  0  0  0  0
   10.1179  -15.3881   27.5346 O   0  0  0  0  0  0  0  0  0  0  0  0
   11.3055  -17.2826   27.5328 O   0  0  0  0  0  0  0  0  0  0  0  0
  2  1  1  0
  2  3  2  0
  4  2  1  0
  5  6  1  0
  5  4  1  0
  6  7  1  6
  8  6  1  0
  8  9  2  0
 10  8  1  0
 11 10  1  0
 12 13  1  0
 11 12  1  1
 13 14  2  0
 13 18  1  0
 14 15  1  0
 15 16  2  0
 17 16  1  0
 18 17  2  0
 19 11  1  0
 20 19  2  0
 21 22  1  0
 22 23  2  0
 24 22  1  0
 25 24  1  1
 25 26  1  0
 26 19  1  0
 27 25  1  0
 28 27  1  0
 29 27  2  0
M  END
$$$$
