CCP.pdb
     RDKit          3D

 20 20  0  0  1  0  0  0  0  0999 V2000
    2.8430  -18.9933   22.2095 N   0  0  0  0  0  0  0  0  0  0  0  0
    4.2376  -19.0192   21.8498 C   0  0  1  0  0  0  0  0  0  0  0  0
    4.4472  -19.5009   20.4369 C   0  0  0  0  0  0  0  0  0  0  0  0
    6.1749  -19.3792   19.9249 S   0  0  0  0  0  0  0  0  0  0  0  0
    4.8842  -17.6983   21.9839 C   0  0  0  0  0  0  0  0  0  0  0  0
    4.3454  -16.7214   21.4034 O   0  0  0  0  0  0  0  0  0  0  0  0
    6.0599  -17.4617   22.7162 N   0  0  0  0  0  0  0  0  0  0  0  0
    6.7010  -16.1266   22.7858 C   0  0  1  0  0  0  0  0  0  0  0  0
    7.3959  -16.1775   24.1585 C   0  0  0  0  0  0  0  0  0  0  0  0
    8.3798  -14.6989   24.4179 S   0  0  0  0  0  0  0  0  0  0  0  0
    7.6605  -15.9750   21.6815 C   0  0  0  0  0  0  0  0  0  0  0  0
    8.1640  -17.0813   21.2443 O   0  0  0  0  0  0  0  0  0  0  0  0
    8.0453  -14.7518   21.0968 N   0  0  0  0  0  0  0  0  0  0  0  0
    7.5967  -13.4411   21.5793 C   0  0  0  0  0  0  0  0  0  0  0  0
    7.4443  -12.7162   20.2411 C   0  0  0  0  0  0  0  0  0  0  0  0
    8.7823  -13.0570   19.6188 C   0  0  0  0  0  0  0  0  0  0  0  0
    8.9079  -14.5449   19.9718 C   0  0  1  0  0  0  0  0  0  0  0  0
   10.3230  -14.8231   20.3705 C   0  0  0  0  0  0  0  0  0  0  0  0
   11.2956  -14.9812   19.4103 O   0  0  0  0  0  0  0  0  0  0  0  0
   10.5859  -14.9057   21.5931 O   0  0  0  0  0  0  0  0  0  0  0  0
  2  5  1  0
  2  1  1  6
  3  2  1  0
  4  3  1  0
  5  6  2  0
  7  8  1  0
  7  5  1  0
  8  9  1  1
 10  9  1  0
 11 13  1  0
 11  8  1  0
 12 11  2  0
 13 17  1  0
 14 13  1  0
 14 15  1  0
 15 16  1  0
 17 18  1  1
 17 16  1  0
 18 20  2  0
 18 19  1  0
M  END
$$$$
