CCP.pdb
     RDKit          3D

 20 20  0  0  1  0  0  0  0  0999 V2000
    9.3736  -16.2539   19.4442 N   0  0  0  0  0  0  0  0  0  0  0  0
    9.6219  -16.8114   20.7490 C   0  0  1  0  0  0  0  0  0  0  0  0
   11.0643  -16.6631   21.1610 C   0  0  0  0  0  0  0  0  0  0  0  0
   11.5461  -14.9322   21.3443 S   0  0  0  0  0  0  0  0  0  0  0  0
    8.7810  -16.2003   21.7979 C   0  0  0  0  0  0  0  0  0  0  0  0
    8.3000  -15.0604   21.5721 O   0  0  0  0  0  0  0  0  0  0  0  0
    8.4835  -16.8077   23.0296 N   0  0  0  0  0  0  0  0  0  0  0  0
    7.5815  -16.1855   24.0284 C   0  0  1  0  0  0  0  0  0  0  0  0
    6.9477  -17.4184   24.6978 C   0  0  0  0  0  0  0  0  0  0  0  0
    6.1844  -16.9619   26.2568 S   0  0  0  0  0  0  0  0  0  0  0  0
    8.3658  -15.3792   24.9760 C   0  0  0  0  0  0  0  0  0  0  0  0
    9.6061  -15.7235   25.0847 O   0  0  0  0  0  0  0  0  0  0  0  0
    7.8694  -14.3017   25.7368 N   0  0  0  0  0  0  0  0  0  0  0  0
    6.5258  -13.7371   25.5701 C   0  0  0  0  0  0  0  0  0  0  0  0
    6.8416  -12.2580   25.7983 C   0  0  0  0  0  0  0  0  0  0  0  0
    7.6388  -12.3680   27.0812 C   0  0  0  0  0  0  0  0  0  0  0  0
    8.5367  -13.5739   26.7749 C   0  0  1  0  0  0  0  0  0  0  0  0
    8.6273  -14.4254   28.0020 C   0  0  0  0  0  0  0  0  0  0  0  0
    9.3527  -13.9983   29.0903 O   0  0  0  0  0  0  0  0  0  0  0  0
    8.0272  -15.5256   28.0019 O   0  0  0  0  0  0  0  0  0  0  0  0
  2  5  1  0
  2  1  1  6
  3  2  1  0
  4  3  1  0
  5  6  2  0
  7  8  1  0
  7  5  1  0
  8  9  1  1
 10  9  1  0
 11 13  1  0
 11  8  1  0
 12 11  2  0
 13 17  1  0
 14 13  1  0
 14 15  1  0
 15 16  1  0
 17 18  1  1
 17 16  1  0
 18 20  2  0
 18 19  1  0
M  END
$$$$
