CCP.pdb
     RDKit          3D

 20 20  0  0  1  0  0  0  0  0999 V2000
    7.7146  -16.5327   18.9826 N   0  0  0  0  0  0  0  0  0  0  0  0
    8.4590  -15.8583   20.0151 C   0  0  1  0  0  0  0  0  0  0  0  0
    9.0860  -14.5814   19.5165 C   0  0  0  0  0  0  0  0  0  0  0  0
    7.8486  -13.3680   19.0079 S   0  0  0  0  0  0  0  0  0  0  0  0
    7.6300  -15.5317   21.1929 C   0  0  0  0  0  0  0  0  0  0  0  0
    6.3802  -15.5678   21.0570 O   0  0  0  0  0  0  0  0  0  0  0  0
    8.1450  -15.1840   22.4531 N   0  0  0  0  0  0  0  0  0  0  0  0
    7.3359  -15.2576   23.6934 C   0  0  1  0  0  0  0  0  0  0  0  0
    7.0806  -16.7705   23.8185 C   0  0  0  0  0  0  0  0  0  0  0  0
    6.4394  -17.1650   25.4478 S   0  0  0  0  0  0  0  0  0  0  0  0
    8.1092  -14.7279   24.8266 C   0  0  0  0  0  0  0  0  0  0  0  0
    9.3625  -15.0411   24.8221 O   0  0  0  0  0  0  0  0  0  0  0  0
    7.5902  -13.9342   25.8690 N   0  0  0  0  0  0  0  0  0  0  0  0
    6.1715  -13.5839   25.9976 C   0  0  0  0  0  0  0  0  0  0  0  0
    6.3093  -12.1538   26.5224 C   0  0  0  0  0  0  0  0  0  0  0  0
    7.3013  -12.3930   27.6414 C   0  0  0  0  0  0  0  0  0  0  0  0
    8.3007  -13.3374   26.9607 C   0  0  1  0  0  0  0  0  0  0  0  0
    8.6962  -14.3990   27.9382 C   0  0  0  0  0  0  0  0  0  0  0  0
    9.5818  -14.1132   28.9516 O   0  0  0  0  0  0  0  0  0  0  0  0
    8.1984  -15.5411   27.8020 O   0  0  0  0  0  0  0  0  0  0  0  0
  2  5  1  0
  2  1  1  6
  3  2  1  0
  4  3  1  0
  5  6  2  0
  7  8  1  0
  7  5  1  0
  8  9  1  1
 10  9  1  0
 11 13  1  0
 11  8  1  0
 12 11  2  0
 13 17  1  0
 14 13  1  0
 14 15  1  0
 15 16  1  0
 17 18  1  1
 17 16  1  0
 18 20  2  0
 18 19  1  0
M  END
$$$$
