CCP.pdb
     RDKit          3D

 20 20  0  0  1  0  0  0  0  0999 V2000
   -4.8837  -23.7690   23.5939 N   0  0  0  0  0  0  0  0  0  0  0  0
   -5.2494  -24.5620   24.7394 C   0  0  1  0  0  0  0  0  0  0  0  0
   -4.2521  -25.6600   25.0074 C   0  0  0  0  0  0  0  0  0  0  0  0
   -4.2936  -26.9432   23.7371 S   0  0  0  0  0  0  0  0  0  0  0  0
   -5.3844  -23.7559   25.9695 C   0  0  0  0  0  0  0  0  0  0  0  0
   -4.4720  -22.9310   26.2316 O   0  0  0  0  0  0  0  0  0  0  0  0
   -6.4634  -23.8500   26.8646 N   0  0  0  0  0  0  0  0  0  0  0  0
   -6.5541  -23.0258   28.0938 C   0  0  1  0  0  0  0  0  0  0  0  0
   -8.0766  -22.8823   28.2701 C   0  0  0  0  0  0  0  0  0  0  0  0
   -8.4551  -22.1175   29.8492 S   0  0  0  0  0  0  0  0  0  0  0  0
   -5.9279  -23.7364   29.2190 C   0  0  0  0  0  0  0  0  0  0  0  0
   -6.0810  -25.0190   29.2037 O   0  0  0  0  0  0  0  0  0  0  0  0
   -5.2025  -23.1307   30.2646 N   0  0  0  0  0  0  0  0  0  0  0  0
   -4.9956  -21.6831   30.3809 C   0  0  0  0  0  0  0  0  0  0  0  0
   -3.5656  -21.6737   30.9238 C   0  0  0  0  0  0  0  0  0  0  0  0
   -3.7201  -22.6728   32.0514 C   0  0  0  0  0  0  0  0  0  0  0  0
   -4.5526  -23.7676   31.3713 C   0  0  1  0  0  0  0  0  0  0  0  0
   -5.5824  -24.2558   32.3408 C   0  0  0  0  0  0  0  0  0  0  0  0
   -5.2207  -25.0848   33.3776 O   0  0  0  0  0  0  0  0  0  0  0  0
   -6.7689  -23.8873   32.1762 O   0  0  0  0  0  0  0  0  0  0  0  0
  2  5  1  0
  2  1  1  6
  3  2  1  0
  4  3  1  0
  5  6  2  0
  7  8  1  0
  7  5  1  0
  8  9  1  1
 10  9  1  0
 11 13  1  0
 11  8  1  0
 12 11  2  0
 13 17  1  0
 14 13  1  0
 14 15  1  0
 15 16  1  0
 17 18  1  1
 17 16  1  0
 18 20  2  0
 18 19  1  0
M  END
$$$$
