CCP.pdb
     RDKit          3D

 20 20  0  0  1  0  0  0  0  0999 V2000
    7.9082  -13.9872   28.5581 N   0  0  0  0  0  0  0  0  0  0  0  0
    7.2103  -13.5912   27.3618 C   0  0  1  0  0  0  0  0  0  0  0  0
    6.6791  -12.1838   27.4580 C   0  0  0  0  0  0  0  0  0  0  0  0
    5.3537  -11.8731   26.2710 S   0  0  0  0  0  0  0  0  0  0  0  0
    8.0560  -13.6798   26.1543 C   0  0  0  0  0  0  0  0  0  0  0  0
    9.1503  -13.0601   26.1595 O   0  0  0  0  0  0  0  0  0  0  0  0
    7.7188  -14.4099   25.0021 N   0  0  0  0  0  0  0  0  0  0  0  0
    8.6196  -14.5088   23.8286 C   0  0  1  0  0  0  0  0  0  0  0  0
    9.6432  -15.5577   24.2996 C   0  0  0  0  0  0  0  0  0  0  0  0
   10.6694  -16.0919   22.9273 S   0  0  0  0  0  0  0  0  0  0  0  0
    7.8605  -14.9606   22.6527 C   0  0  0  0  0  0  0  0  0  0  0  0
    7.0874  -15.9740   22.8624 O   0  0  0  0  0  0  0  0  0  0  0  0
    7.9212  -14.3804   21.3698 N   0  0  0  0  0  0  0  0  0  0  0  0
    8.6705  -13.1571   21.0633 C   0  0  0  0  0  0  0  0  0  0  0  0
    7.7168  -12.5222   20.0499 C   0  0  0  0  0  0  0  0  0  0  0  0
    7.4899  -13.7121   19.1410 C   0  0  0  0  0  0  0  0  0  0  0  0
    7.2986  -14.8397   20.1639 C   0  0  1  0  0  0  0  0  0  0  0  0
    8.0100  -16.0593   19.6686 C   0  0  0  0  0  0  0  0  0  0  0  0
    7.4216  -16.8700   18.7254 O   0  0  0  0  0  0  0  0  0  0  0  0
    9.1445  -16.3115   20.1374 O   0  0  0  0  0  0  0  0  0  0  0  0
  2  5  1  0
  2  1  1  1
  3  2  1  0
  4  3  1  0
  5  6  2  0
  7  8  1  0
  7  5  1  0
  8  9  1  1
 10  9  1  0
 11 13  1  0
 11  8  1  0
 12 11  2  0
 13 17  1  0
 14 13  1  0
 14 15  1  0
 15 16  1  0
 17 18  1  6
 17 16  1  0
 18 20  2  0
 18 19  1  0
M  END
$$$$
