CCP.pdb
     RDKit          3D

 20 20  0  0  1  0  0  0  0  0999 V2000
    8.2661  -14.0609   20.1748 N   0  0  0  0  0  0  0  0  0  0  0  0
    7.6818  -14.8234   21.2482 C   0  0  1  0  0  0  0  0  0  0  0  0
    8.0870  -16.2743   21.1956 C   0  0  0  0  0  0  0  0  0  0  0  0
    9.8812  -16.4816   21.2068 S   0  0  0  0  0  0  0  0  0  0  0  0
    8.0395  -14.2961   22.5805 C   0  0  0  0  0  0  0  0  0  0  0  0
    9.0794  -13.5948   22.6725 O   0  0  0  0  0  0  0  0  0  0  0  0
    7.2955  -14.5262   23.7501 N   0  0  0  0  0  0  0  0  0  0  0  0
    7.6695  -13.9429   25.0609 C   0  0  1  0  0  0  0  0  0  0  0  0
    6.2943  -13.7269   25.7181 C   0  0  0  0  0  0  0  0  0  0  0  0
    6.4866  -13.0116   27.3530 S   0  0  0  0  0  0  0  0  0  0  0  0
    8.5021  -14.8946   25.8120 C   0  0  0  0  0  0  0  0  0  0  0  0
    8.4969  -16.1014   25.3513 O   0  0  0  0  0  0  0  0  0  0  0  0
    9.2715  -14.5837   26.9510 N   0  0  0  0  0  0  0  0  0  0  0  0
    9.1892  -13.3056   27.6662 C   0  0  0  0  0  0  0  0  0  0  0  0
   10.6625  -13.1258   28.0359 C   0  0  0  0  0  0  0  0  0  0  0  0
   10.9402  -14.4923   28.6266 C   0  0  0  0  0  0  0  0  0  0  0  0
   10.2406  -15.4064   27.6121 C   0  0  1  0  0  0  0  0  0  0  0  0
    9.5416  -16.4997   28.3571 C   0  0  0  0  0  0  0  0  0  0  0  0
   10.2683  -17.4771   28.9970 O   0  0  0  0  0  0  0  0  0  0  0  0
    8.2885  -16.4925   28.3765 O   0  0  0  0  0  0  0  0  0  0  0  0
  2  5  1  0
  2  1  1  6
  3  2  1  0
  4  3  1  0
  5  6  2  0
  7  8  1  0
  7  5  1  0
  8  9  1  1
 10  9  1  0
 11 13  1  0
 11  8  1  0
 12 11  2  0
 13 17  1  0
 14 13  1  0
 14 15  1  0
 15 16  1  0
 17 18  1  1
 17 16  1  0
 18 20  2  0
 18 19  1  0
M  END
$$$$
