CCP.pdb
     RDKit          3D

 20 20  0  0  1  0  0  0  0  0999 V2000
    9.6660  -20.4585   25.0046 N   0  0  0  0  0  0  0  0  0  0  0  0
    8.5869  -19.6159   25.4524 C   0  0  1  0  0  0  0  0  0  0  0  0
    8.3672  -19.7230   26.9398 C   0  0  0  0  0  0  0  0  0  0  0  0
    6.6139  -19.7007   27.3729 S   0  0  0  0  0  0  0  0  0  0  0  0
    8.8024  -18.1926   25.1227 C   0  0  0  0  0  0  0  0  0  0  0  0
    9.7860  -17.6123   25.6495 O   0  0  0  0  0  0  0  0  0  0  0  0
    7.9820  -17.4454   24.2607 N   0  0  0  0  0  0  0  0  0  0  0  0
    8.1479  -15.9845   24.0690 C   0  0  1  0  0  0  0  0  0  0  0  0
    7.7269  -15.8058   22.5991 C   0  0  0  0  0  0  0  0  0  0  0  0
    7.7048  -14.0653   22.1610 S   0  0  0  0  0  0  0  0  0  0  0  0
    7.2658  -15.2561   24.9932 C   0  0  0  0  0  0  0  0  0  0  0  0
    6.1252  -15.8210   25.2135 O   0  0  0  0  0  0  0  0  0  0  0  0
    7.5759  -14.0354   25.6258 N   0  0  0  0  0  0  0  0  0  0  0  0
    8.7904  -13.2603   25.3503 C   0  0  0  0  0  0  0  0  0  0  0  0
    9.0896  -12.7472   26.7599 C   0  0  0  0  0  0  0  0  0  0  0  0
    7.7214  -12.2111   27.1260 C   0  0  0  0  0  0  0  0  0  0  0  0
    6.8110  -13.3353   26.6145 C   0  0  1  0  0  0  0  0  0  0  0  0
    5.6082  -12.7203   25.9714 C   0  0  0  0  0  0  0  0  0  0  0  0
    4.6331  -12.1326   26.7439 O   0  0  0  0  0  0  0  0  0  0  0  0
    5.5227  -12.7595   24.7216 O   0  0  0  0  0  0  0  0  0  0  0  0
  2  5  1  0
  2  1  1  1
  3  2  1  0
  4  3  1  0
  5  6  2  0
  7  8  1  0
  7  5  1  0
  8  9  1  6
 10  9  1  0
 11 13  1  0
 11  8  1  0
 12 11  2  0
 13 17  1  0
 14 13  1  0
 14 15  1  0
 15 16  1  0
 17 18  1  6
 17 16  1  0
 18 20  2  0
 18 19  1  0
M  END
$$$$
