CCP.pdb
     RDKit          3D

 20 20  0  0  1  0  0  0  0  0999 V2000
    3.5637  -19.2901   22.3004 N   0  0  0  0  0  0  0  0  0  0  0  0
    4.9951  -19.1675   22.4045 C   0  0  1  0  0  0  0  0  0  0  0  0
    5.7071  -19.9176   21.3080 C   0  0  0  0  0  0  0  0  0  0  0  0
    7.4962  -19.6774   21.3687 S   0  0  0  0  0  0  0  0  0  0  0  0
    5.4497  -17.7628   22.3682 C   0  0  0  0  0  0  0  0  0  0  0  0
    4.9192  -16.9978   21.5226 O   0  0  0  0  0  0  0  0  0  0  0  0
    6.4343  -17.2259   23.2148 N   0  0  0  0  0  0  0  0  0  0  0  0
    6.9286  -15.8345   23.0812 C   0  0  1  0  0  0  0  0  0  0  0  0
    7.4348  -15.5377   24.5044 C   0  0  0  0  0  0  0  0  0  0  0  0
    8.1939  -13.9127   24.5732 S   0  0  0  0  0  0  0  0  0  0  0  0
    8.0083  -15.7814   22.0840 C   0  0  0  0  0  0  0  0  0  0  0  0
    8.7034  -16.8651   21.9785 O   0  0  0  0  0  0  0  0  0  0  0  0
    8.3157  -14.6712   21.2722 N   0  0  0  0  0  0  0  0  0  0  0  0
    7.6351  -13.3755   21.3718 C   0  0  0  0  0  0  0  0  0  0  0  0
    7.5929  -12.9961   19.8906 C   0  0  0  0  0  0  0  0  0  0  0  0
    9.0415  -13.2470   19.5273 C   0  0  0  0  0  0  0  0  0  0  0  0
    9.3032  -14.5813   20.2381 C   0  0  1  0  0  0  0  0  0  0  0  0
   10.6665  -14.5353   20.8529 C   0  0  0  0  0  0  0  0  0  0  0  0
   11.7875  -14.6471   20.0630 O   0  0  0  0  0  0  0  0  0  0  0  0
   10.7487  -14.3934   22.0953 O   0  0  0  0  0  0  0  0  0  0  0  0
  2  5  1  0
  2  1  1  6
  3  2  1  0
  4  3  1  0
  5  6  2  0
  7  8  1  0
  7  5  1  0
  8  9  1  1
 10  9  1  0
 11 13  1  0
 11  8  1  0
 12 11  2  0
 13 17  1  0
 14 13  1  0
 14 15  1  0
 15 16  1  0
 17 18  1  1
 17 16  1  0
 18 20  2  0
 18 19  1  0
M  END
$$$$
