CCP.pdb
     RDKit          3D

 20 20  0  0  1  0  0  0  0  0999 V2000
    7.3303  -16.0358   19.0230 N   0  0  0  0  0  0  0  0  0  0  0  0
    8.2419  -15.6741   20.0780 C   0  0  1  0  0  0  0  0  0  0  0  0
    8.9685  -14.3875   19.7799 C   0  0  0  0  0  0  0  0  0  0  0  0
    7.8710  -13.1288   19.0921 S   0  0  0  0  0  0  0  0  0  0  0  0
    7.5699  -15.5282   21.3850 C   0  0  0  0  0  0  0  0  0  0  0  0
    6.3576  -15.1936   21.3856 O   0  0  0  0  0  0  0  0  0  0  0  0
    8.1950  -15.7383   22.6258 N   0  0  0  0  0  0  0  0  0  0  0  0
    7.4635  -15.6502   23.9124 C   0  0  1  0  0  0  0  0  0  0  0  0
    7.2183  -17.1337   24.2423 C   0  0  0  0  0  0  0  0  0  0  0  0
    6.6930  -17.3176   25.9487 S   0  0  0  0  0  0  0  0  0  0  0  0
    8.3043  -14.9873   24.9207 C   0  0  0  0  0  0  0  0  0  0  0  0
    9.5559  -15.3039   24.8768 O   0  0  0  0  0  0  0  0  0  0  0  0
    7.8485  -14.0682   25.8870 N   0  0  0  0  0  0  0  0  0  0  0  0
    6.4584  -13.6096   25.9836 C   0  0  0  0  0  0  0  0  0  0  0  0
    6.6988  -12.1510   26.3764 C   0  0  0  0  0  0  0  0  0  0  0  0
    7.6790  -12.3566   27.5124 C   0  0  0  0  0  0  0  0  0  0  0  0
    8.6059  -13.4263   26.9199 C   0  0  1  0  0  0  0  0  0  0  0  0
    8.9330  -14.4201   27.9896 C   0  0  0  0  0  0  0  0  0  0  0  0
    8.4378  -15.7019   27.9199 O   0  0  0  0  0  0  0  0  0  0  0  0
    9.6637  -14.0476   28.9372 O   0  0  0  0  0  0  0  0  0  0  0  0
  2  5  1  0
  2  1  1  6
  3  2  1  0
  4  3  1  0
  5  6  2  0
  7  8  1  0
  7  5  1  0
  8  9  1  1
 10  9  1  0
 11 13  1  0
 11  8  1  0
 12 11  2  0
 13 17  1  0
 14 13  1  0
 14 15  1  0
 15 16  1  0
 17 18  1  1
 17 16  1  0
 18 20  2  0
 18 19  1  0
M  END
$$$$
