CCP.pdb
     RDKit          3D

 20 20  0  0  1  0  0  0  0  0999 V2000
    6.7007  -14.3990   20.2752 N   0  0  0  0  0  0  0  0  0  0  0  0
    7.7609  -15.0063   21.0381 C   0  0  1  0  0  0  0  0  0  0  0  0
    9.0625  -15.0276   20.2781 C   0  0  0  0  0  0  0  0  0  0  0  0
    9.4710  -16.6794   19.6725 S   0  0  0  0  0  0  0  0  0  0  0  0
    7.9950  -14.3261   22.3279 C   0  0  0  0  0  0  0  0  0  0  0  0
    7.7602  -13.0921   22.3899 O   0  0  0  0  0  0  0  0  0  0  0  0
    8.4621  -14.9661   23.4884 N   0  0  0  0  0  0  0  0  0  0  0  0
    8.2684  -14.3991   24.8447 C   0  0  1  0  0  0  0  0  0  0  0  0
    6.7338  -14.3785   24.9657 C   0  0  0  0  0  0  0  0  0  0  0  0
    6.2424  -13.8829   26.6193 S   0  0  0  0  0  0  0  0  0  0  0  0
    8.8940  -15.2754   25.8465 C   0  0  0  0  0  0  0  0  0  0  0  0
    8.8330  -16.5374   25.5775 O   0  0  0  0  0  0  0  0  0  0  0  0
    9.5287  -14.8416   27.0276 N   0  0  0  0  0  0  0  0  0  0  0  0
    9.2457  -13.5591   27.6810 C   0  0  0  0  0  0  0  0  0  0  0  0
   10.6546  -13.1992   28.1553 C   0  0  0  0  0  0  0  0  0  0  0  0
   11.0350  -14.5050   28.8214 C   0  0  0  0  0  0  0  0  0  0  0  0
   10.5271  -15.5256   27.7946 C   0  0  1  0  0  0  0  0  0  0  0  0
    9.8971  -16.6676   28.5280 C   0  0  0  0  0  0  0  0  0  0  0  0
   10.6739  -17.5306   29.2660 O   0  0  0  0  0  0  0  0  0  0  0  0
    8.6543  -16.8070   28.4465 O   0  0  0  0  0  0  0  0  0  0  0  0
  2  5  1  0
  2  1  1  6
  3  2  1  0
  4  3  1  0
  5  6  2  0
  7  8  1  0
  7  5  1  0
  8  9  1  1
 10  9  1  0
 11 13  1  0
 11  8  1  0
 12 11  2  0
 13 17  1  0
 14 13  1  0
 14 15  1  0
 15 16  1  0
 17 18  1  1
 17 16  1  0
 18 20  2  0
 18 19  1  0
M  END
$$$$
