CCP.pdb
     RDKit          3D

 20 20  0  0  1  0  0  0  0  0999 V2000
    7.4053  -17.2305   21.5209 N   0  0  0  0  0  0  0  0  0  0  0  0
    8.3899  -16.1873   21.3892 C   0  0  1  0  0  0  0  0  0  0  0  0
    8.1399  -15.3248   20.1786 C   0  0  0  0  0  0  0  0  0  0  0  0
    9.6118  -14.4027   19.6832 S   0  0  0  0  0  0  0  0  0  0  0  0
    8.4484  -15.3076   22.5740 C   0  0  0  0  0  0  0  0  0  0  0  0
    9.3919  -14.4789   22.6415 O   0  0  0  0  0  0  0  0  0  0  0  0
    7.5206  -15.3357   23.6289 N   0  0  0  0  0  0  0  0  0  0  0  0
    7.7080  -14.5571   24.8767 C   0  0  1  0  0  0  0  0  0  0  0  0
    6.2687  -14.4661   25.4152 C   0  0  0  0  0  0  0  0  0  0  0  0
    6.2657  -13.8178   27.0888 S   0  0  0  0  0  0  0  0  0  0  0  0
    8.5994  -15.2862   25.7914 C   0  0  0  0  0  0  0  0  0  0  0  0
    8.7782  -16.5313   25.4974 O   0  0  0  0  0  0  0  0  0  0  0  0
    9.2426  -14.7338   26.9171 N   0  0  0  0  0  0  0  0  0  0  0  0
    9.0016  -13.3722   27.4069 C   0  0  0  0  0  0  0  0  0  0  0  0
   10.4197  -13.0059   27.8476 C   0  0  0  0  0  0  0  0  0  0  0  0
   10.7501  -14.2330   28.6713 C   0  0  0  0  0  0  0  0  0  0  0  0
   10.2120  -15.3532   27.7713 C   0  0  1  0  0  0  0  0  0  0  0  0
    9.5380  -16.3748   28.6320 C   0  0  0  0  0  0  0  0  0  0  0  0
   10.2779  -17.1557   29.4897 O   0  0  0  0  0  0  0  0  0  0  0  0
    8.2933  -16.4914   28.5441 O   0  0  0  0  0  0  0  0  0  0  0  0
  2  5  1  0
  2  1  1  1
  3  2  1  0
  4  3  1  0
  5  6  2  0
  7  8  1  0
  7  5  1  0
  8  9  1  1
 10  9  1  0
 11 13  1  0
 11  8  1  0
 12 11  2  0
 13 17  1  0
 14 13  1  0
 14 15  1  0
 15 16  1  0
 17 18  1  1
 17 16  1  0
 18 20  2  0
 18 19  1  0
M  END
$$$$
