WLK.pdb
     RDKit          3D

 32 33  0  0  1  0  0  0  0  0999 V2000
    6.7435  -18.4221   24.8008 N   0  0  0  0  0  0  0  0  0  0  0  0
    6.9535  -17.0229   24.3904 C   0  0  1  0  0  0  0  0  0  0  0  0
    7.8100  -16.3539   25.4804 C   0  0  0  0  0  0  0  0  0  0  0  0
    7.0053  -15.2757   26.1000 C   0  0  0  0  0  0  0  0  0  0  0  0
    5.6488  -15.3186   26.4316 C   0  0  0  0  0  0  0  0  0  0  0  0
    5.3175  -14.1375   26.9645 N   0  0  0  0  0  0  0  0  0  0  0  0
    6.3642  -13.3114   27.0098 C   0  0  0  0  0  0  0  0  0  0  0  0
    6.5084  -12.0247   27.4626 C   0  0  0  0  0  0  0  0  0  0  0  0
    7.7601  -11.4449   27.3631 C   0  0  0  0  0  0  0  0  0  0  0  0
    8.8555  -12.1154   26.8279 C   0  0  0  0  0  0  0  0  0  0  0  0
    8.6639  -13.4064   26.3856 C   0  0  0  0  0  0  0  0  0  0  0  0
    7.4257  -14.0063   26.4739 C   0  0  0  0  0  0  0  0  0  0  0  0
    7.7632  -17.0266   23.1438 C   0  0  0  0  0  0  0  0  0  0  0  0
    8.1403  -18.1129   22.5977 O   0  0  0  0  0  0  0  0  0  0  0  0
    7.8206  -12.1858   20.2024 C   0  0  0  0  0  0  0  0  0  0  0  0
    7.5949  -13.5620   20.8448 C   0  0  1  0  0  0  0  0  0  0  0  0
    6.4069  -14.1396   20.0810 C   0  0  0  0  0  0  0  0  0  0  0  0
    8.8147  -14.3923   20.6854 C   0  0  0  0  0  0  0  0  0  0  0  0
    8.7613  -15.7703   21.2724 C   0  0  2  0  0  0  0  0  0  0  0  0
    8.1147  -15.7772   22.5644 N   0  0  0  0  0  0  0  0  0  0  0  0
   10.1559  -16.3318   21.3820 C   0  0  0  0  0  0  0  0  0  0  0  0
   10.8140  -16.6729   20.3705 O   0  0  0  0  0  0  0  0  0  0  0  0
   10.7703  -16.4913   22.6409 N   0  0  0  0  0  0  0  0  0  0  0  0
   12.0675  -17.1811   22.7152 C   0  0  1  0  0  0  0  0  0  0  0  0
   13.1702  -16.1638   22.4934 C   0  0  0  0  0  0  0  0  0  0  0  0
   14.5108  -16.7727   22.6353 C   0  0  0  0  0  0  0  0  0  0  0  0
   15.5661  -15.6647   22.4057 C   0  0  0  0  0  0  0  0  0  0  0  0
   16.9113  -16.3355   22.5410 C   0  0  0  0  0  0  0  0  0  0  0  0
   17.9116  -15.3239   22.2951 N   0  0  0  0  0  0  0  0  0  0  0  0
   12.1927  -17.7769   24.0463 C   0  0  0  0  0  0  0  0  0  0  0  0
   13.2153  -18.6359   24.3537 O   0  0  0  0  0  0  0  0  0  0  0  0
   11.3477  -17.5026   24.9310 O   0  0  0  0  0  0  0  0  0  0  0  0
  2  1  1  1
  3  2  1  0
  3  4  1  0
  4 12  1  0
  4  5  2  0
  5  6  1  0
  7  8  2  0
  7  6  1  0
  9  8  1  0
 10  9  2  0
 11 10  1  0
 11 12  2  0
 12  7  1  0
 13  2  1  0
 14 13  2  0
 16 15  1  6
 16 18  1  0
 16 17  1  0
 19 18  1  1
 19 21  1  0
 19 20  1  0
 20 13  1  0
 21 23  1  0
 22 21  2  0
 23 24  1  0
 24 30  1  0
 24 25  1  1
 25 26  1  0
 27 26  1  0
 28 27  1  0
 29 28  1  0
 30 32  2  0
 30 31  1  0
M  END
$$$$
