WLK.pdb
     RDKit          3D

 32 33  0  0  1  0  0  0  0  0999 V2000
    6.7027  -18.2879   25.4293 N   0  0  0  0  0  0  0  0  0  0  0  0
    7.1695  -16.9038   25.2376 C   0  0  1  0  0  0  0  0  0  0  0  0
    8.5526  -16.7948   25.9043 C   0  0  0  0  0  0  0  0  0  0  0  0
    8.5182  -15.6557   26.8505 C   0  0  0  0  0  0  0  0  0  0  0  0
    9.1862  -15.5532   28.0732 C   0  0  0  0  0  0  0  0  0  0  0  0
    8.8812  -14.3673   28.6110 N   0  0  0  0  0  0  0  0  0  0  0  0
    8.0543  -13.6735   27.8267 C   0  0  0  0  0  0  0  0  0  0  0  0
    7.4807  -12.4341   27.9538 C   0  0  0  0  0  0  0  0  0  0  0  0
    6.6531  -12.0013   26.9337 C   0  0  0  0  0  0  0  0  0  0  0  0
    6.3908  -12.7711   25.8048 C   0  0  0  0  0  0  0  0  0  0  0  0
    6.9889  -14.0097   25.7199 C   0  0  0  0  0  0  0  0  0  0  0  0
    7.8178  -14.4636   26.7236 C   0  0  0  0  0  0  0  0  0  0  0  0
    7.3715  -16.6849   23.7812 C   0  0  0  0  0  0  0  0  0  0  0  0
    7.5829  -17.6553   22.9848 O   0  0  0  0  0  0  0  0  0  0  0  0
    8.7562  -12.6519   19.8214 C   0  0  0  0  0  0  0  0  0  0  0  0
    7.4218  -13.3758   20.0517 C   0  0  1  0  0  0  0  0  0  0  0  0
    7.5228  -14.6280   19.1856 C   0  0  0  0  0  0  0  0  0  0  0  0
    7.2761  -13.7062   21.4912 C   0  0  0  0  0  0  0  0  0  0  0  0
    7.5412  -15.1303   21.8757 C   0  0  2  0  0  0  0  0  0  0  0  0
    7.3245  -15.3532   23.2866 N   0  0  0  0  0  0  0  0  0  0  0  0
    8.9510  -15.5063   21.4968 C   0  0  0  0  0  0  0  0  0  0  0  0
    9.3470  -15.4782   20.3073 O   0  0  0  0  0  0  0  0  0  0  0  0
    9.8784  -15.9047   22.4811 N   0  0  0  0  0  0  0  0  0  0  0  0
   11.3052  -15.9665   22.1282 C   0  0  1  0  0  0  0  0  0  0  0  0
   12.1150  -16.0842   23.4050 C   0  0  0  0  0  0  0  0  0  0  0  0
   13.5660  -16.1560   23.1261 C   0  0  0  0  0  0  0  0  0  0  0  0
   14.3074  -16.2811   24.4784 C   0  0  0  0  0  0  0  0  0  0  0  0
   15.7790  -16.3185   24.1454 C   0  0  0  0  0  0  0  0  0  0  0  0
   16.4892  -16.4501   25.3954 N   0  0  0  0  0  0  0  0  0  0  0  0
   11.5173  -17.1455   21.2872 C   0  0  0  0  0  0  0  0  0  0  0  0
   10.7053  -18.2458   21.3775 O   0  0  0  0  0  0  0  0  0  0  0  0
   12.4630  -17.1588   20.4640 O   0  0  0  0  0  0  0  0  0  0  0  0
  2  1  1  6
  3  2  1  0
  3  4  1  0
  4 12  1  0
  4  5  2  0
  5  6  1  0
  7  8  2  0
  7  6  1  0
  9  8  1  0
 10  9  2  0
 11 10  1  0
 11 12  2  0
 12  7  1  0
 13  2  1  0
 14 13  2  0
 16 15  1  1
 16 18  1  0
 16 17  1  0
 19 18  1  1
 19 21  1  0
 19 20  1  0
 20 13  1  0
 21 23  1  0
 22 21  2  0
 23 24  1  0
 24 30  1  0
 24 25  1  1
 25 26  1  0
 27 26  1  0
 28 27  1  0
 29 28  1  0
 30 32  2  0
 30 31  1  0
M  END
$$$$
