WLK.pdb
     RDKit          3D

 32 33  0  0  1  0  0  0  0  0999 V2000
   10.9504  -16.0775   21.6913 N   0  0  0  0  0  0  0  0  0  0  0  0
    9.6384  -15.6140   22.1753 C   0  0  1  0  0  0  0  0  0  0  0  0
    8.5840  -16.6018   21.6443 C   0  0  0  0  0  0  0  0  0  0  0  0
    7.7111  -15.8751   20.6935 C   0  0  0  0  0  0  0  0  0  0  0  0
    6.6092  -16.3834   20.0011 C   0  0  0  0  0  0  0  0  0  0  0  0
    6.1071  -15.3996   19.2470 N   0  0  0  0  0  0  0  0  0  0  0  0
    6.8019  -14.2699   19.3920 C   0  0  0  0  0  0  0  0  0  0  0  0
    6.6669  -13.0229   18.8368 C   0  0  0  0  0  0  0  0  0  0  0  0
    7.5768  -12.0509   19.2111 C   0  0  0  0  0  0  0  0  0  0  0  0
    8.6044  -12.2961   20.1164 C   0  0  0  0  0  0  0  0  0  0  0  0
    8.7015  -13.5635   20.6488 C   0  0  0  0  0  0  0  0  0  0  0  0
    7.8067  -14.5496   20.2915 C   0  0  0  0  0  0  0  0  0  0  0  0
    9.6300  -15.7259   23.6576 C   0  0  0  0  0  0  0  0  0  0  0  0
   10.5751  -16.3008   24.2875 O   0  0  0  0  0  0  0  0  0  0  0  0
    6.0410  -12.3414   26.6868 C   0  0  0  0  0  0  0  0  0  0  0  0
    7.3406  -12.9034   26.0926 C   0  0  1  0  0  0  0  0  0  0  0  0
    8.4422  -12.1062   26.7850 C   0  0  0  0  0  0  0  0  0  0  0  0
    7.4363  -14.3549   26.3871 C   0  0  0  0  0  0  0  0  0  0  0  0
    8.6174  -15.0733   25.8082 C   0  0  2  0  0  0  0  0  0  0  0  0
    8.5314  -15.1721   24.3693 N   0  0  0  0  0  0  0  0  0  0  0  0
    8.7296  -16.4458   26.4214 C   0  0  0  0  0  0  0  0  0  0  0  0
    7.7171  -17.1215   26.7226 O   0  0  0  0  0  0  0  0  0  0  0  0
    9.9924  -17.0184   26.6768 N   0  0  0  0  0  0  0  0  0  0  0  0
   10.0565  -18.3195   27.3604 C   0  0  1  0  0  0  0  0  0  0  0  0
   11.2428  -19.0932   26.8183 C   0  0  0  0  0  0  0  0  0  0  0  0
   11.1502  -19.2785   25.3536 C   0  0  0  0  0  0  0  0  0  0  0  0
   12.3521  -20.1429   24.9039 C   0  0  0  0  0  0  0  0  0  0  0  0
   12.2106  -20.3093   23.4105 C   0  0  0  0  0  0  0  0  0  0  0  0
   13.3414  -21.0890   22.9659 N   0  0  0  0  0  0  0  0  0  0  0  0
   10.2273  -18.0749   28.7934 C   0  0  0  0  0  0  0  0  0  0  0  0
   10.3879  -16.8077   29.2900 O   0  0  0  0  0  0  0  0  0  0  0  0
   10.2307  -19.0415   29.5919 O   0  0  0  0  0  0  0  0  0  0  0  0
  2  1  1  6
  3  2  1  0
  3  4  1  0
  4 12  1  0
  4  5  2  0
  5  6  1  0
  7  8  2  0
  7  6  1  0
  9  8  1  0
 10  9  2  0
 11 10  1  0
 11 12  2  0
 12  7  1  0
 13  2  1  0
 14 13  2  0
 16 15  1  1
 16 18  1  0
 16 17  1  0
 19 18  1  1
 19 21  1  0
 19 20  1  0
 20 13  1  0
 21 23  1  0
 22 21  2  0
 23 24  1  0
 24 30  1  0
 24 25  1  6
 25 26  1  0
 27 26  1  0
 28 27  1  0
 29 28  1  0
 30 32  2  0
 30 31  1  0
M  END
$$$$
