WLK.pdb
     RDKit          3D

 32 33  0  0  1  0  0  0  0  0999 V2000
    6.3511  -18.0874   25.5036 N   0  0  0  0  0  0  0  0  0  0  0  0
    6.9714  -16.7590   25.3587 C   0  0  1  0  0  0  0  0  0  0  0  0
    8.1982  -16.7272   26.2879 C   0  0  0  0  0  0  0  0  0  0  0  0
    8.0343  -15.5934   27.2269 C   0  0  0  0  0  0  0  0  0  0  0  0
    8.3072  -15.5855   28.5971 C   0  0  0  0  0  0  0  0  0  0  0  0
    8.0184  -14.3674   29.0676 N   0  0  0  0  0  0  0  0  0  0  0  0
    7.5715  -13.5638   28.1008 C   0  0  0  0  0  0  0  0  0  0  0  0
    7.1614  -12.2549   28.1015 C   0  0  0  0  0  0  0  0  0  0  0  0
    6.7497  -11.7098   26.8989 C   0  0  0  0  0  0  0  0  0  0  0  0
    6.7397  -12.4360   25.7121 C   0  0  0  0  0  0  0  0  0  0  0  0
    7.1602  -13.7474   25.7590 C   0  0  0  0  0  0  0  0  0  0  0  0
    7.5752  -14.3136   26.9455 C   0  0  0  0  0  0  0  0  0  0  0  0
    7.4784  -16.6382   23.9666 C   0  0  0  0  0  0  0  0  0  0  0  0
    7.9476  -17.6417   23.3393 O   0  0  0  0  0  0  0  0  0  0  0  0
    7.4894  -14.3154   19.0766 C   0  0  0  0  0  0  0  0  0  0  0  0
    8.3394  -13.5762   20.1200 C   0  0  1  0  0  0  0  0  0  0  0  0
    8.2170  -12.1068   19.7272 C   0  0  0  0  0  0  0  0  0  0  0  0
    7.7983  -13.8352   21.4776 C   0  0  0  0  0  0  0  0  0  0  0  0
    7.9789  -15.2244   22.0103 C   0  0  2  0  0  0  0  0  0  0  0  0
    7.4299  -15.3636   23.3395 N   0  0  0  0  0  0  0  0  0  0  0  0
    9.4427  -15.5847   22.0081 C   0  0  0  0  0  0  0  0  0  0  0  0
   10.2381  -15.1295   22.8641 O   0  0  0  0  0  0  0  0  0  0  0  0
    9.9675  -16.4560   21.0319 N   0  0  0  0  0  0  0  0  0  0  0  0
   11.3199  -17.0026   21.2220 C   0  0  1  0  0  0  0  0  0  0  0  0
   11.4824  -18.2153   20.3260 C   0  0  0  0  0  0  0  0  0  0  0  0
   12.8117  -18.8425   20.4924 C   0  0  0  0  0  0  0  0  0  0  0  0
   12.8261  -20.1567   19.6758 C   0  0  0  0  0  0  0  0  0  0  0  0
   14.2130  -20.7307   19.8338 C   0  0  0  0  0  0  0  0  0  0  0  0
   14.2777  -21.9078   19.0003 N   0  0  0  0  0  0  0  0  0  0  0  0
   12.2871  -15.9688   20.8501 C   0  0  0  0  0  0  0  0  0  0  0  0
   13.4038  -15.7266   21.6068 O   0  0  0  0  0  0  0  0  0  0  0  0
   12.0962  -15.2826   19.8183 O   0  0  0  0  0  0  0  0  0  0  0  0
  2  1  1  6
  3  2  1  0
  3  4  1  0
  4 12  1  0
  4  5  2  0
  5  6  1  0
  7  8  2  0
  7  6  1  0
  9  8  1  0
 10  9  2  0
 11 10  1  0
 11 12  2  0
 12  7  1  0
 13  2  1  0
 14 13  2  0
 16 15  1  6
 16 18  1  0
 16 17  1  0
 19 18  1  1
 19 21  1  0
 19 20  1  0
 20 13  1  0
 21 23  1  0
 22 21  2  0
 23 24  1  0
 24 30  1  0
 24 25  1  6
 25 26  1  0
 27 26  1  0
 28 27  1  0
 29 28  1  0
 30 32  2  0
 30 31  1  0
M  END
$$$$
