WLK.pdb
     RDKit          3D

 32 33  0  0  1  0  0  0  0  0999 V2000
    6.0753  -18.1519   24.3629 N   0  0  0  0  0  0  0  0  0  0  0  0
    6.5967  -16.7837   24.2001 C   0  0  1  0  0  0  0  0  0  0  0  0
    7.4095  -16.4543   25.4652 C   0  0  0  0  0  0  0  0  0  0  0  0
    6.7882  -15.2784   26.1174 C   0  0  0  0  0  0  0  0  0  0  0  0
    5.4919  -15.1837   26.6298 C   0  0  0  0  0  0  0  0  0  0  0  0
    5.3342  -13.9520   27.1262 N   0  0  0  0  0  0  0  0  0  0  0  0
    6.4402  -13.2205   26.9783 C   0  0  0  0  0  0  0  0  0  0  0  0
    6.7491  -11.9299   27.3250 C   0  0  0  0  0  0  0  0  0  0  0  0
    8.0175  -11.4691   27.0221 C   0  0  0  0  0  0  0  0  0  0  0  0
    8.9702  -12.2609   26.3886 C   0  0  0  0  0  0  0  0  0  0  0  0
    8.6156  -13.5510   26.0588 C   0  0  0  0  0  0  0  0  0  0  0  0
    7.3574  -14.0336   26.3502 C   0  0  0  0  0  0  0  0  0  0  0  0
    7.5510  -16.7885   23.0604 C   0  0  0  0  0  0  0  0  0  0  0  0
    8.1426  -17.8535   22.6915 O   0  0  0  0  0  0  0  0  0  0  0  0
    6.5028  -14.3866   20.0125 C   0  0  0  0  0  0  0  0  0  0  0  0
    7.9028  -13.9221   19.5860 C   0  0  1  0  0  0  0  0  0  0  0  0
    7.7374  -12.4269   19.3301 C   0  0  0  0  0  0  0  0  0  0  0  0
    8.8721  -14.1953   20.6762 C   0  0  0  0  0  0  0  0  0  0  0  0
    8.7803  -15.5439   21.3236 C   0  0  2  0  0  0  0  0  0  0  0  0
    7.7953  -15.5645   22.3804 N   0  0  0  0  0  0  0  0  0  0  0  0
   10.1311  -15.9449   21.8592 C   0  0  0  0  0  0  0  0  0  0  0  0
   10.6393  -15.3863   22.8603 O   0  0  0  0  0  0  0  0  0  0  0  0
   10.8724  -16.9740   21.2434 N   0  0  0  0  0  0  0  0  0  0  0  0
   12.1806  -17.3413   21.8072 C   0  0  1  0  0  0  0  0  0  0  0  0
   12.4397  -18.8066   21.5146 C   0  0  0  0  0  0  0  0  0  0  0  0
   11.4504  -19.6797   22.1832 C   0  0  0  0  0  0  0  0  0  0  0  0
   11.8135  -21.1487   21.8603 C   0  0  0  0  0  0  0  0  0  0  0  0
   10.6981  -21.9894   22.4323 C   0  0  0  0  0  0  0  0  0  0  0  0
   11.0462  -23.3696   22.1905 N   0  0  0  0  0  0  0  0  0  0  0  0
   13.2030  -16.5118   21.1676 C   0  0  0  0  0  0  0  0  0  0  0  0
   12.9308  -15.7801   20.0412 O   0  0  0  0  0  0  0  0  0  0  0  0
   14.3580  -16.4658   21.6532 O   0  0  0  0  0  0  0  0  0  0  0  0
  2  1  1  1
  3  2  1  0
  3  4  1  0
  4 12  1  0
  4  5  2  0
  5  6  1  0
  7  8  2  0
  7  6  1  0
  9  8  1  0
 10  9  2  0
 11 10  1  0
 11 12  2  0
 12  7  1  0
 13  2  1  0
 14 13  2  0
 16 15  1  1
 16 18  1  0
 16 17  1  0
 19 18  1  1
 19 21  1  0
 19 20  1  0
 20 13  1  0
 21 23  1  0
 22 21  2  0
 23 24  1  0
 24 30  1  0
 24 25  1  6
 25 26  1  0
 27 26  1  0
 28 27  1  0
 29 28  1  0
 30 32  2  0
 30 31  1  0
M  END
$$$$
