WLK.pdb
     RDKit          3D

 32 33  0  0  1  0  0  0  0  0999 V2000
    5.6374  -18.1412   24.3781 N   0  0  0  0  0  0  0  0  0  0  0  0
    6.3246  -16.8432   24.2619 C   0  0  1  0  0  0  0  0  0  0  0  0
    6.9693  -16.5471   25.6279 C   0  0  0  0  0  0  0  0  0  0  0  0
    6.4835  -15.2258   26.0887 C   0  0  0  0  0  0  0  0  0  0  0  0
    5.1709  -14.8754   26.4144 C   0  0  0  0  0  0  0  0  0  0  0  0
    5.1664  -13.5885   26.7781 N   0  0  0  0  0  0  0  0  0  0  0  0
    6.3896  -13.0592   26.7163 C   0  0  0  0  0  0  0  0  0  0  0  0
    6.8693  -11.8035   26.9892 C   0  0  0  0  0  0  0  0  0  0  0  0
    8.2238  -11.5820   26.8190 C   0  0  0  0  0  0  0  0  0  0  0  0
    9.0966  -12.5760   26.3878 C   0  0  0  0  0  0  0  0  0  0  0  0
    8.5704  -13.8223   26.1256 C   0  0  0  0  0  0  0  0  0  0  0  0
    7.2235  -14.0680   26.2875 C   0  0  0  0  0  0  0  0  0  0  0  0
    7.4330  -16.9964   23.2832 C   0  0  0  0  0  0  0  0  0  0  0  0
    7.8929  -18.1418   22.9717 O   0  0  0  0  0  0  0  0  0  0  0  0
    8.4564  -12.5145   20.0201 C   0  0  0  0  0  0  0  0  0  0  0  0
    8.0199  -13.8534   20.6321 C   0  0  1  0  0  0  0  0  0  0  0  0
    7.1489  -14.4900   19.5530 C   0  0  0  0  0  0  0  0  0  0  0  0
    9.2172  -14.6759   20.9366 C   0  0  0  0  0  0  0  0  0  0  0  0
    8.9696  -15.9693   21.6522 C   0  0  2  0  0  0  0  0  0  0  0  0
    7.9786  -15.8240   22.6934 N   0  0  0  0  0  0  0  0  0  0  0  0
   10.2622  -16.4882   22.2286 C   0  0  0  0  0  0  0  0  0  0  0  0
   10.8871  -15.8658   23.1200 O   0  0  0  0  0  0  0  0  0  0  0  0
   10.8137  -17.7049   21.7778 N   0  0  0  0  0  0  0  0  0  0  0  0
   12.2768  -17.8333   21.6946 C   0  0  1  0  0  0  0  0  0  0  0  0
   12.7300  -17.3358   20.3356 C   0  0  0  0  0  0  0  0  0  0  0  0
   14.2051  -17.3165   20.2258 C   0  0  0  0  0  0  0  0  0  0  0  0
   14.5713  -17.1474   18.7320 C   0  0  0  0  0  0  0  0  0  0  0  0
   16.0792  -17.1627   18.6679 C   0  0  0  0  0  0  0  0  0  0  0  0
   16.4402  -17.1517   17.2701 N   0  0  0  0  0  0  0  0  0  0  0  0
   12.8684  -17.0139   22.7535 C   0  0  0  0  0  0  0  0  0  0  0  0
   13.4324  -17.5797   23.8670 O   0  0  0  0  0  0  0  0  0  0  0  0
   12.8609  -15.7645   22.6488 O   0  0  0  0  0  0  0  0  0  0  0  0
  2  1  1  1
  3  2  1  0
  3  4  1  0
  4 12  1  0
  4  5  2  0
  5  6  1  0
  7  8  2  0
  7  6  1  0
  9  8  1  0
 10  9  2  0
 11 10  1  0
 11 12  2  0
 12  7  1  0
 13  2  1  0
 14 13  2  0
 16 15  1  6
 16 18  1  0
 16 17  1  0
 19 18  1  1
 19 21  1  0
 19 20  1  0
 20 13  1  0
 21 23  1  0
 22 21  2  0
 23 24  1  0
 24 30  1  0
 24 25  1  6
 25 26  1  0
 27 26  1  0
 28 27  1  0
 29 28  1  0
 30 32  2  0
 30 31  1  0
M  END
$$$$
