WLK.pdb
     RDKit          3D

 32 33  0  0  1  0  0  0  0  0999 V2000
    6.2821  -18.2410   23.9117 N   0  0  0  0  0  0  0  0  0  0  0  0
    6.7614  -16.8507   23.8247 C   0  0  1  0  0  0  0  0  0  0  0  0
    7.4168  -16.5112   25.1755 C   0  0  0  0  0  0  0  0  0  0  0  0
    6.6935  -15.3585   25.7604 C   0  0  0  0  0  0  0  0  0  0  0  0
    5.3689  -15.3295   26.2038 C   0  0  0  0  0  0  0  0  0  0  0  0
    5.1125  -14.0970   26.6550 N   0  0  0  0  0  0  0  0  0  0  0  0
    6.1792  -13.3036   26.5415 C   0  0  0  0  0  0  0  0  0  0  0  0
    6.3922  -11.9878   26.8652 C   0  0  0  0  0  0  0  0  0  0  0  0
    7.6450  -11.4588   26.6131 C   0  0  0  0  0  0  0  0  0  0  0  0
    8.6749  -12.2074   26.0521 C   0  0  0  0  0  0  0  0  0  0  0  0
    8.4153  -13.5251   25.7432 C   0  0  0  0  0  0  0  0  0  0  0  0
    7.1747  -14.0756   25.9848 C   0  0  0  0  0  0  0  0  0  0  0  0
    7.8340  -16.7982   22.7968 C   0  0  0  0  0  0  0  0  0  0  0  0
    8.4630  -17.8446   22.4366 O   0  0  0  0  0  0  0  0  0  0  0  0
    8.0179  -12.0600   19.7617 C   0  0  0  0  0  0  0  0  0  0  0  0
    7.8086  -13.4594   20.3580 C   0  0  1  0  0  0  0  0  0  0  0  0
    6.8611  -14.1444   19.3775 C   0  0  0  0  0  0  0  0  0  0  0  0
    9.1130  -14.1610   20.4523 C   0  0  0  0  0  0  0  0  0  0  0  0
    9.1000  -15.4988   21.1279 C   0  0  2  0  0  0  0  0  0  0  0  0
    8.1496  -15.5402   22.2153 N   0  0  0  0  0  0  0  0  0  0  0  0
   10.4828  -15.8304   21.6282 C   0  0  0  0  0  0  0  0  0  0  0  0
   11.4818  -15.8190   20.8704 O   0  0  0  0  0  0  0  0  0  0  0  0
   10.6971  -16.1662   22.9806 N   0  0  0  0  0  0  0  0  0  0  0  0
   12.0717  -16.4184   23.4400 C   0  0  1  0  0  0  0  0  0  0  0  0
   12.0919  -16.3717   24.9557 C   0  0  0  0  0  0  0  0  0  0  0  0
   11.5235  -17.6027   25.5471 C   0  0  0  0  0  0  0  0  0  0  0  0
   11.6789  -17.5110   27.0838 C   0  0  0  0  0  0  0  0  0  0  0  0
   11.1669  -18.8199   27.6337 C   0  0  0  0  0  0  0  0  0  0  0  0
   12.0814  -19.2243   28.6751 N   0  0  0  0  0  0  0  0  0  0  0  0
   12.4736  -17.7458   22.9720 C   0  0  0  0  0  0  0  0  0  0  0  0
   11.5975  -18.5697   22.3149 O   0  0  0  0  0  0  0  0  0  0  0  0
   13.6439  -18.1473   23.1748 O   0  0  0  0  0  0  0  0  0  0  0  0
  2  1  1  1
  3  2  1  0
  3  4  1  0
  4 12  1  0
  4  5  2  0
  5  6  1  0
  7  8  2  0
  7  6  1  0
  9  8  1  0
 10  9  2  0
 11 10  1  0
 11 12  2  0
 12  7  1  0
 13  2  1  0
 14 13  2  0
 16 15  1  6
 16 18  1  0
 16 17  1  0
 19 18  1  1
 19 21  1  0
 19 20  1  0
 20 13  1  0
 21 23  1  0
 22 21  2  0
 23 24  1  0
 24 30  1  0
 24 25  1  1
 25 26  1  0
 27 26  1  0
 28 27  1  0
 29 28  1  0
 30 32  2  0
 30 31  1  0
M  END
$$$$
