WLK.pdb
     RDKit          3D

 32 33  0  0  1  0  0  0  0  0999 V2000
    5.5940  -17.9016   24.2583 N   0  0  0  0  0  0  0  0  0  0  0  0
    6.5622  -16.8137   24.4803 C   0  0  1  0  0  0  0  0  0  0  0  0
    7.4795  -17.2514   25.6363 C   0  0  0  0  0  0  0  0  0  0  0  0
    7.7743  -16.0599   26.4655 C   0  0  0  0  0  0  0  0  0  0  0  0
    8.5721  -16.0047   27.6110 C   0  0  0  0  0  0  0  0  0  0  0  0
    8.5706  -14.7427   28.0536 N   0  0  0  0  0  0  0  0  0  0  0  0
    7.8245  -13.9541   27.2780 C   0  0  0  0  0  0  0  0  0  0  0  0
    7.5298  -12.6155   27.3309 C   0  0  0  0  0  0  0  0  0  0  0  0
    6.7058  -12.0995   26.3472 C   0  0  0  0  0  0  0  0  0  0  0  0
    6.1778  -12.8831   25.3258 C   0  0  0  0  0  0  0  0  0  0  0  0
    6.5009  -14.2226   25.3125 C   0  0  0  0  0  0  0  0  0  0  0  0
    7.3202  -14.7607   26.2820 C   0  0  0  0  0  0  0  0  0  0  0  0
    7.4151  -16.7035   23.2678 C   0  0  0  0  0  0  0  0  0  0  0  0
    7.6922  -17.7203   22.5537 O   0  0  0  0  0  0  0  0  0  0  0  0
    7.4418  -11.9352   20.4145 C   0  0  0  0  0  0  0  0  0  0  0  0
    7.3322  -13.3863   20.9043 C   0  0  1  0  0  0  0  0  0  0  0  0
    6.6169  -14.1104   19.7675 C   0  0  0  0  0  0  0  0  0  0  0  0
    8.6901  -13.9349   21.1449 C   0  0  0  0  0  0  0  0  0  0  0  0
    8.7553  -15.3092   21.7393 C   0  0  2  0  0  0  0  0  0  0  0  0
    7.9237  -15.4240   22.9151 N   0  0  0  0  0  0  0  0  0  0  0  0
   10.1846  -15.6525   22.0734 C   0  0  0  0  0  0  0  0  0  0  0  0
   11.1172  -15.4757   21.2539 O   0  0  0  0  0  0  0  0  0  0  0  0
   10.5200  -16.1884   23.3335 N   0  0  0  0  0  0  0  0  0  0  0  0
   11.9211  -16.5475   23.6019 C   0  0  1  0  0  0  0  0  0  0  0  0
   12.0287  -17.0426   25.0313 C   0  0  0  0  0  0  0  0  0  0  0  0
   11.8289  -15.9468   26.0048 C   0  0  0  0  0  0  0  0  0  0  0  0
   11.9270  -16.5471   27.4275 C   0  0  0  0  0  0  0  0  0  0  0  0
   11.7335  -15.3935   28.3812 C   0  0  0  0  0  0  0  0  0  0  0  0
   11.6643  -15.9542   29.7098 N   0  0  0  0  0  0  0  0  0  0  0  0
   12.3072  -17.6091   22.6711 C   0  0  0  0  0  0  0  0  0  0  0  0
   11.3902  -18.5034   22.1837 O   0  0  0  0  0  0  0  0  0  0  0  0
   13.5028  -17.7116   22.3080 O   0  0  0  0  0  0  0  0  0  0  0  0
  2  1  1  6
  3  2  1  0
  3  4  1  0
  4 12  1  0
  4  5  2  0
  5  6  1  0
  7  8  2  0
  7  6  1  0
  9  8  1  0
 10  9  2  0
 11 10  1  0
 11 12  2  0
 12  7  1  0
 13  2  1  0
 14 13  2  0
 16 15  1  6
 16 18  1  0
 16 17  1  0
 19 18  1  1
 19 21  1  0
 19 20  1  0
 20 13  1  0
 21 23  1  0
 22 21  2  0
 23 24  1  0
 24 30  1  0
 24 25  1  1
 25 26  1  0
 27 26  1  0
 28 27  1  0
 29 28  1  0
 30 32  2  0
 30 31  1  0
M  END
$$$$
