WLK.pdb
     RDKit          3D

 32 33  0  0  1  0  0  0  0  0999 V2000
    6.0967  -18.5545   23.8677 N   0  0  0  0  0  0  0  0  0  0  0  0
    6.5109  -17.1428   23.9449 C   0  0  1  0  0  0  0  0  0  0  0  0
    7.1681  -16.9373   25.3216 C   0  0  0  0  0  0  0  0  0  0  0  0
    6.7264  -15.6261   25.8506 C   0  0  0  0  0  0  0  0  0  0  0  0
    5.4210  -15.2374   26.1615 C   0  0  0  0  0  0  0  0  0  0  0  0
    5.4614  -13.9763   26.6048 N   0  0  0  0  0  0  0  0  0  0  0  0
    6.7077  -13.5000   26.6099 C   0  0  0  0  0  0  0  0  0  0  0  0
    7.2329  -12.2864   26.9740 C   0  0  0  0  0  0  0  0  0  0  0  0
    8.6003  -12.1163   26.8553 C   0  0  0  0  0  0  0  0  0  0  0  0
    9.4419  -13.1204   26.3869 C   0  0  0  0  0  0  0  0  0  0  0  0
    8.8702  -14.3232   26.0328 C   0  0  0  0  0  0  0  0  0  0  0  0
    7.5096  -14.5173   26.1419 C   0  0  0  0  0  0  0  0  0  0  0  0
    7.5661  -16.9172   22.9225 C   0  0  0  0  0  0  0  0  0  0  0  0
    8.2769  -17.8744   22.4765 O   0  0  0  0  0  0  0  0  0  0  0  0
    7.6101  -11.9588   20.1658 C   0  0  0  0  0  0  0  0  0  0  0  0
    7.4777  -13.4206   20.6166 C   0  0  1  0  0  0  0  0  0  0  0  0
    6.8856  -14.1325   19.4038 C   0  0  0  0  0  0  0  0  0  0  0  0
    8.8151  -13.9543   20.9760 C   0  0  0  0  0  0  0  0  0  0  0  0
    8.8493  -15.3524   21.5149 C   0  0  2  0  0  0  0  0  0  0  0  0
    7.7707  -15.5941   22.4452 N   0  0  0  0  0  0  0  0  0  0  0  0
   10.1789  -15.6112   22.1762 C   0  0  0  0  0  0  0  0  0  0  0  0
   11.2648  -15.3768   21.5945 O   0  0  0  0  0  0  0  0  0  0  0  0
   10.2422  -16.1299   23.4856 N   0  0  0  0  0  0  0  0  0  0  0  0
   11.5559  -16.4797   24.0477 C   0  0  1  0  0  0  0  0  0  0  0  0
   11.3414  -17.2713   25.3234 C   0  0  0  0  0  0  0  0  0  0  0  0
   12.6236  -17.7193   25.9095 C   0  0  0  0  0  0  0  0  0  0  0  0
   12.3068  -18.5396   27.1827 C   0  0  0  0  0  0  0  0  0  0  0  0
   13.6395  -18.9795   27.7378 C   0  0  0  0  0  0  0  0  0  0  0  0
   13.3647  -19.7595   28.9212 N   0  0  0  0  0  0  0  0  0  0  0  0
   12.2715  -17.2942   23.0643 C   0  0  0  0  0  0  0  0  0  0  0  0
   11.6146  -18.1887   22.2603 O   0  0  0  0  0  0  0  0  0  0  0  0
   13.5148  -17.1791   22.9500 O   0  0  0  0  0  0  0  0  0  0  0  0
  2  1  1  1
  3  2  1  0
  3  4  1  0
  4 12  1  0
  4  5  2  0
  5  6  1  0
  7  8  2  0
  7  6  1  0
  9  8  1  0
 10  9  2  0
 11 10  1  0
 11 12  2  0
 12  7  1  0
 13  2  1  0
 14 13  2  0
 16 15  1  6
 16 18  1  0
 16 17  1  0
 19 18  1  1
 19 21  1  0
 19 20  1  0
 20 13  1  0
 21 23  1  0
 22 21  2  0
 23 24  1  0
 24 30  1  0
 24 25  1  1
 25 26  1  0
 27 26  1  0
 28 27  1  0
 29 28  1  0
 30 32  2  0
 30 31  1  0
M  END
$$$$
