WLK.pdb
     RDKit          3D

 32 33  0  0  1  0  0  0  0  0999 V2000
    6.6085  -18.0681   24.4823 N   0  0  0  0  0  0  0  0  0  0  0  0
    7.0049  -16.7140   24.0585 C   0  0  1  0  0  0  0  0  0  0  0  0
    7.8998  -16.1347   25.1689 C   0  0  0  0  0  0  0  0  0  0  0  0
    7.1075  -15.1366   25.9240 C   0  0  0  0  0  0  0  0  0  0  0  0
    5.8600  -15.3272   26.5233 C   0  0  0  0  0  0  0  0  0  0  0  0
    5.4979  -14.1743   27.0964 N   0  0  0  0  0  0  0  0  0  0  0  0
    6.4224  -13.2289   26.9182 C   0  0  0  0  0  0  0  0  0  0  0  0
    6.4936  -11.9179   27.3153 C   0  0  0  0  0  0  0  0  0  0  0  0
    7.6190  -11.1982   26.9572 C   0  0  0  0  0  0  0  0  0  0  0  0
    8.6603  -11.7542   26.2207 C   0  0  0  0  0  0  0  0  0  0  0  0
    8.5456  -13.0746   25.8435 C   0  0  0  0  0  0  0  0  0  0  0  0
    7.4337  -13.8131   26.1882 C   0  0  0  0  0  0  0  0  0  0  0  0
    7.8505  -16.8424   22.8427 C   0  0  0  0  0  0  0  0  0  0  0  0
    8.2388  -17.9780   22.4184 O   0  0  0  0  0  0  0  0  0  0  0  0
    8.0492  -12.1635   19.8329 C   0  0  0  0  0  0  0  0  0  0  0  0
    7.7491  -13.5417   20.4399 C   0  0  1  0  0  0  0  0  0  0  0  0
    6.4326  -13.9567   19.7897 C   0  0  0  0  0  0  0  0  0  0  0  0
    8.8508  -14.4809   20.1127 C   0  0  0  0  0  0  0  0  0  0  0  0
    8.8612  -15.7789   20.8619 C   0  0  2  0  0  0  0  0  0  0  0  0
    8.2237  -15.6572   22.1526 N   0  0  0  0  0  0  0  0  0  0  0  0
   10.2797  -16.2632   21.0221 C   0  0  0  0  0  0  0  0  0  0  0  0
   11.0108  -16.5106   20.0338 O   0  0  0  0  0  0  0  0  0  0  0  0
   10.8341  -16.4539   22.3043 N   0  0  0  0  0  0  0  0  0  0  0  0
   12.2441  -16.8587   22.4148 C   0  0  1  0  0  0  0  0  0  0  0  0
   13.1180  -15.6664   22.0765 C   0  0  0  0  0  0  0  0  0  0  0  0
   13.8647  -15.8772   20.8170 C   0  0  0  0  0  0  0  0  0  0  0  0
   14.7711  -14.6445   20.5863 C   0  0  0  0  0  0  0  0  0  0  0  0
   15.5391  -14.9232   19.3173 C   0  0  0  0  0  0  0  0  0  0  0  0
   16.2507  -13.7124   18.9826 N   0  0  0  0  0  0  0  0  0  0  0  0
   12.4897  -17.2881   23.7924 C   0  0  0  0  0  0  0  0  0  0  0  0
   13.6332  -17.9580   24.1412 O   0  0  0  0  0  0  0  0  0  0  0  0
   11.6383  -17.0438   24.6798 O   0  0  0  0  0  0  0  0  0  0  0  0
  2  1  1  1
  3  2  1  0
  3  4  1  0
  4 12  1  0
  4  5  2  0
  5  6  1  0
  7  8  2  0
  7  6  1  0
  9  8  1  0
 10  9  2  0
 11 10  1  0
 11 12  2  0
 12  7  1  0
 13  2  1  0
 14 13  2  0
 16 15  1  6
 16 18  1  0
 16 17  1  0
 19 18  1  1
 19 21  1  0
 19 20  1  0
 20 13  1  0
 21 23  1  0
 22 21  2  0
 23 24  1  0
 24 30  1  0
 24 25  1  1
 25 26  1  0
 27 26  1  0
 28 27  1  0
 29 28  1  0
 30 32  2  0
 30 31  1  0
M  END
$$$$
