WLK.pdb
     RDKit          3D

 32 33  0  0  1  0  0  0  0  0999 V2000
    6.4740  -18.1653   24.2537 N   0  0  0  0  0  0  0  0  0  0  0  0
    6.9252  -16.7847   24.0075 C   0  0  1  0  0  0  0  0  0  0  0  0
    7.9481  -16.4391   25.1045 C   0  0  0  0  0  0  0  0  0  0  0  0
    7.3833  -15.3484   25.9325 C   0  0  0  0  0  0  0  0  0  0  0  0
    6.4300  -15.4655   26.9471 C   0  0  0  0  0  0  0  0  0  0  0  0
    6.1955  -14.2426   27.4350 N   0  0  0  0  0  0  0  0  0  0  0  0
    6.9302  -13.3192   26.8123 C   0  0  0  0  0  0  0  0  0  0  0  0
    7.0306  -11.9597   26.9644 C   0  0  0  0  0  0  0  0  0  0  0  0
    7.9103  -11.2839   26.1384 C   0  0  0  0  0  0  0  0  0  0  0  0
    8.6811  -11.9301   25.1770 C   0  0  0  0  0  0  0  0  0  0  0  0
    8.5473  -13.2966   25.0598 C   0  0  0  0  0  0  0  0  0  0  0  0
    7.6771  -13.9928   25.8715 C   0  0  0  0  0  0  0  0  0  0  0  0
    7.6544  -16.7639   22.7123 C   0  0  0  0  0  0  0  0  0  0  0  0
    7.9396  -17.8379   22.0913 O   0  0  0  0  0  0  0  0  0  0  0  0
    6.4905  -13.8541   19.6453 C   0  0  0  0  0  0  0  0  0  0  0  0
    7.9614  -13.6545   19.2523 C   0  0  1  0  0  0  0  0  0  0  0  0
    8.0701  -12.1604   18.9620 C   0  0  0  0  0  0  0  0  0  0  0  0
    8.8380  -14.0672   20.3766 C   0  0  0  0  0  0  0  0  0  0  0  0
    8.6647  -15.4707   20.8729 C   0  0  2  0  0  0  0  0  0  0  0  0
    8.0338  -15.5051   22.1722 N   0  0  0  0  0  0  0  0  0  0  0  0
   10.0031  -16.1625   20.9224 C   0  0  0  0  0  0  0  0  0  0  0  0
   10.4218  -16.8638   19.9709 O   0  0  0  0  0  0  0  0  0  0  0  0
   10.8352  -16.0391   22.0538 N   0  0  0  0  0  0  0  0  0  0  0  0
   12.2091  -16.5604   21.9845 C   0  0  1  0  0  0  0  0  0  0  0  0
   13.1300  -15.4406   21.5399 C   0  0  0  0  0  0  0  0  0  0  0  0
   13.3713  -15.4795   20.0809 C   0  0  0  0  0  0  0  0  0  0  0  0
   14.3586  -14.3414   19.7289 C   0  0  0  0  0  0  0  0  0  0  0  0
   14.6249  -14.4633   18.2483 C   0  0  0  0  0  0  0  0  0  0  0  0
   15.3829  -13.2973   17.8606 N   0  0  0  0  0  0  0  0  0  0  0  0
   12.5895  -17.0248   23.3195 C   0  0  0  0  0  0  0  0  0  0  0  0
   12.5015  -16.2063   24.4151 O   0  0  0  0  0  0  0  0  0  0  0  0
   13.0092  -18.1963   23.4730 O   0  0  0  0  0  0  0  0  0  0  0  0
  2  1  1  1
  3  2  1  0
  3  4  1  0
  4 12  1  0
  4  5  2  0
  5  6  1  0
  7  8  2  0
  7  6  1  0
  9  8  1  0
 10  9  2  0
 11 10  1  0
 11 12  2  0
 12  7  1  0
 13  2  1  0
 14 13  2  0
 16 15  1  1
 16 18  1  0
 16 17  1  0
 19 18  1  1
 19 21  1  0
 19 20  1  0
 20 13  1  0
 21 23  1  0
 22 21  2  0
 23 24  1  0
 24 30  1  0
 24 25  1  1
 25 26  1  0
 27 26  1  0
 28 27  1  0
 29 28  1  0
 30 32  2  0
 30 31  1  0
M  END
$$$$
