WLK.pdb
     RDKit          3D

 32 33  0  0  1  0  0  0  0  0999 V2000
    8.4168  -17.0298   22.1944 N   0  0  0  0  0  0  0  0  0  0  0  0
    9.8295  -16.7567   22.5108 C   0  0  1  0  0  0  0  0  0  0  0  0
   10.4274  -16.0065   21.3071 C   0  0  0  0  0  0  0  0  0  0  0  0
    9.3114  -15.4129   20.5349 C   0  0  0  0  0  0  0  0  0  0  0  0
    8.6767  -15.9558   19.4150 C   0  0  0  0  0  0  0  0  0  0  0  0
    7.7276  -15.0987   19.0236 N   0  0  0  0  0  0  0  0  0  0  0  0
    7.6885  -14.0212   19.8094 C   0  0  0  0  0  0  0  0  0  0  0  0
    6.8998  -12.8990   19.8022 C   0  0  0  0  0  0  0  0  0  0  0  0
    7.1240  -11.9497   20.7827 C   0  0  0  0  0  0  0  0  0  0  0  0
    8.1065  -12.0971   21.7569 C   0  0  0  0  0  0  0  0  0  0  0  0
    8.8748  -13.2406   21.7252 C   0  0  0  0  0  0  0  0  0  0  0  0
    8.6707  -14.2015   20.7579 C   0  0  0  0  0  0  0  0  0  0  0  0
    9.8689  -15.8231   23.6669 C   0  0  0  0  0  0  0  0  0  0  0  0
   10.9216  -15.1701   23.9600 O   0  0  0  0  0  0  0  0  0  0  0  0
    5.7051  -12.9475   26.2539 C   0  0  0  0  0  0  0  0  0  0  0  0
    7.0701  -13.3475   25.6757 C   0  0  1  0  0  0  0  0  0  0  0  0
    7.9792  -12.1708   26.0184 C   0  0  0  0  0  0  0  0  0  0  0  0
    7.5300  -14.6080   26.3100 C   0  0  0  0  0  0  0  0  0  0  0  0
    8.8212  -15.1744   25.8018 C   0  0  2  0  0  0  0  0  0  0  0  0
    8.6933  -15.6708   24.4510 N   0  0  0  0  0  0  0  0  0  0  0  0
    9.2925  -16.2725   26.7207 C   0  0  0  0  0  0  0  0  0  0  0  0
    9.3771  -16.1076   27.9609 O   0  0  0  0  0  0  0  0  0  0  0  0
    9.6558  -17.5341   26.2068 N   0  0  0  0  0  0  0  0  0  0  0  0
   10.2403  -18.5301   27.1180 C   0  0  1  0  0  0  0  0  0  0  0  0
   10.5920  -19.7700   26.3188 C   0  0  0  0  0  0  0  0  0  0  0  0
   11.1957  -20.8163   27.1725 C   0  0  0  0  0  0  0  0  0  0  0  0
   10.5500  -22.1714   26.7971 C   0  0  0  0  0  0  0  0  0  0  0  0
   11.1783  -23.1990   27.7065 C   0  0  0  0  0  0  0  0  0  0  0  0
   10.5306  -24.4588   27.4275 N   0  0  0  0  0  0  0  0  0  0  0  0
   11.4482  -17.9539   27.7109 C   0  0  0  0  0  0  0  0  0  0  0  0
   12.3820  -17.3045   26.9464 O   0  0  0  0  0  0  0  0  0  0  0  0
   11.6423  -18.0544   28.9454 O   0  0  0  0  0  0  0  0  0  0  0  0
  2  1  1  6
  3  2  1  0
  3  4  1  0
  4 12  1  0
  4  5  2  0
  5  6  1  0
  7  8  2  0
  7  6  1  0
  9  8  1  0
 10  9  2  0
 11 10  1  0
 11 12  2  0
 12  7  1  0
 13  2  1  0
 14 13  2  0
 16 15  1  1
 16 18  1  0
 16 17  1  0
 19 18  1  1
 19 21  1  0
 19 20  1  0
 20 13  1  0
 21 23  1  0
 22 21  2  0
 23 24  1  0
 24 30  1  0
 24 25  1  6
 25 26  1  0
 27 26  1  0
 28 27  1  0
 29 28  1  0
 30 32  2  0
 30 31  1  0
M  END
$$$$
