AIP.pdb
     RDKit          3D

 21 21  0  0  1  0  0  0  0  0999 V2000
    9.7944  -17.7059   21.6024 C   0  0  0  0  0  0  0  0  0  0  0  0
    9.3108  -16.2981   21.3853 C   0  0  2  0  0  0  0  0  0  0  0  0
   10.0285  -15.7386   20.2581 N   0  0  0  0  0  0  0  0  0  0  0  0
    9.5589  -15.4882   22.6398 C   0  0  0  0  0  0  0  0  0  0  0  0
   10.6364  -14.9281   22.8365 O   0  0  0  0  0  0  0  0  0  0  0  0
    6.0157  -12.3591   26.4412 C   0  0  0  0  0  0  0  0  0  0  0  0
    7.4300  -12.7807   26.0751 C   0  0  0  0  0  0  0  0  0  0  0  0
    7.3033  -13.9343   25.0971 C   0  0  2  0  0  0  0  0  0  0  0  0
    6.3106  -14.9703   25.6804 C   0  0  0  0  0  0  0  0  0  0  0  0
    8.5534  -14.6736   24.8307 C   0  0  2  0  0  0  0  0  0  0  0  0
    8.5121  -15.4003   23.5711 N   0  0  0  0  0  0  0  0  0  0  0  0
    9.1781  -15.4292   25.9199 C   0  0  0  0  0  0  0  0  0  0  0  0
    9.2696  -16.6988   25.6894 O   0  0  0  0  0  0  0  0  0  0  0  0
    9.6926  -15.0377   27.1533 N   0  0  0  0  0  0  0  0  0  0  0  0
    9.3548  -13.7347   27.7772 C   0  0  0  0  0  0  0  0  0  0  0  0
   10.6514  -13.4021   28.4773 C   0  0  0  0  0  0  0  0  0  0  0  0
   10.8762  -14.7296   29.2071 C   0  0  0  0  0  0  0  0  0  0  0  0
   10.5773  -15.7076   28.0632 C   0  0  1  0  0  0  0  0  0  0  0  0
    9.9749  -16.9362   28.6210 C   0  0  0  0  0  0  0  0  0  0  0  0
    8.7914  -17.2836   28.5462 O   0  0  0  0  0  0  0  0  0  0  0  0
   10.8509  -17.7976   29.3101 O   0  0  0  0  0  0  0  0  0  0  0  0
  2  1  1  1
  2  4  1  0
  3  2  1  0
  4  5  2  0
  7  6  1  0
  8  7  1  0
  8  9  1  1
 10  8  1  0
 11  4  1  0
 10 11  1  6
 12 14  1  0
 12 10  1  0
 13 12  2  0
 14 18  1  0
 15 14  1  0
 15 16  1  0
 16 17  1  0
 17 18  1  0
 18 19  1  1
 19 21  1  0
 20 19  2  0
M  END
$$$$
