AIP.pdb
     RDKit          3D

 21 21  0  0  1  0  0  0  0  0999 V2000
    9.3790  -17.3599   21.5444 C   0  0  0  0  0  0  0  0  0  0  0  0
    8.9840  -15.9099   21.4794 C   0  0  2  0  0  0  0  0  0  0  0  0
    9.7215  -15.2847   20.4005 N   0  0  0  0  0  0  0  0  0  0  0  0
    9.2998  -15.2488   22.8040 C   0  0  0  0  0  0  0  0  0  0  0  0
   10.3856  -14.7064   23.0050 O   0  0  0  0  0  0  0  0  0  0  0  0
    5.5849  -12.1435   25.4729 C   0  0  0  0  0  0  0  0  0  0  0  0
    6.8926  -12.6587   24.8929 C   0  0  0  0  0  0  0  0  0  0  0  0
    7.1491  -14.0133   25.5275 C   0  0  2  0  0  0  0  0  0  0  0  0
    7.2478  -13.8295   27.0622 C   0  0  0  0  0  0  0  0  0  0  0  0
    8.4036  -14.6739   25.1151 C   0  0  2  0  0  0  0  0  0  0  0  0
    8.3061  -15.2781   23.7953 N   0  0  0  0  0  0  0  0  0  0  0  0
    9.1215  -15.5051   26.0854 C   0  0  0  0  0  0  0  0  0  0  0  0
    9.0355  -16.7742   25.8508 O   0  0  0  0  0  0  0  0  0  0  0  0
    9.8790  -15.1856   27.2094 N   0  0  0  0  0  0  0  0  0  0  0  0
    9.8339  -13.8446   27.8426 C   0  0  0  0  0  0  0  0  0  0  0  0
   11.2606  -13.6984   28.3171 C   0  0  0  0  0  0  0  0  0  0  0  0
   11.4112  -15.0409   29.0384 C   0  0  0  0  0  0  0  0  0  0  0  0
   10.7960  -15.9713   27.9847 C   0  0  1  0  0  0  0  0  0  0  0  0
   10.1248  -17.0979   28.6658 C   0  0  0  0  0  0  0  0  0  0  0  0
   10.6633  -18.0933   29.1620 O   0  0  0  0  0  0  0  0  0  0  0  0
    8.7210  -17.0205   28.7540 O   0  0  0  0  0  0  0  0  0  0  0  0
  2  1  1  1
  2  4  1  0
  3  2  1  0
  4  5  2  0
  7  6  1  0
  8  7  1  0
  8  9  1  1
 10  8  1  0
 11  4  1  0
 10 11  1  6
 12 14  1  0
 12 10  1  0
 13 12  2  0
 14 18  1  0
 15 14  1  0
 15 16  1  0
 16 17  1  0
 17 18  1  0
 18 19  1  1
 19 21  1  0
 20 19  2  0
M  END
$$$$
