AIP.pdb
     RDKit          3D

 21 21  0  0  1  0  0  0  0  0999 V2000
    9.5634  -17.6611   21.7301 C   0  0  0  0  0  0  0  0  0  0  0  0
    9.1211  -16.2482   21.4636 C   0  0  2  0  0  0  0  0  0  0  0  0
    9.8445  -15.7544   20.3095 N   0  0  0  0  0  0  0  0  0  0  0  0
    9.4065  -15.3994   22.6839 C   0  0  0  0  0  0  0  0  0  0  0  0
   10.4791  -14.8118   22.8175 O   0  0  0  0  0  0  0  0  0  0  0  0
    6.0491  -12.1149   26.4782 C   0  0  0  0  0  0  0  0  0  0  0  0
    7.4036  -12.7906   26.3345 C   0  0  0  0  0  0  0  0  0  0  0  0
    7.2780  -13.7845   25.1945 C   0  0  2  0  0  0  0  0  0  0  0  0
    6.1760  -14.8118   25.5534 C   0  0  0  0  0  0  0  0  0  0  0  0
    8.4934  -14.5736   24.9109 C   0  0  2  0  0  0  0  0  0  0  0  0
    8.4000  -15.3079   23.6585 N   0  0  0  0  0  0  0  0  0  0  0  0
    9.1093  -15.3444   25.9945 C   0  0  0  0  0  0  0  0  0  0  0  0
    9.1044  -16.6224   25.7945 O   0  0  0  0  0  0  0  0  0  0  0  0
    9.6994  -14.9600   27.1958 N   0  0  0  0  0  0  0  0  0  0  0  0
    9.3789  -13.6738   27.8623 C   0  0  0  0  0  0  0  0  0  0  0  0
   10.7136  -13.3238   28.4771 C   0  0  0  0  0  0  0  0  0  0  0  0
   11.0151  -14.6568   29.1684 C   0  0  0  0  0  0  0  0  0  0  0  0
   10.6580  -15.6241   28.0321 C   0  0  1  0  0  0  0  0  0  0  0  0
   10.1205  -16.8733   28.6102 C   0  0  0  0  0  0  0  0  0  0  0  0
   10.7699  -17.8322   29.0411 O   0  0  0  0  0  0  0  0  0  0  0  0
    8.7168  -16.9730   28.6727 O   0  0  0  0  0  0  0  0  0  0  0  0
  2  1  1  1
  2  4  1  0
  3  2  1  0
  4  5  2  0
  7  6  1  0
  8  7  1  0
  8  9  1  1
 10  8  1  0
 11  4  1  0
 10 11  1  6
 12 14  1  0
 12 10  1  0
 13 12  2  0
 14 18  1  0
 15 14  1  0
 15 16  1  0
 16 17  1  0
 17 18  1  0
 18 19  1  1
 19 21  1  0
 20 19  2  0
M  END
$$$$
