AIP.pdb
     RDKit          3D

 21 21  0  0  1  0  0  0  0  0999 V2000
   10.2932  -19.0172   17.5397 C   0  0  0  0  0  0  0  0  0  0  0  0
   10.4489  -17.5476   17.2589 C   0  0  2  0  0  0  0  0  0  0  0  0
   11.6847  -17.3517   16.5288 N   0  0  0  0  0  0  0  0  0  0  0  0
   10.4697  -16.7906   18.5695 C   0  0  0  0  0  0  0  0  0  0  0  0
   11.5160  -16.6231   19.1945 O   0  0  0  0  0  0  0  0  0  0  0  0
    7.3085  -12.3104   19.1402 C   0  0  0  0  0  0  0  0  0  0  0  0
    8.4807  -13.2776   19.1892 C   0  0  0  0  0  0  0  0  0  0  0  0
    8.0604  -14.4294   20.0836 C   0  0  2  0  0  0  0  0  0  0  0  0
    7.7811  -13.8767   21.5032 C   0  0  0  0  0  0  0  0  0  0  0  0
    9.0684  -15.4951   20.2527 C   0  0  2  0  0  0  0  0  0  0  0  0
    9.2488  -16.2865   19.0454 N   0  0  0  0  0  0  0  0  0  0  0  0
    9.0561  -16.2969   21.4793 C   0  0  0  0  0  0  0  0  0  0  0  0
    8.2212  -17.2844   21.4495 O   0  0  0  0  0  0  0  0  0  0  0  0
    9.7745  -16.1966   22.6681 N   0  0  0  0  0  0  0  0  0  0  0  0
   10.7130  -15.0793   22.9371 C   0  0  0  0  0  0  0  0  0  0  0  0
   11.7745  -15.7802   23.7517 C   0  0  0  0  0  0  0  0  0  0  0  0
   10.8707  -16.4759   24.7738 C   0  0  0  0  0  0  0  0  0  0  0  0
    9.7979  -17.0368   23.8311 C   0  0  1  0  0  0  0  0  0  0  0  0
    8.4971  -17.0523   24.5320 C   0  0  0  0  0  0  0  0  0  0  0  0
    7.5439  -16.2880   24.3463 O   0  0  0  0  0  0  0  0  0  0  0  0
    8.3352  -18.0479   25.5152 O   0  0  0  0  0  0  0  0  0  0  0  0
  2  1  1  1
  2  4  1  0
  3  2  1  0
  4  5  2  0
  7  6  1  0
  8  7  1  0
  8  9  1  1
 10  8  1  0
 11  4  1  0
 10 11  1  6
 12 14  1  0
 12 10  1  0
 13 12  2  0
 14 18  1  0
 15 14  1  0
 15 16  1  0
 16 17  1  0
 17 18  1  0
 18 19  1  1
 19 21  1  0
 20 19  2  0
M  END
$$$$
