AIP.pdb
     RDKit          3D

 21 21  0  0  1  0  0  0  0  0999 V2000
    7.8619  -19.4929   24.9148 C   0  0  0  0  0  0  0  0  0  0  0  0
    6.5878  -18.8299   25.3619 C   0  0  2  0  0  0  0  0  0  0  0  0
    5.4858  -19.7300   25.0891 N   0  0  0  0  0  0  0  0  0  0  0  0
    6.4175  -17.5250   24.6141 C   0  0  0  0  0  0  0  0  0  0  0  0
    5.7142  -17.4521   23.6073 O   0  0  0  0  0  0  0  0  0  0  0  0
    8.7096  -12.5200   26.7275 C   0  0  0  0  0  0  0  0  0  0  0  0
    8.5629  -13.9521   26.2380 C   0  0  0  0  0  0  0  0  0  0  0  0
    7.3349  -13.9862   25.3469 C   0  0  2  0  0  0  0  0  0  0  0  0
    6.0758  -14.0824   26.2437 C   0  0  0  0  0  0  0  0  0  0  0  0
    7.2623  -15.1327   24.4191 C   0  0  2  0  0  0  0  0  0  0  0  0
    7.0929  -16.3999   25.1132 N   0  0  0  0  0  0  0  0  0  0  0  0
    8.2060  -15.2021   23.3001 C   0  0  0  0  0  0  0  0  0  0  0  0
    9.1099  -16.1175   23.4351 O   0  0  0  0  0  0  0  0  0  0  0  0
    8.3110  -14.4704   22.1199 N   0  0  0  0  0  0  0  0  0  0  0  0
    7.3725  -13.3727   21.7799 C   0  0  0  0  0  0  0  0  0  0  0  0
    7.2913  -13.5136   20.2781 C   0  0  0  0  0  0  0  0  0  0  0  0
    8.7889  -13.5615   19.9613 C   0  0  0  0  0  0  0  0  0  0  0  0
    9.2494  -14.5537   21.0374 C   0  0  1  0  0  0  0  0  0  0  0  0
   10.6210  -14.2052   21.4626 C   0  0  0  0  0  0  0  0  0  0  0  0
   10.9560  -13.6684   22.5240 O   0  0  0  0  0  0  0  0  0  0  0  0
   11.6502  -14.5227   20.5548 O   0  0  0  0  0  0  0  0  0  0  0  0
  2  1  1  6
  2  4  1  0
  3  2  1  0
  4  5  2  0
  7  6  1  0
  8  7  1  0
  8  9  1  1
 10  8  1  0
 11  4  1  0
 10 11  1  1
 12 14  1  0
 12 10  1  0
 13 12  2  0
 14 18  1  0
 15 14  1  0
 15 16  1  0
 16 17  1  0
 17 18  1  0
 18 19  1  1
 19 21  1  0
 20 19  2  0
M  END
$$$$
