AIP.pdb
     RDKit          3D

 21 21  0  0  1  0  0  0  0  0999 V2000
    7.3843  -20.0474   25.1518 C   0  0  0  0  0  0  0  0  0  0  0  0
    6.0653  -19.3786   25.4270 C   0  0  2  0  0  0  0  0  0  0  0  0
    5.0093  -20.2213   24.9040 N   0  0  0  0  0  0  0  0  0  0  0  0
    6.0498  -18.0183   24.7633 C   0  0  0  0  0  0  0  0  0  0  0  0
    5.5252  -17.8495   23.6634 O   0  0  0  0  0  0  0  0  0  0  0  0
    6.8942  -12.2370   26.6322 C   0  0  0  0  0  0  0  0  0  0  0  0
    6.7865  -13.1540   25.4241 C   0  0  0  0  0  0  0  0  0  0  0  0
    6.8416  -14.5770   25.9486 C   0  0  2  0  0  0  0  0  0  0  0  0
    8.1225  -14.7395   26.8039 C   0  0  0  0  0  0  0  0  0  0  0  0
    6.9077  -15.6274   24.9129 C   0  0  2  0  0  0  0  0  0  0  0  0
    6.6571  -16.9555   25.4509 N   0  0  0  0  0  0  0  0  0  0  0  0
    7.9963  -15.5911   23.9324 C   0  0  0  0  0  0  0  0  0  0  0  0
    8.9756  -16.3894   24.2095 O   0  0  0  0  0  0  0  0  0  0  0  0
    8.1732  -14.8614   22.7596 N   0  0  0  0  0  0  0  0  0  0  0  0
    7.3272  -13.6917   22.4168 C   0  0  0  0  0  0  0  0  0  0  0  0
    7.2550  -13.8152   20.9129 C   0  0  0  0  0  0  0  0  0  0  0  0
    8.7484  -13.9772   20.6146 C   0  0  0  0  0  0  0  0  0  0  0  0
    9.1164  -15.0097   21.6883 C   0  0  1  0  0  0  0  0  0  0  0  0
   10.5052  -14.7719   22.1334 C   0  0  0  0  0  0  0  0  0  0  0  0
   10.8673  -14.2820   23.2086 O   0  0  0  0  0  0  0  0  0  0  0  0
   11.5181  -15.1467   21.2291 O   0  0  0  0  0  0  0  0  0  0  0  0
  2  1  1  6
  2  4  1  0
  3  2  1  0
  4  5  2  0
  7  6  1  0
  8  7  1  0
  8  9  1  1
 10  8  1  0
 11  4  1  0
 10 11  1  1
 12 14  1  0
 12 10  1  0
 13 12  2  0
 14 18  1  0
 15 14  1  0
 15 16  1  0
 16 17  1  0
 17 18  1  0
 18 19  1  1
 19 21  1  0
 20 19  2  0
M  END
$$$$
