AIP.pdb
     RDKit          3D

 21 21  0  0  1  0  0  0  0  0999 V2000
    9.5684  -17.6536   21.5850 C   0  0  0  0  0  0  0  0  0  0  0  0
    9.1165  -16.2288   21.4166 C   0  0  2  0  0  0  0  0  0  0  0  0
    9.8208  -15.6580   20.2865 N   0  0  0  0  0  0  0  0  0  0  0  0
    9.4162  -15.4590   22.6849 C   0  0  0  0  0  0  0  0  0  0  0  0
   10.5206  -14.9533   22.8801 O   0  0  0  0  0  0  0  0  0  0  0  0
    5.9389  -12.2150   26.4308 C   0  0  0  0  0  0  0  0  0  0  0  0
    7.2940  -12.8984   26.3376 C   0  0  0  0  0  0  0  0  0  0  0  0
    7.2069  -13.8882   25.1905 C   0  0  2  0  0  0  0  0  0  0  0  0
    6.1672  -14.9769   25.5547 C   0  0  0  0  0  0  0  0  0  0  0  0
    8.4593  -14.6077   24.8837 C   0  0  2  0  0  0  0  0  0  0  0  0
    8.3853  -15.3437   23.6311 N   0  0  0  0  0  0  0  0  0  0  0  0
    9.1359  -15.3451   25.9544 C   0  0  0  0  0  0  0  0  0  0  0  0
    9.1916  -16.6219   25.7548 O   0  0  0  0  0  0  0  0  0  0  0  0
    9.7307  -14.9298   27.1431 N   0  0  0  0  0  0  0  0  0  0  0  0
    9.4873  -13.5875   27.7264 C   0  0  0  0  0  0  0  0  0  0  0  0
   10.8323  -13.2914   28.3470 C   0  0  0  0  0  0  0  0  0  0  0  0
   11.0310  -14.5978   29.1212 C   0  0  0  0  0  0  0  0  0  0  0  0
   10.6280  -15.6053   28.0363 C   0  0  1  0  0  0  0  0  0  0  0  0
    9.9975  -16.7791   28.6753 C   0  0  0  0  0  0  0  0  0  0  0  0
   10.5694  -17.6933   29.2786 O   0  0  0  0  0  0  0  0  0  0  0  0
    8.5940  -16.8556   28.5817 O   0  0  0  0  0  0  0  0  0  0  0  0
  2  1  1  1
  2  4  1  0
  3  2  1  0
  4  5  2  0
  7  6  1  0
  8  7  1  0
  8  9  1  1
 10  8  1  0
 11  4  1  0
 10 11  1  6
 12 14  1  0
 12 10  1  0
 13 12  2  0
 14 18  1  0
 15 14  1  0
 15 16  1  0
 16 17  1  0
 17 18  1  0
 18 19  1  1
 19 21  1  0
 20 19  2  0
M  END
$$$$
