AIP.pdb
     RDKit          3D

 21 21  0  0  1  0  0  0  0  0999 V2000
    5.4373  -18.8350   23.7259 C   0  0  0  0  0  0  0  0  0  0  0  0
    5.0957  -17.4119   23.3783 C   0  0  2  0  0  0  0  0  0  0  0  0
    4.6585  -17.3724   21.9977 N   0  0  0  0  0  0  0  0  0  0  0  0
    6.3180  -16.5430   23.5832 C   0  0  0  0  0  0  0  0  0  0  0  0
    7.1511  -16.3907   22.6908 O   0  0  0  0  0  0  0  0  0  0  0  0
    5.9943  -12.0726   26.7350 C   0  0  0  0  0  0  0  0  0  0  0  0
    6.3349  -13.0345   25.6077 C   0  0  0  0  0  0  0  0  0  0  0  0
    7.2881  -14.0649   26.1848 C   0  0  2  0  0  0  0  0  0  0  0  0
    8.6245  -13.3629   26.5313 C   0  0  0  0  0  0  0  0  0  0  0  0
    7.6357  -15.1777   25.2786 C   0  0  2  0  0  0  0  0  0  0  0  0
    6.4654  -15.9168   24.8311 N   0  0  0  0  0  0  0  0  0  0  0  0
    8.7755  -16.0364   25.6122 C   0  0  0  0  0  0  0  0  0  0  0  0
    8.5489  -16.8470   26.5944 O   0  0  0  0  0  0  0  0  0  0  0  0
   10.0536  -16.1447   25.0701 N   0  0  0  0  0  0  0  0  0  0  0  0
   10.5760  -15.1820   24.0692 C   0  0  0  0  0  0  0  0  0  0  0  0
   11.4382  -16.0850   23.2188 C   0  0  0  0  0  0  0  0  0  0  0  0
   12.2403  -16.7665   24.3313 C   0  0  0  0  0  0  0  0  0  0  0  0
   11.1023  -17.0952   25.3067 C   0  0  1  0  0  0  0  0  0  0  0  0
   11.6149  -17.0244   26.6908 C   0  0  0  0  0  0  0  0  0  0  0  0
   11.3960  -16.1344   27.5196 O   0  0  0  0  0  0  0  0  0  0  0  0
   12.4405  -18.0897   27.1007 O   0  0  0  0  0  0  0  0  0  0  0  0
  2  1  1  6
  2  4  1  0
  3  2  1  0
  4  5  2  0
  7  6  1  0
  8  7  1  0
  8  9  1  6
 10  8  1  0
 11  4  1  0
 10 11  1  1
 12 14  1  0
 12 10  1  0
 13 12  2  0
 14 18  1  0
 15 14  1  0
 15 16  1  0
 16 17  1  0
 17 18  1  0
 18 19  1  1
 19 21  1  0
 20 19  2  0
M  END
$$$$
