AIP.pdb
     RDKit          3D

 21 21  0  0  1  0  0  0  0  0999 V2000
    9.7677  -17.7354   21.5081 C   0  0  0  0  0  0  0  0  0  0  0  0
    9.3667  -16.2939   21.3529 C   0  0  2  0  0  0  0  0  0  0  0  0
   10.1160  -15.7289   20.2491 N   0  0  0  0  0  0  0  0  0  0  0  0
    9.6612  -15.5546   22.6405 C   0  0  0  0  0  0  0  0  0  0  0  0
   10.7592  -15.0387   22.8448 O   0  0  0  0  0  0  0  0  0  0  0  0
    6.1183  -12.2379   26.1934 C   0  0  0  0  0  0  0  0  0  0  0  0
    7.4651  -12.9434   26.1814 C   0  0  0  0  0  0  0  0  0  0  0  0
    7.4103  -13.9721   25.0669 C   0  0  2  0  0  0  0  0  0  0  0  0
    6.3563  -15.0453   25.4361 C   0  0  0  0  0  0  0  0  0  0  0  0
    8.6692  -14.7045   24.8241 C   0  0  2  0  0  0  0  0  0  0  0  0
    8.6331  -15.4798   23.5936 N   0  0  0  0  0  0  0  0  0  0  0  0
    9.3078  -15.4094   25.9391 C   0  0  0  0  0  0  0  0  0  0  0  0
    9.4658  -16.6767   25.7339 O   0  0  0  0  0  0  0  0  0  0  0  0
    9.7774  -14.9714   27.1747 N   0  0  0  0  0  0  0  0  0  0  0  0
    9.4087  -13.6509   27.7419 C   0  0  0  0  0  0  0  0  0  0  0  0
   10.6784  -13.2831   28.4730 C   0  0  0  0  0  0  0  0  0  0  0  0
   10.8888  -14.5829   29.2551 C   0  0  0  0  0  0  0  0  0  0  0  0
   10.6361  -15.6020   28.1362 C   0  0  1  0  0  0  0  0  0  0  0  0
   10.0248  -16.8162   28.7155 C   0  0  0  0  0  0  0  0  0  0  0  0
    8.8528  -17.1884   28.5940 O   0  0  0  0  0  0  0  0  0  0  0  0
   10.8766  -17.6304   29.4874 O   0  0  0  0  0  0  0  0  0  0  0  0
  2  1  1  1
  2  4  1  0
  3  2  1  0
  4  5  2  0
  7  6  1  0
  8  7  1  0
  8  9  1  1
 10  8  1  0
 11  4  1  0
 10 11  1  6
 12 14  1  0
 12 10  1  0
 13 12  2  0
 14 18  1  0
 15 14  1  0
 15 16  1  0
 16 17  1  0
 17 18  1  0
 18 19  1  1
 19 21  1  0
 20 19  2  0
M  END
$$$$
