AIP.pdb
     RDKit          3D

 21 21  0  0  1  0  0  0  0  0999 V2000
    5.7252  -17.4574   21.4616 C   0  0  0  0  0  0  0  0  0  0  0  0
    5.9008  -15.9721   21.3007 C   0  0  2  0  0  0  0  0  0  0  0  0
    6.1830  -15.6950   19.9070 N   0  0  0  0  0  0  0  0  0  0  0  0
    7.0379  -15.5073   22.1850 C   0  0  0  0  0  0  0  0  0  0  0  0
    8.2014  -15.5113   21.7854 O   0  0  0  0  0  0  0  0  0  0  0  0
    7.3658  -11.7721   27.0028 C   0  0  0  0  0  0  0  0  0  0  0  0
    8.1179  -12.8616   26.2549 C   0  0  0  0  0  0  0  0  0  0  0  0
    7.1429  -13.4610   25.2582 C   0  0  2  0  0  0  0  0  0  0  0  0
    5.9104  -13.9928   26.0308 C   0  0  0  0  0  0  0  0  0  0  0  0
    7.6609  -14.6048   24.4812 C   0  0  2  0  0  0  0  0  0  0  0  0
    6.7144  -15.0710   23.4797 N   0  0  0  0  0  0  0  0  0  0  0  0
    8.3462  -15.6912   25.1866 C   0  0  0  0  0  0  0  0  0  0  0  0
    7.5465  -16.4995   25.8034 O   0  0  0  0  0  0  0  0  0  0  0  0
    9.6938  -16.0173   25.3158 N   0  0  0  0  0  0  0  0  0  0  0  0
   10.7739  -15.1663   24.7585 C   0  0  0  0  0  0  0  0  0  0  0  0
   11.7917  -16.2097   24.3621 C   0  0  0  0  0  0  0  0  0  0  0  0
   11.8421  -17.0036   25.6708 C   0  0  0  0  0  0  0  0  0  0  0  0
   10.3397  -17.1271   25.9567 C   0  0  1  0  0  0  0  0  0  0  0  0
   10.1230  -17.1280   27.4184 C   0  0  0  0  0  0  0  0  0  0  0  0
    9.6733  -16.2030   28.1034 O   0  0  0  0  0  0  0  0  0  0  0  0
   10.4687  -18.3141   28.0950 O   0  0  0  0  0  0  0  0  0  0  0  0
  2  1  1  6
  2  4  1  0
  3  2  1  0
  4  5  2  0
  7  6  1  0
  8  7  1  0
  8  9  1  1
 10  8  1  0
 11  4  1  0
 10 11  1  1
 12 14  1  0
 12 10  1  0
 13 12  2  0
 14 18  1  0
 15 14  1  0
 15 16  1  0
 16 17  1  0
 17 18  1  0
 18 19  1  1
 19 21  1  0
 20 19  2  0
M  END
$$$$
