AHD.pdb
     RDKit          3D

 24 24  0  0  1  0  0  0  0  0999 V2000
    9.0096  -18.3054   17.2322 C   0  0  0  0  0  0  0  0  0  0  0  0
    9.3238  -18.4449   18.7121 C   0  0  2  0  0  0  0  0  0  0  0  0
    8.1045  -18.7593   19.3944 N   0  0  0  0  0  0  0  0  0  0  0  0
    9.8725  -17.1185   19.2057 C   0  0  0  0  0  0  0  0  0  0  0  0
   10.9603  -16.6960   18.7543 O   0  0  0  0  0  0  0  0  0  0  0  0
    9.1678  -16.3647   20.1640 N   0  0  0  0  0  0  0  0  0  0  0  0
    9.5286  -15.1807   20.8519 C   0  0  1  0  0  0  0  0  0  0  0  0
    8.5087  -14.0628   20.8469 C   0  0  0  0  0  0  0  0  0  0  0  0
    8.0559  -13.6550   19.5156 C   0  0  0  0  0  0  0  0  0  0  0  0
    6.7667  -13.4778   19.0750 C   0  0  0  0  0  0  0  0  0  0  0  0
    6.7681  -13.1625   17.7730 N   0  0  0  0  0  0  0  0  0  0  0  0
    8.0591  -13.1454   17.4110 C   0  0  0  0  0  0  0  0  0  0  0  0
    8.8504  -13.4427   18.4600 N   0  0  0  0  0  0  0  0  0  0  0  0
   10.0941  -15.3348   22.1892 C   0  0  0  0  0  0  0  0  0  0  0  0
    9.4140  -15.1870   23.2508 O   0  0  0  0  0  0  0  0  0  0  0  0
   11.4510  -15.6640   22.3883 N   0  0  0  0  0  0  0  0  0  0  0  0
   11.9332  -16.1662   23.6972 C   0  0  1  0  0  0  0  0  0  0  0  0
   11.2792  -17.4992   23.8688 C   0  0  0  0  0  0  0  0  0  0  0  0
   11.3323  -18.0902   25.1941 C   0  0  0  0  0  0  0  0  0  0  0  0
   11.5557  -17.4211   26.2236 O   0  0  0  0  0  0  0  0  0  0  0  0
   13.3893  -16.3800   23.4885 C   0  0  0  0  0  0  0  0  0  0  0  0
   13.8067  -16.7679   22.3744 O   0  0  0  0  0  0  0  0  0  0  0  0
   11.1275  -19.4539   25.3291 O   0  0  0  0  0  0  0  0  0  0  0  0
   14.3578  -16.1773   24.4629 O   0  0  0  0  0  0  0  0  0  0  0  0
  2  1  1  6
  2  3  1  0
  4  2  1  0
  4  5  2  0
  6  7  1  0
  6  4  1  0
  7  8  1  1
  9  8  1  0
 10  9  2  0
 11 10  1  0
 12 11  1  0
 12 13  2  0
 13  9  1  0
 14  7  1  0
 15 14  2  0
 16 14  1  0
 17 16  1  0
 17 21  1  0
 17 18  1  6
 19 20  2  0
 19 18  1  0
 21 24  1  0
 22 21  2  0
 23 19  1  0
M  END
$$$$
