AHD.pdb
     RDKit          3D

 24 24  0  0  1  0  0  0  0  0999 V2000
    7.7257  -14.8413   18.5357 C   0  0  0  0  0  0  0  0  0  0  0  0
    7.5767  -13.6282   19.4382 C   0  0  2  0  0  0  0  0  0  0  0  0
    8.1257  -12.4975   18.7518 N   0  0  0  0  0  0  0  0  0  0  0  0
    8.3524  -13.8917   20.7160 C   0  0  0  0  0  0  0  0  0  0  0  0
    9.5297  -13.4802   20.8175 O   0  0  0  0  0  0  0  0  0  0  0  0
    7.7577  -14.5931   21.7824 N   0  0  0  0  0  0  0  0  0  0  0  0
    8.3010  -15.0293   23.0153 C   0  0  1  0  0  0  0  0  0  0  0  0
    7.3104  -15.3163   24.1227 C   0  0  0  0  0  0  0  0  0  0  0  0
    6.7677  -14.1261   24.7805 C   0  0  0  0  0  0  0  0  0  0  0  0
    7.1274  -12.8136   24.5915 C   0  0  0  0  0  0  0  0  0  0  0  0
    6.4398  -12.0264   25.4295 N   0  0  0  0  0  0  0  0  0  0  0  0
    5.6560  -12.8543   26.1352 C   0  0  0  0  0  0  0  0  0  0  0  0
    5.8460  -14.1313   25.7504 N   0  0  0  0  0  0  0  0  0  0  0  0
    9.3094  -16.0839   22.9615 C   0  0  0  0  0  0  0  0  0  0  0  0
    9.1572  -17.1553   22.2980 O   0  0  0  0  0  0  0  0  0  0  0  0
   10.5343  -15.9759   23.6520 N   0  0  0  0  0  0  0  0  0  0  0  0
   11.5744  -17.0261   23.5355 C   0  0  1  0  0  0  0  0  0  0  0  0
   12.8754  -16.2906   23.5529 C   0  0  0  0  0  0  0  0  0  0  0  0
   14.0818  -17.0884   23.4236 C   0  0  0  0  0  0  0  0  0  0  0  0
   14.2679  -18.1409   24.0679 O   0  0  0  0  0  0  0  0  0  0  0  0
   11.4530  -17.7975   24.8002 C   0  0  0  0  0  0  0  0  0  0  0  0
   12.1261  -18.8404   24.9585 O   0  0  0  0  0  0  0  0  0  0  0  0
   15.0724  -16.6697   22.5500 O   0  0  0  0  0  0  0  0  0  0  0  0
   10.6248  -17.4430   25.8570 O   0  0  0  0  0  0  0  0  0  0  0  0
  2  1  1  6
  2  3  1  0
  4  2  1  0
  4  5  2  0
  6  7  1  0
  6  4  1  0
  7  8  1  1
  9  8  1  0
 10  9  2  0
 11 10  1  0
 12 11  1  0
 12 13  2  0
 13  9  1  0
 14  7  1  0
 15 14  2  0
 16 14  1  0
 17 16  1  0
 17 21  1  0
 17 18  1  1
 19 20  2  0
 19 18  1  0
 21 24  1  0
 22 21  2  0
 23 19  1  0
M  END
$$$$
