AHD.pdb
     RDKit          3D

 24 24  0  0  1  0  0  0  0  0999 V2000
   11.4772  -18.9417   16.5600 C   0  0  0  0  0  0  0  0  0  0  0  0
   10.9537  -17.5375   16.3096 C   0  0  2  0  0  0  0  0  0  0  0  0
   11.5537  -17.0514   15.1035 N   0  0  0  0  0  0  0  0  0  0  0  0
   11.3595  -16.6656   17.4840 C   0  0  0  0  0  0  0  0  0  0  0  0
   12.5016  -16.1550   17.5059 O   0  0  0  0  0  0  0  0  0  0  0  0
   10.4625  -16.4294   18.5435 N   0  0  0  0  0  0  0  0  0  0  0  0
   10.6334  -15.7132   19.7532 C   0  0  1  0  0  0  0  0  0  0  0  0
    9.3821  -15.1268   20.3700 C   0  0  0  0  0  0  0  0  0  0  0  0
    8.6064  -14.2650   19.4758 C   0  0  0  0  0  0  0  0  0  0  0  0
    8.7305  -12.9103   19.2842 C   0  0  0  0  0  0  0  0  0  0  0  0
    7.7927  -12.4821   18.4286 N   0  0  0  0  0  0  0  0  0  0  0  0
    7.0903  -13.5739   18.0929 C   0  0  0  0  0  0  0  0  0  0  0  0
    7.5746  -14.6622   18.7221 N   0  0  0  0  0  0  0  0  0  0  0  0
   11.4532  -16.3394   20.7864 C   0  0  0  0  0  0  0  0  0  0  0  0
   11.3457  -17.5620   21.1105 O   0  0  0  0  0  0  0  0  0  0  0  0
   12.4315  -15.6150   21.4985 N   0  0  0  0  0  0  0  0  0  0  0  0
   13.4211  -16.3063   22.3593 C   0  0  1  0  0  0  0  0  0  0  0  0
   14.5690  -15.3562   22.4752 C   0  0  0  0  0  0  0  0  0  0  0  0
   15.6769  -15.7657   23.3198 C   0  0  0  0  0  0  0  0  0  0  0  0
   15.7384  -15.4879   24.5350 O   0  0  0  0  0  0  0  0  0  0  0  0
   12.7495  -16.3965   23.6823 C   0  0  0  0  0  0  0  0  0  0  0  0
   13.3571  -16.8985   24.6542 O   0  0  0  0  0  0  0  0  0  0  0  0
   16.7129  -16.4958   22.7601 O   0  0  0  0  0  0  0  0  0  0  0  0
   11.4580  -15.9538   23.9364 O   0  0  0  0  0  0  0  0  0  0  0  0
  2  1  1  1
  2  3  1  0
  4  2  1  0
  4  5  2  0
  6  7  1  0
  6  4  1  0
  7  8  1  1
  9  8  1  0
 10  9  2  0
 11 10  1  0
 12 11  1  0
 12 13  2  0
 13  9  1  0
 14  7  1  0
 15 14  2  0
 16 14  1  0
 17 16  1  0
 17 21  1  0
 17 18  1  1
 19 20  2  0
 19 18  1  0
 21 24  1  0
 22 21  2  0
 23 19  1  0
M  END
$$$$
