AHD.pdb
     RDKit          3D

 24 24  0  0  1  0  0  0  0  0999 V2000
    8.3104  -12.1276   18.6344 C   0  0  0  0  0  0  0  0  0  0  0  0
    8.1633  -13.6238   18.4149 C   0  0  2  0  0  0  0  0  0  0  0  0
    7.0124  -13.8377   17.5898 N   0  0  0  0  0  0  0  0  0  0  0  0
    7.9667  -14.2829   19.7680 C   0  0  0  0  0  0  0  0  0  0  0  0
    7.0483  -13.8850   20.5189 O   0  0  0  0  0  0  0  0  0  0  0  0
    8.8077  -15.3341   20.1809 N   0  0  0  0  0  0  0  0  0  0  0  0
    8.7840  -16.1265   21.3544 C   0  0  1  0  0  0  0  0  0  0  0  0
    8.0369  -17.4394   21.2643 C   0  0  0  0  0  0  0  0  0  0  0  0
    6.6070  -17.3101   20.9772 C   0  0  0  0  0  0  0  0  0  0  0  0
    5.7360  -16.3451   21.4218 C   0  0  0  0  0  0  0  0  0  0  0  0
    4.4972  -16.6130   20.9878 N   0  0  0  0  0  0  0  0  0  0  0  0
    4.6050  -17.7437   20.2753 C   0  0  0  0  0  0  0  0  0  0  0  0
    5.8807  -18.1765   20.2615 N   0  0  0  0  0  0  0  0  0  0  0  0
   10.0522  -16.3203   22.0515 C   0  0  0  0  0  0  0  0  0  0  0  0
   11.1719  -16.3618   21.4550 O   0  0  0  0  0  0  0  0  0  0  0  0
   10.1138  -16.4742   23.4521 N   0  0  0  0  0  0  0  0  0  0  0  0
   11.4027  -16.7300   24.1386 C   0  0  1  0  0  0  0  0  0  0  0  0
   11.1440  -16.4289   25.5796 C   0  0  0  0  0  0  0  0  0  0  0  0
   12.2508  -16.6226   26.4992 C   0  0  0  0  0  0  0  0  0  0  0  0
   13.3866  -16.9783   26.1238 O   0  0  0  0  0  0  0  0  0  0  0  0
   11.6056  -18.1953   23.9932 C   0  0  0  0  0  0  0  0  0  0  0  0
   10.6178  -18.9633   24.0064 O   0  0  0  0  0  0  0  0  0  0  0  0
   12.0448  -16.4052   27.8520 O   0  0  0  0  0  0  0  0  0  0  0  0
   12.8449  -18.8024   23.8385 O   0  0  0  0  0  0  0  0  0  0  0  0
  2  1  1  1
  2  3  1  0
  4  2  1  0
  4  5  2  0
  6  7  1  0
  6  4  1  0
  7  8  1  6
  9  8  1  0
 10  9  2  0
 11 10  1  0
 12 11  1  0
 12 13  2  0
 13  9  1  0
 14  7  1  0
 15 14  2  0
 16 14  1  0
 17 16  1  0
 17 21  1  0
 17 18  1  1
 19 20  2  0
 19 18  1  0
 21 24  1  0
 22 21  2  0
 23 19  1  0
M  END
$$$$
