AHD.pdb
     RDKit          3D

 24 24  0  0  1  0  0  0  0  0999 V2000
    9.5006  -17.0972   17.1209 C   0  0  0  0  0  0  0  0  0  0  0  0
    9.7458  -17.9484   18.3553 C   0  0  2  0  0  0  0  0  0  0  0  0
    8.5526  -18.6946   18.6210 N   0  0  0  0  0  0  0  0  0  0  0  0
   10.0516  -17.0199   19.5165 C   0  0  0  0  0  0  0  0  0  0  0  0
   11.0955  -16.3304   19.4950 O   0  0  0  0  0  0  0  0  0  0  0  0
    9.1716  -16.9304   20.6121 N   0  0  0  0  0  0  0  0  0  0  0  0
    9.2221  -16.1177   21.7707 C   0  0  1  0  0  0  0  0  0  0  0  0
    8.1006  -15.1157   21.9387 C   0  0  0  0  0  0  0  0  0  0  0  0
    7.8928  -14.2329   20.7893 C   0  0  0  0  0  0  0  0  0  0  0  0
    6.8645  -14.2533   19.8785 C   0  0  0  0  0  0  0  0  0  0  0  0
    7.0687  -13.3214   18.9379 N   0  0  0  0  0  0  0  0  0  0  0  0
    8.2237  -12.7264   19.2696 C   0  0  0  0  0  0  0  0  0  0  0  0
    8.7334  -13.2709   20.3914 N   0  0  0  0  0  0  0  0  0  0  0  0
    9.4889  -16.7865   23.0409 C   0  0  0  0  0  0  0  0  0  0  0  0
    8.6152  -17.4642   23.6645 O   0  0  0  0  0  0  0  0  0  0  0  0
   10.7529  -16.7219   23.6631 N   0  0  0  0  0  0  0  0  0  0  0  0
   11.1407  -17.6948   24.7124 C   0  0  1  0  0  0  0  0  0  0  0  0
   12.5399  -18.0971   24.3739 C   0  0  0  0  0  0  0  0  0  0  0  0
   13.2056  -18.9973   25.2985 C   0  0  0  0  0  0  0  0  0  0  0  0
   12.6322  -19.4919   26.2905 O   0  0  0  0  0  0  0  0  0  0  0  0
   11.1720  -16.8880   25.9603 C   0  0  0  0  0  0  0  0  0  0  0  0
   11.3354  -15.6491   25.8948 O   0  0  0  0  0  0  0  0  0  0  0  0
   14.5333  -19.3254   25.0765 O   0  0  0  0  0  0  0  0  0  0  0  0
   11.0297  -17.4151   27.2372 O   0  0  0  0  0  0  0  0  0  0  0  0
  2  1  1  6
  2  3  1  0
  4  2  1  0
  4  5  2  0
  6  7  1  0
  6  4  1  0
  7  8  1  1
  9  8  1  0
 10  9  2  0
 11 10  1  0
 12 11  1  0
 12 13  2  0
 13  9  1  0
 14  7  1  0
 15 14  2  0
 16 14  1  0
 17 16  1  0
 17 21  1  0
 17 18  1  6
 19 20  2  0
 19 18  1  0
 21 24  1  0
 22 21  2  0
 23 19  1  0
M  END
$$$$
