AHD.pdb
     RDKit          3D

 24 24  0  0  1  0  0  0  0  0999 V2000
   10.1768  -19.6822   17.9680 C   0  0  0  0  0  0  0  0  0  0  0  0
    9.5360  -18.3067   17.8930 C   0  0  2  0  0  0  0  0  0  0  0  0
    9.9310  -17.7026   16.6561 N   0  0  0  0  0  0  0  0  0  0  0  0
   10.0445  -17.4841   19.0629 C   0  0  0  0  0  0  0  0  0  0  0  0
   11.2608  -17.1987   19.1322 O   0  0  0  0  0  0  0  0  0  0  0  0
    9.1598  -17.0425   20.0655 N   0  0  0  0  0  0  0  0  0  0  0  0
    9.3904  -16.2417   21.2105 C   0  0  1  0  0  0  0  0  0  0  0  0
    8.2671  -15.3139   21.6194 C   0  0  0  0  0  0  0  0  0  0  0  0
    7.8760  -14.3407   20.5978 C   0  0  0  0  0  0  0  0  0  0  0  0
    6.8124  -14.4020   19.7303 C   0  0  0  0  0  0  0  0  0  0  0  0
    6.8332  -13.3457   18.9066 N   0  0  0  0  0  0  0  0  0  0  0  0
    7.9104  -12.6331   19.2668 C   0  0  0  0  0  0  0  0  0  0  0  0
    8.5515  -13.2268   20.2922 N   0  0  0  0  0  0  0  0  0  0  0  0
    9.9419  -16.9073   22.3873 C   0  0  0  0  0  0  0  0  0  0  0  0
    9.4272  -17.9482   22.8999 O   0  0  0  0  0  0  0  0  0  0  0  0
   11.0989  -16.4293   23.0367 N   0  0  0  0  0  0  0  0  0  0  0  0
   11.6364  -17.1066   24.2410 C   0  0  1  0  0  0  0  0  0  0  0  0
   12.9734  -16.4814   24.4766 C   0  0  0  0  0  0  0  0  0  0  0  0
   13.9948  -16.7188   23.4722 C   0  0  0  0  0  0  0  0  0  0  0  0
   14.9114  -15.9056   23.2357 O   0  0  0  0  0  0  0  0  0  0  0  0
   10.7205  -16.6841   25.3328 C   0  0  0  0  0  0  0  0  0  0  0  0
   10.8519  -17.1723   26.4774 O   0  0  0  0  0  0  0  0  0  0  0  0
   13.9565  -17.8955   22.7416 O   0  0  0  0  0  0  0  0  0  0  0  0
    9.6954  -15.7597   25.1809 O   0  0  0  0  0  0  0  0  0  0  0  0
  2  1  1  1
  2  3  1  0
  4  2  1  0
  4  5  2  0
  6  7  1  0
  6  4  1  0
  7  8  1  1
  9  8  1  0
 10  9  2  0
 11 10  1  0
 12 11  1  0
 12 13  2  0
 13  9  1  0
 14  7  1  0
 15 14  2  0
 16 14  1  0
 17 16  1  0
 17 21  1  0
 17 18  1  1
 19 20  2  0
 19 18  1  0
 21 24  1  0
 22 21  2  0
 23 19  1  0
M  END
$$$$
