AHD.pdb
     RDKit          3D

 24 24  0  0  1  0  0  0  0  0999 V2000
    7.4809  -18.6567   17.9494 C   0  0  0  0  0  0  0  0  0  0  0  0
    7.8370  -18.8133   19.4181 C   0  0  2  0  0  0  0  0  0  0  0  0
    6.6318  -18.6833   20.1808 N   0  0  0  0  0  0  0  0  0  0  0  0
    8.8118  -17.7102   19.7882 C   0  0  0  0  0  0  0  0  0  0  0  0
    9.9448  -17.6863   19.2577 O   0  0  0  0  0  0  0  0  0  0  0  0
    8.4501  -16.7186   20.7203 N   0  0  0  0  0  0  0  0  0  0  0  0
    9.1719  -15.5993   21.2017 C   0  0  1  0  0  0  0  0  0  0  0  0
    8.4693  -14.2614   21.1224 C   0  0  0  0  0  0  0  0  0  0  0  0
    8.0354  -13.8781   19.7775 C   0  0  0  0  0  0  0  0  0  0  0  0
    6.7835  -13.4859   19.3693 C   0  0  0  0  0  0  0  0  0  0  0  0
    6.7784  -13.2801   18.0455 N   0  0  0  0  0  0  0  0  0  0  0  0
    8.0278  -13.5457   17.6379 C   0  0  0  0  0  0  0  0  0  0  0  0
    8.8001  -13.9096   18.6800 N   0  0  0  0  0  0  0  0  0  0  0  0
    9.8322  -15.7407   22.4963 C   0  0  0  0  0  0  0  0  0  0  0  0
    9.2225  -15.6167   23.6027 O   0  0  0  0  0  0  0  0  0  0  0  0
   11.2087  -16.0297   22.6002 N   0  0  0  0  0  0  0  0  0  0  0  0
   11.8358  -16.3082   23.9144 C   0  0  1  0  0  0  0  0  0  0  0  0
   11.5138  -17.7385   24.2054 C   0  0  0  0  0  0  0  0  0  0  0  0
   12.0951  -18.3105   25.4068 C   0  0  0  0  0  0  0  0  0  0  0  0
   12.7407  -17.6337   26.2330 O   0  0  0  0  0  0  0  0  0  0  0  0
   13.2943  -16.1987   23.6498 C   0  0  0  0  0  0  0  0  0  0  0  0
   13.7201  -16.2769   22.4758 O   0  0  0  0  0  0  0  0  0  0  0  0
   11.9300  -19.6640   25.6529 O   0  0  0  0  0  0  0  0  0  0  0  0
   14.2564  -16.0100   24.6334 O   0  0  0  0  0  0  0  0  0  0  0  0
  2  1  1  6
  2  3  1  0
  4  2  1  0
  4  5  2  0
  6  7  1  0
  6  4  1  0
  7  8  1  1
  9  8  1  0
 10  9  2  0
 11 10  1  0
 12 11  1  0
 12 13  2  0
 13  9  1  0
 14  7  1  0
 15 14  2  0
 16 14  1  0
 17 16  1  0
 17 21  1  0
 17 18  1  6
 19 20  2  0
 19 18  1  0
 21 24  1  0
 22 21  2  0
 23 19  1  0
M  END
$$$$
