AHD.pdb
     RDKit          3D

 24 24  0  0  1  0  0  0  0  0999 V2000
    9.9685  -16.9204   17.4453 C   0  0  0  0  0  0  0  0  0  0  0  0
   10.0359  -17.7633   18.7076 C   0  0  2  0  0  0  0  0  0  0  0  0
    8.7884  -18.4535   18.8445 N   0  0  0  0  0  0  0  0  0  0  0  0
   10.2506  -16.8320   19.8868 C   0  0  0  0  0  0  0  0  0  0  0  0
   11.2990  -16.1522   19.9514 O   0  0  0  0  0  0  0  0  0  0  0  0
    9.2815  -16.7294   20.9034 N   0  0  0  0  0  0  0  0  0  0  0  0
    9.2867  -15.9881   22.1100 C   0  0  1  0  0  0  0  0  0  0  0  0
    8.1259  -15.0407   22.3221 C   0  0  0  0  0  0  0  0  0  0  0  0
    7.8780  -14.1199   21.2111 C   0  0  0  0  0  0  0  0  0  0  0  0
    8.3333  -12.8327   21.0579 C   0  0  0  0  0  0  0  0  0  0  0  0
    7.8340  -12.3024   19.9336 N   0  0  0  0  0  0  0  0  0  0  0  0
    7.0705  -13.2634   19.3937 C   0  0  0  0  0  0  0  0  0  0  0  0
    7.0892  -14.3713   20.1599 N   0  0  0  0  0  0  0  0  0  0  0  0
    9.5628  -16.7233   23.3409 C   0  0  0  0  0  0  0  0  0  0  0  0
    8.7293  -17.5173   23.8758 O   0  0  0  0  0  0  0  0  0  0  0  0
   10.7914  -16.5968   24.0217 N   0  0  0  0  0  0  0  0  0  0  0  0
   11.2423  -17.6286   24.9862 C   0  0  1  0  0  0  0  0  0  0  0  0
   12.7333  -17.5243   25.0007 C   0  0  0  0  0  0  0  0  0  0  0  0
   13.4432  -18.3986   25.9173 C   0  0  0  0  0  0  0  0  0  0  0  0
   13.1802  -19.6131   26.0325 O   0  0  0  0  0  0  0  0  0  0  0  0
   10.7246  -17.1512   26.2952 C   0  0  0  0  0  0  0  0  0  0  0  0
   10.3741  -15.9572   26.4263 O   0  0  0  0  0  0  0  0  0  0  0  0
   14.4564  -17.8692   26.7002 O   0  0  0  0  0  0  0  0  0  0  0  0
   10.5936  -17.9500   27.4236 O   0  0  0  0  0  0  0  0  0  0  0  0
  2  1  1  6
  2  3  1  0
  4  2  1  0
  4  5  2  0
  6  7  1  0
  6  4  1  0
  7  8  1  1
  9  8  1  0
 10  9  2  0
 11 10  1  0
 12 11  1  0
 12 13  2  0
 13  9  1  0
 14  7  1  0
 15 14  2  0
 16 14  1  0
 17 16  1  0
 17 21  1  0
 17 18  1  1
 19 20  2  0
 19 18  1  0
 21 24  1  0
 22 21  2  0
 23 19  1  0
M  END
$$$$
