AHD.pdb
     RDKit          3D

 24 24  0  0  1  0  0  0  0  0999 V2000
    9.6381  -17.7082   16.7321 C   0  0  0  0  0  0  0  0  0  0  0  0
   10.2742  -18.2658   17.9941 C   0  0  2  0  0  0  0  0  0  0  0  0
    9.3289  -19.1456   18.6132 N   0  0  0  0  0  0  0  0  0  0  0  0
   10.5896  -17.1033   18.9177 C   0  0  0  0  0  0  0  0  0  0  0  0
   11.4624  -16.2711   18.5841 O   0  0  0  0  0  0  0  0  0  0  0  0
    9.9089  -16.9567   20.1417 N   0  0  0  0  0  0  0  0  0  0  0  0
    9.9797  -15.9341   21.1188 C   0  0  1  0  0  0  0  0  0  0  0  0
    8.7006  -15.1716   21.3881 C   0  0  0  0  0  0  0  0  0  0  0  0
    8.1994  -14.3982   20.2504 C   0  0  0  0  0  0  0  0  0  0  0  0
    8.8076  -14.1812   19.0377 C   0  0  0  0  0  0  0  0  0  0  0  0
    8.0530  -13.3674   18.2874 N   0  0  0  0  0  0  0  0  0  0  0  0
    6.9792  -13.0827   19.0382 C   0  0  0  0  0  0  0  0  0  0  0  0
    7.0565  -13.7025   20.2318 N   0  0  0  0  0  0  0  0  0  0  0  0
   10.6399  -16.2630   22.3789 C   0  0  0  0  0  0  0  0  0  0  0  0
   10.8201  -15.4175   23.3084 O   0  0  0  0  0  0  0  0  0  0  0  0
   11.1242  -17.5601   22.6471 N   0  0  0  0  0  0  0  0  0  0  0  0
   11.8778  -17.8546   23.8894 C   0  0  1  0  0  0  0  0  0  0  0  0
   13.2456  -17.2986   23.6574 C   0  0  0  0  0  0  0  0  0  0  0  0
   14.1817  -17.3757   24.7648 C   0  0  0  0  0  0  0  0  0  0  0  0
   13.8859  -17.8854   25.8649 O   0  0  0  0  0  0  0  0  0  0  0  0
   11.2039  -17.0292   24.9257 C   0  0  0  0  0  0  0  0  0  0  0  0
   10.8947  -15.8437   24.6711 O   0  0  0  0  0  0  0  0  0  0  0  0
   15.4587  -16.8639   24.6005 O   0  0  0  0  0  0  0  0  0  0  0  0
   10.8782  -17.4820   26.1974 O   0  0  0  0  0  0  0  0  0  0  0  0
  2  1  1  6
  2  3  1  0
  4  2  1  0
  4  5  2  0
  6  7  1  0
  6  4  1  0
  7  8  1  1
  9  8  1  0
 10  9  2  0
 11 10  1  0
 12 11  1  0
 12 13  2  0
 13  9  1  0
 14  7  1  0
 15 14  2  0
 16 14  1  0
 17 16  1  0
 17 21  1  0
 17 18  1  6
 19 20  2  0
 19 18  1  0
 21 24  1  0
 22 21  2  0
 23 19  1  0
M  END
$$$$
