AHD.pdb
     RDKit          3D

 24 24  0  0  1  0  0  0  0  0999 V2000
    7.9089  -18.9412   16.1020 C   0  0  0  0  0  0  0  0  0  0  0  0
    8.2228  -17.4995   15.7398 C   0  0  2  0  0  0  0  0  0  0  0  0
    9.2438  -17.5091   14.7355 N   0  0  0  0  0  0  0  0  0  0  0  0
    8.7238  -16.7968   16.9884 C   0  0  0  0  0  0  0  0  0  0  0  0
    9.9139  -16.9476   17.3441 O   0  0  0  0  0  0  0  0  0  0  0  0
    7.8612  -15.9804   17.7450 N   0  0  0  0  0  0  0  0  0  0  0  0
    8.0503  -15.3561   19.0019 C   0  0  1  0  0  0  0  0  0  0  0  0
    6.8901  -14.5397   19.5286 C   0  0  0  0  0  0  0  0  0  0  0  0
    7.1954  -13.7396   20.7162 C   0  0  0  0  0  0  0  0  0  0  0  0
    7.8028  -12.5087   20.7770 C   0  0  0  0  0  0  0  0  0  0  0  0
    7.9589  -12.1391   22.0552 N   0  0  0  0  0  0  0  0  0  0  0  0
    7.4474  -13.1428   22.7823 C   0  0  0  0  0  0  0  0  0  0  0  0
    6.9808  -14.1200   21.9809 N   0  0  0  0  0  0  0  0  0  0  0  0
    8.6122  -16.1742   20.0729 C   0  0  0  0  0  0  0  0  0  0  0  0
    8.2531  -17.3719   20.2915 O   0  0  0  0  0  0  0  0  0  0  0  0
    9.6049  -15.6783   20.9433 N   0  0  0  0  0  0  0  0  0  0  0  0
   10.1818  -16.5296   22.0113 C   0  0  1  0  0  0  0  0  0  0  0  0
   11.5795  -16.0327   22.1943 C   0  0  0  0  0  0  0  0  0  0  0  0
   12.3670  -16.6599   23.2406 C   0  0  0  0  0  0  0  0  0  0  0  0
   12.0331  -17.7311   23.7871 O   0  0  0  0  0  0  0  0  0  0  0  0
    9.3944  -16.1754   23.2212 C   0  0  0  0  0  0  0  0  0  0  0  0
    8.9237  -15.0221   23.3402 O   0  0  0  0  0  0  0  0  0  0  0  0
   13.5398  -16.0493   23.6549 O   0  0  0  0  0  0  0  0  0  0  0  0
    9.1293  -17.0503   24.2666 O   0  0  0  0  0  0  0  0  0  0  0  0
  2  1  1  1
  2  3  1  0
  4  2  1  0
  4  5  2  0
  6  7  1  0
  6  4  1  0
  7  8  1  1
  9  8  1  0
 10  9  2  0
 11 10  1  0
 12 11  1  0
 12 13  2  0
 13  9  1  0
 14  7  1  0
 15 14  2  0
 16 14  1  0
 17 16  1  0
 17 21  1  0
 17 18  1  1
 19 20  2  0
 19 18  1  0
 21 24  1  0
 22 21  2  0
 23 19  1  0
M  END
$$$$
