AQQ.pdb
     RDKit          3D

 24 23  0  0  1  0  0  0  0  0999 V2000
    7.9900  -12.4130   20.1487 C   0  0  0  0  0  0  0  0  0  0  0  0
    8.2157  -13.5407   19.1383 C   0  0  2  0  0  0  0  0  0  0  0  0
    7.0093  -13.7311   18.3940 N   0  0  0  0  0  0  0  0  0  0  0  0
    8.6007  -14.7332   19.9238 C   0  0  0  0  0  0  0  0  0  0  0  0
    7.7904  -15.5889   20.3338 O   0  0  0  0  0  0  0  0  0  0  0  0
   11.9076  -18.8553   18.3886 N   0  0  0  0  0  0  0  0  0  0  0  0
   12.2427  -19.0664   19.7336 C   0  0  0  0  0  0  0  0  0  0  0  0
   12.6576  -20.1752   20.1339 O   0  0  0  0  0  0  0  0  0  0  0  0
   12.1210  -17.9715   20.7660 C   0  0  0  0  0  0  0  0  0  0  0  0
   11.6479  -16.7051   20.1131 C   0  0  0  0  0  0  0  0  0  0  0  0
   10.4784  -16.1541   20.8083 C   0  0  2  0  0  0  0  0  0  0  0  0
    9.9649  -14.9275   20.2358 N   0  0  0  0  0  0  0  0  0  0  0  0
   10.6458  -15.9272   22.2502 C   0  0  0  0  0  0  0  0  0  0  0  0
   11.4541  -15.0928   22.6711 O   0  0  0  0  0  0  0  0  0  0  0  0
    6.1134  -16.5461   26.2464 N   0  0  0  0  0  0  0  0  0  0  0  0
    6.5493  -15.3247   25.6534 C   0  0  0  0  0  0  0  0  0  0  0  0
    5.7628  -14.3490   25.5936 O   0  0  0  0  0  0  0  0  0  0  0  0
    7.9143  -15.1645   25.0984 C   0  0  0  0  0  0  0  0  0  0  0  0
    8.6467  -16.4530   25.2280 C   0  0  0  0  0  0  0  0  0  0  0  0
   10.0411  -16.4573   24.6590 C   0  0  2  0  0  0  0  0  0  0  0  0
    9.8722  -16.6711   23.2140 N   0  0  0  0  0  0  0  0  0  0  0  0
   10.8973  -17.4961   25.2432 C   0  0  0  0  0  0  0  0  0  0  0  0
   11.3451  -17.4290   26.4344 O   0  0  0  0  0  0  0  0  0  0  0  0
   11.2699  -18.6175   24.5281 O   0  0  0  0  0  0  0  0  0  0  0  0
  2  1  1  1
  2  3  1  0
  2  4  1  0
  4 12  1  0
  4  5  2  0
  6  7  1  0
  7  9  1  0
  8  7  2  0
  9 10  1  0
 11 10  1  6
 11 13  1  0
 12 11  1  0
 13 21  1  0
 14 13  2  0
 16 15  1  0
 17 16  2  0
 18 16  1  0
 19 18  1  0
 20 19  1  1
 21 20  1  0
 22 20  1  0
 22 24  1  0
 23 22  2  0
M  END
$$$$
