AQQ.pdb
     RDKit          3D

 24 23  0  0  1  0  0  0  0  0999 V2000
    8.5734  -20.7302   19.4409 C   0  0  0  0  0  0  0  0  0  0  0  0
    8.7975  -19.4783   18.5888 C   0  0  2  0  0  0  0  0  0  0  0  0
    9.5883  -19.8383   17.4527 N   0  0  0  0  0  0  0  0  0  0  0  0
    9.4659  -18.4920   19.4650 C   0  0  0  0  0  0  0  0  0  0  0  0
   10.6617  -18.5670   19.8134 O   0  0  0  0  0  0  0  0  0  0  0  0
    6.9252  -12.8364   20.4143 N   0  0  0  0  0  0  0  0  0  0  0  0
    7.5873  -13.3016   19.2694 C   0  0  0  0  0  0  0  0  0  0  0  0
    7.4238  -12.7561   18.1569 O   0  0  0  0  0  0  0  0  0  0  0  0
    8.5290  -14.4808   19.3179 C   0  0  0  0  0  0  0  0  0  0  0  0
    8.5394  -15.0689   20.6991 C   0  0  0  0  0  0  0  0  0  0  0  0
    9.2940  -16.3273   20.7347 C   0  0  2  0  0  0  0  0  0  0  0  0
    8.7169  -17.3936   19.9435 N   0  0  0  0  0  0  0  0  0  0  0  0
    9.5592  -16.8708   22.0738 C   0  0  0  0  0  0  0  0  0  0  0  0
    8.7783  -17.6711   22.5993 O   0  0  0  0  0  0  0  0  0  0  0  0
   11.5178  -21.2679   23.6579 N   0  0  0  0  0  0  0  0  0  0  0  0
   12.5522  -20.4378   23.1343 C   0  0  0  0  0  0  0  0  0  0  0  0
   13.5430  -20.9625   22.5710 O   0  0  0  0  0  0  0  0  0  0  0  0
   12.4984  -18.9599   23.2326 C   0  0  0  0  0  0  0  0  0  0  0  0
   11.2064  -18.5601   23.8522 C   0  0  0  0  0  0  0  0  0  0  0  0
   11.0520  -17.0855   24.1169 C   0  0  2  0  0  0  0  0  0  0  0  0
   10.7374  -16.4857   22.8117 N   0  0  0  0  0  0  0  0  0  0  0  0
   12.2556  -16.4759   24.6942 C   0  0  0  0  0  0  0  0  0  0  0  0
   12.6839  -16.7679   25.8584 O   0  0  0  0  0  0  0  0  0  0  0  0
   13.0006  -15.5418   24.0014 O   0  0  0  0  0  0  0  0  0  0  0  0
  2  1  1  1
  2  3  1  0
  2  4  1  0
  4 12  1  0
  4  5  2  0
  6  7  1  0
  7  9  1  0
  8  7  2  0
  9 10  1  0
 11 10  1  1
 11 13  1  0
 12 11  1  0
 13 21  1  0
 14 13  2  0
 16 15  1  0
 17 16  2  0
 18 16  1  0
 19 18  1  0
 20 19  1  6
 21 20  1  0
 22 20  1  0
 22 24  1  0
 23 22  2  0
M  END
$$$$
