AQQ.pdb
     RDKit          3D

 24 23  0  0  1  0  0  0  0  0999 V2000
    7.3471  -11.7522   27.1048 C   0  0  0  0  0  0  0  0  0  0  0  0
    6.2768  -12.4099   26.2301 C   0  0  2  0  0  0  0  0  0  0  0  0
    5.1880  -12.8081   27.0678 N   0  0  0  0  0  0  0  0  0  0  0  0
    6.9323  -13.5525   25.5577 C   0  0  0  0  0  0  0  0  0  0  0  0
    7.0636  -14.6817   26.0720 O   0  0  0  0  0  0  0  0  0  0  0  0
    8.7551  -14.1921   19.3717 N   0  0  0  0  0  0  0  0  0  0  0  0
    7.4414  -14.1834   19.8615 C   0  0  0  0  0  0  0  0  0  0  0  0
    6.4609  -14.2975   19.0949 O   0  0  0  0  0  0  0  0  0  0  0  0
    7.1414  -14.0366   21.3339 C   0  0  0  0  0  0  0  0  0  0  0  0
    8.4182  -14.0850   22.1220 C   0  0  0  0  0  0  0  0  0  0  0  0
    8.1601  -14.3995   23.5323 C   0  0  2  0  0  0  0  0  0  0  0  0
    7.4451  -13.3681   24.2541 N   0  0  0  0  0  0  0  0  0  0  0  0
    9.3420  -14.7527   24.3305 C   0  0  0  0  0  0  0  0  0  0  0  0
   10.1061  -13.8784   24.7530 O   0  0  0  0  0  0  0  0  0  0  0  0
   10.6419  -14.3639   28.3737 N   0  0  0  0  0  0  0  0  0  0  0  0
   10.4169  -15.7674   28.4879 C   0  0  0  0  0  0  0  0  0  0  0  0
   10.9951  -16.4165   29.3927 O   0  0  0  0  0  0  0  0  0  0  0  0
    9.5139  -16.4955   27.5655 C   0  0  0  0  0  0  0  0  0  0  0  0
   10.3320  -17.2741   26.5971 C   0  0  0  0  0  0  0  0  0  0  0  0
   10.8409  -16.4925   25.4145 C   0  0  2  0  0  0  0  0  0  0  0  0
    9.6432  -16.1283   24.6430 N   0  0  0  0  0  0  0  0  0  0  0  0
   11.7837  -17.2525   24.5857 C   0  0  0  0  0  0  0  0  0  0  0  0
   11.4794  -17.7001   23.4320 O   0  0  0  0  0  0  0  0  0  0  0  0
   13.0679  -17.5283   25.0129 O   0  0  0  0  0  0  0  0  0  0  0  0
  2  1  1  1
  2  3  1  0
  2  4  1  0
  4 12  1  0
  4  5  2  0
  6  7  1  0
  7  9  1  0
  8  7  2  0
  9 10  1  0
 11 10  1  6
 11 13  1  0
 12 11  1  0
 13 21  1  0
 14 13  2  0
 16 15  1  0
 17 16  2  0
 18 16  1  0
 19 18  1  0
 20 19  1  1
 21 20  1  0
 22 20  1  0
 22 24  1  0
 23 22  2  0
M  END
$$$$
