AQQ.pdb
     RDKit          3D

 24 23  0  0  1  0  0  0  0  0999 V2000
    8.2807  -19.7428   17.8699 C   0  0  0  0  0  0  0  0  0  0  0  0
    7.8848  -18.4995   17.0694 C   0  0  2  0  0  0  0  0  0  0  0  0
    8.3710  -18.6469   15.7325 N   0  0  0  0  0  0  0  0  0  0  0  0
    8.4805  -17.3434   17.7735 C   0  0  0  0  0  0  0  0  0  0  0  0
    9.6342  -16.9178   17.5621 O   0  0  0  0  0  0  0  0  0  0  0  0
    8.2598  -12.6247   18.4678 N   0  0  0  0  0  0  0  0  0  0  0  0
    8.3462  -12.4809   19.8598 C   0  0  0  0  0  0  0  0  0  0  0  0
    8.8965  -11.4855   20.3777 O   0  0  0  0  0  0  0  0  0  0  0  0
    7.7822  -13.5155   20.8037 C   0  0  0  0  0  0  0  0  0  0  0  0
    7.1785  -14.6453   20.0208 C   0  0  0  0  0  0  0  0  0  0  0  0
    8.2129  -15.5649   19.5322 C   0  0  2  0  0  0  0  0  0  0  0  0
    7.7075  -16.6710   18.7465 N   0  0  0  0  0  0  0  0  0  0  0  0
    9.0989  -16.1277   20.5602 C   0  0  0  0  0  0  0  0  0  0  0  0
    8.7788  -17.1439   21.1859 O   0  0  0  0  0  0  0  0  0  0  0  0
   15.0126  -14.2709   21.0545 N   0  0  0  0  0  0  0  0  0  0  0  0
   14.9341  -15.1114   22.2038 C   0  0  0  0  0  0  0  0  0  0  0  0
   15.9496  -15.2764   22.9219 O   0  0  0  0  0  0  0  0  0  0  0  0
   13.6811  -15.8053   22.5849 C   0  0  0  0  0  0  0  0  0  0  0  0
   12.6114  -15.4457   21.6156 C   0  0  0  0  0  0  0  0  0  0  0  0
   11.2722  -16.0848   21.8733 C   0  0  2  0  0  0  0  0  0  0  0  0
   10.3659  -15.5104   20.8678 N   0  0  0  0  0  0  0  0  0  0  0  0
   10.7691  -15.8386   23.2297 C   0  0  0  0  0  0  0  0  0  0  0  0
    9.9603  -14.8923   23.5022 O   0  0  0  0  0  0  0  0  0  0  0  0
   11.1470  -16.6269   24.2990 O   0  0  0  0  0  0  0  0  0  0  0  0
  2  1  1  1
  2  3  1  0
  2  4  1  0
  4 12  1  0
  4  5  2  0
  6  7  1  0
  7  9  1  0
  8  7  2  0
  9 10  1  0
 11 10  1  1
 11 13  1  0
 12 11  1  0
 13 21  1  0
 14 13  2  0
 16 15  1  0
 17 16  2  0
 18 16  1  0
 19 18  1  0
 20 19  1  1
 21 20  1  0
 22 20  1  0
 22 24  1  0
 23 22  2  0
M  END
$$$$
