AQQ.pdb
     RDKit          3D

 24 23  0  0  1  0  0  0  0  0999 V2000
    7.7200  -12.6666   20.1174 C   0  0  0  0  0  0  0  0  0  0  0  0
    8.2337  -13.2860   18.8152 C   0  0  2  0  0  0  0  0  0  0  0  0
    7.1301  -13.8873   18.1325 N   0  0  0  0  0  0  0  0  0  0  0  0
    9.2733  -14.2646   19.2009 C   0  0  0  0  0  0  0  0  0  0  0  0
    9.0529  -15.4787   19.3860 O   0  0  0  0  0  0  0  0  0  0  0  0
   16.0837  -13.7494   18.8317 N   0  0  0  0  0  0  0  0  0  0  0  0
   15.2977  -14.7819   18.3008 C   0  0  0  0  0  0  0  0  0  0  0  0
   15.5983  -15.3397   17.2236 O   0  0  0  0  0  0  0  0  0  0  0  0
   14.0519  -15.2734   18.9979 C   0  0  0  0  0  0  0  0  0  0  0  0
   12.9423  -14.2776   18.8221 C   0  0  0  0  0  0  0  0  0  0  0  0
   11.7282  -14.7054   19.5273 C   0  0  2  0  0  0  0  0  0  0  0  0
   10.6002  -13.8110   19.3734 N   0  0  0  0  0  0  0  0  0  0  0  0
   11.8872  -14.9654   20.9646 C   0  0  0  0  0  0  0  0  0  0  0  0
   11.7398  -14.0604   21.7927 O   0  0  0  0  0  0  0  0  0  0  0  0
   10.7873  -20.4102   23.4614 N   0  0  0  0  0  0  0  0  0  0  0  0
   11.2561  -19.7225   24.6192 C   0  0  0  0  0  0  0  0  0  0  0  0
   11.2017  -20.2854   25.7393 O   0  0  0  0  0  0  0  0  0  0  0  0
   11.8120  -18.3506   24.5464 C   0  0  0  0  0  0  0  0  0  0  0  0
   11.7603  -17.8787   23.1364 C   0  0  0  0  0  0  0  0  0  0  0  0
   12.4114  -16.5445   22.8831 C   0  0  2  0  0  0  0  0  0  0  0  0
   12.2197  -16.2829   21.4488 N   0  0  0  0  0  0  0  0  0  0  0  0
   13.8371  -16.5254   23.2304 C   0  0  0  0  0  0  0  0  0  0  0  0
   14.2710  -16.0483   24.3295 O   0  0  0  0  0  0  0  0  0  0  0  0
   14.7996  -17.0288   22.3773 O   0  0  0  0  0  0  0  0  0  0  0  0
  2  1  1  1
  2  3  1  0
  2  4  1  0
  4 12  1  0
  4  5  2  0
  6  7  1  0
  7  9  1  0
  8  7  2  0
  9 10  1  0
 11 10  1  1
 11 13  1  0
 12 11  1  0
 13 21  1  0
 14 13  2  0
 16 15  1  0
 17 16  2  0
 18 16  1  0
 19 18  1  0
 20 19  1  6
 21 20  1  0
 22 20  1  0
 22 24  1  0
 23 22  2  0
M  END
$$$$
