AQQ.pdb
     RDKit          3D

 24 23  0  0  1  0  0  0  0  0999 V2000
    7.9871  -12.3132   20.4787 C   0  0  0  0  0  0  0  0  0  0  0  0
    8.3570  -13.6746   19.8845 C   0  0  2  0  0  0  0  0  0  0  0  0
    7.3877  -14.0135   18.8888 N   0  0  0  0  0  0  0  0  0  0  0  0
    8.3794  -14.6298   21.0133 C   0  0  0  0  0  0  0  0  0  0  0  0
    7.3847  -14.9016   21.7160 O   0  0  0  0  0  0  0  0  0  0  0  0
   11.3812  -20.9516   22.1633 N   0  0  0  0  0  0  0  0  0  0  0  0
   10.3075  -20.1191   21.8171 C   0  0  0  0  0  0  0  0  0  0  0  0
    9.5226  -20.4209   20.8926 O   0  0  0  0  0  0  0  0  0  0  0  0
   10.0426  -18.8195   22.5386 C   0  0  0  0  0  0  0  0  0  0  0  0
    9.9312  -17.6986   21.5462 C   0  0  0  0  0  0  0  0  0  0  0  0
    9.6744  -16.4188   22.2175 C   0  0  2  0  0  0  0  0  0  0  0  0
    9.5937  -15.2810   21.3258 N   0  0  0  0  0  0  0  0  0  0  0  0
   10.6121  -16.0664   23.2923 C   0  0  0  0  0  0  0  0  0  0  0  0
   11.7171  -15.5772   23.0345 O   0  0  0  0  0  0  0  0  0  0  0  0
    9.8129  -13.6134   29.2111 N   0  0  0  0  0  0  0  0  0  0  0  0
    9.1256  -13.9418   28.0056 C   0  0  0  0  0  0  0  0  0  0  0  0
    8.2094  -13.1919   27.5902 O   0  0  0  0  0  0  0  0  0  0  0  0
    9.4585  -15.1513   27.2164 C   0  0  0  0  0  0  0  0  0  0  0  0
   10.7873  -14.9630   26.5742 C   0  0  0  0  0  0  0  0  0  0  0  0
   11.2683  -16.1244   25.7448 C   0  0  2  0  0  0  0  0  0  0  0  0
   10.2696  -16.2813   24.6769 N   0  0  0  0  0  0  0  0  0  0  0  0
   11.4051  -17.3648   26.5169 C   0  0  0  0  0  0  0  0  0  0  0  0
   10.5879  -18.3365   26.4081 O   0  0  0  0  0  0  0  0  0  0  0  0
   12.4381  -17.5518   27.4144 O   0  0  0  0  0  0  0  0  0  0  0  0
  2  1  1  1
  2  3  1  0
  2  4  1  0
  4 12  1  0
  4  5  2  0
  6  7  1  0
  7  9  1  0
  8  7  2  0
  9 10  1  0
 11 10  1  6
 11 13  1  0
 12 11  1  0
 13 21  1  0
 14 13  2  0
 16 15  1  0
 17 16  2  0
 18 16  1  0
 19 18  1  0
 20 19  1  1
 21 20  1  0
 22 20  1  0
 22 24  1  0
 23 22  2  0
M  END
$$$$
