AQQ.pdb
     RDKit          3D

 24 23  0  0  1  0  0  0  0  0999 V2000
   -0.2949  -20.3482   20.6589 C   0  0  0  0  0  0  0  0  0  0  0  0
    0.6496  -21.5529   20.6630 C   0  0  2  0  0  0  0  0  0  0  0  0
    0.0411  -22.6090   19.9146 N   0  0  0  0  0  0  0  0  0  0  0  0
    0.8682  -21.9063   22.0824 C   0  0  0  0  0  0  0  0  0  0  0  0
    1.5412  -21.2178   22.8761 O   0  0  0  0  0  0  0  0  0  0  0  0
   -2.3512  -26.2319   25.5304 N   0  0  0  0  0  0  0  0  0  0  0  0
   -1.2486  -25.8857   26.3242 C   0  0  0  0  0  0  0  0  0  0  0  0
   -1.1009  -26.3562   27.4726 O   0  0  0  0  0  0  0  0  0  0  0  0
   -0.1854  -24.9306   25.8375 C   0  0  0  0  0  0  0  0  0  0  0  0
   -0.5138  -24.4667   24.4480 C   0  0  0  0  0  0  0  0  0  0  0  0
    0.5431  -23.5992   23.9142 C   0  0  2  0  0  0  0  0  0  0  0  0
    0.2855  -23.0921   22.5829 N   0  0  0  0  0  0  0  0  0  0  0  0
    1.8947  -24.1752   23.9089 C   0  0  0  0  0  0  0  0  0  0  0  0
    2.2668  -24.9107   22.9884 O   0  0  0  0  0  0  0  0  0  0  0  0
    6.5197  -20.9501   25.8484 N   0  0  0  0  0  0  0  0  0  0  0  0
    7.2220  -22.1785   25.6721 C   0  0  0  0  0  0  0  0  0  0  0  0
    8.4696  -22.2039   25.8031 O   0  0  0  0  0  0  0  0  0  0  0  0
    6.5229  -23.4414   25.3357 C   0  0  0  0  0  0  0  0  0  0  0  0
    5.0657  -23.1714   25.2061 C   0  0  0  0  0  0  0  0  0  0  0  0
    4.2126  -24.3805   24.9258 C   0  0  2  0  0  0  0  0  0  0  0  0
    2.8242  -23.8986   24.9767 N   0  0  0  0  0  0  0  0  0  0  0  0
    4.4226  -25.4680   25.8885 C   0  0  0  0  0  0  0  0  0  0  0  0
    3.7999  -25.5340   26.9984 O   0  0  0  0  0  0  0  0  0  0  0  0
    5.3157  -26.4927   25.6436 O   0  0  0  0  0  0  0  0  0  0  0  0
  2  1  1  1
  2  3  1  0
  2  4  1  0
  4 12  1  0
  4  5  2  0
  6  7  1  0
  7  9  1  0
  8  7  2  0
  9 10  1  0
 11 10  1  6
 11 13  1  0
 12 11  1  0
 13 21  1  0
 14 13  2  0
 16 15  1  0
 17 16  2  0
 18 16  1  0
 19 18  1  0
 20 19  1  1
 21 20  1  0
 22 20  1  0
 22 24  1  0
 23 22  2  0
M  END
$$$$
