AQQ.pdb
     RDKit          3D

 24 23  0  0  1  0  0  0  0  0999 V2000
   12.5254  -18.0394   15.1183 C   0  0  0  0  0  0  0  0  0  0  0  0
   12.0092  -16.6844   14.6274 C   0  0  2  0  0  0  0  0  0  0  0  0
   12.9239  -16.1768   13.6520 N   0  0  0  0  0  0  0  0  0  0  0  0
   11.9056  -15.8199   15.8229 C   0  0  0  0  0  0  0  0  0  0  0  0
   12.8537  -15.1529   16.2847 O   0  0  0  0  0  0  0  0  0  0  0  0
    6.6597  -14.1587   20.2247 N   0  0  0  0  0  0  0  0  0  0  0  0
    7.4806  -13.3762   19.4004 C   0  0  0  0  0  0  0  0  0  0  0  0
    7.0424  -12.3565   18.8260 O   0  0  0  0  0  0  0  0  0  0  0  0
    8.9313  -13.7212   19.1633 C   0  0  0  0  0  0  0  0  0  0  0  0
    9.0568  -14.5877   17.9437 C   0  0  0  0  0  0  0  0  0  0  0  0
   10.4589  -14.9323   17.6793 C   0  0  2  0  0  0  0  0  0  0  0  0
   10.6641  -15.7348   16.4919 N   0  0  0  0  0  0  0  0  0  0  0  0
   11.1688  -15.5940   18.7824 C   0  0  0  0  0  0  0  0  0  0  0  0
   11.1297  -16.8218   18.9155 O   0  0  0  0  0  0  0  0  0  0  0  0
   16.6337  -13.8088   21.6447 N   0  0  0  0  0  0  0  0  0  0  0  0
   16.0237  -13.7483   20.3572 C   0  0  0  0  0  0  0  0  0  0  0  0
   16.4443  -12.9240   19.5099 O   0  0  0  0  0  0  0  0  0  0  0  0
   14.8974  -14.6346   19.9795 C   0  0  0  0  0  0  0  0  0  0  0  0
   13.8808  -14.6195   21.0655 C   0  0  0  0  0  0  0  0  0  0  0  0
   12.6736  -15.4873   20.8252 C   0  0  2  0  0  0  0  0  0  0  0  0
   11.9304  -14.8299   19.7400 N   0  0  0  0  0  0  0  0  0  0  0  0
   11.8300  -15.6414   22.0160 C   0  0  0  0  0  0  0  0  0  0  0  0
   10.6513  -15.1627   22.0907 O   0  0  0  0  0  0  0  0  0  0  0  0
   12.2696  -16.3215   23.1348 O   0  0  0  0  0  0  0  0  0  0  0  0
  2  1  1  1
  2  3  1  0
  2  4  1  0
  4 12  1  0
  4  5  2  0
  6  7  1  0
  7  9  1  0
  8  7  2  0
  9 10  1  0
 11 10  1  1
 11 13  1  0
 12 11  1  0
 13 21  1  0
 14 13  2  0
 16 15  1  0
 17 16  2  0
 18 16  1  0
 19 18  1  0
 20 19  1  1
 21 20  1  0
 22 20  1  0
 22 24  1  0
 23 22  2  0
M  END
$$$$
