AQQ.pdb
     RDKit          3D

 24 23  0  0  1  0  0  0  0  0999 V2000
    6.8335  -13.2678   18.6936 C   0  0  0  0  0  0  0  0  0  0  0  0
    8.2983  -13.1320   19.1170 C   0  0  2  0  0  0  0  0  0  0  0  0
    9.1010  -13.0060   17.9399 N   0  0  0  0  0  0  0  0  0  0  0  0
    8.6185  -14.3424   19.9042 C   0  0  0  0  0  0  0  0  0  0  0  0
    7.9969  -14.6924   20.9279 O   0  0  0  0  0  0  0  0  0  0  0  0
   12.6386  -19.4062   18.6025 N   0  0  0  0  0  0  0  0  0  0  0  0
   12.9004  -18.0571   18.3251 C   0  0  0  0  0  0  0  0  0  0  0  0
   13.7938  -17.7206   17.5185 O   0  0  0  0  0  0  0  0  0  0  0  0
   12.1213  -16.9432   18.9822 C   0  0  0  0  0  0  0  0  0  0  0  0
   10.7010  -17.3761   19.2042 C   0  0  0  0  0  0  0  0  0  0  0  0
    9.9928  -16.4412   20.0868 C   0  0  2  0  0  0  0  0  0  0  0  0
    9.6905  -15.1606   19.4829 N   0  0  0  0  0  0  0  0  0  0  0  0
   10.6400  -16.1736   21.3784 C   0  0  0  0  0  0  0  0  0  0  0  0
   11.4521  -15.2506   21.5015 O   0  0  0  0  0  0  0  0  0  0  0  0
    7.7869  -17.4345   26.5831 N   0  0  0  0  0  0  0  0  0  0  0  0
    7.5505  -16.4539   25.5753 C   0  0  0  0  0  0  0  0  0  0  0  0
    6.4463  -15.8592   25.5356 O   0  0  0  0  0  0  0  0  0  0  0  0
    8.5742  -16.1076   24.5610 C   0  0  0  0  0  0  0  0  0  0  0  0
    9.8176  -16.8741   24.8432 C   0  0  0  0  0  0  0  0  0  0  0  0
   10.9327  -16.6738   23.8509 C   0  0  2  0  0  0  0  0  0  0  0  0
   10.3461  -16.9801   22.5377 N   0  0  0  0  0  0  0  0  0  0  0  0
   12.0967  -17.5278   24.1138 C   0  0  0  0  0  0  0  0  0  0  0  0
   12.8386  -17.3829   25.1398 O   0  0  0  0  0  0  0  0  0  0  0  0
   12.4580  -18.5481   23.2559 O   0  0  0  0  0  0  0  0  0  0  0  0
  2  1  1  6
  2  3  1  0
  2  4  1  0
  4 12  1  0
  4  5  2  0
  6  7  1  0
  7  9  1  0
  8  7  2  0
  9 10  1  0
 11 10  1  6
 11 13  1  0
 12 11  1  0
 13 21  1  0
 14 13  2  0
 16 15  1  0
 17 16  2  0
 18 16  1  0
 19 18  1  0
 20 19  1  1
 21 20  1  0
 22 20  1  0
 22 24  1  0
 23 22  2  0
M  END
$$$$
