AQQ.pdb
     RDKit          3D

 24 23  0  0  1  0  0  0  0  0999 V2000
    8.8126  -17.5049   14.7690 C   0  0  0  0  0  0  0  0  0  0  0  0
    8.6698  -16.0019   14.5163 C   0  0  2  0  0  0  0  0  0  0  0  0
    9.1339  -15.7181   13.1935 N   0  0  0  0  0  0  0  0  0  0  0  0
    9.4670  -15.3257   15.5625 C   0  0  0  0  0  0  0  0  0  0  0  0
   10.6929  -15.1105   15.4742 O   0  0  0  0  0  0  0  0  0  0  0  0
    6.8161  -12.5114   20.6005 N   0  0  0  0  0  0  0  0  0  0  0  0
    6.9698  -13.9049   20.6132 C   0  0  0  0  0  0  0  0  0  0  0  0
    6.3179  -14.6238   21.4007 O   0  0  0  0  0  0  0  0  0  0  0  0
    7.9263  -14.6091   19.6811 C   0  0  0  0  0  0  0  0  0  0  0  0
    8.6272  -13.6035   18.8143 C   0  0  0  0  0  0  0  0  0  0  0  0
    9.5072  -14.2625   17.8418 C   0  0  2  0  0  0  0  0  0  0  0  0
    8.8137  -14.8921   16.7378 N   0  0  0  0  0  0  0  0  0  0  0  0
   10.4366  -15.2554   18.3976 C   0  0  0  0  0  0  0  0  0  0  0  0
   10.7563  -16.2574   17.7492 O   0  0  0  0  0  0  0  0  0  0  0  0
   15.3052  -15.1299   17.2850 N   0  0  0  0  0  0  0  0  0  0  0  0
   15.1858  -14.5470   18.5809 C   0  0  0  0  0  0  0  0  0  0  0  0
   16.2056  -14.0907   19.1519 O   0  0  0  0  0  0  0  0  0  0  0  0
   13.8850  -14.4597   19.2859 C   0  0  0  0  0  0  0  0  0  0  0  0
   13.2122  -15.7855   19.2318 C   0  0  0  0  0  0  0  0  0  0  0  0
   12.0751  -15.9669   20.2026 C   0  0  2  0  0  0  0  0  0  0  0  0
   11.0015  -15.0886   19.7144 N   0  0  0  0  0  0  0  0  0  0  0  0
   12.4384  -15.6280   21.5835 C   0  0  0  0  0  0  0  0  0  0  0  0
   13.3365  -16.2571   22.2327 O   0  0  0  0  0  0  0  0  0  0  0  0
   11.8216  -14.5970   22.2648 O   0  0  0  0  0  0  0  0  0  0  0  0
  2  1  1  1
  2  3  1  0
  2  4  1  0
  4 12  1  0
  4  5  2  0
  6  7  1  0
  7  9  1  0
  8  7  2  0
  9 10  1  0
 11 10  1  1
 11 13  1  0
 12 11  1  0
 13 21  1  0
 14 13  2  0
 16 15  1  0
 17 16  2  0
 18 16  1  0
 19 18  1  0
 20 19  1  6
 21 20  1  0
 22 20  1  0
 22 24  1  0
 23 22  2  0
M  END
$$$$
