AQQ.pdb
     RDKit          3D

 24 23  0  0  1  0  0  0  0  0999 V2000
    7.9401  -19.0950   19.1529 C   0  0  0  0  0  0  0  0  0  0  0  0
    8.5245  -17.8655   18.4527 C   0  0  2  0  0  0  0  0  0  0  0  0
    9.4727  -18.3070   17.4772 N   0  0  0  0  0  0  0  0  0  0  0  0
    9.1349  -17.0334   19.5121 C   0  0  0  0  0  0  0  0  0  0  0  0
   10.2996  -17.1855   19.9332 O   0  0  0  0  0  0  0  0  0  0  0  0
    6.1696  -12.7375   18.8118 N   0  0  0  0  0  0  0  0  0  0  0  0
    7.4986  -13.1838   18.7932 C   0  0  0  0  0  0  0  0  0  0  0  0
    7.9474  -13.8500   17.8358 O   0  0  0  0  0  0  0  0  0  0  0  0
    8.4548  -12.8854   19.9229 C   0  0  0  0  0  0  0  0  0  0  0  0
    8.1535  -13.7744   21.0946 C   0  0  0  0  0  0  0  0  0  0  0  0
    8.9095  -15.0301   21.0165 C   0  0  2  0  0  0  0  0  0  0  0  0
    8.3641  -16.0004   20.0908 N   0  0  0  0  0  0  0  0  0  0  0  0
    9.1276  -15.7202   22.2952 C   0  0  0  0  0  0  0  0  0  0  0  0
    8.1764  -16.1686   22.9439 O   0  0  0  0  0  0  0  0  0  0  0  0
   10.9508  -20.7036   24.1803 N   0  0  0  0  0  0  0  0  0  0  0  0
   11.4118  -20.1106   22.9682 C   0  0  0  0  0  0  0  0  0  0  0  0
   12.0641  -20.8015   22.1488 O   0  0  0  0  0  0  0  0  0  0  0  0
   11.1450  -18.6907   22.6376 C   0  0  0  0  0  0  0  0  0  0  0  0
   10.3391  -18.0800   23.7289 C   0  0  0  0  0  0  0  0  0  0  0  0
   10.6912  -16.6547   24.0646 C   0  0  2  0  0  0  0  0  0  0  0  0
   10.4566  -15.8935   22.8285 N   0  0  0  0  0  0  0  0  0  0  0  0
   12.0776  -16.4966   24.5190 C   0  0  0  0  0  0  0  0  0  0  0  0
   12.5034  -16.9912   25.6135 O   0  0  0  0  0  0  0  0  0  0  0  0
   13.0095  -15.7960   23.7784 O   0  0  0  0  0  0  0  0  0  0  0  0
  2  1  1  1
  2  3  1  0
  2  4  1  0
  4 12  1  0
  4  5  2  0
  6  7  1  0
  7  9  1  0
  8  7  2  0
  9 10  1  0
 11 10  1  1
 11 13  1  0
 12 11  1  0
 13 21  1  0
 14 13  2  0
 16 15  1  0
 17 16  2  0
 18 16  1  0
 19 18  1  0
 20 19  1  6
 21 20  1  0
 22 20  1  0
 22 24  1  0
 23 22  2  0
M  END
$$$$
