AQQ.pdb
     RDKit          3D

 24 23  0  0  1  0  0  0  0  0999 V2000
    7.9993  -13.1437   18.6547 C   0  0  0  0  0  0  0  0  0  0  0  0
    8.6316  -14.3760   19.3066 C   0  0  2  0  0  0  0  0  0  0  0  0
    7.7198  -15.4713   19.1860 N   0  0  0  0  0  0  0  0  0  0  0  0
    8.9063  -14.0089   20.7127 C   0  0  0  0  0  0  0  0  0  0  0  0
    9.7288  -13.1361   21.0570 O   0  0  0  0  0  0  0  0  0  0  0  0
    5.3465  -12.1161   26.0665 N   0  0  0  0  0  0  0  0  0  0  0  0
    5.7990  -13.4232   25.8376 C   0  0  0  0  0  0  0  0  0  0  0  0
    5.0999  -14.4150   26.1367 O   0  0  0  0  0  0  0  0  0  0  0  0
    7.1484  -13.7022   25.2206 C   0  0  0  0  0  0  0  0  0  0  0  0
    6.9834  -14.0544   23.7706 C   0  0  0  0  0  0  0  0  0  0  0  0
    8.2824  -14.2982   23.1323 C   0  0  2  0  0  0  0  0  0  0  0  0
    8.2019  -14.6790   21.7378 N   0  0  0  0  0  0  0  0  0  0  0  0
    9.1458  -15.2789   23.8042 C   0  0  0  0  0  0  0  0  0  0  0  0
    9.3917  -16.3709   23.2809 O   0  0  0  0  0  0  0  0  0  0  0  0
   11.0049  -14.3598   29.6922 N   0  0  0  0  0  0  0  0  0  0  0  0
   11.3335  -15.7372   29.5239 C   0  0  0  0  0  0  0  0  0  0  0  0
   11.7331  -16.4041   30.5086 O   0  0  0  0  0  0  0  0  0  0  0  0
   11.2186  -16.4172   28.2120 C   0  0  0  0  0  0  0  0  0  0  0  0
   10.6772  -15.4578   27.2122 C   0  0  0  0  0  0  0  0  0  0  0  0
   10.5014  -16.0117   25.8227 C   0  0  2  0  0  0  0  0  0  0  0  0
    9.7299  -14.9951   25.0923 N   0  0  0  0  0  0  0  0  0  0  0  0
    9.8091  -17.3054   25.8027 C   0  0  0  0  0  0  0  0  0  0  0  0
    8.5432  -17.4099   25.9055 O   0  0  0  0  0  0  0  0  0  0  0  0
   10.4970  -18.4956   25.6696 O   0  0  0  0  0  0  0  0  0  0  0  0
  2  1  1  6
  2  3  1  0
  2  4  1  0
  4 12  1  0
  4  5  2  0
  6  7  1  0
  7  9  1  0
  8  7  2  0
  9 10  1  0
 11 10  1  1
 11 13  1  0
 12 11  1  0
 13 21  1  0
 14 13  2  0
 16 15  1  0
 17 16  2  0
 18 16  1  0
 19 18  1  0
 20 19  1  1
 21 20  1  0
 22 20  1  0
 22 24  1  0
 23 22  2  0
M  END
$$$$
