GKT.pdb
     RDKit          3D

 21 20  0  0  1  0  0  0  0  0999 V2000
    7.1853  -13.1856   18.5630 N   0  0  0  0  0  0  0  0  0  0  0  0
    8.2980  -13.3505   19.4736 C   0  0  0  0  0  0  0  0  0  0  0  0
    7.9187  -14.0833   20.6920 C   0  0  0  0  0  0  0  0  0  0  0  0
    6.8007  -13.8587   21.2007 O   0  0  0  0  0  0  0  0  0  0  0  0
    8.7632  -15.0215   21.3014 N   0  0  0  0  0  0  0  0  0  0  0  0
    8.4962  -15.7460   22.5069 C   0  0  1  0  0  0  0  0  0  0  0  0
    9.3300  -16.9837   22.6826 C   0  0  0  0  0  0  0  0  0  0  0  0
    9.0455  -17.7562   23.9279 C   0  0  0  0  0  0  0  0  0  0  0  0
    9.8742  -18.9675   24.1301 C   0  0  0  0  0  0  0  0  0  0  0  0
    9.5517  -19.8309   25.2941 C   0  0  0  0  0  0  0  0  0  0  0  0
   10.2807  -21.0466   25.4142 N   0  0  0  0  0  0  0  0  0  0  0  0
    8.7502  -14.8960   23.7230 C   0  0  0  0  0  0  0  0  0  0  0  0
    9.7762  -14.1734   23.7739 O   0  0  0  0  0  0  0  0  0  0  0  0
    6.7626  -12.2091   27.2889 C   0  0  0  0  0  0  0  0  0  0  0  0
    6.6627  -13.1822   26.1418 C   0  0  1  0  0  0  0  0  0  0  0  0
    6.3867  -12.4412   24.9912 O   0  0  0  0  0  0  0  0  0  0  0  0
    7.9656  -13.9162   25.9058 C   0  0  2  0  0  0  0  0  0  0  0  0
    7.8644  -14.8742   24.8371 N   0  0  0  0  0  0  0  0  0  0  0  0
    8.4340  -14.6101   27.1251 C   0  0  0  0  0  0  0  0  0  0  0  0
    8.3748  -15.8610   27.1725 O   0  0  0  0  0  0  0  0  0  0  0  0
    8.9388  -13.9432   28.2258 O   0  0  0  0  0  0  0  0  0  0  0  0
  2  1  1  0
  3  4  2  0
  3  2  1  0
  5  3  1  0
  6  5  1  0
  6 12  1  0
  6  7  1  1
  8  7  1  0
  9 10  1  0
  9  8  1  0
 10 11  1  0
 12 13  2  0
 15 14  1  1
 15 16  1  0
 17 19  1  0
 17 15  1  0
 18 12  1  0
 17 18  1  6
 19 21  1  0
 20 19  2  0
M  END
$$$$
