GKT.pdb
     RDKit          3D

 21 20  0  0  1  0  0  0  0  0999 V2000
   11.0575  -19.3761   17.9983 N   0  0  0  0  0  0  0  0  0  0  0  0
    9.9838  -18.8777   18.8310 C   0  0  0  0  0  0  0  0  0  0  0  0
   10.4239  -17.7887   19.7174 C   0  0  0  0  0  0  0  0  0  0  0  0
   11.6446  -17.6620   19.9476 O   0  0  0  0  0  0  0  0  0  0  0  0
    9.5266  -16.8905   20.3114 N   0  0  0  0  0  0  0  0  0  0  0  0
    9.8376  -15.9228   21.3194 C   0  0  1  0  0  0  0  0  0  0  0  0
    8.8551  -14.7897   21.4137 C   0  0  0  0  0  0  0  0  0  0  0  0
    8.7881  -13.9196   20.2026 C   0  0  0  0  0  0  0  0  0  0  0  0
    7.4249  -13.6323   19.6985 C   0  0  0  0  0  0  0  0  0  0  0  0
    7.3099  -12.8221   18.4596 C   0  0  0  0  0  0  0  0  0  0  0  0
    5.9959  -12.4831   18.0330 N   0  0  0  0  0  0  0  0  0  0  0  0
    9.8809  -16.5520   22.6863 C   0  0  0  0  0  0  0  0  0  0  0  0
    8.9036  -17.2294   23.0906 O   0  0  0  0  0  0  0  0  0  0  0  0
   10.1472  -19.1984   23.6099 C   0  0  0  0  0  0  0  0  0  0  0  0
   11.3220  -18.6881   24.4049 C   0  0  1  0  0  0  0  0  0  0  0  0
   12.4588  -18.8362   23.6081 O   0  0  0  0  0  0  0  0  0  0  0  0
   11.1880  -17.2162   24.7333 C   0  0  2  0  0  0  0  0  0  0  0  0
   10.9989  -16.4112   23.5559 N   0  0  0  0  0  0  0  0  0  0  0  0
   12.3635  -16.7090   25.4737 C   0  0  0  0  0  0  0  0  0  0  0  0
   12.5958  -17.1534   26.6222 O   0  0  0  0  0  0  0  0  0  0  0  0
   13.2277  -15.7607   24.9589 O   0  0  0  0  0  0  0  0  0  0  0  0
  2  1  1  0
  3  4  2  0
  3  2  1  0
  5  3  1  0
  6  5  1  0
  6 12  1  0
  6  7  1  1
  8  7  1  0
  9 10  1  0
  9  8  1  0
 10 11  1  0
 12 13  2  0
 15 14  1  6
 15 16  1  0
 17 19  1  0
 17 15  1  0
 18 12  1  0
 17 18  1  6
 19 21  1  0
 20 19  2  0
M  END
$$$$
