GKT.pdb
     RDKit          3D

 21 20  0  0  1  0  0  0  0  0999 V2000
    6.6133  -19.1223   17.0480 N   0  0  0  0  0  0  0  0  0  0  0  0
    6.1392  -19.9013   18.1718 C   0  0  0  0  0  0  0  0  0  0  0  0
    5.8795  -19.0697   19.3577 C   0  0  0  0  0  0  0  0  0  0  0  0
    6.4511  -17.9633   19.4486 O   0  0  0  0  0  0  0  0  0  0  0  0
    5.0166  -19.4720   20.3865 N   0  0  0  0  0  0  0  0  0  0  0  0
    4.6932  -18.7238   21.5634 C   0  0  1  0  0  0  0  0  0  0  0  0
    3.4708  -19.2102   22.2895 C   0  0  0  0  0  0  0  0  0  0  0  0
    2.2177  -19.1996   21.4783 C   0  0  0  0  0  0  0  0  0  0  0  0
    1.0125  -19.7268   22.1599 C   0  0  0  0  0  0  0  0  0  0  0  0
   -0.2894  -19.5760   21.4622 C   0  0  0  0  0  0  0  0  0  0  0  0
   -1.4536  -19.9604   22.1836 N   0  0  0  0  0  0  0  0  0  0  0  0
    5.8170  -18.7661   22.5640 C   0  0  0  0  0  0  0  0  0  0  0  0
    6.3817  -19.8585   22.8197 O   0  0  0  0  0  0  0  0  0  0  0  0
    9.4612  -16.4188   24.9113 C   0  0  0  0  0  0  0  0  0  0  0  0
    8.3344  -16.4501   23.9102 C   0  0  1  0  0  0  0  0  0  0  0  0
    8.9044  -16.6303   22.6486 O   0  0  0  0  0  0  0  0  0  0  0  0
    7.3934  -17.6111   24.1519 C   0  0  2  0  0  0  0  0  0  0  0  0
    6.2762  -17.6037   23.2452 N   0  0  0  0  0  0  0  0  0  0  0  0
    6.8811  -17.6238   25.5392 C   0  0  0  0  0  0  0  0  0  0  0  0
    5.7858  -17.0676   25.7871 O   0  0  0  0  0  0  0  0  0  0  0  0
    7.5551  -18.2234   26.5869 O   0  0  0  0  0  0  0  0  0  0  0  0
  2  1  1  0
  3  4  2  0
  3  2  1  0
  5  3  1  0
  6  5  1  0
  6 12  1  0
  6  7  1  1
  8  7  1  0
  9 10  1  0
  9  8  1  0
 10 11  1  0
 12 13  2  0
 15 14  1  1
 15 16  1  0
 17 19  1  0
 17 15  1  0
 18 12  1  0
 17 18  1  6
 19 21  1  0
 20 19  2  0
M  END
$$$$
