GKT.pdb
     RDKit          3D

 21 20  0  0  1  0  0  0  0  0999 V2000
   -2.0452  -24.2609   26.6373 N   0  0  0  0  0  0  0  0  0  0  0  0
   -2.3429  -24.7187   27.9776 C   0  0  0  0  0  0  0  0  0  0  0  0
   -3.7804  -24.9598   28.1789 C   0  0  0  0  0  0  0  0  0  0  0  0
   -4.5836  -24.5327   27.3235 O   0  0  0  0  0  0  0  0  0  0  0  0
   -4.2808  -25.6491   29.2922 N   0  0  0  0  0  0  0  0  0  0  0  0
   -5.6551  -25.9524   29.5546 C   0  0  1  0  0  0  0  0  0  0  0  0
   -5.8750  -27.2517   30.2767 C   0  0  0  0  0  0  0  0  0  0  0  0
   -5.3018  -28.4495   29.5947 C   0  0  0  0  0  0  0  0  0  0  0  0
   -5.4451  -29.7296   30.3267 C   0  0  0  0  0  0  0  0  0  0  0  0
   -4.8788  -30.9472   29.6935 C   0  0  0  0  0  0  0  0  0  0  0  0
   -5.0581  -32.1755   30.3882 N   0  0  0  0  0  0  0  0  0  0  0  0
   -6.2968  -24.8889   30.4050 C   0  0  0  0  0  0  0  0  0  0  0  0
   -5.7892  -24.5885   31.5139 O   0  0  0  0  0  0  0  0  0  0  0  0
   -6.2698  -21.4635   29.7594 C   0  0  0  0  0  0  0  0  0  0  0  0
   -7.7397  -21.7613   29.9133 C   0  0  1  0  0  0  0  0  0  0  0  0
   -8.2627  -21.9453   28.6321 O   0  0  0  0  0  0  0  0  0  0  0  0
   -7.9812  -23.0389   30.6888 C   0  0  2  0  0  0  0  0  0  0  0  0
   -7.4733  -24.1966   30.0017 N   0  0  0  0  0  0  0  0  0  0  0  0
   -9.4177  -23.2458   30.9735 C   0  0  0  0  0  0  0  0  0  0  0  0
  -10.0046  -24.2241   30.4552 O   0  0  0  0  0  0  0  0  0  0  0  0
  -10.1533  -22.4071   31.7900 O   0  0  0  0  0  0  0  0  0  0  0  0
  2  1  1  0
  3  4  2  0
  3  2  1  0
  5  3  1  0
  6  5  1  0
  6 12  1  0
  6  7  1  1
  8  7  1  0
  9 10  1  0
  9  8  1  0
 10 11  1  0
 12 13  2  0
 15 14  1  6
 15 16  1  0
 17 19  1  0
 17 15  1  0
 18 12  1  0
 17 18  1  6
 19 21  1  0
 20 19  2  0
M  END
$$$$
