GKT.pdb
     RDKit          3D

 21 20  0  0  1  0  0  0  0  0999 V2000
    8.7788  -15.9988   18.7259 N   0  0  0  0  0  0  0  0  0  0  0  0
    9.3577  -16.2576   20.0268 C   0  0  0  0  0  0  0  0  0  0  0  0
    8.4107  -15.9942   21.1219 C   0  0  0  0  0  0  0  0  0  0  0  0
    7.4592  -15.2128   20.9141 O   0  0  0  0  0  0  0  0  0  0  0  0
    8.5364  -16.5861   22.3863 N   0  0  0  0  0  0  0  0  0  0  0  0
    7.6662  -16.3882   23.5057 C   0  0  1  0  0  0  0  0  0  0  0  0
    7.3730  -17.6362   24.2897 C   0  0  0  0  0  0  0  0  0  0  0  0
    6.7376  -18.7333   23.5017 C   0  0  0  0  0  0  0  0  0  0  0  0
    6.3718  -19.9436   24.2739 C   0  0  0  0  0  0  0  0  0  0  0  0
    5.7145  -21.0526   23.5375 C   0  0  0  0  0  0  0  0  0  0  0  0
    5.4123  -22.2274   24.2805 N   0  0  0  0  0  0  0  0  0  0  0  0
    8.2515  -15.4075   24.4863 C   0  0  0  0  0  0  0  0  0  0  0  0
    9.4948  -15.3686   24.6606 O   0  0  0  0  0  0  0  0  0  0  0  0
    6.7861  -11.5778   25.1508 C   0  0  0  0  0  0  0  0  0  0  0  0
    7.0338  -12.3871   26.3984 C   0  0  1  0  0  0  0  0  0  0  0  0
    5.8110  -12.9379   26.7860 O   0  0  0  0  0  0  0  0  0  0  0  0
    7.9888  -13.5351   26.1492 C   0  0  2  0  0  0  0  0  0  0  0  0
    7.4453  -14.5069   25.2379 N   0  0  0  0  0  0  0  0  0  0  0  0
    8.3663  -14.2185   27.4053 C   0  0  0  0  0  0  0  0  0  0  0  0
    8.0878  -15.4325   27.5434 O   0  0  0  0  0  0  0  0  0  0  0  0
    9.0169  -13.5807   28.4451 O   0  0  0  0  0  0  0  0  0  0  0  0
  2  1  1  0
  3  4  2  0
  3  2  1  0
  5  3  1  0
  6  5  1  0
  6 12  1  0
  6  7  1  1
  8  7  1  0
  9 10  1  0
  9  8  1  0
 10 11  1  0
 12 13  2  0
 15 14  1  6
 15 16  1  0
 17 19  1  0
 17 15  1  0
 18 12  1  0
 17 18  1  6
 19 21  1  0
 20 19  2  0
M  END
$$$$
