GKT.pdb
     RDKit          3D

 21 20  0  0  1  0  0  0  0  0999 V2000
   -0.9956  -23.5890   24.6145 N   0  0  0  0  0  0  0  0  0  0  0  0
   -0.2977  -24.4609   23.6940 C   0  0  0  0  0  0  0  0  0  0  0  0
    1.0995  -24.0492   23.4854 C   0  0  0  0  0  0  0  0  0  0  0  0
    1.9637  -24.9338   23.3128 O   0  0  0  0  0  0  0  0  0  0  0  0
    1.4957  -22.7047   23.4733 N   0  0  0  0  0  0  0  0  0  0  0  0
    2.7843  -22.2036   23.1022 C   0  0  1  0  0  0  0  0  0  0  0  0
    2.7487  -20.9102   22.3380 C   0  0  0  0  0  0  0  0  0  0  0  0
    2.4178  -21.0504   20.8892 C   0  0  0  0  0  0  0  0  0  0  0  0
    3.4967  -20.6674   19.9488 C   0  0  0  0  0  0  0  0  0  0  0  0
    3.1980  -20.7444   18.4965 C   0  0  0  0  0  0  0  0  0  0  0  0
    4.2311  -20.3411   17.6056 N   0  0  0  0  0  0  0  0  0  0  0  0
    3.6412  -21.9489   24.3134 C   0  0  0  0  0  0  0  0  0  0  0  0
    3.2485  -21.1460   25.1957 O   0  0  0  0  0  0  0  0  0  0  0  0
    4.4128  -23.9055   27.1579 C   0  0  0  0  0  0  0  0  0  0  0  0
    5.7645  -23.5901   26.5695 C   0  0  1  0  0  0  0  0  0  0  0  0
    6.1398  -24.6806   25.7826 O   0  0  0  0  0  0  0  0  0  0  0  0
    5.7207  -22.3748   25.6678 C   0  0  2  0  0  0  0  0  0  0  0  0
    4.8982  -22.5882   24.5067 N   0  0  0  0  0  0  0  0  0  0  0  0
    7.0726  -21.9693   25.2261 C   0  0  0  0  0  0  0  0  0  0  0  0
    7.3424  -21.9872   24.0024 O   0  0  0  0  0  0  0  0  0  0  0  0
    8.0637  -21.5675   26.1022 O   0  0  0  0  0  0  0  0  0  0  0  0
  2  1  1  0
  3  4  2  0
  3  2  1  0
  5  3  1  0
  6  5  1  0
  6 12  1  0
  6  7  1  1
  8  7  1  0
  9 10  1  0
  9  8  1  0
 10 11  1  0
 12 13  2  0
 15 14  1  6
 15 16  1  0
 17 19  1  0
 17 15  1  0
 18 12  1  0
 17 18  1  6
 19 21  1  0
 20 19  2  0
M  END
$$$$
