GKT.pdb
     RDKit          3D

 21 20  0  0  1  0  0  0  0  0999 V2000
    5.6988  -19.3784   19.6290 N   0  0  0  0  0  0  0  0  0  0  0  0
    5.6705  -18.2764   20.5666 C   0  0  0  0  0  0  0  0  0  0  0  0
    6.9337  -17.5219   20.5799 C   0  0  0  0  0  0  0  0  0  0  0  0
    7.9876  -18.1154   20.2697 O   0  0  0  0  0  0  0  0  0  0  0  0
    6.9982  -16.1653   20.9270 N   0  0  0  0  0  0  0  0  0  0  0  0
    8.1778  -15.3551   20.9664 C   0  0  1  0  0  0  0  0  0  0  0  0
    7.9206  -13.8807   20.8318 C   0  0  0  0  0  0  0  0  0  0  0  0
    7.3194  -13.4685   19.5291 C   0  0  0  0  0  0  0  0  0  0  0  0
    8.2287  -13.5256   18.3608 C   0  0  0  0  0  0  0  0  0  0  0  0
    7.6569  -13.1930   17.0316 C   0  0  0  0  0  0  0  0  0  0  0  0
    8.4966  -13.3967   15.9016 N   0  0  0  0  0  0  0  0  0  0  0  0
    8.9194  -15.5323   22.2644 C   0  0  0  0  0  0  0  0  0  0  0  0
    8.2793  -15.5948   23.3432 O   0  0  0  0  0  0  0  0  0  0  0  0
    9.1580  -17.6187   24.1376 C   0  0  0  0  0  0  0  0  0  0  0  0
   10.6378  -17.5133   23.8698 C   0  0  1  0  0  0  0  0  0  0  0  0
   10.9237  -18.3430   22.7841 O   0  0  0  0  0  0  0  0  0  0  0  0
   11.0455  -16.1070   23.4847 C   0  0  2  0  0  0  0  0  0  0  0  0
   10.3379  -15.6338   22.3248 N   0  0  0  0  0  0  0  0  0  0  0  0
   12.4990  -16.0065   23.2302 C   0  0  0  0  0  0  0  0  0  0  0  0
   13.2925  -16.1040   24.1952 O   0  0  0  0  0  0  0  0  0  0  0  0
   13.0323  -15.8086   21.9702 O   0  0  0  0  0  0  0  0  0  0  0  0
  2  1  1  0
  3  4  2  0
  3  2  1  0
  5  3  1  0
  6  5  1  0
  6 12  1  0
  6  7  1  1
  8  7  1  0
  9 10  1  0
  9  8  1  0
 10 11  1  0
 12 13  2  0
 15 14  1  6
 15 16  1  0
 17 19  1  0
 17 15  1  0
 18 12  1  0
 17 18  1  6
 19 21  1  0
 20 19  2  0
M  END
$$$$
