GKT.pdb
     RDKit          3D

 21 20  0  0  1  0  0  0  0  0999 V2000
   -0.9395  -25.2707   19.3857 N   0  0  0  0  0  0  0  0  0  0  0  0
   -1.2585  -23.8736   19.5880 C   0  0  0  0  0  0  0  0  0  0  0  0
   -0.5409  -22.9955   18.6503 C   0  0  0  0  0  0  0  0  0  0  0  0
    0.2752  -23.5085   17.8566 O   0  0  0  0  0  0  0  0  0  0  0  0
   -0.7386  -21.6082   18.6148 N   0  0  0  0  0  0  0  0  0  0  0  0
   -0.1054  -20.6838   17.7237 C   0  0  1  0  0  0  0  0  0  0  0  0
   -0.9365  -19.4768   17.3912 C   0  0  0  0  0  0  0  0  0  0  0  0
   -2.3038  -19.7831   16.8764 C   0  0  0  0  0  0  0  0  0  0  0  0
   -3.1530  -18.6053   16.5823 C   0  0  0  0  0  0  0  0  0  0  0  0
   -4.5455  -18.8602   16.1345 C   0  0  0  0  0  0  0  0  0  0  0  0
   -5.3618  -17.7205   15.8933 N   0  0  0  0  0  0  0  0  0  0  0  0
    1.1800  -20.1580   18.3043 C   0  0  0  0  0  0  0  0  0  0  0  0
    1.1441  -19.3512   19.2662 O   0  0  0  0  0  0  0  0  0  0  0  0
    3.8366  -21.8907   20.1096 C   0  0  0  0  0  0  0  0  0  0  0  0
    4.5172  -21.2288   18.9386 C   0  0  1  0  0  0  0  0  0  0  0  0
    4.6413  -22.1891   17.9329 O   0  0  0  0  0  0  0  0  0  0  0  0
    3.6960  -20.0879   18.3763 C   0  0  2  0  0  0  0  0  0  0  0  0
    2.4562  -20.5408   17.8034 N   0  0  0  0  0  0  0  0  0  0  0  0
    4.4432  -19.3250   17.3531 C   0  0  0  0  0  0  0  0  0  0  0  0
    5.4604  -18.6801   17.6991 O   0  0  0  0  0  0  0  0  0  0  0  0
    4.0735  -19.2864   16.0215 O   0  0  0  0  0  0  0  0  0  0  0  0
  2  1  1  0
  3  4  2  0
  3  2  1  0
  5  3  1  0
  6  5  1  0
  6 12  1  0
  6  7  1  1
  8  7  1  0
  9 10  1  0
  9  8  1  0
 10 11  1  0
 12 13  2  0
 15 14  1  1
 15 16  1  0
 17 19  1  0
 17 15  1  0
 18 12  1  0
 17 18  1  6
 19 21  1  0
 20 19  2  0
M  END
$$$$
