GKT.pdb
     RDKit          3D

 21 20  0  0  1  0  0  0  0  0999 V2000
   11.9877  -17.7438   17.0922 N   0  0  0  0  0  0  0  0  0  0  0  0
   10.6679  -17.6824   17.6829 C   0  0  0  0  0  0  0  0  0  0  0  0
   10.6105  -16.7589   18.8271 C   0  0  0  0  0  0  0  0  0  0  0  0
   11.6461  -16.5768   19.5005 O   0  0  0  0  0  0  0  0  0  0  0  0
    9.4400  -16.0778   19.1885 N   0  0  0  0  0  0  0  0  0  0  0  0
    9.2381  -15.3122   20.3812 C   0  0  1  0  0  0  0  0  0  0  0  0
    7.9844  -14.4836   20.3799 C   0  0  0  0  0  0  0  0  0  0  0  0
    7.9688  -13.3770   19.3781 C   0  0  0  0  0  0  0  0  0  0  0  0
    7.3745  -13.7151   18.0638 C   0  0  0  0  0  0  0  0  0  0  0  0
    7.3553  -12.6520   17.0276 C   0  0  0  0  0  0  0  0  0  0  0  0
    6.7497  -12.9789   15.7826 N   0  0  0  0  0  0  0  0  0  0  0  0
    9.1493  -16.2010   21.5928 C   0  0  0  0  0  0  0  0  0  0  0  0
    8.3359  -17.1580   21.6042 O   0  0  0  0  0  0  0  0  0  0  0  0
   12.5030  -16.5582   24.1830 C   0  0  0  0  0  0  0  0  0  0  0  0
   11.4351  -17.5838   23.8995 C   0  0  1  0  0  0  0  0  0  0  0  0
   11.4231  -18.4783   24.9714 O   0  0  0  0  0  0  0  0  0  0  0  0
   10.0582  -16.9601   23.8149 C   0  0  2  0  0  0  0  0  0  0  0  0
    9.9597  -16.0021   22.7459 N   0  0  0  0  0  0  0  0  0  0  0  0
    9.6745  -16.3013   25.0822 C   0  0  0  0  0  0  0  0  0  0  0  0
    9.5361  -15.0559   25.1014 O   0  0  0  0  0  0  0  0  0  0  0  0
    9.4585  -16.9954   26.2581 O   0  0  0  0  0  0  0  0  0  0  0  0
  2  1  1  0
  3  4  2  0
  3  2  1  0
  5  3  1  0
  6  5  1  0
  6 12  1  0
  6  7  1  6
  8  7  1  0
  9 10  1  0
  9  8  1  0
 10 11  1  0
 12 13  2  0
 15 14  1  1
 15 16  1  0
 17 19  1  0
 17 15  1  0
 18 12  1  0
 17 18  1  6
 19 21  1  0
 20 19  2  0
M  END
$$$$
