GKT.pdb
     RDKit          3D

 21 20  0  0  1  0  0  0  0  0999 V2000
    6.2492  -21.3689   17.7611 N   0  0  0  0  0  0  0  0  0  0  0  0
    6.5865  -22.1644   18.9221 C   0  0  0  0  0  0  0  0  0  0  0  0
    6.2051  -21.5049   20.1810 C   0  0  0  0  0  0  0  0  0  0  0  0
    6.1441  -20.2580   20.2078 O   0  0  0  0  0  0  0  0  0  0  0  0
    5.9085  -22.2220   21.3483 N   0  0  0  0  0  0  0  0  0  0  0  0
    5.5686  -21.6651   22.6226 C   0  0  1  0  0  0  0  0  0  0  0  0
    4.9079  -22.6320   23.5642 C   0  0  0  0  0  0  0  0  0  0  0  0
    3.7543  -23.3798   22.9825 C   0  0  0  0  0  0  0  0  0  0  0  0
    3.1524  -24.4085   23.8626 C   0  0  0  0  0  0  0  0  0  0  0  0
    1.9388  -25.1067   23.3686 C   0  0  0  0  0  0  0  0  0  0  0  0
    1.4750  -26.2107   24.1366 N   0  0  0  0  0  0  0  0  0  0  0  0
    6.7899  -21.1539   23.3389 C   0  0  0  0  0  0  0  0  0  0  0  0
    7.8169  -21.8735   23.4090 O   0  0  0  0  0  0  0  0  0  0  0  0
    7.3950  -16.9157   24.1540 C   0  0  0  0  0  0  0  0  0  0  0  0
    8.4117  -17.9949   23.8816 C   0  0  1  0  0  0  0  0  0  0  0  0
    9.6167  -17.5849   24.4551 O   0  0  0  0  0  0  0  0  0  0  0  0
    8.0284  -19.3104   24.5255 C   0  0  2  0  0  0  0  0  0  0  0  0
    6.8336  -19.8696   23.9510 N   0  0  0  0  0  0  0  0  0  0  0  0
    7.8358  -19.1723   25.9853 C   0  0  0  0  0  0  0  0  0  0  0  0
    6.6753  -19.2389   26.4536 O   0  0  0  0  0  0  0  0  0  0  0  0
    8.8803  -18.9714   26.8684 O   0  0  0  0  0  0  0  0  0  0  0  0
  2  1  1  0
  3  4  2  0
  3  2  1  0
  5  3  1  0
  6  5  1  0
  6 12  1  0
  6  7  1  1
  8  7  1  0
  9 10  1  0
  9  8  1  0
 10 11  1  0
 12 13  2  0
 15 14  1  1
 15 16  1  0
 17 19  1  0
 17 15  1  0
 18 12  1  0
 17 18  1  6
 19 21  1  0
 20 19  2  0
M  END
$$$$
