GKT.pdb
     RDKit          3D

 21 20  0  0  1  0  0  0  0  0999 V2000
  -10.1268  -12.9268   20.2786 N   0  0  0  0  0  0  0  0  0  0  0  0
  -10.1611  -14.1996   20.9667 C   0  0  0  0  0  0  0  0  0  0  0  0
   -9.6535  -15.2997   20.1316 C   0  0  0  0  0  0  0  0  0  0  0  0
  -10.0184  -15.3623   18.9391 O   0  0  0  0  0  0  0  0  0  0  0  0
   -8.7779  -16.2776   20.6234 N   0  0  0  0  0  0  0  0  0  0  0  0
   -8.3169  -17.4352   19.9184 C   0  0  1  0  0  0  0  0  0  0  0  0
   -6.9424  -17.8948   20.3153 C   0  0  0  0  0  0  0  0  0  0  0  0
   -6.4063  -19.0295   19.5070 C   0  0  0  0  0  0  0  0  0  0  0  0
   -5.0091  -19.4212   19.8060 C   0  0  0  0  0  0  0  0  0  0  0  0
   -4.4128  -20.5074   18.9881 C   0  0  0  0  0  0  0  0  0  0  0  0
   -3.0321  -20.7819   19.1925 N   0  0  0  0  0  0  0  0  0  0  0  0
   -9.2303  -18.6108   20.1415 C   0  0  0  0  0  0  0  0  0  0  0  0
   -9.5380  -18.9464   21.3120 O   0  0  0  0  0  0  0  0  0  0  0  0
  -12.7395  -21.6174   18.3804 C   0  0  0  0  0  0  0  0  0  0  0  0
  -11.7726  -20.4775   18.1847 C   0  0  1  0  0  0  0  0  0  0  0  0
  -12.5010  -19.2914   18.2929 O   0  0  0  0  0  0  0  0  0  0  0  0
  -10.7029  -20.4512   19.2558 C   0  0  2  0  0  0  0  0  0  0  0  0
   -9.7702  -19.3721   19.0668 N   0  0  0  0  0  0  0  0  0  0  0  0
   -9.9530  -21.7245   19.3150 C   0  0  0  0  0  0  0  0  0  0  0  0
   -8.9425  -21.8684   18.5880 O   0  0  0  0  0  0  0  0  0  0  0  0
  -10.3130  -22.7745   20.1391 O   0  0  0  0  0  0  0  0  0  0  0  0
  2  1  1  0
  3  4  2  0
  3  2  1  0
  5  3  1  0
  6  5  1  0
  6 12  1  0
  6  7  1  1
  8  7  1  0
  9 10  1  0
  9  8  1  0
 10 11  1  0
 12 13  2  0
 15 14  1  1
 15 16  1  0
 17 19  1  0
 17 15  1  0
 18 12  1  0
 17 18  1  6
 19 21  1  0
 20 19  2  0
M  END
$$$$
