GKT.pdb
     RDKit          3D

 21 20  0  0  1  0  0  0  0  0999 V2000
    5.4977  -18.5595   17.2499 N   0  0  0  0  0  0  0  0  0  0  0  0
    5.4248  -19.4214   18.4103 C   0  0  0  0  0  0  0  0  0  0  0  0
    5.1824  -18.6682   19.6510 C   0  0  0  0  0  0  0  0  0  0  0  0
    5.7541  -17.5687   19.8039 O   0  0  0  0  0  0  0  0  0  0  0  0
    4.3360  -19.1376   20.6649 N   0  0  0  0  0  0  0  0  0  0  0  0
    4.1603  -18.5546   21.9606 C   0  0  1  0  0  0  0  0  0  0  0  0
    3.0346  -19.1491   22.7591 C   0  0  0  0  0  0  0  0  0  0  0  0
    1.7064  -19.1261   22.0781 C   0  0  0  0  0  0  0  0  0  0  0  0
    0.6306  -19.8891   22.7529 C   0  0  0  0  0  0  0  0  0  0  0  0
   -0.6916  -19.9489   22.0802 C   0  0  0  0  0  0  0  0  0  0  0  0
   -1.7044  -20.7155   22.7205 N   0  0  0  0  0  0  0  0  0  0  0  0
    5.3977  -18.7120   22.8031 C   0  0  0  0  0  0  0  0  0  0  0  0
    6.0065  -19.8105   22.8155 O   0  0  0  0  0  0  0  0  0  0  0  0
    7.6902  -15.2962   23.7334 C   0  0  0  0  0  0  0  0  0  0  0  0
    8.1829  -16.7166   23.6225 C   0  0  1  0  0  0  0  0  0  0  0  0
    9.3726  -16.8016   24.3481 O   0  0  0  0  0  0  0  0  0  0  0  0
    7.2096  -17.7035   24.2315 C   0  0  2  0  0  0  0  0  0  0  0  0
    5.9176  -17.6534   23.6002 N   0  0  0  0  0  0  0  0  0  0  0  0
    7.0392  -17.4823   25.6838 C   0  0  0  0  0  0  0  0  0  0  0  0
    5.9669  -16.9855   26.1007 O   0  0  0  0  0  0  0  0  0  0  0  0
    8.0116  -17.7986   26.6143 O   0  0  0  0  0  0  0  0  0  0  0  0
  2  1  1  0
  3  4  2  0
  3  2  1  0
  5  3  1  0
  6  5  1  0
  6 12  1  0
  6  7  1  1
  8  7  1  0
  9 10  1  0
  9  8  1  0
 10 11  1  0
 12 13  2  0
 15 14  1  1
 15 16  1  0
 17 19  1  0
 17 15  1  0
 18 12  1  0
 17 18  1  6
 19 21  1  0
 20 19  2  0
M  END
$$$$
