LNV.pdb
     RDKit          3D

 24 23  0  0  1  0  0  0  0  0999 V2000
    9.3197  -13.0620   18.9675 C   0  0  0  0  0  0  0  0  0  0  0  0
    7.8702  -13.4721   18.6693 C   0  0  2  0  0  0  0  0  0  0  0  0
    7.1559  -12.2267   18.2655 C   0  0  0  0  0  0  0  0  0  0  0  0
    7.3658  -14.1638   19.8841 C   0  0  0  0  0  0  0  0  0  0  0  0
    8.2243  -15.1934   20.5030 C   0  0  2  0  0  0  0  0  0  0  0  0
    8.2956  -16.4497   19.8264 N   0  0  0  0  0  0  0  0  0  0  0  0
    7.7546  -15.4441   21.8937 C   0  0  0  0  0  0  0  0  0  0  0  0
    7.1686  -14.5573   22.5500 O   0  0  0  0  0  0  0  0  0  0  0  0
    5.2791  -19.4133   23.2874 N   0  0  0  0  0  0  0  0  0  0  0  0
    6.6811  -19.2254   23.2370 C   0  0  0  0  0  0  0  0  0  0  0  0
    7.3054  -19.7818   22.3085 O   0  0  0  0  0  0  0  0  0  0  0  0
    7.3696  -18.4153   24.2300 C   0  0  0  0  0  0  0  0  0  0  0  0
    7.4824  -16.9656   23.8996 C   0  0  2  0  0  0  0  0  0  0  0  0
    7.9379  -16.7010   22.5684 N   0  0  0  0  0  0  0  0  0  0  0  0
    8.2117  -16.1742   24.9272 C   0  0  0  0  0  0  0  0  0  0  0  0
    9.4624  -16.1907   24.8678 O   0  0  0  0  0  0  0  0  0  0  0  0
    8.0974  -12.5007   28.2101 C   0  0  0  0  0  0  0  0  0  0  0  0
    7.2968  -13.5156   27.4141 C   0  0  1  0  0  0  0  0  0  0  0  0
    6.5381  -12.7509   26.3671 C   0  0  0  0  0  0  0  0  0  0  0  0
    8.2556  -14.5301   26.8482 C   0  0  2  0  0  0  0  0  0  0  0  0
    7.5756  -15.4387   25.9225 N   0  0  0  0  0  0  0  0  0  0  0  0
    8.9333  -15.2522   27.9250 C   0  0  0  0  0  0  0  0  0  0  0  0
   10.0539  -14.7576   28.5676 O   0  0  0  0  0  0  0  0  0  0  0  0
    8.5003  -16.3656   28.2952 O   0  0  0  0  0  0  0  0  0  0  0  0
  2  1  1  1
  2  3  1  0
  4  2  1  0
  4  5  1  0
  5  7  1  0
  5  6  1  6
  7  8  2  0
  9 10  1  0
 10 11  2  0
 13 12  1  1
 12 10  1  0
 14 13  1  0
 14  7  1  0
 15 13  1  0
 16 15  2  0
 18 17  1  6
 19 18  1  0
 20 18  1  0
 20 21  1  6
 21 15  1  0
 22 23  1  0
 22 20  1  0
 24 22  2  0
M  END
$$$$
