LNV.pdb
     RDKit          3D

 24 23  0  0  1  0  0  0  0  0999 V2000
    7.3262  -13.7054   19.2864 C   0  0  0  0  0  0  0  0  0  0  0  0
    7.8957  -13.5265   20.7013 C   0  0  2  0  0  0  0  0  0  0  0  0
    7.8673  -12.0624   20.9837 C   0  0  0  0  0  0  0  0  0  0  0  0
    9.2309  -14.1790   20.7075 C   0  0  0  0  0  0  0  0  0  0  0  0
    9.2890  -15.6421   20.5169 C   0  0  2  0  0  0  0  0  0  0  0  0
    8.1680  -16.2414   19.8647 N   0  0  0  0  0  0  0  0  0  0  0  0
    9.4558  -16.2973   21.8437 C   0  0  0  0  0  0  0  0  0  0  0  0
    8.4715  -16.7193   22.4869 O   0  0  0  0  0  0  0  0  0  0  0  0
   12.6610  -19.3921   21.6495 N   0  0  0  0  0  0  0  0  0  0  0  0
   11.8107  -19.2571   22.7730 C   0  0  0  0  0  0  0  0  0  0  0  0
   10.8979  -20.0992   22.9110 O   0  0  0  0  0  0  0  0  0  0  0  0
   11.9922  -18.1774   23.7308 C   0  0  0  0  0  0  0  0  0  0  0  0
   10.9209  -17.1402   23.7293 C   0  0  2  0  0  0  0  0  0  0  0  0
   10.7373  -16.4882   22.4681 N   0  0  0  0  0  0  0  0  0  0  0  0
   11.0146  -16.1837   24.8653 C   0  0  0  0  0  0  0  0  0  0  0  0
   11.9662  -15.3702   24.8396 O   0  0  0  0  0  0  0  0  0  0  0  0
    9.0418  -13.4138   28.2649 C   0  0  0  0  0  0  0  0  0  0  0  0
    8.8864  -14.4228   27.1414 C   0  0  1  0  0  0  0  0  0  0  0  0
    8.5556  -13.6467   25.8984 C   0  0  0  0  0  0  0  0  0  0  0  0
   10.1645  -15.2133   27.0404 C   0  0  2  0  0  0  0  0  0  0  0  0
   10.1119  -16.1598   25.9240 N   0  0  0  0  0  0  0  0  0  0  0  0
   10.4574  -15.8797   28.3094 C   0  0  0  0  0  0  0  0  0  0  0  0
   11.2049  -15.2864   29.3107 O   0  0  0  0  0  0  0  0  0  0  0  0
   10.0259  -17.0347   28.5190 O   0  0  0  0  0  0  0  0  0  0  0  0
  2  1  1  6
  2  3  1  0
  4  2  1  0
  4  5  1  0
  5  7  1  0
  5  6  1  1
  7  8  2  0
  9 10  1  0
 10 11  2  0
 13 12  1  6
 12 10  1  0
 14 13  1  0
 14  7  1  0
 15 13  1  0
 16 15  2  0
 18 17  1  1
 19 18  1  0
 20 18  1  0
 20 21  1  6
 21 15  1  0
 22 23  1  0
 22 20  1  0
 24 22  2  0
M  END
$$$$
