LNV.pdb
     RDKit          3D

 24 23  0  0  1  0  0  0  0  0999 V2000
    7.5396  -12.7562   18.3939 C   0  0  0  0  0  0  0  0  0  0  0  0
    7.6900  -13.4880   19.7355 C   0  0  2  0  0  0  0  0  0  0  0  0
    8.5891  -12.6451   20.5754 C   0  0  0  0  0  0  0  0  0  0  0  0
    8.1675  -14.8596   19.4202 C   0  0  0  0  0  0  0  0  0  0  0  0
    7.3440  -16.0007   19.8674 C   0  0  2  0  0  0  0  0  0  0  0  0
    5.9714  -15.7205   20.1479 N   0  0  0  0  0  0  0  0  0  0  0  0
    7.9547  -16.5886   21.0917 C   0  0  0  0  0  0  0  0  0  0  0  0
    8.1821  -17.8139   21.1787 O   0  0  0  0  0  0  0  0  0  0  0  0
   11.9633  -18.1892   24.4686 N   0  0  0  0  0  0  0  0  0  0  0  0
   10.5750  -17.9322   24.3687 C   0  0  0  0  0  0  0  0  0  0  0  0
    9.8573  -18.2501   25.3410 O   0  0  0  0  0  0  0  0  0  0  0  0
   10.0048  -17.3214   23.1779 C   0  0  0  0  0  0  0  0  0  0  0  0
    8.9011  -16.3506   23.4284 C   0  0  2  0  0  0  0  0  0  0  0  0
    8.3200  -15.8034   22.2400 N   0  0  0  0  0  0  0  0  0  0  0  0
    9.2387  -15.3104   24.4375 C   0  0  0  0  0  0  0  0  0  0  0  0
   10.3111  -14.6868   24.2664 O   0  0  0  0  0  0  0  0  0  0  0  0
    7.2628  -12.3321   25.4896 C   0  0  0  0  0  0  0  0  0  0  0  0
    7.5445  -13.0958   26.7710 C   0  0  1  0  0  0  0  0  0  0  0  0
    6.2887  -13.8422   27.1211 C   0  0  0  0  0  0  0  0  0  0  0  0
    8.7342  -13.9886   26.5335 C   0  0  2  0  0  0  0  0  0  0  0  0
    8.4323  -15.0135   25.5319 N   0  0  0  0  0  0  0  0  0  0  0  0
    9.1967  -14.5731   27.7923 C   0  0  0  0  0  0  0  0  0  0  0  0
    9.8261  -13.8305   28.7752 O   0  0  0  0  0  0  0  0  0  0  0  0
    9.0283  -15.7931   28.0100 O   0  0  0  0  0  0  0  0  0  0  0  0
  2  1  1  6
  2  3  1  0
  4  2  1  0
  4  5  1  0
  5  7  1  0
  5  6  1  1
  7  8  2  0
  9 10  1  0
 10 11  2  0
 13 12  1  6
 12 10  1  0
 14 13  1  0
 14  7  1  0
 15 13  1  0
 16 15  2  0
 18 17  1  6
 19 18  1  0
 20 18  1  0
 20 21  1  6
 21 15  1  0
 22 23  1  0
 22 20  1  0
 24 22  2  0
M  END
$$$$
