LNV.pdb
     RDKit          3D

 24 23  0  0  1  0  0  0  0  0999 V2000
    9.3265  -12.6925   19.3776 C   0  0  0  0  0  0  0  0  0  0  0  0
    8.0121  -13.3312   18.9056 C   0  0  2  0  0  0  0  0  0  0  0  0
    7.0357  -12.2150   18.7472 C   0  0  0  0  0  0  0  0  0  0  0  0
    7.6677  -14.3796   19.9011 C   0  0  0  0  0  0  0  0  0  0  0  0
    8.5420  -15.5661   19.9897 C   0  0  2  0  0  0  0  0  0  0  0  0
    8.2715  -16.6232   19.0675 N   0  0  0  0  0  0  0  0  0  0  0  0
    8.4630  -16.1244   21.3679 C   0  0  0  0  0  0  0  0  0  0  0  0
    7.8701  -17.1993   21.5992 O   0  0  0  0  0  0  0  0  0  0  0  0
   11.0638  -17.9605   22.1962 N   0  0  0  0  0  0  0  0  0  0  0  0
   10.6915  -17.8152   23.5541 C   0  0  0  0  0  0  0  0  0  0  0  0
   11.5743  -18.0028   24.4183 O   0  0  0  0  0  0  0  0  0  0  0  0
    9.3313  -17.4615   23.9295 C   0  0  0  0  0  0  0  0  0  0  0  0
    9.0047  -16.0093   23.8390 C   0  0  2  0  0  0  0  0  0  0  0  0
    9.0525  -15.4789   22.5101 N   0  0  0  0  0  0  0  0  0  0  0  0
    9.7410  -15.1696   24.8223 C   0  0  0  0  0  0  0  0  0  0  0  0
   10.7917  -15.6538   25.3014 O   0  0  0  0  0  0  0  0  0  0  0  0
    6.8459  -12.4971   27.6481 C   0  0  0  0  0  0  0  0  0  0  0  0
    7.2760  -13.1979   26.3720 C   0  0  1  0  0  0  0  0  0  0  0  0
    7.0255  -12.2413   25.2411 C   0  0  0  0  0  0  0  0  0  0  0  0
    8.7209  -13.5968   26.5198 C   0  0  2  0  0  0  0  0  0  0  0  0
    9.3185  -13.9044   25.2185 N   0  0  0  0  0  0  0  0  0  0  0  0
    8.8524  -14.7105   27.4593 C   0  0  0  0  0  0  0  0  0  0  0  0
    9.4343  -14.5721   28.7065 O   0  0  0  0  0  0  0  0  0  0  0  0
    8.4298  -15.8441   27.1424 O   0  0  0  0  0  0  0  0  0  0  0  0
  2  1  1  1
  2  3  1  0
  4  2  1  0
  4  5  1  0
  5  7  1  0
  5  6  1  6
  7  8  2  0
  9 10  1  0
 10 11  2  0
 13 12  1  6
 12 10  1  0
 14 13  1  0
 14  7  1  0
 15 13  1  0
 16 15  2  0
 18 17  1  1
 19 18  1  0
 20 18  1  0
 20 21  1  6
 21 15  1  0
 22 23  1  0
 22 20  1  0
 24 22  2  0
M  END
$$$$
