LNV.pdb
     RDKit          3D

 24 23  0  0  1  0  0  0  0  0999 V2000
    6.2382  -12.7875   26.3761 C   0  0  0  0  0  0  0  0  0  0  0  0
    6.9298  -13.7467   25.3964 C   0  0  2  0  0  0  0  0  0  0  0  0
    7.0740  -13.0031   24.1116 C   0  0  0  0  0  0  0  0  0  0  0  0
    6.1066  -14.9835   25.3600 C   0  0  0  0  0  0  0  0  0  0  0  0
    6.4389  -16.0085   24.3506 C   0  0  2  0  0  0  0  0  0  0  0  0
    5.6188  -17.1783   24.3412 N   0  0  0  0  0  0  0  0  0  0  0  0
    7.8521  -16.4371   24.5422 C   0  0  0  0  0  0  0  0  0  0  0  0
    8.1509  -17.3461   25.3452 O   0  0  0  0  0  0  0  0  0  0  0  0
   12.7553  -17.7719   22.9096 N   0  0  0  0  0  0  0  0  0  0  0  0
   12.5398  -16.3751   22.8321 C   0  0  0  0  0  0  0  0  0  0  0  0
   13.5467  -15.6383   22.7636 O   0  0  0  0  0  0  0  0  0  0  0  0
   11.1959  -15.8181   22.8332 C   0  0  0  0  0  0  0  0  0  0  0  0
   10.3038  -16.3143   23.9202 C   0  0  2  0  0  0  0  0  0  0  0  0
    8.9536  -15.8469   23.8302 N   0  0  0  0  0  0  0  0  0  0  0  0
   10.8793  -16.1567   25.2833 C   0  0  0  0  0  0  0  0  0  0  0  0
   12.0826  -16.4726   25.4266 O   0  0  0  0  0  0  0  0  0  0  0  0
   10.3663  -14.6117   29.9742 C   0  0  0  0  0  0  0  0  0  0  0  0
    9.7330  -14.7637   28.6030 C   0  0  1  0  0  0  0  0  0  0  0  0
    9.4242  -13.3797   28.1073 C   0  0  0  0  0  0  0  0  0  0  0  0
   10.6927  -15.5223   27.7242 C   0  0  2  0  0  0  0  0  0  0  0  0
   10.1527  -15.6863   26.3728 N   0  0  0  0  0  0  0  0  0  0  0  0
   11.0418  -16.8057   28.3335 C   0  0  0  0  0  0  0  0  0  0  0  0
   10.6396  -18.0189   27.8046 O   0  0  0  0  0  0  0  0  0  0  0  0
   11.7302  -16.8313   29.3774 O   0  0  0  0  0  0  0  0  0  0  0  0
  2  1  1  1
  2  3  1  0
  4  2  1  0
  4  5  1  0
  5  7  1  0
  5  6  1  1
  7  8  2  0
  9 10  1  0
 10 11  2  0
 13 12  1  6
 12 10  1  0
 14 13  1  0
 14  7  1  0
 15 13  1  0
 16 15  2  0
 18 17  1  1
 19 18  1  0
 20 18  1  0
 20 21  1  6
 21 15  1  0
 22 23  1  0
 22 20  1  0
 24 22  2  0
M  END
$$$$
