LNV.pdb
     RDKit          3D

 24 23  0  0  1  0  0  0  0  0999 V2000
    9.5640  -13.7943   19.8140 C   0  0  0  0  0  0  0  0  0  0  0  0
    8.3011  -13.7000   18.9455 C   0  0  2  0  0  0  0  0  0  0  0  0
    8.0134  -12.2461   18.7787 C   0  0  0  0  0  0  0  0  0  0  0  0
    7.2569  -14.5107   19.6244 C   0  0  0  0  0  0  0  0  0  0  0  0
    7.5822  -15.9076   19.9752 C   0  0  2  0  0  0  0  0  0  0  0  0
    6.9513  -16.9215   19.1908 N   0  0  0  0  0  0  0  0  0  0  0  0
    7.2309  -16.1431   21.4030 C   0  0  0  0  0  0  0  0  0  0  0  0
    6.0592  -16.0060   21.8137 O   0  0  0  0  0  0  0  0  0  0  0  0
    6.6734  -19.0130   26.0488 N   0  0  0  0  0  0  0  0  0  0  0  0
    7.8851  -18.4027   25.6451 C   0  0  0  0  0  0  0  0  0  0  0  0
    8.6984  -18.0861   26.5393 O   0  0  0  0  0  0  0  0  0  0  0  0
    8.1722  -18.1525   24.2411 C   0  0  0  0  0  0  0  0  0  0  0  0
    7.8791  -16.7685   23.7697 C   0  0  2  0  0  0  0  0  0  0  0  0
    8.1967  -16.5380   22.3930 N   0  0  0  0  0  0  0  0  0  0  0  0
    8.4071  -15.7073   24.6693 C   0  0  0  0  0  0  0  0  0  0  0  0
    9.6195  -15.4183   24.5485 O   0  0  0  0  0  0  0  0  0  0  0  0
    5.8571  -13.5923   27.3680 C   0  0  0  0  0  0  0  0  0  0  0  0
    7.0344  -12.9220   26.6829 C   0  0  1  0  0  0  0  0  0  0  0  0
    7.4613  -11.7814   27.5623 C   0  0  0  0  0  0  0  0  0  0  0  0
    8.1066  -13.9585   26.4711 C   0  0  2  0  0  0  0  0  0  0  0  0
    7.6280  -15.0438   25.6121 N   0  0  0  0  0  0  0  0  0  0  0  0
    8.6017  -14.4546   27.7552 C   0  0  0  0  0  0  0  0  0  0  0  0
    9.4830  -13.7379   28.5445 O   0  0  0  0  0  0  0  0  0  0  0  0
    8.2275  -15.5713   28.1760 O   0  0  0  0  0  0  0  0  0  0  0  0
  2  1  1  1
  2  3  1  0
  4  2  1  0
  4  5  1  0
  5  7  1  0
  5  6  1  6
  7  8  2  0
  9 10  1  0
 10 11  2  0
 13 12  1  1
 12 10  1  0
 14 13  1  0
 14  7  1  0
 15 13  1  0
 16 15  2  0
 18 17  1  1
 19 18  1  0
 20 18  1  0
 20 21  1  6
 21 15  1  0
 22 23  1  0
 22 20  1  0
 24 22  2  0
M  END
$$$$
