LNV.pdb
     RDKit          3D

 24 23  0  0  1  0  0  0  0  0999 V2000
    8.4371  -11.6877   19.7041 C   0  0  0  0  0  0  0  0  0  0  0  0
    8.4553  -13.1686   19.2984 C   0  0  2  0  0  0  0  0  0  0  0  0
    7.5165  -13.3004   18.1469 C   0  0  0  0  0  0  0  0  0  0  0  0
    8.1231  -13.9479   20.5195 C   0  0  0  0  0  0  0  0  0  0  0  0
    8.5745  -15.3520   20.5906 C   0  0  2  0  0  0  0  0  0  0  0  0
    7.8529  -16.2911   19.7916 N   0  0  0  0  0  0  0  0  0  0  0  0
    8.5153  -15.8089   22.0066 C   0  0  0  0  0  0  0  0  0  0  0  0
    7.4235  -16.0349   22.5700 O   0  0  0  0  0  0  0  0  0  0  0  0
    9.4137  -19.7328   23.1445 N   0  0  0  0  0  0  0  0  0  0  0  0
   10.4057  -18.7255   23.2157 C   0  0  0  0  0  0  0  0  0  0  0  0
   11.2400  -18.6700   22.2872 O   0  0  0  0  0  0  0  0  0  0  0  0
   10.4525  -17.7905   24.3291 C   0  0  0  0  0  0  0  0  0  0  0  0
    9.6575  -16.5426   24.1443 C   0  0  2  0  0  0  0  0  0  0  0  0
    9.6881  -16.0193   22.8121 N   0  0  0  0  0  0  0  0  0  0  0  0
    9.9250  -15.5059   25.1778 C   0  0  0  0  0  0  0  0  0  0  0  0
   11.0401  -14.9382   25.1306 O   0  0  0  0  0  0  0  0  0  0  0  0
    7.7346  -12.5890   26.4629 C   0  0  0  0  0  0  0  0  0  0  0  0
    8.1054  -13.4403   27.6639 C   0  0  1  0  0  0  0  0  0  0  0  0
    6.8919  -14.2527   28.0163 C   0  0  0  0  0  0  0  0  0  0  0  0
    9.3062  -14.2722   27.2968 C   0  0  2  0  0  0  0  0  0  0  0  0
    9.0104  -15.1543   26.1657 N   0  0  0  0  0  0  0  0  0  0  0  0
    9.7897  -15.0167   28.4596 C   0  0  0  0  0  0  0  0  0  0  0  0
   10.4604  -14.4133   29.5082 O   0  0  0  0  0  0  0  0  0  0  0  0
    9.6017  -16.2512   28.5292 O   0  0  0  0  0  0  0  0  0  0  0  0
  2  1  1  1
  2  3  1  0
  4  2  1  0
  4  5  1  0
  5  7  1  0
  5  6  1  6
  7  8  2  0
  9 10  1  0
 10 11  2  0
 13 12  1  6
 12 10  1  0
 14 13  1  0
 14  7  1  0
 15 13  1  0
 16 15  2  0
 18 17  1  6
 19 18  1  0
 20 18  1  0
 20 21  1  6
 21 15  1  0
 22 23  1  0
 22 20  1  0
 24 22  2  0
M  END
$$$$
