LNV.pdb
     RDKit          3D

 24 23  0  0  1  0  0  0  0  0999 V2000
    2.7582  -19.6698   22.1905 C   0  0  0  0  0  0  0  0  0  0  0  0
    3.5740  -18.7516   21.2688 C   0  0  2  0  0  0  0  0  0  0  0  0
    3.2079  -19.1256   19.8722 C   0  0  0  0  0  0  0  0  0  0  0  0
    4.9997  -18.9237   21.6512 C   0  0  0  0  0  0  0  0  0  0  0  0
    5.4582  -18.3106   22.9138 C   0  0  2  0  0  0  0  0  0  0  0  0
    4.5724  -17.3668   23.5185 N   0  0  0  0  0  0  0  0  0  0  0  0
    6.7632  -17.6333   22.6777 C   0  0  0  0  0  0  0  0  0  0  0  0
    7.8103  -18.2891   22.4933 O   0  0  0  0  0  0  0  0  0  0  0  0
    7.1019  -12.8083   20.4394 N   0  0  0  0  0  0  0  0  0  0  0  0
    7.1396  -14.2089   20.6403 C   0  0  0  0  0  0  0  0  0  0  0  0
    6.1118  -14.8609   20.3575 O   0  0  0  0  0  0  0  0  0  0  0  0
    8.3306  -14.8647   21.1579 C   0  0  0  0  0  0  0  0  0  0  0  0
    8.1636  -15.5327   22.4805 C   0  0  2  0  0  0  0  0  0  0  0  0
    6.9093  -16.2028   22.6452 N   0  0  0  0  0  0  0  0  0  0  0  0
    8.5089  -14.6620   23.6367 C   0  0  0  0  0  0  0  0  0  0  0  0
    8.5930  -13.4331   23.4111 O   0  0  0  0  0  0  0  0  0  0  0  0
    7.8799  -12.5244   27.4803 C   0  0  0  0  0  0  0  0  0  0  0  0
    7.6394  -13.4385   26.2923 C   0  0  1  0  0  0  0  0  0  0  0  0
    7.3529  -12.5556   25.1112 C   0  0  0  0  0  0  0  0  0  0  0  0
    8.8553  -14.3101   26.1170 C   0  0  2  0  0  0  0  0  0  0  0  0
    8.7358  -15.1470   24.9210 N   0  0  0  0  0  0  0  0  0  0  0  0
    9.0937  -15.1066   27.3207 C   0  0  0  0  0  0  0  0  0  0  0  0
    9.7888  -14.6208   28.4135 O   0  0  0  0  0  0  0  0  0  0  0  0
    8.6620  -16.2785   27.3861 O   0  0  0  0  0  0  0  0  0  0  0  0
  2  1  1  1
  2  3  1  0
  4  2  1  0
  4  5  1  0
  5  7  1  0
  5  6  1  6
  7  8  2  0
  9 10  1  0
 10 11  2  0
 13 12  1  6
 12 10  1  0
 14 13  1  0
 14  7  1  0
 15 13  1  0
 16 15  2  0
 18 17  1  1
 19 18  1  0
 20 18  1  0
 20 21  1  6
 21 15  1  0
 22 23  1  0
 22 20  1  0
 24 22  2  0
M  END
$$$$
