LNV.pdb
     RDKit          3D

 24 23  0  0  1  0  0  0  0  0999 V2000
    7.2688  -12.5502   21.5048 C   0  0  0  0  0  0  0  0  0  0  0  0
    8.1463  -13.4391   20.6114 C   0  0  2  0  0  0  0  0  0  0  0  0
    8.2718  -12.7289   19.3060 C   0  0  0  0  0  0  0  0  0  0  0  0
    7.5022  -14.7781   20.5806 C   0  0  0  0  0  0  0  0  0  0  0  0
    7.1557  -15.4110   21.8689 C   0  0  2  0  0  0  0  0  0  0  0  0
    7.4242  -14.6445   23.0443 N   0  0  0  0  0  0  0  0  0  0  0  0
    7.8844  -16.7045   21.9848 C   0  0  0  0  0  0  0  0  0  0  0  0
    7.9673  -17.4910   21.0178 O   0  0  0  0  0  0  0  0  0  0  0  0
   11.3681  -17.4384   20.0697 N   0  0  0  0  0  0  0  0  0  0  0  0
   11.1445  -17.6191   21.4557 C   0  0  0  0  0  0  0  0  0  0  0  0
   11.3124  -18.7657   21.9232 O   0  0  0  0  0  0  0  0  0  0  0  0
   10.7333  -16.5111   22.3040 C   0  0  0  0  0  0  0  0  0  0  0  0
    9.9124  -16.8899   23.4899 C   0  0  2  0  0  0  0  0  0  0  0  0
    8.5328  -17.1332   23.1949 N   0  0  0  0  0  0  0  0  0  0  0  0
   10.1025  -15.9897   24.6594 C   0  0  0  0  0  0  0  0  0  0  0  0
   11.2835  -15.7508   25.0003 O   0  0  0  0  0  0  0  0  0  0  0  0
    8.2659  -12.5707   27.6950 C   0  0  0  0  0  0  0  0  0  0  0  0
    7.9764  -13.6208   26.6376 C   0  0  1  0  0  0  0  0  0  0  0  0
    7.5811  -12.8866   25.3880 C   0  0  0  0  0  0  0  0  0  0  0  0
    9.2062  -14.4751   26.4755 C   0  0  2  0  0  0  0  0  0  0  0  0
    9.0489  -15.4206   25.3681 N   0  0  0  0  0  0  0  0  0  0  0  0
    9.5300  -15.1522   27.7312 C   0  0  0  0  0  0  0  0  0  0  0  0
   10.2008  -14.5269   28.7668 O   0  0  0  0  0  0  0  0  0  0  0  0
    9.1980  -16.3465   27.8969 O   0  0  0  0  0  0  0  0  0  0  0  0
  2  1  1  1
  2  3  1  0
  4  2  1  0
  4  5  1  0
  5  7  1  0
  5  6  1  1
  7  8  2  0
  9 10  1  0
 10 11  2  0
 13 12  1  6
 12 10  1  0
 14 13  1  0
 14  7  1  0
 15 13  1  0
 16 15  2  0
 18 17  1  1
 19 18  1  0
 20 18  1  0
 20 21  1  6
 21 15  1  0
 22 23  1  0
 22 20  1  0
 24 22  2  0
M  END
$$$$
