LNV.pdb
     RDKit          3D

 24 23  0  0  1  0  0  0  0  0999 V2000
    9.3498  -13.9262   19.7947 C   0  0  0  0  0  0  0  0  0  0  0  0
    7.9335  -13.7126   19.2410 C   0  0  2  0  0  0  0  0  0  0  0  0
    7.7454  -12.2375   19.1259 C   0  0  0  0  0  0  0  0  0  0  0  0
    7.0073  -14.4315   20.1543 C   0  0  0  0  0  0  0  0  0  0  0  0
    7.2167  -15.8792   20.3559 C   0  0  2  0  0  0  0  0  0  0  0  0
    6.4311  -16.7527   19.5429 N   0  0  0  0  0  0  0  0  0  0  0  0
    6.9510  -16.2132   21.7826 C   0  0  0  0  0  0  0  0  0  0  0  0
    5.7989  -16.1460   22.2606 O   0  0  0  0  0  0  0  0  0  0  0  0
    6.4544  -19.2136   26.3239 N   0  0  0  0  0  0  0  0  0  0  0  0
    7.6772  -18.7330   25.7974 C   0  0  0  0  0  0  0  0  0  0  0  0
    8.6365  -18.6064   26.5881 O   0  0  0  0  0  0  0  0  0  0  0  0
    7.8117  -18.3979   24.3882 C   0  0  0  0  0  0  0  0  0  0  0  0
    7.7489  -16.9418   24.0728 C   0  0  2  0  0  0  0  0  0  0  0  0
    7.9818  -16.6293   22.6953 N   0  0  0  0  0  0  0  0  0  0  0  0
    8.5480  -16.0954   24.9997 C   0  0  0  0  0  0  0  0  0  0  0  0
    9.7653  -15.9659   24.7362 O   0  0  0  0  0  0  0  0  0  0  0  0
    8.6069  -12.4563   28.2991 C   0  0  0  0  0  0  0  0  0  0  0  0
    7.7837  -13.4927   27.5556 C   0  0  1  0  0  0  0  0  0  0  0  0
    6.9598  -12.7521   26.5411 C   0  0  0  0  0  0  0  0  0  0  0  0
    8.7291  -14.4979   26.9517 C   0  0  2  0  0  0  0  0  0  0  0  0
    8.0101  -15.4615   26.1155 N   0  0  0  0  0  0  0  0  0  0  0  0
    9.5128  -15.1574   27.9963 C   0  0  0  0  0  0  0  0  0  0  0  0
   10.6999  -14.6385   28.4809 O   0  0  0  0  0  0  0  0  0  0  0  0
    9.1131  -16.2371   28.4848 O   0  0  0  0  0  0  0  0  0  0  0  0
  2  1  1  1
  2  3  1  0
  4  2  1  0
  4  5  1  0
  5  7  1  0
  5  6  1  6
  7  8  2  0
  9 10  1  0
 10 11  2  0
 13 12  1  6
 12 10  1  0
 14 13  1  0
 14  7  1  0
 15 13  1  0
 16 15  2  0
 18 17  1  6
 19 18  1  0
 20 18  1  0
 20 21  1  1
 21 15  1  0
 22 23  1  0
 22 20  1  0
 24 22  2  0
M  END
$$$$
