LNV.pdb
     RDKit          3D

 24 23  0  0  1  0  0  0  0  0999 V2000
    9.2125  -12.5348   18.6771 C   0  0  0  0  0  0  0  0  0  0  0  0
    7.8864  -13.3053   18.6012 C   0  0  2  0  0  0  0  0  0  0  0  0
    6.8266  -12.2918   18.3290 C   0  0  0  0  0  0  0  0  0  0  0  0
    7.7655  -14.0693   19.8702 C   0  0  0  0  0  0  0  0  0  0  0  0
    8.9442  -14.8241   20.3405 C   0  0  2  0  0  0  0  0  0  0  0  0
    9.3611  -15.9209   19.5254 N   0  0  0  0  0  0  0  0  0  0  0  0
    8.6725  -15.3435   21.7094 C   0  0  0  0  0  0  0  0  0  0  0  0
    7.7834  -14.8413   22.4289 O   0  0  0  0  0  0  0  0  0  0  0  0
   10.3200  -19.9213   22.1701 N   0  0  0  0  0  0  0  0  0  0  0  0
    9.4430  -19.3197   23.1044 C   0  0  0  0  0  0  0  0  0  0  0  0
    8.2860  -19.7834   23.1919 O   0  0  0  0  0  0  0  0  0  0  0  0
    9.8728  -18.2026   23.9311 C   0  0  0  0  0  0  0  0  0  0  0  0
    9.2107  -16.9002   23.6328 C   0  0  2  0  0  0  0  0  0  0  0  0
    9.3999  -16.4397   22.2906 N   0  0  0  0  0  0  0  0  0  0  0  0
    9.4818  -15.8466   24.6480 C   0  0  0  0  0  0  0  0  0  0  0  0
   10.6637  -15.4427   24.7388 O   0  0  0  0  0  0  0  0  0  0  0  0
    6.3473  -13.9845   26.9207 C   0  0  0  0  0  0  0  0  0  0  0  0
    7.6195  -13.2682   26.5046 C   0  0  1  0  0  0  0  0  0  0  0  0
    7.8307  -12.1474   27.4823 C   0  0  0  0  0  0  0  0  0  0  0  0
    8.7399  -14.2747   26.4849 C   0  0  2  0  0  0  0  0  0  0  0  0
    8.5012  -15.3093   25.4761 N   0  0  0  0  0  0  0  0  0  0  0  0
    8.9409  -14.8452   27.8169 C   0  0  0  0  0  0  0  0  0  0  0  0
    9.5853  -14.1632   28.8333 O   0  0  0  0  0  0  0  0  0  0  0  0
    8.5227  -15.9965   28.0694 O   0  0  0  0  0  0  0  0  0  0  0  0
  2  1  1  1
  2  3  1  0
  4  2  1  0
  4  5  1  0
  5  7  1  0
  5  6  1  6
  7  8  2  0
  9 10  1  0
 10 11  2  0
 13 12  1  1
 12 10  1  0
 14 13  1  0
 14  7  1  0
 15 13  1  0
 16 15  2  0
 18 17  1  1
 19 18  1  0
 20 18  1  0
 20 21  1  6
 21 15  1  0
 22 23  1  0
 22 20  1  0
 24 22  2  0
M  END
$$$$
