MSI.pdb
     RDKit          3D

 23 22  0  0  1  0  0  0  0  0999 V2000
   15.5957  -18.3430   -6.3976 C   0  0  0  0  0  0  0  0  0  0  0  0
   14.1610  -18.5425   -7.4906 S   0  0  0  0  0  0  0  0  0  0  0  0
   13.5030  -20.2221   -7.2693 C   0  0  0  0  0  0  0  0  0  0  0  0
   14.4001  -20.9445   -6.3133 C   0  0  0  0  0  0  0  0  0  0  0  0
   13.8999  -22.3706   -6.0919 C   0  0  2  0  0  0  0  0  0  0  0  0
   12.8252  -22.6066   -7.0025 N   0  0  0  0  0  0  0  0  0  0  0  0
   13.4799  -22.4404   -4.6665 C   0  0  0  0  0  0  0  0  0  0  0  0
   12.3771  -21.9227   -4.3634 O   0  0  0  0  0  0  0  0  0  0  0  0
   15.9550  -24.1418   -1.6797 O   0  0  0  0  0  0  0  0  0  0  0  0
   14.5973  -24.2253   -1.5194 C   0  0  0  0  0  0  0  0  0  0  0  0
   13.8196  -23.1729   -2.2712 C   0  0  2  0  0  0  0  0  0  0  0  0
   14.2417  -23.0493   -3.6434 N   0  0  0  0  0  0  0  0  0  0  0  0
   13.9271  -21.9088   -1.5215 C   0  0  0  0  0  0  0  0  0  0  0  0
   14.8232  -21.0745   -1.7891 O   0  0  0  0  0  0  0  0  0  0  0  0
    9.7757  -19.0044   -1.1729 C   0  0  0  0  0  0  0  0  0  0  0  0
   11.1811  -19.5538   -1.1774 C   0  0  0  0  0  0  0  0  0  0  0  0
   11.6472  -19.7846    0.2220 C   0  0  2  0  0  0  0  0  0  0  0  0
   11.6107  -18.5027    1.0485 C   0  0  0  0  0  0  0  0  0  0  0  0
   13.0340  -20.4154    0.2995 C   0  0  2  0  0  0  0  0  0  0  0  0
   12.9907  -21.6518   -0.4839 N   0  0  0  0  0  0  0  0  0  0  0  0
   13.4435  -20.6981    1.6972 C   0  0  0  0  0  0  0  0  0  0  0  0
   14.0830  -19.7525    2.4783 O   0  0  0  0  0  0  0  0  0  0  0  0
   13.2206  -21.8190    2.2254 O   0  0  0  0  0  0  0  0  0  0  0  0
  2  1  1  0
  2  3  1  0
  4  5  1  0
  4  3  1  0
  5  6  1  6
  7  5  1  0
  7  8  2  0
  9 10  1  0
 11 10  1  1
 11 13  1  0
 11 12  1  0
 12  7  1  0
 13 20  1  0
 14 13  2  0
 16 15  1  0
 17 18  1  1
 17 16  1  0
 19 17  1  0
 19 20  1  6
 21 22  1  0
 21 19  1  0
 23 21  2  0
M  END
$$$$
