MSI.pdb
     RDKit          3D

 23 22  0  0  1  0  0  0  0  0999 V2000
   17.2739  -13.5440  -18.7203 C   0  0  0  0  0  0  0  0  0  0  0  0
   17.8964  -12.2299  -17.6347 S   0  0  0  0  0  0  0  0  0  0  0  0
   19.7004  -12.1327  -17.8314 C   0  0  0  0  0  0  0  0  0  0  0  0
   20.2096  -11.0880  -16.8880 C   0  0  0  0  0  0  0  0  0  0  0  0
   21.7323  -10.9992  -16.9673 C   0  0  2  0  0  0  0  0  0  0  0  0
   22.2703  -12.2402  -16.5085 N   0  0  0  0  0  0  0  0  0  0  0  0
   22.1203   -9.8457  -16.1117 C   0  0  0  0  0  0  0  0  0  0  0  0
   21.9511   -9.9628  -14.8733 O   0  0  0  0  0  0  0  0  0  0  0  0
   24.6426   -6.7516  -17.4597 O   0  0  0  0  0  0  0  0  0  0  0  0
   24.4691   -7.0456  -16.1334 C   0  0  0  0  0  0  0  0  0  0  0  0
   23.0840   -7.5322  -15.7834 C   0  0  2  0  0  0  0  0  0  0  0  0
   22.6629   -8.6378  -16.6060 N   0  0  0  0  0  0  0  0  0  0  0  0
   22.1678   -6.3804  -15.8569 C   0  0  0  0  0  0  0  0  0  0  0  0
   21.4369   -6.2006  -16.8589 O   0  0  0  0  0  0  0  0  0  0  0  0
   17.8328   -6.0043  -14.5077 C   0  0  0  0  0  0  0  0  0  0  0  0
   19.1569   -5.6313  -15.1280 C   0  0  0  0  0  0  0  0  0  0  0  0
   19.9096   -4.7153  -14.2207 C   0  0  2  0  0  0  0  0  0  0  0  0
   19.0880   -3.4835  -13.8527 C   0  0  0  0  0  0  0  0  0  0  0  0
   21.2636   -4.2905  -14.7806 C   0  0  2  0  0  0  0  0  0  0  0  0
   22.1280   -5.4723  -14.7645 N   0  0  0  0  0  0  0  0  0  0  0  0
   21.8731   -3.1882  -13.9964 C   0  0  0  0  0  0  0  0  0  0  0  0
   21.8241   -1.8730  -14.4217 O   0  0  0  0  0  0  0  0  0  0  0  0
   22.4613   -3.4145  -12.9064 O   0  0  0  0  0  0  0  0  0  0  0  0
  2  1  1  0
  2  3  1  0
  4  5  1  0
  4  3  1  0
  5  6  1  1
  7  5  1  0
  7  8  2  0
  9 10  1  0
 11 10  1  6
 11 13  1  0
 11 12  1  0
 12  7  1  0
 13 20  1  0
 14 13  2  0
 16 15  1  0
 17 18  1  6
 17 16  1  0
 19 17  1  0
 19 20  1  1
 21 22  1  0
 21 19  1  0
 23 21  2  0
M  END
$$$$
