MSI.pdb
     RDKit          3D

 23 22  0  0  1  0  0  0  0  0999 V2000
   20.4223  -13.1293  -24.0466 C   0  0  0  0  0  0  0  0  0  0  0  0
   19.9070  -11.3907  -24.1155 S   0  0  0  0  0  0  0  0  0  0  0  0
   18.9934  -11.0045  -22.5928 C   0  0  0  0  0  0  0  0  0  0  0  0
   19.5813  -11.8213  -21.4847 C   0  0  0  0  0  0  0  0  0  0  0  0
   18.8552  -11.5342  -20.1720 C   0  0  2  0  0  0  0  0  0  0  0  0
   17.5017  -11.1996  -20.4815 N   0  0  0  0  0  0  0  0  0  0  0  0
   19.5978  -10.4168  -19.5293 C   0  0  0  0  0  0  0  0  0  0  0  0
   20.7535  -10.6608  -19.1040 O   0  0  0  0  0  0  0  0  0  0  0  0
   17.8211   -6.6858  -18.2963 O   0  0  0  0  0  0  0  0  0  0  0  0
   19.0641   -6.7074  -18.8710 C   0  0  0  0  0  0  0  0  0  0  0  0
   19.7867   -8.0252  -18.7332 C   0  0  2  0  0  0  0  0  0  0  0  0
   19.0840   -9.1096  -19.3709 N   0  0  0  0  0  0  0  0  0  0  0  0
   20.0271   -8.2616  -17.2988 C   0  0  0  0  0  0  0  0  0  0  0  0
   19.1905   -8.8773  -16.5976 O   0  0  0  0  0  0  0  0  0  0  0  0
   23.4195  -10.9619  -13.7849 C   0  0  0  0  0  0  0  0  0  0  0  0
   22.6653   -9.6550  -13.7983 C   0  0  0  0  0  0  0  0  0  0  0  0
   22.4159   -9.2199  -15.2044 C   0  0  2  0  0  0  0  0  0  0  0  0
   23.7186   -9.0015  -15.9679 C   0  0  0  0  0  0  0  0  0  0  0  0
   21.5384   -7.9760  -15.3042 C   0  0  2  0  0  0  0  0  0  0  0  0
   21.2318   -7.7761  -16.7220 N   0  0  0  0  0  0  0  0  0  0  0  0
   22.2027   -6.7752  -14.7403 C   0  0  0  0  0  0  0  0  0  0  0  0
   22.0732   -6.4242  -13.4087 O   0  0  0  0  0  0  0  0  0  0  0  0
   22.9140   -6.0274  -15.4615 O   0  0  0  0  0  0  0  0  0  0  0  0
  2  1  1  0
  2  3  1  0
  4  5  1  0
  4  3  1  0
  5  6  1  6
  7  5  1  0
  7  8  2  0
  9 10  1  0
 11 10  1  1
 11 13  1  0
 11 12  1  0
 12  7  1  0
 13 20  1  0
 14 13  2  0
 16 15  1  0
 17 18  1  1
 17 16  1  0
 19 17  1  0
 19 20  1  6
 21 22  1  0
 21 19  1  0
 23 21  2  0
M  END
$$$$
