MSI.pdb
     RDKit          3D

 23 22  0  0  1  0  0  0  0  0999 V2000
   26.1544  -10.3349  -16.7523 C   0  0  0  0  0  0  0  0  0  0  0  0
   27.1725  -11.8187  -16.5186 S   0  0  0  0  0  0  0  0  0  0  0  0
   28.7241  -11.5980  -17.4387 C   0  0  0  0  0  0  0  0  0  0  0  0
   28.3876  -11.5224  -18.8952 C   0  0  0  0  0  0  0  0  0  0  0  0
   29.6632  -11.5352  -19.7352 C   0  0  2  0  0  0  0  0  0  0  0  0
   30.2893  -12.8077  -19.5656 N   0  0  0  0  0  0  0  0  0  0  0  0
   30.4942  -10.4073  -19.2350 C   0  0  0  0  0  0  0  0  0  0  0  0
   31.6019  -10.6916  -18.7170 O   0  0  0  0  0  0  0  0  0  0  0  0
   31.1787   -5.5305  -19.2289 O   0  0  0  0  0  0  0  0  0  0  0  0
   30.3314   -6.6038  -19.3048 C   0  0  0  0  0  0  0  0  0  0  0  0
   30.9971   -7.9362  -19.0616 C   0  0  2  0  0  0  0  0  0  0  0  0
   30.1140   -9.0479  -19.3078 N   0  0  0  0  0  0  0  0  0  0  0  0
   31.5407   -7.9272  -17.6920 C   0  0  0  0  0  0  0  0  0  0  0  0
   30.8281   -8.2509  -16.7132 O   0  0  0  0  0  0  0  0  0  0  0  0
   35.7938  -10.4738  -16.5312 C   0  0  0  0  0  0  0  0  0  0  0  0
   34.4935   -9.7082  -16.5141 C   0  0  0  0  0  0  0  0  0  0  0  0
   34.7412   -8.2829  -16.1458 C   0  0  2  0  0  0  0  0  0  0  0  0
   35.4356   -8.1612  -14.7928 C   0  0  0  0  0  0  0  0  0  0  0  0
   33.4781   -7.4275  -16.1621 C   0  0  2  0  0  0  0  0  0  0  0  0
   32.8954   -7.5428  -17.5005 N   0  0  0  0  0  0  0  0  0  0  0  0
   33.7589   -6.0075  -15.8364 C   0  0  0  0  0  0  0  0  0  0  0  0
   33.6209   -5.5095  -14.5534 O   0  0  0  0  0  0  0  0  0  0  0  0
   34.1362   -5.1996  -16.7252 O   0  0  0  0  0  0  0  0  0  0  0  0
  2  1  1  0
  2  3  1  0
  4  5  1  0
  4  3  1  0
  5  6  1  1
  7  5  1  0
  7  8  2  0
  9 10  1  0
 11 10  1  1
 11 13  1  0
 11 12  1  0
 12  7  1  0
 13 20  1  0
 14 13  2  0
 16 15  1  0
 17 18  1  1
 17 16  1  0
 19 17  1  0
 19 20  1  6
 21 22  1  0
 21 19  1  0
 23 21  2  0
M  END
$$$$
