MSI.pdb
     RDKit          3D

 23 22  0  0  1  0  0  0  0  0999 V2000
   26.0398  -16.1032  -14.8000 C   0  0  0  0  0  0  0  0  0  0  0  0
   27.5429  -16.1930  -15.8126 S   0  0  0  0  0  0  0  0  0  0  0  0
   28.4056  -17.7433  -15.4189 C   0  0  0  0  0  0  0  0  0  0  0  0
   27.4221  -18.6629  -14.7649 C   0  0  0  0  0  0  0  0  0  0  0  0
   28.0932  -19.9865  -14.4039 C   0  0  2  0  0  0  0  0  0  0  0  0
   28.5065  -20.6160  -15.6176 N   0  0  0  0  0  0  0  0  0  0  0  0
   27.0733  -20.7730  -13.6593 C   0  0  0  0  0  0  0  0  0  0  0  0
   26.3351  -21.5390  -14.3259 O   0  0  0  0  0  0  0  0  0  0  0  0
   26.0870  -19.7382   -9.6473 O   0  0  0  0  0  0  0  0  0  0  0  0
   25.8217  -21.0134  -10.0707 C   0  0  0  0  0  0  0  0  0  0  0  0
   25.7054  -21.1564  -11.5686 C   0  0  2  0  0  0  0  0  0  0  0  0
   26.8883  -20.7093  -12.2595 N   0  0  0  0  0  0  0  0  0  0  0  0
   24.4872  -20.4471  -11.9977 C   0  0  0  0  0  0  0  0  0  0  0  0
   24.5398  -19.2623  -12.4030 O   0  0  0  0  0  0  0  0  0  0  0  0
   21.4883  -19.9404  -16.3173 C   0  0  0  0  0  0  0  0  0  0  0  0
   21.1393  -20.0038  -14.8506 C   0  0  0  0  0  0  0  0  0  0  0  0
   22.2784  -20.5789  -14.0757 C   0  0  2  0  0  0  0  0  0  0  0  0
   22.6380  -21.9815  -14.5565 C   0  0  0  0  0  0  0  0  0  0  0  0
   22.0384  -20.5900  -12.5692 C   0  0  2  0  0  0  0  0  0  0  0  0
   23.2449  -21.1349  -11.9434 N   0  0  0  0  0  0  0  0  0  0  0  0
   20.8491  -21.3954  -12.1973 C   0  0  0  0  0  0  0  0  0  0  0  0
   20.9442  -22.7385  -11.8810 O   0  0  0  0  0  0  0  0  0  0  0  0
   19.7017  -20.8788  -12.1562 O   0  0  0  0  0  0  0  0  0  0  0  0
  2  1  1  0
  2  3  1  0
  4  5  1  0
  4  3  1  0
  5  6  1  6
  7  5  1  0
  7  8  2  0
  9 10  1  0
 11 10  1  1
 11 13  1  0
 11 12  1  0
 12  7  1  0
 13 20  1  0
 14 13  2  0
 16 15  1  0
 17 18  1  6
 17 16  1  0
 19 17  1  0
 19 20  1  1
 21 22  1  0
 21 19  1  0
 23 21  2  0
M  END
$$$$
