MSI.pdb
     RDKit          3D

 23 22  0  0  1  0  0  0  0  0999 V2000
   28.9486  -25.4342  -17.6217 C   0  0  0  0  0  0  0  0  0  0  0  0
   28.1271  -23.9466  -16.9851 S   0  0  0  0  0  0  0  0  0  0  0  0
   29.4054  -22.7340  -16.5400 C   0  0  0  0  0  0  0  0  0  0  0  0
   28.7269  -21.5695  -15.8888 C   0  0  0  0  0  0  0  0  0  0  0  0
   27.6267  -21.0221  -16.7959 C   0  0  2  0  0  0  0  0  0  0  0  0
   28.2448  -20.2197  -17.8028 N   0  0  0  0  0  0  0  0  0  0  0  0
   26.7158  -20.2460  -15.9121 C   0  0  0  0  0  0  0  0  0  0  0  0
   27.1781  -19.2108  -15.3728 O   0  0  0  0  0  0  0  0  0  0  0  0
   22.5860  -20.2783  -16.0572 O   0  0  0  0  0  0  0  0  0  0  0  0
   23.2701  -19.3997  -15.2597 C   0  0  0  0  0  0  0  0  0  0  0  0
   24.5367  -19.9630  -14.6629 C   0  0  2  0  0  0  0  0  0  0  0  0
   25.3740  -20.6018  -15.6464 N   0  0  0  0  0  0  0  0  0  0  0  0
   24.1559  -20.8639  -13.5607 C   0  0  0  0  0  0  0  0  0  0  0  0
   23.9094  -22.0742  -13.7730 O   0  0  0  0  0  0  0  0  0  0  0  0
   26.2561  -19.9179   -8.7134 C   0  0  0  0  0  0  0  0  0  0  0  0
   25.6772  -20.6629   -9.8912 C   0  0  0  0  0  0  0  0  0  0  0  0
   24.1861  -20.5995   -9.8568 C   0  0  2  0  0  0  0  0  0  0  0  0
   23.6170  -21.3324   -8.6458 C   0  0  0  0  0  0  0  0  0  0  0  0
   23.5309  -21.1162  -11.1339 C   0  0  2  0  0  0  0  0  0  0  0  0
   24.0731  -20.3322  -12.2455 N   0  0  0  0  0  0  0  0  0  0  0  0
   22.0521  -21.0042  -11.0897 C   0  0  0  0  0  0  0  0  0  0  0  0
   21.3999  -19.8128  -11.3514 O   0  0  0  0  0  0  0  0  0  0  0  0
   21.3334  -21.9993  -10.8100 O   0  0  0  0  0  0  0  0  0  0  0  0
  2  1  1  0
  2  3  1  0
  4  5  1  0
  4  3  1  0
  5  6  1  6
  7  5  1  0
  7  8  2  0
  9 10  1  0
 11 10  1  6
 11 13  1  0
 11 12  1  0
 12  7  1  0
 13 20  1  0
 14 13  2  0
 16 15  1  0
 17 18  1  1
 17 16  1  0
 19 17  1  0
 19 20  1  6
 21 22  1  0
 21 19  1  0
 23 21  2  0
M  END
$$$$
