MSI.pdb
     RDKit          3D

 23 22  0  0  1  0  0  0  0  0999 V2000
   20.3452  -26.5840  -13.0669 C   0  0  0  0  0  0  0  0  0  0  0  0
   21.4849  -27.9954  -13.0256 S   0  0  0  0  0  0  0  0  0  0  0  0
   23.1863  -27.3566  -13.0337 C   0  0  0  0  0  0  0  0  0  0  0  0
   23.1174  -25.8682  -13.1761 C   0  0  0  0  0  0  0  0  0  0  0  0
   24.5218  -25.2832  -13.3111 C   0  0  2  0  0  0  0  0  0  0  0  0
   25.2044  -25.4868  -12.0731 N   0  0  0  0  0  0  0  0  0  0  0  0
   24.3360  -23.8449  -13.6427 C   0  0  0  0  0  0  0  0  0  0  0  0
   23.9979  -23.0762  -12.7095 O   0  0  0  0  0  0  0  0  0  0  0  0
   24.8717  -20.2315  -16.9261 O   0  0  0  0  0  0  0  0  0  0  0  0
   24.8539  -21.5717  -16.6442 C   0  0  0  0  0  0  0  0  0  0  0  0
   24.3383  -21.9074  -15.2661 C   0  0  2  0  0  0  0  0  0  0  0  0
   24.5160  -23.2982  -14.9336 N   0  0  0  0  0  0  0  0  0  0  0  0
   22.9317  -21.4745  -15.1914 C   0  0  0  0  0  0  0  0  0  0  0  0
   22.0031  -22.2342  -15.5534 O   0  0  0  0  0  0  0  0  0  0  0  0
   20.9498  -19.7501  -10.8381 C   0  0  0  0  0  0  0  0  0  0  0  0
   21.1108  -20.2975  -12.2351 C   0  0  0  0  0  0  0  0  0  0  0  0
   21.0061  -19.1937  -13.2348 C   0  0  2  0  0  0  0  0  0  0  0  0
   19.6543  -18.4903  -13.1607 C   0  0  0  0  0  0  0  0  0  0  0  0
   21.2796  -19.6477  -14.6653 C   0  0  2  0  0  0  0  0  0  0  0  0
   22.6461  -20.1727  -14.6983 N   0  0  0  0  0  0  0  0  0  0  0  0
   21.1218  -18.5432  -15.6434 C   0  0  0  0  0  0  0  0  0  0  0  0
   19.9918  -18.4189  -16.4314 O   0  0  0  0  0  0  0  0  0  0  0  0
   22.0195  -17.6729  -15.7909 O   0  0  0  0  0  0  0  0  0  0  0  0
  2  1  1  0
  2  3  1  0
  4  5  1  0
  4  3  1  0
  5  6  1  1
  7  5  1  0
  7  8  2  0
  9 10  1  0
 11 10  1  6
 11 13  1  0
 11 12  1  0
 12  7  1  0
 13 20  1  0
 14 13  2  0
 16 15  1  0
 17 18  1  6
 17 16  1  0
 19 17  1  0
 19 20  1  1
 21 22  1  0
 21 19  1  0
 23 21  2  0
M  END
$$$$
