MSI.pdb
     RDKit          3D

 23 22  0  0  1  0  0  0  0  0999 V2000
   28.6663  -24.8551  -16.0037 C   0  0  0  0  0  0  0  0  0  0  0  0
   29.7227  -23.6394  -16.8398 S   0  0  0  0  0  0  0  0  0  0  0  0
   29.2277  -21.9790  -16.2914 C   0  0  0  0  0  0  0  0  0  0  0  0
   27.7318  -21.9328  -16.2594 C   0  0  0  0  0  0  0  0  0  0  0  0
   27.2539  -20.5580  -15.7965 C   0  0  2  0  0  0  0  0  0  0  0  0
   27.8969  -20.2631  -14.5557 N   0  0  0  0  0  0  0  0  0  0  0  0
   25.7746  -20.6583  -15.6750 C   0  0  0  0  0  0  0  0  0  0  0  0
   25.1016  -20.5754  -16.7316 O   0  0  0  0  0  0  0  0  0  0  0  0
   23.5085  -20.3381  -12.0208 O   0  0  0  0  0  0  0  0  0  0  0  0
   23.2413  -21.3388  -12.9170 C   0  0  0  0  0  0  0  0  0  0  0  0
   23.6659  -21.0317  -14.3323 C   0  0  2  0  0  0  0  0  0  0  0  0
   25.0890  -20.8397  -14.4525 N   0  0  0  0  0  0  0  0  0  0  0  0
   22.8885  -19.8689  -14.7957 C   0  0  0  0  0  0  0  0  0  0  0  0
   23.2452  -18.7009  -14.5140 O   0  0  0  0  0  0  0  0  0  0  0  0
   22.1761  -18.5054  -19.4764 C   0  0  0  0  0  0  0  0  0  0  0  0
   22.1875  -18.4922  -17.9675 C   0  0  0  0  0  0  0  0  0  0  0  0
   20.8406  -18.8617  -17.4402 C   0  0  2  0  0  0  0  0  0  0  0  0
   19.7668  -17.8771  -17.8930 C   0  0  0  0  0  0  0  0  0  0  0  0
   20.8066  -19.0081  -15.9221 C   0  0  2  0  0  0  0  0  0  0  0  0
   21.7206  -20.0974  -15.5724 N   0  0  0  0  0  0  0  0  0  0  0  0
   19.4406  -19.2915  -15.4170 C   0  0  0  0  0  0  0  0  0  0  0  0
   18.9579  -20.5820  -15.2959 O   0  0  0  0  0  0  0  0  0  0  0  0
   18.6668  -18.3580  -15.0780 O   0  0  0  0  0  0  0  0  0  0  0  0
  2  1  1  0
  2  3  1  0
  4  5  1  0
  4  3  1  0
  5  6  1  1
  7  5  1  0
  7  8  2  0
  9 10  1  0
 11 10  1  1
 11 13  1  0
 11 12  1  0
 12  7  1  0
 13 20  1  0
 14 13  2  0
 16 15  1  0
 17 18  1  1
 17 16  1  0
 19 17  1  0
 19 20  1  6
 21 22  1  0
 21 19  1  0
 23 21  2  0
M  END
$$$$
