MSI.pdb
     RDKit          3D

 23 22  0  0  1  0  0  0  0  0999 V2000
   19.8346  -16.3911  -13.5897 C   0  0  0  0  0  0  0  0  0  0  0  0
   19.5191  -17.7417  -14.7599 S   0  0  0  0  0  0  0  0  0  0  0  0
   18.7995  -17.0326  -16.2706 C   0  0  0  0  0  0  0  0  0  0  0  0
   19.3648  -15.6579  -16.4471 C   0  0  0  0  0  0  0  0  0  0  0  0
   18.7191  -14.9695  -17.6480 C   0  0  2  0  0  0  0  0  0  0  0  0
   19.2214  -15.5887  -18.8330 N   0  0  0  0  0  0  0  0  0  0  0  0
   19.0871  -13.5320  -17.5426 C   0  0  0  0  0  0  0  0  0  0  0  0
   20.2308  -13.1982  -17.9383 O   0  0  0  0  0  0  0  0  0  0  0  0
   16.6690  -10.5456  -15.5615 O   0  0  0  0  0  0  0  0  0  0  0  0
   17.3725  -10.2554  -16.7002 C   0  0  0  0  0  0  0  0  0  0  0  0
   18.5787  -11.1347  -16.9234 C   0  0  2  0  0  0  0  0  0  0  0  0
   18.2334  -12.5297  -17.0285 N   0  0  0  0  0  0  0  0  0  0  0  0
   19.5435  -10.8618  -15.8435 C   0  0  0  0  0  0  0  0  0  0  0  0
   19.5632  -11.5620  -14.8042 O   0  0  0  0  0  0  0  0  0  0  0  0
   24.7181  -10.9295  -14.3877 C   0  0  0  0  0  0  0  0  0  0  0  0
   23.9197   -9.6578  -14.5374 C   0  0  0  0  0  0  0  0  0  0  0  0
   22.8119   -9.8588  -15.5177 C   0  0  2  0  0  0  0  0  0  0  0  0
   23.0825   -9.1343  -16.8328 C   0  0  0  0  0  0  0  0  0  0  0  0
   21.4445   -9.4573  -14.9733 C   0  0  2  0  0  0  0  0  0  0  0  0
   20.4563   -9.7844  -16.0031 N   0  0  0  0  0  0  0  0  0  0  0  0
   21.3802   -8.0157  -14.6283 C   0  0  0  0  0  0  0  0  0  0  0  0
   20.7132   -7.1017  -15.4237 O   0  0  0  0  0  0  0  0  0  0  0  0
   21.9357   -7.5709  -13.5897 O   0  0  0  0  0  0  0  0  0  0  0  0
  2  1  1  0
  2  3  1  0
  4  5  1  0
  4  3  1  0
  5  6  1  6
  7  5  1  0
  7  8  2  0
  9 10  1  0
 11 10  1  1
 11 13  1  0
 11 12  1  0
 12  7  1  0
 13 20  1  0
 14 13  2  0
 16 15  1  0
 17 18  1  6
 17 16  1  0
 19 17  1  0
 19 20  1  6
 21 22  1  0
 21 19  1  0
 23 21  2  0
M  END
$$$$
