MSI.pdb
     RDKit          3D

 23 22  0  0  1  0  0  0  0  0999 V2000
   32.0084  -21.8058   -9.3435 C   0  0  0  0  0  0  0  0  0  0  0  0
   33.1123  -22.3235  -10.6875 S   0  0  0  0  0  0  0  0  0  0  0  0
   32.2274  -22.1250  -12.2624 C   0  0  0  0  0  0  0  0  0  0  0  0
   30.9793  -21.3439  -11.9927 C   0  0  0  0  0  0  0  0  0  0  0  0
   30.2339  -21.0691  -13.2972 C   0  0  2  0  0  0  0  0  0  0  0  0
   31.0573  -20.2277  -14.1059 N   0  0  0  0  0  0  0  0  0  0  0  0
   28.9506  -20.4253  -12.9076 C   0  0  0  0  0  0  0  0  0  0  0  0
   29.0058  -19.2570  -12.4513 O   0  0  0  0  0  0  0  0  0  0  0  0
   24.1297  -20.1042  -12.9614 O   0  0  0  0  0  0  0  0  0  0  0  0
   25.2952  -20.6593  -13.4188 C   0  0  0  0  0  0  0  0  0  0  0  0
   26.4623  -20.5151  -12.4727 C   0  0  2  0  0  0  0  0  0  0  0  0
   27.6854  -21.0453  -13.0198 N   0  0  0  0  0  0  0  0  0  0  0  0
   26.0871  -21.1412  -11.1926 C   0  0  0  0  0  0  0  0  0  0  0  0
   26.0988  -22.3869  -11.0561 O   0  0  0  0  0  0  0  0  0  0  0  0
   27.8143  -19.1733   -6.6569 C   0  0  0  0  0  0  0  0  0  0  0  0
   27.2727  -20.1126   -7.7065 C   0  0  0  0  0  0  0  0  0  0  0  0
   25.7805  -20.0672   -7.7160 C   0  0  2  0  0  0  0  0  0  0  0  0
   25.1922  -20.5380   -6.3894 C   0  0  0  0  0  0  0  0  0  0  0  0
   25.1606  -20.8512   -8.8685 C   0  0  2  0  0  0  0  0  0  0  0  0
   25.7099  -20.3018  -10.1097 N   0  0  0  0  0  0  0  0  0  0  0  0
   23.6794  -20.7659   -8.8714 C   0  0  0  0  0  0  0  0  0  0  0  0
   22.8973  -21.5854   -8.0778 O   0  0  0  0  0  0  0  0  0  0  0  0
   23.0779  -19.9365   -9.6031 O   0  0  0  0  0  0  0  0  0  0  0  0
  2  1  1  0
  2  3  1  0
  4  5  1  0
  4  3  1  0
  5  6  1  6
  7  5  1  0
  7  8  2  0
  9 10  1  0
 11 10  1  6
 11 13  1  0
 11 12  1  0
 12  7  1  0
 13 20  1  0
 14 13  2  0
 16 15  1  0
 17 18  1  1
 17 16  1  0
 19 17  1  0
 19 20  1  6
 21 22  1  0
 21 19  1  0
 23 21  2  0
M  END
$$$$
