MSI.pdb
     RDKit          3D

 23 22  0  0  1  0  0  0  0  0999 V2000
   22.2164  -21.3219   -7.5385 C   0  0  0  0  0  0  0  0  0  0  0  0
   23.3298  -20.4260   -8.6566 S   0  0  0  0  0  0  0  0  0  0  0  0
   23.8462  -21.5605   -9.9791 C   0  0  0  0  0  0  0  0  0  0  0  0
   24.7408  -20.8035  -10.9104 C   0  0  0  0  0  0  0  0  0  0  0  0
   25.2290  -21.7153  -12.0343 C   0  0  2  0  0  0  0  0  0  0  0  0
   26.2617  -22.5494  -11.5074 N   0  0  0  0  0  0  0  0  0  0  0  0
   25.7063  -20.8122  -13.1159 C   0  0  0  0  0  0  0  0  0  0  0  0
   26.9469  -20.7177  -13.2837 O   0  0  0  0  0  0  0  0  0  0  0  0
   24.2126  -21.2708  -16.6386 O   0  0  0  0  0  0  0  0  0  0  0  0
   25.3847  -20.6617  -16.2768 C   0  0  0  0  0  0  0  0  0  0  0  0
   25.2209  -19.5606  -15.2576 C   0  0  2  0  0  0  0  0  0  0  0  0
   24.8540  -20.0618  -13.9574 N   0  0  0  0  0  0  0  0  0  0  0  0
   24.2510  -18.5890  -15.7930 C   0  0  0  0  0  0  0  0  0  0  0  0
   23.0297  -18.6843  -15.5285 O   0  0  0  0  0  0  0  0  0  0  0  0
   25.7457  -13.6869  -15.3952 C   0  0  0  0  0  0  0  0  0  0  0  0
   24.9301  -14.9516  -15.5073 C   0  0  0  0  0  0  0  0  0  0  0  0
   24.4966  -15.1601  -16.9206 C   0  0  2  0  0  0  0  0  0  0  0  0
   23.5831  -14.0374  -17.4030 C   0  0  0  0  0  0  0  0  0  0  0  0
   23.8289  -16.5118  -17.1535 C   0  0  2  0  0  0  0  0  0  0  0  0
   24.7287  -17.5360  -16.6192 N   0  0  0  0  0  0  0  0  0  0  0  0
   23.5515  -16.7595  -18.5898 C   0  0  0  0  0  0  0  0  0  0  0  0
   22.2848  -16.6153  -19.1263 O   0  0  0  0  0  0  0  0  0  0  0  0
   24.4684  -17.1127  -19.3770 O   0  0  0  0  0  0  0  0  0  0  0  0
  2  1  1  0
  2  3  1  0
  4  5  1  0
  4  3  1  0
  5  6  1  1
  7  5  1  0
  7  8  2  0
  9 10  1  0
 11 10  1  6
 11 13  1  0
 11 12  1  0
 12  7  1  0
 13 20  1  0
 14 13  2  0
 16 15  1  0
 17 18  1  1
 17 16  1  0
 19 17  1  0
 19 20  1  6
 21 22  1  0
 21 19  1  0
 23 21  2  0
M  END
$$$$
