MSI.pdb
     RDKit          3D

 23 22  0  0  1  0  0  0  0  0999 V2000
   19.6568  -16.4812  -13.2121 C   0  0  0  0  0  0  0  0  0  0  0  0
   19.3921  -17.9362  -14.2636 S   0  0  0  0  0  0  0  0  0  0  0  0
   19.4578  -17.4057  -16.0006 C   0  0  0  0  0  0  0  0  0  0  0  0
   19.8739  -15.9681  -16.0263 C   0  0  0  0  0  0  0  0  0  0  0  0
   19.8515  -15.4354  -17.4576 C   0  0  2  0  0  0  0  0  0  0  0  0
   20.9350  -16.0364  -18.1681 N   0  0  0  0  0  0  0  0  0  0  0  0
   19.9781  -13.9573  -17.3463 C   0  0  0  0  0  0  0  0  0  0  0  0
   21.1375  -13.4804  -17.2807 O   0  0  0  0  0  0  0  0  0  0  0  0
   16.9398  -11.3049  -18.4704 O   0  0  0  0  0  0  0  0  0  0  0  0
   17.6570  -10.9409  -17.3617 C   0  0  0  0  0  0  0  0  0  0  0  0
   18.9924  -11.6325  -17.2341 C   0  0  2  0  0  0  0  0  0  0  0  0
   18.8808  -13.0671  -17.3106 N   0  0  0  0  0  0  0  0  0  0  0  0
   19.6231  -11.1715  -15.9847 C   0  0  0  0  0  0  0  0  0  0  0  0
   19.2815  -11.6464  -14.8764 O   0  0  0  0  0  0  0  0  0  0  0  0
   24.4701  -11.8010  -15.3930 C   0  0  0  0  0  0  0  0  0  0  0  0
   23.0002  -11.5165  -15.2044 C   0  0  0  0  0  0  0  0  0  0  0  0
   22.7830  -10.0553  -14.9890 C   0  0  2  0  0  0  0  0  0  0  0  0
   23.5600   -9.5404  -13.7812 C   0  0  0  0  0  0  0  0  0  0  0  0
   21.3107   -9.6767  -14.8615 C   0  0  2  0  0  0  0  0  0  0  0  0
   20.6316  -10.1731  -16.0601 N   0  0  0  0  0  0  0  0  0  0  0  0
   21.1189   -8.2121  -14.7226 C   0  0  0  0  0  0  0  0  0  0  0  0
   20.9681   -7.6073  -13.4879 O   0  0  0  0  0  0  0  0  0  0  0  0
   21.0868   -7.4623  -15.7336 O   0  0  0  0  0  0  0  0  0  0  0  0
  2  1  1  0
  2  3  1  0
  4  5  1  0
  4  3  1  0
  5  6  1  6
  7  5  1  0
  7  8  2  0
  9 10  1  0
 11 10  1  1
 11 13  1  0
 11 12  1  0
 12  7  1  0
 13 20  1  0
 14 13  2  0
 16 15  1  0
 17 18  1  1
 17 16  1  0
 19 17  1  0
 19 20  1  6
 21 22  1  0
 21 19  1  0
 23 21  2  0
M  END
$$$$
