MSI.pdb
     RDKit          3D

 23 22  0  0  1  0  0  0  0  0999 V2000
   27.0373  -18.8787   -6.3989 C   0  0  0  0  0  0  0  0  0  0  0  0
   27.6394  -20.5593   -6.7245 S   0  0  0  0  0  0  0  0  0  0  0  0
   28.6294  -20.5265   -8.2482 C   0  0  0  0  0  0  0  0  0  0  0  0
   27.7037  -20.2500   -9.3915 C   0  0  0  0  0  0  0  0  0  0  0  0
   27.8317  -21.3410  -10.4528 C   0  0  2  0  0  0  0  0  0  0  0  0
   29.1886  -21.3652  -10.8979 N   0  0  0  0  0  0  0  0  0  0  0  0
   26.8727  -20.9782  -11.5307 C   0  0  0  0  0  0  0  0  0  0  0  0
   26.9996  -19.8467  -12.0595 O   0  0  0  0  0  0  0  0  0  0  0  0
   25.8096  -23.0536  -14.6007 O   0  0  0  0  0  0  0  0  0  0  0  0
   24.6658  -22.5945  -14.0033 C   0  0  0  0  0  0  0  0  0  0  0  0
   24.8895  -21.4741  -13.0172 C   0  0  2  0  0  0  0  0  0  0  0  0
   25.8374  -21.8238  -11.9899 N   0  0  0  0  0  0  0  0  0  0  0  0
   23.5770  -21.0783  -12.4766 C   0  0  0  0  0  0  0  0  0  0  0  0
   23.4899  -20.4051  -11.4231 O   0  0  0  0  0  0  0  0  0  0  0  0
   20.8017  -16.9402  -13.8598 C   0  0  0  0  0  0  0  0  0  0  0  0
   20.3701  -18.3246  -13.4422 C   0  0  0  0  0  0  0  0  0  0  0  0
   21.5061  -19.2824  -13.5865 C   0  0  2  0  0  0  0  0  0  0  0  0
   22.0298  -19.3264  -15.0188 C   0  0  0  0  0  0  0  0  0  0  0  0
   21.1702  -20.6925  -13.1109 C   0  0  2  0  0  0  0  0  0  0  0  0
   22.4055  -21.4761  -13.1758 N   0  0  0  0  0  0  0  0  0  0  0  0
   20.1090  -21.3233  -13.9338 C   0  0  0  0  0  0  0  0  0  0  0  0
   18.8221  -21.5001  -13.4586 O   0  0  0  0  0  0  0  0  0  0  0  0
   20.3457  -21.7229  -15.1040 O   0  0  0  0  0  0  0  0  0  0  0  0
  2  1  1  0
  2  3  1  0
  4  5  1  0
  4  3  1  0
  5  6  1  6
  7  5  1  0
  7  8  2  0
  9 10  1  0
 11 10  1  6
 11 13  1  0
 11 12  1  0
 12  7  1  0
 13 20  1  0
 14 13  2  0
 16 15  1  0
 17 18  1  6
 17 16  1  0
 19 17  1  0
 19 20  1  6
 21 22  1  0
 21 19  1  0
 23 21  2  0
M  END
$$$$
