SHA.pdb
     RDKit          3D

 22 22  0  0  1  0  0  0  0  0999 V2000
   14.6444   -9.2065  -16.9233 O   0  0  0  0  0  0  0  0  0  0  0  0
   15.3761   -8.5571  -15.9167 C   0  0  0  0  0  0  0  0  0  0  0  0
   16.5684   -9.4282  -15.6132 C   0  0  2  0  0  0  0  0  0  0  0  0
   16.1956  -10.7175  -15.0995 N   0  0  0  0  0  0  0  0  0  0  0  0
   17.5166   -8.7836  -14.6750 C   0  0  0  0  0  0  0  0  0  0  0  0
   17.4209   -8.9675  -13.4236 O   0  0  0  0  0  0  0  0  0  0  0  0
   18.5428   -7.9529  -15.1683 N   0  0  0  0  0  0  0  0  0  0  0  0
   19.5138   -7.3381  -14.2986 C   0  0  1  0  0  0  0  0  0  0  0  0
   20.5554   -8.4124  -13.9918 C   0  0  0  0  0  0  0  0  0  0  0  0
   21.1005   -8.8712  -15.2934 C   0  0  0  0  0  0  0  0  0  0  0  0
   20.6013   -8.5320  -16.5395 C   0  0  0  0  0  0  0  0  0  0  0  0
   21.3369   -9.1248  -17.5035 N   0  0  0  0  0  0  0  0  0  0  0  0
   22.2916   -9.8319  -16.8828 C   0  0  0  0  0  0  0  0  0  0  0  0
   22.1491   -9.6789  -15.5434 N   0  0  0  0  0  0  0  0  0  0  0  0
   20.1086   -6.1928  -15.0160 C   0  0  0  0  0  0  0  0  0  0  0  0
   20.2771   -6.2231  -16.2619 O   0  0  0  0  0  0  0  0  0  0  0  0
   21.0047   -2.6817  -14.0761 C   0  0  0  0  0  0  0  0  0  0  0  0
   21.1098   -3.8636  -15.0493 C   0  0  2  0  0  0  0  0  0  0  0  0
   20.5265   -4.9946  -14.3641 N   0  0  0  0  0  0  0  0  0  0  0  0
   22.5328   -4.0403  -15.3489 C   0  0  0  0  0  0  0  0  0  0  0  0
   23.2253   -4.7286  -14.5564 O   0  0  0  0  0  0  0  0  0  0  0  0
   23.1829   -3.5019  -16.4501 O   0  0  0  0  0  0  0  0  0  0  0  0
  1  2  1  0
  3  4  1  1
  3  5  1  0
  3  2  1  0
  5  6  2  0
  7  5  1  0
  7  8  1  0
  8 15  1  0
  9 10  1  0
  8  9  1  6
 10 14  1  0
 11 12  1  0
 11 10  2  0
 12 13  1  0
 13 14  2  0
 15 19  1  0
 15 16  2  0
 18 17  1  1
 18 20  1  0
 19 18  1  0
 20 22  1  0
 21 20  2  0
M  END
$$$$
