SHA.pdb
     RDKit          3D

 22 22  0  0  1  0  0  0  0  0999 V2000
   21.0804  -13.2253  -18.0403 O   0  0  0  0  0  0  0  0  0  0  0  0
   22.0102  -12.4756  -17.3028 C   0  0  0  0  0  0  0  0  0  0  0  0
   21.5743  -11.0350  -17.3878 C   0  0  2  0  0  0  0  0  0  0  0  0
   21.6488  -10.5121  -18.7244 N   0  0  0  0  0  0  0  0  0  0  0  0
   22.3422  -10.1561  -16.4755 C   0  0  0  0  0  0  0  0  0  0  0  0
   22.4032  -10.4019  -15.2325 O   0  0  0  0  0  0  0  0  0  0  0  0
   23.0182   -9.0288  -16.9843 N   0  0  0  0  0  0  0  0  0  0  0  0
   23.6798   -8.0807  -16.1236 C   0  0  1  0  0  0  0  0  0  0  0  0
   25.0774   -7.8765  -16.7053 C   0  0  0  0  0  0  0  0  0  0  0  0
   25.8908   -9.0493  -16.2997 C   0  0  0  0  0  0  0  0  0  0  0  0
   25.4549  -10.0940  -15.5023 C   0  0  0  0  0  0  0  0  0  0  0  0
   26.4521  -10.9881  -15.3348 N   0  0  0  0  0  0  0  0  0  0  0  0
   27.5090  -10.5217  -16.0147 C   0  0  0  0  0  0  0  0  0  0  0  0
   27.1698   -9.3469  -16.5998 N   0  0  0  0  0  0  0  0  0  0  0  0
   22.8969   -6.8288  -16.1367 C   0  0  0  0  0  0  0  0  0  0  0  0
   22.3587   -6.4101  -17.1934 O   0  0  0  0  0  0  0  0  0  0  0  0
   21.7802   -4.3935  -13.5042 C   0  0  0  0  0  0  0  0  0  0  0  0
   21.9643   -4.7748  -14.9792 C   0  0  2  0  0  0  0  0  0  0  0  0
   22.6976   -6.0202  -14.9784 N   0  0  0  0  0  0  0  0  0  0  0  0
   22.6944   -3.6744  -15.6132 C   0  0  0  0  0  0  0  0  0  0  0  0
   23.9437   -3.7729  -15.7169 O   0  0  0  0  0  0  0  0  0  0  0  0
   22.1090   -2.5201  -16.1133 O   0  0  0  0  0  0  0  0  0  0  0  0
  1  2  1  0
  3  4  1  6
  3  5  1  0
  3  2  1  0
  5  6  2  0
  7  5  1  0
  7  8  1  0
  8 15  1  0
  9 10  1  0
  8  9  1  6
 10 14  1  0
 11 12  1  0
 11 10  2  0
 12 13  1  0
 13 14  2  0
 15 19  1  0
 15 16  2  0
 18 17  1  1
 18 20  1  0
 19 18  1  0
 20 22  1  0
 21 20  2  0
M  END
$$$$
