SHA.pdb
     RDKit          3D

 22 22  0  0  1  0  0  0  0  0999 V2000
   16.3861  -10.0900  -18.0596 O   0  0  0  0  0  0  0  0  0  0  0  0
   17.2430   -9.7081  -17.0154 C   0  0  0  0  0  0  0  0  0  0  0  0
   18.4929  -10.5399  -17.1508 C   0  0  2  0  0  0  0  0  0  0  0  0
   18.2764  -11.9221  -16.8221 N   0  0  0  0  0  0  0  0  0  0  0  0
   19.6141  -10.0139  -16.3378 C   0  0  0  0  0  0  0  0  0  0  0  0
   19.7590  -10.3610  -15.1263 O   0  0  0  0  0  0  0  0  0  0  0  0
   20.5383   -9.1151  -16.9076 N   0  0  0  0  0  0  0  0  0  0  0  0
   21.6907   -8.6414  -16.1832 C   0  0  1  0  0  0  0  0  0  0  0  0
   22.8967   -8.8892  -17.0873 C   0  0  0  0  0  0  0  0  0  0  0  0
   23.1993  -10.3402  -17.0178 C   0  0  0  0  0  0  0  0  0  0  0  0
   22.9039  -11.2717  -17.9987 C   0  0  0  0  0  0  0  0  0  0  0  0
   23.3180  -12.4951  -17.6069 N   0  0  0  0  0  0  0  0  0  0  0  0
   23.8696  -12.3475  -16.3942 C   0  0  0  0  0  0  0  0  0  0  0  0
   23.7981  -11.0420  -16.0364 N   0  0  0  0  0  0  0  0  0  0  0  0
   21.5000   -7.2024  -15.9130 C   0  0  0  0  0  0  0  0  0  0  0  0
   21.0381   -6.4316  -16.7928 O   0  0  0  0  0  0  0  0  0  0  0  0
   21.6850   -5.0898  -12.8237 C   0  0  0  0  0  0  0  0  0  0  0  0
   21.5533   -5.2082  -14.3480 C   0  0  2  0  0  0  0  0  0  0  0  0
   21.8183   -6.5937  -14.6625 N   0  0  0  0  0  0  0  0  0  0  0  0
   22.5311   -4.2859  -14.9305 C   0  0  0  0  0  0  0  0  0  0  0  0
   23.6468   -4.7477  -15.2816 O   0  0  0  0  0  0  0  0  0  0  0  0
   22.3201   -2.9287  -15.1271 O   0  0  0  0  0  0  0  0  0  0  0  0
  1  2  1  0
  3  4  1  1
  3  5  1  0
  3  2  1  0
  5  6  2  0
  7  5  1  0
  7  8  1  0
  8 15  1  0
  9 10  1  0
  8  9  1  6
 10 14  1  0
 11 12  1  0
 11 10  2  0
 12 13  1  0
 13 14  2  0
 15 19  1  0
 15 16  2  0
 18 17  1  1
 18 20  1  0
 19 18  1  0
 20 22  1  0
 21 20  2  0
M  END
$$$$
