SHA.pdb
     RDKit          3D

 22 22  0  0  1  0  0  0  0  0999 V2000
   25.4144  -22.6714  -12.1246 O   0  0  0  0  0  0  0  0  0  0  0  0
   26.6340  -21.9922  -11.9763 C   0  0  0  0  0  0  0  0  0  0  0  0
   26.3213  -20.6738  -11.3156 C   0  0  2  0  0  0  0  0  0  0  0  0
   25.3240  -20.7925  -10.2876 N   0  0  0  0  0  0  0  0  0  0  0  0
   25.9001  -19.6387  -12.2881 C   0  0  0  0  0  0  0  0  0  0  0  0
   24.7987  -19.0247  -12.1497 O   0  0  0  0  0  0  0  0  0  0  0  0
   26.7262  -19.3235  -13.3857 N   0  0  0  0  0  0  0  0  0  0  0  0
   26.3842  -18.2880  -14.3281 C   0  0  1  0  0  0  0  0  0  0  0  0
   27.6551  -17.9958  -15.1236 C   0  0  0  0  0  0  0  0  0  0  0  0
   27.3196  -16.9295  -16.0994 C   0  0  0  0  0  0  0  0  0  0  0  0
   26.0681  -16.3637  -16.2745 C   0  0  0  0  0  0  0  0  0  0  0  0
   26.1219  -15.4261  -17.2440 N   0  0  0  0  0  0  0  0  0  0  0  0
   27.3885  -15.3934  -17.6816 C   0  0  0  0  0  0  0  0  0  0  0  0
   28.1150  -16.3042  -16.9885 N   0  0  0  0  0  0  0  0  0  0  0  0
   25.3047  -18.7993  -15.1960 C   0  0  0  0  0  0  0  0  0  0  0  0
   25.4039  -19.9153  -15.7674 O   0  0  0  0  0  0  0  0  0  0  0  0
   21.7552  -17.7989  -15.7569 C   0  0  0  0  0  0  0  0  0  0  0  0
   22.9800  -18.6152  -16.1912 C   0  0  2  0  0  0  0  0  0  0  0  0
   24.0969  -18.0819  -15.4451 N   0  0  0  0  0  0  0  0  0  0  0  0
   23.1149  -18.4385  -17.6392 C   0  0  0  0  0  0  0  0  0  0  0  0
   22.6369  -19.3247  -18.3924 O   0  0  0  0  0  0  0  0  0  0  0  0
   23.7354  -17.3585  -18.2506 O   0  0  0  0  0  0  0  0  0  0  0  0
  1  2  1  0
  3  4  1  1
  3  5  1  0
  3  2  1  0
  5  6  2  0
  7  5  1  0
  7  8  1  0
  8 15  1  0
  9 10  1  0
  8  9  1  6
 10 14  1  0
 11 12  1  0
 11 10  2  0
 12 13  1  0
 13 14  2  0
 15 19  1  0
 15 16  2  0
 18 17  1  1
 18 20  1  0
 19 18  1  0
 20 22  1  0
 21 20  2  0
M  END
$$$$
