SHA.pdb
     RDKit          3D

 22 22  0  0  1  0  0  0  0  0999 V2000
   28.2963   -9.2500  -17.2402 O   0  0  0  0  0  0  0  0  0  0  0  0
   26.9244   -8.9527  -17.2424 C   0  0  0  0  0  0  0  0  0  0  0  0
   26.1979  -10.2444  -16.9658 C   0  0  2  0  0  0  0  0  0  0  0  0
   26.5165  -11.2734  -17.9171 N   0  0  0  0  0  0  0  0  0  0  0  0
   24.7282  -10.0670  -16.9112 C   0  0  0  0  0  0  0  0  0  0  0  0
   23.9471  -10.9655  -17.3489 O   0  0  0  0  0  0  0  0  0  0  0  0
   24.1792   -8.8882  -16.3676 N   0  0  0  0  0  0  0  0  0  0  0  0
   22.7593   -8.7175  -16.1885 C   0  0  1  0  0  0  0  0  0  0  0  0
   22.3485   -9.6820  -15.0776 C   0  0  0  0  0  0  0  0  0  0  0  0
   20.8695   -9.6200  -14.9751 C   0  0  0  0  0  0  0  0  0  0  0  0
   20.0452   -8.7939  -15.7202 C   0  0  0  0  0  0  0  0  0  0  0  0
   18.7575   -8.9971  -15.3703 N   0  0  0  0  0  0  0  0  0  0  0  0
   18.7592   -9.9386  -14.4163 C   0  0  0  0  0  0  0  0  0  0  0  0
   20.0386  -10.3167  -14.1761 N   0  0  0  0  0  0  0  0  0  0  0  0
   22.5131   -7.3124  -15.8075 C   0  0  0  0  0  0  0  0  0  0  0  0
   23.0174   -6.8242  -14.7639 O   0  0  0  0  0  0  0  0  0  0  0  0
   20.4924   -4.5024  -17.2831 C   0  0  0  0  0  0  0  0  0  0  0  0
   21.4960   -5.0324  -16.2502 C   0  0  2  0  0  0  0  0  0  0  0  0
   21.7035   -6.4248  -16.5771 N   0  0  0  0  0  0  0  0  0  0  0  0
   20.8914   -4.8323  -14.9309 C   0  0  0  0  0  0  0  0  0  0  0  0
   21.2500   -3.8315  -14.2594 O   0  0  0  0  0  0  0  0  0  0  0  0
   19.9443   -5.6694  -14.3587 O   0  0  0  0  0  0  0  0  0  0  0  0
  1  2  1  0
  3  4  1  6
  3  5  1  0
  3  2  1  0
  5  6  2  0
  7  5  1  0
  7  8  1  0
  8 15  1  0
  9 10  1  0
  8  9  1  1
 10 14  1  0
 11 12  1  0
 11 10  2  0
 12 13  1  0
 13 14  2  0
 15 19  1  0
 15 16  2  0
 18 17  1  6
 18 20  1  0
 19 18  1  0
 20 22  1  0
 21 20  2  0
M  END
$$$$
