SHA.pdb
     RDKit          3D

 22 22  0  0  1  0  0  0  0  0999 V2000
   25.3882  -38.7202   -1.1512 O   0  0  0  0  0  0  0  0  0  0  0  0
   24.6358  -37.7871   -1.8819 C   0  0  0  0  0  0  0  0  0  0  0  0
   25.2952  -36.4458   -1.6856 C   0  0  2  0  0  0  0  0  0  0  0  0
   25.0352  -35.8857   -0.3878 N   0  0  0  0  0  0  0  0  0  0  0  0
   24.9078  -35.4663   -2.7273 C   0  0  0  0  0  0  0  0  0  0  0  0
   24.0696  -34.5476   -2.4779 O   0  0  0  0  0  0  0  0  0  0  0  0
   25.4718  -35.5468   -4.0165 N   0  0  0  0  0  0  0  0  0  0  0  0
   25.1710  -34.5825   -5.0446 C   0  0  1  0  0  0  0  0  0  0  0  0
   26.3261  -34.6453   -6.0421 C   0  0  0  0  0  0  0  0  0  0  0  0
   26.0504  -33.6300   -7.0885 C   0  0  0  0  0  0  0  0  0  0  0  0
   24.9290  -32.8200   -7.1481 C   0  0  0  0  0  0  0  0  0  0  0  0
   25.0034  -32.0153   -8.2292 N   0  0  0  0  0  0  0  0  0  0  0  0
   26.1547  -32.3067   -8.8507 C   0  0  0  0  0  0  0  0  0  0  0  0
   26.7898  -33.2851   -8.1602 N   0  0  0  0  0  0  0  0  0  0  0  0
   23.8903  -34.9672   -5.6704 C   0  0  0  0  0  0  0  0  0  0  0  0
   23.6209  -36.1717   -5.9116 O   0  0  0  0  0  0  0  0  0  0  0  0
   20.8633  -33.0653   -6.8458 C   0  0  0  0  0  0  0  0  0  0  0  0
   21.6485  -34.3753   -6.6965 C   0  0  2  0  0  0  0  0  0  0  0  0
   22.8865  -34.0229   -6.0394 N   0  0  0  0  0  0  0  0  0  0  0  0
   21.8424  -34.9091   -8.0469 C   0  0  0  0  0  0  0  0  0  0  0  0
   22.8964  -34.6030   -8.6605 O   0  0  0  0  0  0  0  0  0  0  0  0
   20.9446  -35.7347   -8.7083 O   0  0  0  0  0  0  0  0  0  0  0  0
  1  2  1  0
  3  4  1  1
  3  5  1  0
  3  2  1  0
  5  6  2  0
  7  5  1  0
  7  8  1  0
  8 15  1  0
  9 10  1  0
  8  9  1  6
 10 14  1  0
 11 12  1  0
 11 10  2  0
 12 13  1  0
 13 14  2  0
 15 19  1  0
 15 16  2  0
 18 17  1  6
 18 20  1  0
 19 18  1  0
 20 22  1  0
 21 20  2  0
M  END
$$$$
