SHA.pdb
     RDKit          3D

 22 22  0  0  1  0  0  0  0  0999 V2000
   17.2385  -25.3675   -3.1728 O   0  0  0  0  0  0  0  0  0  0  0  0
   15.9086  -25.8109   -3.2453 C   0  0  0  0  0  0  0  0  0  0  0  0
   15.0863  -24.6451   -3.7324 C   0  0  2  0  0  0  0  0  0  0  0  0
   15.6120  -24.0611   -4.9357 N   0  0  0  0  0  0  0  0  0  0  0  0
   14.9336  -23.5904   -2.7033 C   0  0  0  0  0  0  0  0  0  0  0  0
   15.5518  -22.4874   -2.8045 O   0  0  0  0  0  0  0  0  0  0  0  0
   14.0928  -23.8044   -1.5925 N   0  0  0  0  0  0  0  0  0  0  0  0
   13.8134  -22.7657   -0.6333 C   0  0  1  0  0  0  0  0  0  0  0  0
   12.5406  -23.1886    0.0978 C   0  0  0  0  0  0  0  0  0  0  0  0
   12.1332  -22.0471    0.9537 C   0  0  0  0  0  0  0  0  0  0  0  0
   12.7923  -20.8327    1.0429 C   0  0  0  0  0  0  0  0  0  0  0  0
   12.1496  -20.0266    1.9141 N   0  0  0  0  0  0  0  0  0  0  0  0
   11.0958  -20.7155    2.3744 C   0  0  0  0  0  0  0  0  0  0  0  0
   11.0851  -21.9400    1.7930 N   0  0  0  0  0  0  0  0  0  0  0  0
   14.9642  -22.6730    0.2872 C   0  0  0  0  0  0  0  0  0  0  0  0
   15.6710  -23.6802    0.5472 O   0  0  0  0  0  0  0  0  0  0  0  0
   16.9494  -19.9239    1.7947 C   0  0  0  0  0  0  0  0  0  0  0  0
   16.4324  -21.3658    1.8884 C   0  0  2  0  0  0  0  0  0  0  0  0
   15.3507  -21.4621    0.9349 N   0  0  0  0  0  0  0  0  0  0  0  0
   16.0022  -21.5722    3.2735 C   0  0  0  0  0  0  0  0  0  0  0  0
   14.7687  -21.6403    3.5079 O   0  0  0  0  0  0  0  0  0  0  0  0
   16.8584  -21.6998    4.3578 O   0  0  0  0  0  0  0  0  0  0  0  0
  1  2  1  0
  3  4  1  6
  3  5  1  0
  3  2  1  0
  5  6  2  0
  7  5  1  0
  7  8  1  0
  8 15  1  0
  9 10  1  0
  8  9  1  1
 10 14  1  0
 11 12  1  0
 11 10  2  0
 12 13  1  0
 13 14  2  0
 15 19  1  0
 15 16  2  0
 18 17  1  1
 18 20  1  0
 19 18  1  0
 20 22  1  0
 21 20  2  0
M  END
$$$$
