SHA.pdb
     RDKit          3D

 22 22  0  0  1  0  0  0  0  0999 V2000
   13.0583   -8.2890  -16.6159 O   0  0  0  0  0  0  0  0  0  0  0  0
   13.6761   -9.4914  -16.2375 C   0  0  0  0  0  0  0  0  0  0  0  0
   13.7214   -9.5031  -14.7307 C   0  0  2  0  0  0  0  0  0  0  0  0
   12.4194   -9.3715  -14.1367 N   0  0  0  0  0  0  0  0  0  0  0  0
   14.6166   -8.4576  -14.1829 C   0  0  0  0  0  0  0  0  0  0  0  0
   14.2543   -7.7378  -13.2033 O   0  0  0  0  0  0  0  0  0  0  0  0
   15.8904   -8.2511  -14.7498 N   0  0  0  0  0  0  0  0  0  0  0  0
   16.7798   -7.2200  -14.2776 C   0  0  1  0  0  0  0  0  0  0  0  0
   18.0576   -7.9278  -13.8309 C   0  0  0  0  0  0  0  0  0  0  0  0
   17.7223   -8.6943  -12.6054 C   0  0  0  0  0  0  0  0  0  0  0  0
   17.5731   -8.1592  -11.3372 C   0  0  0  0  0  0  0  0  0  0  0  0
   17.2689   -9.1392  -10.4604 N   0  0  0  0  0  0  0  0  0  0  0  0
   17.2245  -10.2831  -11.1578 C   0  0  0  0  0  0  0  0  0  0  0  0
   17.4991  -10.0144  -12.4578 N   0  0  0  0  0  0  0  0  0  0  0  0
   17.0354   -6.2904  -15.3960 C   0  0  0  0  0  0  0  0  0  0  0  0
   17.3522   -6.7169  -16.5359 O   0  0  0  0  0  0  0  0  0  0  0  0
   16.8170   -2.5597  -15.8139 C   0  0  0  0  0  0  0  0  0  0  0  0
   17.1927   -3.9471  -16.3514 C   0  0  2  0  0  0  0  0  0  0  0  0
   16.9441   -4.8724  -15.2693 N   0  0  0  0  0  0  0  0  0  0  0  0
   18.6027   -3.8818  -16.7436 C   0  0  0  0  0  0  0  0  0  0  0  0
   19.4638   -4.3175  -15.9375 O   0  0  0  0  0  0  0  0  0  0  0  0
   19.0668   -3.3713  -17.9474 O   0  0  0  0  0  0  0  0  0  0  0  0
  1  2  1  0
  3  4  1  1
  3  5  1  0
  3  2  1  0
  5  6  2  0
  7  5  1  0
  7  8  1  0
  8 15  1  0
  9 10  1  0
  8  9  1  6
 10 14  1  0
 11 12  1  0
 11 10  2  0
 12 13  1  0
 13 14  2  0
 15 19  1  0
 15 16  2  0
 18 17  1  1
 18 20  1  0
 19 18  1  0
 20 22  1  0
 21 20  2  0
M  END
$$$$
