SHA.pdb
     RDKit          3D

 22 22  0  0  1  0  0  0  0  0999 V2000
   32.3716  -30.7714  -18.4451 O   0  0  0  0  0  0  0  0  0  0  0  0
   31.6993  -30.0018  -19.4076 C   0  0  0  0  0  0  0  0  0  0  0  0
   31.2319  -28.7476  -18.7141 C   0  0  2  0  0  0  0  0  0  0  0  0
   32.3060  -28.0302  -18.0840 N   0  0  0  0  0  0  0  0  0  0  0  0
   30.1704  -29.0145  -17.7158 C   0  0  0  0  0  0  0  0  0  0  0  0
   30.4177  -28.9635  -16.4727 O   0  0  0  0  0  0  0  0  0  0  0  0
   28.8643  -29.3303  -18.1414 N   0  0  0  0  0  0  0  0  0  0  0  0
   27.7768  -29.5008  -17.2111 C   0  0  1  0  0  0  0  0  0  0  0  0
   26.5823  -28.7588  -17.8076 C   0  0  0  0  0  0  0  0  0  0  0  0
   26.7390  -27.3273  -17.4496 C   0  0  0  0  0  0  0  0  0  0  0  0
   27.7616  -26.4980  -17.8779 C   0  0  0  0  0  0  0  0  0  0  0  0
   27.5941  -25.2619  -17.3623 N   0  0  0  0  0  0  0  0  0  0  0  0
   26.4813  -25.3010  -16.6160 C   0  0  0  0  0  0  0  0  0  0  0  0
   25.9625  -26.5522  -16.6683 N   0  0  0  0  0  0  0  0  0  0  0  0
   27.5094  -30.9471  -17.0817 C   0  0  0  0  0  0  0  0  0  0  0  0
   27.6445  -31.7231  -18.0622 O   0  0  0  0  0  0  0  0  0  0  0  0
   26.4991  -33.1846  -14.2301 C   0  0  0  0  0  0  0  0  0  0  0  0
   26.8600  -32.9761  -15.7070 C   0  0  2  0  0  0  0  0  0  0  0  0
   27.0878  -31.5575  -15.8632 N   0  0  0  0  0  0  0  0  0  0  0  0
   25.7270  -33.4697  -16.4935 C   0  0  0  0  0  0  0  0  0  0  0  0
   24.8523  -32.6431  -16.8579 O   0  0  0  0  0  0  0  0  0  0  0  0
   25.5418  -34.7918  -16.8718 O   0  0  0  0  0  0  0  0  0  0  0  0
  1  2  1  0
  3  4  1  1
  3  5  1  0
  3  2  1  0
  5  6  2  0
  7  5  1  0
  7  8  1  0
  8 15  1  0
  9 10  1  0
  8  9  1  6
 10 14  1  0
 11 12  1  0
 11 10  2  0
 12 13  1  0
 13 14  2  0
 15 19  1  0
 15 16  2  0
 18 17  1  1
 18 20  1  0
 19 18  1  0
 20 22  1  0
 21 20  2  0
M  END
$$$$
