SHA.pdb
     RDKit          3D

 22 22  0  0  1  0  0  0  0  0999 V2000
   36.1219   -8.2544  -12.3581 O   0  0  0  0  0  0  0  0  0  0  0  0
   35.1466   -7.5708  -13.1011 C   0  0  0  0  0  0  0  0  0  0  0  0
   35.4370   -7.8416  -14.5554 C   0  0  2  0  0  0  0  0  0  0  0  0
   36.7354   -8.4221  -14.7619 N   0  0  0  0  0  0  0  0  0  0  0  0
   35.3048   -6.6282  -15.3948 C   0  0  0  0  0  0  0  0  0  0  0  0
   36.2789   -5.8292  -15.5427 O   0  0  0  0  0  0  0  0  0  0  0  0
   34.0849   -6.3475  -16.0427 N   0  0  0  0  0  0  0  0  0  0  0  0
   33.9128   -5.1871  -16.8800 C   0  0  1  0  0  0  0  0  0  0  0  0
   33.5190   -5.7094  -18.2604 C   0  0  0  0  0  0  0  0  0  0  0  0
   34.7691   -6.1426  -18.9323 C   0  0  0  0  0  0  0  0  0  0  0  0
   35.6732   -5.3071  -19.5659 C   0  0  0  0  0  0  0  0  0  0  0  0
   36.6942   -6.0342  -20.0666 N   0  0  0  0  0  0  0  0  0  0  0  0
   36.4461   -7.3147  -19.7577 C   0  0  0  0  0  0  0  0  0  0  0  0
   35.2797   -7.3813  -19.0702 N   0  0  0  0  0  0  0  0  0  0  0  0
   32.8472   -4.3526  -16.2898 C   0  0  0  0  0  0  0  0  0  0  0  0
   31.7414   -4.8504  -15.9568 O   0  0  0  0  0  0  0  0  0  0  0  0
   32.5761   -0.7338  -15.3041 C   0  0  0  0  0  0  0  0  0  0  0  0
   31.9339   -2.1054  -15.5520 C   0  0  2  0  0  0  0  0  0  0  0  0
   32.9897   -2.9520  -16.0590 N   0  0  0  0  0  0  0  0  0  0  0  0
   30.8481   -1.8971  -16.5131 C   0  0  0  0  0  0  0  0  0  0  0  0
   31.0866   -2.0992  -17.7311 O   0  0  0  0  0  0  0  0  0  0  0  0
   29.5639   -1.4899  -16.1810 O   0  0  0  0  0  0  0  0  0  0  0  0
  1  2  1  0
  3  4  1  1
  3  5  1  0
  3  2  1  0
  5  6  2  0
  7  5  1  0
  7  8  1  0
  8 15  1  0
  9 10  1  0
  8  9  1  6
 10 14  1  0
 11 12  1  0
 11 10  2  0
 12 13  1  0
 13 14  2  0
 15 19  1  0
 15 16  2  0
 18 17  1  6
 18 20  1  0
 19 18  1  0
 20 22  1  0
 21 20  2  0
M  END
$$$$
