SHA.pdb
     RDKit          3D

 22 22  0  0  1  0  0  0  0  0999 V2000
   22.5917  -13.7922  -19.5270 O   0  0  0  0  0  0  0  0  0  0  0  0
   21.3599  -13.2125  -19.1845 C   0  0  0  0  0  0  0  0  0  0  0  0
   21.6518  -11.8053  -18.7295 C   0  0  2  0  0  0  0  0  0  0  0  0
   22.5709  -11.7598  -17.6256 N   0  0  0  0  0  0  0  0  0  0  0  0
   20.4227  -11.0588  -18.3733 C   0  0  0  0  0  0  0  0  0  0  0  0
   19.5865  -10.7181  -19.2642 O   0  0  0  0  0  0  0  0  0  0  0  0
   20.1687  -10.7173  -17.0297 N   0  0  0  0  0  0  0  0  0  0  0  0
   18.9682  -10.0274  -16.6296 C   0  0  1  0  0  0  0  0  0  0  0  0
   18.6111  -10.5578  -15.2424 C   0  0  0  0  0  0  0  0  0  0  0  0
   17.6633  -11.6823  -15.4395 C   0  0  0  0  0  0  0  0  0  0  0  0
   17.1498  -12.0980  -16.6563 C   0  0  0  0  0  0  0  0  0  0  0  0
   16.3198  -13.1457  -16.4683 N   0  0  0  0  0  0  0  0  0  0  0  0
   16.3033  -13.3955  -15.1514 C   0  0  0  0  0  0  0  0  0  0  0  0
   17.1172  -12.5092  -14.5272 N   0  0  0  0  0  0  0  0  0  0  0  0
   19.2618   -8.5806  -16.5998 C   0  0  0  0  0  0  0  0  0  0  0  0
   20.2856   -8.1372  -16.0192 O   0  0  0  0  0  0  0  0  0  0  0  0
   17.6800   -5.5442  -18.1483 C   0  0  0  0  0  0  0  0  0  0  0  0
   18.6896   -6.1805  -17.1835 C   0  0  2  0  0  0  0  0  0  0  0  0
   18.4253   -7.6011  -17.2131 N   0  0  0  0  0  0  0  0  0  0  0  0
   18.4578   -5.5767  -15.8690 C   0  0  0  0  0  0  0  0  0  0  0  0
   17.6631   -6.1528  -15.0830 O   0  0  0  0  0  0  0  0  0  0  0  0
   19.0528   -4.4068  -15.4191 O   0  0  0  0  0  0  0  0  0  0  0  0
  1  2  1  0
  3  4  1  1
  3  5  1  0
  3  2  1  0
  5  6  2  0
  7  5  1  0
  7  8  1  0
  8 15  1  0
  9 10  1  0
  8  9  1  1
 10 14  1  0
 11 12  1  0
 11 10  2  0
 12 13  1  0
 13 14  2  0
 15 19  1  0
 15 16  2  0
 18 17  1  6
 18 20  1  0
 19 18  1  0
 20 22  1  0
 21 20  2  0
M  END
$$$$
