SHA.pdb
     RDKit          3D

 22 22  0  0  1  0  0  0  0  0999 V2000
   21.6929  -11.8279  -21.1005 O   0  0  0  0  0  0  0  0  0  0  0  0
   21.2896  -11.2040  -19.9094 C   0  0  0  0  0  0  0  0  0  0  0  0
   22.4565  -11.2844  -18.9583 C   0  0  2  0  0  0  0  0  0  0  0  0
   22.5289  -12.5475  -18.2765 N   0  0  0  0  0  0  0  0  0  0  0  0
   22.4502  -10.1897  -17.9602 C   0  0  0  0  0  0  0  0  0  0  0  0
   21.7188  -10.2557  -16.9259 O   0  0  0  0  0  0  0  0  0  0  0  0
   23.2637   -9.0549  -18.1521 N   0  0  0  0  0  0  0  0  0  0  0  0
   23.3371   -7.9932  -17.1802 C   0  0  1  0  0  0  0  0  0  0  0  0
   24.8135   -7.6186  -17.0654 C   0  0  0  0  0  0  0  0  0  0  0  0
   25.4966   -8.7511  -16.3927 C   0  0  0  0  0  0  0  0  0  0  0  0
   24.8912   -9.9265  -15.9818 C   0  0  0  0  0  0  0  0  0  0  0  0
   25.8064  -10.7358  -15.4078 N   0  0  0  0  0  0  0  0  0  0  0  0
   26.9786  -10.0872  -15.4514 C   0  0  0  0  0  0  0  0  0  0  0  0
   26.7919   -8.8844  -16.0481 N   0  0  0  0  0  0  0  0  0  0  0  0
   22.5263   -6.8634  -17.6764 C   0  0  0  0  0  0  0  0  0  0  0  0
   22.5655   -6.5167  -18.8846 O   0  0  0  0  0  0  0  0  0  0  0  0
   20.0156   -4.5351  -16.1222 C   0  0  0  0  0  0  0  0  0  0  0  0
   20.9440   -4.9221  -17.2812 C   0  0  2  0  0  0  0  0  0  0  0  0
   21.6583   -6.0988  -16.8412 N   0  0  0  0  0  0  0  0  0  0  0  0
   21.8185   -3.7724  -17.5252 C   0  0  0  0  0  0  0  0  0  0  0  0
   22.9648   -3.7784  -17.0082 O   0  0  0  0  0  0  0  0  0  0  0  0
   21.4773   -2.6662  -18.2901 O   0  0  0  0  0  0  0  0  0  0  0  0
  1  2  1  0
  3  4  1  1
  3  5  1  0
  3  2  1  0
  5  6  2  0
  7  5  1  0
  7  8  1  0
  8 15  1  0
  9 10  1  0
  8  9  1  6
 10 14  1  0
 11 12  1  0
 11 10  2  0
 12 13  1  0
 13 14  2  0
 15 19  1  0
 15 16  2  0
 18 17  1  1
 18 20  1  0
 19 18  1  0
 20 22  1  0
 21 20  2  0
M  END
$$$$
