SHA.pdb
     RDKit          3D

 22 22  0  0  1  0  0  0  0  0999 V2000
   21.9099  -12.2513  -14.8476 O   0  0  0  0  0  0  0  0  0  0  0  0
   22.1984  -10.8816  -14.9533 C   0  0  0  0  0  0  0  0  0  0  0  0
   22.0989  -10.5266  -16.4150 C   0  0  2  0  0  0  0  0  0  0  0  0
   23.0961  -11.1848  -17.2136 N   0  0  0  0  0  0  0  0  0  0  0  0
   22.1711   -9.0656  -16.6492 C   0  0  0  0  0  0  0  0  0  0  0  0
   23.2655   -8.5109  -16.9712 O   0  0  0  0  0  0  0  0  0  0  0  0
   21.0145   -8.2713  -16.5154 N   0  0  0  0  0  0  0  0  0  0  0  0
   20.9863   -6.8874  -16.9171 C   0  0  1  0  0  0  0  0  0  0  0  0
   19.7112   -6.7055  -17.7383 C   0  0  0  0  0  0  0  0  0  0  0  0
   19.9799   -7.2666  -19.0854 C   0  0  0  0  0  0  0  0  0  0  0  0
   21.2011   -7.2442  -19.7375 C   0  0  0  0  0  0  0  0  0  0  0  0
   21.0869   -7.8417  -20.9424 N   0  0  0  0  0  0  0  0  0  0  0  0
   19.8122   -8.2397  -21.0583 C   0  0  0  0  0  0  0  0  0  0  0  0
   19.1406   -7.8916  -19.9335 N   0  0  0  0  0  0  0  0  0  0  0  0
   20.9696   -6.0579  -15.6957 C   0  0  0  0  0  0  0  0  0  0  0  0
   20.2289   -6.3497  -14.7221 O   0  0  0  0  0  0  0  0  0  0  0  0
   22.8789   -3.0323  -14.5401 C   0  0  0  0  0  0  0  0  0  0  0  0
   21.7301   -4.0354  -14.3691 C   0  0  2  0  0  0  0  0  0  0  0  0
   21.7740   -4.8909  -15.5331 N   0  0  0  0  0  0  0  0  0  0  0  0
   20.4954   -3.2529  -14.2730 C   0  0  0  0  0  0  0  0  0  0  0  0
   19.8275   -3.0668  -15.3220 O   0  0  0  0  0  0  0  0  0  0  0  0
   20.0004   -2.6954  -13.1028 O   0  0  0  0  0  0  0  0  0  0  0  0
  1  2  1  0
  3  4  1  6
  3  5  1  0
  3  2  1  0
  5  6  2  0
  7  5  1  0
  7  8  1  0
  8 15  1  0
  9 10  1  0
  8  9  1  1
 10 14  1  0
 11 12  1  0
 11 10  2  0
 12 13  1  0
 13 14  2  0
 15 19  1  0
 15 16  2  0
 18 17  1  6
 18 20  1  0
 19 18  1  0
 20 22  1  0
 21 20  2  0
M  END
$$$$
