SHA.pdb
     RDKit          3D

 22 22  0  0  1  0  0  0  0  0999 V2000
   21.0841  -10.9222  -18.1032 O   0  0  0  0  0  0  0  0  0  0  0  0
   20.7172   -9.6900  -17.5397 C   0  0  0  0  0  0  0  0  0  0  0  0
   19.5936   -9.9693  -16.5743 C   0  0  2  0  0  0  0  0  0  0  0  0
   18.3635  -10.3033  -17.2382 N   0  0  0  0  0  0  0  0  0  0  0  0
   19.3554   -8.8435  -15.6413 C   0  0  0  0  0  0  0  0  0  0  0  0
   18.5676   -7.8982  -15.9489 O   0  0  0  0  0  0  0  0  0  0  0  0
   20.0078   -8.8119  -14.3922 N   0  0  0  0  0  0  0  0  0  0  0  0
   19.8836   -7.6928  -13.4925 C   0  0  1  0  0  0  0  0  0  0  0  0
   19.9154   -8.2731  -12.0799 C   0  0  0  0  0  0  0  0  0  0  0  0
   18.5349   -8.7144  -11.7618 C   0  0  0  0  0  0  0  0  0  0  0  0
   17.4222   -8.5159  -12.5615 C   0  0  0  0  0  0  0  0  0  0  0  0
   16.3318   -9.0446  -11.9671 N   0  0  0  0  0  0  0  0  0  0  0  0
   16.7416   -9.5727  -10.8052 C   0  0  0  0  0  0  0  0  0  0  0  0
   18.0765   -9.3731  -10.6800 N   0  0  0  0  0  0  0  0  0  0  0  0
   21.0229   -6.7850  -13.7335 C   0  0  0  0  0  0  0  0  0  0  0  0
   22.1925   -7.2296  -13.8598 O   0  0  0  0  0  0  0  0  0  0  0  0
   22.2600   -4.8289  -15.7031 C   0  0  0  0  0  0  0  0  0  0  0  0
   21.9513   -4.4808  -14.2407 C   0  0  2  0  0  0  0  0  0  0  0  0
   20.8846   -5.3690  -13.8383 N   0  0  0  0  0  0  0  0  0  0  0  0
   21.5678   -3.0672  -14.2137 C   0  0  0  0  0  0  0  0  0  0  0  0
   20.3436   -2.7853  -14.1592 O   0  0  0  0  0  0  0  0  0  0  0  0
   22.4592   -2.0043  -14.2439 O   0  0  0  0  0  0  0  0  0  0  0  0
  1  2  1  0
  3  4  1  6
  3  5  1  0
  3  2  1  0
  5  6  2  0
  7  5  1  0
  7  8  1  0
  8 15  1  0
  9 10  1  0
  8  9  1  1
 10 14  1  0
 11 12  1  0
 11 10  2  0
 12 13  1  0
 13 14  2  0
 15 19  1  0
 15 16  2  0
 18 17  1  6
 18 20  1  0
 19 18  1  0
 20 22  1  0
 21 20  2  0
M  END
$$$$
