SHA.pdb
     RDKit          3D

 22 22  0  0  1  0  0  0  0  0999 V2000
   16.1373  -10.8744  -17.3619 O   0  0  0  0  0  0  0  0  0  0  0  0
   17.1180  -10.6263  -16.3887 C   0  0  0  0  0  0  0  0  0  0  0  0
   18.3951  -11.2535  -16.8868 C   0  0  2  0  0  0  0  0  0  0  0  0
   18.3733  -12.6885  -16.8115 N   0  0  0  0  0  0  0  0  0  0  0  0
   19.5910  -10.7447  -16.1756 C   0  0  0  0  0  0  0  0  0  0  0  0
   19.9478  -11.2409  -15.0641 O   0  0  0  0  0  0  0  0  0  0  0  0
   20.3500   -9.6955  -16.7321 N   0  0  0  0  0  0  0  0  0  0  0  0
   21.4758   -9.1168  -16.0429 C   0  0  1  0  0  0  0  0  0  0  0  0
   22.6524   -9.1809  -17.0149 C   0  0  0  0  0  0  0  0  0  0  0  0
   23.1694  -10.5713  -16.9779 C   0  0  0  0  0  0  0  0  0  0  0  0
   23.0703  -11.4943  -18.0052 C   0  0  0  0  0  0  0  0  0  0  0  0
   23.6463  -12.6567  -17.6325 N   0  0  0  0  0  0  0  0  0  0  0  0
   24.1064  -12.4790  -16.3861 C   0  0  0  0  0  0  0  0  0  0  0  0
   23.8179  -11.2155  -15.9886 N   0  0  0  0  0  0  0  0  0  0  0  0
   21.1316   -7.7233  -15.6966 C   0  0  0  0  0  0  0  0  0  0  0  0
   20.4437   -7.0118  -16.4726 O   0  0  0  0  0  0  0  0  0  0  0  0
   21.6553   -5.5843  -12.6494 C   0  0  0  0  0  0  0  0  0  0  0  0
   21.1344   -5.7693  -14.0810 C   0  0  2  0  0  0  0  0  0  0  0  0
   21.5444   -7.0952  -14.4840 N   0  0  0  0  0  0  0  0  0  0  0  0
   21.7356   -4.7070  -14.8910 C   0  0  0  0  0  0  0  0  0  0  0  0
   22.7708   -4.9780  -15.5514 O   0  0  0  0  0  0  0  0  0  0  0  0
   21.2469   -3.4120  -14.9875 O   0  0  0  0  0  0  0  0  0  0  0  0
  1  2  1  0
  3  4  1  1
  3  5  1  0
  3  2  1  0
  5  6  2  0
  7  5  1  0
  7  8  1  0
  8 15  1  0
  9 10  1  0
  8  9  1  6
 10 14  1  0
 11 12  1  0
 11 10  2  0
 12 13  1  0
 13 14  2  0
 15 19  1  0
 15 16  2  0
 18 17  1  1
 18 20  1  0
 19 18  1  0
 20 22  1  0
 21 20  2  0
M  END
$$$$
