TYF.pdb
     RDKit          3D

 31 32  0  0  1  0  0  0  0  0999 V2000
   12.1747  -18.9205   17.2214 C   0  0  0  0  0  0  0  0  0  0  0  0
   11.9566  -17.7889   18.2309 C   0  0  1  0  0  0  0  0  0  0  0  0
   11.1861  -16.8373   17.5934 O   0  0  0  0  0  0  0  0  0  0  0  0
   11.1376  -18.3734   19.3593 C   0  0  2  0  0  0  0  0  0  0  0  0
    9.8746  -18.8608   18.8515 N   0  0  0  0  0  0  0  0  0  0  0  0
   10.8806  -17.3915   20.4336 C   0  0  0  0  0  0  0  0  0  0  0  0
   11.8585  -16.8556   21.0054 O   0  0  0  0  0  0  0  0  0  0  0  0
    7.6272  -12.8591   16.4526 O   0  0  0  0  0  0  0  0  0  0  0  0
    7.6978  -13.4856   17.6938 C   0  0  0  0  0  0  0  0  0  0  0  0
    8.0907  -12.7893   18.8153 C   0  0  0  0  0  0  0  0  0  0  0  0
    8.1616  -13.4129   20.0533 C   0  0  0  0  0  0  0  0  0  0  0  0
    7.8479  -14.7398   20.2240 C   0  0  0  0  0  0  0  0  0  0  0  0
    7.9094  -15.4436   21.5224 C   0  0  0  0  0  0  0  0  0  0  0  0
    9.3057  -15.9641   21.8145 C   0  0  2  0  0  0  0  0  0  0  0  0
    9.5785  -17.0163   20.8596 N   0  0  0  0  0  0  0  0  0  0  0  0
    9.4461  -16.3666   23.2157 C   0  0  0  0  0  0  0  0  0  0  0  0
    9.2225  -17.5524   23.6191 O   0  0  0  0  0  0  0  0  0  0  0  0
    7.4540  -15.4330   19.0924 C   0  0  0  0  0  0  0  0  0  0  0  0
    7.3807  -14.8215   17.8583 C   0  0  0  0  0  0  0  0  0  0  0  0
    9.8440  -15.4338   24.1845 N   0  0  0  0  0  0  0  0  0  0  0  0
    9.9372  -15.7622   25.6110 C   0  0  1  0  0  0  0  0  0  0  0  0
   10.4695  -14.5067   26.2727 C   0  0  0  0  0  0  0  0  0  0  0  0
   10.5092  -14.5667   27.7343 C   0  0  0  0  0  0  0  0  0  0  0  0
    9.7224  -13.7497   28.5134 C   0  0  0  0  0  0  0  0  0  0  0  0
    9.8097  -13.8623   29.8824 C   0  0  0  0  0  0  0  0  0  0  0  0
   10.6622  -14.7693   30.4734 C   0  0  0  0  0  0  0  0  0  0  0  0
   11.4559  -15.5939   29.7093 C   0  0  0  0  0  0  0  0  0  0  0  0
   11.3566  -15.4686   28.3400 C   0  0  0  0  0  0  0  0  0  0  0  0
    8.6206  -16.1504   26.0971 C   0  0  0  0  0  0  0  0  0  0  0  0
    8.5170  -17.0485   26.9675 O   0  0  0  0  0  0  0  0  0  0  0  0
    7.4575  -15.5625   25.6345 O   0  0  0  0  0  0  0  0  0  0  0  0
  2  1  1  6
  3  2  1  0
  4  2  1  0
  4  5  1  6
  6  4  1  0
  6  7  2  0
  8  9  1  0
  9 19  2  0
 10  9  1  0
 10 11  2  0
 11 12  1  0
 12 18  2  0
 12 13  1  0
 14 13  1  1
 14 15  1  0
 15  6  1  0
 16 14  1  0
 16 20  1  0
 17 16  2  0
 19 18  1  0
 21 20  1  0
 21 29  1  0
 22 23  1  0
 21 22  1  1
 23 24  2  0
 24 25  1  0
 26 25  2  0
 27 26  1  0
 28 27  2  0
 28 23  1  0
 29 30  2  0
 29 31  1  0
M  END
$$$$
