TYF.pdb
     RDKit          3D

 31 32  0  0  1  0  0  0  0  0999 V2000
    7.1926  -17.9252   18.8907 C   0  0  0  0  0  0  0  0  0  0  0  0
    5.6767  -18.1290   18.8040 C   0  0  1  0  0  0  0  0  0  0  0  0
    5.4184  -18.6206   17.5401 O   0  0  0  0  0  0  0  0  0  0  0  0
    5.3316  -19.2088   19.8044 C   0  0  2  0  0  0  0  0  0  0  0  0
    3.9276  -19.5403   19.7081 N   0  0  0  0  0  0  0  0  0  0  0  0
    5.6398  -18.8069   21.1929 C   0  0  0  0  0  0  0  0  0  0  0  0
    4.7345  -18.2816   21.8822 O   0  0  0  0  0  0  0  0  0  0  0  0
    9.2896  -18.1370   29.1857 O   0  0  0  0  0  0  0  0  0  0  0  0
    8.8162  -18.5074   27.9301 C   0  0  0  0  0  0  0  0  0  0  0  0
    7.4713  -18.4534   27.6380 C   0  0  0  0  0  0  0  0  0  0  0  0
    6.9982  -18.8224   26.3864 C   0  0  0  0  0  0  0  0  0  0  0  0
    7.8344  -19.2554   25.3857 C   0  0  0  0  0  0  0  0  0  0  0  0
    7.3742  -19.6580   24.0398 C   0  0  0  0  0  0  0  0  0  0  0  0
    7.2740  -18.4690   23.1007 C   0  0  2  0  0  0  0  0  0  0  0  0
    6.9132  -18.9827   21.7971 N   0  0  0  0  0  0  0  0  0  0  0  0
    8.4994  -17.6671   23.1176 C   0  0  0  0  0  0  0  0  0  0  0  0
    9.6292  -18.1399   23.4625 O   0  0  0  0  0  0  0  0  0  0  0  0
    9.1846  -19.3070   25.6867 C   0  0  0  0  0  0  0  0  0  0  0  0
    9.6636  -18.9422   26.9275 C   0  0  0  0  0  0  0  0  0  0  0  0
    8.4675  -16.3160   22.7425 N   0  0  0  0  0  0  0  0  0  0  0  0
    8.5727  -15.2207   23.7123 C   0  0  1  0  0  0  0  0  0  0  0  0
    7.1454  -14.9135   24.1196 C   0  0  0  0  0  0  0  0  0  0  0  0
    7.0260  -13.9640   25.2266 C   0  0  0  0  0  0  0  0  0  0  0  0
    6.1929  -14.2008   26.2960 C   0  0  0  0  0  0  0  0  0  0  0  0
    6.1326  -13.2648   27.3034 C   0  0  0  0  0  0  0  0  0  0  0  0
    6.8846  -12.1112   27.2550 C   0  0  0  0  0  0  0  0  0  0  0  0
    7.7227  -11.8587   26.1931 C   0  0  0  0  0  0  0  0  0  0  0  0
    7.7717  -12.8059   25.1927 C   0  0  0  0  0  0  0  0  0  0  0  0
    9.4054  -15.6502   24.8269 C   0  0  0  0  0  0  0  0  0  0  0  0
    9.1129  -16.6952   25.4576 O   0  0  0  0  0  0  0  0  0  0  0  0
   10.5254  -14.9458   25.2292 O   0  0  0  0  0  0  0  0  0  0  0  0
  2  1  1  6
  3  2  1  0
  4  2  1  0
  4  5  1  1
  6  4  1  0
  6  7  2  0
  8  9  1  0
  9 19  2  0
 10  9  1  0
 10 11  2  0
 11 12  1  0
 12 18  2  0
 12 13  1  0
 14 13  1  1
 14 15  1  0
 15  6  1  0
 16 14  1  0
 16 20  1  0
 17 16  2  0
 19 18  1  0
 21 20  1  0
 21 29  1  0
 22 23  1  0
 21 22  1  1
 23 24  2  0
 24 25  1  0
 26 25  2  0
 27 26  1  0
 28 27  2  0
 28 23  1  0
 29 30  2  0
 29 31  1  0
M  END
$$$$
