TYF.pdb
     RDKit          3D

 31 32  0  0  1  0  0  0  0  0999 V2000
    6.2566  -20.2333   21.5401 C   0  0  0  0  0  0  0  0  0  0  0  0
    7.1963  -19.1927   22.1576 C   0  0  1  0  0  0  0  0  0  0  0  0
    8.3450  -19.8672   22.5200 O   0  0  0  0  0  0  0  0  0  0  0  0
    7.5519  -18.2262   21.0508 C   0  0  2  0  0  0  0  0  0  0  0  0
    8.2318  -18.9261   19.9839 N   0  0  0  0  0  0  0  0  0  0  0  0
    8.4080  -17.1191   21.5258 C   0  0  0  0  0  0  0  0  0  0  0  0
    9.6468  -17.2005   21.3548 O   0  0  0  0  0  0  0  0  0  0  0  0
    7.9082  -13.4490   16.5249 O   0  0  0  0  0  0  0  0  0  0  0  0
    7.9665  -13.4839   17.9153 C   0  0  0  0  0  0  0  0  0  0  0  0
    6.8463  -13.7740   18.6623 C   0  0  0  0  0  0  0  0  0  0  0  0
    6.9032  -13.8090   20.0487 C   0  0  0  0  0  0  0  0  0  0  0  0
    8.0640  -13.5596   20.7406 C   0  0  0  0  0  0  0  0  0  0  0  0
    8.1698  -13.5859   22.2148 C   0  0  0  0  0  0  0  0  0  0  0  0
    8.7334  -14.9043   22.7147 C   0  0  2  0  0  0  0  0  0  0  0  0
    7.9044  -15.9579   22.1705 N   0  0  0  0  0  0  0  0  0  0  0  0
    8.8502  -14.9188   24.1746 C   0  0  0  0  0  0  0  0  0  0  0  0
    8.6693  -13.8837   24.8919 O   0  0  0  0  0  0  0  0  0  0  0  0
    9.1855  -13.2688   19.9831 C   0  0  0  0  0  0  0  0  0  0  0  0
    9.1382  -13.2318   18.6052 C   0  0  0  0  0  0  0  0  0  0  0  0
    9.1722  -16.1062   24.8480 N   0  0  0  0  0  0  0  0  0  0  0  0
    9.1821  -16.2109   26.3110 C   0  0  1  0  0  0  0  0  0  0  0  0
    7.7774  -15.8412   26.7443 C   0  0  0  0  0  0  0  0  0  0  0  0
    7.5192  -14.4014   26.7855 C   0  0  0  0  0  0  0  0  0  0  0  0
    6.3772  -13.8556   26.2455 C   0  0  0  0  0  0  0  0  0  0  0  0
    6.1987  -12.4930   26.3225 C   0  0  0  0  0  0  0  0  0  0  0  0
    7.1352  -11.6811   26.9246 C   0  0  0  0  0  0  0  0  0  0  0  0
    8.2826  -12.2103   27.4696 C   0  0  0  0  0  0  0  0  0  0  0  0
    8.4462  -13.5765   27.3842 C   0  0  0  0  0  0  0  0  0  0  0  0
    9.5589  -17.5658   26.6887 C   0  0  0  0  0  0  0  0  0  0  0  0
    9.5942  -18.4690   25.8180 O   0  0  0  0  0  0  0  0  0  0  0  0
    9.8863  -17.9084   27.9878 O   0  0  0  0  0  0  0  0  0  0  0  0
  2  1  1  6
  3  2  1  0
  4  2  1  0
  4  5  1  6
  6  4  1  0
  6  7  2  0
  8  9  1  0
  9 19  2  0
 10  9  1  0
 10 11  2  0
 11 12  1  0
 12 18  2  0
 12 13  1  0
 14 13  1  1
 14 15  1  0
 15  6  1  0
 16 14  1  0
 16 20  1  0
 17 16  2  0
 19 18  1  0
 21 20  1  0
 21 29  1  0
 22 23  1  0
 21 22  1  6
 23 24  2  0
 24 25  1  0
 26 25  2  0
 27 26  1  0
 28 27  2  0
 28 23  1  0
 29 30  2  0
 29 31  1  0
M  END
$$$$
