TYF.pdb
     RDKit          3D

 31 32  0  0  1  0  0  0  0  0999 V2000
    7.5592  -20.1705   21.6747 C   0  0  0  0  0  0  0  0  0  0  0  0
    6.0625  -19.9072   21.4807 C   0  0  1  0  0  0  0  0  0  0  0  0
    5.5882  -20.9175   20.6683 O   0  0  0  0  0  0  0  0  0  0  0  0
    5.4205  -20.0616   22.8407 C   0  0  2  0  0  0  0  0  0  0  0  0
    3.9838  -20.1451   22.7017 N   0  0  0  0  0  0  0  0  0  0  0  0
    5.7546  -18.9448   23.7493 C   0  0  0  0  0  0  0  0  0  0  0  0
    5.4405  -17.7796   23.4113 O   0  0  0  0  0  0  0  0  0  0  0  0
   10.9430  -14.9277   29.7711 O   0  0  0  0  0  0  0  0  0  0  0  0
   10.1591  -15.8479   29.0806 C   0  0  0  0  0  0  0  0  0  0  0  0
   10.7178  -16.9810   28.5321 C   0  0  0  0  0  0  0  0  0  0  0  0
    9.9373  -17.8992   27.8435 C   0  0  0  0  0  0  0  0  0  0  0  0
    8.5842  -17.7293   27.6744 C   0  0  0  0  0  0  0  0  0  0  0  0
    7.7157  -18.6805   26.9490 C   0  0  0  0  0  0  0  0  0  0  0  0
    7.1882  -18.0860   25.6551 C   0  0  2  0  0  0  0  0  0  0  0  0
    6.4167  -19.1164   24.9942 N   0  0  0  0  0  0  0  0  0  0  0  0
    8.2695  -17.5242   24.8426 C   0  0  0  0  0  0  0  0  0  0  0  0
    9.0718  -18.2449   24.1675 O   0  0  0  0  0  0  0  0  0  0  0  0
    8.0299  -16.5883   28.2284 C   0  0  0  0  0  0  0  0  0  0  0  0
    8.7978  -15.6706   28.9143 C   0  0  0  0  0  0  0  0  0  0  0  0
    8.4603  -16.1362   24.7789 N   0  0  0  0  0  0  0  0  0  0  0  0
    9.3658  -15.5033   23.8142 C   0  0  1  0  0  0  0  0  0  0  0  0
    8.8581  -14.0826   23.6671 C   0  0  0  0  0  0  0  0  0  0  0  0
    8.0978  -13.5927   24.8174 C   0  0  0  0  0  0  0  0  0  0  0  0
    6.7546  -13.8553   24.9617 C   0  0  0  0  0  0  0  0  0  0  0  0
    6.1034  -13.3648   26.0706 C   0  0  0  0  0  0  0  0  0  0  0  0
    6.7695  -12.6253   27.0236 C   0  0  0  0  0  0  0  0  0  0  0  0
    8.1124  -12.3535   26.8949 C   0  0  0  0  0  0  0  0  0  0  0  0
    8.7499  -12.8519   25.7788 C   0  0  0  0  0  0  0  0  0  0  0  0
   10.7283  -15.5736   24.3232 C   0  0  0  0  0  0  0  0  0  0  0  0
   10.9366  -15.9741   25.4943 O   0  0  0  0  0  0  0  0  0  0  0  0
   11.8235  -15.2127   23.5600 O   0  0  0  0  0  0  0  0  0  0  0  0
  2  1  1  1
  3  2  1  0
  4  2  1  0
  4  5  1  6
  6  4  1  0
  6  7  2  0
  8  9  1  0
  9 19  2  0
 10  9  1  0
 10 11  2  0
 11 12  1  0
 12 18  2  0
 12 13  1  0
 14 13  1  1
 14 15  1  0
 15  6  1  0
 16 14  1  0
 16 20  1  0
 17 16  2  0
 19 18  1  0
 21 20  1  0
 21 29  1  0
 22 23  1  0
 21 22  1  1
 23 24  2  0
 24 25  1  0
 26 25  2  0
 27 26  1  0
 28 27  2  0
 28 23  1  0
 29 30  2  0
 29 31  1  0
M  END
$$$$
