TYF.pdb
     RDKit          3D

 31 32  0  0  1  0  0  0  0  0999 V2000
    8.3688  -13.9490   21.1482 C   0  0  0  0  0  0  0  0  0  0  0  0
    8.5556  -15.2449   20.3528 C   0  0  1  0  0  0  0  0  0  0  0  0
    8.4389  -14.9073   19.0193 O   0  0  0  0  0  0  0  0  0  0  0  0
    9.9775  -15.6966   20.5973 C   0  0  2  0  0  0  0  0  0  0  0  0
   10.3338  -16.7359   19.6574 N   0  0  0  0  0  0  0  0  0  0  0  0
   10.1785  -16.1985   21.9729 C   0  0  0  0  0  0  0  0  0  0  0  0
   10.0168  -17.4208   22.1969 O   0  0  0  0  0  0  0  0  0  0  0  0
   11.5422  -16.0619   30.7685 O   0  0  0  0  0  0  0  0  0  0  0  0
   11.4488  -15.7157   29.4233 C   0  0  0  0  0  0  0  0  0  0  0  0
   10.6581  -14.6632   29.0180 C   0  0  0  0  0  0  0  0  0  0  0  0
   10.5641  -14.3171   27.6772 C   0  0  0  0  0  0  0  0  0  0  0  0
   11.2454  -14.9963   26.6959 C   0  0  0  0  0  0  0  0  0  0  0  0
   11.1745  -14.6625   25.2577 C   0  0  0  0  0  0  0  0  0  0  0  0
   10.6321  -15.8198   24.4377 C   0  0  2  0  0  0  0  0  0  0  0  0
   10.5473  -15.3690   23.0654 N   0  0  0  0  0  0  0  0  0  0  0  0
    9.3721  -16.3236   24.9885 C   0  0  0  0  0  0  0  0  0  0  0  0
    9.3068  -16.9729   26.0808 O   0  0  0  0  0  0  0  0  0  0  0  0
   12.0379  -16.0527   27.1109 C   0  0  0  0  0  0  0  0  0  0  0  0
   12.1372  -16.4037   28.4410 C   0  0  0  0  0  0  0  0  0  0  0  0
    8.1635  -16.0995   24.3131 N   0  0  0  0  0  0  0  0  0  0  0  0
    6.8606  -16.4739   24.8730 C   0  0  1  0  0  0  0  0  0  0  0  0
    5.9393  -15.3169   24.5406 C   0  0  0  0  0  0  0  0  0  0  0  0
    6.2549  -14.0740   25.2456 C   0  0  0  0  0  0  0  0  0  0  0  0
    6.9972  -13.0764   24.6561 C   0  0  0  0  0  0  0  0  0  0  0  0
    7.2537  -11.9328   25.3777 C   0  0  0  0  0  0  0  0  0  0  0  0
    6.7836  -11.7768   26.6635 C   0  0  0  0  0  0  0  0  0  0  0  0
    6.0398  -12.7643   27.2680 C   0  0  0  0  0  0  0  0  0  0  0  0
    5.7918  -13.9032   26.5320 C   0  0  0  0  0  0  0  0  0  0  0  0
    6.4324  -17.7336   24.2814 C   0  0  0  0  0  0  0  0  0  0  0  0
    7.0541  -18.2040   23.2978 O   0  0  0  0  0  0  0  0  0  0  0  0
    5.3517  -18.4489   24.7639 O   0  0  0  0  0  0  0  0  0  0  0  0
  2  1  1  1
  3  2  1  0
  4  2  1  0
  4  5  1  6
  6  4  1  0
  6  7  2  0
  8  9  1  0
  9 19  2  0
 10  9  1  0
 10 11  2  0
 11 12  1  0
 12 18  2  0
 12 13  1  0
 14 13  1  1
 14 15  1  0
 15  6  1  0
 16 14  1  0
 16 20  1  0
 17 16  2  0
 19 18  1  0
 21 20  1  0
 21 29  1  0
 22 23  1  0
 21 22  1  6
 23 24  2  0
 24 25  1  0
 26 25  2  0
 27 26  1  0
 28 27  2  0
 28 23  1  0
 29 30  2  0
 29 31  1  0
M  END
$$$$
