TYF.pdb
     RDKit          3D

 31 32  0  0  1  0  0  0  0  0999 V2000
    8.2520  -13.4346   21.2134 C   0  0  0  0  0  0  0  0  0  0  0  0
    7.6264  -14.2969   20.1124 C   0  0  1  0  0  0  0  0  0  0  0  0
    7.8270  -13.6230   18.9244 O   0  0  0  0  0  0  0  0  0  0  0  0
    8.4281  -15.5778   20.0638 C   0  0  2  0  0  0  0  0  0  0  0  0
    7.9271  -16.4339   19.0119 N   0  0  0  0  0  0  0  0  0  0  0  0
    8.3901  -16.3129   21.3453 C   0  0  0  0  0  0  0  0  0  0  0  0
    7.6792  -17.3417   21.4279 O   0  0  0  0  0  0  0  0  0  0  0  0
   14.8091  -18.2808   21.5879 O   0  0  0  0  0  0  0  0  0  0  0  0
   13.5060  -18.2130   22.0732 C   0  0  0  0  0  0  0  0  0  0  0  0
   12.4435  -18.0161   21.2193 C   0  0  0  0  0  0  0  0  0  0  0  0
   11.1439  -17.9483   21.7019 C   0  0  0  0  0  0  0  0  0  0  0  0
   10.8518  -18.0724   23.0389 C   0  0  0  0  0  0  0  0  0  0  0  0
    9.4842  -18.0065   23.5961 C   0  0  0  0  0  0  0  0  0  0  0  0
    9.0227  -16.5723   23.7860 C   0  0  2  0  0  0  0  0  0  0  0  0
    9.1185  -15.9181   22.4991 N   0  0  0  0  0  0  0  0  0  0  0  0
    9.7645  -15.9078   24.8599 C   0  0  0  0  0  0  0  0  0  0  0  0
   10.8836  -15.3324   24.6723 O   0  0  0  0  0  0  0  0  0  0  0  0
   11.9248  -18.2701   23.8909 C   0  0  0  0  0  0  0  0  0  0  0  0
   13.2193  -18.3387   23.4201 C   0  0  0  0  0  0  0  0  0  0  0  0
    9.2510  -15.8815   26.1648 N   0  0  0  0  0  0  0  0  0  0  0  0
    9.9269  -15.1931   27.2696 C   0  0  1  0  0  0  0  0  0  0  0  0
    8.8575  -14.3343   27.9148 C   0  0  0  0  0  0  0  0  0  0  0  0
    8.2795  -13.3244   27.0275 C   0  0  0  0  0  0  0  0  0  0  0  0
    8.6388  -13.2352   25.7021 C   0  0  0  0  0  0  0  0  0  0  0  0
    8.0526  -12.2619   24.9251 C   0  0  0  0  0  0  0  0  0  0  0  0
    7.1244  -11.3892   25.4501 C   0  0  0  0  0  0  0  0  0  0  0  0
    6.7537  -11.4645   26.7732 C   0  0  0  0  0  0  0  0  0  0  0  0
    7.3500  -12.4446   27.5376 C   0  0  0  0  0  0  0  0  0  0  0  0
   10.4878  -16.1848   28.1763 C   0  0  0  0  0  0  0  0  0  0  0  0
   10.1997  -17.3975   28.0298 O   0  0  0  0  0  0  0  0  0  0  0  0
   11.3401  -15.8444   29.2107 O   0  0  0  0  0  0  0  0  0  0  0  0
  2  1  1  1
  3  2  1  0
  4  2  1  0
  4  5  1  6
  6  4  1  0
  6  7  2  0
  8  9  1  0
  9 19  2  0
 10  9  1  0
 10 11  2  0
 11 12  1  0
 12 18  2  0
 12 13  1  0
 14 13  1  6
 14 15  1  0
 15  6  1  0
 16 14  1  0
 16 20  1  0
 17 16  2  0
 19 18  1  0
 21 20  1  0
 21 29  1  0
 22 23  1  0
 21 22  1  1
 23 24  2  0
 24 25  1  0
 26 25  2  0
 27 26  1  0
 28 27  2  0
 28 23  1  0
 29 30  2  0
 29 31  1  0
M  END
$$$$
