TYF.pdb
     RDKit          3D

 31 32  0  0  1  0  0  0  0  0999 V2000
    7.1863  -18.8199   26.7720 C   0  0  0  0  0  0  0  0  0  0  0  0
    7.5069  -20.1451   26.0734 C   0  0  1  0  0  0  0  0  0  0  0  0
    6.9457  -21.1419   26.8461 O   0  0  0  0  0  0  0  0  0  0  0  0
    6.7805  -20.1173   24.7478 C   0  0  2  0  0  0  0  0  0  0  0  0
    6.8337  -21.4226   24.1283 N   0  0  0  0  0  0  0  0  0  0  0  0
    7.3465  -19.1172   23.8183 C   0  0  0  0  0  0  0  0  0  0  0  0
    8.3418  -19.4347   23.1261 O   0  0  0  0  0  0  0  0  0  0  0  0
    8.5406  -11.7277   19.0786 O   0  0  0  0  0  0  0  0  0  0  0  0
    8.0297  -12.7060   19.9271 C   0  0  0  0  0  0  0  0  0  0  0  0
    7.6984  -13.9540   19.4479 C   0  0  0  0  0  0  0  0  0  0  0  0
    7.1890  -14.9301   20.2929 C   0  0  0  0  0  0  0  0  0  0  0  0
    6.9906  -14.7069   21.6342 C   0  0  0  0  0  0  0  0  0  0  0  0
    6.4510  -15.7164   22.5695 C   0  0  0  0  0  0  0  0  0  0  0  0
    7.5046  -16.7351   22.9668 C   0  0  2  0  0  0  0  0  0  0  0  0
    6.8238  -17.8057   23.6623 N   0  0  0  0  0  0  0  0  0  0  0  0
    8.5917  -16.1142   23.7269 C   0  0  0  0  0  0  0  0  0  0  0  0
    9.5125  -15.4278   23.1795 O   0  0  0  0  0  0  0  0  0  0  0  0
    7.3259  -13.4504   22.1085 C   0  0  0  0  0  0  0  0  0  0  0  0
    7.8326  -12.4744   21.2761 C   0  0  0  0  0  0  0  0  0  0  0  0
    8.6541  -16.2581   25.1207 N   0  0  0  0  0  0  0  0  0  0  0  0
    9.7017  -15.6351   25.9365 C   0  0  1  0  0  0  0  0  0  0  0  0
    8.9644  -14.9324   27.0591 C   0  0  0  0  0  0  0  0  0  0  0  0
    8.2143  -13.7485   26.6386 C   0  0  0  0  0  0  0  0  0  0  0  0
    8.8467  -12.5748   26.2977 C   0  0  0  0  0  0  0  0  0  0  0  0
    8.0777  -11.5015   25.9089 C   0  0  0  0  0  0  0  0  0  0  0  0
    6.7034  -11.5865   25.8575 C   0  0  0  0  0  0  0  0  0  0  0  0
    6.0549  -12.7524   26.1948 C   0  0  0  0  0  0  0  0  0  0  0  0
    6.8394  -13.8178   26.5820 C   0  0  0  0  0  0  0  0  0  0  0  0
   10.6136  -16.6671   26.4095 C   0  0  0  0  0  0  0  0  0  0  0  0
   11.5659  -16.3587   27.1665 O   0  0  0  0  0  0  0  0  0  0  0  0
   10.4746  -17.9967   26.0559 O   0  0  0  0  0  0  0  0  0  0  0  0
  2  1  1  1
  3  2  1  0
  4  2  1  0
  4  5  1  6
  6  4  1  0
  6  7  2  0
  8  9  1  0
  9 19  2  0
 10  9  1  0
 10 11  2  0
 11 12  1  0
 12 18  2  0
 12 13  1  0
 14 13  1  1
 14 15  1  0
 15  6  1  0
 16 14  1  0
 16 20  1  0
 17 16  2  0
 19 18  1  0
 21 20  1  0
 21 29  1  0
 22 23  1  0
 21 22  1  1
 23 24  2  0
 24 25  1  0
 26 25  2  0
 27 26  1  0
 28 27  2  0
 28 23  1  0
 29 30  2  0
 29 31  1  0
M  END
$$$$
