TYF.pdb
     RDKit          3D

 31 32  0  0  1  0  0  0  0  0999 V2000
    9.2162  -17.0601   16.2093 C   0  0  0  0  0  0  0  0  0  0  0  0
    8.8944  -17.0240   17.7067 C   0  0  1  0  0  0  0  0  0  0  0  0
    7.5777  -16.6239   17.8157 O   0  0  0  0  0  0  0  0  0  0  0  0
    8.9915  -18.4497   18.2003 C   0  0  2  0  0  0  0  0  0  0  0  0
    8.0601  -19.2868   17.4776 N   0  0  0  0  0  0  0  0  0  0  0  0
    8.7198  -18.5621   19.6488 C   0  0  0  0  0  0  0  0  0  0  0  0
    7.5591  -18.8513   20.0224 O   0  0  0  0  0  0  0  0  0  0  0  0
    9.7934  -19.9575   28.3008 O   0  0  0  0  0  0  0  0  0  0  0  0
    9.9304  -19.8424   26.9202 C   0  0  0  0  0  0  0  0  0  0  0  0
    9.0148  -20.4201   26.0687 C   0  0  0  0  0  0  0  0  0  0  0  0
    9.1504  -20.3061   24.6922 C   0  0  0  0  0  0  0  0  0  0  0  0
   10.1909  -19.6202   24.1130 C   0  0  0  0  0  0  0  0  0  0  0  0
   10.3742  -19.4738   22.6535 C   0  0  0  0  0  0  0  0  0  0  0  0
    9.4464  -18.4212   22.0729 C   0  0  2  0  0  0  0  0  0  0  0  0
    9.7060  -18.3597   20.6508 N   0  0  0  0  0  0  0  0  0  0  0  0
    9.5853  -17.1405   22.7697 C   0  0  0  0  0  0  0  0  0  0  0  0
   10.6326  -16.4221   22.6917 O   0  0  0  0  0  0  0  0  0  0  0  0
   11.1070  -19.0424   24.9751 C   0  0  0  0  0  0  0  0  0  0  0  0
   10.9801  -19.1506   26.3442 C   0  0  0  0  0  0  0  0  0  0  0  0
    8.5400  -16.6498   23.5657 N   0  0  0  0  0  0  0  0  0  0  0  0
    8.6175  -15.3686   24.2755 C   0  0  1  0  0  0  0  0  0  0  0  0
    7.1820  -14.8984   24.4023 C   0  0  0  0  0  0  0  0  0  0  0  0
    7.0166  -13.6730   25.1849 C   0  0  0  0  0  0  0  0  0  0  0  0
    7.4734  -12.4572   24.7302 C   0  0  0  0  0  0  0  0  0  0  0  0
    7.2810  -11.3452   25.5182 C   0  0  0  0  0  0  0  0  0  0  0  0
    6.6463  -11.4330   26.7381 C   0  0  0  0  0  0  0  0  0  0  0  0
    6.1834  -12.6408   27.2078 C   0  0  0  0  0  0  0  0  0  0  0  0
    6.3838  -13.7447   26.4067 C   0  0  0  0  0  0  0  0  0  0  0  0
    9.2670  -15.5757   25.5622 C   0  0  0  0  0  0  0  0  0  0  0  0
   10.2003  -14.8163   25.9191 O   0  0  0  0  0  0  0  0  0  0  0  0
    8.8944  -16.5901   26.4250 O   0  0  0  0  0  0  0  0  0  0  0  0
  2  1  1  6
  3  2  1  0
  4  2  1  0
  4  5  1  6
  6  4  1  0
  6  7  2  0
  8  9  1  0
  9 19  2  0
 10  9  1  0
 10 11  2  0
 11 12  1  0
 12 18  2  0
 12 13  1  0
 14 13  1  1
 14 15  1  0
 15  6  1  0
 16 14  1  0
 16 20  1  0
 17 16  2  0
 19 18  1  0
 21 20  1  0
 21 29  1  0
 22 23  1  0
 21 22  1  1
 23 24  2  0
 24 25  1  0
 26 25  2  0
 27 26  1  0
 28 27  2  0
 28 23  1  0
 29 30  2  0
 29 31  1  0
M  END
$$$$
