TYF.pdb
     RDKit          3D

 31 32  0  0  1  0  0  0  0  0999 V2000
    6.5963  -12.6248   19.4819 C   0  0  0  0  0  0  0  0  0  0  0  0
    7.5603  -13.4498   20.3404 C   0  0  1  0  0  0  0  0  0  0  0  0
    6.8387  -14.5258   20.8172 O   0  0  0  0  0  0  0  0  0  0  0  0
    8.6229  -13.9785   19.4038 C   0  0  2  0  0  0  0  0  0  0  0  0
    8.0080  -14.7381   18.3383 N   0  0  0  0  0  0  0  0  0  0  0  0
    9.6099  -14.8313   20.0988 C   0  0  0  0  0  0  0  0  0  0  0  0
    9.6318  -16.0577   19.8421 O   0  0  0  0  0  0  0  0  0  0  0  0
   16.1115  -16.1882   17.1845 O   0  0  0  0  0  0  0  0  0  0  0  0
   15.3212  -15.7285   18.2344 C   0  0  0  0  0  0  0  0  0  0  0  0
   14.3766  -14.7472   18.0305 C   0  0  0  0  0  0  0  0  0  0  0  0
   13.5881  -14.2881   19.0764 C   0  0  0  0  0  0  0  0  0  0  0  0
   13.7060  -14.7813   20.3536 C   0  0  0  0  0  0  0  0  0  0  0  0
   12.8882  -14.3220   21.4962 C   0  0  0  0  0  0  0  0  0  0  0  0
   11.6075  -15.1267   21.6307 C   0  0  2  0  0  0  0  0  0  0  0  0
   10.5434  -14.3377   21.0489 N   0  0  0  0  0  0  0  0  0  0  0  0
   11.3718  -15.5320   23.0182 C   0  0  0  0  0  0  0  0  0  0  0  0
   12.1626  -15.2323   23.9688 O   0  0  0  0  0  0  0  0  0  0  0  0
   14.6574  -15.7673   20.5508 C   0  0  0  0  0  0  0  0  0  0  0  0
   15.4452  -16.2294   19.5174 C   0  0  0  0  0  0  0  0  0  0  0  0
   10.2353  -16.2822   23.3540 N   0  0  0  0  0  0  0  0  0  0  0  0
    9.3165  -15.8925   24.4287 C   0  0  1  0  0  0  0  0  0  0  0  0
    8.8966  -14.4745   24.0963 C   0  0  0  0  0  0  0  0  0  0  0  0
    8.0352  -13.8502   25.1010 C   0  0  0  0  0  0  0  0  0  0  0  0
    6.6631  -13.9184   25.0206 C   0  0  0  0  0  0  0  0  0  0  0  0
    5.9150  -13.3099   26.0028 C   0  0  0  0  0  0  0  0  0  0  0  0
    6.5139  -12.6436   27.0497 C   0  0  0  0  0  0  0  0  0  0  0  0
    7.8845  -12.5659   27.1455 C   0  0  0  0  0  0  0  0  0  0  0  0
    8.6192  -13.1804   26.1540 C   0  0  0  0  0  0  0  0  0  0  0  0
    8.1998  -16.8264   24.4623 C   0  0  0  0  0  0  0  0  0  0  0  0
    7.7674  -17.3203   23.3926 O   0  0  0  0  0  0  0  0  0  0  0  0
    7.5829  -17.2011   25.6419 O   0  0  0  0  0  0  0  0  0  0  0  0
  2  1  1  6
  3  2  1  0
  4  2  1  0
  4  5  1  6
  6  4  1  0
  6  7  2  0
  8  9  1  0
  9 19  2  0
 10  9  1  0
 10 11  2  0
 11 12  1  0
 12 18  2  0
 12 13  1  0
 14 13  1  1
 14 15  1  0
 15  6  1  0
 16 14  1  0
 16 20  1  0
 17 16  2  0
 19 18  1  0
 21 20  1  0
 21 29  1  0
 22 23  1  0
 21 22  1  6
 23 24  2  0
 24 25  1  0
 26 25  2  0
 27 26  1  0
 28 27  2  0
 28 23  1  0
 29 30  2  0
 29 31  1  0
M  END
$$$$
