TYF.pdb
     RDKit          3D

 31 32  0  0  1  0  0  0  0  0999 V2000
   12.1178  -19.7554   21.2785 C   0  0  0  0  0  0  0  0  0  0  0  0
   11.6039  -18.5445   22.0637 C   0  0  1  0  0  0  0  0  0  0  0  0
   12.6894  -18.0267   22.7414 O   0  0  0  0  0  0  0  0  0  0  0  0
   11.1637  -17.5244   21.0383 C   0  0  2  0  0  0  0  0  0  0  0  0
   12.2760  -17.1707   20.1849 N   0  0  0  0  0  0  0  0  0  0  0  0
   10.6236  -16.2982   21.6622 C   0  0  0  0  0  0  0  0  0  0  0  0
   11.3709  -15.2978   21.7681 O   0  0  0  0  0  0  0  0  0  0  0  0
    8.1779  -13.3542   16.5889 O   0  0  0  0  0  0  0  0  0  0  0  0
    7.9931  -13.6890   17.9274 C   0  0  0  0  0  0  0  0  0  0  0  0
    7.6030  -14.9590   18.2906 C   0  0  0  0  0  0  0  0  0  0  0  0
    7.4184  -15.2940   19.6248 C   0  0  0  0  0  0  0  0  0  0  0  0
    7.6123  -14.3892   20.6407 C   0  0  0  0  0  0  0  0  0  0  0  0
    7.4273  -14.7025   22.0735 C   0  0  0  0  0  0  0  0  0  0  0  0
    8.7497  -14.9923   22.7612 C   0  0  2  0  0  0  0  0  0  0  0  0
    9.2954  -16.1865   22.1532 N   0  0  0  0  0  0  0  0  0  0  0  0
    8.5926  -15.0708   24.2152 C   0  0  0  0  0  0  0  0  0  0  0  0
    7.6714  -14.4586   24.8440 O   0  0  0  0  0  0  0  0  0  0  0  0
    8.0042  -13.1150   20.2680 C   0  0  0  0  0  0  0  0  0  0  0  0
    8.1900  -12.7733   18.9448 C   0  0  0  0  0  0  0  0  0  0  0  0
    9.4747  -15.8454   24.9826 N   0  0  0  0  0  0  0  0  0  0  0  0
    9.3349  -16.0032   26.4341 C   0  0  1  0  0  0  0  0  0  0  0  0
    7.8940  -15.6412   26.7350 C   0  0  0  0  0  0  0  0  0  0  0  0
    7.6572  -14.2079   26.9104 C   0  0  0  0  0  0  0  0  0  0  0  0
    8.6921  -13.3224   27.1069 C   0  0  0  0  0  0  0  0  0  0  0  0
    8.3957  -11.9873   27.2621 C   0  0  0  0  0  0  0  0  0  0  0  0
    7.0953  -11.5333   27.2238 C   0  0  0  0  0  0  0  0  0  0  0  0
    6.0486  -12.4050   27.0283 C   0  0  0  0  0  0  0  0  0  0  0  0
    6.3623  -13.7386   26.8745 C   0  0  0  0  0  0  0  0  0  0  0  0
    9.6681  -17.3731   26.7983 C   0  0  0  0  0  0  0  0  0  0  0  0
    9.9457  -18.2067   25.9021 O   0  0  0  0  0  0  0  0  0  0  0  0
    9.6936  -17.8048   28.1117 O   0  0  0  0  0  0  0  0  0  0  0  0
  2  1  1  6
  3  2  1  0
  4  2  1  0
  4  5  1  1
  6  4  1  0
  6  7  2  0
  8  9  1  0
  9 19  2  0
 10  9  1  0
 10 11  2  0
 11 12  1  0
 12 18  2  0
 12 13  1  0
 14 13  1  6
 14 15  1  0
 15  6  1  0
 16 14  1  0
 16 20  1  0
 17 16  2  0
 19 18  1  0
 21 20  1  0
 21 29  1  0
 22 23  1  0
 21 22  1  6
 23 24  2  0
 24 25  1  0
 26 25  2  0
 27 26  1  0
 28 27  2  0
 28 23  1  0
 29 30  2  0
 29 31  1  0
M  END
$$$$
