TYF.pdb
     RDKit          3D

 31 32  0  0  1  0  0  0  0  0999 V2000
    8.4237  -19.6485   23.0503 C   0  0  0  0  0  0  0  0  0  0  0  0
    9.0725  -19.7306   21.6649 C   0  0  1  0  0  0  0  0  0  0  0  0
    8.5626  -20.8614   21.0590 O   0  0  0  0  0  0  0  0  0  0  0  0
    8.5851  -18.5265   20.8914 C   0  0  2  0  0  0  0  0  0  0  0  0
    8.9004  -18.6801   19.4888 N   0  0  0  0  0  0  0  0  0  0  0  0
    9.1766  -17.2651   21.3850 C   0  0  0  0  0  0  0  0  0  0  0  0
   10.3757  -17.0180   21.1179 O   0  0  0  0  0  0  0  0  0  0  0  0
    7.5609  -13.0614   16.8195 O   0  0  0  0  0  0  0  0  0  0  0  0
    7.6979  -13.2785   18.1878 C   0  0  0  0  0  0  0  0  0  0  0  0
    8.7507  -12.7323   18.8879 C   0  0  0  0  0  0  0  0  0  0  0  0
    8.8883  -12.9480   20.2521 C   0  0  0  0  0  0  0  0  0  0  0  0
    7.9939  -13.7075   20.9673 C   0  0  0  0  0  0  0  0  0  0  0  0
    8.1017  -13.9632   22.4193 C   0  0  0  0  0  0  0  0  0  0  0  0
    9.0459  -15.1140   22.7192 C   0  0  2  0  0  0  0  0  0  0  0  0
    8.4589  -16.3082   22.1511 N   0  0  0  0  0  0  0  0  0  0  0  0
    9.3414  -15.2065   24.1507 C   0  0  0  0  0  0  0  0  0  0  0  0
   10.0336  -14.3372   24.7703 O   0  0  0  0  0  0  0  0  0  0  0  0
    6.9385  -14.2531   20.2569 C   0  0  0  0  0  0  0  0  0  0  0  0
    6.7939  -14.0440   18.9014 C   0  0  0  0  0  0  0  0  0  0  0  0
    8.8565  -16.2842   24.9061 N   0  0  0  0  0  0  0  0  0  0  0  0
    9.0673  -16.3971   26.3532 C   0  0  1  0  0  0  0  0  0  0  0  0
    7.7142  -16.1119   26.9741 C   0  0  0  0  0  0  0  0  0  0  0  0
    7.3250  -14.7015   26.9486 C   0  0  0  0  0  0  0  0  0  0  0  0
    6.1374  -14.2888   26.3892 C   0  0  0  0  0  0  0  0  0  0  0  0
    5.8348  -12.9462   26.4027 C   0  0  0  0  0  0  0  0  0  0  0  0
    6.6933  -12.0242   26.9609 C   0  0  0  0  0  0  0  0  0  0  0  0
    7.8848  -12.4197   27.5245 C   0  0  0  0  0  0  0  0  0  0  0  0
    8.1729  -13.7676   27.5030 C   0  0  0  0  0  0  0  0  0  0  0  0
    9.5670  -17.7302   26.6589 C   0  0  0  0  0  0  0  0  0  0  0  0
    9.8822  -18.0229   27.8379 O   0  0  0  0  0  0  0  0  0  0  0  0
    9.7120  -18.7067   25.6906 O   0  0  0  0  0  0  0  0  0  0  0  0
  2  1  1  1
  3  2  1  0
  4  2  1  0
  4  5  1  6
  6  4  1  0
  6  7  2  0
  8  9  1  0
  9 19  2  0
 10  9  1  0
 10 11  2  0
 11 12  1  0
 12 18  2  0
 12 13  1  0
 14 13  1  1
 14 15  1  0
 15  6  1  0
 16 14  1  0
 16 20  1  0
 17 16  2  0
 19 18  1  0
 21 20  1  0
 21 29  1  0
 22 23  1  0
 21 22  1  1
 23 24  2  0
 24 25  1  0
 26 25  2  0
 27 26  1  0
 28 27  2  0
 28 23  1  0
 29 30  2  0
 29 31  1  0
M  END
$$$$
