TYF.pdb
     RDKit          3D

 31 32  0  0  1  0  0  0  0  0999 V2000
    8.9167  -12.6228   20.8636 C   0  0  0  0  0  0  0  0  0  0  0  0
    7.6120  -13.1948   20.3002 C   0  0  1  0  0  0  0  0  0  0  0  0
    7.3311  -12.4774   19.1547 O   0  0  0  0  0  0  0  0  0  0  0  0
    7.9085  -14.6214   19.8967 C   0  0  2  0  0  0  0  0  0  0  0  0
    6.8042  -15.1581   19.1333 N   0  0  0  0  0  0  0  0  0  0  0  0
    8.1601  -15.4939   21.0628 C   0  0  0  0  0  0  0  0  0  0  0  0
    7.1808  -16.0085   21.6515 O   0  0  0  0  0  0  0  0  0  0  0  0
   12.1426  -21.4492   26.2025 O   0  0  0  0  0  0  0  0  0  0  0  0
   11.8668  -20.4695   25.2527 C   0  0  0  0  0  0  0  0  0  0  0  0
   12.6362  -19.3302   25.1689 C   0  0  0  0  0  0  0  0  0  0  0  0
   12.3622  -18.3528   24.2223 C   0  0  0  0  0  0  0  0  0  0  0  0
   11.3230  -18.4677   23.3305 C   0  0  0  0  0  0  0  0  0  0  0  0
   10.9954  -17.4524   22.3073 C   0  0  0  0  0  0  0  0  0  0  0  0
    9.7264  -16.6938   22.6538 C   0  0  2  0  0  0  0  0  0  0  0  0
    9.4584  -15.7860   21.5595 N   0  0  0  0  0  0  0  0  0  0  0  0
    9.8281  -16.0486   23.9647 C   0  0  0  0  0  0  0  0  0  0  0  0
   10.5834  -15.0488   24.1854 O   0  0  0  0  0  0  0  0  0  0  0  0
   10.5543  -19.6154   23.4208 C   0  0  0  0  0  0  0  0  0  0  0  0
   10.8194  -20.5917   24.3582 C   0  0  0  0  0  0  0  0  0  0  0  0
    9.0748  -16.5232   25.0484 N   0  0  0  0  0  0  0  0  0  0  0  0
    9.2655  -16.0390   26.4198 C   0  0  1  0  0  0  0  0  0  0  0  0
    7.8992  -15.5542   26.8624 C   0  0  0  0  0  0  0  0  0  0  0  0
    7.6060  -14.1670   26.5003 C   0  0  0  0  0  0  0  0  0  0  0  0
    8.3195  -13.1154   27.0282 C   0  0  0  0  0  0  0  0  0  0  0  0
    7.9905  -11.8362   26.6407 C   0  0  0  0  0  0  0  0  0  0  0  0
    6.9711  -11.5994   25.7444 C   0  0  0  0  0  0  0  0  0  0  0  0
    6.2477  -12.6393   25.2068 C   0  0  0  0  0  0  0  0  0  0  0  0
    6.5897  -13.9140   25.6051 C   0  0  0  0  0  0  0  0  0  0  0  0
    9.7801  -17.1258   27.2410 C   0  0  0  0  0  0  0  0  0  0  0  0
    9.6447  -18.3138   26.8596 O   0  0  0  0  0  0  0  0  0  0  0  0
   10.4238  -16.9036   28.4446 O   0  0  0  0  0  0  0  0  0  0  0  0
  2  1  1  6
  3  2  1  0
  4  2  1  0
  4  5  1  1
  6  4  1  0
  6  7  2  0
  8  9  1  0
  9 19  2  0
 10  9  1  0
 10 11  2  0
 11 12  1  0
 12 18  2  0
 12 13  1  0
 14 13  1  6
 14 15  1  0
 15  6  1  0
 16 14  1  0
 16 20  1  0
 17 16  2  0
 19 18  1  0
 21 20  1  0
 21 29  1  0
 22 23  1  0
 21 22  1  1
 23 24  2  0
 24 25  1  0
 26 25  2  0
 27 26  1  0
 28 27  2  0
 28 23  1  0
 29 30  2  0
 29 31  1  0
M  END
$$$$
