TYF.pdb
     RDKit          3D

 31 32  0  0  1  0  0  0  0  0999 V2000
    8.9046  -12.6458   20.7136 C   0  0  0  0  0  0  0  0  0  0  0  0
    7.6646  -13.0472   19.9083 C   0  0  1  0  0  0  0  0  0  0  0  0
    7.6107  -12.1981   18.8212 O   0  0  0  0  0  0  0  0  0  0  0  0
    7.9210  -14.4462   19.3958 C   0  0  2  0  0  0  0  0  0  0  0  0
    6.8280  -14.8699   18.5494 N   0  0  0  0  0  0  0  0  0  0  0  0
    8.0912  -15.4232   20.4916 C   0  0  0  0  0  0  0  0  0  0  0  0
    7.0710  -15.8493   21.0815 O   0  0  0  0  0  0  0  0  0  0  0  0
   11.8592  -21.4521   25.8307 O   0  0  0  0  0  0  0  0  0  0  0  0
   11.6042  -20.5082   24.8397 C   0  0  0  0  0  0  0  0  0  0  0  0
   10.6370  -20.7303   23.8846 C   0  0  0  0  0  0  0  0  0  0  0  0
   10.3818  -19.7900   22.8961 C   0  0  0  0  0  0  0  0  0  0  0  0
   11.0710  -18.6037   22.8183 C   0  0  0  0  0  0  0  0  0  0  0  0
   10.8325  -17.5752   21.7837 C   0  0  0  0  0  0  0  0  0  0  0  0
    9.5444  -16.8116   22.0360 C   0  0  2  0  0  0  0  0  0  0  0  0
    9.3547  -15.9118   20.9190 N   0  0  0  0  0  0  0  0  0  0  0  0
    9.5567  -16.1566   23.3459 C   0  0  0  0  0  0  0  0  0  0  0  0
   10.3816  -15.2369   23.6501 O   0  0  0  0  0  0  0  0  0  0  0  0
   12.0414  -18.3876   23.7815 C   0  0  0  0  0  0  0  0  0  0  0  0
   12.3016  -19.3163   24.7674 C   0  0  0  0  0  0  0  0  0  0  0  0
    8.6339  -16.5303   24.3338 N   0  0  0  0  0  0  0  0  0  0  0  0
    8.7072  -16.0399   25.7141 C   0  0  1  0  0  0  0  0  0  0  0  0
    7.3351  -15.4646   26.0037 C   0  0  0  0  0  0  0  0  0  0  0  0
    7.2862  -14.0022   26.0192 C   0  0  0  0  0  0  0  0  0  0  0  0
    6.1009  -13.3196   26.1703 C   0  0  0  0  0  0  0  0  0  0  0  0
    6.1300  -11.9435   26.1782 C   0  0  0  0  0  0  0  0  0  0  0  0
    7.3134  -11.2515   26.0389 C   0  0  0  0  0  0  0  0  0  0  0  0
    8.5076  -11.9183   25.8869 C   0  0  0  0  0  0  0  0  0  0  0  0
    8.4612  -13.2961   25.8811 C   0  0  0  0  0  0  0  0  0  0  0  0
    9.0610  -17.1450   26.5938 C   0  0  0  0  0  0  0  0  0  0  0  0
    8.7790  -18.3219   26.2611 O   0  0  0  0  0  0  0  0  0  0  0  0
    9.7062  -16.9528   27.8017 O   0  0  0  0  0  0  0  0  0  0  0  0
  2  1  1  1
  3  2  1  0
  4  2  1  0
  4  5  1  6
  6  4  1  0
  6  7  2  0
  8  9  1  0
  9 19  2  0
 10  9  1  0
 10 11  2  0
 11 12  1  0
 12 18  2  0
 12 13  1  0
 14 13  1  6
 14 15  1  0
 15  6  1  0
 16 14  1  0
 16 20  1  0
 17 16  2  0
 19 18  1  0
 21 20  1  0
 21 29  1  0
 22 23  1  0
 21 22  1  1
 23 24  2  0
 24 25  1  0
 26 25  2  0
 27 26  1  0
 28 27  2  0
 28 23  1  0
 29 30  2  0
 29 31  1  0
M  END
$$$$
