TYF.pdb
     RDKit          3D

 31 32  0  0  1  0  0  0  0  0999 V2000
    8.2767  -14.0462   18.8501 C   0  0  0  0  0  0  0  0  0  0  0  0
    8.3730  -14.4872   20.3141 C   0  0  1  0  0  0  0  0  0  0  0  0
    8.3385  -13.3353   21.0741 O   0  0  0  0  0  0  0  0  0  0  0  0
    7.1179  -15.2776   20.6069 C   0  0  2  0  0  0  0  0  0  0  0  0
    5.9505  -14.4798   20.3048 N   0  0  0  0  0  0  0  0  0  0  0  0
    7.0495  -15.7212   22.0151 C   0  0  0  0  0  0  0  0  0  0  0  0
    6.4354  -15.0071   22.8417 O   0  0  0  0  0  0  0  0  0  0  0  0
    7.5691  -20.8696   29.2180 O   0  0  0  0  0  0  0  0  0  0  0  0
    7.6590  -20.3683   27.9224 C   0  0  0  0  0  0  0  0  0  0  0  0
    8.8842  -20.1187   27.3449 C   0  0  0  0  0  0  0  0  0  0  0  0
    8.9751  -19.6189   26.0533 C   0  0  0  0  0  0  0  0  0  0  0  0
    7.8630  -19.3500   25.2920 C   0  0  0  0  0  0  0  0  0  0  0  0
    7.9133  -18.8176   23.9139 C   0  0  0  0  0  0  0  0  0  0  0  0
    7.6754  -17.3183   23.8812 C   0  0  2  0  0  0  0  0  0  0  0  0
    7.6445  -16.9203   22.4904 N   0  0  0  0  0  0  0  0  0  0  0  0
    8.6597  -16.6009   24.6945 C   0  0  0  0  0  0  0  0  0  0  0  0
    9.8379  -16.3464   24.2873 O   0  0  0  0  0  0  0  0  0  0  0  0
    6.6353  -19.6034   25.8791 C   0  0  0  0  0  0  0  0  0  0  0  0
    6.5356  -20.1000   27.1619 C   0  0  0  0  0  0  0  0  0  0  0  0
    8.3266  -16.1576   25.9828 N   0  0  0  0  0  0  0  0  0  0  0  0
    9.2285  -15.3360   26.7970 C   0  0  1  0  0  0  0  0  0  0  0  0
    8.3191  -14.4364   27.6103 C   0  0  0  0  0  0  0  0  0  0  0  0
    7.6212  -13.4176   26.8255 C   0  0  0  0  0  0  0  0  0  0  0  0
    6.2557  -13.2609   26.8944 C   0  0  0  0  0  0  0  0  0  0  0  0
    5.6662  -12.2800   26.1298 C   0  0  0  0  0  0  0  0  0  0  0  0
    6.4149  -11.4653   25.3086 C   0  0  0  0  0  0  0  0  0  0  0  0
    7.7812  -11.6083   25.2277 C   0  0  0  0  0  0  0  0  0  0  0  0
    8.3561  -12.5952   25.9997 C   0  0  0  0  0  0  0  0  0  0  0  0
   10.0543  -16.2084   27.6199 C   0  0  0  0  0  0  0  0  0  0  0  0
    9.8286  -17.4428   27.6415 O   0  0  0  0  0  0  0  0  0  0  0  0
   11.0961  -15.7292   28.3928 O   0  0  0  0  0  0  0  0  0  0  0  0
  2  1  1  6
  3  2  1  0
  4  2  1  0
  4  5  1  1
  6  4  1  0
  6  7  2  0
  8  9  1  0
  9 19  2  0
 10  9  1  0
 10 11  2  0
 11 12  1  0
 12 18  2  0
 12 13  1  0
 14 13  1  6
 14 15  1  0
 15  6  1  0
 16 14  1  0
 16 20  1  0
 17 16  2  0
 19 18  1  0
 21 20  1  0
 21 29  1  0
 22 23  1  0
 21 22  1  1
 23 24  2  0
 24 25  1  0
 26 25  2  0
 27 26  1  0
 28 27  2  0
 28 23  1  0
 29 30  2  0
 29 31  1  0
M  END
$$$$
