TYF.pdb
     RDKit          3D

 31 32  0  0  1  0  0  0  0  0999 V2000
    9.3479  -13.6455   20.7734 C   0  0  0  0  0  0  0  0  0  0  0  0
    7.9525  -13.5127   20.1551 C   0  0  1  0  0  0  0  0  0  0  0  0
    8.1367  -13.0578   18.8648 O   0  0  0  0  0  0  0  0  0  0  0  0
    7.3822  -14.9108   20.0803 C   0  0  2  0  0  0  0  0  0  0  0  0
    6.1145  -14.8902   19.3852 N   0  0  0  0  0  0  0  0  0  0  0  0
    7.1913  -15.5116   21.4171 C   0  0  0  0  0  0  0  0  0  0  0  0
    6.2126  -15.1436   22.1078 O   0  0  0  0  0  0  0  0  0  0  0  0
    7.7009  -21.5015   27.9545 O   0  0  0  0  0  0  0  0  0  0  0  0
    7.8165  -20.7932   26.7616 C   0  0  0  0  0  0  0  0  0  0  0  0
    6.7062  -20.5117   25.9968 C   0  0  0  0  0  0  0  0  0  0  0  0
    6.8201  -19.8057   24.8073 C   0  0  0  0  0  0  0  0  0  0  0  0
    8.0299  -19.3560   24.3355 C   0  0  0  0  0  0  0  0  0  0  0  0
    8.1972  -18.6014   23.0754 C   0  0  0  0  0  0  0  0  0  0  0  0
    7.8539  -17.1325   23.2496 C   0  0  2  0  0  0  0  0  0  0  0  0
    8.0599  -16.4903   21.9695 N   0  0  0  0  0  0  0  0  0  0  0  0
    8.6045  -16.5335   24.3554 C   0  0  0  0  0  0  0  0  0  0  0  0
    9.8307  -16.2075   24.2608 O   0  0  0  0  0  0  0  0  0  0  0  0
    9.1411  -19.6427   25.1095 C   0  0  0  0  0  0  0  0  0  0  0  0
    9.0372  -20.3436   26.2928 C   0  0  0  0  0  0  0  0  0  0  0  0
    7.9792  -16.2913   25.5872 N   0  0  0  0  0  0  0  0  0  0  0  0
    8.6911  -15.7343   26.7423 C   0  0  1  0  0  0  0  0  0  0  0  0
    7.6618  -14.8983   27.4767 C   0  0  0  0  0  0  0  0  0  0  0  0
    7.4577  -13.5631   26.9138 C   0  0  0  0  0  0  0  0  0  0  0  0
    8.5122  -12.7160   26.6605 C   0  0  0  0  0  0  0  0  0  0  0  0
    8.2464  -11.4749   26.1279 C   0  0  0  0  0  0  0  0  0  0  0  0
    6.9571  -11.0764   25.8494 C   0  0  0  0  0  0  0  0  0  0  0  0
    5.8912  -11.9109   26.0965 C   0  0  0  0  0  0  0  0  0  0  0  0
    6.1743  -13.1502   26.6299 C   0  0  0  0  0  0  0  0  0  0  0  0
    9.2203  -16.8263   27.5472 C   0  0  0  0  0  0  0  0  0  0  0  0
    8.7298  -17.9764   27.4376 O   0  0  0  0  0  0  0  0  0  0  0  0
   10.2587  -16.6501   28.4432 O   0  0  0  0  0  0  0  0  0  0  0  0
  2  1  1  6
  3  2  1  0
  4  2  1  0
  4  5  1  1
  6  4  1  0
  6  7  2  0
  8  9  1  0
  9 19  2  0
 10  9  1  0
 10 11  2  0
 11 12  1  0
 12 18  2  0
 12 13  1  0
 14 13  1  6
 14 15  1  0
 15  6  1  0
 16 14  1  0
 16 20  1  0
 17 16  2  0
 19 18  1  0
 21 20  1  0
 21 29  1  0
 22 23  1  0
 21 22  1  1
 23 24  2  0
 24 25  1  0
 26 25  2  0
 27 26  1  0
 28 27  2  0
 28 23  1  0
 29 30  2  0
 29 31  1  0
M  END
$$$$
