TYF.pdb
     RDKit          3D

 31 32  0  0  1  0  0  0  0  0999 V2000
    6.8059  -20.4421   20.7144 C   0  0  0  0  0  0  0  0  0  0  0  0
    7.5331  -19.3978   21.5674 C   0  0  1  0  0  0  0  0  0  0  0  0
    8.5642  -20.0595   22.2035 O   0  0  0  0  0  0  0  0  0  0  0  0
    8.1405  -18.4045   20.6030 C   0  0  2  0  0  0  0  0  0  0  0  0
    9.0328  -19.0845   19.6909 N   0  0  0  0  0  0  0  0  0  0  0  0
    8.8832  -17.3310   21.2962 C   0  0  0  0  0  0  0  0  0  0  0  0
   10.1359  -17.3627   21.2858 O   0  0  0  0  0  0  0  0  0  0  0  0
    7.6783  -13.1113   16.6420 O   0  0  0  0  0  0  0  0  0  0  0  0
    7.8092  -13.2980   18.0153 C   0  0  0  0  0  0  0  0  0  0  0  0
    8.9214  -12.8418   18.6875 C   0  0  0  0  0  0  0  0  0  0  0  0
    9.0530  -13.0274   20.0566 C   0  0  0  0  0  0  0  0  0  0  0  0
    8.0941  -13.6673   20.8046 C   0  0  0  0  0  0  0  0  0  0  0  0
    8.1931  -13.8867   22.2631 C   0  0  0  0  0  0  0  0  0  0  0  0
    8.9643  -15.1531   22.5903 C   0  0  2  0  0  0  0  0  0  0  0  0
    8.2545  -16.2561   21.9796 N   0  0  0  0  0  0  0  0  0  0  0  0
    9.1771  -15.2943   24.0325 C   0  0  0  0  0  0  0  0  0  0  0  0
    9.8619  -14.4661   24.7136 O   0  0  0  0  0  0  0  0  0  0  0  0
    6.9793  -14.1229   20.1221 C   0  0  0  0  0  0  0  0  0  0  0  0
    6.8401  -13.9429   18.7618 C   0  0  0  0  0  0  0  0  0  0  0  0
    8.6165  -16.3748   24.7291 N   0  0  0  0  0  0  0  0  0  0  0  0
    8.6757  -16.4935   26.1898 C   0  0  1  0  0  0  0  0  0  0  0  0
    7.3205  -16.0241   26.6806 C   0  0  0  0  0  0  0  0  0  0  0  0
    7.2021  -14.5728   26.8255 C   0  0  0  0  0  0  0  0  0  0  0  0
    8.1952  -13.8207   27.4101 C   0  0  0  0  0  0  0  0  0  0  0  0
    8.0174  -12.4596   27.5109 C   0  0  0  0  0  0  0  0  0  0  0  0
    6.8746  -11.8500   27.0407 C   0  0  0  0  0  0  0  0  0  0  0  0
    5.8718  -12.5869   26.4534 C   0  0  0  0  0  0  0  0  0  0  0  0
    6.0653  -13.9486   26.3601 C   0  0  0  0  0  0  0  0  0  0  0  0
    8.9643  -17.8761   26.5438 C   0  0  0  0  0  0  0  0  0  0  0  0
    8.8298  -18.7810   25.6845 O   0  0  0  0  0  0  0  0  0  0  0  0
    9.3885  -18.2439   27.8075 O   0  0  0  0  0  0  0  0  0  0  0  0
  2  1  1  6
  3  2  1  0
  4  2  1  0
  4  5  1  6
  6  4  1  0
  6  7  2  0
  8  9  1  0
  9 19  2  0
 10  9  1  0
 10 11  2  0
 11 12  1  0
 12 18  2  0
 12 13  1  0
 14 13  1  1
 14 15  1  0
 15  6  1  0
 16 14  1  0
 16 20  1  0
 17 16  2  0
 19 18  1  0
 21 20  1  0
 21 29  1  0
 22 23  1  0
 21 22  1  1
 23 24  2  0
 24 25  1  0
 26 25  2  0
 27 26  1  0
 28 27  2  0
 28 23  1  0
 29 30  2  0
 29 31  1  0
M  END
$$$$
