MPH.pdb
     RDKit          3D

 26 27  0  0  1  0  0  0  0  0999 V2000
    9.2128  -11.8140   19.1869 C   0  0  0  0  0  0  0  0  0  0  0  0
    7.9406  -12.5856   18.1561 S   0  0  0  0  0  0  0  0  0  0  0  0
    8.1925  -14.3810   18.1422 C   0  0  0  0  0  0  0  0  0  0  0  0
    8.3456  -14.8938   19.5593 C   0  0  0  0  0  0  0  0  0  0  0  0
    8.5651  -16.3888   19.5422 C   0  0  2  0  0  0  0  0  0  0  0  0
    7.4147  -17.0682   18.9473 N   0  0  0  0  0  0  0  0  0  0  0  0
    8.8011  -16.9562   20.8696 C   0  0  0  0  0  0  0  0  0  0  0  0
    7.7986  -17.2819   21.5547 O   0  0  0  0  0  0  0  0  0  0  0  0
   10.0799  -17.1667   21.4425 N   0  0  0  0  0  0  0  0  0  0  0  0
   11.3946  -16.9621   20.8855 C   0  0  0  0  0  0  0  0  0  0  0  0
   12.0927  -18.2706   21.2777 C   0  0  0  0  0  0  0  0  0  0  0  0
   11.6376  -18.3814   22.7295 C   0  0  0  0  0  0  0  0  0  0  0  0
   10.3053  -17.6689   22.7838 C   0  0  1  0  0  0  0  0  0  0  0  0
   10.2896  -16.5666   23.7846 C   0  0  0  0  0  0  0  0  0  0  0  0
   10.9033  -15.5103   23.4598 O   0  0  0  0  0  0  0  0  0  0  0  0
    9.6191  -16.7301   25.0094 N   0  0  0  0  0  0  0  0  0  0  0  0
    9.1495  -15.5383   25.7070 C   0  0  1  0  0  0  0  0  0  0  0  0
    7.6753  -15.3741   25.5788 C   0  0  0  0  0  0  0  0  0  0  0  0
    7.2276  -14.1346   26.2455 C   0  0  0  0  0  0  0  0  0  0  0  0
    7.9345  -13.3969   27.2061 C   0  0  0  0  0  0  0  0  0  0  0  0
    7.1751  -12.3438   27.5526 N   0  0  0  0  0  0  0  0  0  0  0  0
    6.0244  -12.3821   26.8571 C   0  0  0  0  0  0  0  0  0  0  0  0
    6.0642  -13.4648   26.0715 N   0  0  0  0  0  0  0  0  0  0  0  0
    9.5199  -15.6819   27.1304 C   0  0  0  0  0  0  0  0  0  0  0  0
    9.7140  -16.8185   27.6366 O   0  0  0  0  0  0  0  0  0  0  0  0
    9.6484  -14.5183   27.8978 O   0  0  0  0  0  0  0  0  0  0  0  0
  2  1  1  0
  3  2  1  0
  3  4  1  0
  4  5  1  0
  5  6  1  1
  5  7  1  0
  7  8  2  0
  9  7  1  0
  9 13  1  0
 10 11  1  0
 10  9  1  0
 11 12  1  0
 12 13  1  0
 13 14  1  1
 14 15  2  0
 16 17  1  0
 16 14  1  0
 17 24  1  0
 17 18  1  1
 19 18  1  0
 20 19  2  0
 21 20  1  0
 22 21  1  0
 22 23  2  0
 23 19  1  0
 24 26  1  0
 25 24  2  0
M  END
$$$$
