MPH.pdb
     RDKit          3D

 26 27  0  0  1  0  0  0  0  0999 V2000
    5.8063  -12.0142   27.0862 C   0  0  0  0  0  0  0  0  0  0  0  0
    7.4598  -12.7238   26.8895 S   0  0  0  0  0  0  0  0  0  0  0  0
    7.3081  -14.4696   26.4245 C   0  0  0  0  0  0  0  0  0  0  0  0
    6.3036  -14.6211   25.3007 C   0  0  0  0  0  0  0  0  0  0  0  0
    6.2600  -16.0607   24.8433 C   0  0  2  0  0  0  0  0  0  0  0  0
    6.2973  -16.9642   25.9927 N   0  0  0  0  0  0  0  0  0  0  0  0
    7.3546  -16.4164   23.9404 C   0  0  0  0  0  0  0  0  0  0  0  0
    7.9244  -17.5229   24.1172 O   0  0  0  0  0  0  0  0  0  0  0  0
    7.8216  -15.6038   22.8778 N   0  0  0  0  0  0  0  0  0  0  0  0
    7.4606  -14.2572   22.5075 C   0  0  0  0  0  0  0  0  0  0  0  0
    7.2596  -14.4068   20.9940 C   0  0  0  0  0  0  0  0  0  0  0  0
    8.4955  -15.2319   20.6494 C   0  0  0  0  0  0  0  0  0  0  0  0
    8.8104  -16.0181   21.9017 C   0  0  1  0  0  0  0  0  0  0  0  0
   10.1939  -15.7733   22.3948 C   0  0  0  0  0  0  0  0  0  0  0  0
   10.2950  -15.3348   23.5761 O   0  0  0  0  0  0  0  0  0  0  0  0
   11.2986  -16.0280   21.5635 N   0  0  0  0  0  0  0  0  0  0  0  0
   12.4208  -16.7804   22.1131 C   0  0  1  0  0  0  0  0  0  0  0  0
   12.0128  -18.1531   22.5201 C   0  0  0  0  0  0  0  0  0  0  0  0
   11.7036  -18.2000   23.9635 C   0  0  0  0  0  0  0  0  0  0  0  0
   11.7843  -17.1358   24.8733 C   0  0  0  0  0  0  0  0  0  0  0  0
   11.4182  -17.6010   26.0797 N   0  0  0  0  0  0  0  0  0  0  0  0
   11.1109  -18.9062   25.9742 C   0  0  0  0  0  0  0  0  0  0  0  0
   11.2856  -19.2594   24.6953 N   0  0  0  0  0  0  0  0  0  0  0  0
   13.4622  -16.8522   21.0671 C   0  0  0  0  0  0  0  0  0  0  0  0
   14.5947  -16.3311   21.2452 O   0  0  0  0  0  0  0  0  0  0  0  0
   13.1526  -17.5159   19.8741 O   0  0  0  0  0  0  0  0  0  0  0  0
  2  1  1  0
  3  2  1  0
  3  4  1  0
  4  5  1  0
  5  6  1  1
  5  7  1  0
  7  8  2  0
  9  7  1  0
  9 13  1  0
 10 11  1  0
 10  9  1  0
 11 12  1  0
 12 13  1  0
 13 14  1  1
 14 15  2  0
 16 17  1  0
 16 14  1  0
 17 24  1  0
 17 18  1  6
 19 18  1  0
 20 19  2  0
 21 20  1  0
 22 21  1  0
 22 23  2  0
 23 19  1  0
 24 26  1  0
 25 24  2  0
M  END
$$$$
