MPH.pdb
     RDKit          3D

 26 27  0  0  1  0  0  0  0  0999 V2000
    6.5850  -10.8882   27.5672 C   0  0  0  0  0  0  0  0  0  0  0  0
    5.8260  -12.1702   26.5392 S   0  0  0  0  0  0  0  0  0  0  0  0
    7.0627  -13.4408   26.1607 C   0  0  0  0  0  0  0  0  0  0  0  0
    6.4341  -14.5474   25.3392 C   0  0  0  0  0  0  0  0  0  0  0  0
    7.4820  -15.5732   24.9746 C   0  0  2  0  0  0  0  0  0  0  0  0
    8.8102  -15.1143   25.3799 N   0  0  0  0  0  0  0  0  0  0  0  0
    7.5171  -15.8847   23.5458 C   0  0  0  0  0  0  0  0  0  0  0  0
    7.2052  -17.0500   23.1919 O   0  0  0  0  0  0  0  0  0  0  0  0
    7.8775  -14.9676   22.5276 N   0  0  0  0  0  0  0  0  0  0  0  0
    8.2663  -13.5815   22.6183 C   0  0  0  0  0  0  0  0  0  0  0  0
    7.4096  -12.9572   21.5093 C   0  0  0  0  0  0  0  0  0  0  0  0
    7.6370  -13.9799   20.4004 C   0  0  0  0  0  0  0  0  0  0  0  0
    7.9128  -15.2843   21.1132 C   0  0  1  0  0  0  0  0  0  0  0  0
    9.2208  -15.8801   20.7242 C   0  0  0  0  0  0  0  0  0  0  0  0
   10.2525  -15.2672   21.1215 O   0  0  0  0  0  0  0  0  0  0  0  0
    9.2638  -17.0581   19.9582 N   0  0  0  0  0  0  0  0  0  0  0  0
   10.5677  -17.6052   19.6005 C   0  0  1  0  0  0  0  0  0  0  0  0
   11.3535  -17.9812   20.8079 C   0  0  0  0  0  0  0  0  0  0  0  0
   10.5832  -18.9036   21.6664 C   0  0  0  0  0  0  0  0  0  0  0  0
    9.2461  -19.2899   21.4941 C   0  0  0  0  0  0  0  0  0  0  0  0
    8.9341  -20.1371   22.4894 N   0  0  0  0  0  0  0  0  0  0  0  0
   10.0093  -20.3033   23.2803 C   0  0  0  0  0  0  0  0  0  0  0  0
   10.9991  -19.5562   22.7771 N   0  0  0  0  0  0  0  0  0  0  0  0
   10.3337  -18.7970   18.7587 C   0  0  0  0  0  0  0  0  0  0  0  0
    9.1658  -19.2114   18.5350 O   0  0  0  0  0  0  0  0  0  0  0  0
   11.4475  -19.4503   18.2182 O   0  0  0  0  0  0  0  0  0  0  0  0
  2  1  1  0
  3  2  1  0
  3  4  1  0
  4  5  1  0
  5  6  1  6
  5  7  1  0
  7  8  2  0
  9  7  1  0
  9 13  1  0
 10 11  1  0
 10  9  1  0
 11 12  1  0
 12 13  1  0
 13 14  1  6
 14 15  2  0
 16 17  1  0
 16 14  1  0
 17 24  1  0
 17 18  1  1
 19 18  1  0
 20 19  2  0
 21 20  1  0
 22 21  1  0
 22 23  2  0
 23 19  1  0
 24 26  1  0
 25 24  2  0
M  END
$$$$
