MPH.pdb
     RDKit          3D

 26 27  0  0  1  0  0  0  0  0999 V2000
    5.7613  -11.3816   28.4112 C   0  0  0  0  0  0  0  0  0  0  0  0
    6.9900  -12.4949   27.6850 S   0  0  0  0  0  0  0  0  0  0  0  0
    6.1646  -13.6207   26.5281 C   0  0  0  0  0  0  0  0  0  0  0  0
    7.1943  -14.3412   25.6825 C   0  0  0  0  0  0  0  0  0  0  0  0
    6.5110  -15.3627   24.8033 C   0  0  2  0  0  0  0  0  0  0  0  0
    5.8719  -16.3946   25.6192 N   0  0  0  0  0  0  0  0  0  0  0  0
    7.4179  -16.0159   23.8596 C   0  0  0  0  0  0  0  0  0  0  0  0
    7.6295  -17.2465   24.0057 O   0  0  0  0  0  0  0  0  0  0  0  0
    8.0777  -15.3625   22.7892 N   0  0  0  0  0  0  0  0  0  0  0  0
    8.0315  -13.9830   22.3705 C   0  0  0  0  0  0  0  0  0  0  0  0
    7.8381  -14.1362   20.8564 C   0  0  0  0  0  0  0  0  0  0  0  0
    8.8693  -15.2240   20.5728 C   0  0  0  0  0  0  0  0  0  0  0  0
    8.9733  -16.0171   21.8557 C   0  0  1  0  0  0  0  0  0  0  0  0
   10.3647  -16.0658   22.3837 C   0  0  0  0  0  0  0  0  0  0  0  0
   10.6968  -15.1302   23.1662 O   0  0  0  0  0  0  0  0  0  0  0  0
   11.2292  -17.1093   22.0095 N   0  0  0  0  0  0  0  0  0  0  0  0
   12.5306  -17.1990   22.6621 C   0  0  1  0  0  0  0  0  0  0  0  0
   12.6927  -18.4903   23.3851 C   0  0  0  0  0  0  0  0  0  0  0  0
   11.8829  -18.5030   24.6201 C   0  0  0  0  0  0  0  0  0  0  0  0
   11.4478  -17.3867   25.3490 C   0  0  0  0  0  0  0  0  0  0  0  0
   10.7413  -17.8353   26.4004 N   0  0  0  0  0  0  0  0  0  0  0  0
   10.7101  -19.1796   26.3694 C   0  0  0  0  0  0  0  0  0  0  0  0
   11.4007  -19.5741   25.2931 N   0  0  0  0  0  0  0  0  0  0  0  0
   13.5633  -17.0746   21.6125 C   0  0  0  0  0  0  0  0  0  0  0  0
   14.6385  -16.4573   21.8331 O   0  0  0  0  0  0  0  0  0  0  0  0
   13.3110  -17.6628   20.3675 O   0  0  0  0  0  0  0  0  0  0  0  0
  2  1  1  0
  3  2  1  0
  3  4  1  0
  4  5  1  0
  5  6  1  1
  5  7  1  0
  7  8  2  0
  9  7  1  0
  9 13  1  0
 10 11  1  0
 10  9  1  0
 11 12  1  0
 12 13  1  0
 13 14  1  1
 14 15  2  0
 16 17  1  0
 16 14  1  0
 17 24  1  0
 17 18  1  6
 19 18  1  0
 20 19  2  0
 21 20  1  0
 22 21  1  0
 22 23  2  0
 23 19  1  0
 24 26  1  0
 25 24  2  0
M  END
$$$$
