MPH.pdb
     RDKit          3D

 26 27  0  0  1  0  0  0  0  0999 V2000
    7.6833  -11.1898   26.4955 C   0  0  0  0  0  0  0  0  0  0  0  0
    6.3260  -12.1699   27.1837 S   0  0  0  0  0  0  0  0  0  0  0  0
    6.6042  -13.9213   26.8064 C   0  0  0  0  0  0  0  0  0  0  0  0
    6.3707  -14.1771   25.3317 C   0  0  0  0  0  0  0  0  0  0  0  0
    6.2270  -15.6611   25.0858 C   0  0  2  0  0  0  0  0  0  0  0  0
    6.2096  -16.3906   26.3533 N   0  0  0  0  0  0  0  0  0  0  0  0
    7.2897  -16.2163   24.2479 C   0  0  0  0  0  0  0  0  0  0  0  0
    7.7504  -17.3447   24.5560 O   0  0  0  0  0  0  0  0  0  0  0  0
    7.8402  -15.5747   23.1107 N   0  0  0  0  0  0  0  0  0  0  0  0
    7.6071  -14.2522   22.5841 C   0  0  0  0  0  0  0  0  0  0  0  0
    7.4097  -14.5544   21.0931 C   0  0  0  0  0  0  0  0  0  0  0  0
    8.5691  -15.5202   20.8693 C   0  0  0  0  0  0  0  0  0  0  0  0
    8.7977  -16.1839   22.2083 C   0  0  1  0  0  0  0  0  0  0  0  0
   10.1923  -16.0090   22.6998 C   0  0  0  0  0  0  0  0  0  0  0  0
   10.4386  -14.9261   23.3037 O   0  0  0  0  0  0  0  0  0  0  0  0
   11.1514  -17.0140   22.4846 N   0  0  0  0  0  0  0  0  0  0  0  0
   12.4564  -16.8744   23.1209 C   0  0  1  0  0  0  0  0  0  0  0  0
   12.9429  -18.1728   23.6632 C   0  0  0  0  0  0  0  0  0  0  0  0
   12.0362  -18.6717   24.7170 C   0  0  0  0  0  0  0  0  0  0  0  0
   11.5475  -17.9479   25.8143 C   0  0  0  0  0  0  0  0  0  0  0  0
   10.7573  -18.7692   26.5261 N   0  0  0  0  0  0  0  0  0  0  0  0
   10.7243  -19.9749   25.9308 C   0  0  0  0  0  0  0  0  0  0  0  0
   11.4979  -19.9075   24.8409 N   0  0  0  0  0  0  0  0  0  0  0  0
   13.3970  -16.3694   22.0992 C   0  0  0  0  0  0  0  0  0  0  0  0
   13.0394  -16.2397   20.8988 O   0  0  0  0  0  0  0  0  0  0  0  0
   14.6956  -16.0400   22.5052 O   0  0  0  0  0  0  0  0  0  0  0  0
  2  1  1  0
  3  2  1  0
  3  4  1  0
  4  5  1  0
  5  6  1  1
  5  7  1  0
  7  8  2  0
  9  7  1  0
  9 13  1  0
 10 11  1  0
 10  9  1  0
 11 12  1  0
 12 13  1  0
 13 14  1  1
 14 15  2  0
 16 17  1  0
 16 14  1  0
 17 24  1  0
 17 18  1  6
 19 18  1  0
 20 19  2  0
 21 20  1  0
 22 21  1  0
 22 23  2  0
 23 19  1  0
 24 26  1  0
 25 24  2  0
M  END
$$$$
