MPH.pdb
     RDKit          3D

 26 27  0  0  1  0  0  0  0  0999 V2000
    7.0762  -11.2879   26.5932 C   0  0  0  0  0  0  0  0  0  0  0  0
    6.9329  -12.7354   27.6706 S   0  0  0  0  0  0  0  0  0  0  0  0
    6.1987  -14.1043   26.7357 C   0  0  0  0  0  0  0  0  0  0  0  0
    7.2349  -14.7195   25.8179 C   0  0  0  0  0  0  0  0  0  0  0  0
    6.5976  -15.8032   24.9794 C   0  0  2  0  0  0  0  0  0  0  0  0
    6.2257  -16.9445   25.8148 N   0  0  0  0  0  0  0  0  0  0  0  0
    7.4588  -16.2829   23.8987 C   0  0  0  0  0  0  0  0  0  0  0  0
    7.8390  -17.4805   23.9396 O   0  0  0  0  0  0  0  0  0  0  0  0
    7.8977  -15.4956   22.8054 N   0  0  0  0  0  0  0  0  0  0  0  0
    7.5650  -14.1399   22.4417 C   0  0  0  0  0  0  0  0  0  0  0  0
    7.2798  -14.2938   20.9422 C   0  0  0  0  0  0  0  0  0  0  0  0
    8.4663  -15.1648   20.5414 C   0  0  0  0  0  0  0  0  0  0  0  0
    8.8188  -15.9521   21.7830 C   0  0  1  0  0  0  0  0  0  0  0  0
   10.2339  -15.7528   22.2010 C   0  0  0  0  0  0  0  0  0  0  0  0
   10.4150  -15.0596   23.2424 O   0  0  0  0  0  0  0  0  0  0  0  0
   11.2808  -16.3196   21.4533 N   0  0  0  0  0  0  0  0  0  0  0  0
   12.2308  -17.1885   22.1388 C   0  0  1  0  0  0  0  0  0  0  0  0
   11.5566  -18.3748   22.7344 C   0  0  0  0  0  0  0  0  0  0  0  0
   11.4594  -18.2387   24.2018 C   0  0  0  0  0  0  0  0  0  0  0  0
   11.8627  -17.1371   24.9703 C   0  0  0  0  0  0  0  0  0  0  0  0
   11.6002  -17.4190   26.2577 N   0  0  0  0  0  0  0  0  0  0  0  0
   11.0511  -18.6443   26.3377 C   0  0  0  0  0  0  0  0  0  0  0  0
   10.9698  -19.1315   25.0939 N   0  0  0  0  0  0  0  0  0  0  0  0
   13.2330  -17.6236   21.1438 C   0  0  0  0  0  0  0  0  0  0  0  0
   14.4648  -17.5653   21.3986 O   0  0  0  0  0  0  0  0  0  0  0  0
   12.7725  -18.1019   19.9114 O   0  0  0  0  0  0  0  0  0  0  0  0
  2  1  1  0
  3  2  1  0
  3  4  1  0
  4  5  1  0
  5  6  1  1
  5  7  1  0
  7  8  2  0
  9  7  1  0
  9 13  1  0
 10 11  1  0
 10  9  1  0
 11 12  1  0
 12 13  1  0
 13 14  1  1
 14 15  2  0
 16 17  1  0
 16 14  1  0
 17 24  1  0
 17 18  1  6
 19 18  1  0
 20 19  2  0
 21 20  1  0
 22 21  1  0
 22 23  2  0
 23 19  1  0
 24 26  1  0
 25 24  2  0
M  END
$$$$
