MPH.pdb
     RDKit          3D

 26 27  0  0  1  0  0  0  0  0999 V2000
    5.4042  -19.2904   16.7531 C   0  0  0  0  0  0  0  0  0  0  0  0
    6.9698  -19.0334   17.6245 S   0  0  0  0  0  0  0  0  0  0  0  0
    7.9030  -17.7170   16.7980 C   0  0  0  0  0  0  0  0  0  0  0  0
    7.0407  -16.4793   16.6590 C   0  0  0  0  0  0  0  0  0  0  0  0
    7.8502  -15.3565   16.0529 C   0  0  2  0  0  0  0  0  0  0  0  0
    8.4192  -15.7701   14.7707 N   0  0  0  0  0  0  0  0  0  0  0  0
    8.9389  -14.8952   16.9141 C   0  0  0  0  0  0  0  0  0  0  0  0
   10.1180  -15.1025   16.5306 O   0  0  0  0  0  0  0  0  0  0  0  0
    8.7626  -14.2296   18.1525 N   0  0  0  0  0  0  0  0  0  0  0  0
    7.5535  -13.8561   18.8448 C   0  0  0  0  0  0  0  0  0  0  0  0
    7.8678  -12.4062   19.2351 C   0  0  0  0  0  0  0  0  0  0  0  0
    9.2924  -12.5806   19.7521 C   0  0  0  0  0  0  0  0  0  0  0  0
    9.8467  -13.7674   18.9970 C   0  0  1  0  0  0  0  0  0  0  0  0
   10.3244  -14.8469   19.9045 C   0  0  0  0  0  0  0  0  0  0  0  0
    9.6083  -15.8872   19.9581 O   0  0  0  0  0  0  0  0  0  0  0  0
   11.5092  -14.6805   20.6426 N   0  0  0  0  0  0  0  0  0  0  0  0
   12.3577  -15.8461   20.8636 C   0  0  1  0  0  0  0  0  0  0  0  0
   12.8532  -16.4140   19.5796 C   0  0  0  0  0  0  0  0  0  0  0  0
   12.0429  -17.5813   19.1772 C   0  0  0  0  0  0  0  0  0  0  0  0
   10.9221  -18.0947   19.8458 C   0  0  0  0  0  0  0  0  0  0  0  0
   10.4823  -19.1568   19.1500 N   0  0  0  0  0  0  0  0  0  0  0  0
   11.2712  -19.3376   18.0758 C   0  0  0  0  0  0  0  0  0  0  0  0
   12.2095  -18.3836   18.0997 N   0  0  0  0  0  0  0  0  0  0  0  0
   13.4980  -15.4136   21.6982 C   0  0  0  0  0  0  0  0  0  0  0  0
   14.0655  -16.2172   22.4843 O   0  0  0  0  0  0  0  0  0  0  0  0
   13.9278  -14.0859   21.5887 O   0  0  0  0  0  0  0  0  0  0  0  0
  2  1  1  0
  3  2  1  0
  3  4  1  0
  4  5  1  0
  5  6  1  6
  5  7  1  0
  7  8  2  0
  9  7  1  0
  9 13  1  0
 10 11  1  0
 10  9  1  0
 11 12  1  0
 12 13  1  0
 13 14  1  1
 14 15  2  0
 16 17  1  0
 16 14  1  0
 17 24  1  0
 17 18  1  6
 19 18  1  0
 20 19  2  0
 21 20  1  0
 22 21  1  0
 22 23  2  0
 23 19  1  0
 24 26  1  0
 25 24  2  0
M  END
$$$$
