MPH.pdb
     RDKit          3D

 26 27  0  0  1  0  0  0  0  0999 V2000
    6.9378  -11.6363   26.0160 C   0  0  0  0  0  0  0  0  0  0  0  0
    6.7027  -12.9403   27.2493 S   0  0  0  0  0  0  0  0  0  0  0  0
    6.9317  -14.5562   26.4595 C   0  0  0  0  0  0  0  0  0  0  0  0
    6.1526  -14.6136   25.1617 C   0  0  0  0  0  0  0  0  0  0  0  0
    6.2408  -16.0023   24.5724 C   0  0  2  0  0  0  0  0  0  0  0  0
    5.9094  -17.0082   25.5810 N   0  0  0  0  0  0  0  0  0  0  0  0
    7.5592  -16.3168   24.0222 C   0  0  0  0  0  0  0  0  0  0  0  0
    8.1474  -17.3392   24.4570 O   0  0  0  0  0  0  0  0  0  0  0  0
    8.2246  -15.5522   23.0320 N   0  0  0  0  0  0  0  0  0  0  0  0
    7.8709  -14.2850   22.4406 C   0  0  0  0  0  0  0  0  0  0  0  0
    8.0856  -14.5798   20.9505 C   0  0  0  0  0  0  0  0  0  0  0  0
    9.4282  -15.3006   21.0204 C   0  0  0  0  0  0  0  0  0  0  0  0
    9.4634  -15.9437   22.3883 C   0  0  1  0  0  0  0  0  0  0  0  0
   10.6463  -15.5191   23.1867 C   0  0  0  0  0  0  0  0  0  0  0  0
   10.9519  -14.2942   23.1219 O   0  0  0  0  0  0  0  0  0  0  0  0
   11.3564  -16.4572   23.9561 N   0  0  0  0  0  0  0  0  0  0  0  0
   11.6022  -16.1568   25.3621 C   0  0  1  0  0  0  0  0  0  0  0  0
   10.5486  -15.2677   25.9244 C   0  0  0  0  0  0  0  0  0  0  0  0
   10.7419  -15.0820   27.3767 C   0  0  0  0  0  0  0  0  0  0  0  0
   10.2090  -14.0547   28.1689 C   0  0  0  0  0  0  0  0  0  0  0  0
   10.6253  -14.2541   29.4309 N   0  0  0  0  0  0  0  0  0  0  0  0
   11.3944  -15.3568   29.4723 C   0  0  0  0  0  0  0  0  0  0  0  0
   11.4596  -15.8497   28.2299 N   0  0  0  0  0  0  0  0  0  0  0  0
   11.6230  -17.4406   26.0936 C   0  0  0  0  0  0  0  0  0  0  0  0
   12.1903  -17.5375   27.2137 O   0  0  0  0  0  0  0  0  0  0  0  0
   10.9942  -18.5441   25.5051 O   0  0  0  0  0  0  0  0  0  0  0  0
  2  1  1  0
  3  2  1  0
  3  4  1  0
  4  5  1  0
  5  6  1  1
  5  7  1  0
  7  8  2  0
  9  7  1  0
  9 13  1  0
 10 11  1  0
 10  9  1  0
 11 12  1  0
 12 13  1  0
 13 14  1  1
 14 15  2  0
 16 17  1  0
 16 14  1  0
 17 24  1  0
 17 18  1  1
 19 18  1  0
 20 19  2  0
 21 20  1  0
 22 21  1  0
 22 23  2  0
 23 19  1  0
 24 26  1  0
 25 24  2  0
M  END
$$$$
