MPH.pdb
     RDKit          3D

 26 27  0  0  1  0  0  0  0  0999 V2000
    8.7011  -11.2804   20.1173 C   0  0  0  0  0  0  0  0  0  0  0  0
    7.9099  -12.5935   19.1549 S   0  0  0  0  0  0  0  0  0  0  0  0
    7.4575  -13.9551   20.2633 C   0  0  0  0  0  0  0  0  0  0  0  0
    8.7061  -14.5963   20.8330 C   0  0  0  0  0  0  0  0  0  0  0  0
    8.3238  -15.7178   21.7707 C   0  0  2  0  0  0  0  0  0  0  0  0
    6.9232  -16.0918   21.5770 N   0  0  0  0  0  0  0  0  0  0  0  0
    8.5230  -15.3880   23.1818 C   0  0  0  0  0  0  0  0  0  0  0  0
    9.6055  -15.7357   23.7181 O   0  0  0  0  0  0  0  0  0  0  0  0
    7.5833  -14.7034   23.9918 N   0  0  0  0  0  0  0  0  0  0  0  0
    6.2698  -14.2006   23.6716 C   0  0  0  0  0  0  0  0  0  0  0  0
    6.3337  -12.7913   24.2743 C   0  0  0  0  0  0  0  0  0  0  0  0
    6.9694  -13.1153   25.6226 C   0  0  0  0  0  0  0  0  0  0  0  0
    7.7981  -14.3569   25.3832 C   0  0  1  0  0  0  0  0  0  0  0  0
    7.4172  -15.4784   26.2856 C   0  0  0  0  0  0  0  0  0  0  0  0
    6.1780  -15.6590   26.4575 O   0  0  0  0  0  0  0  0  0  0  0  0
    8.4090  -16.2683   26.8928 N   0  0  0  0  0  0  0  0  0  0  0  0
    8.1152  -17.6738   27.1492 C   0  0  1  0  0  0  0  0  0  0  0  0
    7.7092  -18.3840   25.9052 C   0  0  0  0  0  0  0  0  0  0  0  0
    7.4794  -19.8181   26.1735 C   0  0  0  0  0  0  0  0  0  0  0  0
    7.6259  -20.4750   27.4039 C   0  0  0  0  0  0  0  0  0  0  0  0
    7.3200  -21.7697   27.2148 N   0  0  0  0  0  0  0  0  0  0  0  0
    6.9880  -21.9605   25.9254 C   0  0  0  0  0  0  0  0  0  0  0  0
    7.0866  -20.7790   25.3047 N   0  0  0  0  0  0  0  0  0  0  0  0
    9.3380  -18.2889   27.7059 C   0  0  0  0  0  0  0  0  0  0  0  0
    9.2666  -19.2292   28.5405 O   0  0  0  0  0  0  0  0  0  0  0  0
   10.5764  -17.7959   27.2782 O   0  0  0  0  0  0  0  0  0  0  0  0
  2  1  1  0
  3  2  1  0
  3  4  1  0
  4  5  1  0
  5  6  1  1
  5  7  1  0
  7  8  2  0
  9  7  1  0
  9 13  1  0
 10 11  1  0
 10  9  1  0
 11 12  1  0
 12 13  1  0
 13 14  1  1
 14 15  2  0
 16 17  1  0
 16 14  1  0
 17 24  1  0
 17 18  1  6
 19 18  1  0
 20 19  2  0
 21 20  1  0
 22 21  1  0
 22 23  2  0
 23 19  1  0
 24 26  1  0
 25 24  2  0
M  END
$$$$
