MPH.pdb
     RDKit          3D

 26 27  0  0  1  0  0  0  0  0999 V2000
    7.2278  -11.5849   20.3961 C   0  0  0  0  0  0  0  0  0  0  0  0
    7.7768  -13.0568   21.2952 S   0  0  0  0  0  0  0  0  0  0  0  0
    6.7744  -14.4776   20.7816 C   0  0  0  0  0  0  0  0  0  0  0  0
    7.1176  -15.6867   21.6272 C   0  0  0  0  0  0  0  0  0  0  0  0
    8.1909  -16.5017   20.9437 C   0  0  2  0  0  0  0  0  0  0  0  0
    7.6031  -17.3686   19.9230 N   0  0  0  0  0  0  0  0  0  0  0  0
    8.9643  -17.3329   21.8660 C   0  0  0  0  0  0  0  0  0  0  0  0
    8.5136  -18.4723   22.1472 O   0  0  0  0  0  0  0  0  0  0  0  0
   10.1880  -16.9481   22.4679 N   0  0  0  0  0  0  0  0  0  0  0  0
   10.9363  -15.7202   22.3530 C   0  0  0  0  0  0  0  0  0  0  0  0
   12.3557  -16.2551   22.1236 C   0  0  0  0  0  0  0  0  0  0  0  0
   12.3969  -17.3448   23.1903 C   0  0  0  0  0  0  0  0  0  0  0  0
   10.9613  -17.7864   23.3631 C   0  0  1  0  0  0  0  0  0  0  0  0
   10.4907  -17.6551   24.7696 C   0  0  0  0  0  0  0  0  0  0  0  0
   10.2596  -16.4795   25.1725 O   0  0  0  0  0  0  0  0  0  0  0  0
   10.3252  -18.7978   25.5716 N   0  0  0  0  0  0  0  0  0  0  0  0
    9.8766  -18.6195   26.9481 C   0  0  1  0  0  0  0  0  0  0  0  0
    8.6913  -19.4676   27.2519 C   0  0  0  0  0  0  0  0  0  0  0  0
    7.5810  -19.1649   26.3262 C   0  0  0  0  0  0  0  0  0  0  0  0
    7.1370  -17.8928   25.9370 C   0  0  0  0  0  0  0  0  0  0  0  0
    6.1096  -18.0609   25.0875 N   0  0  0  0  0  0  0  0  0  0  0  0
    5.8847  -19.3768   24.9225 C   0  0  0  0  0  0  0  0  0  0  0  0
    6.7760  -20.0352   25.6727 N   0  0  0  0  0  0  0  0  0  0  0  0
   11.0014  -18.9877   27.8330 C   0  0  0  0  0  0  0  0  0  0  0  0
   12.0924  -19.3972   27.3558 O   0  0  0  0  0  0  0  0  0  0  0  0
   10.8180  -18.8676   29.2155 O   0  0  0  0  0  0  0  0  0  0  0  0
  2  1  1  0
  3  2  1  0
  3  4  1  0
  4  5  1  0
  5  6  1  6
  5  7  1  0
  7  8  2  0
  9  7  1  0
  9 13  1  0
 10 11  1  0
 10  9  1  0
 11 12  1  0
 12 13  1  0
 13 14  1  1
 14 15  2  0
 16 17  1  0
 16 14  1  0
 17 24  1  0
 17 18  1  1
 19 18  1  0
 20 19  2  0
 21 20  1  0
 22 21  1  0
 22 23  2  0
 23 19  1  0
 24 26  1  0
 25 24  2  0
M  END
$$$$
