MPH.pdb
     RDKit          3D

 26 27  0  0  1  0  0  0  0  0999 V2000
    7.5746  -11.8940   27.3024 C   0  0  0  0  0  0  0  0  0  0  0  0
    6.3336  -13.0032   26.5911 S   0  0  0  0  0  0  0  0  0  0  0  0
    7.1693  -14.3039   25.6441 C   0  0  0  0  0  0  0  0  0  0  0  0
    6.5568  -15.6521   25.9632 C   0  0  0  0  0  0  0  0  0  0  0  0
    6.1443  -16.3429   24.6842 C   0  0  2  0  0  0  0  0  0  0  0  0
    5.5246  -17.6348   24.9773 N   0  0  0  0  0  0  0  0  0  0  0  0
    7.2555  -16.5630   23.7587 C   0  0  0  0  0  0  0  0  0  0  0  0
    7.7292  -17.7245   23.6769 O   0  0  0  0  0  0  0  0  0  0  0  0
    7.8395  -15.5608   22.9449 N   0  0  0  0  0  0  0  0  0  0  0  0
    7.5172  -14.1606   22.8170 C   0  0  0  0  0  0  0  0  0  0  0  0
    7.4955  -13.9966   21.2919 C   0  0  0  0  0  0  0  0  0  0  0  0
    8.7676  -14.7577   20.9319 C   0  0  0  0  0  0  0  0  0  0  0  0
    8.9378  -15.7872   22.0259 C   0  0  1  0  0  0  0  0  0  0  0  0
   10.2528  -15.6734   22.7151 C   0  0  0  0  0  0  0  0  0  0  0  0
   10.2159  -15.3438   23.9349 O   0  0  0  0  0  0  0  0  0  0  0  0
   11.4450  -15.9262   22.0144 N   0  0  0  0  0  0  0  0  0  0  0  0
   12.5104  -16.6509   22.6980 C   0  0  1  0  0  0  0  0  0  0  0  0
   12.0488  -17.9846   23.1720 C   0  0  0  0  0  0  0  0  0  0  0  0
   11.5714  -17.9068   24.5674 C   0  0  0  0  0  0  0  0  0  0  0  0
   11.6068  -16.7820   25.4043 C   0  0  0  0  0  0  0  0  0  0  0  0
   11.0765  -17.1359   26.5871 N   0  0  0  0  0  0  0  0  0  0  0  0
   10.7086  -18.4287   26.5363 C   0  0  0  0  0  0  0  0  0  0  0  0
   11.0105  -18.8859   25.3153 N   0  0  0  0  0  0  0  0  0  0  0  0
   13.6234  -16.8128   21.7395 C   0  0  0  0  0  0  0  0  0  0  0  0
   13.4184  -17.2592   20.5799 O   0  0  0  0  0  0  0  0  0  0  0  0
   14.9104  -16.4556   22.1584 O   0  0  0  0  0  0  0  0  0  0  0  0
  2  1  1  0
  3  2  1  0
  3  4  1  0
  4  5  1  0
  5  6  1  1
  5  7  1  0
  7  8  2  0
  9  7  1  0
  9 13  1  0
 10 11  1  0
 10  9  1  0
 11 12  1  0
 12 13  1  0
 13 14  1  1
 14 15  2  0
 16 17  1  0
 16 14  1  0
 17 24  1  0
 17 18  1  6
 19 18  1  0
 20 19  2  0
 21 20  1  0
 22 21  1  0
 22 23  2  0
 23 19  1  0
 24 26  1  0
 25 24  2  0
M  END
$$$$
