MPH.pdb
     RDKit          3D

 26 27  0  0  1  0  0  0  0  0999 V2000
    9.1305  -11.6909   19.0427 C   0  0  0  0  0  0  0  0  0  0  0  0
    8.4539  -11.8250   20.7162 S   0  0  0  0  0  0  0  0  0  0  0  0
    7.6180  -13.4238   20.8951 C   0  0  0  0  0  0  0  0  0  0  0  0
    8.0953  -14.3810   19.8225 C   0  0  0  0  0  0  0  0  0  0  0  0
    7.4145  -15.7195   19.9906 C   0  0  2  0  0  0  0  0  0  0  0  0
    5.9609  -15.5612   19.9642 N   0  0  0  0  0  0  0  0  0  0  0  0
    7.7820  -16.4063   21.2288 C   0  0  0  0  0  0  0  0  0  0  0  0
    6.9416  -16.4194   22.1636 O   0  0  0  0  0  0  0  0  0  0  0  0
    9.0188  -17.0601   21.4534 N   0  0  0  0  0  0  0  0  0  0  0  0
   10.2262  -17.0647   20.6643 C   0  0  0  0  0  0  0  0  0  0  0  0
   10.5651  -18.5607   20.6445 C   0  0  0  0  0  0  0  0  0  0  0  0
   10.3414  -18.8960   22.1157 C   0  0  0  0  0  0  0  0  0  0  0  0
    9.3036  -17.9068   22.5954 C   0  0  1  0  0  0  0  0  0  0  0  0
    9.7751  -17.1062   23.7590 C   0  0  0  0  0  0  0  0  0  0  0  0
   10.5631  -16.1532   23.4970 O   0  0  0  0  0  0  0  0  0  0  0  0
    9.3454  -17.4238   25.0592 N   0  0  0  0  0  0  0  0  0  0  0  0
    9.8564  -16.6304   26.1714 C   0  0  1  0  0  0  0  0  0  0  0  0
    8.7565  -16.1506   27.0526 C   0  0  0  0  0  0  0  0  0  0  0  0
    7.8555  -15.2413   26.3159 C   0  0  0  0  0  0  0  0  0  0  0  0
    8.2316  -14.2540   25.3935 C   0  0  0  0  0  0  0  0  0  0  0  0
    7.1109  -13.6556   24.9560 N   0  0  0  0  0  0  0  0  0  0  0  0
    6.0472  -14.2176   25.5576 C   0  0  0  0  0  0  0  0  0  0  0  0
    6.5049  -15.1726   26.3758 N   0  0  0  0  0  0  0  0  0  0  0  0
   10.7822  -17.4879   26.9403 C   0  0  0  0  0  0  0  0  0  0  0  0
   10.9036  -18.7122   26.6717 O   0  0  0  0  0  0  0  0  0  0  0  0
   11.5191  -16.8993   27.9748 O   0  0  0  0  0  0  0  0  0  0  0  0
  2  1  1  0
  3  2  1  0
  3  4  1  0
  4  5  1  0
  5  6  1  1
  5  7  1  0
  7  8  2  0
  9  7  1  0
  9 13  1  0
 10 11  1  0
 10  9  1  0
 11 12  1  0
 12 13  1  0
 13 14  1  1
 14 15  2  0
 16 17  1  0
 16 14  1  0
 17 24  1  0
 17 18  1  1
 19 18  1  0
 20 19  2  0
 21 20  1  0
 22 21  1  0
 22 23  2  0
 23 19  1  0
 24 26  1  0
 25 24  2  0
M  END
$$$$
