MPH.pdb
     RDKit          3D

 26 27  0  0  1  0  0  0  0  0999 V2000
    6.8444  -19.1969   23.0091 C   0  0  0  0  0  0  0  0  0  0  0  0
    5.9096  -17.6791   22.6950 S   0  0  0  0  0  0  0  0  0  0  0  0
    7.0630  -16.2880   22.5486 C   0  0  0  0  0  0  0  0  0  0  0  0
    6.2956  -14.9841   22.4739 C   0  0  0  0  0  0  0  0  0  0  0  0
    7.2582  -13.8200   22.5152 C   0  0  2  0  0  0  0  0  0  0  0  0
    8.1191  -13.8256   21.3330 N   0  0  0  0  0  0  0  0  0  0  0  0
    8.1083  -13.8117   23.7056 C   0  0  0  0  0  0  0  0  0  0  0  0
    9.3392  -14.0133   23.5486 O   0  0  0  0  0  0  0  0  0  0  0  0
    7.6459  -13.5925   25.0269 N   0  0  0  0  0  0  0  0  0  0  0  0
    6.3067  -13.3899   25.5230 C   0  0  0  0  0  0  0  0  0  0  0  0
    6.5095  -12.1829   26.4479 C   0  0  0  0  0  0  0  0  0  0  0  0
    7.7786  -12.6221   27.1715 C   0  0  0  0  0  0  0  0  0  0  0  0
    8.5025  -13.5204   26.1945 C   0  0  1  0  0  0  0  0  0  0  0  0
    8.7688  -14.8738   26.7552 C   0  0  0  0  0  0  0  0  0  0  0  0
    7.7699  -15.6422   26.8547 O   0  0  0  0  0  0  0  0  0  0  0  0
   10.0706  -15.2384   27.1404 N   0  0  0  0  0  0  0  0  0  0  0  0
   10.2889  -16.5842   27.6589 C   0  0  1  0  0  0  0  0  0  0  0  0
   11.4769  -17.2264   27.0322 C   0  0  0  0  0  0  0  0  0  0  0  0
   11.3065  -17.3246   25.5684 C   0  0  0  0  0  0  0  0  0  0  0  0
   10.0974  -17.2737   24.8596 C   0  0  0  0  0  0  0  0  0  0  0  0
   10.3843  -17.3993   23.5529 N   0  0  0  0  0  0  0  0  0  0  0  0
   11.7150  -17.5269   23.4038 C   0  0  0  0  0  0  0  0  0  0  0  0
   12.2634  -17.4808   24.6237 N   0  0  0  0  0  0  0  0  0  0  0  0
   10.4872  -16.4710   29.1189 C   0  0  0  0  0  0  0  0  0  0  0  0
   10.6217  -17.4982   29.8348 O   0  0  0  0  0  0  0  0  0  0  0  0
   10.5212  -15.1896   29.6813 O   0  0  0  0  0  0  0  0  0  0  0  0
  2  1  1  0
  3  2  1  0
  3  4  1  0
  4  5  1  0
  5  6  1  6
  5  7  1  0
  7  8  2  0
  9  7  1  0
  9 13  1  0
 10 11  1  0
 10  9  1  0
 11 12  1  0
 12 13  1  0
 13 14  1  1
 14 15  2  0
 16 17  1  0
 16 14  1  0
 17 24  1  0
 17 18  1  6
 19 18  1  0
 20 19  2  0
 21 20  1  0
 22 21  1  0
 22 23  2  0
 23 19  1  0
 24 26  1  0
 25 24  2  0
M  END
$$$$
