FPW.pdb
     RDKit          3D

 33 36  0  0  1  0  0  0  0  0999 V2000
   24.0623  -18.9539  -15.6848 N   0  0  0  0  0  0  0  0  0  0  0  0
   25.2056  -18.6210  -14.8534 C   0  0  1  0  0  0  0  0  0  0  0  0
   24.7571  -17.4360  -14.0047 C   0  0  0  0  0  0  0  0  0  0  0  0
   24.8157  -16.2007  -14.8083 C   0  0  0  0  0  0  0  0  0  0  0  0
   23.6583  -15.6192  -15.2727 C   0  0  0  0  0  0  0  0  0  0  0  0
   23.7216  -14.4559  -16.0316 C   0  0  0  0  0  0  0  0  0  0  0  0
   24.9133  -13.8587  -16.3382 C   0  0  0  0  0  0  0  0  0  0  0  0
   26.0827  -14.4297  -15.8798 C   0  0  0  0  0  0  0  0  0  0  0  0
   25.9993  -15.5996  -15.1180 C   0  0  0  0  0  0  0  0  0  0  0  0
   25.6195  -19.7832  -14.0401 C   0  0  0  0  0  0  0  0  0  0  0  0
   24.6833  -20.5852  -13.7198 O   0  0  0  0  0  0  0  0  0  0  0  0
   26.9574  -20.0044  -13.6374 N   0  0  0  0  0  0  0  0  0  0  0  0
   28.0986  -19.1786  -13.9267 C   0  0  0  0  0  0  0  0  0  0  0  0
   29.3266  -19.9112  -13.4066 C   0  0  0  0  0  0  0  0  0  0  0  0
   28.8769  -21.3447  -13.2090 C   0  0  0  0  0  0  0  0  0  0  0  0
   27.3968  -21.1208  -12.8635 C   0  0  1  0  0  0  0  0  0  0  0  0
   27.4123  -20.8065  -11.3926 C   0  0  0  0  0  0  0  0  0  0  0  0
   28.5183  -20.8009  -10.7970 O   0  0  0  0  0  0  0  0  0  0  0  0
   26.2501  -20.5210  -10.6602 N   0  0  0  0  0  0  0  0  0  0  0  0
   25.5772  -21.4491   -9.7730 C   0  0  1  0  0  0  0  0  0  0  0  0
   26.4350  -21.8366   -8.6029 C   0  0  0  0  0  0  0  0  0  0  0  0
   26.8670  -20.6018   -7.9044 C   0  0  0  0  0  0  0  0  0  0  0  0
   26.6062  -19.2697   -8.2491 C   0  0  0  0  0  0  0  0  0  0  0  0
   27.1874  -18.4565   -7.3567 N   0  0  0  0  0  0  0  0  0  0  0  0
   27.8335  -19.1705   -6.4177 C   0  0  0  0  0  0  0  0  0  0  0  0
   28.5764  -18.8435   -5.3009 C   0  0  0  0  0  0  0  0  0  0  0  0
   29.1487  -19.8053   -4.4807 C   0  0  0  0  0  0  0  0  0  0  0  0
   28.9533  -21.1292   -4.8153 C   0  0  0  0  0  0  0  0  0  0  0  0
   28.2076  -21.4582   -5.9363 C   0  0  0  0  0  0  0  0  0  0  0  0
   27.6382  -20.4946   -6.7522 C   0  0  0  0  0  0  0  0  0  0  0  0
   24.3176  -20.8482   -9.2665 C   0  0  0  0  0  0  0  0  0  0  0  0
   23.8581  -19.7670   -9.6997 O   0  0  0  0  0  0  0  0  0  0  0  0
   23.5939  -21.5095   -8.2540 O   0  0  0  0  0  0  0  0  0  0  0  0
  2  1  1  6
  2  3  1  0
  3  4  1  0
  4  5  2  0
  4  9  1  0
  5  6  1  0
  6  7  2  0
  8  7  1  0
  9  8  2  0
 10 12  1  0
 10  2  1  0
 11 10  2  0
 12 16  1  0
 13 12  1  0
 13 14  1  0
 14 15  1  0
 16 15  1  0
 17 19  1  0
 16 17  1  1
 18 17  2  0
 20 21  1  1
 20 19  1  0
 22 21  1  0
 22 30  1  0
 23 24  1  0
 23 22  2  0
 24 25  1  0
 25 30  2  0
 25 26  1  0
 26 27  2  0
 27 28  1  0
 29 28  2  0
 30 29  1  0
 31 20  1  0
 31 33  1  0
 32 31  2  0
M  END
$$$$
