FPW.pdb
     RDKit          3D

 33 36  0  0  1  0  0  0  0  0999 V2000
   23.6309  -20.2161  -17.4643 N   0  0  0  0  0  0  0  0  0  0  0  0
   24.5964  -19.5149  -16.6363 C   0  0  1  0  0  0  0  0  0  0  0  0
   23.9085  -18.2182  -16.2228 C   0  0  0  0  0  0  0  0  0  0  0  0
   23.7658  -17.3369  -17.3966 C   0  0  0  0  0  0  0  0  0  0  0  0
   24.8600  -16.6753  -17.9049 C   0  0  0  0  0  0  0  0  0  0  0  0
   24.7171  -15.8443  -19.0105 C   0  0  0  0  0  0  0  0  0  0  0  0
   23.5076  -15.6577  -19.6212 C   0  0  0  0  0  0  0  0  0  0  0  0
   22.4009  -16.3142  -19.1232 C   0  0  0  0  0  0  0  0  0  0  0  0
   22.5639  -17.1459  -18.0106 C   0  0  0  0  0  0  0  0  0  0  0  0
   24.9970  -20.3441  -15.4806 C   0  0  0  0  0  0  0  0  0  0  0  0
   24.1068  -21.1479  -15.0521 O   0  0  0  0  0  0  0  0  0  0  0  0
   26.2755  -20.2630  -14.8806 N   0  0  0  0  0  0  0  0  0  0  0  0
   27.3805  -19.4436  -15.2998 C   0  0  0  0  0  0  0  0  0  0  0  0
   28.5724  -19.8187  -14.4315 C   0  0  0  0  0  0  0  0  0  0  0  0
   28.2091  -21.1559  -13.8183 C   0  0  0  0  0  0  0  0  0  0  0  0
   26.6819  -21.0113  -13.7346 C   0  0  1  0  0  0  0  0  0  0  0  0
   26.4606  -20.2423  -12.4609 C   0  0  0  0  0  0  0  0  0  0  0  0
   26.6901  -19.0073  -12.4641 O   0  0  0  0  0  0  0  0  0  0  0  0
   26.0115  -20.8422  -11.2748 N   0  0  0  0  0  0  0  0  0  0  0  0
   25.7281  -20.1357  -10.0412 C   0  0  1  0  0  0  0  0  0  0  0  0
   24.5428  -19.2230  -10.1710 C   0  0  0  0  0  0  0  0  0  0  0  0
   23.3218  -20.0520  -10.3168 C   0  0  0  0  0  0  0  0  0  0  0  0
   22.5588  -20.6624   -9.3136 C   0  0  0  0  0  0  0  0  0  0  0  0
   21.5392  -21.3287   -9.8723 N   0  0  0  0  0  0  0  0  0  0  0  0
   21.5695  -21.2022  -11.2110 C   0  0  0  0  0  0  0  0  0  0  0  0
   20.7790  -21.6721  -12.2407 C   0  0  0  0  0  0  0  0  0  0  0  0
   21.0433  -21.3838  -13.5720 C   0  0  0  0  0  0  0  0  0  0  0  0
   22.1417  -20.5969  -13.8500 C   0  0  0  0  0  0  0  0  0  0  0  0
   22.9356  -20.1249  -12.8167 C   0  0  0  0  0  0  0  0  0  0  0  0
   22.6680  -20.4152  -11.4891 C   0  0  0  0  0  0  0  0  0  0  0  0
   25.4701  -21.1047   -8.9463 C   0  0  0  0  0  0  0  0  0  0  0  0
   25.2147  -22.3128   -9.1540 O   0  0  0  0  0  0  0  0  0  0  0  0
   25.5102  -20.6636   -7.6084 O   0  0  0  0  0  0  0  0  0  0  0  0
  2  1  1  6
  2  3  1  0
  3  4  1  0
  4  5  2  0
  4  9  1  0
  5  6  1  0
  6  7  2  0
  8  7  1  0
  9  8  2  0
 10 12  1  0
 10  2  1  0
 11 10  2  0
 12 16  1  0
 13 12  1  0
 13 14  1  0
 14 15  1  0
 16 15  1  0
 17 19  1  0
 16 17  1  1
 18 17  2  0
 20 21  1  6
 20 19  1  0
 22 21  1  0
 22 30  1  0
 23 24  1  0
 23 22  2  0
 24 25  1  0
 25 30  2  0
 25 26  1  0
 26 27  2  0
 27 28  1  0
 29 28  2  0
 30 29  1  0
 31 20  1  0
 31 33  1  0
 32 31  2  0
M  END
$$$$
