FPW.pdb
     RDKit          3D

 33 36  0  0  1  0  0  0  0  0999 V2000
   24.8722  -19.1496  -10.3616 N   0  0  0  0  0  0  0  0  0  0  0  0
   26.0410  -19.7999  -10.9274 C   0  0  1  0  0  0  0  0  0  0  0  0
   26.2066  -21.0934  -10.1367 C   0  0  0  0  0  0  0  0  0  0  0  0
   26.6926  -20.7853   -8.7788 C   0  0  0  0  0  0  0  0  0  0  0  0
   28.0305  -20.5524   -8.5567 C   0  0  0  0  0  0  0  0  0  0  0  0
   28.4816  -20.2648   -7.2733 C   0  0  0  0  0  0  0  0  0  0  0  0
   27.6288  -20.2040   -6.2057 C   0  0  0  0  0  0  0  0  0  0  0  0
   26.2843  -20.4351   -6.4122 C   0  0  0  0  0  0  0  0  0  0  0  0
   25.8491  -20.7228   -7.7098 C   0  0  0  0  0  0  0  0  0  0  0  0
   25.8623  -20.0333  -12.3755 C   0  0  0  0  0  0  0  0  0  0  0  0
   24.6539  -20.1169  -12.7689 O   0  0  0  0  0  0  0  0  0  0  0  0
   26.9468  -20.1573  -13.2754 N   0  0  0  0  0  0  0  0  0  0  0  0
   28.3330  -20.3471  -12.9430 C   0  0  0  0  0  0  0  0  0  0  0  0
   29.1208  -20.2717  -14.2425 C   0  0  0  0  0  0  0  0  0  0  0  0
   28.1834  -19.6143  -15.2351 C   0  0  0  0  0  0  0  0  0  0  0  0
   26.8301  -20.1040  -14.6973 C   0  0  1  0  0  0  0  0  0  0  0  0
   26.6787  -21.4761  -15.2949 C   0  0  0  0  0  0  0  0  0  0  0  0
   27.4546  -22.3838  -14.9050 O   0  0  0  0  0  0  0  0  0  0  0  0
   25.7128  -21.7844  -16.2648 N   0  0  0  0  0  0  0  0  0  0  0  0
   24.9925  -23.0393  -16.3516 C   0  0  1  0  0  0  0  0  0  0  0  0
   24.1480  -23.2925  -15.1361 C   0  0  0  0  0  0  0  0  0  0  0  0
   23.1441  -22.2067  -15.0237 C   0  0  0  0  0  0  0  0  0  0  0  0
   22.9281  -21.1275  -15.8896 C   0  0  0  0  0  0  0  0  0  0  0  0
   21.9277  -20.3710  -15.4179 N   0  0  0  0  0  0  0  0  0  0  0  0
   21.4496  -20.8827  -14.2696 C   0  0  0  0  0  0  0  0  0  0  0  0
   20.4505  -20.5113  -13.3922 C   0  0  0  0  0  0  0  0  0  0  0  0
   20.1568  -21.2397  -12.2484 C   0  0  0  0  0  0  0  0  0  0  0  0
   20.9048  -22.3723  -12.0019 C   0  0  0  0  0  0  0  0  0  0  0  0
   21.9078  -22.7457  -12.8824 C   0  0  0  0  0  0  0  0  0  0  0  0
   22.1976  -22.0155  -14.0230 C   0  0  0  0  0  0  0  0  0  0  0  0
   24.1192  -23.0441  -17.5523 C   0  0  0  0  0  0  0  0  0  0  0  0
   23.8436  -22.0063  -18.1963 O   0  0  0  0  0  0  0  0  0  0  0  0
   23.5674  -24.2605  -18.0015 O   0  0  0  0  0  0  0  0  0  0  0  0
  2  1  1  1
  2  3  1  0
  3  4  1  0
  4  5  2  0
  4  9  1  0
  5  6  1  0
  6  7  2  0
  8  7  1  0
  9  8  2  0
 10 12  1  0
 10  2  1  0
 11 10  2  0
 12 16  1  0
 13 12  1  0
 13 14  1  0
 14 15  1  0
 16 15  1  0
 17 19  1  0
 16 17  1  6
 18 17  2  0
 20 21  1  1
 20 19  1  0
 22 21  1  0
 22 30  1  0
 23 24  1  0
 23 22  2  0
 24 25  1  0
 25 30  2  0
 25 26  1  0
 26 27  2  0
 27 28  1  0
 29 28  2  0
 30 29  1  0
 31 20  1  0
 31 33  1  0
 32 31  2  0
M  END
$$$$
