FPW.pdb
     RDKit          3D

 33 36  0  0  1  0  0  0  0  0999 V2000
   27.2773  -21.2717  -16.7219 N   0  0  0  0  0  0  0  0  0  0  0  0
   27.7312  -20.4496  -15.6141 C   0  0  1  0  0  0  0  0  0  0  0  0
   26.9150  -19.1645  -15.7032 C   0  0  0  0  0  0  0  0  0  0  0  0
   27.3546  -18.3781  -16.8708 C   0  0  0  0  0  0  0  0  0  0  0  0
   26.5264  -18.2302  -17.9597 C   0  0  0  0  0  0  0  0  0  0  0  0
   26.9488  -17.4893  -19.0578 C   0  0  0  0  0  0  0  0  0  0  0  0
   28.1787  -16.8921  -19.0951 C   0  0  0  0  0  0  0  0  0  0  0  0
   29.0207  -17.0312  -18.0109 C   0  0  0  0  0  0  0  0  0  0  0  0
   28.5787  -17.7800  -16.9155 C   0  0  0  0  0  0  0  0  0  0  0  0
   27.5499  -21.1548  -14.3283 C   0  0  0  0  0  0  0  0  0  0  0  0
   26.5660  -21.9623  -14.2839 O   0  0  0  0  0  0  0  0  0  0  0  0
   28.4006  -20.9583  -13.2153 N   0  0  0  0  0  0  0  0  0  0  0  0
   29.6017  -20.1689  -13.1697 C   0  0  0  0  0  0  0  0  0  0  0  0
   30.2340  -20.3917  -11.8037 C   0  0  0  0  0  0  0  0  0  0  0  0
   29.5781  -21.6470  -11.2650 C   0  0  0  0  0  0  0  0  0  0  0  0
   28.1959  -21.5376  -11.9265 C   0  0  1  0  0  0  0  0  0  0  0  0
   27.4316  -20.6151  -11.0169 C   0  0  0  0  0  0  0  0  0  0  0  0
   27.7412  -19.3977  -11.0076 O   0  0  0  0  0  0  0  0  0  0  0  0
   26.3928  -21.0536  -10.1819 N   0  0  0  0  0  0  0  0  0  0  0  0
   25.6257  -20.2038   -9.2927 C   0  0  1  0  0  0  0  0  0  0  0  0
   24.8844  -19.1299  -10.0356 C   0  0  0  0  0  0  0  0  0  0  0  0
   24.0096  -19.7723  -11.0463 C   0  0  0  0  0  0  0  0  0  0  0  0
   22.9292  -20.6386  -10.8382 C   0  0  0  0  0  0  0  0  0  0  0  0
   22.4131  -20.9995  -12.0210 N   0  0  0  0  0  0  0  0  0  0  0  0
   23.0904  -20.4201  -13.0283 C   0  0  0  0  0  0  0  0  0  0  0  0
   22.9818  -20.4499  -14.4043 C   0  0  0  0  0  0  0  0  0  0  0  0
   23.8366  -19.7375  -15.2332 C   0  0  0  0  0  0  0  0  0  0  0  0
   24.8223  -18.9797  -14.6358 C   0  0  0  0  0  0  0  0  0  0  0  0
   24.9319  -18.9493  -13.2545 C   0  0  0  0  0  0  0  0  0  0  0  0
   24.0763  -19.6621  -12.4309 C   0  0  0  0  0  0  0  0  0  0  0  0
   24.6495  -21.0180   -8.5255 C   0  0  0  0  0  0  0  0  0  0  0  0
   23.9102  -20.5347   -7.6379 O   0  0  0  0  0  0  0  0  0  0  0  0
   24.5360  -22.3967   -8.7944 O   0  0  0  0  0  0  0  0  0  0  0  0
  2  1  1  6
  2  3  1  0
  3  4  1  0
  4  5  2  0
  4  9  1  0
  5  6  1  0
  6  7  2  0
  8  7  1  0
  9  8  2  0
 10 12  1  0
 10  2  1  0
 11 10  2  0
 12 16  1  0
 13 12  1  0
 13 14  1  0
 14 15  1  0
 16 15  1  0
 17 19  1  0
 16 17  1  1
 18 17  2  0
 20 21  1  6
 20 19  1  0
 22 21  1  0
 22 30  1  0
 23 24  1  0
 23 22  2  0
 24 25  1  0
 25 30  2  0
 25 26  1  0
 26 27  2  0
 27 28  1  0
 29 28  2  0
 30 29  1  0
 31 20  1  0
 31 33  1  0
 32 31  2  0
M  END
$$$$
