FPW.pdb
     RDKit          3D

 33 36  0  0  1  0  0  0  0  0999 V2000
   22.3812  -19.6023  -15.5316 N   0  0  0  0  0  0  0  0  0  0  0  0
   23.6281  -19.0377  -15.0462 C   0  0  1  0  0  0  0  0  0  0  0  0
   23.2402  -17.7346  -14.3555 C   0  0  0  0  0  0  0  0  0  0  0  0
   23.4093  -16.6079  -15.2921 C   0  0  0  0  0  0  0  0  0  0  0  0
   24.6600  -16.0872  -15.5328 C   0  0  0  0  0  0  0  0  0  0  0  0
   24.8112  -15.0235  -16.4154 C   0  0  0  0  0  0  0  0  0  0  0  0
   23.7433  -14.4668  -17.0638 C   0  0  0  0  0  0  0  0  0  0  0  0
   22.4827  -14.9779  -16.8329 C   0  0  0  0  0  0  0  0  0  0  0  0
   22.3501  -16.0478  -15.9420 C   0  0  0  0  0  0  0  0  0  0  0  0
   24.3151  -19.9825  -14.1413 C   0  0  0  0  0  0  0  0  0  0  0  0
   23.5504  -20.6781  -13.3974 O   0  0  0  0  0  0  0  0  0  0  0  0
   25.7225  -20.1174  -14.0926 N   0  0  0  0  0  0  0  0  0  0  0  0
   26.6879  -19.4451  -14.9196 C   0  0  0  0  0  0  0  0  0  0  0  0
   28.0514  -20.0320  -14.5859 C   0  0  0  0  0  0  0  0  0  0  0  0
   27.7563  -21.3328  -13.8669 C   0  0  0  0  0  0  0  0  0  0  0  0
   26.4238  -20.9744  -13.1914 C   0  0  1  0  0  0  0  0  0  0  0  0
   26.8363  -20.2482  -11.9404 C   0  0  0  0  0  0  0  0  0  0  0  0
   27.1899  -19.0469  -12.0390 O   0  0  0  0  0  0  0  0  0  0  0  0
   26.8435  -20.8520  -10.6739 N   0  0  0  0  0  0  0  0  0  0  0  0
   27.4315  -20.2753   -9.4810 C   0  0  1  0  0  0  0  0  0  0  0  0
   26.4735  -20.2673   -8.3247 C   0  0  0  0  0  0  0  0  0  0  0  0
   27.0730  -19.4804   -7.2199 C   0  0  0  0  0  0  0  0  0  0  0  0
   27.2015  -18.0902   -7.1108 C   0  0  0  0  0  0  0  0  0  0  0  0
   27.8106  -17.7881   -5.9561 N   0  0  0  0  0  0  0  0  0  0  0  0
   28.1045  -18.9072   -5.2704 C   0  0  0  0  0  0  0  0  0  0  0  0
   28.7144  -19.1616   -4.0582 C   0  0  0  0  0  0  0  0  0  0  0  0
   28.8969  -20.4487   -3.5733 C   0  0  0  0  0  0  0  0  0  0  0  0
   28.4434  -21.4949   -4.3497 C   0  0  0  0  0  0  0  0  0  0  0  0
   27.8311  -21.2402   -5.5667 C   0  0  0  0  0  0  0  0  0  0  0  0
   27.6510  -19.9536   -6.0469 C   0  0  0  0  0  0  0  0  0  0  0  0
   28.6462  -21.0354   -9.0926 C   0  0  0  0  0  0  0  0  0  0  0  0
   28.7459  -22.2756   -9.2334 O   0  0  0  0  0  0  0  0  0  0  0  0
   29.7452  -20.3479   -8.5397 O   0  0  0  0  0  0  0  0  0  0  0  0
  2  1  1  1
  2  3  1  0
  3  4  1  0
  4  5  2  0
  4  9  1  0
  5  6  1  0
  6  7  2  0
  8  7  1  0
  9  8  2  0
 10 12  1  0
 10  2  1  0
 11 10  2  0
 12 16  1  0
 13 12  1  0
 13 14  1  0
 14 15  1  0
 16 15  1  0
 17 19  1  0
 16 17  1  1
 18 17  2  0
 20 21  1  1
 20 19  1  0
 22 21  1  0
 22 30  1  0
 23 24  1  0
 23 22  2  0
 24 25  1  0
 25 30  2  0
 25 26  1  0
 26 27  2  0
 27 28  1  0
 29 28  2  0
 30 29  1  0
 31 20  1  0
 31 33  1  0
 32 31  2  0
M  END
$$$$
