FPW.pdb
     RDKit          3D

 33 36  0  0  1  0  0  0  0  0999 V2000
   23.7056  -19.7634  -15.9102 N   0  0  0  0  0  0  0  0  0  0  0  0
   24.6501  -19.1586  -14.9876 C   0  0  1  0  0  0  0  0  0  0  0  0
   23.8512  -18.1105  -14.2201 C   0  0  0  0  0  0  0  0  0  0  0  0
   23.5229  -16.9848  -15.1145 C   0  0  0  0  0  0  0  0  0  0  0  0
   24.4697  -16.0290  -15.4035 C   0  0  0  0  0  0  0  0  0  0  0  0
   24.1521  -14.9693  -16.2458 C   0  0  0  0  0  0  0  0  0  0  0  0
   22.9114  -14.8407  -16.8069 C   0  0  0  0  0  0  0  0  0  0  0  0
   21.9511  -15.7912  -16.5268 C   0  0  0  0  0  0  0  0  0  0  0  0
   22.2889  -16.8498  -15.6776 C   0  0  0  0  0  0  0  0  0  0  0  0
   25.2496  -20.1808  -14.1048 C   0  0  0  0  0  0  0  0  0  0  0  0
   24.4871  -21.1556  -13.8039 O   0  0  0  0  0  0  0  0  0  0  0  0
   26.5758  -20.0976  -13.6195 N   0  0  0  0  0  0  0  0  0  0  0  0
   27.5389  -19.0669  -13.8984 C   0  0  0  0  0  0  0  0  0  0  0  0
   28.8553  -19.5005  -13.2705 C   0  0  0  0  0  0  0  0  0  0  0  0
   28.6982  -20.9849  -13.0093 C   0  0  0  0  0  0  0  0  0  0  0  0
   27.1847  -21.0584  -12.7565 C   0  0  1  0  0  0  0  0  0  0  0  0
   27.0408  -20.6760  -11.3089 C   0  0  0  0  0  0  0  0  0  0  0  0
   27.9491  -19.9860  -10.7827 O   0  0  0  0  0  0  0  0  0  0  0  0
   25.9411  -21.0551  -10.5244 N   0  0  0  0  0  0  0  0  0  0  0  0
   26.0264  -21.7095   -9.2338 C   0  0  1  0  0  0  0  0  0  0  0  0
   27.3994  -21.6035   -8.6350 C   0  0  0  0  0  0  0  0  0  0  0  0
   27.4275  -20.4355   -7.7215 C   0  0  0  0  0  0  0  0  0  0  0  0
   26.8961  -19.1562   -7.9271 C   0  0  0  0  0  0  0  0  0  0  0  0
   27.1460  -18.3923   -6.8549 N   0  0  0  0  0  0  0  0  0  0  0  0
   27.8236  -19.0897   -5.9257 C   0  0  0  0  0  0  0  0  0  0  0  0
   28.3191  -18.7942   -4.6714 C   0  0  0  0  0  0  0  0  0  0  0  0
   29.0007  -19.7266   -3.9026 C   0  0  0  0  0  0  0  0  0  0  0  0
   29.1763  -20.9876   -4.4336 C   0  0  0  0  0  0  0  0  0  0  0  0
   28.6791  -21.2849   -5.6927 C   0  0  0  0  0  0  0  0  0  0  0  0
   27.9993  -20.3509   -6.4567 C   0  0  0  0  0  0  0  0  0  0  0  0
   25.0452  -21.1121   -8.2932 C   0  0  0  0  0  0  0  0  0  0  0  0
   24.3345  -20.1246   -8.5890 O   0  0  0  0  0  0  0  0  0  0  0  0
   24.8933  -21.6676   -7.0069 O   0  0  0  0  0  0  0  0  0  0  0  0
  2  1  1  6
  2  3  1  0
  3  4  1  0
  4  5  2  0
  4  9  1  0
  5  6  1  0
  6  7  2  0
  8  7  1  0
  9  8  2  0
 10 12  1  0
 10  2  1  0
 11 10  2  0
 12 16  1  0
 13 12  1  0
 13 14  1  0
 14 15  1  0
 16 15  1  0
 17 19  1  0
 16 17  1  1
 18 17  2  0
 20 21  1  1
 20 19  1  0
 22 21  1  0
 22 30  1  0
 23 24  1  0
 23 22  2  0
 24 25  1  0
 25 30  2  0
 25 26  1  0
 26 27  2  0
 27 28  1  0
 29 28  2  0
 30 29  1  0
 31 20  1  0
 31 33  1  0
 32 31  2  0
M  END
$$$$
