FPW.pdb
     RDKit          3D

 33 36  0  0  1  0  0  0  0  0999 V2000
   16.1981  -12.4577  -18.2955 N   0  0  0  0  0  0  0  0  0  0  0  0
   15.5831  -11.2038  -17.8971 C   0  0  1  0  0  0  0  0  0  0  0  0
   14.9720  -11.4707  -16.5257 C   0  0  0  0  0  0  0  0  0  0  0  0
   13.7725  -12.3159  -16.6737 C   0  0  0  0  0  0  0  0  0  0  0  0
   12.6375  -11.8124  -17.2667 C   0  0  0  0  0  0  0  0  0  0  0  0
   11.5098  -12.6146  -17.4006 C   0  0  0  0  0  0  0  0  0  0  0  0
   11.4878  -13.9081  -16.9566 C   0  0  0  0  0  0  0  0  0  0  0  0
   12.6182  -14.4275  -16.3599 C   0  0  0  0  0  0  0  0  0  0  0  0
   13.7429  -13.6058  -16.2339 C   0  0  0  0  0  0  0  0  0  0  0  0
   16.5801  -10.1132  -17.8770 C   0  0  0  0  0  0  0  0  0  0  0  0
   17.7836  -10.4790  -17.6772 O   0  0  0  0  0  0  0  0  0  0  0  0
   16.2383   -8.7534  -18.0648 N   0  0  0  0  0  0  0  0  0  0  0  0
   14.9431   -8.2215  -18.3929 C   0  0  0  0  0  0  0  0  0  0  0  0
   15.1183   -6.7292  -18.6332 C   0  0  0  0  0  0  0  0  0  0  0  0
   16.6061   -6.5353  -18.8453 C   0  0  0  0  0  0  0  0  0  0  0  0
   17.1568   -7.6652  -17.9620 C   0  0  1  0  0  0  0  0  0  0  0  0
   17.1645   -7.0725  -16.5796 C   0  0  0  0  0  0  0  0  0  0  0  0
   16.1004   -7.1040  -15.9128 O   0  0  0  0  0  0  0  0  0  0  0  0
   18.3036   -6.4883  -16.0053 N   0  0  0  0  0  0  0  0  0  0  0  0
   18.3483   -5.8626  -14.6985 C   0  0  1  0  0  0  0  0  0  0  0  0
   19.2325   -6.6106  -13.7427 C   0  0  0  0  0  0  0  0  0  0  0  0
   20.5365   -6.8613  -14.4030 C   0  0  0  0  0  0  0  0  0  0  0  0
   20.9869   -8.0326  -15.0246 C   0  0  0  0  0  0  0  0  0  0  0  0
   22.2297   -7.8418  -15.4878 N   0  0  0  0  0  0  0  0  0  0  0  0
   22.6502   -6.5943  -15.2118 C   0  0  0  0  0  0  0  0  0  0  0  0
   23.8153   -5.8949  -15.4553 C   0  0  0  0  0  0  0  0  0  0  0  0
   23.9918   -4.5799  -15.0495 C   0  0  0  0  0  0  0  0  0  0  0  0
   22.9499   -3.9720  -14.3802 C   0  0  0  0  0  0  0  0  0  0  0  0
   21.7800   -4.6735  -14.1354 C   0  0  0  0  0  0  0  0  0  0  0  0
   21.6082   -5.9863  -14.5425 C   0  0  0  0  0  0  0  0  0  0  0  0
   18.8421   -4.4676  -14.8176 C   0  0  0  0  0  0  0  0  0  0  0  0
   19.4035   -4.0309  -15.8482 O   0  0  0  0  0  0  0  0  0  0  0  0
   18.6806   -3.5816  -13.7335 O   0  0  0  0  0  0  0  0  0  0  0  0
  2  1  1  1
  2  3  1  0
  3  4  1  0
  4  5  2  0
  4  9  1  0
  5  6  1  0
  6  7  2  0
  8  7  1  0
  9  8  2  0
 10 12  1  0
 10  2  1  0
 11 10  2  0
 12 16  1  0
 13 12  1  0
 13 14  1  0
 14 15  1  0
 16 15  1  0
 17 19  1  0
 16 17  1  1
 18 17  2  0
 20 21  1  1
 20 19  1  0
 22 21  1  0
 22 30  1  0
 23 24  1  0
 23 22  2  0
 24 25  1  0
 25 30  2  0
 25 26  1  0
 26 27  2  0
 27 28  1  0
 29 28  2  0
 30 29  1  0
 31 20  1  0
 31 33  1  0
 32 31  2  0
M  END
$$$$
