FPW.pdb
     RDKit          3D

 33 36  0  0  1  0  0  0  0  0999 V2000
   25.3397  -17.8855  -17.5459 N   0  0  0  0  0  0  0  0  0  0  0  0
   26.2938  -18.4603  -16.6140 C   0  0  1  0  0  0  0  0  0  0  0  0
   26.1760  -17.6217  -15.3457 C   0  0  0  0  0  0  0  0  0  0  0  0
   26.8251  -16.3140  -15.5543 C   0  0  0  0  0  0  0  0  0  0  0  0
   26.1177  -15.1495  -15.3621 C   0  0  0  0  0  0  0  0  0  0  0  0
   26.7358  -13.9203  -15.5629 C   0  0  0  0  0  0  0  0  0  0  0  0
   28.0439  -13.8256  -15.9512 C   0  0  0  0  0  0  0  0  0  0  0  0
   28.7666  -14.9843  -16.1480 C   0  0  0  0  0  0  0  0  0  0  0  0
   28.1281  -16.2113  -15.9411 C   0  0  0  0  0  0  0  0  0  0  0  0
   26.0052  -19.8910  -16.3830 C   0  0  0  0  0  0  0  0  0  0  0  0
   24.7904  -20.2355  -16.5492 O   0  0  0  0  0  0  0  0  0  0  0  0
   26.9972  -20.8255  -16.0035 N   0  0  0  0  0  0  0  0  0  0  0  0
   28.3814  -20.5557  -15.7221 C   0  0  0  0  0  0  0  0  0  0  0  0
   29.0658  -21.8975  -15.5069 C   0  0  0  0  0  0  0  0  0  0  0  0
   28.1180  -22.9231  -16.0953 C   0  0  0  0  0  0  0  0  0  0  0  0
   26.7721  -22.2263  -15.8437 C   0  0  1  0  0  0  0  0  0  0  0  0
   26.4438  -22.5779  -14.4185 C   0  0  0  0  0  0  0  0  0  0  0  0
   26.9451  -23.6223  -13.9327 O   0  0  0  0  0  0  0  0  0  0  0  0
   25.6054  -21.7935  -13.6120 N   0  0  0  0  0  0  0  0  0  0  0  0
   25.3354  -22.0374  -12.2088 C   0  0  1  0  0  0  0  0  0  0  0  0
   26.5928  -22.0757  -11.3887 C   0  0  0  0  0  0  0  0  0  0  0  0
   26.4703  -21.0876  -10.2897 C   0  0  0  0  0  0  0  0  0  0  0  0
   25.3422  -20.3559   -9.8981 C   0  0  0  0  0  0  0  0  0  0  0  0
   25.6604  -19.5657   -8.8639 N   0  0  0  0  0  0  0  0  0  0  0  0
   26.9538  -19.7230   -8.5298 C   0  0  0  0  0  0  0  0  0  0  0  0
   27.7740  -19.1689   -7.5673 C   0  0  0  0  0  0  0  0  0  0  0  0
   29.1104  -19.5189   -7.4382 C   0  0  0  0  0  0  0  0  0  0  0  0
   29.6134  -20.4570   -8.3156 C   0  0  0  0  0  0  0  0  0  0  0  0
   28.7905  -21.0136   -9.2820 C   0  0  0  0  0  0  0  0  0  0  0  0
   27.4569  -20.6612   -9.4073 C   0  0  0  0  0  0  0  0  0  0  0  0
   24.4430  -20.9802  -11.6700 C   0  0  0  0  0  0  0  0  0  0  0  0
   23.9241  -21.0436  -10.5323 O   0  0  0  0  0  0  0  0  0  0  0  0
   24.1563  -19.8484  -12.4594 O   0  0  0  0  0  0  0  0  0  0  0  0
  2  1  1  6
  2  3  1  0
  3  4  1  0
  4  5  2  0
  4  9  1  0
  5  6  1  0
  6  7  2  0
  8  7  1  0
  9  8  2  0
 10 12  1  0
 10  2  1  0
 11 10  2  0
 12 16  1  0
 13 12  1  0
 13 14  1  0
 14 15  1  0
 16 15  1  0
 17 19  1  0
 16 17  1  1
 18 17  2  0
 20 21  1  1
 20 19  1  0
 22 21  1  0
 22 30  1  0
 23 24  1  0
 23 22  2  0
 24 25  1  0
 25 30  2  0
 25 26  1  0
 26 27  2  0
 27 28  1  0
 29 28  2  0
 30 29  1  0
 31 20  1  0
 31 33  1  0
 32 31  2  0
M  END
$$$$
