FPW.pdb
     RDKit          3D

 33 36  0  0  1  0  0  0  0  0999 V2000
   23.5912  -20.5183  -16.8947 N   0  0  0  0  0  0  0  0  0  0  0  0
   24.2379  -19.6748  -15.9051 C   0  0  1  0  0  0  0  0  0  0  0  0
   23.1125  -18.8741  -15.2586 C   0  0  0  0  0  0  0  0  0  0  0  0
   22.9937  -17.5620  -15.9214 C   0  0  0  0  0  0  0  0  0  0  0  0
   21.9947  -17.3366  -16.8405 C   0  0  0  0  0  0  0  0  0  0  0  0
   21.8905  -16.0977  -17.4629 C   0  0  0  0  0  0  0  0  0  0  0  0
   22.7600  -15.0778  -17.1899 C   0  0  0  0  0  0  0  0  0  0  0  0
   23.7671  -15.2883  -16.2705 C   0  0  0  0  0  0  0  0  0  0  0  0
   23.8562  -16.5407  -15.6546 C   0  0  0  0  0  0  0  0  0  0  0  0
   24.9918  -20.4914  -14.9313 C   0  0  0  0  0  0  0  0  0  0  0  0
   24.5921  -21.6939  -14.8036 O   0  0  0  0  0  0  0  0  0  0  0  0
   26.0834  -19.9881  -14.1854 N   0  0  0  0  0  0  0  0  0  0  0  0
   26.6620  -18.6745  -14.2725 C   0  0  0  0  0  0  0  0  0  0  0  0
   27.8967  -18.6678  -13.3833 C   0  0  0  0  0  0  0  0  0  0  0  0
   28.2186  -20.1289  -13.1434 C   0  0  0  0  0  0  0  0  0  0  0  0
   26.8072  -20.7326  -13.2053 C   0  0  1  0  0  0  0  0  0  0  0  0
   26.2585  -20.5121  -11.8223 C   0  0  0  0  0  0  0  0  0  0  0  0
   25.8723  -19.3576  -11.5125 O   0  0  0  0  0  0  0  0  0  0  0  0
   26.1601  -21.5354  -10.8675 N   0  0  0  0  0  0  0  0  0  0  0  0
   25.9564  -21.3306   -9.4470 C   0  0  1  0  0  0  0  0  0  0  0  0
   26.9925  -22.0351   -8.6191 C   0  0  0  0  0  0  0  0  0  0  0  0
   26.8417  -21.6055   -7.2078 C   0  0  0  0  0  0  0  0  0  0  0  0
   25.7725  -21.8425   -6.3349 C   0  0  0  0  0  0  0  0  0  0  0  0
   26.0302  -21.2732   -5.1496 N   0  0  0  0  0  0  0  0  0  0  0  0
   27.2261  -20.6579   -5.1712 C   0  0  0  0  0  0  0  0  0  0  0  0
   27.9555  -19.9381   -4.2462 C   0  0  0  0  0  0  0  0  0  0  0  0
   29.1992  -19.3967   -4.5385 C   0  0  0  0  0  0  0  0  0  0  0  0
   29.7028  -19.5994   -5.8066 C   0  0  0  0  0  0  0  0  0  0  0  0
   28.9710  -20.3220   -6.7357 C   0  0  0  0  0  0  0  0  0  0  0  0
   27.7299  -20.8607   -6.4395 C   0  0  0  0  0  0  0  0  0  0  0  0
   25.9936  -19.8806   -9.1303 C   0  0  0  0  0  0  0  0  0  0  0  0
   26.9415  -19.1353   -9.4678 O   0  0  0  0  0  0  0  0  0  0  0  0
   24.9241  -19.3001   -8.4194 O   0  0  0  0  0  0  0  0  0  0  0  0
  2  1  1  6
  2  3  1  0
  3  4  1  0
  4  5  2  0
  4  9  1  0
  5  6  1  0
  6  7  2  0
  8  7  1  0
  9  8  2  0
 10 12  1  0
 10  2  1  0
 11 10  2  0
 12 16  1  0
 13 12  1  0
 13 14  1  0
 14 15  1  0
 16 15  1  0
 17 19  1  0
 16 17  1  1
 18 17  2  0
 20 21  1  1
 20 19  1  0
 22 21  1  0
 22 30  1  0
 23 24  1  0
 23 22  2  0
 24 25  1  0
 25 30  2  0
 25 26  1  0
 26 27  2  0
 27 28  1  0
 29 28  2  0
 30 29  1  0
 31 20  1  0
 31 33  1  0
 32 31  2  0
M  END
$$$$
