FPW.pdb
     RDKit          3D

 33 36  0  0  1  0  0  0  0  0999 V2000
   24.9115  -20.0146   -9.9402 N   0  0  0  0  0  0  0  0  0  0  0  0
   26.2062  -20.2010  -10.5714 C   0  0  1  0  0  0  0  0  0  0  0  0
   26.8445  -21.3799   -9.8444 C   0  0  0  0  0  0  0  0  0  0  0  0
   27.4506  -20.9148   -8.5829 C   0  0  0  0  0  0  0  0  0  0  0  0
   26.6549  -20.4553   -7.5586 C   0  0  0  0  0  0  0  0  0  0  0  0
   27.2337  -20.0163   -6.3731 C   0  0  0  0  0  0  0  0  0  0  0  0
   28.5885  -20.0249   -6.1853 C   0  0  0  0  0  0  0  0  0  0  0  0
   29.3998  -20.4828   -7.2031 C   0  0  0  0  0  0  0  0  0  0  0  0
   28.7997  -20.9203   -8.3882 C   0  0  0  0  0  0  0  0  0  0  0  0
   26.0538  -20.4377  -12.0220 C   0  0  0  0  0  0  0  0  0  0  0  0
   24.9324  -20.9242  -12.3798 O   0  0  0  0  0  0  0  0  0  0  0  0
   27.0721  -20.1495  -12.9607 N   0  0  0  0  0  0  0  0  0  0  0  0
   28.4842  -20.0530  -12.7071 C   0  0  0  0  0  0  0  0  0  0  0  0
   29.1407  -19.5798  -13.9956 C   0  0  0  0  0  0  0  0  0  0  0  0
   28.0098  -19.0133  -14.8300 C   0  0  0  0  0  0  0  0  0  0  0  0
   26.8473  -19.8942  -14.3474 C   0  0  1  0  0  0  0  0  0  0  0  0
   26.9758  -21.1460  -15.1714 C   0  0  0  0  0  0  0  0  0  0  0  0
   27.4498  -22.1725  -14.6241 O   0  0  0  0  0  0  0  0  0  0  0  0
   26.5912  -21.2162  -16.5189 N   0  0  0  0  0  0  0  0  0  0  0  0
   26.0091  -22.3798  -17.1580 C   0  0  1  0  0  0  0  0  0  0  0  0
   24.6542  -22.7123  -16.6024 C   0  0  0  0  0  0  0  0  0  0  0  0
   23.8450  -21.4705  -16.5555 C   0  0  0  0  0  0  0  0  0  0  0  0
   23.8063  -20.4208  -17.4818 C   0  0  0  0  0  0  0  0  0  0  0  0
   22.9478  -19.4835  -17.0575 N   0  0  0  0  0  0  0  0  0  0  0  0
   22.3975  -19.8434  -15.8842 C   0  0  0  0  0  0  0  0  0  0  0  0
   21.4786  -19.2626  -15.0332 C   0  0  0  0  0  0  0  0  0  0  0  0
   21.0742  -19.8667  -13.8514 C   0  0  0  0  0  0  0  0  0  0  0  0
   21.6252  -21.0920  -13.5384 C   0  0  0  0  0  0  0  0  0  0  0  0
   22.5478  -21.6756  -14.3923 C   0  0  0  0  0  0  0  0  0  0  0  0
   22.9486  -21.0689  -15.5711 C   0  0  0  0  0  0  0  0  0  0  0  0
   25.8853  -22.1504  -18.6197 C   0  0  0  0  0  0  0  0  0  0  0  0
   25.5009  -23.0364  -19.4166 O   0  0  0  0  0  0  0  0  0  0  0  0
   26.2103  -20.8864  -19.1514 O   0  0  0  0  0  0  0  0  0  0  0  0
  2  1  1  1
  2  3  1  0
  3  4  1  0
  4  5  2  0
  4  9  1  0
  5  6  1  0
  6  7  2  0
  8  7  1  0
  9  8  2  0
 10 12  1  0
 10  2  1  0
 11 10  2  0
 12 16  1  0
 13 12  1  0
 13 14  1  0
 14 15  1  0
 16 15  1  0
 17 19  1  0
 16 17  1  6
 18 17  2  0
 20 21  1  1
 20 19  1  0
 22 21  1  0
 22 30  1  0
 23 24  1  0
 23 22  2  0
 24 25  1  0
 25 30  2  0
 25 26  1  0
 26 27  2  0
 27 28  1  0
 29 28  2  0
 30 29  1  0
 31 20  1  0
 31 33  1  0
 32 31  2  0
M  END
$$$$
