FPW.pdb
     RDKit          3D

 33 36  0  0  1  0  0  0  0  0999 V2000
   28.0876  -20.3525  -16.5687 N   0  0  0  0  0  0  0  0  0  0  0  0
   27.9210  -20.4344  -15.1283 C   0  0  1  0  0  0  0  0  0  0  0  0
   28.2877  -19.0518  -14.5995 C   0  0  0  0  0  0  0  0  0  0  0  0
   27.7110  -18.0165  -15.4774 C   0  0  0  0  0  0  0  0  0  0  0  0
   28.1152  -17.9147  -16.7888 C   0  0  0  0  0  0  0  0  0  0  0  0
   27.5687  -16.9347  -17.6098 C   0  0  0  0  0  0  0  0  0  0  0  0
   26.6279  -16.0533  -17.1530 C   0  0  0  0  0  0  0  0  0  0  0  0
   26.2122  -16.1425  -15.8404 C   0  0  0  0  0  0  0  0  0  0  0  0
   26.7730  -17.1346  -15.0296 C   0  0  0  0  0  0  0  0  0  0  0  0
   26.5409  -20.8324  -14.7812 C   0  0  0  0  0  0  0  0  0  0  0  0
   25.7621  -21.0181  -15.7717 O   0  0  0  0  0  0  0  0  0  0  0  0
   26.0997  -20.9998  -13.4476 N   0  0  0  0  0  0  0  0  0  0  0  0
   26.8023  -20.6310  -12.2483 C   0  0  0  0  0  0  0  0  0  0  0  0
   25.9858  -21.1471  -11.0727 C   0  0  0  0  0  0  0  0  0  0  0  0
   25.0427  -22.1735  -11.6672 C   0  0  0  0  0  0  0  0  0  0  0  0
   24.8527  -21.5862  -13.0741 C   0  0  1  0  0  0  0  0  0  0  0  0
   23.7817  -20.5461  -12.8902 C   0  0  0  0  0  0  0  0  0  0  0  0
   24.1245  -19.4011  -12.5033 O   0  0  0  0  0  0  0  0  0  0  0  0
   22.4227  -20.7983  -13.1306 N   0  0  0  0  0  0  0  0  0  0  0  0
   21.3835  -19.7884  -13.1692 C   0  0  1  0  0  0  0  0  0  0  0  0
   21.5072  -18.8944  -14.3693 C   0  0  0  0  0  0  0  0  0  0  0  0
   21.5071  -19.7381  -15.5890 C   0  0  0  0  0  0  0  0  0  0  0  0
   20.5028  -20.5961  -16.0543 C   0  0  0  0  0  0  0  0  0  0  0  0
   20.9063  -21.1791  -17.1913 N   0  0  0  0  0  0  0  0  0  0  0  0
   22.1398  -20.7596  -17.5253 C   0  0  0  0  0  0  0  0  0  0  0  0
   23.0009  -21.0350  -18.5687 C   0  0  0  0  0  0  0  0  0  0  0  0
   24.2529  -20.4464  -18.6745 C   0  0  0  0  0  0  0  0  0  0  0  0
   24.6270  -19.5574  -17.6883 C   0  0  0  0  0  0  0  0  0  0  0  0
   23.7630  -19.2806  -16.6406 C   0  0  0  0  0  0  0  0  0  0  0  0
   22.5140  -19.8704  -16.5390 C   0  0  0  0  0  0  0  0  0  0  0  0
   20.0462  -20.4331  -13.1867 C   0  0  0  0  0  0  0  0  0  0  0  0
   19.8874  -21.6646  -13.3481 O   0  0  0  0  0  0  0  0  0  0  0  0
   18.8937  -19.6402  -13.0157 O   0  0  0  0  0  0  0  0  0  0  0  0
  2  1  1  6
  2  3  1  0
  3  4  1  0
  4  5  2  0
  4  9  1  0
  5  6  1  0
  6  7  2  0
  8  7  1  0
  9  8  2  0
 10 12  1  0
 10  2  1  0
 11 10  2  0
 12 16  1  0
 13 12  1  0
 13 14  1  0
 14 15  1  0
 16 15  1  0
 17 19  1  0
 16 17  1  1
 18 17  2  0
 20 21  1  6
 20 19  1  0
 22 21  1  0
 22 30  1  0
 23 24  1  0
 23 22  2  0
 24 25  1  0
 25 30  2  0
 25 26  1  0
 26 27  2  0
 27 28  1  0
 29 28  2  0
 30 29  1  0
 31 20  1  0
 31 33  1  0
 32 31  2  0
M  END
$$$$
