TMS.pdb
     RDKit          3D

 22 21  0  0  1  0  0  0  0  0999 V2000
   10.0466  -17.3019   18.8942 C   0  0  0  0  0  0  0  0  0  0  0  0
   10.1344  -16.3851   20.0943 C   0  0  1  0  0  0  0  0  0  0  0  0
    9.3751  -15.2433   19.8784 O   0  0  0  0  0  0  0  0  0  0  0  0
    9.5464  -17.1420   21.2888 C   0  0  2  0  0  0  0  0  0  0  0  0
    8.1515  -17.3867   20.9268 N   0  0  0  0  0  0  0  0  0  0  0  0
    9.6736  -16.3667   22.5339 C   0  0  0  0  0  0  0  0  0  0  0  0
   10.8161  -16.0448   22.9908 O   0  0  0  0  0  0  0  0  0  0  0  0
    6.6925  -11.3621   27.4830 C   0  0  0  0  0  0  0  0  0  0  0  0
    6.6092  -12.1446   25.8556 S   0  0  0  0  0  0  0  0  0  0  0  0
    7.2596  -13.8474   26.0363 C   0  0  0  0  0  0  0  0  0  0  0  0
    7.2627  -14.5688   24.7451 C   0  0  0  0  0  0  0  0  0  0  0  0
    8.5989  -15.2109   24.4736 C   0  0  2  0  0  0  0  0  0  0  0  0
    8.5115  -15.9793   23.2231 N   0  0  0  0  0  0  0  0  0  0  0  0
    8.9931  -16.0788   25.5801 C   0  0  0  0  0  0  0  0  0  0  0  0
    8.3508  -17.0910   25.9032 O   0  0  0  0  0  0  0  0  0  0  0  0
   12.5968  -16.4900   26.0718 O   0  0  0  0  0  0  0  0  0  0  0  0
   12.0534  -17.1434   27.1546 C   0  0  0  0  0  0  0  0  0  0  0  0
   10.6175  -16.6975   27.3855 C   0  0  2  0  0  0  0  0  0  0  0  0
   10.1706  -15.7920   26.3626 N   0  0  0  0  0  0  0  0  0  0  0  0
   10.4192  -16.0787   28.6981 C   0  0  0  0  0  0  0  0  0  0  0  0
    9.8964  -14.9300   28.8549 O   0  0  0  0  0  0  0  0  0  0  0  0
   10.7974  -16.7210   29.8826 O   0  0  0  0  0  0  0  0  0  0  0  0
  2  1  1  6
  2  3  1  0
  4  2  1  0
  4  5  1  6
  6  4  1  0
  6  7  2  0
  8  9  1  0
  9 10  1  0
 10 11  1  0
 12 11  1  1
 12 13  1  0
 12 14  1  0
 13  6  1  0
 14 15  2  0
 14 19  1  0
 16 17  1  0
 18 17  1  6
 18 20  1  0
 19 18  1  0
 20 21  2  0
 20 22  1  0
M  END
$$$$
