TMS.pdb
     RDKit          3D

 22 21  0  0  1  0  0  0  0  0999 V2000
    6.9167  -16.1386   20.0534 C   0  0  0  0  0  0  0  0  0  0  0  0
    7.6688  -14.9655   19.4649 C   0  0  1  0  0  0  0  0  0  0  0  0
    7.1765  -14.6690   18.2014 O   0  0  0  0  0  0  0  0  0  0  0  0
    7.4209  -13.7617   20.3787 C   0  0  2  0  0  0  0  0  0  0  0  0
    7.8811  -12.6071   19.6095 N   0  0  0  0  0  0  0  0  0  0  0  0
    8.1341  -13.9010   21.6593 C   0  0  0  0  0  0  0  0  0  0  0  0
    9.3876  -13.6999   21.7357 O   0  0  0  0  0  0  0  0  0  0  0  0
    7.2824  -11.8064   27.8019 C   0  0  0  0  0  0  0  0  0  0  0  0
    5.9989  -11.7624   26.5298 S   0  0  0  0  0  0  0  0  0  0  0  0
    6.7228  -12.4663   25.0015 C   0  0  0  0  0  0  0  0  0  0  0  0
    7.1057  -13.8834   25.1830 C   0  0  0  0  0  0  0  0  0  0  0  0
    8.0756  -14.3344   24.1213 C   0  0  2  0  0  0  0  0  0  0  0  0
    7.4132  -14.2617   22.8107 N   0  0  0  0  0  0  0  0  0  0  0  0
    8.5394  -15.6941   24.3847 C   0  0  0  0  0  0  0  0  0  0  0  0
    7.8255  -16.6945   24.2086 O   0  0  0  0  0  0  0  0  0  0  0  0
   11.7049  -16.9771   23.1392 O   0  0  0  0  0  0  0  0  0  0  0  0
   11.6980  -17.5085   24.4089 C   0  0  0  0  0  0  0  0  0  0  0  0
   10.3520  -17.2792   25.0794 C   0  0  2  0  0  0  0  0  0  0  0  0
    9.8752  -15.9394   24.8711 N   0  0  0  0  0  0  0  0  0  0  0  0
   10.3771  -17.5647   26.5157 C   0  0  0  0  0  0  0  0  0  0  0  0
   10.0335  -16.7181   27.4004 O   0  0  0  0  0  0  0  0  0  0  0  0
   10.7867  -18.8062   27.0153 O   0  0  0  0  0  0  0  0  0  0  0  0
  2  1  1  1
  2  3  1  0
  4  2  1  0
  4  5  1  6
  6  4  1  0
  6  7  2  0
  8  9  1  0
  9 10  1  0
 10 11  1  0
 12 11  1  1
 12 13  1  0
 12 14  1  0
 13  6  1  0
 14 15  2  0
 14 19  1  0
 16 17  1  0
 18 17  1  1
 18 20  1  0
 19 18  1  0
 20 21  2  0
 20 22  1  0
M  END
$$$$
