TMS.pdb
     RDKit          3D

 22 21  0  0  1  0  0  0  0  0999 V2000
    6.9079  -14.1315   17.5238 C   0  0  0  0  0  0  0  0  0  0  0  0
    7.4327  -14.5354   18.8839 C   0  0  1  0  0  0  0  0  0  0  0  0
    8.6208  -15.2398   18.7464 O   0  0  0  0  0  0  0  0  0  0  0  0
    7.7176  -13.2475   19.6621 C   0  0  2  0  0  0  0  0  0  0  0  0
    8.6387  -12.4937   18.8136 N   0  0  0  0  0  0  0  0  0  0  0  0
    8.2870  -13.5343   20.9892 C   0  0  0  0  0  0  0  0  0  0  0  0
    9.5418  -13.6673   21.1483 O   0  0  0  0  0  0  0  0  0  0  0  0
    7.2610  -12.3052   28.5625 C   0  0  0  0  0  0  0  0  0  0  0  0
    6.3822  -12.4403   26.9887 S   0  0  0  0  0  0  0  0  0  0  0  0
    7.4880  -13.3176   25.8212 C   0  0  0  0  0  0  0  0  0  0  0  0
    6.9649  -13.2736   24.4385 C   0  0  0  0  0  0  0  0  0  0  0  0
    7.9630  -13.8230   23.4519 C   0  0  2  0  0  0  0  0  0  0  0  0
    7.4259  -13.6615   22.0928 N   0  0  0  0  0  0  0  0  0  0  0  0
    8.2449  -15.2296   23.7262 C   0  0  0  0  0  0  0  0  0  0  0  0
    7.7350  -16.1571   23.0771 O   0  0  0  0  0  0  0  0  0  0  0  0
   10.3536  -17.7757   22.6359 O   0  0  0  0  0  0  0  0  0  0  0  0
   10.8274  -16.9991   23.6689 C   0  0  0  0  0  0  0  0  0  0  0  0
    9.7936  -16.8945   24.7798 C   0  0  2  0  0  0  0  0  0  0  0  0
    9.1469  -15.6109   24.7854 N   0  0  0  0  0  0  0  0  0  0  0  0
   10.3568  -17.1570   26.1061 C   0  0  0  0  0  0  0  0  0  0  0  0
   10.3917  -16.2867   27.0328 O   0  0  0  0  0  0  0  0  0  0  0  0
   10.9008  -18.4011   26.4450 O   0  0  0  0  0  0  0  0  0  0  0  0
  2  1  1  6
  2  3  1  0
  4  2  1  0
  4  5  1  6
  6  4  1  0
  6  7  2  0
  8  9  1  0
  9 10  1  0
 10 11  1  0
 12 11  1  1
 12 13  1  0
 12 14  1  0
 13  6  1  0
 14 15  2  0
 14 19  1  0
 16 17  1  0
 18 17  1  6
 18 20  1  0
 19 18  1  0
 20 21  2  0
 20 22  1  0
M  END
$$$$
