TMS.pdb
     RDKit          3D

 22 21  0  0  1  0  0  0  0  0999 V2000
    7.0504  -15.9547   19.6747 C   0  0  0  0  0  0  0  0  0  0  0  0
    7.8850  -14.8114   19.1410 C   0  0  1  0  0  0  0  0  0  0  0  0
    7.4523  -14.4581   17.8703 O   0  0  0  0  0  0  0  0  0  0  0  0
    7.6727  -13.6178   20.0769 C   0  0  2  0  0  0  0  0  0  0  0  0
    8.2427  -12.4767   19.3631 N   0  0  0  0  0  0  0  0  0  0  0  0
    8.3138  -13.8370   21.3841 C   0  0  0  0  0  0  0  0  0  0  0  0
    9.5798  -13.8167   21.5039 O   0  0  0  0  0  0  0  0  0  0  0  0
    6.2738  -10.3763   26.9560 C   0  0  0  0  0  0  0  0  0  0  0  0
    6.1753  -12.1639   26.7065 S   0  0  0  0  0  0  0  0  0  0  0  0
    7.0893  -12.5499   25.1668 C   0  0  0  0  0  0  0  0  0  0  0  0
    7.1195  -14.0047   24.9018 C   0  0  0  0  0  0  0  0  0  0  0  0
    8.1141  -14.3498   23.8234 C   0  0  2  0  0  0  0  0  0  0  0  0
    7.5092  -14.0714   22.5125 N   0  0  0  0  0  0  0  0  0  0  0  0
    8.5141  -15.7516   23.9142 C   0  0  0  0  0  0  0  0  0  0  0  0
    7.7243  -16.6904   23.7234 O   0  0  0  0  0  0  0  0  0  0  0  0
   12.4313  -16.7630   23.5129 O   0  0  0  0  0  0  0  0  0  0  0  0
   11.4733  -17.7356   23.3377 C   0  0  0  0  0  0  0  0  0  0  0  0
   10.2856  -17.4909   24.2561 C   0  0  2  0  0  0  0  0  0  0  0  0
    9.8726  -16.1143   24.2364 N   0  0  0  0  0  0  0  0  0  0  0  0
   10.5442  -17.8974   25.6392 C   0  0  0  0  0  0  0  0  0  0  0  0
   10.4464  -17.1041   26.6284 O   0  0  0  0  0  0  0  0  0  0  0  0
   10.9210  -19.2048   25.9671 O   0  0  0  0  0  0  0  0  0  0  0  0
  2  1  1  1
  2  3  1  0
  4  2  1  0
  4  5  1  6
  6  4  1  0
  6  7  2  0
  8  9  1  0
  9 10  1  0
 10 11  1  0
 12 11  1  1
 12 13  1  0
 12 14  1  0
 13  6  1  0
 14 15  2  0
 14 19  1  0
 16 17  1  0
 18 17  1  6
 18 20  1  0
 19 18  1  0
 20 21  2  0
 20 22  1  0
M  END
$$$$
