TMS.pdb
     RDKit          3D

 22 21  0  0  1  0  0  0  0  0999 V2000
    7.1837  -16.1399   19.7530 C   0  0  0  0  0  0  0  0  0  0  0  0
    7.8791  -14.9266   19.1763 C   0  0  1  0  0  0  0  0  0  0  0  0
    7.3931  -14.6584   17.9041 O   0  0  0  0  0  0  0  0  0  0  0  0
    7.5483  -13.7385   20.0843 C   0  0  2  0  0  0  0  0  0  0  0  0
    7.9441  -12.5593   19.3165 N   0  0  0  0  0  0  0  0  0  0  0  0
    8.2556  -13.8308   21.3722 C   0  0  0  0  0  0  0  0  0  0  0  0
    9.5056  -13.6093   21.4499 O   0  0  0  0  0  0  0  0  0  0  0  0
    7.3138  -11.7473   27.5866 C   0  0  0  0  0  0  0  0  0  0  0  0
    6.0676  -11.8001   26.2784 S   0  0  0  0  0  0  0  0  0  0  0  0
    6.8879  -12.4393   24.7704 C   0  0  0  0  0  0  0  0  0  0  0  0
    7.2637  -13.8623   24.9167 C   0  0  0  0  0  0  0  0  0  0  0  0
    8.2101  -14.2990   23.8282 C   0  0  2  0  0  0  0  0  0  0  0  0
    7.5332  -14.1688   22.5295 N   0  0  0  0  0  0  0  0  0  0  0  0
    8.6471  -15.6763   24.0408 C   0  0  0  0  0  0  0  0  0  0  0  0
    7.9090  -16.6547   23.8420 O   0  0  0  0  0  0  0  0  0  0  0  0
   11.8120  -16.9679   22.6620 O   0  0  0  0  0  0  0  0  0  0  0  0
   11.8195  -17.4858   23.9372 C   0  0  0  0  0  0  0  0  0  0  0  0
   10.4564  -17.3205   24.5918 C   0  0  2  0  0  0  0  0  0  0  0  0
    9.9832  -15.9664   24.5008 N   0  0  0  0  0  0  0  0  0  0  0  0
   10.4449  -17.7426   25.9942 C   0  0  0  0  0  0  0  0  0  0  0  0
   10.0651  -16.9888   26.9455 O   0  0  0  0  0  0  0  0  0  0  0  0
   10.8571  -19.0219   26.3844 O   0  0  0  0  0  0  0  0  0  0  0  0
  2  1  1  1
  2  3  1  0
  4  2  1  0
  4  5  1  6
  6  4  1  0
  6  7  2  0
  8  9  1  0
  9 10  1  0
 10 11  1  0
 12 11  1  1
 12 13  1  0
 12 14  1  0
 13  6  1  0
 14 15  2  0
 14 19  1  0
 16 17  1  0
 18 17  1  1
 18 20  1  0
 19 18  1  0
 20 21  2  0
 20 22  1  0
M  END
$$$$
