TMS.pdb
     RDKit          3D

 22 21  0  0  1  0  0  0  0  0999 V2000
    7.2809  -16.3374   20.1221 C   0  0  0  0  0  0  0  0  0  0  0  0
    7.9035  -15.1336   19.4500 C   0  0  1  0  0  0  0  0  0  0  0  0
    7.3709  -14.9690   18.1787 O   0  0  0  0  0  0  0  0  0  0  0  0
    7.5429  -13.9058   20.2915 C   0  0  2  0  0  0  0  0  0  0  0  0
    7.9186  -12.7613   19.4635 N   0  0  0  0  0  0  0  0  0  0  0  0
    8.2447  -13.9143   21.5858 C   0  0  0  0  0  0  0  0  0  0  0  0
    9.5106  -13.8057   21.6447 O   0  0  0  0  0  0  0  0  0  0  0  0
    5.7824  -12.0674   27.5739 C   0  0  0  0  0  0  0  0  0  0  0  0
    7.1367  -11.2773   26.6744 S   0  0  0  0  0  0  0  0  0  0  0  0
    7.2284  -12.0674   25.0244 C   0  0  0  0  0  0  0  0  0  0  0  0
    7.2755  -13.5420   25.1287 C   0  0  0  0  0  0  0  0  0  0  0  0
    8.1699  -14.1427   24.0748 C   0  0  2  0  0  0  0  0  0  0  0  0
    7.4991  -14.0443   22.7701 N   0  0  0  0  0  0  0  0  0  0  0  0
    8.4783  -15.5357   24.3870 C   0  0  0  0  0  0  0  0  0  0  0  0
    7.6080  -16.4185   24.4559 O   0  0  0  0  0  0  0  0  0  0  0  0
   12.4562  -16.9235   24.3993 O   0  0  0  0  0  0  0  0  0  0  0  0
   11.4044  -17.7593   24.0998 C   0  0  0  0  0  0  0  0  0  0  0  0
   10.1532  -17.3399   24.8563 C   0  0  2  0  0  0  0  0  0  0  0  0
    9.8361  -15.9557   24.6343 N   0  0  0  0  0  0  0  0  0  0  0  0
   10.2506  -17.5876   26.2966 C   0  0  0  0  0  0  0  0  0  0  0  0
   10.1443  -16.6695   27.1702 O   0  0  0  0  0  0  0  0  0  0  0  0
   10.4701  -18.8699   26.8127 O   0  0  0  0  0  0  0  0  0  0  0  0
  2  1  1  1
  2  3  1  0
  4  2  1  0
  4  5  1  6
  6  4  1  0
  6  7  2  0
  8  9  1  0
  9 10  1  0
 10 11  1  0
 12 11  1  1
 12 13  1  0
 12 14  1  0
 13  6  1  0
 14 15  2  0
 14 19  1  0
 16 17  1  0
 18 17  1  6
 18 20  1  0
 19 18  1  0
 20 21  2  0
 20 22  1  0
M  END
$$$$
