TMS.pdb
     RDKit          3D

 22 21  0  0  1  0  0  0  0  0999 V2000
    6.9781  -18.1866   20.8863 C   0  0  0  0  0  0  0  0  0  0  0  0
    7.8660  -17.5560   19.8363 C   0  0  1  0  0  0  0  0  0  0  0  0
    7.4146  -17.8903   18.5670 O   0  0  0  0  0  0  0  0  0  0  0  0
    7.7623  -16.0373   20.0055 C   0  0  2  0  0  0  0  0  0  0  0  0
    8.4094  -15.4836   18.8176 N   0  0  0  0  0  0  0  0  0  0  0  0
    8.4039  -15.5888   21.2525 C   0  0  0  0  0  0  0  0  0  0  0  0
    9.6705  -15.5620   21.3641 O   0  0  0  0  0  0  0  0  0  0  0  0
    7.2532  -11.6946   27.9722 C   0  0  0  0  0  0  0  0  0  0  0  0
    6.4396  -12.3963   26.5185 S   0  0  0  0  0  0  0  0  0  0  0  0
    7.7001  -13.3565   25.5996 C   0  0  0  0  0  0  0  0  0  0  0  0
    7.1618  -13.8834   24.3267 C   0  0  0  0  0  0  0  0  0  0  0  0
    8.2027  -14.6656   23.5678 C   0  0  2  0  0  0  0  0  0  0  0  0
    7.5991  -15.1852   22.3319 N   0  0  0  0  0  0  0  0  0  0  0  0
    8.7254  -15.7606   24.3807 C   0  0  0  0  0  0  0  0  0  0  0  0
    8.0534  -16.7636   24.6707 O   0  0  0  0  0  0  0  0  0  0  0  0
   12.2022  -17.3013   23.8713 O   0  0  0  0  0  0  0  0  0  0  0  0
   12.0796  -17.0889   25.2257 C   0  0  0  0  0  0  0  0  0  0  0  0
   10.6259  -16.8461   25.6016 C   0  0  2  0  0  0  0  0  0  0  0  0
   10.0734  -15.7242   24.8931 N   0  0  0  0  0  0  0  0  0  0  0  0
   10.4367  -16.6488   27.0405 C   0  0  0  0  0  0  0  0  0  0  0  0
    9.9038  -15.6061   27.5366 O   0  0  0  0  0  0  0  0  0  0  0  0
   10.8358  -17.6094   27.9768 O   0  0  0  0  0  0  0  0  0  0  0  0
  2  1  1  1
  2  3  1  0
  4  2  1  0
  4  5  1  6
  6  4  1  0
  6  7  2  0
  8  9  1  0
  9 10  1  0
 10 11  1  0
 12 11  1  1
 12 13  1  0
 12 14  1  0
 13  6  1  0
 14 15  2  0
 14 19  1  0
 16 17  1  0
 18 17  1  1
 18 20  1  0
 19 18  1  0
 20 21  2  0
 20 22  1  0
M  END
$$$$
