TMS.pdb
     RDKit          3D

 22 21  0  0  1  0  0  0  0  0999 V2000
    7.0803  -16.6281   20.2407 C   0  0  0  0  0  0  0  0  0  0  0  0
    7.7968  -15.5588   19.4461 C   0  0  1  0  0  0  0  0  0  0  0  0
    7.2754  -15.4898   18.1615 O   0  0  0  0  0  0  0  0  0  0  0  0
    7.5404  -14.2219   20.1480 C   0  0  2  0  0  0  0  0  0  0  0  0
    8.0463  -13.2103   19.2221 N   0  0  0  0  0  0  0  0  0  0  0  0
    8.2081  -14.1645   21.4589 C   0  0  0  0  0  0  0  0  0  0  0  0
    9.4672  -14.0073   21.5458 O   0  0  0  0  0  0  0  0  0  0  0  0
    6.7589  -10.9289   27.0549 C   0  0  0  0  0  0  0  0  0  0  0  0
    6.6308  -12.6839   27.4687 S   0  0  0  0  0  0  0  0  0  0  0  0
    7.7051  -13.5985   26.3003 C   0  0  0  0  0  0  0  0  0  0  0  0
    7.1412  -13.6045   24.9330 C   0  0  0  0  0  0  0  0  0  0  0  0
    8.0728  -14.2709   23.9536 C   0  0  2  0  0  0  0  0  0  0  0  0
    7.4371  -14.2856   22.6279 N   0  0  0  0  0  0  0  0  0  0  0  0
    8.3921  -15.6301   24.3822 C   0  0  0  0  0  0  0  0  0  0  0  0
    7.5727  -16.5615   24.3320 O   0  0  0  0  0  0  0  0  0  0  0  0
   11.0642  -17.6438   23.1862 O   0  0  0  0  0  0  0  0  0  0  0  0
   11.2162  -17.8481   24.5389 C   0  0  0  0  0  0  0  0  0  0  0  0
   10.0218  -17.2968   25.3026 C   0  0  2  0  0  0  0  0  0  0  0  0
    9.7010  -15.9568   24.8933 N   0  0  0  0  0  0  0  0  0  0  0  0
   10.2137  -17.3250   26.7543 C   0  0  0  0  0  0  0  0  0  0  0  0
   10.1519  -16.2863   27.4856 O   0  0  0  0  0  0  0  0  0  0  0  0
   10.4815  -18.5145   27.4413 O   0  0  0  0  0  0  0  0  0  0  0  0
  2  1  1  1
  2  3  1  0
  4  2  1  0
  4  5  1  6
  6  4  1  0
  6  7  2  0
  8  9  1  0
  9 10  1  0
 10 11  1  0
 12 11  1  1
 12 13  1  0
 12 14  1  0
 13  6  1  0
 14 15  2  0
 14 19  1  0
 16 17  1  0
 18 17  1  6
 18 20  1  0
 19 18  1  0
 20 21  2  0
 20 22  1  0
M  END
$$$$
