TMS.pdb
     RDKit          3D

 22 21  0  0  1  0  0  0  0  0999 V2000
    6.4828  -16.8951   19.4229 C   0  0  0  0  0  0  0  0  0  0  0  0
    7.2632  -16.7093   20.7053 C   0  0  1  0  0  0  0  0  0  0  0  0
    8.5128  -17.3032   20.5932 O   0  0  0  0  0  0  0  0  0  0  0  0
    7.4563  -15.2033   20.9061 C   0  0  2  0  0  0  0  0  0  0  0  0
    8.1779  -14.7567   19.7160 N   0  0  0  0  0  0  0  0  0  0  0  0
    8.1927  -14.9150   22.1480 C   0  0  0  0  0  0  0  0  0  0  0  0
    9.4627  -14.8468   22.1550 O   0  0  0  0  0  0  0  0  0  0  0  0
    7.1186  -11.5905   27.9828 C   0  0  0  0  0  0  0  0  0  0  0  0
    6.0768  -11.6056   26.5057 S   0  0  0  0  0  0  0  0  0  0  0  0
    6.9883  -12.5194   25.2059 C   0  0  0  0  0  0  0  0  0  0  0  0
    7.2717  -13.9118   25.6164 C   0  0  0  0  0  0  0  0  0  0  0  0
    8.1744  -14.6064   24.6294 C   0  0  2  0  0  0  0  0  0  0  0  0
    7.4759  -14.7127   23.3399 N   0  0  0  0  0  0  0  0  0  0  0  0
    8.5548  -15.9302   25.1151 C   0  0  0  0  0  0  0  0  0  0  0  0
    7.7629  -16.8857   25.1546 O   0  0  0  0  0  0  0  0  0  0  0  0
   12.5241  -16.9941   25.2080 O   0  0  0  0  0  0  0  0  0  0  0  0
   11.5382  -17.9518   25.1338 C   0  0  0  0  0  0  0  0  0  0  0  0
   10.3122  -17.5225   25.9254 C   0  0  2  0  0  0  0  0  0  0  0  0
    9.8953  -16.1911   25.5800 N   0  0  0  0  0  0  0  0  0  0  0  0
   10.5141  -17.6045   27.3737 C   0  0  0  0  0  0  0  0  0  0  0  0
   10.3452  -16.6174   28.1577 O   0  0  0  0  0  0  0  0  0  0  0  0
   10.9116  -18.7921   27.9984 O   0  0  0  0  0  0  0  0  0  0  0  0
  2  1  1  6
  2  3  1  0
  4  2  1  0
  4  5  1  6
  6  4  1  0
  6  7  2  0
  8  9  1  0
  9 10  1  0
 10 11  1  0
 12 11  1  1
 12 13  1  0
 12 14  1  0
 13  6  1  0
 14 15  2  0
 14 19  1  0
 16 17  1  0
 18 17  1  6
 18 20  1  0
 19 18  1  0
 20 21  2  0
 20 22  1  0
M  END
$$$$
