TMS.pdb
     RDKit          3D

 22 21  0  0  1  0  0  0  0  0999 V2000
    7.0940  -16.9238   19.1831 C   0  0  0  0  0  0  0  0  0  0  0  0
    7.6061  -16.8833   20.6059 C   0  0  1  0  0  0  0  0  0  0  0  0
    8.5703  -17.8640   20.7936 O   0  0  0  0  0  0  0  0  0  0  0  0
    8.2578  -15.5133   20.8159 C   0  0  2  0  0  0  0  0  0  0  0  0
    9.3622  -15.4739   19.8591 N   0  0  0  0  0  0  0  0  0  0  0  0
    8.7145  -15.3407   22.2049 C   0  0  0  0  0  0  0  0  0  0  0  0
    9.9446  -15.4524   22.5082 O   0  0  0  0  0  0  0  0  0  0  0  0
    7.5113  -11.9217   27.6123 C   0  0  0  0  0  0  0  0  0  0  0  0
    6.3904  -11.6804   26.2149 S   0  0  0  0  0  0  0  0  0  0  0  0
    6.9349  -12.8092   24.8790 C   0  0  0  0  0  0  0  0  0  0  0  0
    7.1037  -14.1937   25.3712 C   0  0  0  0  0  0  0  0  0  0  0  0
    8.1826  -14.9227   24.6122 C   0  0  2  0  0  0  0  0  0  0  0  0
    7.7723  -15.0480   23.2059 N   0  0  0  0  0  0  0  0  0  0  0  0
    8.4267  -16.2406   25.1926 C   0  0  0  0  0  0  0  0  0  0  0  0
    7.5656  -17.1347   25.2180 O   0  0  0  0  0  0  0  0  0  0  0  0
   12.2086  -17.6869   25.3147 O   0  0  0  0  0  0  0  0  0  0  0  0
   11.1188  -18.5261   25.3657 C   0  0  0  0  0  0  0  0  0  0  0  0
   10.0043  -17.9088   26.1969 C   0  0  2  0  0  0  0  0  0  0  0  0
    9.7056  -16.5680   25.7741 N   0  0  0  0  0  0  0  0  0  0  0  0
   10.2995  -17.9081   27.6314 C   0  0  0  0  0  0  0  0  0  0  0  0
   10.2782  -16.8566   28.3465 O   0  0  0  0  0  0  0  0  0  0  0  0
   10.6290  -19.0818   28.3187 O   0  0  0  0  0  0  0  0  0  0  0  0
  2  1  1  6
  2  3  1  0
  4  2  1  0
  4  5  1  6
  6  4  1  0
  6  7  2  0
  8  9  1  0
  9 10  1  0
 10 11  1  0
 12 11  1  1
 12 13  1  0
 12 14  1  0
 13  6  1  0
 14 15  2  0
 14 19  1  0
 16 17  1  0
 18 17  1  6
 18 20  1  0
 19 18  1  0
 20 21  2  0
 20 22  1  0
M  END
$$$$
