TMS.pdb
     RDKit          3D

 22 21  0  0  1  0  0  0  0  0999 V2000
    6.6104  -17.6768   21.0473 C   0  0  0  0  0  0  0  0  0  0  0  0
    7.7184  -17.2920   20.0920 C   0  0  1  0  0  0  0  0  0  0  0  0
    7.3458  -17.5846   18.7873 O   0  0  0  0  0  0  0  0  0  0  0  0
    7.9185  -15.7785   20.2134 C   0  0  2  0  0  0  0  0  0  0  0  0
    8.8429  -15.4356   19.1343 N   0  0  0  0  0  0  0  0  0  0  0  0
    8.4433  -15.4086   21.5384 C   0  0  0  0  0  0  0  0  0  0  0  0
    9.6671  -15.5919   21.8321 O   0  0  0  0  0  0  0  0  0  0  0  0
    6.9278  -11.6079   28.2487 C   0  0  0  0  0  0  0  0  0  0  0  0
    6.2534  -12.0740   26.6377 S   0  0  0  0  0  0  0  0  0  0  0  0
    7.4277  -13.2565   25.8774 C   0  0  0  0  0  0  0  0  0  0  0  0
    7.0190  -13.6225   24.5038 C   0  0  0  0  0  0  0  0  0  0  0  0
    8.0574  -14.4809   23.8282 C   0  0  2  0  0  0  0  0  0  0  0  0
    7.5741  -14.8448   22.4881 N   0  0  0  0  0  0  0  0  0  0  0  0
    8.3328  -15.6800   24.6152 C   0  0  0  0  0  0  0  0  0  0  0  0
    7.4918  -16.5759   24.7932 O   0  0  0  0  0  0  0  0  0  0  0  0
   12.1846  -17.1577   24.9904 O   0  0  0  0  0  0  0  0  0  0  0  0
   11.0171  -17.8842   25.0514 C   0  0  0  0  0  0  0  0  0  0  0  0
    9.9594  -17.1347   25.8474 C   0  0  2  0  0  0  0  0  0  0  0  0
    9.6209  -15.8802   25.2331 N   0  0  0  0  0  0  0  0  0  0  0  0
   10.3555  -16.8999   27.2378 C   0  0  0  0  0  0  0  0  0  0  0  0
   10.7465  -17.8261   28.0167 O   0  0  0  0  0  0  0  0  0  0  0  0
   10.3293  -15.6220   27.8079 O   0  0  0  0  0  0  0  0  0  0  0  0
  2  1  1  1
  2  3  1  0
  4  2  1  0
  4  5  1  6
  6  4  1  0
  6  7  2  0
  8  9  1  0
  9 10  1  0
 10 11  1  0
 12 11  1  1
 12 13  1  0
 12 14  1  0
 13  6  1  0
 14 15  2  0
 14 19  1  0
 16 17  1  0
 18 17  1  6
 18 20  1  0
 19 18  1  0
 20 21  2  0
 20 22  1  0
M  END
$$$$
