TMS.pdb
     RDKit          3D

 22 21  0  0  1  0  0  0  0  0999 V2000
   10.0882  -16.3614   19.4654 C   0  0  0  0  0  0  0  0  0  0  0  0
    8.6406  -15.9627   19.6495 C   0  0  1  0  0  0  0  0  0  0  0  0
    7.9100  -16.2824   18.5134 O   0  0  0  0  0  0  0  0  0  0  0  0
    8.0914  -16.7749   20.8261 C   0  0  2  0  0  0  0  0  0  0  0  0
    6.6453  -16.5661   20.7820 N   0  0  0  0  0  0  0  0  0  0  0  0
    8.6807  -16.3400   22.1033 C   0  0  0  0  0  0  0  0  0  0  0  0
    9.9286  -16.4544   22.3210 O   0  0  0  0  0  0  0  0  0  0  0  0
    6.5920  -11.3781   25.6376 C   0  0  0  0  0  0  0  0  0  0  0  0
    6.8896  -12.5429   26.9875 S   0  0  0  0  0  0  0  0  0  0  0  0
    7.9323  -13.8935   26.3212 C   0  0  0  0  0  0  0  0  0  0  0  0
    7.4522  -14.3501   24.9988 C   0  0  0  0  0  0  0  0  0  0  0  0
    8.3989  -15.3468   24.3808 C   0  0  2  0  0  0  0  0  0  0  0  0
    7.8468  -15.7906   23.0924 N   0  0  0  0  0  0  0  0  0  0  0  0
    8.6048  -16.4880   25.2688 C   0  0  0  0  0  0  0  0  0  0  0  0
    7.6860  -17.2511   25.6079 O   0  0  0  0  0  0  0  0  0  0  0  0
   12.2577  -18.3624   25.5292 O   0  0  0  0  0  0  0  0  0  0  0  0
   11.0508  -18.9528   25.8282 C   0  0  0  0  0  0  0  0  0  0  0  0
   10.1452  -17.9790   26.5667 C   0  0  2  0  0  0  0  0  0  0  0  0
    9.9120  -16.7847   25.8018 N   0  0  0  0  0  0  0  0  0  0  0  0
   10.6619  -17.6131   27.8874 C   0  0  0  0  0  0  0  0  0  0  0  0
   10.8959  -16.4125   28.2358 O   0  0  0  0  0  0  0  0  0  0  0  0
   10.9354  -18.5750   28.8665 O   0  0  0  0  0  0  0  0  0  0  0  0
  2  1  1  6
  2  3  1  0
  4  2  1  0
  4  5  1  1
  6  4  1  0
  6  7  2  0
  8  9  1  0
  9 10  1  0
 10 11  1  0
 12 11  1  1
 12 13  1  0
 12 14  1  0
 13  6  1  0
 14 15  2  0
 14 19  1  0
 16 17  1  0
 18 17  1  6
 18 20  1  0
 19 18  1  0
 20 21  2  0
 20 22  1  0
M  END
$$$$
