TMS.pdb
     RDKit          3D

 22 21  0  0  1  0  0  0  0  0999 V2000
    7.3050  -18.1155   21.2493 C   0  0  0  0  0  0  0  0  0  0  0  0
    8.2735  -17.4827   20.2747 C   0  0  1  0  0  0  0  0  0  0  0  0
    7.8690  -17.7325   18.9706 O   0  0  0  0  0  0  0  0  0  0  0  0
    8.2372  -15.9705   20.5145 C   0  0  2  0  0  0  0  0  0  0  0  0
    9.0371  -15.4008   19.4318 N   0  0  0  0  0  0  0  0  0  0  0  0
    8.7662  -15.6226   21.8437 C   0  0  0  0  0  0  0  0  0  0  0  0
    9.9989  -15.7741   22.1178 O   0  0  0  0  0  0  0  0  0  0  0  0
    6.7971  -10.9980   26.5082 C   0  0  0  0  0  0  0  0  0  0  0  0
    6.5046  -12.6638   27.1460 S   0  0  0  0  0  0  0  0  0  0  0  0
    7.6928  -13.7820   26.3134 C   0  0  0  0  0  0  0  0  0  0  0  0
    7.3139  -14.0276   24.9049 C   0  0  0  0  0  0  0  0  0  0  0  0
    8.3674  -14.8251   24.1799 C   0  0  2  0  0  0  0  0  0  0  0  0
    7.8909  -15.1157   22.8197 N   0  0  0  0  0  0  0  0  0  0  0  0
    8.6638  -16.0646   24.8932 C   0  0  0  0  0  0  0  0  0  0  0  0
    7.8291  -16.9716   25.0417 O   0  0  0  0  0  0  0  0  0  0  0  0
   11.4421  -18.3041   24.2357 O   0  0  0  0  0  0  0  0  0  0  0  0
   11.5186  -18.1839   25.6048 C   0  0  0  0  0  0  0  0  0  0  0  0
   10.2658  -17.5203   26.1562 C   0  0  2  0  0  0  0  0  0  0  0  0
    9.9666  -16.2942   25.4685 N   0  0  0  0  0  0  0  0  0  0  0  0
   10.3479  -17.2592   27.5950 C   0  0  0  0  0  0  0  0  0  0  0  0
   10.5896  -18.1647   28.4547 O   0  0  0  0  0  0  0  0  0  0  0  0
   10.1633  -15.9771   28.1251 O   0  0  0  0  0  0  0  0  0  0  0  0
  2  1  1  1
  2  3  1  0
  4  2  1  0
  4  5  1  6
  6  4  1  0
  6  7  2  0
  8  9  1  0
  9 10  1  0
 10 11  1  0
 12 11  1  1
 12 13  1  0
 12 14  1  0
 13  6  1  0
 14 15  2  0
 14 19  1  0
 16 17  1  0
 18 17  1  6
 18 20  1  0
 19 18  1  0
 20 21  2  0
 20 22  1  0
M  END
$$$$
