DTK.pdb
     RDKit          3D

 25 24  0  0  1  0  0  0  0  0999 V2000
   24.8915  -12.0445  -19.2674 N   0  0  0  0  0  0  0  0  0  0  0  0
   24.1520  -12.7896  -18.2656 C   0  0  1  0  0  0  0  0  0  0  0  0
   24.9819  -13.9184  -17.6912 C   0  0  0  0  0  0  0  0  0  0  0  0
   25.3190  -14.8654  -18.7946 C   0  0  0  0  0  0  0  0  0  0  0  0
   26.3518  -14.7712  -19.4742 O   0  0  0  0  0  0  0  0  0  0  0  0
   23.7208  -11.8943  -17.1533 C   0  0  0  0  0  0  0  0  0  0  0  0
   23.2003  -12.3322  -16.1047 O   0  0  0  0  0  0  0  0  0  0  0  0
   24.3917  -15.8846  -19.0270 O   0  0  0  0  0  0  0  0  0  0  0  0
   24.7878   -7.6613  -17.5083 C   0  0  0  0  0  0  0  0  0  0  0  0
   24.5296   -8.3647  -16.1926 C   0  0  1  0  0  0  0  0  0  0  0  0
   24.2772   -7.5053  -15.1660 O   0  0  0  0  0  0  0  0  0  0  0  0
   23.5530   -9.5090  -16.3501 C   0  0  2  0  0  0  0  0  0  0  0  0
   23.9072  -10.5059  -17.2901 N   0  0  0  0  0  0  0  0  0  0  0  0
   22.2097   -8.9024  -16.5592 C   0  0  0  0  0  0  0  0  0  0  0  0
   21.9052   -8.5199  -17.7184 O   0  0  0  0  0  0  0  0  0  0  0  0
   21.2542   -8.7248  -15.5514 N   0  0  0  0  0  0  0  0  0  0  0  0
   19.9296   -8.0201  -15.8232 C   0  0  1  0  0  0  0  0  0  0  0  0
   18.8708   -8.9719  -15.4431 C   0  0  0  0  0  0  0  0  0  0  0  0
   17.4661   -8.5954  -15.4830 C   0  0  0  0  0  0  0  0  0  0  0  0
   16.3636   -9.5033  -15.1379 C   0  0  0  0  0  0  0  0  0  0  0  0
   14.9992   -8.7515  -15.3370 C   0  0  0  0  0  0  0  0  0  0  0  0
   13.9698   -9.7398  -15.0843 N   0  0  0  0  0  0  0  0  0  0  0  0
   20.0798   -6.8302  -14.9711 C   0  0  0  0  0  0  0  0  0  0  0  0
   19.0607   -6.0729  -14.7787 O   0  0  0  0  0  0  0  0  0  0  0  0
   21.2154   -6.4286  -14.3350 O   0  0  0  0  0  0  0  0  0  0  0  0
  2  1  1  6
  3  2  1  0
  4  3  1  0
  5  4  2  0
  6  2  1  0
  7  6  2  0
  8  4  1  0
 10  9  1  6
 10 12  1  0
 11 10  1  0
 12 14  1  0
 12 13  1  6
 13  6  1  0
 14 16  1  0
 15 14  2  0
 16 17  1  0
 17 18  1  1
 17 23  1  0
 18 19  1  0
 20 19  1  0
 21 22  1  0
 21 20  1  0
 23 24  2  0
 23 25  1  0
M  END
$$$$
