DTK.pdb
     RDKit          3D

 25 24  0  0  1  0  0  0  0  0999 V2000
   24.5945  -14.7922  -17.7735 N   0  0  0  0  0  0  0  0  0  0  0  0
   24.3154  -13.4716  -18.3063 C   0  0  1  0  0  0  0  0  0  0  0  0
   23.1931  -13.5107  -19.3220 C   0  0  0  0  0  0  0  0  0  0  0  0
   23.6487  -14.3081  -20.4987 C   0  0  0  0  0  0  0  0  0  0  0  0
   24.8361  -14.6071  -20.6935 O   0  0  0  0  0  0  0  0  0  0  0  0
   23.9424  -12.5289  -17.2122 C   0  0  0  0  0  0  0  0  0  0  0  0
   23.1738  -12.8535  -16.2817 O   0  0  0  0  0  0  0  0  0  0  0  0
   22.6476  -14.7085  -21.3876 O   0  0  0  0  0  0  0  0  0  0  0  0
   26.4584  -10.5539  -14.9937 C   0  0  0  0  0  0  0  0  0  0  0  0
   25.5712   -9.5732  -15.7309 C   0  0  1  0  0  0  0  0  0  0  0  0
   26.2488   -8.8131  -16.6361 O   0  0  0  0  0  0  0  0  0  0  0  0
   24.3067  -10.2312  -16.2372 C   0  0  2  0  0  0  0  0  0  0  0  0
   24.4760  -11.2266  -17.2289 N   0  0  0  0  0  0  0  0  0  0  0  0
   23.3695   -9.1350  -16.6061 C   0  0  0  0  0  0  0  0  0  0  0  0
   23.3939   -8.7062  -17.7886 O   0  0  0  0  0  0  0  0  0  0  0  0
   22.4568   -8.5420  -15.7254 N   0  0  0  0  0  0  0  0  0  0  0  0
   21.5217   -7.4259  -16.1779 C   0  0  1  0  0  0  0  0  0  0  0  0
   20.1613   -7.8510  -15.8035 C   0  0  0  0  0  0  0  0  0  0  0  0
   19.0207   -6.9622  -15.9639 C   0  0  0  0  0  0  0  0  0  0  0  0
   17.6574   -7.2900  -15.5245 C   0  0  0  0  0  0  0  0  0  0  0  0
   16.6859   -6.1374  -15.9653 C   0  0  0  0  0  0  0  0  0  0  0  0
   15.3496   -6.6343  -15.7056 N   0  0  0  0  0  0  0  0  0  0  0  0
   22.0825   -6.2883  -15.4325 C   0  0  0  0  0  0  0  0  0  0  0  0
   21.9442   -5.1047  -15.9113 O   0  0  0  0  0  0  0  0  0  0  0  0
   22.7506   -6.3480  -14.2469 O   0  0  0  0  0  0  0  0  0  0  0  0
  2  1  1  1
  3  2  1  0
  4  3  1  0
  5  4  2  0
  6  2  1  0
  7  6  2  0
  8  4  1  0
 10  9  1  6
 10 12  1  0
 11 10  1  0
 12 14  1  0
 12 13  1  6
 13  6  1  0
 14 16  1  0
 15 14  2  0
 16 17  1  0
 17 18  1  1
 17 23  1  0
 18 19  1  0
 20 19  1  0
 21 22  1  0
 21 20  1  0
 23 24  2  0
 23 25  1  0
M  END
$$$$
