DTK.pdb
     RDKit          3D

 25 24  0  0  1  0  0  0  0  0999 V2000
   20.7625   -2.3330  -17.5524 N   0  0  0  0  0  0  0  0  0  0  0  0
   20.7165   -3.0832  -16.3111 C   0  0  1  0  0  0  0  0  0  0  0  0
   19.7322   -2.4760  -15.3339 C   0  0  0  0  0  0  0  0  0  0  0  0
   20.2179   -1.1154  -14.9583 C   0  0  0  0  0  0  0  0  0  0  0  0
   19.5755   -0.0806  -15.1905 O   0  0  0  0  0  0  0  0  0  0  0  0
   20.3304   -4.5013  -16.5654 C   0  0  0  0  0  0  0  0  0  0  0  0
   19.4426   -4.8167  -17.3867 O   0  0  0  0  0  0  0  0  0  0  0  0
   21.4593   -1.0670  -14.3186 O   0  0  0  0  0  0  0  0  0  0  0  0
   23.0082   -7.5909  -16.7788 C   0  0  0  0  0  0  0  0  0  0  0  0
   21.9377   -7.8155  -15.7319 C   0  0  1  0  0  0  0  0  0  0  0  0
   22.4300   -7.8574  -14.4622 O   0  0  0  0  0  0  0  0  0  0  0  0
   20.7440   -6.9116  -15.9469 C   0  0  2  0  0  0  0  0  0  0  0  0
   20.9904   -5.5211  -15.8542 N   0  0  0  0  0  0  0  0  0  0  0  0
   19.6588   -7.4141  -15.0605 C   0  0  0  0  0  0  0  0  0  0  0  0
   19.4518   -6.8115  -13.9757 O   0  0  0  0  0  0  0  0  0  0  0  0
   18.8465   -8.5175  -15.3487 N   0  0  0  0  0  0  0  0  0  0  0  0
   17.7447   -8.9675  -14.3956 C   0  0  1  0  0  0  0  0  0  0  0  0
   16.4849   -8.8901  -15.1560 C   0  0  0  0  0  0  0  0  0  0  0  0
   15.2095   -9.2267  -14.5422 C   0  0  0  0  0  0  0  0  0  0  0  0
   13.9169   -9.1371  -15.2349 C   0  0  0  0  0  0  0  0  0  0  0  0
   12.7654   -9.4493  -14.2137 C   0  0  0  0  0  0  0  0  0  0  0  0
   11.5311   -9.1929  -14.9285 N   0  0  0  0  0  0  0  0  0  0  0  0
   18.2224  -10.3159  -14.0519 C   0  0  0  0  0  0  0  0  0  0  0  0
   19.1099  -10.8680  -14.7979 O   0  0  0  0  0  0  0  0  0  0  0  0
   17.8211  -11.0706  -12.9912 O   0  0  0  0  0  0  0  0  0  0  0  0
  2  1  1  6
  3  2  1  0
  4  3  1  0
  5  4  2  0
  6  2  1  0
  7  6  2  0
  8  4  1  0
 10  9  1  6
 10 12  1  0
 11 10  1  0
 12 14  1  0
 12 13  1  1
 13  6  1  0
 14 16  1  0
 15 14  2  0
 16 17  1  0
 17 18  1  6
 17 23  1  0
 18 19  1  0
 20 19  1  0
 21 22  1  0
 21 20  1  0
 23 24  2  0
 23 25  1  0
M  END
$$$$
