DTK.pdb
     RDKit          3D

 25 24  0  0  1  0  0  0  0  0999 V2000
   18.2483  -12.5118  -16.2740 N   0  0  0  0  0  0  0  0  0  0  0  0
   18.6940  -11.2750  -16.8881 C   0  0  1  0  0  0  0  0  0  0  0  0
   17.5414  -10.5256  -17.5227 C   0  0  0  0  0  0  0  0  0  0  0  0
   17.0096  -11.3452  -18.6512 C   0  0  0  0  0  0  0  0  0  0  0  0
   15.9292  -11.1051  -19.2102 O   0  0  0  0  0  0  0  0  0  0  0  0
   19.3470  -10.3905  -15.8801 C   0  0  0  0  0  0  0  0  0  0  0  0
   18.8035  -10.0988  -14.7931 O   0  0  0  0  0  0  0  0  0  0  0  0
   17.8084  -12.4188  -19.0536 O   0  0  0  0  0  0  0  0  0  0  0  0
   22.9548  -10.7183  -14.3205 C   0  0  0  0  0  0  0  0  0  0  0  0
   22.8402   -9.4419  -15.1268 C   0  0  1  0  0  0  0  0  0  0  0  0
   23.6169   -9.4435  -16.2462 O   0  0  0  0  0  0  0  0  0  0  0  0
   21.3980   -9.0310  -15.3252 C   0  0  2  0  0  0  0  0  0  0  0  0
   20.6218   -9.8656  -16.1640 N   0  0  0  0  0  0  0  0  0  0  0  0
   21.4097   -7.5936  -15.7124 C   0  0  0  0  0  0  0  0  0  0  0  0
   21.4142   -7.3092  -16.9380 O   0  0  0  0  0  0  0  0  0  0  0  0
   21.4170   -6.5277  -14.8046 N   0  0  0  0  0  0  0  0  0  0  0  0
   21.4341   -5.0780  -15.2767 C   0  0  1  0  0  0  0  0  0  0  0  0
   20.0422   -4.6012  -15.1937 C   0  0  0  0  0  0  0  0  0  0  0  0
   19.7064   -3.2049  -15.4268 C   0  0  0  0  0  0  0  0  0  0  0  0
   18.3411   -2.6666  -15.3538 C   0  0  0  0  0  0  0  0  0  0  0  0
   18.3750   -1.1351  -15.6999 C   0  0  0  0  0  0  0  0  0  0  0  0
   16.9960   -0.6931  -15.6447 N   0  0  0  0  0  0  0  0  0  0  0  0
   22.3859   -4.4956  -14.3179 C   0  0  0  0  0  0  0  0  0  0  0  0
   22.5297   -5.0537  -13.1703 O   0  0  0  0  0  0  0  0  0  0  0  0
   23.1646   -3.3958  -14.5174 O   0  0  0  0  0  0  0  0  0  0  0  0
  2  1  1  1
  3  2  1  0
  4  3  1  0
  5  4  2  0
  6  2  1  0
  7  6  2  0
  8  4  1  0
 10  9  1  6
 10 12  1  0
 11 10  1  0
 12 14  1  0
 12 13  1  6
 13  6  1  0
 14 16  1  0
 15 14  2  0
 16 17  1  0
 17 18  1  1
 17 23  1  0
 18 19  1  0
 20 19  1  0
 21 22  1  0
 21 20  1  0
 23 24  2  0
 23 25  1  0
M  END
$$$$
