DTK.pdb
     RDKit          3D

 25 24  0  0  1  0  0  0  0  0999 V2000
   25.4994  -21.9972  -15.5033 N   0  0  0  0  0  0  0  0  0  0  0  0
   24.2493  -22.7074  -15.3073 C   0  0  1  0  0  0  0  0  0  0  0  0
   24.4836  -24.1839  -15.0668 C   0  0  0  0  0  0  0  0  0  0  0  0
   25.1748  -24.7530  -16.2611 C   0  0  0  0  0  0  0  0  0  0  0  0
   26.0936  -25.5815  -16.1792 O   0  0  0  0  0  0  0  0  0  0  0  0
   23.4981  -22.1438  -14.1485 C   0  0  0  0  0  0  0  0  0  0  0  0
   24.0643  -21.7874  -13.0928 O   0  0  0  0  0  0  0  0  0  0  0  0
   24.7237  -24.2946  -17.5017 O   0  0  0  0  0  0  0  0  0  0  0  0
   21.4371  -19.0405  -13.8385 C   0  0  0  0  0  0  0  0  0  0  0  0
   20.4928  -20.2093  -13.6529 C   0  0  1  0  0  0  0  0  0  0  0  0
   19.5891  -20.3343  -14.6649 O   0  0  0  0  0  0  0  0  0  0  0  0
   21.2314  -21.4722  -13.2686 C   0  0  2  0  0  0  0  0  0  0  0  0
   22.1006  -22.0086  -14.2482 N   0  0  0  0  0  0  0  0  0  0  0  0
   20.2128  -22.4249  -12.7484 C   0  0  0  0  0  0  0  0  0  0  0  0
   19.7128  -23.2554  -13.5503 O   0  0  0  0  0  0  0  0  0  0  0  0
   19.7670  -22.4631  -11.4216 N   0  0  0  0  0  0  0  0  0  0  0  0
   18.7789  -23.5207  -10.9422 C   0  0  1  0  0  0  0  0  0  0  0  0
   18.9809  -23.6441   -9.4877 C   0  0  0  0  0  0  0  0  0  0  0  0
   18.2390  -24.6180   -8.7016 C   0  0  0  0  0  0  0  0  0  0  0  0
   18.3208  -24.7243   -7.2384 C   0  0  0  0  0  0  0  0  0  0  0  0
   17.2871  -25.7983   -6.7441 C   0  0  0  0  0  0  0  0  0  0  0  0
   17.4578  -25.8701   -5.3067 N   0  0  0  0  0  0  0  0  0  0  0  0
   17.5098  -22.9192  -11.3802 C   0  0  0  0  0  0  0  0  0  0  0  0
   17.3844  -21.6417  -11.3451 O   0  0  0  0  0  0  0  0  0  0  0  0
   16.4148  -23.5860  -11.8410 O   0  0  0  0  0  0  0  0  0  0  0  0
  2  1  1  1
  3  2  1  0
  4  3  1  0
  5  4  2  0
  6  2  1  0
  7  6  2  0
  8  4  1  0
 10  9  1  6
 10 12  1  0
 11 10  1  0
 12 14  1  0
 12 13  1  6
 13  6  1  0
 14 16  1  0
 15 14  2  0
 16 17  1  0
 17 18  1  1
 17 23  1  0
 18 19  1  0
 20 19  1  0
 21 22  1  0
 21 20  1  0
 23 24  2  0
 23 25  1  0
M  END
$$$$
