DTK.pdb
     RDKit          3D

 25 24  0  0  1  0  0  0  0  0999 V2000
   19.0650  -11.5020  -15.8310 N   0  0  0  0  0  0  0  0  0  0  0  0
   17.7646  -11.1424  -15.2969 C   0  0  1  0  0  0  0  0  0  0  0  0
   16.9181  -12.3689  -15.0291 C   0  0  0  0  0  0  0  0  0  0  0  0
   16.6232  -13.0330  -16.3331 C   0  0  0  0  0  0  0  0  0  0  0  0
   17.0127  -12.5864  -17.4222 O   0  0  0  0  0  0  0  0  0  0  0  0
   17.9098  -10.3709  -14.0286 C   0  0  0  0  0  0  0  0  0  0  0  0
   17.6615  -10.8692  -12.9096 O   0  0  0  0  0  0  0  0  0  0  0  0
   15.8701  -14.2079  -16.2616 O   0  0  0  0  0  0  0  0  0  0  0  0
   21.1135   -8.1615  -13.1162 C   0  0  0  0  0  0  0  0  0  0  0  0
   19.8535   -7.3220  -13.1131 C   0  0  1  0  0  0  0  0  0  0  0  0
   19.8377   -6.3753  -14.0928 O   0  0  0  0  0  0  0  0  0  0  0  0
   18.6102   -8.1762  -13.0012 C   0  0  2  0  0  0  0  0  0  0  0  0
   18.3421   -9.0331  -14.0952 N   0  0  0  0  0  0  0  0  0  0  0  0
   17.4929   -7.2635  -12.6343 C   0  0  0  0  0  0  0  0  0  0  0  0
   16.7028   -6.8977  -13.5425 O   0  0  0  0  0  0  0  0  0  0  0  0
   17.2566   -6.7787  -11.3422 N   0  0  0  0  0  0  0  0  0  0  0  0
   16.1115   -5.8158  -11.0486 C   0  0  1  0  0  0  0  0  0  0  0  0
   15.9151   -5.8420   -9.5883 C   0  0  0  0  0  0  0  0  0  0  0  0
   14.9788   -4.9402   -8.9352 C   0  0  0  0  0  0  0  0  0  0  0  0
   14.7750   -4.8817   -7.4812 C   0  0  0  0  0  0  0  0  0  0  0  0
   13.6781   -3.8045   -7.1604 C   0  0  0  0  0  0  0  0  0  0  0  0
   13.4496   -3.8953   -5.7322 N   0  0  0  0  0  0  0  0  0  0  0  0
   16.6555   -4.5721  -11.6156 C   0  0  0  0  0  0  0  0  0  0  0  0
   15.8400   -3.6773  -12.0441 O   0  0  0  0  0  0  0  0  0  0  0  0
   17.9727   -4.2465  -11.7372 O   0  0  0  0  0  0  0  0  0  0  0  0
  2  1  1  1
  3  2  1  0
  4  3  1  0
  5  4  2  0
  6  2  1  0
  7  6  2  0
  8  4  1  0
 10  9  1  6
 10 12  1  0
 11 10  1  0
 12 14  1  0
 12 13  1  6
 13  6  1  0
 14 16  1  0
 15 14  2  0
 16 17  1  0
 17 18  1  1
 17 23  1  0
 18 19  1  0
 20 19  1  0
 21 22  1  0
 21 20  1  0
 23 24  2  0
 23 25  1  0
M  END
$$$$
