DTK.pdb
     RDKit          3D

 25 24  0  0  1  0  0  0  0  0999 V2000
   17.9667  -10.8415  -14.3701 N   0  0  0  0  0  0  0  0  0  0  0  0
   17.6515   -9.4274  -14.4505 C   0  0  1  0  0  0  0  0  0  0  0  0
   16.3169   -9.1957  -15.1273 C   0  0  0  0  0  0  0  0  0  0  0  0
   16.4282   -9.6287  -16.5514 C   0  0  0  0  0  0  0  0  0  0  0  0
   16.1027  -10.7599  -16.9411 O   0  0  0  0  0  0  0  0  0  0  0  0
   17.6143   -8.8166  -13.0902 C   0  0  0  0  0  0  0  0  0  0  0  0
   16.9300   -9.2947  -12.1600 O   0  0  0  0  0  0  0  0  0  0  0  0
   16.9282   -8.6741  -17.4410 O   0  0  0  0  0  0  0  0  0  0  0  0
   20.9697   -7.1882  -11.2388 C   0  0  0  0  0  0  0  0  0  0  0  0
   19.8029   -6.2354  -11.3907 C   0  0  1  0  0  0  0  0  0  0  0  0
   20.0583   -5.2076  -12.2478 O   0  0  0  0  0  0  0  0  0  0  0  0
   18.5014   -6.9731  -11.6147 C   0  0  2  0  0  0  0  0  0  0  0  0
   18.3780   -7.6598  -12.8459 N   0  0  0  0  0  0  0  0  0  0  0  0
   17.4051   -6.0087  -11.3247 C   0  0  0  0  0  0  0  0  0  0  0  0
   16.8041   -5.4835  -12.2972 O   0  0  0  0  0  0  0  0  0  0  0  0
   16.9920   -5.6408  -10.0385 N   0  0  0  0  0  0  0  0  0  0  0  0
   15.8091   -4.7044   -9.8179 C   0  0  1  0  0  0  0  0  0  0  0  0
   15.3116   -4.9821   -8.4589 C   0  0  0  0  0  0  0  0  0  0  0  0
   14.3229   -4.1229   -7.8257 C   0  0  0  0  0  0  0  0  0  0  0  0
   13.8260   -4.3151   -6.4563 C   0  0  0  0  0  0  0  0  0  0  0  0
   12.6727   -3.2855   -6.1804 C   0  0  0  0  0  0  0  0  0  0  0  0
   12.2251   -3.5556   -4.8287 N   0  0  0  0  0  0  0  0  0  0  0  0
   16.4575   -3.4004  -10.0260 C   0  0  0  0  0  0  0  0  0  0  0  0
   15.7313   -2.3912  -10.3476 O   0  0  0  0  0  0  0  0  0  0  0  0
   17.7872   -3.1296   -9.9066 O   0  0  0  0  0  0  0  0  0  0  0  0
  2  1  1  1
  3  2  1  0
  4  3  1  0
  5  4  2  0
  6  2  1  0
  7  6  2  0
  8  4  1  0
 10  9  1  6
 10 12  1  0
 11 10  1  0
 12 14  1  0
 12 13  1  6
 13  6  1  0
 14 16  1  0
 15 14  2  0
 16 17  1  0
 17 18  1  1
 17 23  1  0
 18 19  1  0
 20 19  1  0
 21 22  1  0
 21 20  1  0
 23 24  2  0
 23 25  1  0
M  END
$$$$
