DTK.pdb
     RDKit          3D

 25 24  0  0  1  0  0  0  0  0999 V2000
   21.8924  -11.8820  -21.2441 N   0  0  0  0  0  0  0  0  0  0  0  0
   21.6160  -12.1097  -19.8379 C   0  0  1  0  0  0  0  0  0  0  0  0
   22.4527  -13.2447  -19.2863 C   0  0  0  0  0  0  0  0  0  0  0  0
   22.0961  -14.4944  -20.0207 C   0  0  0  0  0  0  0  0  0  0  0  0
   22.9403  -15.2275  -20.5566 O   0  0  0  0  0  0  0  0  0  0  0  0
   21.8879  -10.8789  -19.0404 C   0  0  0  0  0  0  0  0  0  0  0  0
   21.8627  -10.8716  -17.7909 O   0  0  0  0  0  0  0  0  0  0  0  0
   20.7340  -14.8017  -20.0742 O   0  0  0  0  0  0  0  0  0  0  0  0
   23.4749   -7.5106  -21.2293 C   0  0  0  0  0  0  0  0  0  0  0  0
   23.5901   -7.6335  -19.7247 C   0  0  1  0  0  0  0  0  0  0  0  0
   23.8781   -6.4517  -19.1108 O   0  0  0  0  0  0  0  0  0  0  0  0
   22.4395   -8.4194  -19.1360 C   0  0  2  0  0  0  0  0  0  0  0  0
   22.1838   -9.6826  -19.7204 N   0  0  0  0  0  0  0  0  0  0  0  0
   21.2683   -7.5015  -19.0948 C   0  0  0  0  0  0  0  0  0  0  0  0
   20.5870   -7.3614  -20.1433 O   0  0  0  0  0  0  0  0  0  0  0  0
   20.8676   -6.7770  -17.9657 N   0  0  0  0  0  0  0  0  0  0  0  0
   19.6859   -5.8147  -18.0133 C   0  0  1  0  0  0  0  0  0  0  0  0
   18.5246   -6.5625  -17.4998 C   0  0  0  0  0  0  0  0  0  0  0  0
   17.2249   -5.9273  -17.3451 C   0  0  0  0  0  0  0  0  0  0  0  0
   16.0310   -6.6158  -16.8355 C   0  0  0  0  0  0  0  0  0  0  0  0
   14.8249   -5.6100  -16.8247 C   0  0  0  0  0  0  0  0  0  0  0  0
   13.6488   -6.4156  -16.5638 N   0  0  0  0  0  0  0  0  0  0  0  0
   20.1933   -4.7257  -17.1642 C   0  0  0  0  0  0  0  0  0  0  0  0
   21.2392   -4.9334  -16.4486 O   0  0  0  0  0  0  0  0  0  0  0  0
   19.6652   -3.4751  -17.0506 O   0  0  0  0  0  0  0  0  0  0  0  0
  2  1  1  6
  3  2  1  0
  4  3  1  0
  5  4  2  0
  6  2  1  0
  7  6  2  0
  8  4  1  0
 10  9  1  6
 10 12  1  0
 11 10  1  0
 12 14  1  0
 12 13  1  6
 13  6  1  0
 14 16  1  0
 15 14  2  0
 16 17  1  0
 17 18  1  1
 17 23  1  0
 18 19  1  0
 20 19  1  0
 21 22  1  0
 21 20  1  0
 23 24  2  0
 23 25  1  0
M  END
$$$$
