DTK.pdb
     RDKit          3D

 25 24  0  0  1  0  0  0  0  0999 V2000
   18.1863  -11.2950  -15.7913 N   0  0  0  0  0  0  0  0  0  0  0  0
   17.7194   -9.9589  -15.4711 C   0  0  1  0  0  0  0  0  0  0  0  0
   16.2725   -9.7671  -15.8743 C   0  0  0  0  0  0  0  0  0  0  0  0
   16.1674   -9.9409  -17.3530 C   0  0  0  0  0  0  0  0  0  0  0  0
   15.3428  -10.6970  -17.8877 O   0  0  0  0  0  0  0  0  0  0  0  0
   17.8522   -9.6893  -14.0101 C   0  0  0  0  0  0  0  0  0  0  0  0
   17.4778  -10.5064  -13.1416 O   0  0  0  0  0  0  0  0  0  0  0  0
   17.0645   -9.1924  -18.1196 O   0  0  0  0  0  0  0  0  0  0  0  0
   21.1303   -7.9476  -12.3021 C   0  0  0  0  0  0  0  0  0  0  0  0
   19.8506   -7.1906  -12.0162 C   0  0  1  0  0  0  0  0  0  0  0  0
   19.8281   -5.9468  -12.5719 O   0  0  0  0  0  0  0  0  0  0  0  0
   18.6264   -8.0447  -12.2612 C   0  0  2  0  0  0  0  0  0  0  0  0
   18.4200   -8.4701  -13.5950 N   0  0  0  0  0  0  0  0  0  0  0  0
   17.4736   -7.3300  -11.6479 C   0  0  0  0  0  0  0  0  0  0  0  0
   16.8089   -6.5448  -12.3721 O   0  0  0  0  0  0  0  0  0  0  0  0
   17.0732   -7.4690  -10.3134 N   0  0  0  0  0  0  0  0  0  0  0  0
   15.9186   -6.6561   -9.7382 C   0  0  1  0  0  0  0  0  0  0  0  0
   15.0390   -7.6184   -9.0515 C   0  0  0  0  0  0  0  0  0  0  0  0
   13.7404   -7.2181   -8.5319 C   0  0  0  0  0  0  0  0  0  0  0  0
   12.8290   -8.1220   -7.8168 C   0  0  0  0  0  0  0  0  0  0  0  0
   11.5128   -7.3441   -7.4579 C   0  0  0  0  0  0  0  0  0  0  0  0
   10.6303   -8.3268   -6.8615 N   0  0  0  0  0  0  0  0  0  0  0  0
   16.6555   -5.7134   -8.8823 C   0  0  0  0  0  0  0  0  0  0  0  0
   17.8017   -6.0617   -8.4198 O   0  0  0  0  0  0  0  0  0  0  0  0
   16.2491   -4.4659   -8.5157 O   0  0  0  0  0  0  0  0  0  0  0  0
  2  1  1  1
  3  2  1  0
  4  3  1  0
  5  4  2  0
  6  2  1  0
  7  6  2  0
  8  4  1  0
 10  9  1  6
 10 12  1  0
 11 10  1  0
 12 14  1  0
 12 13  1  6
 13  6  1  0
 14 16  1  0
 15 14  2  0
 16 17  1  0
 17 18  1  1
 17 23  1  0
 18 19  1  0
 20 19  1  0
 21 22  1  0
 21 20  1  0
 23 24  2  0
 23 25  1  0
M  END
$$$$
