DTK.pdb
     RDKit          3D

 25 24  0  0  1  0  0  0  0  0999 V2000
   18.8319  -11.4907  -16.9226 N   0  0  0  0  0  0  0  0  0  0  0  0
   17.7718  -10.7130  -16.3087 C   0  0  1  0  0  0  0  0  0  0  0  0
   16.8524  -11.5868  -15.4816 C   0  0  0  0  0  0  0  0  0  0  0  0
   16.0843  -12.4718  -16.4061 C   0  0  0  0  0  0  0  0  0  0  0  0
   16.2406  -12.4625  -17.6361 O   0  0  0  0  0  0  0  0  0  0  0  0
   18.3384   -9.6461  -15.4337 C   0  0  0  0  0  0  0  0  0  0  0  0
   17.6320   -8.9800  -14.6469 O   0  0  0  0  0  0  0  0  0  0  0  0
   15.1610  -13.3290  -15.8016 O   0  0  0  0  0  0  0  0  0  0  0  0
   21.4745  -10.0707  -13.0434 C   0  0  0  0  0  0  0  0  0  0  0  0
   21.7322   -9.0057  -14.0883 C   0  0  1  0  0  0  0  0  0  0  0  0
   22.6996   -9.3546  -14.9820 O   0  0  0  0  0  0  0  0  0  0  0  0
   20.4446   -8.4790  -14.6822 C   0  0  2  0  0  0  0  0  0  0  0  0
   19.7193   -9.3806  -15.4970 N   0  0  0  0  0  0  0  0  0  0  0  0
   20.7693   -7.1771  -15.3270 C   0  0  0  0  0  0  0  0  0  0  0  0
   21.0105   -7.1702  -16.5618 O   0  0  0  0  0  0  0  0  0  0  0  0
   20.8269   -5.9510  -14.6534 N   0  0  0  0  0  0  0  0  0  0  0  0
   21.1537   -4.6537  -15.3847 C   0  0  1  0  0  0  0  0  0  0  0  0
   19.8922   -3.8962  -15.4641 C   0  0  0  0  0  0  0  0  0  0  0  0
   19.8403   -2.5759  -16.0728 C   0  0  0  0  0  0  0  0  0  0  0  0
   18.6294   -1.7454  -16.1284 C   0  0  0  0  0  0  0  0  0  0  0  0
   18.9482   -0.4267  -16.9194 C   0  0  0  0  0  0  0  0  0  0  0  0
   17.7119    0.3294  -16.9298 N   0  0  0  0  0  0  0  0  0  0  0  0
   22.1951   -4.1042  -14.5026 C   0  0  0  0  0  0  0  0  0  0  0  0
   22.2210   -4.4694  -13.2717 O   0  0  0  0  0  0  0  0  0  0  0  0
   23.1740   -3.2253  -14.8562 O   0  0  0  0  0  0  0  0  0  0  0  0
  2  1  1  1
  3  2  1  0
  4  3  1  0
  5  4  2  0
  6  2  1  0
  7  6  2  0
  8  4  1  0
 10  9  1  6
 10 12  1  0
 11 10  1  0
 12 14  1  0
 12 13  1  6
 13  6  1  0
 14 16  1  0
 15 14  2  0
 16 17  1  0
 17 18  1  1
 17 23  1  0
 18 19  1  0
 20 19  1  0
 21 22  1  0
 21 20  1  0
 23 24  2  0
 23 25  1  0
M  END
$$$$
