DTK.pdb
     RDKit          3D

 25 24  0  0  1  0  0  0  0  0999 V2000
   23.0948  -14.3635  -16.8497 N   0  0  0  0  0  0  0  0  0  0  0  0
   22.7842  -13.0753  -17.4410 C   0  0  1  0  0  0  0  0  0  0  0  0
   21.4069  -13.0729  -18.0701 C   0  0  0  0  0  0  0  0  0  0  0  0
   21.3573  -14.1502  -19.1021 C   0  0  0  0  0  0  0  0  0  0  0  0
   20.4036  -14.9344  -19.2151 O   0  0  0  0  0  0  0  0  0  0  0  0
   22.8471  -11.9945  -16.4150 C   0  0  0  0  0  0  0  0  0  0  0  0
   22.0877  -11.9683  -15.4227 O   0  0  0  0  0  0  0  0  0  0  0  0
   22.4638  -14.2311  -19.9518 O   0  0  0  0  0  0  0  0  0  0  0  0
   26.2274  -10.5773  -14.7527 C   0  0  0  0  0  0  0  0  0  0  0  0
   25.4557   -9.4851  -15.4627 C   0  0  1  0  0  0  0  0  0  0  0  0
   26.1145   -8.9784  -16.5423 O   0  0  0  0  0  0  0  0  0  0  0  0
   24.0132   -9.8769  -15.6945 C   0  0  2  0  0  0  0  0  0  0  0  0
   23.7964  -10.9670  -16.5706 N   0  0  0  0  0  0  0  0  0  0  0  0
   23.2817   -8.6314  -16.0543 C   0  0  0  0  0  0  0  0  0  0  0  0
   23.1240   -8.3671  -17.2742 O   0  0  0  0  0  0  0  0  0  0  0  0
   22.7533   -7.7258  -15.1264 N   0  0  0  0  0  0  0  0  0  0  0  0
   21.9667   -6.4972  -15.5697 C   0  0  1  0  0  0  0  0  0  0  0  0
   20.5470   -6.8919  -15.5619 C   0  0  0  0  0  0  0  0  0  0  0  0
   19.4881   -5.9084  -15.7293 C   0  0  0  0  0  0  0  0  0  0  0  0
   18.0556   -6.2207  -15.6311 C   0  0  0  0  0  0  0  0  0  0  0  0
   17.2275   -4.9067  -15.8638 C   0  0  0  0  0  0  0  0  0  0  0  0
   15.8370   -5.2968  -15.7439 N   0  0  0  0  0  0  0  0  0  0  0  0
   22.3843   -5.5279  -14.5448 C   0  0  0  0  0  0  0  0  0  0  0  0
   22.1833   -4.2772  -14.7557 O   0  0  0  0  0  0  0  0  0  0  0  0
   22.9759   -5.8159  -13.3519 O   0  0  0  0  0  0  0  0  0  0  0  0
  2  1  1  1
  3  2  1  0
  4  3  1  0
  5  4  2  0
  6  2  1  0
  7  6  2  0
  8  4  1  0
 10  9  1  6
 10 12  1  0
 11 10  1  0
 12 14  1  0
 12 13  1  6
 13  6  1  0
 14 16  1  0
 15 14  2  0
 16 17  1  0
 17 18  1  1
 17 23  1  0
 18 19  1  0
 20 19  1  0
 21 22  1  0
 21 20  1  0
 23 24  2  0
 23 25  1  0
M  END
$$$$
