HYW.pdb
     RDKit          3D

 37 40  0  0  1  0  0  0  0  0999 V2000
   30.2501  -21.4853  -18.9150 N   0  0  0  0  0  0  0  0  0  0  0  0
   29.3798  -20.4427  -18.4190 C   0  0  1  0  0  0  0  0  0  0  0  0
   28.5476  -19.9271  -19.5468 C   0  0  0  0  0  0  0  0  0  0  0  0
   29.4146  -19.2398  -20.5368 C   0  0  0  0  0  0  0  0  0  0  0  0
   29.9790  -17.9831  -20.3905 C   0  0  0  0  0  0  0  0  0  0  0  0
   30.6927  -17.7139  -21.4920 N   0  0  0  0  0  0  0  0  0  0  0  0
   30.6058  -18.7558  -22.3412 C   0  0  0  0  0  0  0  0  0  0  0  0
   29.8255  -19.6779  -21.7490 N   0  0  0  0  0  0  0  0  0  0  0  0
   28.5456  -20.9137  -17.2835 C   0  0  0  0  0  0  0  0  0  0  0  0
   28.1129  -22.0834  -17.2902 O   0  0  0  0  0  0  0  0  0  0  0  0
   24.9249  -20.3193   -9.0562 O   0  0  0  0  0  0  0  0  0  0  0  0
   25.6684  -20.2164  -10.2254 C   0  0  0  0  0  0  0  0  0  0  0  0
   26.1128  -21.4090  -10.7837 C   0  0  0  0  0  0  0  0  0  0  0  0
   26.8498  -21.3273  -11.9398 C   0  0  0  0  0  0  0  0  0  0  0  0
   27.1782  -20.1376  -12.5841 C   0  0  0  0  0  0  0  0  0  0  0  0
   27.9881  -20.0774  -13.7924 C   0  0  0  0  0  0  0  0  0  0  0  0
   27.3776  -20.5181  -15.0691 C   0  0  2  0  0  0  0  0  0  0  0  0
   28.2191  -20.0889  -16.1896 N   0  0  0  0  0  0  0  0  0  0  0  0
   26.0229  -20.0702  -15.3775 C   0  0  0  0  0  0  0  0  0  0  0  0
   25.8489  -18.9010  -15.8273 O   0  0  0  0  0  0  0  0  0  0  0  0
   26.7172  -18.9803  -11.9955 C   0  0  0  0  0  0  0  0  0  0  0  0
   25.9752  -19.0219  -10.8362 C   0  0  0  0  0  0  0  0  0  0  0  0
   24.8273  -20.8220  -15.2323 N   0  0  0  0  0  0  0  0  0  0  0  0
   23.5179  -20.2453  -15.4657 C   0  0  1  0  0  0  0  0  0  0  0  0
   22.6289  -21.1269  -16.3085 C   0  0  0  0  0  0  0  0  0  0  0  0
   21.2025  -21.0442  -15.9197 C   0  0  0  0  0  0  0  0  0  0  0  0
   20.7658  -20.5621  -14.6977 C   0  0  0  0  0  0  0  0  0  0  0  0
   19.4309  -20.6460  -14.7147 N   0  0  0  0  0  0  0  0  0  0  0  0
   19.0157  -21.1568  -15.8894 C   0  0  0  0  0  0  0  0  0  0  0  0
   17.7545  -21.4264  -16.3637 C   0  0  0  0  0  0  0  0  0  0  0  0
   17.5929  -21.9567  -17.6203 C   0  0  0  0  0  0  0  0  0  0  0  0
   18.6912  -22.2219  -18.4131 C   0  0  0  0  0  0  0  0  0  0  0  0
   19.9643  -21.9549  -17.9453 C   0  0  0  0  0  0  0  0  0  0  0  0
   20.1154  -21.4213  -16.6792 C   0  0  0  0  0  0  0  0  0  0  0  0
   22.7849  -19.8685  -14.2570 C   0  0  0  0  0  0  0  0  0  0  0  0
   23.1216  -20.3345  -13.1157 O   0  0  0  0  0  0  0  0  0  0  0  0
   21.7167  -19.0038  -14.3254 O   0  0  0  0  0  0  0  0  0  0  0  0
  2  1  1  6
  2  3  1  0
  3  4  1  0
  4  8  1  0
  4  5  2  0
  5  6  1  0
  7  6  1  0
  8  7  2  0
  9  2  1  0
  9 10  2  0
 11 12  1  0
 12 22  2  0
 13 14  2  0
 13 12  1  0
 14 15  1  0
 15 21  2  0
 16 15  1  0
 17 18  1  0
 17 16  1  1
 18  9  1  0
 19 17  1  0
 20 19  2  0
 21 22  1  0
 23 19  1  0
 24 25  1  1
 24 23  1  0
 25 26  1  0
 26 27  2  0
 26 34  1  0
 27 28  1  0
 28 29  1  0
 29 30  2  0
 30 31  1  0
 32 31  2  0
 33 32  1  0
 34 33  2  0
 34 29  1  0
 35 24  1  0
 36 35  2  0
 37 35  1  0
M  END
$$$$
