HYW.pdb
     RDKit          3D

 37 40  0  0  1  0  0  0  0  0999 V2000
   28.7586  -22.2504  -18.4152 N   0  0  0  0  0  0  0  0  0  0  0  0
   28.2170  -21.0762  -17.7682 C   0  0  1  0  0  0  0  0  0  0  0  0
   27.4138  -20.3016  -18.7608 C   0  0  0  0  0  0  0  0  0  0  0  0
   28.2765  -19.2937  -19.4274 C   0  0  0  0  0  0  0  0  0  0  0  0
   28.2410  -17.9250  -19.2165 C   0  0  0  0  0  0  0  0  0  0  0  0
   29.1687  -17.3567  -19.9984 N   0  0  0  0  0  0  0  0  0  0  0  0
   29.7991  -18.3147  -20.7048 C   0  0  0  0  0  0  0  0  0  0  0  0
   29.2476  -19.4889  -20.3488 N   0  0  0  0  0  0  0  0  0  0  0  0
   27.4220  -21.4271  -16.5633 C   0  0  0  0  0  0  0  0  0  0  0  0
   26.6820  -22.4306  -16.5932 O   0  0  0  0  0  0  0  0  0  0  0  0
   24.4084  -20.7336   -8.1428 O   0  0  0  0  0  0  0  0  0  0  0  0
   25.1469  -20.6865   -9.3188 C   0  0  0  0  0  0  0  0  0  0  0  0
   24.7974  -19.6974  -10.2303 C   0  0  0  0  0  0  0  0  0  0  0  0
   25.5161  -19.6354  -11.3990 C   0  0  0  0  0  0  0  0  0  0  0  0
   26.5636  -20.4915  -11.7279 C   0  0  0  0  0  0  0  0  0  0  0  0
   27.2889  -20.4236  -12.9884 C   0  0  0  0  0  0  0  0  0  0  0  0
   26.6205  -20.9295  -14.2108 C   0  0  2  0  0  0  0  0  0  0  0  0
   27.4681  -20.6686  -15.3775 N   0  0  0  0  0  0  0  0  0  0  0  0
   25.2969  -20.4089  -14.5397 C   0  0  0  0  0  0  0  0  0  0  0  0
   25.1977  -19.2506  -15.0377 O   0  0  0  0  0  0  0  0  0  0  0  0
   26.8754  -21.4566  -10.7953 C   0  0  0  0  0  0  0  0  0  0  0  0
   26.1775  -21.5502   -9.6119 C   0  0  0  0  0  0  0  0  0  0  0  0
   24.0558  -21.0760  -14.3656 N   0  0  0  0  0  0  0  0  0  0  0  0
   22.8176  -20.3582  -14.1350 C   0  0  1  0  0  0  0  0  0  0  0  0
   22.1711  -19.8762  -15.4108 C   0  0  0  0  0  0  0  0  0  0  0  0
   22.2640  -20.8632  -16.5107 C   0  0  0  0  0  0  0  0  0  0  0  0
   22.0630  -22.2225  -16.3424 C   0  0  0  0  0  0  0  0  0  0  0  0
   22.2328  -22.7804  -17.5463 N   0  0  0  0  0  0  0  0  0  0  0  0
   22.5294  -21.8331  -18.4561 C   0  0  0  0  0  0  0  0  0  0  0  0
   22.7856  -21.9209  -19.8033 C   0  0  0  0  0  0  0  0  0  0  0  0
   23.0678  -20.7859  -20.5234 C   0  0  0  0  0  0  0  0  0  0  0  0
   23.0961  -19.5536  -19.9023 C   0  0  0  0  0  0  0  0  0  0  0  0
   22.8403  -19.4544  -18.5476 C   0  0  0  0  0  0  0  0  0  0  0  0
   22.5574  -20.6029  -17.8325 C   0  0  0  0  0  0  0  0  0  0  0  0
   21.8172  -21.0874  -13.3554 C   0  0  0  0  0  0  0  0  0  0  0  0
   22.0116  -22.3040  -13.0164 O   0  0  0  0  0  0  0  0  0  0  0  0
   20.6454  -20.4767  -12.9717 O   0  0  0  0  0  0  0  0  0  0  0  0
  2  1  1  6
  2  3  1  0
  3  4  1  0
  4  8  1  0
  4  5  2  0
  5  6  1  0
  7  6  1  0
  8  7  2  0
  9  2  1  0
  9 10  2  0
 11 12  1  0
 12 22  2  0
 13 14  2  0
 13 12  1  0
 14 15  1  0
 15 21  2  0
 16 15  1  0
 17 18  1  0
 17 16  1  1
 18  9  1  0
 19 17  1  0
 20 19  2  0
 21 22  1  0
 23 19  1  0
 24 25  1  6
 24 23  1  0
 25 26  1  0
 26 27  2  0
 26 34  1  0
 27 28  1  0
 28 29  1  0
 29 30  2  0
 30 31  1  0
 32 31  2  0
 33 32  1  0
 34 33  2  0
 34 29  1  0
 35 24  1  0
 36 35  2  0
 37 35  1  0
M  END
$$$$
