HYW.pdb
     RDKit          3D

 37 40  0  0  1  0  0  0  0  0999 V2000
   19.4704  -16.3664  -21.8120 N   0  0  0  0  0  0  0  0  0  0  0  0
   19.7378  -14.9667  -21.5675 C   0  0  1  0  0  0  0  0  0  0  0  0
   19.1335  -14.1574  -22.6676 C   0  0  0  0  0  0  0  0  0  0  0  0
   19.7772  -14.5064  -23.9592 C   0  0  0  0  0  0  0  0  0  0  0  0
   21.0138  -14.0624  -24.3985 C   0  0  0  0  0  0  0  0  0  0  0  0
   21.2452  -14.5952  -25.6058 N   0  0  0  0  0  0  0  0  0  0  0  0
   20.1985  -15.3668  -25.9570 C   0  0  0  0  0  0  0  0  0  0  0  0
   19.3118  -15.3048  -24.9472 N   0  0  0  0  0  0  0  0  0  0  0  0
   19.2520  -14.5371  -20.2309 C   0  0  0  0  0  0  0  0  0  0  0  0
   18.0752  -14.7869  -19.9018 O   0  0  0  0  0  0  0  0  0  0  0  0
   18.6142  -19.5154  -16.0484 O   0  0  0  0  0  0  0  0  0  0  0  0
   19.0730  -18.2270  -16.2928 C   0  0  0  0  0  0  0  0  0  0  0  0
   18.4680  -17.2064  -15.5692 C   0  0  0  0  0  0  0  0  0  0  0  0
   18.9083  -15.9257  -15.7975 C   0  0  0  0  0  0  0  0  0  0  0  0
   19.9131  -15.5854  -16.6991 C   0  0  0  0  0  0  0  0  0  0  0  0
   20.3393  -14.2152  -16.9449 C   0  0  0  0  0  0  0  0  0  0  0  0
   19.6234  -13.4325  -17.9801 C   0  0  2  0  0  0  0  0  0  0  0  0
   20.0704  -13.8537  -19.3107 N   0  0  0  0  0  0  0  0  0  0  0  0
   19.7395  -11.9777  -17.9490 C   0  0  0  0  0  0  0  0  0  0  0  0
   20.7607  -11.4310  -18.4570 O   0  0  0  0  0  0  0  0  0  0  0  0
   20.4845  -16.6286  -17.3945 C   0  0  0  0  0  0  0  0  0  0  0  0
   20.0698  -17.9261  -17.1928 C   0  0  0  0  0  0  0  0  0  0  0  0
   18.8028  -11.0635  -17.3990 N   0  0  0  0  0  0  0  0  0  0  0  0
   19.0253   -9.6310  -17.4045 C   0  0  1  0  0  0  0  0  0  0  0  0
   19.2508   -9.0763  -18.7899 C   0  0  0  0  0  0  0  0  0  0  0  0
   18.0479   -9.1680  -19.6485 C   0  0  0  0  0  0  0  0  0  0  0  0
   16.7897   -9.4991  -19.1757 C   0  0  0  0  0  0  0  0  0  0  0  0
   15.9728   -9.4832  -20.2348 N   0  0  0  0  0  0  0  0  0  0  0  0
   16.6624   -9.1573  -21.3445 C   0  0  0  0  0  0  0  0  0  0  0  0
   16.2607   -9.0168  -22.6510 C   0  0  0  0  0  0  0  0  0  0  0  0
   17.1744   -8.6706  -23.6163 C   0  0  0  0  0  0  0  0  0  0  0  0
   18.4975   -8.4622  -23.2831 C   0  0  0  0  0  0  0  0  0  0  0  0
   18.9121   -8.6015  -21.9718 C   0  0  0  0  0  0  0  0  0  0  0  0
   17.9843   -8.9502  -21.0084 C   0  0  0  0  0  0  0  0  0  0  0  0
   17.9796   -8.8414  -16.7538 C   0  0  0  0  0  0  0  0  0  0  0  0
   16.9228   -9.4006  -16.3026 O   0  0  0  0  0  0  0  0  0  0  0  0
   18.1136   -7.4790  -16.6149 O   0  0  0  0  0  0  0  0  0  0  0  0
  2  1  1  6
  2  3  1  0
  3  4  1  0
  4  8  1  0
  4  5  2  0
  5  6  1  0
  7  6  1  0
  8  7  2  0
  9  2  1  0
  9 10  2  0
 11 12  1  0
 12 22  2  0
 13 14  2  0
 13 12  1  0
 14 15  1  0
 15 21  2  0
 16 15  1  0
 17 18  1  0
 17 16  1  1
 18  9  1  0
 19 17  1  0
 20 19  2  0
 21 22  1  0
 23 19  1  0
 24 25  1  6
 24 23  1  0
 25 26  1  0
 26 27  2  0
 26 34  1  0
 27 28  1  0
 28 29  1  0
 29 30  2  0
 30 31  1  0
 32 31  2  0
 33 32  1  0
 34 33  2  0
 34 29  1  0
 35 24  1  0
 36 35  2  0
 37 35  1  0
M  END
$$$$
