HYW.pdb
     RDKit          3D

 37 40  0  0  1  0  0  0  0  0999 V2000
   27.0785  -22.8880  -17.2920 N   0  0  0  0  0  0  0  0  0  0  0  0
   27.7090  -22.4754  -16.0580 C   0  0  1  0  0  0  0  0  0  0  0  0
   28.9366  -21.6880  -16.3793 C   0  0  0  0  0  0  0  0  0  0  0  0
   29.9764  -22.5865  -16.9414 C   0  0  0  0  0  0  0  0  0  0  0  0
   30.2227  -22.8045  -18.2871 C   0  0  0  0  0  0  0  0  0  0  0  0
   31.2352  -23.6757  -18.3917 N   0  0  0  0  0  0  0  0  0  0  0  0
   31.6477  -24.0248  -17.1579 C   0  0  0  0  0  0  0  0  0  0  0  0
   30.8743  -23.3556  -16.2839 N   0  0  0  0  0  0  0  0  0  0  0  0
   26.7746  -21.7165  -15.1874 C   0  0  0  0  0  0  0  0  0  0  0  0
   26.6168  -20.4949  -15.3830 O   0  0  0  0  0  0  0  0  0  0  0  0
   21.4715  -20.7334  -18.7594 O   0  0  0  0  0  0  0  0  0  0  0  0
   22.0167  -21.1505  -17.5514 C   0  0  0  0  0  0  0  0  0  0  0  0
   21.9576  -20.2443  -16.4995 C   0  0  0  0  0  0  0  0  0  0  0  0
   22.4918  -20.6389  -15.2973 C   0  0  0  0  0  0  0  0  0  0  0  0
   23.0838  -21.8775  -15.0651 C   0  0  0  0  0  0  0  0  0  0  0  0
   23.6709  -22.2587  -13.7886 C   0  0  0  0  0  0  0  0  0  0  0  0
   24.9714  -21.6587  -13.4071 C   0  0  2  0  0  0  0  0  0  0  0  0
   26.0524  -22.3224  -14.1410 N   0  0  0  0  0  0  0  0  0  0  0  0
   25.3559  -21.6818  -11.9991 C   0  0  0  0  0  0  0  0  0  0  0  0
   25.5910  -22.7934  -11.4437 O   0  0  0  0  0  0  0  0  0  0  0  0
   23.1205  -22.7438  -16.1358 C   0  0  0  0  0  0  0  0  0  0  0  0
   22.5952  -22.3840  -17.3569 C   0  0  0  0  0  0  0  0  0  0  0  0
   25.5095  -20.5594  -11.1432 N   0  0  0  0  0  0  0  0  0  0  0  0
   25.5250  -20.6844   -9.6990 C   0  0  1  0  0  0  0  0  0  0  0  0
   26.4072  -19.6590   -9.0295 C   0  0  0  0  0  0  0  0  0  0  0  0
   27.7643  -20.1729   -8.7352 C   0  0  0  0  0  0  0  0  0  0  0  0
   28.5075  -20.9326   -9.6222 C   0  0  0  0  0  0  0  0  0  0  0  0
   29.6629  -21.2077   -9.0068 N   0  0  0  0  0  0  0  0  0  0  0  0
   29.6747  -20.6549   -7.7790 C   0  0  0  0  0  0  0  0  0  0  0  0
   30.6298  -20.6649   -6.7912 C   0  0  0  0  0  0  0  0  0  0  0  0
   30.3967  -20.0134   -5.6048 C   0  0  0  0  0  0  0  0  0  0  0  0
   29.2063  -19.3466   -5.3963 C   0  0  0  0  0  0  0  0  0  0  0  0
   28.2386  -19.3309   -6.3832 C   0  0  0  0  0  0  0  0  0  0  0  0
   28.4837  -19.9898   -7.5733 C   0  0  0  0  0  0  0  0  0  0  0  0
   24.2084  -20.6495   -9.0622 C   0  0  0  0  0  0  0  0  0  0  0  0
   23.1826  -20.2365   -9.7027 O   0  0  0  0  0  0  0  0  0  0  0  0
   24.0485  -21.0610   -7.7589 O   0  0  0  0  0  0  0  0  0  0  0  0
  2  1  1  6
  2  3  1  0
  3  4  1  0
  4  8  1  0
  4  5  2  0
  5  6  1  0
  7  6  1  0
  8  7  2  0
  9  2  1  0
  9 10  2  0
 11 12  1  0
 12 22  2  0
 13 14  2  0
 13 12  1  0
 14 15  1  0
 15 21  2  0
 16 15  1  0
 17 18  1  0
 17 16  1  1
 18  9  1  0
 19 17  1  0
 20 19  2  0
 21 22  1  0
 23 19  1  0
 24 25  1  1
 24 23  1  0
 25 26  1  0
 26 27  2  0
 26 34  1  0
 27 28  1  0
 28 29  1  0
 29 30  2  0
 30 31  1  0
 32 31  2  0
 33 32  1  0
 34 33  2  0
 34 29  1  0
 35 24  1  0
 36 35  2  0
 37 35  1  0
M  END
$$$$
