HYW.pdb
     RDKit          3D

 37 40  0  0  1  0  0  0  0  0999 V2000
   27.4809  -22.8986  -18.0024 N   0  0  0  0  0  0  0  0  0  0  0  0
   26.9949  -21.6568  -17.4436 C   0  0  1  0  0  0  0  0  0  0  0  0
   26.0994  -20.9942  -18.4382 C   0  0  0  0  0  0  0  0  0  0  0  0
   26.8813  -20.6114  -19.6409 C   0  0  0  0  0  0  0  0  0  0  0  0
   27.8894  -19.6623  -19.6881 C   0  0  0  0  0  0  0  0  0  0  0  0
   28.3511  -19.6040  -20.9445 N   0  0  0  0  0  0  0  0  0  0  0  0
   27.6732  -20.4841  -21.7062 C   0  0  0  0  0  0  0  0  0  0  0  0
   26.7818  -21.0909  -20.9020 N   0  0  0  0  0  0  0  0  0  0  0  0
   26.3164  -21.8667  -16.1388 C   0  0  0  0  0  0  0  0  0  0  0  0
   25.3343  -22.6331  -16.0798 O   0  0  0  0  0  0  0  0  0  0  0  0
   24.7408  -20.3378   -7.3905 O   0  0  0  0  0  0  0  0  0  0  0  0
   25.2784  -20.4282   -8.6684 C   0  0  0  0  0  0  0  0  0  0  0  0
   25.1717  -21.6619   -9.2993 C   0  0  0  0  0  0  0  0  0  0  0  0
   25.6977  -21.7707  -10.5634 C   0  0  0  0  0  0  0  0  0  0  0  0
   26.3256  -20.7342  -11.2489 C   0  0  0  0  0  0  0  0  0  0  0  0
   26.9028  -20.8854  -12.5769 C   0  0  0  0  0  0  0  0  0  0  0  0
   26.0159  -21.3195  -13.6823 C   0  0  2  0  0  0  0  0  0  0  0  0
   26.7382  -21.2319  -14.9544 N   0  0  0  0  0  0  0  0  0  0  0  0
   24.7553  -20.6093  -13.8756 C   0  0  0  0  0  0  0  0  0  0  0  0
   24.7811  -19.3964  -14.2330 O   0  0  0  0  0  0  0  0  0  0  0  0
   26.4090  -19.5296  -10.5855 C   0  0  0  0  0  0  0  0  0  0  0  0
   25.8933  -19.3818   -9.3172 C   0  0  0  0  0  0  0  0  0  0  0  0
   23.4488  -21.1395  -13.7090 N   0  0  0  0  0  0  0  0  0  0  0  0
   22.3499  -20.3426  -13.2002 C   0  0  1  0  0  0  0  0  0  0  0  0
   21.5712  -19.6498  -14.2918 C   0  0  0  0  0  0  0  0  0  0  0  0
   21.0645  -20.5873  -15.3200 C   0  0  0  0  0  0  0  0  0  0  0  0
   20.0179  -21.4682  -15.1077 C   0  0  0  0  0  0  0  0  0  0  0  0
   19.8548  -22.1422  -16.2516 N   0  0  0  0  0  0  0  0  0  0  0  0
   20.7496  -21.7224  -17.1661 C   0  0  0  0  0  0  0  0  0  0  0  0
   20.9663  -22.1127  -18.4656 C   0  0  0  0  0  0  0  0  0  0  0  0
   21.9612  -21.5190  -19.2035 C   0  0  0  0  0  0  0  0  0  0  0  0
   22.7476  -20.5302  -18.6478 C   0  0  0  0  0  0  0  0  0  0  0  0
   22.5382  -20.1306  -17.3412 C   0  0  0  0  0  0  0  0  0  0  0  0
   21.5344  -20.7347  -16.6077 C   0  0  0  0  0  0  0  0  0  0  0  0
   21.4074  -21.0650  -12.3457 C   0  0  0  0  0  0  0  0  0  0  0  0
   21.4988  -22.3307  -12.1949 O   0  0  0  0  0  0  0  0  0  0  0  0
   20.4023  -20.3948  -11.6869 O   0  0  0  0  0  0  0  0  0  0  0  0
  2  1  1  6
  2  3  1  0
  3  4  1  0
  4  8  1  0
  4  5  2  0
  5  6  1  0
  7  6  1  0
  8  7  2  0
  9  2  1  0
  9 10  2  0
 11 12  1  0
 12 22  2  0
 13 14  2  0
 13 12  1  0
 14 15  1  0
 15 21  2  0
 16 15  1  0
 17 18  1  0
 17 16  1  1
 18  9  1  0
 19 17  1  0
 20 19  2  0
 21 22  1  0
 23 19  1  0
 24 25  1  6
 24 23  1  0
 25 26  1  0
 26 27  2  0
 26 34  1  0
 27 28  1  0
 28 29  1  0
 29 30  2  0
 30 31  1  0
 32 31  2  0
 33 32  1  0
 34 33  2  0
 34 29  1  0
 35 24  1  0
 36 35  2  0
 37 35  1  0
M  END
$$$$
