HYW.pdb
     RDKit          3D

 37 40  0  0  1  0  0  0  0  0999 V2000
   28.9027  -19.1757  -20.0805 N   0  0  0  0  0  0  0  0  0  0  0  0
   29.1446  -19.7686  -18.7842 C   0  0  1  0  0  0  0  0  0  0  0  0
   28.7816  -18.7821  -17.7233 C   0  0  0  0  0  0  0  0  0  0  0  0
   29.6501  -17.5831  -17.8346 C   0  0  0  0  0  0  0  0  0  0  0  0
   31.0307  -17.5861  -17.9494 C   0  0  0  0  0  0  0  0  0  0  0  0
   31.4471  -16.3150  -18.0268 N   0  0  0  0  0  0  0  0  0  0  0  0
   30.3800  -15.4953  -17.9657 C   0  0  0  0  0  0  0  0  0  0  0  0
   29.2925  -16.2785  -17.8488 N   0  0  0  0  0  0  0  0  0  0  0  0
   28.4168  -21.0534  -18.6203 C   0  0  0  0  0  0  0  0  0  0  0  0
   27.2302  -21.1329  -18.9958 O   0  0  0  0  0  0  0  0  0  0  0  0
   27.4863  -29.8476  -16.9328 O   0  0  0  0  0  0  0  0  0  0  0  0
   27.9326  -28.5438  -17.1101 C   0  0  0  0  0  0  0  0  0  0  0  0
   27.9218  -28.0572  -18.4118 C   0  0  0  0  0  0  0  0  0  0  0  0
   28.3598  -26.7702  -18.6069 C   0  0  0  0  0  0  0  0  0  0  0  0
   28.8103  -25.9276  -17.5941 C   0  0  0  0  0  0  0  0  0  0  0  0
   29.2990  -24.5772  -17.8329 C   0  0  0  0  0  0  0  0  0  0  0  0
   28.3149  -23.4693  -17.8606 C   0  0  2  0  0  0  0  0  0  0  0  0
   29.0143  -22.1960  -18.0539 N   0  0  0  0  0  0  0  0  0  0  0  0
   27.4455  -23.2889  -16.7019 C   0  0  0  0  0  0  0  0  0  0  0  0
   27.8040  -22.5001  -15.7807 O   0  0  0  0  0  0  0  0  0  0  0  0
   28.8039  -26.4516  -16.3199 C   0  0  0  0  0  0  0  0  0  0  0  0
   28.3719  -27.7379  -16.0847 C   0  0  0  0  0  0  0  0  0  0  0  0
   26.1909  -23.9144  -16.4772 N   0  0  0  0  0  0  0  0  0  0  0  0
   25.1977  -23.3559  -15.5810 C   0  0  1  0  0  0  0  0  0  0  0  0
   25.4493  -21.9037  -15.2561 C   0  0  0  0  0  0  0  0  0  0  0  0
   24.4049  -21.3208  -14.3831 C   0  0  0  0  0  0  0  0  0  0  0  0
   24.2373  -21.6624  -13.0521 C   0  0  0  0  0  0  0  0  0  0  0  0
   23.2049  -20.9390  -12.6045 N   0  0  0  0  0  0  0  0  0  0  0  0
   22.7222  -20.1629  -13.5934 C   0  0  0  0  0  0  0  0  0  0  0  0
   21.6834  -19.2637  -13.6128 C   0  0  0  0  0  0  0  0  0  0  0  0
   21.3850  -18.5849  -14.7689 C   0  0  0  0  0  0  0  0  0  0  0  0
   22.1230  -18.7997  -15.9154 C   0  0  0  0  0  0  0  0  0  0  0  0
   23.1698  -19.7025  -15.9067 C   0  0  0  0  0  0  0  0  0  0  0  0
   23.4614  -20.3801  -14.7378 C   0  0  0  0  0  0  0  0  0  0  0  0
   23.8125  -23.4971  -16.0297 C   0  0  0  0  0  0  0  0  0  0  0  0
   22.8402  -23.2836  -15.2283 O   0  0  0  0  0  0  0  0  0  0  0  0
   23.5288  -23.8635  -17.3253 O   0  0  0  0  0  0  0  0  0  0  0  0
  2  1  1  6
  2  3  1  0
  3  4  1  0
  4  8  1  0
  4  5  2  0
  5  6  1  0
  7  6  1  0
  8  7  2  0
  9  2  1  0
  9 10  2  0
 11 12  1  0
 12 22  2  0
 13 14  2  0
 13 12  1  0
 14 15  1  0
 15 21  2  0
 16 15  1  0
 17 18  1  0
 17 16  1  1
 18  9  1  0
 19 17  1  0
 20 19  2  0
 21 22  1  0
 23 19  1  0
 24 25  1  6
 24 23  1  0
 25 26  1  0
 26 27  2  0
 26 34  1  0
 27 28  1  0
 28 29  1  0
 29 30  2  0
 30 31  1  0
 32 31  2  0
 33 32  1  0
 34 33  2  0
 34 29  1  0
 35 24  1  0
 36 35  2  0
 37 35  1  0
M  END
$$$$
