HYW.pdb
     RDKit          3D

 37 40  0  0  1  0  0  0  0  0999 V2000
   27.5348  -20.2386  -16.1693 N   0  0  0  0  0  0  0  0  0  0  0  0
   27.3442  -19.7060  -14.8386 C   0  0  1  0  0  0  0  0  0  0  0  0
   26.6011  -18.4142  -14.9343 C   0  0  0  0  0  0  0  0  0  0  0  0
   27.3562  -17.4628  -15.7881 C   0  0  0  0  0  0  0  0  0  0  0  0
   26.8062  -16.5558  -16.6792 C   0  0  0  0  0  0  0  0  0  0  0  0
   27.8066  -15.8779  -17.2576 N   0  0  0  0  0  0  0  0  0  0  0  0
   28.9813  -16.3191  -16.7679 C   0  0  0  0  0  0  0  0  0  0  0  0
   28.6943  -17.2833  -15.8747 N   0  0  0  0  0  0  0  0  0  0  0  0
   26.6574  -20.6772  -13.9485 C   0  0  0  0  0  0  0  0  0  0  0  0
   25.7667  -21.4113  -14.4209 O   0  0  0  0  0  0  0  0  0  0  0  0
   27.1294  -19.2031   -5.7751 O   0  0  0  0  0  0  0  0  0  0  0  0
   27.2034  -19.9092   -6.9694 C   0  0  0  0  0  0  0  0  0  0  0  0
   26.0268  -20.5014   -7.4126 C   0  0  0  0  0  0  0  0  0  0  0  0
   26.0804  -21.2040   -8.5915 C   0  0  0  0  0  0  0  0  0  0  0  0
   27.2269  -21.3605   -9.3657 C   0  0  0  0  0  0  0  0  0  0  0  0
   27.2633  -22.1375  -10.5963 C   0  0  0  0  0  0  0  0  0  0  0  0
   26.3277  -21.7707  -11.6859 C   0  0  2  0  0  0  0  0  0  0  0  0
   26.9714  -20.8058  -12.5816 N   0  0  0  0  0  0  0  0  0  0  0  0
   25.0360  -21.1959  -11.3224 C   0  0  0  0  0  0  0  0  0  0  0  0
   25.0061  -20.1510  -10.6105 O   0  0  0  0  0  0  0  0  0  0  0  0
   28.3697  -20.7570   -8.8883 C   0  0  0  0  0  0  0  0  0  0  0  0
   28.3554  -20.0441   -7.7102 C   0  0  0  0  0  0  0  0  0  0  0  0
   23.7556  -21.6858  -11.6915 N   0  0  0  0  0  0  0  0  0  0  0  0
   22.6630  -20.8024  -12.0488 C   0  0  1  0  0  0  0  0  0  0  0  0
   23.0629  -19.7492  -13.0531 C   0  0  0  0  0  0  0  0  0  0  0  0
   21.9708  -18.7942  -13.3500 C   0  0  0  0  0  0  0  0  0  0  0  0
   21.0622  -18.3481  -12.4057 C   0  0  0  0  0  0  0  0  0  0  0  0
   20.2370  -17.5101  -13.0430 N   0  0  0  0  0  0  0  0  0  0  0  0
   20.5891  -17.4128  -14.3391 C   0  0  0  0  0  0  0  0  0  0  0  0
   20.0479  -16.6853  -15.3716 C   0  0  0  0  0  0  0  0  0  0  0  0
   20.6010  -16.7592  -16.6266 C   0  0  0  0  0  0  0  0  0  0  0  0
   21.6999  -17.5613  -16.8595 C   0  0  0  0  0  0  0  0  0  0  0  0
   22.2517  -18.2975  -15.8279 C   0  0  0  0  0  0  0  0  0  0  0  0
   21.6871  -18.2157  -14.5689 C   0  0  0  0  0  0  0  0  0  0  0  0
   21.4595  -21.4755  -12.5374 C   0  0  0  0  0  0  0  0  0  0  0  0
   21.5218  -22.3035  -13.5088 O   0  0  0  0  0  0  0  0  0  0  0  0
   20.2350  -21.2296  -11.9600 O   0  0  0  0  0  0  0  0  0  0  0  0
  2  1  1  6
  2  3  1  0
  3  4  1  0
  4  8  1  0
  4  5  2  0
  5  6  1  0
  7  6  1  0
  8  7  2  0
  9  2  1  0
  9 10  2  0
 11 12  1  0
 12 22  2  0
 13 14  2  0
 13 12  1  0
 14 15  1  0
 15 21  2  0
 16 15  1  0
 17 18  1  0
 17 16  1  1
 18  9  1  0
 19 17  1  0
 20 19  2  0
 21 22  1  0
 23 19  1  0
 24 25  1  6
 24 23  1  0
 25 26  1  0
 26 27  2  0
 26 34  1  0
 27 28  1  0
 28 29  1  0
 29 30  2  0
 30 31  1  0
 32 31  2  0
 33 32  1  0
 34 33  2  0
 34 29  1  0
 35 24  1  0
 36 35  2  0
 37 35  1  0
M  END
$$$$
