HYW.pdb
     RDKit          3D

 37 40  0  0  1  0  0  0  0  0999 V2000
   26.9307  -19.1343  -17.2556 N   0  0  0  0  0  0  0  0  0  0  0  0
   27.4131  -18.9752  -15.9020 C   0  0  1  0  0  0  0  0  0  0  0  0
   28.1988  -17.7083  -15.8120 C   0  0  0  0  0  0  0  0  0  0  0  0
   29.2835  -17.7174  -16.8258 C   0  0  0  0  0  0  0  0  0  0  0  0
   29.6008  -18.7701  -17.6686 C   0  0  0  0  0  0  0  0  0  0  0  0
   30.6332  -18.3954  -18.4361 N   0  0  0  0  0  0  0  0  0  0  0  0
   30.9897  -17.1370  -18.1144 C   0  0  0  0  0  0  0  0  0  0  0  0
   30.1613  -16.7352  -17.1335 N   0  0  0  0  0  0  0  0  0  0  0  0
   26.3050  -19.0128  -14.9131 C   0  0  0  0  0  0  0  0  0  0  0  0
   25.5365  -18.0347  -14.8225 O   0  0  0  0  0  0  0  0  0  0  0  0
   18.9911  -21.1682  -10.8190 O   0  0  0  0  0  0  0  0  0  0  0  0
   20.2149  -21.1701  -11.4768 C   0  0  0  0  0  0  0  0  0  0  0  0
   20.4821  -20.0761  -12.2910 C   0  0  0  0  0  0  0  0  0  0  0  0
   21.6872  -20.0604  -12.9497 C   0  0  0  0  0  0  0  0  0  0  0  0
   22.6511  -21.0607  -12.8560 C   0  0  0  0  0  0  0  0  0  0  0  0
   23.9079  -21.0342  -13.5902 C   0  0  0  0  0  0  0  0  0  0  0  0
   25.0028  -20.1773  -13.0767 C   0  0  2  0  0  0  0  0  0  0  0  0
   26.0827  -20.1154  -14.0655 N   0  0  0  0  0  0  0  0  0  0  0  0
   25.6273  -20.5411  -11.8084 C   0  0  0  0  0  0  0  0  0  0  0  0
   26.2632  -21.6312  -11.7261 O   0  0  0  0  0  0  0  0  0  0  0  0
   22.3438  -22.1260  -12.0381 C   0  0  0  0  0  0  0  0  0  0  0  0
   21.1456  -22.1773  -11.3612 C   0  0  0  0  0  0  0  0  0  0  0  0
   25.6106  -19.7847  -10.6070 N   0  0  0  0  0  0  0  0  0  0  0  0
   25.8623  -20.3848   -9.3116 C   0  0  1  0  0  0  0  0  0  0  0  0
   26.6462  -19.4841   -8.3886 C   0  0  0  0  0  0  0  0  0  0  0  0
   27.8728  -20.1265   -7.8636 C   0  0  0  0  0  0  0  0  0  0  0  0
   28.6337  -21.0324   -8.5825 C   0  0  0  0  0  0  0  0  0  0  0  0
   29.6463  -21.3905   -7.7851 N   0  0  0  0  0  0  0  0  0  0  0  0
   29.5524  -20.7502   -6.6043 C   0  0  0  0  0  0  0  0  0  0  0  0
   30.3486  -20.7940   -5.4853 C   0  0  0  0  0  0  0  0  0  0  0  0
   30.0324  -20.0310   -4.3879 C   0  0  0  0  0  0  0  0  0  0  0  0
   28.9173  -19.2177   -4.4005 C   0  0  0  0  0  0  0  0  0  0  0  0
   28.1094  -19.1666   -5.5209 C   0  0  0  0  0  0  0  0  0  0  0  0
   28.4369  -19.9387   -6.6197 C   0  0  0  0  0  0  0  0  0  0  0  0
   24.6689  -20.8481   -8.6035 C   0  0  0  0  0  0  0  0  0  0  0  0
   23.5293  -20.3130   -8.8225 O   0  0  0  0  0  0  0  0  0  0  0  0
   24.7502  -21.8706   -7.6862 O   0  0  0  0  0  0  0  0  0  0  0  0
  2  1  1  6
  2  3  1  0
  3  4  1  0
  4  8  1  0
  4  5  2  0
  5  6  1  0
  7  6  1  0
  8  7  2  0
  9  2  1  0
  9 10  2  0
 11 12  1  0
 12 22  2  0
 13 14  2  0
 13 12  1  0
 14 15  1  0
 15 21  2  0
 16 15  1  0
 17 18  1  0
 17 16  1  6
 18  9  1  0
 19 17  1  0
 20 19  2  0
 21 22  1  0
 23 19  1  0
 24 25  1  1
 24 23  1  0
 25 26  1  0
 26 27  2  0
 26 34  1  0
 27 28  1  0
 28 29  1  0
 29 30  2  0
 30 31  1  0
 32 31  2  0
 33 32  1  0
 34 33  2  0
 34 29  1  0
 35 24  1  0
 36 35  2  0
 37 35  1  0
M  END
$$$$
