HYW.pdb
     RDKit          3D

 37 40  0  0  1  0  0  0  0  0999 V2000
   21.6187  -31.9791  -11.1152 N   0  0  0  0  0  0  0  0  0  0  0  0
   22.3191  -31.1880  -10.1282 C   0  0  1  0  0  0  0  0  0  0  0  0
   21.3703  -30.1978   -9.5369 C   0  0  0  0  0  0  0  0  0  0  0  0
   20.9946  -29.1899  -10.5602 C   0  0  0  0  0  0  0  0  0  0  0  0
   21.8475  -28.2698  -11.1478 C   0  0  0  0  0  0  0  0  0  0  0  0
   21.1387  -27.5385  -12.0185 N   0  0  0  0  0  0  0  0  0  0  0  0
   19.8589  -27.9581  -12.0100 C   0  0  0  0  0  0  0  0  0  0  0  0
   19.7836  -28.9631  -11.1188 N   0  0  0  0  0  0  0  0  0  0  0  0
   22.9538  -32.0384   -9.0884 C   0  0  0  0  0  0  0  0  0  0  0  0
   22.3062  -32.9842   -8.5970 O   0  0  0  0  0  0  0  0  0  0  0  0
   29.5404  -35.3595   -4.0017 O   0  0  0  0  0  0  0  0  0  0  0  0
   28.7788  -34.6589   -4.9288 C   0  0  0  0  0  0  0  0  0  0  0  0
   28.1423  -33.5128   -4.4678 C   0  0  0  0  0  0  0  0  0  0  0  0
   27.3845  -32.8069   -5.3700 C   0  0  0  0  0  0  0  0  0  0  0  0
   27.2137  -33.1615   -6.7056 C   0  0  0  0  0  0  0  0  0  0  0  0
   26.3788  -32.4121   -7.6334 C   0  0  0  0  0  0  0  0  0  0  0  0
   24.9139  -32.6347   -7.5962 C   0  0  2  0  0  0  0  0  0  0  0  0
   24.2673  -31.8207   -8.6292 N   0  0  0  0  0  0  0  0  0  0  0  0
   24.2048  -32.3574   -6.3508 C   0  0  0  0  0  0  0  0  0  0  0  0
   24.0336  -31.1560   -5.9946 O   0  0  0  0  0  0  0  0  0  0  0  0
   27.8626  -34.3045   -7.1187 C   0  0  0  0  0  0  0  0  0  0  0  0
   28.6314  -35.0387   -6.2433 C   0  0  0  0  0  0  0  0  0  0  0  0
   23.6564  -33.3136   -5.4559 N   0  0  0  0  0  0  0  0  0  0  0  0
   23.2414  -32.9656   -4.1112 C   0  0  1  0  0  0  0  0  0  0  0  0
   21.7821  -32.5898   -4.0250 C   0  0  0  0  0  0  0  0  0  0  0  0
   20.8787  -33.7089   -4.3774 C   0  0  0  0  0  0  0  0  0  0  0  0
   21.0948  -35.0211   -3.9931 C   0  0  0  0  0  0  0  0  0  0  0  0
   20.0803  -35.7332   -4.4963 N   0  0  0  0  0  0  0  0  0  0  0  0
   19.2426  -34.9265   -5.1752 C   0  0  0  0  0  0  0  0  0  0  0  0
   18.0797  -35.1962   -5.8556 C   0  0  0  0  0  0  0  0  0  0  0  0
   17.3967  -34.1794   -6.4770 C   0  0  0  0  0  0  0  0  0  0  0  0
   17.8712  -32.8844   -6.4232 C   0  0  0  0  0  0  0  0  0  0  0  0
   19.0403  -32.6024   -5.7418 C   0  0  0  0  0  0  0  0  0  0  0  0
   19.7196  -33.6332   -5.1200 C   0  0  0  0  0  0  0  0  0  0  0  0
   23.5186  -33.9827   -3.0969 C   0  0  0  0  0  0  0  0  0  0  0  0
   23.3601  -33.7281   -1.8547 O   0  0  0  0  0  0  0  0  0  0  0  0
   23.9566  -35.2353   -3.4610 O   0  0  0  0  0  0  0  0  0  0  0  0
  2  1  1  6
  2  3  1  0
  3  4  1  0
  4  8  1  0
  4  5  2  0
  5  6  1  0
  7  6  1  0
  8  7  2  0
  9  2  1  0
  9 10  2  0
 11 12  1  0
 12 22  2  0
 13 14  2  0
 13 12  1  0
 14 15  1  0
 15 21  2  0
 16 15  1  0
 17 18  1  0
 17 16  1  1
 18  9  1  0
 19 17  1  0
 20 19  2  0
 21 22  1  0
 23 19  1  0
 24 25  1  6
 24 23  1  0
 25 26  1  0
 26 27  2  0
 26 34  1  0
 27 28  1  0
 28 29  1  0
 29 30  2  0
 30 31  1  0
 32 31  2  0
 33 32  1  0
 34 33  2  0
 34 29  1  0
 35 24  1  0
 36 35  2  0
 37 35  1  0
M  END
$$$$
