HYW.pdb
     RDKit          3D

 37 40  0  0  1  0  0  0  0  0999 V2000
   19.4455  -32.9688  -12.2794 N   0  0  0  0  0  0  0  0  0  0  0  0
   19.5341  -33.3497  -10.8874 C   0  0  1  0  0  0  0  0  0  0  0  0
   18.8357  -34.6558  -10.6958 C   0  0  0  0  0  0  0  0  0  0  0  0
   17.3761  -34.4794  -10.9026 C   0  0  0  0  0  0  0  0  0  0  0  0
   16.5296  -33.7134  -10.1177 C   0  0  0  0  0  0  0  0  0  0  0  0
   15.2924  -33.8048  -10.6238 N   0  0  0  0  0  0  0  0  0  0  0  0
   15.3157  -34.6041  -11.7077 C   0  0  0  0  0  0  0  0  0  0  0  0
   16.5888  -35.0083  -11.8673 N   0  0  0  0  0  0  0  0  0  0  0  0
   20.9425  -33.3989  -10.4171 C   0  0  0  0  0  0  0  0  0  0  0  0
   21.7776  -34.0612  -11.0646 O   0  0  0  0  0  0  0  0  0  0  0  0
   22.6642  -28.5278  -13.7852 O   0  0  0  0  0  0  0  0  0  0  0  0
   22.8505  -29.2469  -12.6111 C   0  0  0  0  0  0  0  0  0  0  0  0
   22.0445  -28.8951  -11.5350 C   0  0  0  0  0  0  0  0  0  0  0  0
   22.2144  -29.5948  -10.3654 C   0  0  0  0  0  0  0  0  0  0  0  0
   23.1337  -30.6254  -10.1886 C   0  0  0  0  0  0  0  0  0  0  0  0
   23.3152  -31.3301   -8.9277 C   0  0  0  0  0  0  0  0  0  0  0  0
   22.7728  -32.7043   -8.8073 C   0  0  2  0  0  0  0  0  0  0  0  0
   21.3795  -32.7236   -9.2610 N   0  0  0  0  0  0  0  0  0  0  0  0
   22.7859  -33.3390   -7.4928 C   0  0  0  0  0  0  0  0  0  0  0  0
   21.6967  -33.4760   -6.8649 O   0  0  0  0  0  0  0  0  0  0  0  0
   23.9115  -30.9402  -11.2814 C   0  0  0  0  0  0  0  0  0  0  0  0
   23.7702  -30.2611  -12.4710 C   0  0  0  0  0  0  0  0  0  0  0  0
   23.9208  -33.8473   -6.8077 N   0  0  0  0  0  0  0  0  0  0  0  0
   23.8089  -34.5712   -5.5566 C   0  0  1  0  0  0  0  0  0  0  0  0
   22.7868  -35.6805   -5.6085 C   0  0  0  0  0  0  0  0  0  0  0  0
   22.6242  -36.3733   -4.3100 C   0  0  0  0  0  0  0  0  0  0  0  0
   22.2809  -35.7298   -3.1334 C   0  0  0  0  0  0  0  0  0  0  0  0
   22.2336  -36.6743   -2.1873 N   0  0  0  0  0  0  0  0  0  0  0  0
   22.5304  -37.8753   -2.7190 C   0  0  0  0  0  0  0  0  0  0  0  0
   22.6082  -39.1231   -2.1489 C   0  0  0  0  0  0  0  0  0  0  0  0
   22.9368  -40.2107   -2.9206 C   0  0  0  0  0  0  0  0  0  0  0  0
   23.1906  -40.0595   -4.2689 C   0  0  0  0  0  0  0  0  0  0  0  0
   23.1156  -38.8085   -4.8521 C   0  0  0  0  0  0  0  0  0  0  0  0
   22.7840  -37.7209   -4.0662 C   0  0  0  0  0  0  0  0  0  0  0  0
   25.0650  -35.1218   -5.0475 C   0  0  0  0  0  0  0  0  0  0  0  0
   25.3556  -36.3545   -5.2180 O   0  0  0  0  0  0  0  0  0  0  0  0
   25.9593  -34.3221   -4.3736 O   0  0  0  0  0  0  0  0  0  0  0  0
  2  1  1  6
  2  3  1  0
  3  4  1  0
  4  8  1  0
  4  5  2  0
  5  6  1  0
  7  6  1  0
  8  7  2  0
  9  2  1  0
  9 10  2  0
 11 12  1  0
 12 22  2  0
 13 14  2  0
 13 12  1  0
 14 15  1  0
 15 21  2  0
 16 15  1  0
 17 18  1  0
 17 16  1  1
 18  9  1  0
 19 17  1  0
 20 19  2  0
 21 22  1  0
 23 19  1  0
 24 25  1  6
 24 23  1  0
 25 26  1  0
 26 27  2  0
 26 34  1  0
 27 28  1  0
 28 29  1  0
 29 30  2  0
 30 31  1  0
 32 31  2  0
 33 32  1  0
 34 33  2  0
 34 29  1  0
 35 24  1  0
 36 35  2  0
 37 35  1  0
M  END
$$$$
