HYW.pdb
     RDKit          3D

 37 40  0  0  1  0  0  0  0  0999 V2000
   28.8863  -21.1679  -18.7854 N   0  0  0  0  0  0  0  0  0  0  0  0
   28.2220  -20.1061  -18.0630 C   0  0  1  0  0  0  0  0  0  0  0  0
   27.2888  -19.3982  -18.9894 C   0  0  0  0  0  0  0  0  0  0  0  0
   28.0593  -18.7576  -20.0850 C   0  0  0  0  0  0  0  0  0  0  0  0
   27.8071  -18.8871  -21.4410 C   0  0  0  0  0  0  0  0  0  0  0  0
   28.7143  -18.1601  -22.1070 N   0  0  0  0  0  0  0  0  0  0  0  0
   29.5411  -17.5677  -21.2239 C   0  0  0  0  0  0  0  0  0  0  0  0
   29.1325  -17.9387  -19.9971 N   0  0  0  0  0  0  0  0  0  0  0  0
   27.5248  -20.6137  -16.8533 C   0  0  0  0  0  0  0  0  0  0  0  0
   26.7242  -21.5633  -16.9657 O   0  0  0  0  0  0  0  0  0  0  0  0
   25.0683  -20.6542   -8.2121 O   0  0  0  0  0  0  0  0  0  0  0  0
   25.7333  -20.5717   -9.4292 C   0  0  0  0  0  0  0  0  0  0  0  0
   25.9327  -19.2950   -9.9406 C   0  0  0  0  0  0  0  0  0  0  0  0
   26.5883  -19.1934  -11.1432 C   0  0  0  0  0  0  0  0  0  0  0  0
   27.0625  -20.2770  -11.8777 C   0  0  0  0  0  0  0  0  0  0  0  0
   27.7269  -20.1429  -13.1662 C   0  0  0  0  0  0  0  0  0  0  0  0
   26.9467  -20.4353  -14.3920 C   0  0  2  0  0  0  0  0  0  0  0  0
   27.7306  -20.0638  -15.5732 N   0  0  0  0  0  0  0  0  0  0  0  0
   25.6419  -19.7995  -14.5480 C   0  0  0  0  0  0  0  0  0  0  0  0
   25.5873  -18.5821  -14.8864 O   0  0  0  0  0  0  0  0  0  0  0  0
   26.8426  -21.5233  -11.3331 C   0  0  0  0  0  0  0  0  0  0  0  0
   26.1891  -21.6653  -10.1293 C   0  0  0  0  0  0  0  0  0  0  0  0
   24.3734  -20.4098  -14.3629 N   0  0  0  0  0  0  0  0  0  0  0  0
   23.1998  -19.6522  -13.9751 C   0  0  1  0  0  0  0  0  0  0  0  0
   22.7693  -18.6568  -15.0247 C   0  0  0  0  0  0  0  0  0  0  0  0
   22.6167  -19.2656  -16.3659 C   0  0  0  0  0  0  0  0  0  0  0  0
   22.0486  -20.5088  -16.5853 C   0  0  0  0  0  0  0  0  0  0  0  0
   22.0894  -20.7139  -17.9066 N   0  0  0  0  0  0  0  0  0  0  0  0
   22.6553  -19.6573  -18.5202 C   0  0  0  0  0  0  0  0  0  0  0  0
   22.9110  -19.4120  -19.8478 C   0  0  0  0  0  0  0  0  0  0  0  0
   23.5096  -18.2348  -20.2252 C   0  0  0  0  0  0  0  0  0  0  0  0
   23.8575  -17.2931  -19.2779 C   0  0  0  0  0  0  0  0  0  0  0  0
   23.6051  -17.5302  -17.9397 C   0  0  0  0  0  0  0  0  0  0  0  0
   23.0024  -18.7182  -17.5711 C   0  0  0  0  0  0  0  0  0  0  0  0
   22.0397  -20.4604  -13.5994 C   0  0  0  0  0  0  0  0  0  0  0  0
   20.9566  -19.9073  -13.2068 O   0  0  0  0  0  0  0  0  0  0  0  0
   22.0922  -21.8340  -13.6611 O   0  0  0  0  0  0  0  0  0  0  0  0
  2  1  1  6
  2  3  1  0
  3  4  1  0
  4  8  1  0
  4  5  2  0
  5  6  1  0
  7  6  1  0
  8  7  2  0
  9  2  1  0
  9 10  2  0
 11 12  1  0
 12 22  2  0
 13 14  2  0
 13 12  1  0
 14 15  1  0
 15 21  2  0
 16 15  1  0
 17 18  1  0
 17 16  1  1
 18  9  1  0
 19 17  1  0
 20 19  2  0
 21 22  1  0
 23 19  1  0
 24 25  1  6
 24 23  1  0
 25 26  1  0
 26 27  2  0
 26 34  1  0
 27 28  1  0
 28 29  1  0
 29 30  2  0
 30 31  1  0
 32 31  2  0
 33 32  1  0
 34 33  2  0
 34 29  1  0
 35 24  1  0
 36 35  2  0
 37 35  1  0
M  END
$$$$
