HYW.pdb
     RDKit          3D

 37 40  0  0  1  0  0  0  0  0999 V2000
   25.7854  -21.4274  -17.1644 N   0  0  0  0  0  0  0  0  0  0  0  0
   25.4541  -20.7177  -15.9490 C   0  0  1  0  0  0  0  0  0  0  0  0
   23.9758  -20.7695  -15.7437 C   0  0  0  0  0  0  0  0  0  0  0  0
   23.2976  -19.9319  -16.7648 C   0  0  0  0  0  0  0  0  0  0  0  0
   22.4565  -20.3903  -17.7656 C   0  0  0  0  0  0  0  0  0  0  0  0
   22.0438  -19.3357  -18.4815 N   0  0  0  0  0  0  0  0  0  0  0  0
   22.5917  -18.2147  -17.9739 C   0  0  0  0  0  0  0  0  0  0  0  0
   23.3524  -18.5903  -16.9299 N   0  0  0  0  0  0  0  0  0  0  0  0
   26.1964  -21.2518  -14.7782 C   0  0  0  0  0  0  0  0  0  0  0  0
   26.2432  -22.4850  -14.5981 O   0  0  0  0  0  0  0  0  0  0  0  0
   32.2212  -21.8629   -8.3013 O   0  0  0  0  0  0  0  0  0  0  0  0
   31.4085  -21.4771   -9.3602 C   0  0  0  0  0  0  0  0  0  0  0  0
   30.5534  -20.4068   -9.1265 C   0  0  0  0  0  0  0  0  0  0  0  0
   29.7420  -20.0111  -10.1616 C   0  0  0  0  0  0  0  0  0  0  0  0
   29.7202  -20.6071  -11.4197 C   0  0  0  0  0  0  0  0  0  0  0  0
   28.8271  -20.1876  -12.4901 C   0  0  0  0  0  0  0  0  0  0  0  0
   27.5454  -20.9126  -12.6593 C   0  0  2  0  0  0  0  0  0  0  0  0
   26.8557  -20.4181  -13.8541 N   0  0  0  0  0  0  0  0  0  0  0  0
   26.5731  -20.8591  -11.5718 C   0  0  0  0  0  0  0  0  0  0  0  0
   25.6048  -20.0494  -11.6515 O   0  0  0  0  0  0  0  0  0  0  0  0
   30.5839  -21.6642  -11.6065 C   0  0  0  0  0  0  0  0  0  0  0  0
   31.4128  -22.0898  -10.5925 C   0  0  0  0  0  0  0  0  0  0  0  0
   26.5806  -21.6429  -10.3880 N   0  0  0  0  0  0  0  0  0  0  0  0
   25.6224  -21.4391   -9.3194 C   0  0  1  0  0  0  0  0  0  0  0  0
   26.2120  -21.6695   -7.9492 C   0  0  0  0  0  0  0  0  0  0  0  0
   26.9210  -20.4815   -7.4215 C   0  0  0  0  0  0  0  0  0  0  0  0
   26.8984  -19.2392   -8.0317 C   0  0  0  0  0  0  0  0  0  0  0  0
   27.6478  -18.4325   -7.2720 N   0  0  0  0  0  0  0  0  0  0  0  0
   28.1354  -19.1134   -6.2176 C   0  0  0  0  0  0  0  0  0  0  0  0
   28.9435  -18.7167   -5.1794 C   0  0  0  0  0  0  0  0  0  0  0  0
   29.3073  -19.6188   -4.2097 C   0  0  0  0  0  0  0  0  0  0  0  0
   28.8661  -20.9252   -4.2703 C   0  0  0  0  0  0  0  0  0  0  0  0
   28.0534  -21.3347   -5.3107 C   0  0  0  0  0  0  0  0  0  0  0  0
   27.6933  -20.4186   -6.2811 C   0  0  0  0  0  0  0  0  0  0  0  0
   24.9593  -20.1351   -9.3252 C   0  0  0  0  0  0  0  0  0  0  0  0
   25.5707  -19.0921   -9.7392 O   0  0  0  0  0  0  0  0  0  0  0  0
   23.6624  -20.0057   -8.8839 O   0  0  0  0  0  0  0  0  0  0  0  0
  2  1  1  6
  2  3  1  0
  3  4  1  0
  4  8  1  0
  4  5  2  0
  5  6  1  0
  7  6  1  0
  8  7  2  0
  9  2  1  0
  9 10  2  0
 11 12  1  0
 12 22  2  0
 13 14  2  0
 13 12  1  0
 14 15  1  0
 15 21  2  0
 16 15  1  0
 17 18  1  0
 17 16  1  1
 18  9  1  0
 19 17  1  0
 20 19  2  0
 21 22  1  0
 23 19  1  0
 24 25  1  1
 24 23  1  0
 25 26  1  0
 26 27  2  0
 26 34  1  0
 27 28  1  0
 28 29  1  0
 29 30  2  0
 30 31  1  0
 32 31  2  0
 33 32  1  0
 34 33  2  0
 34 29  1  0
 35 24  1  0
 36 35  2  0
 37 35  1  0
M  END
$$$$
