HYW.pdb
     RDKit          3D

 37 40  0  0  1  0  0  0  0  0999 V2000
   30.1096  -22.4476  -18.5120 N   0  0  0  0  0  0  0  0  0  0  0  0
   29.6432  -22.9216  -17.2280 C   0  0  1  0  0  0  0  0  0  0  0  0
   30.8186  -23.3491  -16.4119 C   0  0  0  0  0  0  0  0  0  0  0  0
   31.4449  -24.5481  -17.0237 C   0  0  0  0  0  0  0  0  0  0  0  0
   31.0536  -25.8620  -16.8242 C   0  0  0  0  0  0  0  0  0  0  0  0
   31.8589  -26.6529  -17.5461 N   0  0  0  0  0  0  0  0  0  0  0  0
   32.7546  -25.8909  -18.2028 C   0  0  0  0  0  0  0  0  0  0  0  0
   32.4927  -24.6123  -17.8770 N   0  0  0  0  0  0  0  0  0  0  0  0
   28.8226  -21.9004  -16.5275 C   0  0  0  0  0  0  0  0  0  0  0  0
   29.2478  -20.7309  -16.4434 O   0  0  0  0  0  0  0  0  0  0  0  0
   21.2447  -17.8557  -14.3921 O   0  0  0  0  0  0  0  0  0  0  0  0
   22.3535  -18.5335  -14.8838 C   0  0  0  0  0  0  0  0  0  0  0  0
   22.2659  -19.9200  -14.9200 C   0  0  0  0  0  0  0  0  0  0  0  0
   23.3525  -20.6075  -15.4027 C   0  0  0  0  0  0  0  0  0  0  0  0
   24.5266  -20.0112  -15.8548 C   0  0  0  0  0  0  0  0  0  0  0  0
   25.6763  -20.7657  -16.3327 C   0  0  0  0  0  0  0  0  0  0  0  0
   26.6956  -21.1924  -15.3448 C   0  0  2  0  0  0  0  0  0  0  0  0
   27.5737  -22.1984  -15.9487 N   0  0  0  0  0  0  0  0  0  0  0  0
   26.2366  -21.7547  -14.0783 C   0  0  0  0  0  0  0  0  0  0  0  0
   25.8136  -22.9463  -14.0515 O   0  0  0  0  0  0  0  0  0  0  0  0
   24.5694  -18.6352  -15.8005 C   0  0  0  0  0  0  0  0  0  0  0  0
   23.4998  -17.9112  -15.3228 C   0  0  0  0  0  0  0  0  0  0  0  0
   26.2117  -21.0997  -12.8189 N   0  0  0  0  0  0  0  0  0  0  0  0
   25.5669  -21.6805  -11.6576 C   0  0  1  0  0  0  0  0  0  0  0  0
   26.5269  -21.9474  -10.5240 C   0  0  0  0  0  0  0  0  0  0  0  0
   26.5711  -20.8446   -9.5367 C   0  0  0  0  0  0  0  0  0  0  0  0
   25.5832  -19.8827   -9.4143 C   0  0  0  0  0  0  0  0  0  0  0  0
   25.9732  -19.0650   -8.4301 N   0  0  0  0  0  0  0  0  0  0  0  0
   27.1567  -19.4725   -7.9336 C   0  0  0  0  0  0  0  0  0  0  0  0
   27.9417  -18.9592   -6.9294 C   0  0  0  0  0  0  0  0  0  0  0  0
   29.1286  -19.5702   -6.6060 C   0  0  0  0  0  0  0  0  0  0  0  0
   29.5403  -20.6996   -7.2843 C   0  0  0  0  0  0  0  0  0  0  0  0
   28.7583  -21.2237   -8.2965 C   0  0  0  0  0  0  0  0  0  0  0  0
   27.5658  -20.6008   -8.6137 C   0  0  0  0  0  0  0  0  0  0  0  0
   24.4333  -20.9176  -11.1349 C   0  0  0  0  0  0  0  0  0  0  0  0
   23.5955  -21.4565  -10.3344 O   0  0  0  0  0  0  0  0  0  0  0  0
   24.2463  -19.6030  -11.4958 O   0  0  0  0  0  0  0  0  0  0  0  0
  2  1  1  6
  2  3  1  0
  3  4  1  0
  4  8  1  0
  4  5  2  0
  5  6  1  0
  7  6  1  0
  8  7  2  0
  9  2  1  0
  9 10  2  0
 11 12  1  0
 12 22  2  0
 13 14  2  0
 13 12  1  0
 14 15  1  0
 15 21  2  0
 16 15  1  0
 17 18  1  0
 17 16  1  6
 18  9  1  0
 19 17  1  0
 20 19  2  0
 21 22  1  0
 23 19  1  0
 24 25  1  1
 24 23  1  0
 25 26  1  0
 26 27  2  0
 26 34  1  0
 27 28  1  0
 28 29  1  0
 29 30  2  0
 30 31  1  0
 32 31  2  0
 33 32  1  0
 34 33  2  0
 34 29  1  0
 35 24  1  0
 36 35  2  0
 37 35  1  0
M  END
$$$$
