MLH.pdb
     RDKit          3D

 27 27  0  0  1  0  0  0  0  0999 V2000
   44.5456   -7.7179   -3.1828 C   0  0  0  0  0  0  0  0  0  0  0  0
   44.8962   -9.4805   -3.0852 S   0  0  0  0  0  0  0  0  0  0  0  0
   45.2544  -10.1979   -4.7004 C   0  0  0  0  0  0  0  0  0  0  0  0
   44.2453   -9.7205   -5.7473 C   0  0  0  0  0  0  0  0  0  0  0  0
   43.7046  -10.9431   -6.4413 C   0  0  2  0  0  0  0  0  0  0  0  0
   44.7149  -11.4148   -7.3700 N   0  0  0  0  0  0  0  0  0  0  0  0
   42.4990  -10.6008   -7.2443 C   0  0  0  0  0  0  0  0  0  0  0  0
   42.5699  -10.0711   -8.3832 O   0  0  0  0  0  0  0  0  0  0  0  0
   36.2088  -11.2852   -6.9488 C   0  0  0  0  0  0  0  0  0  0  0  0
   37.4511  -10.7483   -7.5472 C   0  0  2  0  0  0  0  0  0  0  0  0
   37.4378  -11.1057   -9.0440 C   0  0  0  0  0  0  0  0  0  0  0  0
   38.7381  -11.2095   -7.0199 C   0  0  0  0  0  0  0  0  0  0  0  0
   39.9822  -10.5060   -7.4388 C   0  0  2  0  0  0  0  0  0  0  0  0
   41.1710  -10.8641   -6.7473 N   0  0  0  0  0  0  0  0  0  0  0  0
   39.8362   -9.0390   -7.5292 C   0  0  0  0  0  0  0  0  0  0  0  0
   39.7312   -8.4061   -6.4550 O   0  0  0  0  0  0  0  0  0  0  0  0
   39.8071   -8.3048   -8.7376 N   0  0  0  0  0  0  0  0  0  0  0  0
   39.7268   -6.8369   -8.6988 C   0  0  1  0  0  0  0  0  0  0  0  0
   40.8757   -6.3627   -9.5727 C   0  0  0  0  0  0  0  0  0  0  0  0
   40.9159   -4.8865   -9.5720 C   0  0  0  0  0  0  0  0  0  0  0  0
   40.1790   -3.9757   -8.8740 C   0  0  0  0  0  0  0  0  0  0  0  0
   40.5959   -2.7560   -9.2428 N   0  0  0  0  0  0  0  0  0  0  0  0
   41.5616   -2.8855  -10.1420 C   0  0  0  0  0  0  0  0  0  0  0  0
   41.7653   -4.1805  -10.3507 N   0  0  0  0  0  0  0  0  0  0  0  0
   38.4310   -6.4394   -9.2501 C   0  0  0  0  0  0  0  0  0  0  0  0
   37.7836   -5.2519   -8.8544 O   0  0  0  0  0  0  0  0  0  0  0  0
   37.8636   -7.1612  -10.0979 O   0  0  0  0  0  0  0  0  0  0  0  0
  2  1  1  0
  3  2  1  0
  4  3  1  0
  4  5  1  0
  5  7  1  0
  5  6  1  6
  7  8  2  0
 10  9  1  1
 11 10  1  0
 13 12  1  1
 12 10  1  0
 14  7  1  0
 14 13  1  0
 15 16  2  0
 15 13  1  0
 17 15  1  0
 18 25  1  0
 18 17  1  0
 18 19  1  6
 20 19  1  0
 21 20  2  0
 22 21  1  0
 23 22  1  0
 23 24  2  0
 24 20  1  0
 25 26  1  0
 27 25  2  0
M  END
$$$$
