MLH.pdb
     RDKit          3D

 27 27  0  0  1  0  0  0  0  0999 V2000
   17.5571  -14.0076  -23.4033 C   0  0  0  0  0  0  0  0  0  0  0  0
   17.7843  -12.7111  -22.1758 S   0  0  0  0  0  0  0  0  0  0  0  0
   18.9209  -13.2011  -20.8645 C   0  0  0  0  0  0  0  0  0  0  0  0
   19.2393  -12.0191  -19.9460 C   0  0  0  0  0  0  0  0  0  0  0  0
   20.2254  -12.5031  -18.9155 C   0  0  2  0  0  0  0  0  0  0  0  0
   19.7075  -13.7312  -18.3417 N   0  0  0  0  0  0  0  0  0  0  0  0
   20.3486  -11.5201  -17.8046 C   0  0  0  0  0  0  0  0  0  0  0  0
   19.4825  -11.4069  -16.8991 O   0  0  0  0  0  0  0  0  0  0  0  0
   22.1285  -10.4163  -13.5998 C   0  0  0  0  0  0  0  0  0  0  0  0
   22.9913  -10.6550  -14.7780 C   0  0  2  0  0  0  0  0  0  0  0  0
   24.4527  -10.6284  -14.2964 C   0  0  0  0  0  0  0  0  0  0  0  0
   22.9074   -9.7247  -15.9069 C   0  0  0  0  0  0  0  0  0  0  0  0
   21.6443   -9.6580  -16.6933 C   0  0  2  0  0  0  0  0  0  0  0  0
   21.4846  -10.6364  -17.7116 N   0  0  0  0  0  0  0  0  0  0  0  0
   21.3246   -8.3060  -17.1945 C   0  0  0  0  0  0  0  0  0  0  0  0
   22.0397   -7.8519  -18.1153 O   0  0  0  0  0  0  0  0  0  0  0  0
   20.2730   -7.4943  -16.7092 N   0  0  0  0  0  0  0  0  0  0  0  0
   20.0143   -6.1860  -17.3290 C   0  0  1  0  0  0  0  0  0  0  0  0
   18.5838   -5.8501  -16.9423 C   0  0  0  0  0  0  0  0  0  0  0  0
   18.2390   -4.5087  -17.4547 C   0  0  0  0  0  0  0  0  0  0  0  0
   17.8156   -3.3881  -16.8031 C   0  0  0  0  0  0  0  0  0  0  0  0
   17.6267   -2.4349  -17.7269 N   0  0  0  0  0  0  0  0  0  0  0  0
   17.9185   -2.9303  -18.9215 C   0  0  0  0  0  0  0  0  0  0  0  0
   18.2932   -4.1944  -18.7680 N   0  0  0  0  0  0  0  0  0  0  0  0
   20.9637   -5.2237  -16.7690 C   0  0  0  0  0  0  0  0  0  0  0  0
   21.4713   -5.3503  -15.4606 O   0  0  0  0  0  0  0  0  0  0  0  0
   21.3482   -4.2524  -17.4548 O   0  0  0  0  0  0  0  0  0  0  0  0
  2  1  1  0
  3  2  1  0
  4  3  1  0
  4  5  1  0
  5  7  1  0
  5  6  1  1
  7  8  2  0
 10  9  1  1
 11 10  1  0
 13 12  1  6
 12 10  1  0
 14  7  1  0
 14 13  1  0
 15 16  2  0
 15 13  1  0
 17 15  1  0
 18 25  1  0
 18 17  1  0
 18 19  1  1
 20 19  1  0
 21 20  2  0
 22 21  1  0
 23 22  1  0
 23 24  2  0
 24 20  1  0
 25 26  1  0
 27 25  2  0
M  END
$$$$
