MLH.pdb
     RDKit          3D

 27 27  0  0  1  0  0  0  0  0999 V2000
   25.8096  -20.0493  -20.1864 C   0  0  0  0  0  0  0  0  0  0  0  0
   27.1514  -19.0282  -19.5567 S   0  0  0  0  0  0  0  0  0  0  0  0
   27.8028  -19.6426  -17.9915 C   0  0  0  0  0  0  0  0  0  0  0  0
   26.7328  -20.4182  -17.2199 C   0  0  0  0  0  0  0  0  0  0  0  0
   27.2889  -20.7115  -15.8512 C   0  0  2  0  0  0  0  0  0  0  0  0
   28.2948  -21.7483  -15.9890 N   0  0  0  0  0  0  0  0  0  0  0  0
   26.2270  -21.2492  -14.9574 C   0  0  0  0  0  0  0  0  0  0  0  0
   25.8188  -22.4372  -15.0266 O   0  0  0  0  0  0  0  0  0  0  0  0
   26.0485  -22.2685  -10.5745 C   0  0  0  0  0  0  0  0  0  0  0  0
   25.8624  -20.8248  -10.8399 C   0  0  2  0  0  0  0  0  0  0  0  0
   25.7247  -20.1166   -9.4806 C   0  0  0  0  0  0  0  0  0  0  0  0
   24.7143  -20.4039  -11.6473 C   0  0  0  0  0  0  0  0  0  0  0  0
   24.6077  -20.8835  -13.0534 C   0  0  2  0  0  0  0  0  0  0  0  0
   25.6057  -20.4210  -13.9534 N   0  0  0  0  0  0  0  0  0  0  0  0
   23.2563  -20.7394  -13.6317 C   0  0  0  0  0  0  0  0  0  0  0  0
   22.8489  -19.5777  -13.8544 O   0  0  0  0  0  0  0  0  0  0  0  0
   22.3966  -21.8165  -13.9493 N   0  0  0  0  0  0  0  0  0  0  0  0
   21.0607  -21.5465  -14.5019 C   0  0  1  0  0  0  0  0  0  0  0  0
   20.5454  -22.9036  -14.9507 C   0  0  0  0  0  0  0  0  0  0  0  0
   19.2039  -22.7463  -15.5475 C   0  0  0  0  0  0  0  0  0  0  0  0
   18.4039  -21.6480  -15.6636 C   0  0  0  0  0  0  0  0  0  0  0  0
   17.2757  -22.0370  -16.2748 N   0  0  0  0  0  0  0  0  0  0  0  0
   17.3545  -23.3341  -16.5375 C   0  0  0  0  0  0  0  0  0  0  0  0
   18.5261  -23.7775  -16.0984 N   0  0  0  0  0  0  0  0  0  0  0  0
   20.2342  -20.9827  -13.4342 C   0  0  0  0  0  0  0  0  0  0  0  0
   19.1991  -20.0634  -13.6975 O   0  0  0  0  0  0  0  0  0  0  0  0
   20.4366  -21.3123  -12.2460 O   0  0  0  0  0  0  0  0  0  0  0  0
  2  1  1  0
  3  2  1  0
  4  3  1  0
  4  5  1  0
  5  7  1  0
  5  6  1  6
  7  8  2  0
 10  9  1  1
 11 10  1  0
 13 12  1  1
 12 10  1  0
 14  7  1  0
 14 13  1  0
 15 16  2  0
 15 13  1  0
 17 15  1  0
 18 25  1  0
 18 17  1  0
 18 19  1  1
 20 19  1  0
 21 20  2  0
 22 21  1  0
 23 22  1  0
 23 24  2  0
 24 20  1  0
 25 26  1  0
 27 25  2  0
M  END
$$$$
