MLH.pdb
     RDKit          3D

 27 27  0  0  1  0  0  0  0  0999 V2000
   28.0892  -18.1132   -5.1845 C   0  0  0  0  0  0  0  0  0  0  0  0
   27.4541  -19.7714   -4.8907 S   0  0  0  0  0  0  0  0  0  0  0  0
   27.5255  -20.8036   -6.3676 C   0  0  0  0  0  0  0  0  0  0  0  0
   26.9420  -20.0696   -7.5772 C   0  0  0  0  0  0  0  0  0  0  0  0
   26.9681  -21.0268   -8.7398 C   0  0  2  0  0  0  0  0  0  0  0  0
   28.3551  -21.3327   -9.0373 N   0  0  0  0  0  0  0  0  0  0  0  0
   26.3905  -20.3916   -9.9557 C   0  0  0  0  0  0  0  0  0  0  0  0
   26.4224  -19.1494  -10.1529 O   0  0  0  0  0  0  0  0  0  0  0  0
   27.8016  -19.3642  -13.9168 C   0  0  0  0  0  0  0  0  0  0  0  0
   27.5535  -20.7954  -13.6349 C   0  0  2  0  0  0  0  0  0  0  0  0
   28.0895  -21.6038  -14.8297 C   0  0  0  0  0  0  0  0  0  0  0  0
   26.1733  -21.2371  -13.4184 C   0  0  0  0  0  0  0  0  0  0  0  0
   25.4110  -20.6808  -12.2661 C   0  0  2  0  0  0  0  0  0  0  0  0
   25.7566  -21.1821  -10.9820 N   0  0  0  0  0  0  0  0  0  0  0  0
   23.9474  -20.6789  -12.4645 C   0  0  0  0  0  0  0  0  0  0  0  0
   23.3232  -21.7128  -12.1377 O   0  0  0  0  0  0  0  0  0  0  0  0
   23.2073  -19.5966  -12.9944 N   0  0  0  0  0  0  0  0  0  0  0  0
   21.7385  -19.6635  -13.0298 C   0  0  1  0  0  0  0  0  0  0  0  0
   21.2936  -18.2464  -13.3496 C   0  0  0  0  0  0  0  0  0  0  0  0
   19.8213  -18.2069  -13.4575 C   0  0  0  0  0  0  0  0  0  0  0  0
   18.8911  -19.1942  -13.3167 C   0  0  0  0  0  0  0  0  0  0  0  0
   17.6870  -18.6428  -13.5258 N   0  0  0  0  0  0  0  0  0  0  0  0
   17.8449  -17.3532  -13.7900 C   0  0  0  0  0  0  0  0  0  0  0  0
   19.1424  -17.0759  -13.7512 N   0  0  0  0  0  0  0  0  0  0  0  0
   21.3531  -20.6004  -14.0855 C   0  0  0  0  0  0  0  0  0  0  0  0
   22.0969  -20.7324  -15.2750 O   0  0  0  0  0  0  0  0  0  0  0  0
   20.3362  -21.3137  -13.9485 O   0  0  0  0  0  0  0  0  0  0  0  0
  2  1  1  0
  3  2  1  0
  4  3  1  0
  4  5  1  0
  5  7  1  0
  5  6  1  6
  7  8  2  0
 10  9  1  6
 11 10  1  0
 13 12  1  6
 12 10  1  0
 14  7  1  0
 14 13  1  0
 15 16  2  0
 15 13  1  0
 17 15  1  0
 18 25  1  0
 18 17  1  0
 18 19  1  6
 20 19  1  0
 21 20  2  0
 22 21  1  0
 23 22  1  0
 23 24  2  0
 24 20  1  0
 25 26  1  0
 27 25  2  0
M  END
$$$$
