MLH.pdb
     RDKit          3D

 27 27  0  0  1  0  0  0  0  0999 V2000
   29.4875  -15.3706  -16.8359 C   0  0  0  0  0  0  0  0  0  0  0  0
   28.8923  -17.0460  -16.5565 S   0  0  0  0  0  0  0  0  0  0  0  0
   27.1110  -17.1890  -16.7977 C   0  0  0  0  0  0  0  0  0  0  0  0
   26.6570  -18.6453  -16.6744 C   0  0  0  0  0  0  0  0  0  0  0  0
   27.3059  -19.2159  -15.4407 C   0  0  2  0  0  0  0  0  0  0  0  0
   28.4248  -20.0380  -15.8624 N   0  0  0  0  0  0  0  0  0  0  0  0
   26.3596  -20.1056  -14.7137 C   0  0  0  0  0  0  0  0  0  0  0  0
   26.0840  -21.2687  -15.1063 O   0  0  0  0  0  0  0  0  0  0  0  0
   26.6440  -21.9948  -10.5669 C   0  0  0  0  0  0  0  0  0  0  0  0
   26.1373  -20.6046  -10.5597 C   0  0  2  0  0  0  0  0  0  0  0  0
   25.9207  -20.1968   -9.0917 C   0  0  0  0  0  0  0  0  0  0  0  0
   24.8853  -20.3123  -11.2626 C   0  0  0  0  0  0  0  0  0  0  0  0
   24.8302  -20.4898  -12.7404 C   0  0  2  0  0  0  0  0  0  0  0  0
   25.7033  -19.6702  -13.5057 N   0  0  0  0  0  0  0  0  0  0  0  0
   23.4602  -20.4746  -13.2921 C   0  0  0  0  0  0  0  0  0  0  0  0
   22.9465  -19.3570  -13.5205 O   0  0  0  0  0  0  0  0  0  0  0  0
   22.6939  -21.6283  -13.5784 N   0  0  0  0  0  0  0  0  0  0  0  0
   21.3167  -21.4860  -14.0744 C   0  0  1  0  0  0  0  0  0  0  0  0
   20.9595  -22.8563  -14.6250 C   0  0  0  0  0  0  0  0  0  0  0  0
   19.5935  -22.8195  -15.1848 C   0  0  0  0  0  0  0  0  0  0  0  0
   18.6641  -21.8217  -15.2007 C   0  0  0  0  0  0  0  0  0  0  0  0
   17.5754  -22.2983  -15.8213 N   0  0  0  0  0  0  0  0  0  0  0  0
   17.8032  -23.5523  -16.1864 C   0  0  0  0  0  0  0  0  0  0  0  0
   19.0309  -23.8811  -15.8034 N   0  0  0  0  0  0  0  0  0  0  0  0
   20.4633  -21.1207  -12.9434 C   0  0  0  0  0  0  0  0  0  0  0  0
   19.3368  -20.2880  -13.0961 O   0  0  0  0  0  0  0  0  0  0  0  0
   20.7244  -21.5485  -11.7987 O   0  0  0  0  0  0  0  0  0  0  0  0
  2  1  1  0
  3  2  1  0
  4  3  1  0
  4  5  1  0
  5  7  1  0
  5  6  1  6
  7  8  2  0
 10  9  1  1
 11 10  1  0
 13 12  1  1
 12 10  1  0
 14  7  1  0
 14 13  1  0
 15 16  2  0
 15 13  1  0
 17 15  1  0
 18 25  1  0
 18 17  1  0
 18 19  1  1
 20 19  1  0
 21 20  2  0
 22 21  1  0
 23 22  1  0
 23 24  2  0
 24 20  1  0
 25 26  1  0
 27 25  2  0
M  END
$$$$
