MLH.pdb
     RDKit          3D

 27 27  0  0  1  0  0  0  0  0999 V2000
   19.3854  -16.3452  -16.0709 C   0  0  0  0  0  0  0  0  0  0  0  0
   20.1793  -16.6260  -17.6615 S   0  0  0  0  0  0  0  0  0  0  0  0
   20.5671  -15.0854  -18.5147 C   0  0  0  0  0  0  0  0  0  0  0  0
   20.9746  -13.9962  -17.5198 C   0  0  0  0  0  0  0  0  0  0  0  0
   21.2649  -12.7487  -18.3123 C   0  0  2  0  0  0  0  0  0  0  0  0
   22.4485  -12.9933  -19.1153 N   0  0  0  0  0  0  0  0  0  0  0  0
   21.5800  -11.6118  -17.4048 C   0  0  0  0  0  0  0  0  0  0  0  0
   20.7873  -11.2165  -16.5114 O   0  0  0  0  0  0  0  0  0  0  0  0
   25.1630  -10.7029  -14.4093 C   0  0  0  0  0  0  0  0  0  0  0  0
   25.4220  -10.4518  -15.8444 C   0  0  2  0  0  0  0  0  0  0  0  0
   26.8796   -9.9761  -15.9769 C   0  0  0  0  0  0  0  0  0  0  0  0
   24.5958   -9.4632  -16.5422 C   0  0  0  0  0  0  0  0  0  0  0  0
   23.1467   -9.7454  -16.7393 C   0  0  2  0  0  0  0  0  0  0  0  0
   22.8288  -10.8977  -17.5078 N   0  0  0  0  0  0  0  0  0  0  0  0
   22.3659   -8.5729  -17.1834 C   0  0  0  0  0  0  0  0  0  0  0  0
   22.5208   -8.1955  -18.3661 O   0  0  0  0  0  0  0  0  0  0  0  0
   21.4610   -7.8521  -16.3699 N   0  0  0  0  0  0  0  0  0  0  0  0
   20.8197   -6.6356  -16.8911 C   0  0  1  0  0  0  0  0  0  0  0  0
   19.6499   -6.3827  -15.9550 C   0  0  0  0  0  0  0  0  0  0  0  0
   18.8832   -5.2144  -16.4323 C   0  0  0  0  0  0  0  0  0  0  0  0
   19.0511   -4.4284  -17.5341 C   0  0  0  0  0  0  0  0  0  0  0  0
   18.0952   -3.4887  -17.5051 N   0  0  0  0  0  0  0  0  0  0  0  0
   17.3473   -3.6694  -16.4255 C   0  0  0  0  0  0  0  0  0  0  0  0
   17.8185   -4.7191  -15.7634 N   0  0  0  0  0  0  0  0  0  0  0  0
   21.7979   -5.5488  -16.8365 C   0  0  0  0  0  0  0  0  0  0  0  0
   22.6695   -5.3829  -15.7418 O   0  0  0  0  0  0  0  0  0  0  0  0
   21.8785   -4.7315  -17.7784 O   0  0  0  0  0  0  0  0  0  0  0  0
  2  1  1  0
  3  2  1  0
  4  3  1  0
  4  5  1  0
  5  7  1  0
  5  6  1  6
  7  8  2  0
 10  9  1  1
 11 10  1  0
 13 12  1  6
 12 10  1  0
 14  7  1  0
 14 13  1  0
 15 16  2  0
 15 13  1  0
 17 15  1  0
 18 25  1  0
 18 17  1  0
 18 19  1  1
 20 19  1  0
 21 20  2  0
 22 21  1  0
 23 22  1  0
 23 24  2  0
 24 20  1  0
 25 26  1  0
 27 25  2  0
M  END
$$$$
