MLH.pdb
     RDKit          3D

 27 27  0  0  1  0  0  0  0  0999 V2000
   23.4787  -16.9879  -15.1313 C   0  0  0  0  0  0  0  0  0  0  0  0
   22.2528  -18.1595  -15.7346 S   0  0  0  0  0  0  0  0  0  0  0  0
   21.1102  -17.4099  -16.9112 C   0  0  0  0  0  0  0  0  0  0  0  0
   21.3289  -15.8978  -16.9993 C   0  0  0  0  0  0  0  0  0  0  0  0
   20.0520  -15.2321  -16.5578 C   0  0  2  0  0  0  0  0  0  0  0  0
   18.9617  -15.7967  -17.3312 N   0  0  0  0  0  0  0  0  0  0  0  0
   20.0899  -13.7743  -16.8558 C   0  0  0  0  0  0  0  0  0  0  0  0
   20.9477  -13.0014  -16.3562 O   0  0  0  0  0  0  0  0  0  0  0  0
   17.8844   -9.0411  -19.0651 C   0  0  0  0  0  0  0  0  0  0  0  0
   18.7604   -9.9803  -19.8001 C   0  0  2  0  0  0  0  0  0  0  0  0
   18.3671   -9.9155  -21.2865 C   0  0  0  0  0  0  0  0  0  0  0  0
   18.7394  -11.3965  -19.4247 C   0  0  0  0  0  0  0  0  0  0  0  0
   19.0797  -11.7761  -18.0253 C   0  0  2  0  0  0  0  0  0  0  0  0
   19.1299  -13.1685  -17.7454 N   0  0  0  0  0  0  0  0  0  0  0  0
   18.2962  -11.0521  -17.0037 C   0  0  0  0  0  0  0  0  0  0  0  0
   17.1113  -11.4131  -16.8278 O   0  0  0  0  0  0  0  0  0  0  0  0
   18.7893   -9.9864  -16.2156 N   0  0  0  0  0  0  0  0  0  0  0  0
   17.9005   -9.3168  -15.2540 C   0  0  1  0  0  0  0  0  0  0  0  0
   18.0880  -10.0822  -13.9549 C   0  0  0  0  0  0  0  0  0  0  0  0
   17.3177   -9.4229  -12.8813 C   0  0  0  0  0  0  0  0  0  0  0  0
   16.6075   -8.2587  -12.8807 C   0  0  0  0  0  0  0  0  0  0  0  0
   16.1032   -8.0979  -11.6489 N   0  0  0  0  0  0  0  0  0  0  0  0
   16.4786   -9.1209  -10.8937 C   0  0  0  0  0  0  0  0  0  0  0  0
   17.2198   -9.9356  -11.6347 N   0  0  0  0  0  0  0  0  0  0  0  0
   18.3360   -7.9257  -15.1273 C   0  0  0  0  0  0  0  0  0  0  0  0
   19.4793   -7.4377  -15.7909 O   0  0  0  0  0  0  0  0  0  0  0  0
   17.6892   -7.1301  -14.4129 O   0  0  0  0  0  0  0  0  0  0  0  0
  2  1  1  0
  3  2  1  0
  4  3  1  0
  4  5  1  0
  5  7  1  0
  5  6  1  6
  7  8  2  0
 10  9  1  1
 11 10  1  0
 13 12  1  6
 12 10  1  0
 14  7  1  0
 14 13  1  0
 15 16  2  0
 15 13  1  0
 17 15  1  0
 18 25  1  0
 18 17  1  0
 18 19  1  1
 20 19  1  0
 21 20  2  0
 22 21  1  0
 23 22  1  0
 23 24  2  0
 24 20  1  0
 25 26  1  0
 27 25  2  0
M  END
$$$$
