MLH.pdb
     RDKit          3D

 27 27  0  0  1  0  0  0  0  0999 V2000
   19.9145  -16.4546  -12.5402 C   0  0  0  0  0  0  0  0  0  0  0  0
   20.8057  -15.2542  -13.5422 S   0  0  0  0  0  0  0  0  0  0  0  0
   21.9075  -16.0402  -14.7338 C   0  0  0  0  0  0  0  0  0  0  0  0
   21.6127  -17.5376  -14.8471 C   0  0  0  0  0  0  0  0  0  0  0  0
   22.6480  -18.1317  -15.7657 C   0  0  2  0  0  0  0  0  0  0  0  0
   22.4059  -17.6223  -17.1027 N   0  0  0  0  0  0  0  0  0  0  0  0
   22.5053  -19.6119  -15.8297 C   0  0  0  0  0  0  0  0  0  0  0  0
   21.5954  -20.1783  -16.4887 O   0  0  0  0  0  0  0  0  0  0  0  0
   25.0274  -23.3987  -17.2472 C   0  0  0  0  0  0  0  0  0  0  0  0
   25.4608  -22.7576  -15.9859 C   0  0  2  0  0  0  0  0  0  0  0  0
   26.6829  -23.5350  -15.4658 C   0  0  0  0  0  0  0  0  0  0  0  0
   24.5088  -22.6853  -14.8744 C   0  0  0  0  0  0  0  0  0  0  0  0
   23.2603  -21.8914  -15.0455 C   0  0  2  0  0  0  0  0  0  0  0  0
   23.4176  -20.4814  -15.1285 N   0  0  0  0  0  0  0  0  0  0  0  0
   22.1873  -22.2560  -14.0983 C   0  0  0  0  0  0  0  0  0  0  0  0
   22.2313  -21.7444  -12.9574 O   0  0  0  0  0  0  0  0  0  0  0  0
   21.1204  -23.1375  -14.3895 N   0  0  0  0  0  0  0  0  0  0  0  0
   19.9551  -23.1950  -13.4942 C   0  0  1  0  0  0  0  0  0  0  0  0
   19.3538  -21.8008  -13.5506 C   0  0  0  0  0  0  0  0  0  0  0  0
   18.0640  -21.7931  -12.8315 C   0  0  0  0  0  0  0  0  0  0  0  0
   17.4320  -22.7739  -12.1256 C   0  0  0  0  0  0  0  0  0  0  0  0
   16.2758  -22.2636  -11.6778 N   0  0  0  0  0  0  0  0  0  0  0  0
   16.1756  -21.0054  -12.0837 C   0  0  0  0  0  0  0  0  0  0  0  0
   17.2604  -20.7074  -12.7883 N   0  0  0  0  0  0  0  0  0  0  0  0
   19.0311  -24.2017  -14.0174 C   0  0  0  0  0  0  0  0  0  0  0  0
   19.2600  -24.8611  -15.2415 O   0  0  0  0  0  0  0  0  0  0  0  0
   18.0012  -24.4996  -13.3754 O   0  0  0  0  0  0  0  0  0  0  0  0
  2  1  1  0
  3  2  1  0
  4  3  1  0
  4  5  1  0
  5  7  1  0
  5  6  1  6
  7  8  2  0
 10  9  1  6
 11 10  1  0
 13 12  1  1
 12 10  1  0
 14  7  1  0
 14 13  1  0
 15 16  2  0
 15 13  1  0
 17 15  1  0
 18 25  1  0
 18 17  1  0
 18 19  1  6
 20 19  1  0
 21 20  2  0
 22 21  1  0
 23 22  1  0
 23 24  2  0
 24 20  1  0
 25 26  1  0
 27 25  2  0
M  END
$$$$
