MLH.pdb
     RDKit          3D

 27 27  0  0  1  0  0  0  0  0999 V2000
   15.0944  -10.3157  -20.0727 C   0  0  0  0  0  0  0  0  0  0  0  0
   15.7577  -11.8017  -20.8416 S   0  0  0  0  0  0  0  0  0  0  0  0
   17.1141  -12.5168  -19.8925 C   0  0  0  0  0  0  0  0  0  0  0  0
   17.4444  -11.6525  -18.6735 C   0  0  0  0  0  0  0  0  0  0  0  0
   18.5957  -12.3074  -17.9564 C   0  0  2  0  0  0  0  0  0  0  0  0
   18.0765  -13.4456  -17.2210 N   0  0  0  0  0  0  0  0  0  0  0  0
   19.1901  -11.3769  -16.9583 C   0  0  0  0  0  0  0  0  0  0  0  0
   18.6780  -11.1780  -15.8265 O   0  0  0  0  0  0  0  0  0  0  0  0
   22.1927  -11.3480  -13.8732 C   0  0  0  0  0  0  0  0  0  0  0  0
   22.7748  -11.1964  -15.2251 C   0  0  2  0  0  0  0  0  0  0  0  0
   24.3064  -11.2032  -15.0747 C   0  0  0  0  0  0  0  0  0  0  0  0
   22.4376  -10.0009  -16.0023 C   0  0  0  0  0  0  0  0  0  0  0  0
   21.0105   -9.7388  -16.3385 C   0  0  2  0  0  0  0  0  0  0  0  0
   20.4005  -10.6472  -17.2454 N   0  0  0  0  0  0  0  0  0  0  0  0
   20.7344   -8.3379  -16.7163 C   0  0  0  0  0  0  0  0  0  0  0  0
   21.0107   -7.9948  -17.8873 O   0  0  0  0  0  0  0  0  0  0  0  0
   20.1829   -7.3638  -15.8520 N   0  0  0  0  0  0  0  0  0  0  0  0
   20.0374   -5.9753  -16.3144 C   0  0  1  0  0  0  0  0  0  0  0  0
   18.7899   -5.4626  -15.6148 C   0  0  0  0  0  0  0  0  0  0  0  0
   17.5941   -5.8866  -16.3705 C   0  0  0  0  0  0  0  0  0  0  0  0
   17.4788   -6.5396  -17.5622 C   0  0  0  0  0  0  0  0  0  0  0  0
   16.1701   -6.6764  -17.8189 N   0  0  0  0  0  0  0  0  0  0  0  0
   15.4783   -6.1307  -16.8283 C   0  0  0  0  0  0  0  0  0  0  0  0
   16.3363   -5.6457  -15.9390 N   0  0  0  0  0  0  0  0  0  0  0  0
   21.2294   -5.2334  -15.9024 C   0  0  0  0  0  0  0  0  0  0  0  0
   21.6001   -4.0179  -16.5113 O   0  0  0  0  0  0  0  0  0  0  0  0
   21.9550   -5.6743  -14.9855 O   0  0  0  0  0  0  0  0  0  0  0  0
  2  1  1  0
  3  2  1  0
  4  3  1  0
  4  5  1  0
  5  7  1  0
  5  6  1  1
  7  8  2  0
 10  9  1  1
 11 10  1  0
 13 12  1  6
 12 10  1  0
 14  7  1  0
 14 13  1  0
 15 16  2  0
 15 13  1  0
 17 15  1  0
 18 25  1  0
 18 17  1  0
 18 19  1  1
 20 19  1  0
 21 20  2  0
 22 21  1  0
 23 22  1  0
 23 24  2  0
 24 20  1  0
 25 26  1  0
 27 25  2  0
M  END
$$$$
