MLH.pdb
     RDKit          3D

 27 27  0  0  1  0  0  0  0  0999 V2000
   33.4564  -22.8676   -7.8775 C   0  0  0  0  0  0  0  0  0  0  0  0
   33.6013  -23.2050   -9.6395 S   0  0  0  0  0  0  0  0  0  0  0  0
   32.3994  -22.2799  -10.6149 C   0  0  0  0  0  0  0  0  0  0  0  0
   30.9721  -22.5757  -10.1487 C   0  0  0  0  0  0  0  0  0  0  0  0
   30.0420  -21.7424  -10.9907 C   0  0  2  0  0  0  0  0  0  0  0  0
   30.5071  -20.3686  -10.9463 N   0  0  0  0  0  0  0  0  0  0  0  0
   28.6660  -21.7562  -10.4233 C   0  0  0  0  0  0  0  0  0  0  0  0
   27.9154  -22.7639  -10.4874 O   0  0  0  0  0  0  0  0  0  0  0  0
   27.3249  -20.9937   -6.0597 C   0  0  0  0  0  0  0  0  0  0  0  0
   27.4727  -19.8212   -6.9502 C   0  0  2  0  0  0  0  0  0  0  0  0
   27.3001  -18.5584   -6.0877 C   0  0  0  0  0  0  0  0  0  0  0  0
   26.5530  -19.6817   -8.0822 C   0  0  0  0  0  0  0  0  0  0  0  0
   26.7779  -20.5099   -9.2996 C   0  0  2  0  0  0  0  0  0  0  0  0
   28.1187  -20.5970   -9.7626 N   0  0  0  0  0  0  0  0  0  0  0  0
   25.8474  -20.2082  -10.4063 C   0  0  0  0  0  0  0  0  0  0  0  0
   26.0612  -19.1678  -11.0675 O   0  0  0  0  0  0  0  0  0  0  0  0
   24.7390  -21.0085  -10.7682 N   0  0  0  0  0  0  0  0  0  0  0  0
   23.9509  -20.6681  -11.9623 C   0  0  1  0  0  0  0  0  0  0  0  0
   24.1400  -21.8480  -12.9007 C   0  0  0  0  0  0  0  0  0  0  0  0
   23.2542  -21.6906  -14.0717 C   0  0  0  0  0  0  0  0  0  0  0  0
   22.3157  -20.7433  -14.3576 C   0  0  0  0  0  0  0  0  0  0  0  0
   21.7766  -21.0589  -15.5440 N   0  0  0  0  0  0  0  0  0  0  0  0
   22.3502  -22.1655  -15.9960 C   0  0  0  0  0  0  0  0  0  0  0  0
   23.2530  -22.5599  -15.1064 N   0  0  0  0  0  0  0  0  0  0  0  0
   22.5530  -20.5217  -11.5559 C   0  0  0  0  0  0  0  0  0  0  0  0
   21.6105  -19.8428  -12.3537 O   0  0  0  0  0  0  0  0  0  0  0  0
   22.1626  -21.0049  -10.4716 O   0  0  0  0  0  0  0  0  0  0  0  0
  2  1  1  0
  3  2  1  0
  4  3  1  0
  4  5  1  0
  5  7  1  0
  5  6  1  1
  7  8  2  0
 10  9  1  1
 11 10  1  0
 13 12  1  1
 12 10  1  0
 14  7  1  0
 14 13  1  0
 15 16  2  0
 15 13  1  0
 17 15  1  0
 18 25  1  0
 18 17  1  0
 18 19  1  6
 20 19  1  0
 21 20  2  0
 22 21  1  0
 23 22  1  0
 23 24  2  0
 24 20  1  0
 25 26  1  0
 27 25  2  0
M  END
$$$$
