MLH.pdb
     RDKit          3D

 27 27  0  0  1  0  0  0  0  0999 V2000
   16.8940  -13.0369  -17.9990 C   0  0  0  0  0  0  0  0  0  0  0  0
   17.7795  -14.2719  -18.9635 S   0  0  0  0  0  0  0  0  0  0  0  0
   19.5487  -14.2734  -18.6151 C   0  0  0  0  0  0  0  0  0  0  0  0
   19.8975  -13.2331  -17.5482 C   0  0  0  0  0  0  0  0  0  0  0  0
   21.3825  -13.3136  -17.3098 C   0  0  2  0  0  0  0  0  0  0  0  0
   21.6711  -14.6039  -16.7120 N   0  0  0  0  0  0  0  0  0  0  0  0
   21.8148  -12.2744  -16.3358 C   0  0  0  0  0  0  0  0  0  0  0  0
   21.5663  -12.3525  -15.1049 O   0  0  0  0  0  0  0  0  0  0  0  0
   25.6572  -11.0319  -14.6273 C   0  0  0  0  0  0  0  0  0  0  0  0
   25.4636  -10.3620  -15.9324 C   0  0  2  0  0  0  0  0  0  0  0  0
   26.7051   -9.4917  -16.1964 C   0  0  0  0  0  0  0  0  0  0  0  0
   24.2988   -9.4900  -16.1056 C   0  0  0  0  0  0  0  0  0  0  0  0
   22.9374  -10.0553  -15.8927 C   0  0  2  0  0  0  0  0  0  0  0  0
   22.5508  -11.1101  -16.7631 N   0  0  0  0  0  0  0  0  0  0  0  0
   21.8771   -9.0327  -15.7860 C   0  0  0  0  0  0  0  0  0  0  0  0
   21.2294   -8.7681  -16.8233 O   0  0  0  0  0  0  0  0  0  0  0  0
   21.5450   -8.3366  -14.6006 N   0  0  0  0  0  0  0  0  0  0  0  0
   20.3964   -7.4183  -14.5900 C   0  0  1  0  0  0  0  0  0  0  0  0
   19.9844   -7.3297  -13.1302 C   0  0  0  0  0  0  0  0  0  0  0  0
   19.1657   -8.5075  -12.7791 C   0  0  0  0  0  0  0  0  0  0  0  0
   18.7697   -9.5735  -13.5318 C   0  0  0  0  0  0  0  0  0  0  0  0
   18.0261  -10.3649  -12.7456 N   0  0  0  0  0  0  0  0  0  0  0  0
   17.9512   -9.8229  -11.5379 C   0  0  0  0  0  0  0  0  0  0  0  0
   18.6425   -8.6897  -11.5464 N   0  0  0  0  0  0  0  0  0  0  0  0
   20.8466   -6.1237  -15.1022 C   0  0  0  0  0  0  0  0  0  0  0  0
   19.9426   -5.1549  -15.5818 O   0  0  0  0  0  0  0  0  0  0  0  0
   22.0655   -5.8493  -15.1247 O   0  0  0  0  0  0  0  0  0  0  0  0
  2  1  1  0
  3  2  1  0
  4  3  1  0
  4  5  1  0
  5  7  1  0
  5  6  1  1
  7  8  2  0
 10  9  1  1
 11 10  1  0
 13 12  1  6
 12 10  1  0
 14  7  1  0
 14 13  1  0
 15 16  2  0
 15 13  1  0
 17 15  1  0
 18 25  1  0
 18 17  1  0
 18 19  1  1
 20 19  1  0
 21 20  2  0
 22 21  1  0
 23 22  1  0
 23 24  2  0
 24 20  1  0
 25 26  1  0
 27 25  2  0
M  END
$$$$
