MLH.pdb
     RDKit          3D

 27 27  0  0  1  0  0  0  0  0999 V2000
   28.7391  -20.5161   -7.3220 C   0  0  0  0  0  0  0  0  0  0  0  0
   27.0946  -20.0242   -6.7808 S   0  0  0  0  0  0  0  0  0  0  0  0
   25.8174  -20.4810   -7.9690 C   0  0  0  0  0  0  0  0  0  0  0  0
   26.1352  -19.9202   -9.3570 C   0  0  0  0  0  0  0  0  0  0  0  0
   25.0599  -20.4033  -10.2944 C   0  0  2  0  0  0  0  0  0  0  0  0
   25.1022  -21.8536  -10.3154 N   0  0  0  0  0  0  0  0  0  0  0  0
   25.3265  -19.9385  -11.6831 C   0  0  0  0  0  0  0  0  0  0  0  0
   25.3223  -18.7221  -12.0043 O   0  0  0  0  0  0  0  0  0  0  0  0
   28.4448  -18.8880  -14.6909 C   0  0  0  0  0  0  0  0  0  0  0  0
   28.2662  -20.3330  -14.4272 C   0  0  2  0  0  0  0  0  0  0  0  0
   29.3602  -21.0857  -15.2051 C   0  0  0  0  0  0  0  0  0  0  0  0
   26.9917  -20.9584  -14.7898 C   0  0  0  0  0  0  0  0  0  0  0  0
   25.7472  -20.5053  -14.1085 C   0  0  2  0  0  0  0  0  0  0  0  0
   25.6066  -20.8749  -12.7435 N   0  0  0  0  0  0  0  0  0  0  0  0
   24.5137  -20.7883  -14.8700 C   0  0  0  0  0  0  0  0  0  0  0  0
   24.5416  -20.5822  -16.1037 O   0  0  0  0  0  0  0  0  0  0  0  0
   23.3112  -21.2731  -14.3052 N   0  0  0  0  0  0  0  0  0  0  0  0
   22.1558  -21.5488  -15.1724 C   0  0  1  0  0  0  0  0  0  0  0  0
   21.4031  -22.6671  -14.4713 C   0  0  0  0  0  0  0  0  0  0  0  0
   22.2086  -23.9039  -14.5161 C   0  0  0  0  0  0  0  0  0  0  0  0
   23.4260  -24.1543  -15.0774 C   0  0  0  0  0  0  0  0  0  0  0  0
   23.7141  -25.4439  -14.8506 N   0  0  0  0  0  0  0  0  0  0  0  0
   22.7174  -25.9939  -14.1709 C   0  0  0  0  0  0  0  0  0  0  0  0
   21.7934  -25.0641  -13.9611 N   0  0  0  0  0  0  0  0  0  0  0  0
   21.3519  -20.3291  -15.2573 C   0  0  0  0  0  0  0  0  0  0  0  0
   21.3676  -19.3521  -14.2420 O   0  0  0  0  0  0  0  0  0  0  0  0
   20.6217  -20.1289  -16.2514 O   0  0  0  0  0  0  0  0  0  0  0  0
  2  1  1  0
  3  2  1  0
  4  3  1  0
  4  5  1  0
  5  7  1  0
  5  6  1  6
  7  8  2  0
 10  9  1  6
 11 10  1  0
 13 12  1  6
 12 10  1  0
 14  7  1  0
 14 13  1  0
 15 16  2  0
 15 13  1  0
 17 15  1  0
 18 25  1  0
 18 17  1  0
 18 19  1  1
 20 19  1  0
 21 20  2  0
 22 21  1  0
 23 22  1  0
 23 24  2  0
 24 20  1  0
 25 26  1  0
 27 25  2  0
M  END
$$$$
