MLH.pdb
     RDKit          3D

 27 27  0  0  1  0  0  0  0  0999 V2000
   19.9531  -18.4837    1.4621 C   0  0  0  0  0  0  0  0  0  0  0  0
   18.4073  -18.5950    0.5470 S   0  0  0  0  0  0  0  0  0  0  0  0
   17.0077  -18.9917    1.6126 C   0  0  0  0  0  0  0  0  0  0  0  0
   16.8952  -17.9900    2.7641 C   0  0  0  0  0  0  0  0  0  0  0  0
   15.6799  -18.3661    3.5704 C   0  0  2  0  0  0  0  0  0  0  0  0
   14.5056  -18.1086    2.7578 N   0  0  0  0  0  0  0  0  0  0  0  0
   15.5686  -17.5095    4.7826 C   0  0  0  0  0  0  0  0  0  0  0  0
   14.9064  -16.4399    4.7995 O   0  0  0  0  0  0  0  0  0  0  0  0
   14.6124  -17.6343   10.7435 C   0  0  0  0  0  0  0  0  0  0  0  0
   15.2526  -16.9664    9.5886 C   0  0  2  0  0  0  0  0  0  0  0  0
   14.4408  -15.6964    9.2780 C   0  0  0  0  0  0  0  0  0  0  0  0
   15.3685  -17.7055    8.3287 C   0  0  0  0  0  0  0  0  0  0  0  0
   16.1435  -17.1030    7.2085 C   0  0  2  0  0  0  0  0  0  0  0  0
   16.2247  -17.8704    6.0151 N   0  0  0  0  0  0  0  0  0  0  0  0
   17.4704  -16.5922    7.6085 C   0  0  0  0  0  0  0  0  0  0  0  0
   18.4208  -17.4058    7.6114 O   0  0  0  0  0  0  0  0  0  0  0  0
   17.7395  -15.2561    7.9857 N   0  0  0  0  0  0  0  0  0  0  0  0
   19.0638  -14.8993    8.5165 C   0  0  1  0  0  0  0  0  0  0  0  0
   19.9175  -14.6405    7.2865 C   0  0  0  0  0  0  0  0  0  0  0  0
   19.2773  -13.6020    6.4545 C   0  0  0  0  0  0  0  0  0  0  0  0
   18.0666  -12.9858    6.5743 C   0  0  0  0  0  0  0  0  0  0  0  0
   17.9526  -12.1247    5.5530 N   0  0  0  0  0  0  0  0  0  0  0  0
   19.0493  -12.1905    4.8109 C   0  0  0  0  0  0  0  0  0  0  0  0
   19.8644  -13.0882    5.3510 N   0  0  0  0  0  0  0  0  0  0  0  0
   18.9151  -13.6939    9.3323 C   0  0  0  0  0  0  0  0  0  0  0  0
   17.6675  -13.0645    9.5144 O   0  0  0  0  0  0  0  0  0  0  0  0
   19.9123  -13.1904    9.8925 O   0  0  0  0  0  0  0  0  0  0  0  0
  2  1  1  0
  3  2  1  0
  4  3  1  0
  4  5  1  0
  5  7  1  0
  5  6  1  6
  7  8  2  0
 10  9  1  1
 11 10  1  0
 13 12  1  1
 12 10  1  0
 14  7  1  0
 14 13  1  0
 15 16  2  0
 15 13  1  0
 17 15  1  0
 18 25  1  0
 18 17  1  0
 18 19  1  6
 20 19  1  0
 21 20  2  0
 22 21  1  0
 23 22  1  0
 23 24  2  0
 24 20  1  0
 25 26  1  0
 27 25  2  0
M  END
$$$$
