MLH.pdb
     RDKit          3D

 27 27  0  0  1  0  0  0  0  0999 V2000
   26.7107  -16.1900  -14.3044 C   0  0  0  0  0  0  0  0  0  0  0  0
   27.3310  -16.3406  -15.9872 S   0  0  0  0  0  0  0  0  0  0  0  0
   26.9848  -17.9594  -16.7023 C   0  0  0  0  0  0  0  0  0  0  0  0
   27.8379  -19.0440  -16.0405 C   0  0  0  0  0  0  0  0  0  0  0  0
   27.3029  -20.3767  -16.4947 C   0  0  2  0  0  0  0  0  0  0  0  0
   25.9514  -20.1743  -16.9825 N   0  0  0  0  0  0  0  0  0  0  0  0
   27.2171  -21.3253  -15.3509 C   0  0  0  0  0  0  0  0  0  0  0  0
   28.2351  -21.7771  -14.7659 O   0  0  0  0  0  0  0  0  0  0  0  0
   25.7843  -21.7015  -10.5366 C   0  0  0  0  0  0  0  0  0  0  0  0
   25.5896  -20.4491  -11.3002 C   0  0  2  0  0  0  0  0  0  0  0  0
   24.1486  -19.9710  -11.0484 C   0  0  0  0  0  0  0  0  0  0  0  0
   25.7704  -20.4804  -12.7539 C   0  0  0  0  0  0  0  0  0  0  0  0
   25.5842  -21.7699  -13.4756 C   0  0  2  0  0  0  0  0  0  0  0  0
   25.9428  -21.7789  -14.8507 N   0  0  0  0  0  0  0  0  0  0  0  0
   24.2587  -22.3859  -13.2634 C   0  0  0  0  0  0  0  0  0  0  0  0
   23.8562  -22.4880  -12.0832 O   0  0  0  0  0  0  0  0  0  0  0  0
   23.4182  -22.8651  -14.2949 N   0  0  0  0  0  0  0  0  0  0  0  0
   22.3752  -21.9911  -14.8527 C   0  0  1  0  0  0  0  0  0  0  0  0
   22.4421  -20.7249  -14.0156 C   0  0  0  0  0  0  0  0  0  0  0  0
   21.3674  -20.7487  -13.0031 C   0  0  0  0  0  0  0  0  0  0  0  0
   20.5077  -21.7430  -12.6398 C   0  0  0  0  0  0  0  0  0  0  0  0
   19.7126  -21.2534  -11.6777 N   0  0  0  0  0  0  0  0  0  0  0  0
   20.0530  -19.9947  -11.4379 C   0  0  0  0  0  0  0  0  0  0  0  0
   21.0612  -19.6759  -12.2404 N   0  0  0  0  0  0  0  0  0  0  0  0
   22.7055  -21.7287  -16.2537 C   0  0  0  0  0  0  0  0  0  0  0  0
   23.8905  -21.0654  -16.6300 O   0  0  0  0  0  0  0  0  0  0  0  0
   21.9263  -22.0947  -17.1596 O   0  0  0  0  0  0  0  0  0  0  0  0
  2  1  1  0
  3  2  1  0
  4  3  1  0
  4  5  1  0
  5  7  1  0
  5  6  1  1
  7  8  2  0
 10  9  1  6
 11 10  1  0
 13 12  1  6
 12 10  1  0
 14  7  1  0
 14 13  1  0
 15 16  2  0
 15 13  1  0
 17 15  1  0
 18 25  1  0
 18 17  1  0
 18 19  1  1
 20 19  1  0
 21 20  2  0
 22 21  1  0
 23 22  1  0
 23 24  2  0
 24 20  1  0
 25 26  1  0
 27 25  2  0
M  END
$$$$
