FCT.pdb
     RDKit          3D

 25 25  0  0  1  0  0  0  0  0999 V2000
   15.9916  -11.9650  -12.9698 N   0  0  0  0  0  0  0  0  0  0  0  0
   15.0201  -11.0744  -12.4155 C   0  0  1  0  0  0  0  0  0  0  0  0
   14.7104  -11.5811  -11.0049 C   0  0  0  0  0  0  0  0  0  0  0  0
   13.6233  -12.5830  -11.0082 C   0  0  0  0  0  0  0  0  0  0  0  0
   12.3008  -12.2149  -10.9501 C   0  0  0  0  0  0  0  0  0  0  0  0
   11.2807  -13.1730  -10.9529 C   0  0  0  0  0  0  0  0  0  0  0  0
   11.5881  -14.5103  -11.0143 C   0  0  0  0  0  0  0  0  0  0  0  0
   12.9128  -14.8875  -11.0728 C   0  0  0  0  0  0  0  0  0  0  0  0
   13.9261  -13.9214  -11.0694 C   0  0  0  0  0  0  0  0  0  0  0  0
   15.4705   -9.6802  -12.2941 C   0  0  0  0  0  0  0  0  0  0  0  0
   16.6837   -9.4941  -11.9917 O   0  0  0  0  0  0  0  0  0  0  0  0
   14.6095   -8.5657  -12.5002 N   0  0  0  0  0  0  0  0  0  0  0  0
   15.1541   -7.2488  -12.4609 C   0  0  1  0  0  0  0  0  0  0  0  0
   14.9786   -6.6089  -13.8368 C   0  0  0  0  0  0  0  0  0  0  0  0
   16.0434   -7.5185  -15.0037 S   0  0  0  0  0  0  0  0  0  0  0  0
   14.5440   -6.4001  -11.4026 C   0  0  0  0  0  0  0  0  0  0  0  0
   13.2991   -6.4028  -11.2225 O   0  0  0  0  0  0  0  0  0  0  0  0
   14.9145   -6.4236   -7.6151 C   0  0  0  0  0  0  0  0  0  0  0  0
   15.3307   -5.0885   -8.1358 C   0  0  1  0  0  0  0  0  0  0  0  0
   16.7319   -5.1019   -8.2830 O   0  0  0  0  0  0  0  0  0  0  0  0
   14.7597   -4.7649   -9.4939 C   0  0  2  0  0  0  0  0  0  0  0  0
   15.3095   -5.5554  -10.5514 N   0  0  0  0  0  0  0  0  0  0  0  0
   14.8690   -3.3032   -9.7605 C   0  0  0  0  0  0  0  0  0  0  0  0
   14.1363   -2.4224   -8.9604 O   0  0  0  0  0  0  0  0  0  0  0  0
   15.5740   -2.8171  -10.6538 O   0  0  0  0  0  0  0  0  0  0  0  0
  2  1  1  1
  2 10  1  0
  3  2  1  0
  4  5  2  0
  4  3  1  0
  6  5  1  0
  7  6  2  0
  8  7  1  0
  8  9  2  0
  9  4  1  0
 10 12  1  0
 10 11  2  0
 12 13  1  0
 13 14  1  6
 14 15  1  0
 16 13  1  0
 16 17  2  0
 19 18  1  6
 19 20  1  0
 19 21  1  0
 21 22  1  6
 22 16  1  0
 23 21  1  0
 24 23  1  0
 25 23  2  0
M  END
$$$$
