FCT.pdb
     RDKit          3D

 25 25  0  0  1  0  0  0  0  0999 V2000
   16.6861  -18.8894    1.9755 N   0  0  0  0  0  0  0  0  0  0  0  0
   16.4319  -19.1403    3.3600 C   0  0  1  0  0  0  0  0  0  0  0  0
   16.9675  -20.5422    3.6605 C   0  0  0  0  0  0  0  0  0  0  0  0
   16.1538  -21.5914    3.0104 C   0  0  0  0  0  0  0  0  0  0  0  0
   16.6035  -22.2745    1.9063 C   0  0  0  0  0  0  0  0  0  0  0  0
   15.8234  -23.2652    1.2991 C   0  0  0  0  0  0  0  0  0  0  0  0
   14.5832  -23.5738    1.8022 C   0  0  0  0  0  0  0  0  0  0  0  0
   14.1250  -22.8927    2.9097 C   0  0  0  0  0  0  0  0  0  0  0  0
   14.9129  -21.9032    3.5100 C   0  0  0  0  0  0  0  0  0  0  0  0
   17.0978  -18.2073    4.2806 C   0  0  0  0  0  0  0  0  0  0  0  0
   18.1841  -17.6931    3.8891 O   0  0  0  0  0  0  0  0  0  0  0  0
   16.5737  -17.8742    5.5615 N   0  0  0  0  0  0  0  0  0  0  0  0
   17.2576  -16.9159    6.3655 C   0  0  1  0  0  0  0  0  0  0  0  0
   16.2586  -15.8461    6.8021 C   0  0  0  0  0  0  0  0  0  0  0  0
   15.7368  -14.9417    5.3078 S   0  0  0  0  0  0  0  0  0  0  0  0
   17.9299  -17.5229    7.5454 C   0  0  0  0  0  0  0  0  0  0  0  0
   17.3647  -18.4351    8.2016 O   0  0  0  0  0  0  0  0  0  0  0  0
   21.0284  -19.4893    7.5395 C   0  0  0  0  0  0  0  0  0  0  0  0
   21.2358  -18.4137    8.5530 C   0  0  1  0  0  0  0  0  0  0  0  0
   21.9899  -17.3902    7.9456 O   0  0  0  0  0  0  0  0  0  0  0  0
   19.9540  -17.7773    9.0293 C   0  0  2  0  0  0  0  0  0  0  0  0
   19.2190  -17.1204    7.9931 N   0  0  0  0  0  0  0  0  0  0  0  0
   20.2265  -16.8820   10.1885 C   0  0  0  0  0  0  0  0  0  0  0  0
   20.7377  -17.4450   11.3608 O   0  0  0  0  0  0  0  0  0  0  0  0
   20.0267  -15.6608   10.1772 O   0  0  0  0  0  0  0  0  0  0  0  0
  2  1  1  6
  2 10  1  0
  3  2  1  0
  4  5  2  0
  4  3  1  0
  6  5  1  0
  7  6  2  0
  8  7  1  0
  8  9  2  0
  9  4  1  0
 10 12  1  0
 10 11  2  0
 12 13  1  0
 13 14  1  1
 14 15  1  0
 16 13  1  0
 16 17  2  0
 19 18  1  6
 19 20  1  0
 19 21  1  0
 21 22  1  6
 22 16  1  0
 23 21  1  0
 24 23  1  0
 25 23  2  0
M  END
$$$$
