FCT.pdb
     RDKit          3D

 25 25  0  0  1  0  0  0  0  0999 V2000
   16.8335  -12.7619    3.9314 N   0  0  0  0  0  0  0  0  0  0  0  0
   16.9417  -14.1875    3.9176 C   0  0  1  0  0  0  0  0  0  0  0  0
   17.7759  -14.5553    2.6883 C   0  0  0  0  0  0  0  0  0  0  0  0
   17.7836  -16.0137    2.4467 C   0  0  0  0  0  0  0  0  0  0  0  0
   18.9557  -16.7181    2.3126 C   0  0  0  0  0  0  0  0  0  0  0  0
   18.9499  -18.0987    2.0832 C   0  0  0  0  0  0  0  0  0  0  0  0
   17.7604  -18.7787    1.9875 C   0  0  0  0  0  0  0  0  0  0  0  0
   16.5801  -18.0790    2.1209 C   0  0  0  0  0  0  0  0  0  0  0  0
   16.5964  -16.6979    2.3502 C   0  0  0  0  0  0  0  0  0  0  0  0
   17.6139  -14.7591    5.0935 C   0  0  0  0  0  0  0  0  0  0  0  0
   18.6359  -14.1507    5.5216 O   0  0  0  0  0  0  0  0  0  0  0  0
   17.1640  -15.9412    5.7465 N   0  0  0  0  0  0  0  0  0  0  0  0
   17.8647  -16.4113    6.8955 C   0  0  1  0  0  0  0  0  0  0  0  0
   17.1068  -15.9640    8.1439 C   0  0  0  0  0  0  0  0  0  0  0  0
   18.1422  -16.3702    9.5882 S   0  0  0  0  0  0  0  0  0  0  0  0
   18.0563  -17.8865    6.8948 C   0  0  0  0  0  0  0  0  0  0  0  0
   17.2416  -18.6345    6.2958 O   0  0  0  0  0  0  0  0  0  0  0  0
   21.0380  -20.0051    5.7003 C   0  0  0  0  0  0  0  0  0  0  0  0
   20.7427  -20.3449    7.1232 C   0  0  1  0  0  0  0  0  0  0  0  0
   21.6484  -19.6310    7.9326 O   0  0  0  0  0  0  0  0  0  0  0  0
   19.3592  -19.9394    7.5665 C   0  0  2  0  0  0  0  0  0  0  0  0
   19.1432  -18.5257    7.5538 N   0  0  0  0  0  0  0  0  0  0  0  0
   19.0452  -20.5508    8.8884 C   0  0  0  0  0  0  0  0  0  0  0  0
   18.9702  -21.9432    8.9785 O   0  0  0  0  0  0  0  0  0  0  0  0
   18.8451  -19.8965    9.9195 O   0  0  0  0  0  0  0  0  0  0  0  0
  2  1  1  1
  2 10  1  0
  3  2  1  0
  4  5  2  0
  4  3  1  0
  6  5  1  0
  7  6  2  0
  8  7  1  0
  8  9  2  0
  9  4  1  0
 10 12  1  0
 10 11  2  0
 12 13  1  0
 13 14  1  1
 14 15  1  0
 16 13  1  0
 16 17  2  0
 19 18  1  6
 19 20  1  0
 19 21  1  0
 21 22  1  1
 22 16  1  0
 23 21  1  0
 24 23  1  0
 25 23  2  0
M  END
$$$$
