FCT.pdb
     RDKit          3D

 25 25  0  0  1  0  0  0  0  0999 V2000
   24.7360  -14.2900  -17.4608 N   0  0  0  0  0  0  0  0  0  0  0  0
   24.0945  -13.1328  -18.0026 C   0  0  1  0  0  0  0  0  0  0  0  0
   22.6569  -13.5394  -18.3347 C   0  0  0  0  0  0  0  0  0  0  0  0
   22.6082  -14.5593  -19.4038 C   0  0  0  0  0  0  0  0  0  0  0  0
   21.9465  -15.7517  -19.2358 C   0  0  0  0  0  0  0  0  0  0  0  0
   21.9084  -16.7097  -20.2552 C   0  0  0  0  0  0  0  0  0  0  0  0
   22.5382  -16.4712  -21.4523 C   0  0  0  0  0  0  0  0  0  0  0  0
   23.2042  -15.2771  -21.6285 C   0  0  0  0  0  0  0  0  0  0  0  0
   23.2366  -14.3249  -20.6026 C   0  0  0  0  0  0  0  0  0  0  0  0
   24.0274  -11.9870  -17.0838 C   0  0  0  0  0  0  0  0  0  0  0  0
   23.7921  -12.2403  -15.8680 O   0  0  0  0  0  0  0  0  0  0  0  0
   24.2133  -10.6408  -17.5072 N   0  0  0  0  0  0  0  0  0  0  0  0
   24.1375   -9.5918  -16.5448 C   0  0  1  0  0  0  0  0  0  0  0  0
   25.4356   -8.7885  -16.5980 C   0  0  0  0  0  0  0  0  0  0  0  0
   26.7240   -9.7743  -15.7665 S   0  0  0  0  0  0  0  0  0  0  0  0
   22.9599   -8.7053  -16.7447 C   0  0  0  0  0  0  0  0  0  0  0  0
   22.7415   -8.1790  -17.8661 O   0  0  0  0  0  0  0  0  0  0  0  0
   19.4402   -9.6267  -16.6412 C   0  0  0  0  0  0  0  0  0  0  0  0
   19.5735   -8.4858  -15.6885 C   0  0  1  0  0  0  0  0  0  0  0  0
   19.6576   -9.0196  -14.3873 O   0  0  0  0  0  0  0  0  0  0  0  0
   20.8226   -7.6668  -15.8979 C   0  0  2  0  0  0  0  0  0  0  0  0
   22.0325   -8.4055  -15.7082 N   0  0  0  0  0  0  0  0  0  0  0  0
   20.7725   -6.4337  -15.0632 C   0  0  0  0  0  0  0  0  0  0  0  0
   19.7628   -5.5003  -15.3118 O   0  0  0  0  0  0  0  0  0  0  0  0
   21.5762   -6.1830  -14.1563 O   0  0  0  0  0  0  0  0  0  0  0  0
  2  1  1  1
  2 10  1  0
  3  2  1  0
  4  5  2  0
  4  3  1  0
  6  5  1  0
  7  6  2  0
  8  7  1  0
  8  9  2  0
  9  4  1  0
 10 12  1  0
 10 11  2  0
 12 13  1  0
 13 14  1  6
 14 15  1  0
 16 13  1  0
 16 17  2  0
 19 18  1  6
 19 20  1  0
 19 21  1  0
 21 22  1  1
 22 16  1  0
 23 21  1  0
 24 23  1  0
 25 23  2  0
M  END
$$$$
