FCT.pdb
     RDKit          3D

 25 25  0  0  1  0  0  0  0  0999 V2000
   24.8687  -12.0718  -17.5479 N   0  0  0  0  0  0  0  0  0  0  0  0
   24.9715  -10.7997  -16.9033 C   0  0  1  0  0  0  0  0  0  0  0  0
   25.6812   -9.8635  -17.8842 C   0  0  0  0  0  0  0  0  0  0  0  0
   27.1497  -10.0249  -17.8320 C   0  0  0  0  0  0  0  0  0  0  0  0
   27.9543   -9.1171  -17.1867 C   0  0  0  0  0  0  0  0  0  0  0  0
   29.3436   -9.2806  -17.1450 C   0  0  0  0  0  0  0  0  0  0  0  0
   29.9313  -10.3620  -17.7546 C   0  0  0  0  0  0  0  0  0  0  0  0
   29.1307  -11.2772  -18.4042 C   0  0  0  0  0  0  0  0  0  0  0  0
   27.7418  -11.1049  -18.4404 C   0  0  0  0  0  0  0  0  0  0  0  0
   23.6811  -10.1838  -16.5613 C   0  0  0  0  0  0  0  0  0  0  0  0
   22.7246  -10.3731  -17.3656 O   0  0  0  0  0  0  0  0  0  0  0  0
   23.4802   -9.4038  -15.3876 N   0  0  0  0  0  0  0  0  0  0  0  0
   22.1636   -8.9666  -15.0594 C   0  0  1  0  0  0  0  0  0  0  0  0
   21.9383   -9.1823  -13.5642 C   0  0  0  0  0  0  0  0  0  0  0  0
   21.5837  -10.9528  -13.3137 S   0  0  0  0  0  0  0  0  0  0  0  0
   21.9139   -7.5481  -15.4314 C   0  0  0  0  0  0  0  0  0  0  0  0
   22.7985   -6.6744  -15.2414 O   0  0  0  0  0  0  0  0  0  0  0  0
   20.0116   -4.2424  -18.3973 C   0  0  0  0  0  0  0  0  0  0  0  0
   20.2428   -5.6433  -17.9379 C   0  0  1  0  0  0  0  0  0  0  0  0
   21.4274   -6.1050  -18.5451 O   0  0  0  0  0  0  0  0  0  0  0  0
   20.4485   -5.7645  -16.4486 C   0  0  2  0  0  0  0  0  0  0  0  0
   20.6923   -7.1036  -16.0094 N   0  0  0  0  0  0  0  0  0  0  0  0
   19.3165   -5.1246  -15.7214 C   0  0  0  0  0  0  0  0  0  0  0  0
   19.5424   -3.9070  -15.0742 O   0  0  0  0  0  0  0  0  0  0  0  0
   18.1796   -5.6087  -15.6546 O   0  0  0  0  0  0  0  0  0  0  0  0
  2  1  1  6
  2 10  1  0
  3  2  1  0
  4  5  2  0
  4  3  1  0
  6  5  1  0
  7  6  2  0
  8  7  1  0
  8  9  2  0
  9  4  1  0
 10 12  1  0
 10 11  2  0
 12 13  1  0
 13 14  1  1
 14 15  1  0
 16 13  1  0
 16 17  2  0
 19 18  1  1
 19 20  1  0
 19 21  1  0
 21 22  1  6
 22 16  1  0
 23 21  1  0
 24 23  1  0
 25 23  2  0
M  END
$$$$
