FCT.pdb
     RDKit          3D

 25 25  0  0  1  0  0  0  0  0999 V2000
   24.8161  -18.4789  -15.5939 N   0  0  0  0  0  0  0  0  0  0  0  0
   23.5374  -18.9976  -15.9682 C   0  0  1  0  0  0  0  0  0  0  0  0
   23.7741  -19.9532  -17.1401 C   0  0  0  0  0  0  0  0  0  0  0  0
   23.2262  -19.4174  -18.4043 C   0  0  0  0  0  0  0  0  0  0  0  0
   22.6017  -18.1948  -18.4608 C   0  0  0  0  0  0  0  0  0  0  0  0
   22.0863  -17.6988  -19.6637 C   0  0  0  0  0  0  0  0  0  0  0  0
   22.1974  -18.4335  -20.8189 C   0  0  0  0  0  0  0  0  0  0  0  0
   22.8227  -19.6612  -20.7702 C   0  0  0  0  0  0  0  0  0  0  0  0
   23.3351  -20.1488  -19.5619 C   0  0  0  0  0  0  0  0  0  0  0  0
   22.8547  -19.7574  -14.9109 C   0  0  0  0  0  0  0  0  0  0  0  0
   23.5855  -20.3951  -14.1003 O   0  0  0  0  0  0  0  0  0  0  0  0
   21.4384  -19.7969  -14.7746 N   0  0  0  0  0  0  0  0  0  0  0  0
   20.8624  -20.5487  -13.7091 C   0  0  1  0  0  0  0  0  0  0  0  0
   20.1642  -19.5823  -12.7542 C   0  0  0  0  0  0  0  0  0  0  0  0
   19.4073  -20.5757  -11.4263 S   0  0  0  0  0  0  0  0  0  0  0  0
   19.9186  -21.5966  -14.1825 C   0  0  0  0  0  0  0  0  0  0  0  0
   19.0034  -21.3093  -14.9961 O   0  0  0  0  0  0  0  0  0  0  0  0
   21.0374  -25.3371  -15.2105 C   0  0  0  0  0  0  0  0  0  0  0  0
   19.8299  -25.3383  -14.3335 C   0  0  1  0  0  0  0  0  0  0  0  0
   20.2475  -25.6614  -13.0272 O   0  0  0  0  0  0  0  0  0  0  0  0
   19.1457  -23.9970  -14.2458 C   0  0  2  0  0  0  0  0  0  0  0  0
   19.9905  -22.9520  -13.7561 N   0  0  0  0  0  0  0  0  0  0  0  0
   17.8807  -24.1172  -13.4680 C   0  0  0  0  0  0  0  0  0  0  0  0
   17.7444  -23.3687  -12.2959 O   0  0  0  0  0  0  0  0  0  0  0  0
   16.9357  -24.8447  -13.7985 O   0  0  0  0  0  0  0  0  0  0  0  0
  2  1  1  1
  2 10  1  0
  3  2  1  0
  4  5  2  0
  4  3  1  0
  6  5  1  0
  7  6  2  0
  8  7  1  0
  8  9  2  0
  9  4  1  0
 10 12  1  0
 10 11  2  0
 12 13  1  0
 13 14  1  1
 14 15  1  0
 16 13  1  0
 16 17  2  0
 19 18  1  6
 19 20  1  0
 19 21  1  0
 21 22  1  1
 22 16  1  0
 23 21  1  0
 24 23  1  0
 25 23  2  0
M  END
$$$$
