FCT.pdb
     RDKit          3D

 25 25  0  0  1  0  0  0  0  0999 V2000
   19.3424  -10.5849  -16.0935 N   0  0  0  0  0  0  0  0  0  0  0  0
   20.1231   -9.5173  -16.6366 C   0  0  1  0  0  0  0  0  0  0  0  0
   19.4922   -9.1485  -17.9814 C   0  0  0  0  0  0  0  0  0  0  0  0
   19.6766  -10.2177  -18.9855 C   0  0  0  0  0  0  0  0  0  0  0  0
   20.9043  -10.4815  -19.5433 C   0  0  0  0  0  0  0  0  0  0  0  0
   21.0659  -11.4960  -20.4939 C   0  0  0  0  0  0  0  0  0  0  0  0
   19.9892  -12.2518  -20.8885 C   0  0  0  0  0  0  0  0  0  0  0  0
   18.7541  -11.9931  -20.3334 C   0  0  0  0  0  0  0  0  0  0  0  0
   18.6025  -10.9760  -19.3832 C   0  0  0  0  0  0  0  0  0  0  0  0
   20.1476   -8.2999  -15.8126 C   0  0  0  0  0  0  0  0  0  0  0  0
   19.1897   -8.1356  -15.0043 O   0  0  0  0  0  0  0  0  0  0  0  0
   21.1850   -7.3287  -15.8935 N   0  0  0  0  0  0  0  0  0  0  0  0
   21.1748   -6.2228  -14.9939 C   0  0  1  0  0  0  0  0  0  0  0  0
   22.4527   -6.2641  -14.1582 C   0  0  0  0  0  0  0  0  0  0  0  0
   22.5123   -4.7315  -13.1729 S   0  0  0  0  0  0  0  0  0  0  0  0
   21.0392   -4.9132  -15.6863 C   0  0  0  0  0  0  0  0  0  0  0  0
   21.9794   -4.4648  -16.3913 O   0  0  0  0  0  0  0  0  0  0  0  0
   18.1085   -3.9009  -18.0582 C   0  0  0  0  0  0  0  0  0  0  0  0
   18.3075   -2.8479  -17.0196 C   0  0  1  0  0  0  0  0  0  0  0  0
   17.3464   -3.0527  -16.0099 O   0  0  0  0  0  0  0  0  0  0  0  0
   19.6562   -2.9097  -16.3472 C   0  0  2  0  0  0  0  0  0  0  0  0
   19.8695   -4.1083  -15.5966 N   0  0  0  0  0  0  0  0  0  0  0  0
   19.8797   -1.6818  -15.5336 C   0  0  0  0  0  0  0  0  0  0  0  0
   20.0095   -1.8135  -14.1486 O   0  0  0  0  0  0  0  0  0  0  0  0
   19.9582   -0.5434  -16.0125 O   0  0  0  0  0  0  0  0  0  0  0  0
  2  1  1  1
  2 10  1  0
  3  2  1  0
  4  5  2  0
  4  3  1  0
  6  5  1  0
  7  6  2  0
  8  7  1  0
  8  9  2  0
  9  4  1  0
 10 12  1  0
 10 11  2  0
 12 13  1  0
 13 14  1  6
 14 15  1  0
 16 13  1  0
 16 17  2  0
 19 18  1  6
 19 20  1  0
 19 21  1  0
 21 22  1  1
 22 16  1  0
 23 21  1  0
 24 23  1  0
 25 23  2  0
M  END
$$$$
