FCT.pdb
     RDKit          3D

 25 25  0  0  1  0  0  0  0  0999 V2000
   22.6800  -12.0314  -16.8546 N   0  0  0  0  0  0  0  0  0  0  0  0
   22.0079  -10.9099  -17.4333 C   0  0  1  0  0  0  0  0  0  0  0  0
   20.5865  -10.9058  -16.8659 C   0  0  0  0  0  0  0  0  0  0  0  0
   19.7705  -12.0060  -17.4220 C   0  0  0  0  0  0  0  0  0  0  0  0
   19.3868  -12.0259  -18.7413 C   0  0  0  0  0  0  0  0  0  0  0  0
   18.6134  -13.0727  -19.2557 C   0  0  0  0  0  0  0  0  0  0  0  0
   18.2214  -14.1075  -18.4421 C   0  0  0  0  0  0  0  0  0  0  0  0
   18.6024  -14.0947  -17.1173 C   0  0  0  0  0  0  0  0  0  0  0  0
   19.3762  -13.0429  -16.6120 C   0  0  0  0  0  0  0  0  0  0  0  0
   22.6124   -9.6076  -17.1172 C   0  0  0  0  0  0  0  0  0  0  0  0
   23.1246   -9.4771  -15.9690 O   0  0  0  0  0  0  0  0  0  0  0  0
   22.6387   -8.5207  -18.0359 N   0  0  0  0  0  0  0  0  0  0  0  0
   23.2261   -7.2850  -17.6355 C   0  0  1  0  0  0  0  0  0  0  0  0
   23.9349   -6.6705  -18.8410 C   0  0  0  0  0  0  0  0  0  0  0  0
   24.7255   -5.1258  -18.2825 S   0  0  0  0  0  0  0  0  0  0  0  0
   22.2383   -6.3321  -17.0620 C   0  0  0  0  0  0  0  0  0  0  0  0
   21.1212   -6.1628  -17.6146 O   0  0  0  0  0  0  0  0  0  0  0  0
   20.6184   -6.7637  -13.8454 C   0  0  0  0  0  0  0  0  0  0  0  0
   20.2929   -5.6445  -14.7773 C   0  0  1  0  0  0  0  0  0  0  0  0
   19.4167   -4.7680  -14.1072 O   0  0  0  0  0  0  0  0  0  0  0  0
   21.4936   -4.8256  -15.1806 C   0  0  2  0  0  0  0  0  0  0  0  0
   22.4888   -5.5734  -15.8847 N   0  0  0  0  0  0  0  0  0  0  0  0
   22.0495   -4.1137  -13.9958 C   0  0  0  0  0  0  0  0  0  0  0  0
   23.3792   -4.3515  -13.6377 O   0  0  0  0  0  0  0  0  0  0  0  0
   21.4014   -3.3186  -13.3036 O   0  0  0  0  0  0  0  0  0  0  0  0
  2  1  1  1
  2 10  1  0
  3  2  1  0
  4  5  2  0
  4  3  1  0
  6  5  1  0
  7  6  2  0
  8  7  1  0
  8  9  2  0
  9  4  1  0
 10 12  1  0
 10 11  2  0
 12 13  1  0
 13 14  1  6
 14 15  1  0
 16 13  1  0
 16 17  2  0
 19 18  1  1
 19 20  1  0
 19 21  1  0
 21 22  1  1
 22 16  1  0
 23 21  1  0
 24 23  1  0
 25 23  2  0
M  END
$$$$
