FCT.pdb
     RDKit          3D

 25 25  0  0  1  0  0  0  0  0999 V2000
   34.2189  -28.9957  -18.2663 N   0  0  0  0  0  0  0  0  0  0  0  0
   32.8922  -29.0946  -18.7901 C   0  0  1  0  0  0  0  0  0  0  0  0
   32.8971  -30.2541  -19.7891 C   0  0  0  0  0  0  0  0  0  0  0  0
   33.5100  -29.8660  -21.0772 C   0  0  0  0  0  0  0  0  0  0  0  0
   32.7715  -29.2974  -22.0869 C   0  0  0  0  0  0  0  0  0  0  0  0
   33.3632  -28.9351  -23.3023 C   0  0  0  0  0  0  0  0  0  0  0  0
   34.7051  -29.1440  -23.5077 C   0  0  0  0  0  0  0  0  0  0  0  0
   35.4527  -29.7140  -22.4994 C   0  0  0  0  0  0  0  0  0  0  0  0
   34.8516  -30.0731  -21.2870 C   0  0  0  0  0  0  0  0  0  0  0  0
   31.8598  -29.3839  -17.7842 C   0  0  0  0  0  0  0  0  0  0  0  0
   32.2427  -29.9310  -16.7109 O   0  0  0  0  0  0  0  0  0  0  0  0
   30.4831  -29.0765  -17.9745 N   0  0  0  0  0  0  0  0  0  0  0  0
   29.5585  -29.3436  -16.9227 C   0  0  1  0  0  0  0  0  0  0  0  0
   28.6784  -28.1109  -16.7245 C   0  0  0  0  0  0  0  0  0  0  0  0
   29.6325  -26.9095  -15.7399 S   0  0  0  0  0  0  0  0  0  0  0  0
   28.7267  -30.5508  -17.1743 C   0  0  0  0  0  0  0  0  0  0  0  0
   28.6830  -31.0670  -18.3205 O   0  0  0  0  0  0  0  0  0  0  0  0
   27.7378  -34.9561  -16.2669 C   0  0  0  0  0  0  0  0  0  0  0  0
   28.3587  -33.6003  -16.3265 C   0  0  1  0  0  0  0  0  0  0  0  0
   29.0373  -33.4918  -17.5565 O   0  0  0  0  0  0  0  0  0  0  0  0
   27.3557  -32.4744  -16.2890 C   0  0  2  0  0  0  0  0  0  0  0  0
   27.9499  -31.1797  -16.1618 N   0  0  0  0  0  0  0  0  0  0  0  0
   26.3313  -32.7357  -15.2392 C   0  0  0  0  0  0  0  0  0  0  0  0
   25.4721  -33.8256  -15.4020 O   0  0  0  0  0  0  0  0  0  0  0  0
   26.1933  -32.0417  -14.2240 O   0  0  0  0  0  0  0  0  0  0  0  0
  2  1  1  1
  2 10  1  0
  3  2  1  0
  4  5  2  0
  4  3  1  0
  6  5  1  0
  7  6  2  0
  8  7  1  0
  8  9  2  0
  9  4  1  0
 10 12  1  0
 10 11  2  0
 12 13  1  0
 13 14  1  6
 14 15  1  0
 16 13  1  0
 16 17  2  0
 19 18  1  6
 19 20  1  0
 19 21  1  0
 21 22  1  1
 22 16  1  0
 23 21  1  0
 24 23  1  0
 25 23  2  0
M  END
$$$$
