FCT.pdb
     RDKit          3D

 25 25  0  0  1  0  0  0  0  0999 V2000
   22.2825  -15.8363  -18.3808 N   0  0  0  0  0  0  0  0  0  0  0  0
   22.0208  -14.4481  -18.6012 C   0  0  1  0  0  0  0  0  0  0  0  0
   20.5504  -14.3353  -19.0104 C   0  0  0  0  0  0  0  0  0  0  0  0
   20.3587  -14.6117  -20.4500 C   0  0  0  0  0  0  0  0  0  0  0  0
   20.2208  -15.8924  -20.9281 C   0  0  0  0  0  0  0  0  0  0  0  0
   20.0407  -16.1412  -22.2935 C   0  0  0  0  0  0  0  0  0  0  0  0
   19.9986  -15.0987  -23.1868 C   0  0  0  0  0  0  0  0  0  0  0  0
   20.1363  -13.8107  -22.7147 C   0  0  0  0  0  0  0  0  0  0  0  0
   20.3160  -13.5721  -21.3469 C   0  0  0  0  0  0  0  0  0  0  0  0
   22.2160  -13.5960  -17.4191 C   0  0  0  0  0  0  0  0  0  0  0  0
   22.5171  -14.1767  -16.3375 O   0  0  0  0  0  0  0  0  0  0  0  0
   22.0807  -12.1795  -17.4526 N   0  0  0  0  0  0  0  0  0  0  0  0
   22.3822  -11.4236  -16.2821 C   0  0  1  0  0  0  0  0  0  0  0  0
   23.8506  -11.6459  -15.9247 C   0  0  0  0  0  0  0  0  0  0  0  0
   24.2492  -10.5379  -14.5330 S   0  0  0  0  0  0  0  0  0  0  0  0
   22.0906   -9.9732  -16.4371 C   0  0  0  0  0  0  0  0  0  0  0  0
   22.7182   -9.2838  -17.2814 O   0  0  0  0  0  0  0  0  0  0  0  0
   18.8498   -8.2885  -17.3732 C   0  0  0  0  0  0  0  0  0  0  0  0
   19.3199   -7.6650  -16.1014 C   0  0  1  0  0  0  0  0  0  0  0  0
   18.5972   -8.2499  -15.0428 O   0  0  0  0  0  0  0  0  0  0  0  0
   20.7796   -7.9108  -15.8117 C   0  0  2  0  0  0  0  0  0  0  0  0
   21.1105   -9.2940  -15.6611 N   0  0  0  0  0  0  0  0  0  0  0  0
   21.2155   -7.0916  -14.6461 C   0  0  0  0  0  0  0  0  0  0  0  0
   21.1935   -5.6994  -14.7634 O   0  0  0  0  0  0  0  0  0  0  0  0
   21.5989   -7.5718  -13.5719 O   0  0  0  0  0  0  0  0  0  0  0  0
  2  1  1  1
  2 10  1  0
  3  2  1  0
  4  5  2  0
  4  3  1  0
  6  5  1  0
  7  6  2  0
  8  7  1  0
  8  9  2  0
  9  4  1  0
 10 12  1  0
 10 11  2  0
 12 13  1  0
 13 14  1  6
 14 15  1  0
 16 13  1  0
 16 17  2  0
 19 18  1  6
 19 20  1  0
 19 21  1  0
 21 22  1  1
 22 16  1  0
 23 21  1  0
 24 23  1  0
 25 23  2  0
M  END
$$$$
