FCT.pdb
     RDKit          3D

 25 25  0  0  1  0  0  0  0  0999 V2000
   23.5439  -20.1039  -15.6918 N   0  0  0  0  0  0  0  0  0  0  0  0
   23.2113  -18.7822  -16.1242 C   0  0  1  0  0  0  0  0  0  0  0  0
   21.6852  -18.6743  -16.0811 C   0  0  0  0  0  0  0  0  0  0  0  0
   21.0360  -19.7753  -16.8241 C   0  0  0  0  0  0  0  0  0  0  0  0
   20.6731  -20.9482  -16.2073 C   0  0  0  0  0  0  0  0  0  0  0  0
   20.0599  -21.9836  -16.9219 C   0  0  0  0  0  0  0  0  0  0  0  0
   19.8085  -21.8426  -18.2648 C   0  0  0  0  0  0  0  0  0  0  0  0
   20.1697  -20.6687  -18.8908 C   0  0  0  0  0  0  0  0  0  0  0  0
   20.7827  -19.6386  -18.1672 C   0  0  0  0  0  0  0  0  0  0  0  0
   23.7531  -17.7096  -15.2774 C   0  0  0  0  0  0  0  0  0  0  0  0
   24.6247  -18.0387  -14.4231 O   0  0  0  0  0  0  0  0  0  0  0  0
   23.3398  -16.3517  -15.3855 N   0  0  0  0  0  0  0  0  0  0  0  0
   24.2696  -15.3761  -15.8501 C   0  0  1  0  0  0  0  0  0  0  0  0
   25.5442  -16.0916  -16.2935 C   0  0  0  0  0  0  0  0  0  0  0  0
   26.8022  -15.8196  -15.0026 S   0  0  0  0  0  0  0  0  0  0  0  0
   23.7267  -14.5350  -16.9504 C   0  0  0  0  0  0  0  0  0  0  0  0
   23.4183  -15.0520  -18.0548 O   0  0  0  0  0  0  0  0  0  0  0  0
   21.3942  -10.3575  -18.2683 C   0  0  0  0  0  0  0  0  0  0  0  0
   22.1696  -11.1246  -17.2498 C   0  0  1  0  0  0  0  0  0  0  0  0
   21.2554  -11.6301  -16.3043 O   0  0  0  0  0  0  0  0  0  0  0  0
   22.9013  -12.3149  -17.8181 C   0  0  2  0  0  0  0  0  0  0  0  0
   23.5278  -13.1318  -16.8254 N   0  0  0  0  0  0  0  0  0  0  0  0
   23.8536  -11.8737  -18.8755 C   0  0  0  0  0  0  0  0  0  0  0  0
   25.2241  -11.9558  -18.6155 O   0  0  0  0  0  0  0  0  0  0  0  0
   23.5032  -11.4355  -19.9785 O   0  0  0  0  0  0  0  0  0  0  0  0
  2  1  1  1
  2 10  1  0
  3  2  1  0
  4  5  2  0
  4  3  1  0
  6  5  1  0
  7  6  2  0
  8  7  1  0
  8  9  2  0
  9  4  1  0
 10 12  1  0
 10 11  2  0
 12 13  1  0
 13 14  1  6
 14 15  1  0
 16 13  1  0
 16 17  2  0
 19 18  1  6
 19 20  1  0
 19 21  1  0
 21 22  1  1
 22 16  1  0
 23 21  1  0
 24 23  1  0
 25 23  2  0
M  END
$$$$
