FCT.pdb
     RDKit          3D

 25 25  0  0  1  0  0  0  0  0999 V2000
   23.0088  -11.8386  -17.2480 N   0  0  0  0  0  0  0  0  0  0  0  0
   23.2236  -11.0956  -16.0455 C   0  0  1  0  0  0  0  0  0  0  0  0
   24.5693  -10.3833  -16.2007 C   0  0  0  0  0  0  0  0  0  0  0  0
   25.6928  -11.3418  -16.2690 C   0  0  0  0  0  0  0  0  0  0  0  0
   25.8717  -12.3151  -15.3157 C   0  0  0  0  0  0  0  0  0  0  0  0
   26.9399  -13.2161  -15.3910 C   0  0  0  0  0  0  0  0  0  0  0  0
   27.8357  -13.1415  -16.4294 C   0  0  0  0  0  0  0  0  0  0  0  0
   27.6630  -12.1677  -17.3898 C   0  0  0  0  0  0  0  0  0  0  0  0
   26.5912  -11.2709  -17.3057 C   0  0  0  0  0  0  0  0  0  0  0  0
   22.2089  -10.0667  -15.7754 C   0  0  0  0  0  0  0  0  0  0  0  0
   21.4681   -9.7249  -16.7410 O   0  0  0  0  0  0  0  0  0  0  0  0
   22.0388   -9.4605  -14.4988 N   0  0  0  0  0  0  0  0  0  0  0  0
   21.0139   -8.4853  -14.3223 C   0  0  1  0  0  0  0  0  0  0  0  0
   20.7712   -8.3006  -12.8256 C   0  0  0  0  0  0  0  0  0  0  0  0
   19.9699   -9.8176  -12.2095 S   0  0  0  0  0  0  0  0  0  0  0  0
   21.3333   -7.1846  -14.9696 C   0  0  0  0  0  0  0  0  0  0  0  0
   22.5208   -6.7732  -15.0213 O   0  0  0  0  0  0  0  0  0  0  0  0
   20.7107   -6.5269  -18.5553 C   0  0  0  0  0  0  0  0  0  0  0  0
   21.4251   -5.5969  -17.6323 C   0  0  1  0  0  0  0  0  0  0  0  0
   21.6584   -4.3946  -18.3289 O   0  0  0  0  0  0  0  0  0  0  0  0
   20.6277   -5.2336  -16.4045 C   0  0  2  0  0  0  0  0  0  0  0  0
   20.3424   -6.3477  -15.5544 N   0  0  0  0  0  0  0  0  0  0  0  0
   19.3992   -4.4863  -16.7942 C   0  0  0  0  0  0  0  0  0  0  0  0
   19.5402   -3.2033  -17.3295 O   0  0  0  0  0  0  0  0  0  0  0  0
   18.2524   -4.9352  -16.6722 O   0  0  0  0  0  0  0  0  0  0  0  0
  2  1  1  6
  2 10  1  0
  3  2  1  0
  4  5  2  0
  4  3  1  0
  6  5  1  0
  7  6  2  0
  8  7  1  0
  8  9  2  0
  9  4  1  0
 10 12  1  0
 10 11  2  0
 12 13  1  0
 13 14  1  1
 14 15  1  0
 16 13  1  0
 16 17  2  0
 19 18  1  6
 19 20  1  0
 19 21  1  0
 21 22  1  6
 22 16  1  0
 23 21  1  0
 24 23  1  0
 25 23  2  0
M  END
$$$$
