FCT.pdb
     RDKit          3D

 25 25  0  0  1  0  0  0  0  0999 V2000
   28.6140  -22.0113  -10.0405 N   0  0  0  0  0  0  0  0  0  0  0  0
   27.4679  -21.1870  -10.2672 C   0  0  1  0  0  0  0  0  0  0  0  0
   27.8700  -19.7587   -9.8921 C   0  0  0  0  0  0  0  0  0  0  0  0
   28.0064  -19.5932   -8.4294 C   0  0  0  0  0  0  0  0  0  0  0  0
   26.9165  -19.6264   -7.5934 C   0  0  0  0  0  0  0  0  0  0  0  0
   27.0587  -19.4675   -6.2102 C   0  0  0  0  0  0  0  0  0  0  0  0
   28.3024  -19.2740   -5.6605 C   0  0  0  0  0  0  0  0  0  0  0  0
   29.4008  -19.2395   -6.4928 C   0  0  0  0  0  0  0  0  0  0  0  0
   29.2483  -19.3994   -7.8753 C   0  0  0  0  0  0  0  0  0  0  0  0
   27.0014  -21.1620  -11.6611 C   0  0  0  0  0  0  0  0  0  0  0  0
   27.7797  -21.6403  -12.5347 O   0  0  0  0  0  0  0  0  0  0  0  0
   25.7381  -20.6318  -12.0473 N   0  0  0  0  0  0  0  0  0  0  0  0
   25.0689  -21.1824  -13.1793 C   0  0  1  0  0  0  0  0  0  0  0  0
   24.8153  -22.6662  -12.9199 C   0  0  0  0  0  0  0  0  0  0  0  0
   24.0518  -23.3619  -14.4219 S   0  0  0  0  0  0  0  0  0  0  0  0
   23.7986  -20.4785  -13.5012 C   0  0  0  0  0  0  0  0  0  0  0  0
   22.9914  -20.1706  -12.5871 O   0  0  0  0  0  0  0  0  0  0  0  0
   23.7938  -17.1200  -14.8665 C   0  0  0  0  0  0  0  0  0  0  0  0
   22.9035  -17.9077  -15.7688 C   0  0  1  0  0  0  0  0  0  0  0  0
   23.6586  -18.2824  -16.8978 O   0  0  0  0  0  0  0  0  0  0  0  0
   22.3940  -19.1853  -15.1499 C   0  0  2  0  0  0  0  0  0  0  0  0
   23.4278  -20.1194  -14.8270 N   0  0  0  0  0  0  0  0  0  0  0  0
   21.3348  -19.7841  -16.0098 C   0  0  0  0  0  0  0  0  0  0  0  0
   20.1102  -19.1201  -16.1198 O   0  0  0  0  0  0  0  0  0  0  0  0
   21.4736  -20.8415  -16.6375 O   0  0  0  0  0  0  0  0  0  0  0  0
  2  1  1  6
  2 10  1  0
  3  2  1  0
  4  5  2  0
  4  3  1  0
  6  5  1  0
  7  6  2  0
  8  7  1  0
  8  9  2  0
  9  4  1  0
 10 12  1  0
 10 11  2  0
 12 13  1  0
 13 14  1  1
 14 15  1  0
 16 13  1  0
 16 17  2  0
 19 18  1  1
 19 20  1  0
 19 21  1  0
 21 22  1  6
 22 16  1  0
 23 21  1  0
 24 23  1  0
 25 23  2  0
M  END
$$$$
