FCT.pdb
     RDKit          3D

 25 25  0  0  1  0  0  0  0  0999 V2000
   15.2345  -16.4366    3.8390 N   0  0  0  0  0  0  0  0  0  0  0  0
   16.3060  -17.3519    4.0806 C   0  0  1  0  0  0  0  0  0  0  0  0
   17.4985  -16.5198    4.5582 C   0  0  0  0  0  0  0  0  0  0  0  0
   18.1956  -15.8632    3.4320 C   0  0  0  0  0  0  0  0  0  0  0  0
   18.8131  -16.5891    2.4421 C   0  0  0  0  0  0  0  0  0  0  0  0
   19.4708  -15.9557    1.3814 C   0  0  0  0  0  0  0  0  0  0  0  0
   19.5100  -14.5845    1.3120 C   0  0  0  0  0  0  0  0  0  0  0  0
   18.8927  -13.8493    2.3014 C   0  0  0  0  0  0  0  0  0  0  0  0
   18.2373  -14.4921    3.3585 C   0  0  0  0  0  0  0  0  0  0  0  0
   16.0270  -18.3572    5.1163 C   0  0  0  0  0  0  0  0  0  0  0  0
   15.1527  -18.0624    5.9804 O   0  0  0  0  0  0  0  0  0  0  0  0
   16.6903  -19.6152    5.1757 N   0  0  0  0  0  0  0  0  0  0  0  0
   16.3887  -20.5115    6.2424 C   0  0  1  0  0  0  0  0  0  0  0  0
   15.9306  -21.8409    5.6457 C   0  0  0  0  0  0  0  0  0  0  0  0
   16.4753  -21.8769    3.9064 S   0  0  0  0  0  0  0  0  0  0  0  0
   17.5338  -20.7160    7.1696 C   0  0  0  0  0  0  0  0  0  0  0  0
   18.6798  -20.9734    6.7196 O   0  0  0  0  0  0  0  0  0  0  0  0
   18.0966  -18.6633   10.7793 C   0  0  0  0  0  0  0  0  0  0  0  0
   19.0643  -19.4782    9.9878 C   0  0  1  0  0  0  0  0  0  0  0  0
   20.1459  -19.8004   10.8312 O   0  0  0  0  0  0  0  0  0  0  0  0
   18.4951  -20.7873    9.5007 C   0  0  2  0  0  0  0  0  0  0  0  0
   17.4076  -20.6354    8.5844 N   0  0  0  0  0  0  0  0  0  0  0  0
   18.1455  -21.6565   10.6591 C   0  0  0  0  0  0  0  0  0  0  0  0
   16.8445  -22.1584   10.7481 O   0  0  0  0  0  0  0  0  0  0  0  0
   18.9425  -21.9639   11.5545 O   0  0  0  0  0  0  0  0  0  0  0  0
  2  1  1  1
  2 10  1  0
  3  2  1  0
  4  5  2  0
  4  3  1  0
  6  5  1  0
  7  6  2  0
  8  7  1  0
  8  9  2  0
  9  4  1  0
 10 12  1  0
 10 11  2  0
 12 13  1  0
 13 14  1  6
 14 15  1  0
 16 13  1  0
 16 17  2  0
 19 18  1  1
 19 20  1  0
 19 21  1  0
 21 22  1  1
 22 16  1  0
 23 21  1  0
 24 23  1  0
 25 23  2  0
M  END
$$$$
