FCT.pdb
     RDKit          3D

 25 25  0  0  1  0  0  0  0  0999 V2000
   18.7860  -12.6247  -16.7695 N   0  0  0  0  0  0  0  0  0  0  0  0
   19.7402  -11.6160  -17.1101 C   0  0  1  0  0  0  0  0  0  0  0  0
   19.0818  -10.7230  -18.1644 C   0  0  0  0  0  0  0  0  0  0  0  0
   18.8775  -11.4402  -19.4408 C   0  0  0  0  0  0  0  0  0  0  0  0
   19.9311  -11.7871  -20.2518 C   0  0  0  0  0  0  0  0  0  0  0  0
   19.7246  -12.4652  -21.4585 C   0  0  0  0  0  0  0  0  0  0  0  0
   18.4527  -12.7984  -21.8557 C   0  0  0  0  0  0  0  0  0  0  0  0
   17.3904  -12.4537  -21.0474 C   0  0  0  0  0  0  0  0  0  0  0  0
   17.6072  -11.7753  -19.8420 C   0  0  0  0  0  0  0  0  0  0  0  0
   20.1409  -10.7529  -15.9894 C   0  0  0  0  0  0  0  0  0  0  0  0
   19.2521  -10.4731  -15.1352 O   0  0  0  0  0  0  0  0  0  0  0  0
   21.4592  -10.2373  -15.8397 N   0  0  0  0  0  0  0  0  0  0  0  0
   21.7614   -9.4152  -14.7148 C   0  0  1  0  0  0  0  0  0  0  0  0
   22.9590  -10.0161  -13.9814 C   0  0  0  0  0  0  0  0  0  0  0  0
   23.1028  -11.7571  -14.5022 S   0  0  0  0  0  0  0  0  0  0  0  0
   22.0260   -7.9992  -15.0856 C   0  0  0  0  0  0  0  0  0  0  0  0
   22.7118   -7.7245  -16.1036 O   0  0  0  0  0  0  0  0  0  0  0  0
   19.3815   -4.8421  -14.0262 C   0  0  0  0  0  0  0  0  0  0  0  0
   20.4139   -4.8467  -15.1039 C   0  0  1  0  0  0  0  0  0  0  0  0
   20.7414   -3.5068  -15.3913 O   0  0  0  0  0  0  0  0  0  0  0  0
   21.6999   -5.5268  -14.7056 C   0  0  2  0  0  0  0  0  0  0  0  0
   21.5333   -6.8973  -14.3324 N   0  0  0  0  0  0  0  0  0  0  0  0
   22.3958   -4.7319  -13.6552 C   0  0  0  0  0  0  0  0  0  0  0  0
   22.8929   -3.4703  -13.9928 O   0  0  0  0  0  0  0  0  0  0  0  0
   22.5621   -5.1229  -12.4929 O   0  0  0  0  0  0  0  0  0  0  0  0
  2  1  1  1
  2 10  1  0
  3  2  1  0
  4  5  2  0
  4  3  1  0
  6  5  1  0
  7  6  2  0
  8  7  1  0
  8  9  2  0
  9  4  1  0
 10 12  1  0
 10 11  2  0
 12 13  1  0
 13 14  1  6
 14 15  1  0
 16 13  1  0
 16 17  2  0
 19 18  1  1
 19 20  1  0
 19 21  1  0
 21 22  1  1
 22 16  1  0
 23 21  1  0
 24 23  1  0
 25 23  2  0
M  END
$$$$
