MER.pdb
     RDKit          3D

 29 28  0  0  1  0  0  0  0  0999 V2000
    8.1894  -12.0191   27.3616 C   0  0  0  0  0  0  0  0  0  0  0  0
    7.5451  -12.3682   25.7037 S   0  0  0  0  0  0  0  0  0  0  0  0
    7.3577  -14.1580   25.5193 C   0  0  0  0  0  0  0  0  0  0  0  0
    6.8576  -14.5146   24.1280 C   0  0  0  0  0  0  0  0  0  0  0  0
    6.7050  -16.0339   24.0727 C   0  0  2  0  0  0  0  0  0  0  0  0
    5.8373  -16.4035   25.1740 N   0  0  0  0  0  0  0  0  0  0  0  0
    8.0699  -16.5915   24.2422 C   0  0  0  0  0  0  0  0  0  0  0  0
    8.3889  -17.1692   25.3105 O   0  0  0  0  0  0  0  0  0  0  0  0
    9.0872  -16.5069   23.2187 N   0  0  0  0  0  0  0  0  0  0  0  0
   10.1848  -17.4054   23.1501 C   0  0  1  0  0  0  0  0  0  0  0  0
   11.0786  -17.2318   21.9696 C   0  0  0  0  0  0  0  0  0  0  0  0
   12.1963  -18.1758   21.7817 C   0  0  0  0  0  0  0  0  0  0  0  0
   12.9389  -17.9774   20.5397 C   0  0  0  0  0  0  0  0  0  0  0  0
   14.0577  -17.4299   20.5123 O   0  0  0  0  0  0  0  0  0  0  0  0
   11.0361  -17.3736   24.3701 C   0  0  0  0  0  0  0  0  0  0  0  0
   11.2546  -16.2587   24.9170 O   0  0  0  0  0  0  0  0  0  0  0  0
   12.4114  -18.4046   19.2988 O   0  0  0  0  0  0  0  0  0  0  0  0
   13.7614  -20.6831   32.2977 N   0  0  0  0  0  0  0  0  0  0  0  0
   12.8073  -21.0850   31.3228 C   0  0  0  0  0  0  0  0  0  0  0  0
   11.5801  -21.1442   31.6629 N   0  0  0  0  0  0  0  0  0  0  0  0
   13.2581  -21.4016   30.0184 N   0  0  0  0  0  0  0  0  0  0  0  0
   12.4162  -21.1386   28.8932 C   0  0  0  0  0  0  0  0  0  0  0  0
   12.8342  -19.7964   28.2734 C   0  0  0  0  0  0  0  0  0  0  0  0
   12.0635  -19.6718   26.9999 C   0  0  0  0  0  0  0  0  0  0  0  0
   12.4085  -18.4324   26.2016 C   0  0  2  0  0  0  0  0  0  0  0  0
   11.6284  -18.5070   24.9752 N   0  0  0  0  0  0  0  0  0  0  0  0
   13.8689  -18.5272   25.8960 C   0  0  0  0  0  0  0  0  0  0  0  0
   14.3520  -18.7831   24.6369 O   0  0  0  0  0  0  0  0  0  0  0  0
   14.6966  -18.3661   26.8305 O   0  0  0  0  0  0  0  0  0  0  0  0
  2  1  1  0
  3  2  1  0
  4  5  1  0
  4  3  1  0
  5  6  1  1
  7  5  1  0
  7  8  2  0
  9  7  1  0
 10  9  1  0
 10 11  1  6
 12 11  1  0
 12 13  1  0
 13 17  1  0
 13 14  2  0
 15 10  1  0
 16 15  2  0
 18 19  1  0
 19 20  2  0
 19 21  1  0
 21 22  1  0
 22 23  1  0
 23 24  1  0
 25 24  1  1
 25 26  1  0
 25 27  1  0
 26 15  1  0
 27 28  1  0
 29 27  2  0
M  END
$$$$
