MER.pdb
     RDKit          3D

 29 28  0  0  1  0  0  0  0  0999 V2000
    7.2478  -12.1765   27.0146 C   0  0  0  0  0  0  0  0  0  0  0  0
    6.9890  -11.2290   25.4912 S   0  0  0  0  0  0  0  0  0  0  0  0
    6.8437  -12.3846   24.1070 C   0  0  0  0  0  0  0  0  0  0  0  0
    7.6752  -13.6348   24.3495 C   0  0  0  0  0  0  0  0  0  0  0  0
    7.4898  -14.5487   23.1391 C   0  0  2  0  0  0  0  0  0  0  0  0
    6.0938  -14.9404   23.1257 N   0  0  0  0  0  0  0  0  0  0  0  0
    8.3815  -15.7139   23.3622 C   0  0  0  0  0  0  0  0  0  0  0  0
    8.0498  -16.6193   24.1664 O   0  0  0  0  0  0  0  0  0  0  0  0
    9.6500  -15.8745   22.6879 N   0  0  0  0  0  0  0  0  0  0  0  0
   10.4631  -17.0281   22.8448 C   0  0  1  0  0  0  0  0  0  0  0  0
   11.3097  -17.3768   21.6683 C   0  0  0  0  0  0  0  0  0  0  0  0
   10.6626  -17.9552   20.4757 C   0  0  0  0  0  0  0  0  0  0  0  0
   11.2243  -17.4892   19.2104 C   0  0  0  0  0  0  0  0  0  0  0  0
   12.4417  -17.5595   18.9555 O   0  0  0  0  0  0  0  0  0  0  0  0
   11.3527  -16.9518   24.0351 C   0  0  0  0  0  0  0  0  0  0  0  0
   12.0645  -15.9217   24.1838 O   0  0  0  0  0  0  0  0  0  0  0  0
   10.3977  -16.9309   18.2076 O   0  0  0  0  0  0  0  0  0  0  0  0
   13.7534  -21.5323   32.3709 N   0  0  0  0  0  0  0  0  0  0  0  0
   12.9137  -21.4090   31.2298 C   0  0  0  0  0  0  0  0  0  0  0  0
   11.8958  -22.1713   31.1403 N   0  0  0  0  0  0  0  0  0  0  0  0
   13.2415  -20.4476   30.2435 N   0  0  0  0  0  0  0  0  0  0  0  0
   12.3676  -20.2470   29.1299 C   0  0  0  0  0  0  0  0  0  0  0  0
   12.9215  -19.0969   28.2751 C   0  0  0  0  0  0  0  0  0  0  0  0
   11.9858  -18.9531   27.1198 C   0  0  0  0  0  0  0  0  0  0  0  0
   12.3677  -17.8416   26.1652 C   0  0  2  0  0  0  0  0  0  0  0  0
   11.4671  -17.9537   25.0275 N   0  0  0  0  0  0  0  0  0  0  0  0
   13.7750  -18.1194   25.7444 C   0  0  0  0  0  0  0  0  0  0  0  0
   14.8627  -17.5460   26.3548 O   0  0  0  0  0  0  0  0  0  0  0  0
   13.9778  -18.9134   24.7890 O   0  0  0  0  0  0  0  0  0  0  0  0
  2  1  1  0
  3  2  1  0
  4  5  1  0
  4  3  1  0
  5  6  1  1
  7  5  1  0
  7  8  2  0
  9  7  1  0
 10  9  1  0
 10 11  1  6
 12 11  1  0
 12 13  1  0
 13 17  1  0
 13 14  2  0
 15 10  1  0
 16 15  2  0
 18 19  1  0
 19 20  2  0
 19 21  1  0
 21 22  1  0
 22 23  1  0
 23 24  1  0
 25 24  1  1
 25 26  1  0
 25 27  1  0
 26 15  1  0
 27 28  1  0
 29 27  2  0
M  END
$$$$
