MER.pdb
     RDKit          3D

 29 28  0  0  1  0  0  0  0  0999 V2000
    5.5240  -10.5001   26.2655 C   0  0  0  0  0  0  0  0  0  0  0  0
    6.8578  -11.7247   26.1827 S   0  0  0  0  0  0  0  0  0  0  0  0
    6.2576  -13.1763   25.2854 C   0  0  0  0  0  0  0  0  0  0  0  0
    7.3376  -14.2424   25.1860 C   0  0  0  0  0  0  0  0  0  0  0  0
    6.7855  -15.3728   24.3188 C   0  0  2  0  0  0  0  0  0  0  0  0
    5.7457  -16.0202   25.0948 N   0  0  0  0  0  0  0  0  0  0  0  0
    7.9247  -16.2885   24.0612 C   0  0  0  0  0  0  0  0  0  0  0  0
    8.2515  -17.1476   24.9166 O   0  0  0  0  0  0  0  0  0  0  0  0
    8.7062  -16.2497   22.8457 N   0  0  0  0  0  0  0  0  0  0  0  0
    9.8384  -17.0801   22.6332 C   0  0  1  0  0  0  0  0  0  0  0  0
   10.4977  -16.9322   21.3044 C   0  0  0  0  0  0  0  0  0  0  0  0
   11.7113  -17.7222   21.0233 C   0  0  0  0  0  0  0  0  0  0  0  0
   12.2827  -17.4825   19.7006 C   0  0  0  0  0  0  0  0  0  0  0  0
   13.4639  -17.1200   19.5405 O   0  0  0  0  0  0  0  0  0  0  0  0
   10.8843  -16.9114   23.6780 C   0  0  0  0  0  0  0  0  0  0  0  0
   11.3480  -15.7560   23.8779 O   0  0  0  0  0  0  0  0  0  0  0  0
   11.5081  -17.6546   18.5298 O   0  0  0  0  0  0  0  0  0  0  0  0
   13.1479  -21.4574   31.3016 N   0  0  0  0  0  0  0  0  0  0  0  0
   12.3743  -21.1861   30.1395 C   0  0  0  0  0  0  0  0  0  0  0  0
   11.8804  -22.1696   29.4961 N   0  0  0  0  0  0  0  0  0  0  0  0
   12.1849  -19.8392   29.7464 N   0  0  0  0  0  0  0  0  0  0  0  0
   11.3608  -19.5386   28.6175 C   0  0  0  0  0  0  0  0  0  0  0  0
   12.2659  -19.3294   27.3938 C   0  0  0  0  0  0  0  0  0  0  0  0
   11.8694  -18.0143   26.8068 C   0  0  0  0  0  0  0  0  0  0  0  0
   12.4759  -17.7511   25.4446 C   0  0  2  0  0  0  0  0  0  0  0  0
   11.4084  -17.9550   24.4767 N   0  0  0  0  0  0  0  0  0  0  0  0
   13.5479  -18.7767   25.2610 C   0  0  0  0  0  0  0  0  0  0  0  0
   14.7726  -18.6932   25.8754 O   0  0  0  0  0  0  0  0  0  0  0  0
   13.3234  -19.7625   24.5113 O   0  0  0  0  0  0  0  0  0  0  0  0
  2  1  1  0
  3  2  1  0
  4  5  1  0
  4  3  1  0
  5  6  1  1
  7  5  1  0
  7  8  2  0
  9  7  1  0
 10  9  1  0
 10 11  1  6
 12 11  1  0
 12 13  1  0
 13 17  1  0
 13 14  2  0
 15 10  1  0
 16 15  2  0
 18 19  1  0
 19 20  2  0
 19 21  1  0
 21 22  1  0
 22 23  1  0
 23 24  1  0
 25 24  1  1
 25 26  1  0
 25 27  1  0
 26 15  1  0
 27 28  1  0
 29 27  2  0
M  END
$$$$
