MER.pdb
     RDKit          3D

 29 28  0  0  1  0  0  0  0  0999 V2000
    7.8555  -11.2995   19.4136 C   0  0  0  0  0  0  0  0  0  0  0  0
    7.6643  -12.4992   20.7589 S   0  0  0  0  0  0  0  0  0  0  0  0
    8.0251  -14.1519   20.1178 C   0  0  0  0  0  0  0  0  0  0  0  0
    7.7884  -15.2139   21.1804 C   0  0  0  0  0  0  0  0  0  0  0  0
    8.2746  -16.5460   20.6115 C   0  0  2  0  0  0  0  0  0  0  0  0
    7.1125  -17.4089   20.5262 N   0  0  0  0  0  0  0  0  0  0  0  0
    9.2721  -17.0676   21.5787 C   0  0  0  0  0  0  0  0  0  0  0  0
    8.9000  -17.7507   22.5644 O   0  0  0  0  0  0  0  0  0  0  0  0
   10.6920  -16.8290   21.4505 N   0  0  0  0  0  0  0  0  0  0  0  0
   11.6165  -17.1165   22.4894 C   0  0  1  0  0  0  0  0  0  0  0  0
   13.0273  -16.7201   22.2158 C   0  0  0  0  0  0  0  0  0  0  0  0
   14.0632  -17.0534   23.2116 C   0  0  0  0  0  0  0  0  0  0  0  0
   15.4027  -16.5960   22.8511 C   0  0  0  0  0  0  0  0  0  0  0  0
   16.0349  -15.7742   23.5418 O   0  0  0  0  0  0  0  0  0  0  0  0
   11.2244  -16.5198   23.7948 C   0  0  0  0  0  0  0  0  0  0  0  0
   10.9361  -15.2927   23.8281 O   0  0  0  0  0  0  0  0  0  0  0  0
   16.0471  -17.0739   21.6862 O   0  0  0  0  0  0  0  0  0  0  0  0
    6.5726  -11.7312   27.1651 N   0  0  0  0  0  0  0  0  0  0  0  0
    6.3821  -12.9714   26.4957 C   0  0  0  0  0  0  0  0  0  0  0  0
    5.4131  -13.0747   25.6738 N   0  0  0  0  0  0  0  0  0  0  0  0
    7.2739  -14.0368   26.7684 N   0  0  0  0  0  0  0  0  0  0  0  0
    7.0543  -15.3168   26.1705 C   0  0  0  0  0  0  0  0  0  0  0  0
    7.9981  -16.3331   26.8314 C   0  0  0  0  0  0  0  0  0  0  0  0
    8.9318  -16.7882   25.7581 C   0  0  0  0  0  0  0  0  0  0  0  0
   10.3898  -16.7434   26.1639 C   0  0  2  0  0  0  0  0  0  0  0  0
   11.1471  -17.2257   25.0185 N   0  0  0  0  0  0  0  0  0  0  0  0
   10.5306  -17.6863   27.3154 C   0  0  0  0  0  0  0  0  0  0  0  0
   10.1687  -17.3563   28.5978 O   0  0  0  0  0  0  0  0  0  0  0  0
   11.0009  -18.8349   27.1059 O   0  0  0  0  0  0  0  0  0  0  0  0
  2  1  1  0
  3  2  1  0
  4  5  1  0
  4  3  1  0
  5  6  1  1
  7  5  1  0
  7  8  2  0
  9  7  1  0
 10  9  1  0
 10 11  1  6
 12 11  1  0
 12 13  1  0
 13 17  1  0
 13 14  2  0
 15 10  1  0
 16 15  2  0
 18 19  1  0
 19 20  2  0
 19 21  1  0
 21 22  1  0
 22 23  1  0
 23 24  1  0
 25 24  1  6
 25 26  1  0
 25 27  1  0
 26 15  1  0
 27 28  1  0
 29 27  2  0
M  END
$$$$
