MER.pdb
     RDKit          3D

 29 28  0  0  1  0  0  0  0  0999 V2000
    7.5979  -11.6332   28.3221 C   0  0  0  0  0  0  0  0  0  0  0  0
    5.9741  -11.7440   27.5241 S   0  0  0  0  0  0  0  0  0  0  0  0
    6.0199  -13.0735   26.2982 C   0  0  0  0  0  0  0  0  0  0  0  0
    7.4524  -13.4622   25.9669 C   0  0  0  0  0  0  0  0  0  0  0  0
    7.4074  -14.3686   24.7376 C   0  0  2  0  0  0  0  0  0  0  0  0
    6.5872  -15.5099   25.0942 N   0  0  0  0  0  0  0  0  0  0  0  0
    8.8111  -14.7679   24.4684 C   0  0  0  0  0  0  0  0  0  0  0  0
    9.6362  -13.9262   24.0356 O   0  0  0  0  0  0  0  0  0  0  0  0
    9.3018  -16.1109   24.6812 N   0  0  0  0  0  0  0  0  0  0  0  0
   10.5898  -16.5344   24.2588 C   0  0  1  0  0  0  0  0  0  0  0  0
   10.9789  -17.9105   24.6800 C   0  0  0  0  0  0  0  0  0  0  0  0
   12.2665  -18.4575   24.2125 C   0  0  0  0  0  0  0  0  0  0  0  0
   12.9180  -19.3455   25.1719 C   0  0  0  0  0  0  0  0  0  0  0  0
   13.5283  -20.3734   24.8209 O   0  0  0  0  0  0  0  0  0  0  0  0
   10.7747  -16.4436   22.7852 C   0  0  0  0  0  0  0  0  0  0  0  0
    9.9981  -17.1049   22.0439 O   0  0  0  0  0  0  0  0  0  0  0  0
   12.8827  -19.0717   26.5591 O   0  0  0  0  0  0  0  0  0  0  0  0
    8.1805  -15.2218   18.5713 N   0  0  0  0  0  0  0  0  0  0  0  0
    7.8040  -13.8738   18.3189 C   0  0  0  0  0  0  0  0  0  0  0  0
    6.8258  -13.6543   17.5314 N   0  0  0  0  0  0  0  0  0  0  0  0
    8.5285  -12.8344   18.9508 N   0  0  0  0  0  0  0  0  0  0  0  0
    9.9283  -12.9920   19.1950 C   0  0  0  0  0  0  0  0  0  0  0  0
   10.1601  -14.3674   19.8392 C   0  0  0  0  0  0  0  0  0  0  0  0
   11.6288  -14.4619   20.0942 C   0  0  0  0  0  0  0  0  0  0  0  0
   12.0526  -15.7756   20.7164 C   0  0  2  0  0  0  0  0  0  0  0  0
   11.7636  -15.6654   22.1385 N   0  0  0  0  0  0  0  0  0  0  0  0
   13.5265  -15.8862   20.4918 C   0  0  0  0  0  0  0  0  0  0  0  0
   14.4397  -15.8741   21.5166 O   0  0  0  0  0  0  0  0  0  0  0  0
   13.9547  -15.9956   19.3133 O   0  0  0  0  0  0  0  0  0  0  0  0
  2  1  1  0
  3  2  1  0
  4  5  1  0
  4  3  1  0
  5  6  1  1
  7  5  1  0
  7  8  2  0
  9  7  1  0
 10  9  1  0
 10 11  1  6
 12 11  1  0
 12 13  1  0
 13 17  1  0
 13 14  2  0
 15 10  1  0
 16 15  2  0
 18 19  1  0
 19 20  2  0
 19 21  1  0
 21 22  1  0
 22 23  1  0
 23 24  1  0
 25 24  1  6
 25 26  1  0
 25 27  1  0
 26 15  1  0
 27 28  1  0
 29 27  2  0
M  END
$$$$
