MER.pdb
     RDKit          3D

 29 28  0  0  1  0  0  0  0  0999 V2000
    7.6928  -12.2354   21.0601 C   0  0  0  0  0  0  0  0  0  0  0  0
    7.3004  -12.1292   19.2937 S   0  0  0  0  0  0  0  0  0  0  0  0
    8.0302  -13.5538   18.4508 C   0  0  0  0  0  0  0  0  0  0  0  0
    8.5607  -14.5683   19.4520 C   0  0  0  0  0  0  0  0  0  0  0  0
    9.0988  -15.7569   18.6568 C   0  0  2  0  0  0  0  0  0  0  0  0
    7.9542  -16.3869   18.0280 N   0  0  0  0  0  0  0  0  0  0  0  0
    9.7425  -16.6569   19.6458 C   0  0  0  0  0  0  0  0  0  0  0  0
    9.1028  -17.0524   20.6513 O   0  0  0  0  0  0  0  0  0  0  0  0
   11.1056  -17.1206   19.5175 N   0  0  0  0  0  0  0  0  0  0  0  0
   11.8062  -17.7507   20.5799 C   0  0  1  0  0  0  0  0  0  0  0  0
   13.1694  -18.2484   20.2386 C   0  0  0  0  0  0  0  0  0  0  0  0
   13.4276  -18.7239   18.8663 C   0  0  0  0  0  0  0  0  0  0  0  0
   13.8127  -20.1307   18.7879 C   0  0  0  0  0  0  0  0  0  0  0  0
   14.7744  -20.5211   18.0988 O   0  0  0  0  0  0  0  0  0  0  0  0
   11.9291  -16.8868   21.7851 C   0  0  0  0  0  0  0  0  0  0  0  0
   12.9812  -16.2065   21.9276 O   0  0  0  0  0  0  0  0  0  0  0  0
   13.0997  -21.1225   19.5010 O   0  0  0  0  0  0  0  0  0  0  0  0
    9.3893  -13.1991   27.9527 N   0  0  0  0  0  0  0  0  0  0  0  0
    9.8533  -14.3251   28.6871 C   0  0  0  0  0  0  0  0  0  0  0  0
   10.6449  -14.1266   29.6664 N   0  0  0  0  0  0  0  0  0  0  0  0
    9.4180  -15.6161   28.3018 N   0  0  0  0  0  0  0  0  0  0  0  0
    9.1851  -15.9037   26.9208 C   0  0  0  0  0  0  0  0  0  0  0  0
   10.2091  -16.9526   26.4608 C   0  0  0  0  0  0  0  0  0  0  0  0
   10.0538  -17.0594   24.9791 C   0  0  0  0  0  0  0  0  0  0  0  0
   11.2815  -16.6229   24.2079 C   0  0  2  0  0  0  0  0  0  0  0  0
   10.9491  -16.7640   22.7981 N   0  0  0  0  0  0  0  0  0  0  0  0
   12.3700  -17.5761   24.5840 C   0  0  0  0  0  0  0  0  0  0  0  0
   13.1653  -18.2029   23.6572 O   0  0  0  0  0  0  0  0  0  0  0  0
   12.5708  -17.8185   25.8027 O   0  0  0  0  0  0  0  0  0  0  0  0
  2  1  1  0
  3  2  1  0
  4  5  1  0
  4  3  1  0
  5  6  1  1
  7  5  1  0
  7  8  2  0
  9  7  1  0
 10  9  1  0
 10 11  1  6
 12 11  1  0
 12 13  1  0
 13 17  1  0
 13 14  2  0
 15 10  1  0
 16 15  2  0
 18 19  1  0
 19 20  2  0
 19 21  1  0
 21 22  1  0
 22 23  1  0
 23 24  1  0
 25 24  1  1
 25 26  1  0
 25 27  1  0
 26 15  1  0
 27 28  1  0
 29 27  2  0
M  END
$$$$
