MER.pdb
     RDKit          3D

 29 28  0  0  1  0  0  0  0  0999 V2000
    7.4217  -11.7575   21.0013 C   0  0  0  0  0  0  0  0  0  0  0  0
    6.4066  -12.4536   19.6707 S   0  0  0  0  0  0  0  0  0  0  0  0
    7.1921  -13.9704   19.0749 C   0  0  0  0  0  0  0  0  0  0  0  0
    7.6611  -14.8349   20.2350 C   0  0  0  0  0  0  0  0  0  0  0  0
    8.2353  -16.1213   19.6434 C   0  0  2  0  0  0  0  0  0  0  0  0
    7.1129  -16.8696   19.1115 N   0  0  0  0  0  0  0  0  0  0  0  0
    8.8852  -16.8382   20.7687 C   0  0  0  0  0  0  0  0  0  0  0  0
    8.2020  -17.5550   21.5407 O   0  0  0  0  0  0  0  0  0  0  0  0
   10.3030  -16.7582   21.0385 N   0  0  0  0  0  0  0  0  0  0  0  0
   10.9116  -17.4018   22.1485 C   0  0  1  0  0  0  0  0  0  0  0  0
   12.3979  -17.3029   22.2073 C   0  0  0  0  0  0  0  0  0  0  0  0
   13.1049  -17.9184   23.3462 C   0  0  0  0  0  0  0  0  0  0  0  0
   14.5607  -17.8680   23.2390 C   0  0  0  0  0  0  0  0  0  0  0  0
   15.3097  -18.4146   24.0711 O   0  0  0  0  0  0  0  0  0  0  0  0
   10.3753  -16.9331   23.4549 C   0  0  0  0  0  0  0  0  0  0  0  0
   10.4860  -15.7102   23.7418 O   0  0  0  0  0  0  0  0  0  0  0  0
   15.1898  -17.1870   22.1708 O   0  0  0  0  0  0  0  0  0  0  0  0
    4.6527  -20.6012   23.1390 N   0  0  0  0  0  0  0  0  0  0  0  0
    5.1272  -21.3211   24.2700 C   0  0  0  0  0  0  0  0  0  0  0  0
    4.6317  -22.4711   24.5089 N   0  0  0  0  0  0  0  0  0  0  0  0
    6.1275  -20.7329   25.0812 N   0  0  0  0  0  0  0  0  0  0  0  0
    6.4460  -19.3481   24.9230 C   0  0  0  0  0  0  0  0  0  0  0  0
    7.4444  -18.9480   26.0201 C   0  0  0  0  0  0  0  0  0  0  0  0
    7.7968  -17.5205   25.7573 C   0  0  0  0  0  0  0  0  0  0  0  0
    9.2881  -17.2639   25.7060 C   0  0  2  0  0  0  0  0  0  0  0  0
    9.7427  -17.7578   24.4148 N   0  0  0  0  0  0  0  0  0  0  0  0
    9.8876  -18.0710   26.8125 C   0  0  0  0  0  0  0  0  0  0  0  0
   10.7787  -19.0917   26.5924 O   0  0  0  0  0  0  0  0  0  0  0  0
    9.5648  -17.8075   28.0002 O   0  0  0  0  0  0  0  0  0  0  0  0
  2  1  1  0
  3  2  1  0
  4  5  1  0
  4  3  1  0
  5  6  1  1
  7  5  1  0
  7  8  2  0
  9  7  1  0
 10  9  1  0
 10 11  1  1
 12 11  1  0
 12 13  1  0
 13 17  1  0
 13 14  2  0
 15 10  1  0
 16 15  2  0
 18 19  1  0
 19 20  2  0
 19 21  1  0
 21 22  1  0
 22 23  1  0
 23 24  1  0
 25 24  1  6
 25 26  1  0
 25 27  1  0
 26 15  1  0
 27 28  1  0
 29 27  2  0
M  END
$$$$
