MER.pdb
     RDKit          3D

 29 28  0  0  1  0  0  0  0  0999 V2000
    9.0791  -13.1336   18.0261 C   0  0  0  0  0  0  0  0  0  0  0  0
    7.6395  -12.7803   19.0694 S   0  0  0  0  0  0  0  0  0  0  0  0
    7.1925  -14.2845   19.9696 C   0  0  0  0  0  0  0  0  0  0  0  0
    8.2262  -14.6103   21.0365 C   0  0  0  0  0  0  0  0  0  0  0  0
    7.8079  -15.9259   21.6915 C   0  0  2  0  0  0  0  0  0  0  0  0
    6.5336  -15.6799   22.3382 N   0  0  0  0  0  0  0  0  0  0  0  0
    8.8676  -16.2499   22.6787 C   0  0  0  0  0  0  0  0  0  0  0  0
    9.5707  -15.3355   23.1748 O   0  0  0  0  0  0  0  0  0  0  0  0
    9.1484  -17.5982   23.1177 N   0  0  0  0  0  0  0  0  0  0  0  0
   10.2673  -17.9250   23.9287 C   0  0  1  0  0  0  0  0  0  0  0  0
   10.1704  -19.2223   24.6569 C   0  0  0  0  0  0  0  0  0  0  0  0
   11.3240  -19.6737   25.4576 C   0  0  0  0  0  0  0  0  0  0  0  0
   11.1071  -20.9419   26.1492 C   0  0  0  0  0  0  0  0  0  0  0  0
   10.0676  -21.6124   26.0013 O   0  0  0  0  0  0  0  0  0  0  0  0
   11.5494  -17.9253   23.1735 C   0  0  0  0  0  0  0  0  0  0  0  0
   11.5540  -18.3989   22.0048 O   0  0  0  0  0  0  0  0  0  0  0  0
   12.0820  -21.4689   27.0280 O   0  0  0  0  0  0  0  0  0  0  0  0
   13.5260  -15.3162   17.6403 N   0  0  0  0  0  0  0  0  0  0  0  0
   14.5113  -14.3373   17.9458 C   0  0  0  0  0  0  0  0  0  0  0  0
   15.3876  -14.0620   17.0619 N   0  0  0  0  0  0  0  0  0  0  0  0
   14.4782  -13.7105   19.2149 N   0  0  0  0  0  0  0  0  0  0  0  0
   13.5948  -14.2014   20.2261 C   0  0  0  0  0  0  0  0  0  0  0  0
   14.3485  -15.2400   21.0710 C   0  0  0  0  0  0  0  0  0  0  0  0
   13.3285  -15.8620   21.9675 C   0  0  0  0  0  0  0  0  0  0  0  0
   13.8681  -17.0090   22.7955 C   0  0  2  0  0  0  0  0  0  0  0  0
   12.7804  -17.4311   23.6654 N   0  0  0  0  0  0  0  0  0  0  0  0
   14.9925  -16.4460   23.6039 C   0  0  0  0  0  0  0  0  0  0  0  0
   14.9606  -16.3700   24.9741 O   0  0  0  0  0  0  0  0  0  0  0  0
   16.0163  -16.0213   23.0073 O   0  0  0  0  0  0  0  0  0  0  0  0
  2  1  1  0
  3  2  1  0
  4  5  1  0
  4  3  1  0
  5  6  1  1
  7  5  1  0
  7  8  2  0
  9  7  1  0
 10  9  1  0
 10 11  1  6
 12 11  1  0
 12 13  1  0
 13 17  1  0
 13 14  2  0
 15 10  1  0
 16 15  2  0
 18 19  1  0
 19 20  2  0
 19 21  1  0
 21 22  1  0
 22 23  1  0
 23 24  1  0
 25 24  1  6
 25 26  1  0
 25 27  1  0
 26 15  1  0
 27 28  1  0
 29 27  2  0
M  END
$$$$
