MER.pdb
     RDKit          3D

 29 28  0  0  1  0  0  0  0  0999 V2000
    6.9737  -10.4950   26.2446 C   0  0  0  0  0  0  0  0  0  0  0  0
    5.5678  -11.4938   26.8027 S   0  0  0  0  0  0  0  0  0  0  0  0
    6.1109  -13.2098   26.9834 C   0  0  0  0  0  0  0  0  0  0  0  0
    5.8742  -13.9956   25.7030 C   0  0  0  0  0  0  0  0  0  0  0  0
    6.4976  -15.3776   25.8930 C   0  0  2  0  0  0  0  0  0  0  0  0
    7.7291  -15.1785   26.6319 N   0  0  0  0  0  0  0  0  0  0  0  0
    6.7578  -15.9032   24.5297 C   0  0  0  0  0  0  0  0  0  0  0  0
    6.2620  -16.9990   24.1691 O   0  0  0  0  0  0  0  0  0  0  0  0
    7.5742  -15.2075   23.5607 N   0  0  0  0  0  0  0  0  0  0  0  0
    8.2523  -15.8749   22.5064 C   0  0  1  0  0  0  0  0  0  0  0  0
    8.2435  -15.1680   21.1939 C   0  0  0  0  0  0  0  0  0  0  0  0
    8.9876  -15.7588   20.0655 C   0  0  0  0  0  0  0  0  0  0  0  0
    8.7949  -15.0611   18.7968 C   0  0  0  0  0  0  0  0  0  0  0  0
    8.2576  -13.9392   18.7280 O   0  0  0  0  0  0  0  0  0  0  0  0
    9.6672  -16.1939   22.8385 C   0  0  0  0  0  0  0  0  0  0  0  0
   10.4200  -15.2533   23.2108 O   0  0  0  0  0  0  0  0  0  0  0  0
    9.2162  -15.6383   17.5762 O   0  0  0  0  0  0  0  0  0  0  0  0
   11.3743  -21.2087   28.8068 N   0  0  0  0  0  0  0  0  0  0  0  0
   11.3875  -19.7892   28.8924 C   0  0  0  0  0  0  0  0  0  0  0  0
   11.7008  -19.2512   30.0048 N   0  0  0  0  0  0  0  0  0  0  0  0
   11.0536  -19.0343   27.7420 N   0  0  0  0  0  0  0  0  0  0  0  0
   11.5990  -19.3981   26.4715 C   0  0  0  0  0  0  0  0  0  0  0  0
   10.9621  -18.5079   25.3934 C   0  0  0  0  0  0  0  0  0  0  0  0
   11.6380  -18.8653   24.1103 C   0  0  0  0  0  0  0  0  0  0  0  0
   11.6402  -17.7435   23.0934 C   0  0  2  0  0  0  0  0  0  0  0  0
   10.2452  -17.4834   22.7702 N   0  0  0  0  0  0  0  0  0  0  0  0
   12.3628  -18.2694   21.8950 C   0  0  0  0  0  0  0  0  0  0  0  0
   13.7322  -18.3032   21.8056 O   0  0  0  0  0  0  0  0  0  0  0  0
   11.6914  -18.7016   20.9221 O   0  0  0  0  0  0  0  0  0  0  0  0
  2  1  1  0
  3  2  1  0
  4  5  1  0
  4  3  1  0
  5  6  1  1
  7  5  1  0
  7  8  2  0
  9  7  1  0
 10  9  1  0
 10 11  1  6
 12 11  1  0
 12 13  1  0
 13 17  1  0
 13 14  2  0
 15 10  1  0
 16 15  2  0
 18 19  1  0
 19 20  2  0
 19 21  1  0
 21 22  1  0
 22 23  1  0
 23 24  1  0
 25 24  1  1
 25 26  1  0
 25 27  1  0
 26 15  1  0
 27 28  1  0
 29 27  2  0
M  END
$$$$
