MER.pdb
     RDKit          3D

 29 28  0  0  1  0  0  0  0  0999 V2000
    6.8651  -10.5353   27.0602 C   0  0  0  0  0  0  0  0  0  0  0  0
    5.5520  -11.6833   26.5666 S   0  0  0  0  0  0  0  0  0  0  0  0
    5.9880  -13.3434   27.1382 C   0  0  0  0  0  0  0  0  0  0  0  0
    7.3824  -13.7330   26.6726 C   0  0  0  0  0  0  0  0  0  0  0  0
    7.2210  -14.7870   25.5782 C   0  0  2  0  0  0  0  0  0  0  0  0
    6.2250  -15.7278   26.0530 N   0  0  0  0  0  0  0  0  0  0  0  0
    8.5500  -15.4295   25.4257 C   0  0  0  0  0  0  0  0  0  0  0  0
    9.4990  -14.8014   24.8952 O   0  0  0  0  0  0  0  0  0  0  0  0
    8.8269  -16.7786   25.8650 N   0  0  0  0  0  0  0  0  0  0  0  0
   10.0509  -17.4420   25.5852 C   0  0  1  0  0  0  0  0  0  0  0  0
   10.1797  -18.8120   26.1585 C   0  0  0  0  0  0  0  0  0  0  0  0
   11.3748  -19.6102   25.8261 C   0  0  0  0  0  0  0  0  0  0  0  0
   12.0646  -20.1600   26.9904 C   0  0  0  0  0  0  0  0  0  0  0  0
   11.5509  -20.1717   28.1254 O   0  0  0  0  0  0  0  0  0  0  0  0
   10.3404  -17.5326   24.1285 C   0  0  0  0  0  0  0  0  0  0  0  0
    9.5284  -18.1605   23.3961 O   0  0  0  0  0  0  0  0  0  0  0  0
   13.3628  -20.7096   26.8762 O   0  0  0  0  0  0  0  0  0  0  0  0
    7.5623  -14.0725   16.9894 N   0  0  0  0  0  0  0  0  0  0  0  0
    8.6715  -13.7095   17.8020 C   0  0  0  0  0  0  0  0  0  0  0  0
    8.9211  -12.4707   17.9699 N   0  0  0  0  0  0  0  0  0  0  0  0
    9.4502  -14.7357   18.3896 N   0  0  0  0  0  0  0  0  0  0  0  0
   10.1354  -14.4903   19.6202 C   0  0  0  0  0  0  0  0  0  0  0  0
   10.9378  -15.7467   19.9916 C   0  0  0  0  0  0  0  0  0  0  0  0
   10.7986  -15.9035   21.4705 C   0  0  0  0  0  0  0  0  0  0  0  0
   11.6628  -17.0049   22.0472 C   0  0  2  0  0  0  0  0  0  0  0  0
   11.4671  -16.9643   23.4887 N   0  0  0  0  0  0  0  0  0  0  0  0
   13.0738  -16.6500   21.7033 C   0  0  0  0  0  0  0  0  0  0  0  0
   14.0082  -16.3080   22.6490 O   0  0  0  0  0  0  0  0  0  0  0  0
   13.4263  -16.6638   20.4951 O   0  0  0  0  0  0  0  0  0  0  0  0
  2  1  1  0
  3  2  1  0
  4  5  1  0
  4  3  1  0
  5  6  1  1
  7  5  1  0
  7  8  2  0
  9  7  1  0
 10  9  1  0
 10 11  1  6
 12 11  1  0
 12 13  1  0
 13 17  1  0
 13 14  2  0
 15 10  1  0
 16 15  2  0
 18 19  1  0
 19 20  2  0
 19 21  1  0
 21 22  1  0
 22 23  1  0
 23 24  1  0
 25 24  1  6
 25 26  1  0
 25 27  1  0
 26 15  1  0
 27 28  1  0
 29 27  2  0
M  END
$$$$
