MER.pdb
     RDKit          3D

 29 28  0  0  1  0  0  0  0  0999 V2000
    7.5173  -11.9726   20.0636 C   0  0  0  0  0  0  0  0  0  0  0  0
    8.2406  -12.6145   18.5305 S   0  0  0  0  0  0  0  0  0  0  0  0
    8.9203  -14.2595   18.8542 C   0  0  0  0  0  0  0  0  0  0  0  0
    7.8471  -15.3293   18.7250 C   0  0  0  0  0  0  0  0  0  0  0  0
    8.5143  -16.6795   18.9826 C   0  0  2  0  0  0  0  0  0  0  0  0
    7.5111  -17.6936   18.7227 N   0  0  0  0  0  0  0  0  0  0  0  0
    8.9250  -16.6707   20.4087 C   0  0  0  0  0  0  0  0  0  0  0  0
    9.9256  -16.0061   20.7746 O   0  0  0  0  0  0  0  0  0  0  0  0
    8.2202  -17.4049   21.4352 N   0  0  0  0  0  0  0  0  0  0  0  0
    8.6376  -17.4212   22.7924 C   0  0  1  0  0  0  0  0  0  0  0  0
    7.7778  -18.2163   23.7148 C   0  0  0  0  0  0  0  0  0  0  0  0
    7.7308  -19.6818   23.5537 C   0  0  0  0  0  0  0  0  0  0  0  0
    6.9357  -20.3660   24.5702 C   0  0  0  0  0  0  0  0  0  0  0  0
    6.2812  -19.7482   25.4317 O   0  0  0  0  0  0  0  0  0  0  0  0
   10.0387  -17.8927   22.9616 C   0  0  0  0  0  0  0  0  0  0  0  0
   10.3916  -18.9441   22.3615 O   0  0  0  0  0  0  0  0  0  0  0  0
    6.8748  -21.7782   24.6195 O   0  0  0  0  0  0  0  0  0  0  0  0
   15.3762  -13.6881   20.9614 N   0  0  0  0  0  0  0  0  0  0  0  0
   14.4171  -14.1852   20.0365 C   0  0  0  0  0  0  0  0  0  0  0  0
   14.6157  -13.9901   18.7925 N   0  0  0  0  0  0  0  0  0  0  0  0
   13.2848  -14.8746   20.5339 N   0  0  0  0  0  0  0  0  0  0  0  0
   13.1671  -15.1271   21.9362 C   0  0  0  0  0  0  0  0  0  0  0  0
   13.4943  -16.6057   22.1955 C   0  0  0  0  0  0  0  0  0  0  0  0
   13.3541  -16.8075   23.6688 C   0  0  0  0  0  0  0  0  0  0  0  0
   12.3165  -17.8451   24.0424 C   0  0  2  0  0  0  0  0  0  0  0  0
   11.0210  -17.2496   23.7509 N   0  0  0  0  0  0  0  0  0  0  0  0
   12.4659  -18.0727   25.5123 C   0  0  0  0  0  0  0  0  0  0  0  0
   13.5335  -18.7407   26.0586 O   0  0  0  0  0  0  0  0  0  0  0  0
   11.5769  -17.6347   26.2882 O   0  0  0  0  0  0  0  0  0  0  0  0
  2  1  1  0
  3  2  1  0
  4  5  1  0
  4  3  1  0
  5  6  1  1
  7  5  1  0
  7  8  2  0
  9  7  1  0
 10  9  1  0
 10 11  1  1
 12 11  1  0
 12 13  1  0
 13 17  1  0
 13 14  2  0
 15 10  1  0
 16 15  2  0
 18 19  1  0
 19 20  2  0
 19 21  1  0
 21 22  1  0
 22 23  1  0
 23 24  1  0
 25 24  1  1
 25 26  1  0
 25 27  1  0
 26 15  1  0
 27 28  1  0
 29 27  2  0
M  END
$$$$
