MER.pdb
     RDKit          3D

 29 28  0  0  1  0  0  0  0  0999 V2000
    9.2156  -11.6631   19.8300 C   0  0  0  0  0  0  0  0  0  0  0  0
    7.4740  -12.0776   19.5463 S   0  0  0  0  0  0  0  0  0  0  0  0
    7.3905  -13.4983   18.4295 C   0  0  0  0  0  0  0  0  0  0  0  0
    7.7265  -14.7887   19.1609 C   0  0  0  0  0  0  0  0  0  0  0  0
    9.0994  -14.6045   19.8056 C   0  0  2  0  0  0  0  0  0  0  0  0
   10.0438  -14.4143   18.7219 N   0  0  0  0  0  0  0  0  0  0  0  0
    9.3738  -15.8555   20.5555 C   0  0  0  0  0  0  0  0  0  0  0  0
    8.4909  -16.3563   21.2947 O   0  0  0  0  0  0  0  0  0  0  0  0
   10.6369  -16.5547   20.4842 N   0  0  0  0  0  0  0  0  0  0  0  0
   10.8921  -17.7552   21.1986 C   0  0  1  0  0  0  0  0  0  0  0  0
   12.2672  -18.3097   21.0438 C   0  0  0  0  0  0  0  0  0  0  0  0
   12.6399  -19.5079   21.8193 C   0  0  0  0  0  0  0  0  0  0  0  0
   13.9999  -19.9782   21.5687 C   0  0  0  0  0  0  0  0  0  0  0  0
   14.3209  -20.5579   20.5136 O   0  0  0  0  0  0  0  0  0  0  0  0
   10.6159  -17.6318   22.6555 C   0  0  0  0  0  0  0  0  0  0  0  0
   11.2110  -16.7271   23.3017 O   0  0  0  0  0  0  0  0  0  0  0  0
   15.0236  -19.7926   22.5269 O   0  0  0  0  0  0  0  0  0  0  0  0
    6.1175  -23.1719   28.2994 N   0  0  0  0  0  0  0  0  0  0  0  0
    6.6232  -21.8429   28.2742 C   0  0  0  0  0  0  0  0  0  0  0  0
    6.7087  -21.2052   29.3747 N   0  0  0  0  0  0  0  0  0  0  0  0
    7.0101  -21.2848   27.0318 N   0  0  0  0  0  0  0  0  0  0  0  0
    6.6141  -19.9521   26.6985 C   0  0  0  0  0  0  0  0  0  0  0  0
    7.8758  -19.0842   26.5743 C   0  0  0  0  0  0  0  0  0  0  0  0
    8.2364  -19.0846   25.1249 C   0  0  0  0  0  0  0  0  0  0  0  0
    9.4911  -18.2969   24.8123 C   0  0  2  0  0  0  0  0  0  0  0  0
    9.7283  -18.4570   23.3853 N   0  0  0  0  0  0  0  0  0  0  0  0
   10.5907  -18.9364   25.5977 C   0  0  0  0  0  0  0  0  0  0  0  0
   10.8711  -18.5993   26.8985 O   0  0  0  0  0  0  0  0  0  0  0  0
   11.2935  -19.8237   25.0473 O   0  0  0  0  0  0  0  0  0  0  0  0
  2  1  1  0
  3  2  1  0
  4  5  1  0
  4  3  1  0
  5  6  1  6
  7  5  1  0
  7  8  2  0
  9  7  1  0
 10  9  1  0
 10 11  1  1
 12 11  1  0
 12 13  1  0
 13 17  1  0
 13 14  2  0
 15 10  1  0
 16 15  2  0
 18 19  1  0
 19 20  2  0
 19 21  1  0
 21 22  1  0
 22 23  1  0
 23 24  1  0
 25 24  1  1
 25 26  1  0
 25 27  1  0
 26 15  1  0
 27 28  1  0
 29 27  2  0
M  END
$$$$
