MER.pdb
     RDKit          3D

 29 28  0  0  1  0  0  0  0  0999 V2000
    8.5024  -11.8404   20.0429 C   0  0  0  0  0  0  0  0  0  0  0  0
    7.0065  -12.5095   19.2680 S   0  0  0  0  0  0  0  0  0  0  0  0
    7.3678  -14.1700   18.6478 C   0  0  0  0  0  0  0  0  0  0  0  0
    8.3428  -14.8949   19.5626 C   0  0  0  0  0  0  0  0  0  0  0  0
    8.6161  -16.2655   18.9451 C   0  0  2  0  0  0  0  0  0  0  0  0
    7.3556  -16.9822   18.9531 N   0  0  0  0  0  0  0  0  0  0  0  0
    9.6211  -16.9187   19.8202 C   0  0  0  0  0  0  0  0  0  0  0  0
    9.3203  -17.2444   20.9950 O   0  0  0  0  0  0  0  0  0  0  0  0
   10.9689  -17.2120   19.3880 N   0  0  0  0  0  0  0  0  0  0  0  0
   11.9575  -17.7410   20.2594 C   0  0  1  0  0  0  0  0  0  0  0  0
   13.2618  -18.0727   19.6182 C   0  0  0  0  0  0  0  0  0  0  0  0
   13.2561  -18.7977   18.3336 C   0  0  0  0  0  0  0  0  0  0  0  0
   14.5883  -19.0840   17.8073 C   0  0  0  0  0  0  0  0  0  0  0  0
   15.3950  -18.1827   17.5088 O   0  0  0  0  0  0  0  0  0  0  0  0
   12.2377  -16.8559   21.4222 C   0  0  0  0  0  0  0  0  0  0  0  0
   12.7061  -15.7066   21.1988 O   0  0  0  0  0  0  0  0  0  0  0  0
   15.0242  -20.4153   17.6121 O   0  0  0  0  0  0  0  0  0  0  0  0
   10.8497  -16.5866   29.1379 N   0  0  0  0  0  0  0  0  0  0  0  0
   10.2813  -15.2839   29.0905 C   0  0  0  0  0  0  0  0  0  0  0  0
   10.2515  -14.5954   30.1630 N   0  0  0  0  0  0  0  0  0  0  0  0
    9.7738  -14.8066   27.8579 N   0  0  0  0  0  0  0  0  0  0  0  0
    9.7700  -15.6626   26.7128 C   0  0  0  0  0  0  0  0  0  0  0  0
   11.1280  -15.5380   26.0051 C   0  0  0  0  0  0  0  0  0  0  0  0
   11.0210  -16.3550   24.7593 C   0  0  0  0  0  0  0  0  0  0  0  0
   12.2489  -16.2782   23.8769 C   0  0  2  0  0  0  0  0  0  0  0  0
   12.0187  -17.2022   22.7763 N   0  0  0  0  0  0  0  0  0  0  0  0
   13.3948  -16.7438   24.7165 C   0  0  0  0  0  0  0  0  0  0  0  0
   13.9617  -17.9866   24.5810 O   0  0  0  0  0  0  0  0  0  0  0  0
   13.8648  -15.9664   25.5877 O   0  0  0  0  0  0  0  0  0  0  0  0
  2  1  1  0
  3  2  1  0
  4  5  1  0
  4  3  1  0
  5  6  1  1
  7  5  1  0
  7  8  2  0
  9  7  1  0
 10  9  1  0
 10 11  1  6
 12 11  1  0
 12 13  1  0
 13 17  1  0
 13 14  2  0
 15 10  1  0
 16 15  2  0
 18 19  1  0
 19 20  2  0
 19 21  1  0
 21 22  1  0
 22 23  1  0
 23 24  1  0
 25 24  1  1
 25 26  1  0
 25 27  1  0
 26 15  1  0
 27 28  1  0
 29 27  2  0
M  END
$$$$
