MER.pdb
     RDKit          3D

 29 28  0  0  1  0  0  0  0  0999 V2000
    7.2572  -12.5996   20.7605 C   0  0  0  0  0  0  0  0  0  0  0  0
    7.2727  -12.4865   18.9515 S   0  0  0  0  0  0  0  0  0  0  0  0
    6.9592  -14.1306   18.2649 C   0  0  0  0  0  0  0  0  0  0  0  0
    7.6895  -15.2026   19.0589 C   0  0  0  0  0  0  0  0  0  0  0  0
    9.1583  -15.1609   18.6399 C   0  0  2  0  0  0  0  0  0  0  0  0
    9.2180  -15.6794   17.2871 N   0  0  0  0  0  0  0  0  0  0  0  0
    9.8838  -16.0371   19.5930 C   0  0  0  0  0  0  0  0  0  0  0  0
    9.8178  -15.8196   20.8279 O   0  0  0  0  0  0  0  0  0  0  0  0
   10.6880  -17.1620   19.1719 N   0  0  0  0  0  0  0  0  0  0  0  0
   11.4215  -17.9664   20.0837 C   0  0  1  0  0  0  0  0  0  0  0  0
   12.4698  -18.8314   19.4711 C   0  0  0  0  0  0  0  0  0  0  0  0
   13.2622  -19.7141   20.3480 C   0  0  0  0  0  0  0  0  0  0  0  0
   13.3750  -21.0872   19.8629 C   0  0  0  0  0  0  0  0  0  0  0  0
   14.0374  -21.9542   20.4643 O   0  0  0  0  0  0  0  0  0  0  0  0
   12.0652  -17.1743   21.1664 C   0  0  0  0  0  0  0  0  0  0  0  0
   12.8702  -16.2603   20.8400 O   0  0  0  0  0  0  0  0  0  0  0  0
   12.7278  -21.4956   18.6734 O   0  0  0  0  0  0  0  0  0  0  0  0
    9.8130  -16.2944   29.7773 N   0  0  0  0  0  0  0  0  0  0  0  0
   10.2550  -15.0579   29.2313 C   0  0  0  0  0  0  0  0  0  0  0  0
    9.8638  -13.9769   29.7823 N   0  0  0  0  0  0  0  0  0  0  0  0
   11.1090  -15.0783   28.1022 N   0  0  0  0  0  0  0  0  0  0  0  0
   10.8077  -15.9376   27.0000 C   0  0  0  0  0  0  0  0  0  0  0  0
   11.8980  -15.7626   25.9318 C   0  0  0  0  0  0  0  0  0  0  0  0
   11.4851  -16.6148   24.7766 C   0  0  0  0  0  0  0  0  0  0  0  0
   12.3864  -16.4754   23.5680 C   0  0  2  0  0  0  0  0  0  0  0  0
   11.8451  -17.3646   22.5510 N   0  0  0  0  0  0  0  0  0  0  0  0
   13.7389  -16.9423   24.0012 C   0  0  0  0  0  0  0  0  0  0  0  0
   14.6926  -16.0955   24.5089 O   0  0  0  0  0  0  0  0  0  0  0  0
   14.0213  -18.1646   23.8983 O   0  0  0  0  0  0  0  0  0  0  0  0
  2  1  1  0
  3  2  1  0
  4  5  1  0
  4  3  1  0
  5  6  1  6
  7  5  1  0
  7  8  2  0
  9  7  1  0
 10  9  1  0
 10 11  1  6
 12 11  1  0
 12 13  1  0
 13 17  1  0
 13 14  2  0
 15 10  1  0
 16 15  2  0
 18 19  1  0
 19 20  2  0
 19 21  1  0
 21 22  1  0
 22 23  1  0
 23 24  1  0
 25 24  1  1
 25 26  1  0
 25 27  1  0
 26 15  1  0
 27 28  1  0
 29 27  2  0
M  END
$$$$
