CEM.pdb
     RDKit          3D

 24 23  0  0  1  0  0  0  0  0999 V2000
   16.6170  -12.3236  -15.7485 N   0  0  0  0  0  0  0  0  0  0  0  0
   17.9800  -12.4589  -16.2097 C   0  0  1  0  0  0  0  0  0  0  0  0
   18.0643  -13.3995  -17.3988 C   0  0  0  0  0  0  0  0  0  0  0  0
   17.5674  -15.0413  -16.8299 S   0  0  0  0  0  0  0  0  0  0  0  0
   18.4803  -11.1114  -16.5929 C   0  0  0  0  0  0  0  0  0  0  0  0
   19.6654  -11.0256  -16.9906 O   0  0  0  0  0  0  0  0  0  0  0  0
   17.6367   -9.9575  -16.5095 N   0  0  0  0  0  0  0  0  0  0  0  0
   18.1751   -8.6071  -16.7845 C   0  0  1  0  0  0  0  0  0  0  0  0
   17.0207   -7.7512  -17.1527 C   0  0  0  0  0  0  0  0  0  0  0  0
   17.2527   -6.3029  -17.3305 C   0  0  0  0  0  0  0  0  0  0  0  0
   16.0654   -5.5087  -17.7119 C   0  0  0  0  0  0  0  0  0  0  0  0
   14.9972   -5.6320  -17.0781 O   0  0  0  0  0  0  0  0  0  0  0  0
   18.9648   -8.1874  -15.6230 C   0  0  0  0  0  0  0  0  0  0  0  0
   18.4863   -8.3737  -14.4429 O   0  0  0  0  0  0  0  0  0  0  0  0
   16.1071   -4.6182  -18.7691 O   0  0  0  0  0  0  0  0  0  0  0  0
   24.5786  -11.2238  -15.0763 C   0  0  0  0  0  0  0  0  0  0  0  0
   23.5267  -10.3066  -13.9383 S   0  0  0  0  0  0  0  0  0  0  0  0
   22.6241   -8.9760  -14.7187 C   0  0  0  0  0  0  0  0  0  0  0  0
   21.6756   -8.2795  -13.7667 C   0  0  0  0  0  0  0  0  0  0  0  0
   20.9188   -7.1724  -14.4194 C   0  0  2  0  0  0  0  0  0  0  0  0
   20.2372   -7.5818  -15.6308 N   0  0  0  0  0  0  0  0  0  0  0  0
   21.8929   -6.0782  -14.7409 C   0  0  0  0  0  0  0  0  0  0  0  0
   22.0732   -5.7593  -15.9366 O   0  0  0  0  0  0  0  0  0  0  0  0
   22.5995   -5.4098  -13.7494 O   0  0  0  0  0  0  0  0  0  0  0  0
  2  1  1  6
  2  5  1  0
  3  2  1  0
  4  3  1  0
  5  6  2  0
  7  5  1  0
  7  8  1  0
  8  9  1  1
 10  9  1  0
 10 11  1  0
 11 15  1  0
 11 12  2  0
 13  8  1  0
 13 21  1  0
 14 13  2  0
 16 17  1  0
 18 17  1  0
 19 18  1  0
 20 21  1  0
 20 19  1  6
 22 24  1  0
 22 20  1  0
 23 22  2  0
M  END
$$$$
