CEM.pdb
     RDKit          3D

 24 23  0  0  1  0  0  0  0  0999 V2000
   28.1649  -21.2551  -18.3113 N   0  0  0  0  0  0  0  0  0  0  0  0
   27.3334  -21.7042  -17.2178 C   0  0  1  0  0  0  0  0  0  0  0  0
   28.1323  -21.8101  -15.9309 C   0  0  0  0  0  0  0  0  0  0  0  0
   27.0234  -22.4451  -14.6530 S   0  0  0  0  0  0  0  0  0  0  0  0
   26.2212  -20.7315  -17.0455 C   0  0  0  0  0  0  0  0  0  0  0  0
   26.4204  -19.5523  -17.4195 O   0  0  0  0  0  0  0  0  0  0  0  0
   24.9709  -21.1309  -16.4734 N   0  0  0  0  0  0  0  0  0  0  0  0
   23.8328  -20.1873  -16.4125 C   0  0  1  0  0  0  0  0  0  0  0  0
   23.3762  -19.9745  -17.8079 C   0  0  0  0  0  0  0  0  0  0  0  0
   22.1963  -19.1145  -18.0340 C   0  0  0  0  0  0  0  0  0  0  0  0
   22.2886  -17.7464  -17.4811 C   0  0  0  0  0  0  0  0  0  0  0  0
   21.2614  -17.1587  -17.0843 O   0  0  0  0  0  0  0  0  0  0  0  0
   22.8473  -20.7242  -15.4695 C   0  0  0  0  0  0  0  0  0  0  0  0
   22.4906  -21.9563  -15.5740 O   0  0  0  0  0  0  0  0  0  0  0  0
   23.5021  -17.0895  -17.3903 O   0  0  0  0  0  0  0  0  0  0  0  0
   21.6570  -19.4990   -8.9285 C   0  0  0  0  0  0  0  0  0  0  0  0
   20.0494  -19.7854   -9.6878 S   0  0  0  0  0  0  0  0  0  0  0  0
   20.1472  -20.5985  -11.2764 C   0  0  0  0  0  0  0  0  0  0  0  0
   21.1595  -19.9538  -12.1987 C   0  0  0  0  0  0  0  0  0  0  0  0
   21.3041  -20.6840  -13.4911 C   0  0  2  0  0  0  0  0  0  0  0  0
   22.2133  -20.0367  -14.4153 N   0  0  0  0  0  0  0  0  0  0  0  0
   19.9446  -20.7834  -14.1163 C   0  0  0  0  0  0  0  0  0  0  0  0
   19.5298  -19.8355  -14.8188 O   0  0  0  0  0  0  0  0  0  0  0  0
   19.1341  -21.8971  -13.9376 O   0  0  0  0  0  0  0  0  0  0  0  0
  2  1  1  6
  2  5  1  0
  3  2  1  0
  4  3  1  0
  5  6  2  0
  7  5  1  0
  7  8  1  0
  8  9  1  6
 10  9  1  0
 10 11  1  0
 11 15  1  0
 11 12  2  0
 13  8  1  0
 13 21  1  0
 14 13  2  0
 16 17  1  0
 18 17  1  0
 19 18  1  0
 20 21  1  0
 20 19  1  1
 22 24  1  0
 22 20  1  0
 23 22  2  0
M  END
$$$$
