CEM.pdb
     RDKit          3D

 24 23  0  0  1  0  0  0  0  0999 V2000
   17.2385  -11.8978    6.4431 N   0  0  0  0  0  0  0  0  0  0  0  0
   18.2535  -12.7676    5.8937 C   0  0  1  0  0  0  0  0  0  0  0  0
   19.6405  -12.3393    6.3391 C   0  0  0  0  0  0  0  0  0  0  0  0
   20.3916  -11.4237    4.9740 S   0  0  0  0  0  0  0  0  0  0  0  0
   17.9795  -14.1555    6.3536 C   0  0  0  0  0  0  0  0  0  0  0  0
   17.7683  -14.3289    7.5764 O   0  0  0  0  0  0  0  0  0  0  0  0
   17.9585  -15.2502    5.4310 N   0  0  0  0  0  0  0  0  0  0  0  0
   17.7108  -16.6305    5.9027 C   0  0  1  0  0  0  0  0  0  0  0  0
   17.0201  -17.3438    4.8004 C   0  0  0  0  0  0  0  0  0  0  0  0
   16.7636  -18.7904    4.9563 C   0  0  0  0  0  0  0  0  0  0  0  0
   16.0005  -19.4248    3.8602 C   0  0  0  0  0  0  0  0  0  0  0  0
   16.5425  -19.6310    2.7550 O   0  0  0  0  0  0  0  0  0  0  0  0
   18.9871  -17.1920    6.3554 C   0  0  0  0  0  0  0  0  0  0  0  0
   20.0711  -16.8372    5.7594 O   0  0  0  0  0  0  0  0  0  0  0  0
   14.6809  -19.8020    4.0293 O   0  0  0  0  0  0  0  0  0  0  0  0
   25.1232  -16.4899    9.8003 C   0  0  0  0  0  0  0  0  0  0  0  0
   23.3438  -16.4630   10.0763 S   0  0  0  0  0  0  0  0  0  0  0  0
   22.4801  -17.8120    9.2836 C   0  0  0  0  0  0  0  0  0  0  0  0
   21.1484  -17.3885    8.7020 C   0  0  0  0  0  0  0  0  0  0  0  0
   20.5081  -18.4651    7.8925 C   0  0  2  0  0  0  0  0  0  0  0  0
   19.1905  -18.1084    7.4064 N   0  0  0  0  0  0  0  0  0  0  0  0
   20.4074  -19.6885    8.7541 C   0  0  0  0  0  0  0  0  0  0  0  0
   21.2903  -20.5694    8.6613 O   0  0  0  0  0  0  0  0  0  0  0  0
   19.3628  -19.8706    9.6512 O   0  0  0  0  0  0  0  0  0  0  0  0
  2  1  1  1
  2  5  1  0
  3  2  1  0
  4  3  1  0
  5  6  2  0
  7  5  1  0
  7  8  1  0
  8  9  1  6
 10  9  1  0
 10 11  1  0
 11 15  1  0
 11 12  2  0
 13  8  1  0
 13 21  1  0
 14 13  2  0
 16 17  1  0
 18 17  1  0
 19 18  1  0
 20 21  1  0
 20 19  1  1
 22 24  1  0
 22 20  1  0
 23 22  2  0
M  END
$$$$
