CEM.pdb
     RDKit          3D

 24 23  0  0  1  0  0  0  0  0999 V2000
   16.3384  -12.4536  -11.6779 N   0  0  0  0  0  0  0  0  0  0  0  0
   15.5199  -11.2651  -11.7578 C   0  0  1  0  0  0  0  0  0  0  0  0
   14.1662  -11.4886  -11.1072 C   0  0  0  0  0  0  0  0  0  0  0  0
   13.2989  -12.7452  -12.0738 S   0  0  0  0  0  0  0  0  0  0  0  0
   16.2358  -10.1568  -11.0707 C   0  0  0  0  0  0  0  0  0  0  0  0
   16.7841  -10.4142   -9.9738 O   0  0  0  0  0  0  0  0  0  0  0  0
   16.2944   -8.8461  -11.6439 N   0  0  0  0  0  0  0  0  0  0  0  0
   16.9923   -7.7459  -10.9427 C   0  0  1  0  0  0  0  0  0  0  0  0
   17.9998   -7.2050  -11.8878 C   0  0  0  0  0  0  0  0  0  0  0  0
   19.3690   -7.7584  -11.8426 C   0  0  0  0  0  0  0  0  0  0  0  0
   20.3127   -7.2085  -12.8391 C   0  0  0  0  0  0  0  0  0  0  0  0
   21.4600   -6.8604  -12.4922 O   0  0  0  0  0  0  0  0  0  0  0  0
   15.9802   -6.8081  -10.4478 C   0  0  0  0  0  0  0  0  0  0  0  0
   14.9853   -6.5063  -11.2063 O   0  0  0  0  0  0  0  0  0  0  0  0
   19.9526   -7.0670  -14.1667 O   0  0  0  0  0  0  0  0  0  0  0  0
   11.9986   -3.0187   -4.7076 C   0  0  0  0  0  0  0  0  0  0  0  0
   13.1864   -4.2739   -5.2141 S   0  0  0  0  0  0  0  0  0  0  0  0
   13.5630   -4.2339   -6.9608 C   0  0  0  0  0  0  0  0  0  0  0  0
   14.5670   -5.2924   -7.3640 C   0  0  0  0  0  0  0  0  0  0  0  0
   14.9146   -5.2304   -8.8130 C   0  0  2  0  0  0  0  0  0  0  0  0
   15.9526   -6.1674   -9.1930 N   0  0  0  0  0  0  0  0  0  0  0  0
   15.3683   -3.8336   -9.1165 C   0  0  0  0  0  0  0  0  0  0  0  0
   16.5934   -3.5824   -9.1235 O   0  0  0  0  0  0  0  0  0  0  0  0
   14.4675   -2.8122   -9.3897 O   0  0  0  0  0  0  0  0  0  0  0  0
  2  1  1  1
  2  5  1  0
  3  2  1  0
  4  3  1  0
  5  6  2  0
  7  5  1  0
  7  8  1  0
  8  9  1  6
 10  9  1  0
 10 11  1  0
 11 15  1  0
 11 12  2  0
 13  8  1  0
 13 21  1  0
 14 13  2  0
 16 17  1  0
 18 17  1  0
 19 18  1  0
 20 21  1  0
 20 19  1  1
 22 24  1  0
 22 20  1  0
 23 22  2  0
M  END
$$$$
