CEM.pdb
     RDKit          3D

 24 23  0  0  1  0  0  0  0  0999 V2000
   17.8545  -10.4903  -20.2897 N   0  0  0  0  0  0  0  0  0  0  0  0
   17.5901  -10.0419  -18.9415 C   0  0  1  0  0  0  0  0  0  0  0  0
   17.8383  -11.1531  -17.9369 C   0  0  0  0  0  0  0  0  0  0  0  0
   16.4944  -12.3495  -18.1060 S   0  0  0  0  0  0  0  0  0  0  0  0
   18.4804   -8.8865  -18.6495 C   0  0  0  0  0  0  0  0  0  0  0  0
   19.6376   -8.9117  -19.1294 O   0  0  0  0  0  0  0  0  0  0  0  0
   18.0290   -7.7879  -17.8498 N   0  0  0  0  0  0  0  0  0  0  0  0
   18.8997   -6.6141  -17.6189 C   0  0  1  0  0  0  0  0  0  0  0  0
   18.0096   -5.4833  -17.2588 C   0  0  0  0  0  0  0  0  0  0  0  0
   18.6306   -4.1924  -16.8971 C   0  0  0  0  0  0  0  0  0  0  0  0
   18.7107   -3.1955  -17.9860 C   0  0  0  0  0  0  0  0  0  0  0  0
   19.8208   -2.7777  -18.3747 O   0  0  0  0  0  0  0  0  0  0  0  0
   19.9195   -6.9911  -16.6357 C   0  0  0  0  0  0  0  0  0  0  0  0
   19.5675   -7.6704  -15.6009 O   0  0  0  0  0  0  0  0  0  0  0  0
   17.5702   -2.7055  -18.5956 O   0  0  0  0  0  0  0  0  0  0  0  0
   27.0648   -9.5671  -14.6438 C   0  0  0  0  0  0  0  0  0  0  0  0
   25.8987   -8.9781  -15.8832 S   0  0  0  0  0  0  0  0  0  0  0  0
   24.4129   -8.2726  -15.1841 C   0  0  0  0  0  0  0  0  0  0  0  0
   23.4021   -7.8806  -16.2404 C   0  0  0  0  0  0  0  0  0  0  0  0
   22.2303   -7.1546  -15.6710 C   0  0  2  0  0  0  0  0  0  0  0  0
   21.2966   -6.6953  -16.6795 N   0  0  0  0  0  0  0  0  0  0  0  0
   22.7502   -5.9779  -14.9001 C   0  0  0  0  0  0  0  0  0  0  0  0
   22.8786   -4.8795  -15.4843 O   0  0  0  0  0  0  0  0  0  0  0  0
   23.0926   -6.0733  -13.5574 O   0  0  0  0  0  0  0  0  0  0  0  0
  2  1  1  6
  2  5  1  0
  3  2  1  0
  4  3  1  0
  5  6  2  0
  7  5  1  0
  7  8  1  0
  8  9  1  1
 10  9  1  0
 10 11  1  0
 11 15  1  0
 11 12  2  0
 13  8  1  0
 13 21  1  0
 14 13  2  0
 16 17  1  0
 18 17  1  0
 19 18  1  0
 20 21  1  0
 20 19  1  6
 22 24  1  0
 22 20  1  0
 23 22  2  0
M  END
$$$$
