CEM.pdb
     RDKit          3D

 24 23  0  0  1  0  0  0  0  0999 V2000
   19.5037  -14.0769  -18.4283 N   0  0  0  0  0  0  0  0  0  0  0  0
   18.7916  -12.8469  -18.6907 C   0  0  1  0  0  0  0  0  0  0  0  0
   17.5252  -12.7596  -17.8575 C   0  0  0  0  0  0  0  0  0  0  0  0
   18.0136  -12.8121  -16.1183 S   0  0  0  0  0  0  0  0  0  0  0  0
   19.6911  -11.7073  -18.3668 C   0  0  0  0  0  0  0  0  0  0  0  0
   20.7459  -11.9623  -17.7404 O   0  0  0  0  0  0  0  0  0  0  0  0
   19.3612  -10.3699  -18.7576 N   0  0  0  0  0  0  0  0  0  0  0  0
   20.3036   -9.2566  -18.5096 C   0  0  1  0  0  0  0  0  0  0  0  0
   19.9903   -8.1994  -19.5021 C   0  0  0  0  0  0  0  0  0  0  0  0
   20.5160   -8.3509  -20.8745 C   0  0  0  0  0  0  0  0  0  0  0  0
   20.2226   -7.2335  -21.7971 C   0  0  0  0  0  0  0  0  0  0  0  0
   20.3911   -7.3729  -23.0260 O   0  0  0  0  0  0  0  0  0  0  0  0
   20.2056   -8.8847  -17.0951 C   0  0  0  0  0  0  0  0  0  0  0  0
   19.0878   -9.0566  -16.4808 O   0  0  0  0  0  0  0  0  0  0  0  0
   19.7590   -6.0182  -21.3277 O   0  0  0  0  0  0  0  0  0  0  0  0
   22.0108  -11.4820  -11.6429 C   0  0  0  0  0  0  0  0  0  0  0  0
   22.4901   -9.7578  -11.4425 S   0  0  0  0  0  0  0  0  0  0  0  0
   21.5966   -8.6413  -12.5146 C   0  0  0  0  0  0  0  0  0  0  0  0
   21.8621   -8.9056  -13.9811 C   0  0  0  0  0  0  0  0  0  0  0  0
   21.0314   -8.0504  -14.8772 C   0  0  2  0  0  0  0  0  0  0  0  0
   21.2219   -8.3416  -16.2838 N   0  0  0  0  0  0  0  0  0  0  0  0
   21.3936   -6.6196  -14.6107 C   0  0  0  0  0  0  0  0  0  0  0  0
   22.0745   -5.9992  -15.4565 O   0  0  0  0  0  0  0  0  0  0  0  0
   20.9945   -5.9648  -13.4526 O   0  0  0  0  0  0  0  0  0  0  0  0
  2  1  1  1
  2  5  1  0
  3  2  1  0
  4  3  1  0
  5  6  2  0
  7  5  1  0
  7  8  1  0
  8  9  1  6
 10  9  1  0
 10 11  1  0
 11 15  1  0
 11 12  2  0
 13  8  1  0
 13 21  1  0
 14 13  2  0
 16 17  1  0
 18 17  1  0
 19 18  1  0
 20 21  1  0
 20 19  1  1
 22 24  1  0
 22 20  1  0
 23 22  2  0
M  END
$$$$
