CEM.pdb
     RDKit          3D

 24 23  0  0  1  0  0  0  0  0999 V2000
   19.8447  -13.1079  -19.9365 N   0  0  0  0  0  0  0  0  0  0  0  0
   18.9139  -12.2756  -19.2089 C   0  0  1  0  0  0  0  0  0  0  0  0
   18.3177  -13.0235  -18.0295 C   0  0  0  0  0  0  0  0  0  0  0  0
   17.1853  -14.2672  -18.6903 S   0  0  0  0  0  0  0  0  0  0  0  0
   19.6406  -11.0695  -18.7293 C   0  0  0  0  0  0  0  0  0  0  0  0
   20.7527  -11.2445  -18.1791 O   0  0  0  0  0  0  0  0  0  0  0  0
   19.0876   -9.7589  -18.8919 N   0  0  0  0  0  0  0  0  0  0  0  0
   19.8596   -8.5595  -18.4986 C   0  0  1  0  0  0  0  0  0  0  0  0
   19.3059   -7.4200  -19.2706 C   0  0  0  0  0  0  0  0  0  0  0  0
   19.8148   -6.0642  -18.9780 C   0  0  0  0  0  0  0  0  0  0  0  0
   21.1015   -5.7141  -19.6166 C   0  0  0  0  0  0  0  0  0  0  0  0
   21.4164   -6.2198  -20.7135 O   0  0  0  0  0  0  0  0  0  0  0  0
   19.8169   -8.4504  -17.0374 C   0  0  0  0  0  0  0  0  0  0  0  0
   18.7446   -8.7988  -16.4169 O   0  0  0  0  0  0  0  0  0  0  0  0
   21.9800   -4.8271  -19.0218 O   0  0  0  0  0  0  0  0  0  0  0  0
   22.5950   -9.3567   -9.8014 C   0  0  0  0  0  0  0  0  0  0  0  0
   22.6856   -9.5855  -11.5853 S   0  0  0  0  0  0  0  0  0  0  0  0
   21.5624   -8.5350  -12.4956 C   0  0  0  0  0  0  0  0  0  0  0  0
   21.6495   -8.7482  -13.9917 C   0  0  0  0  0  0  0  0  0  0  0  0
   20.6857   -7.8984  -14.7488 C   0  0  2  0  0  0  0  0  0  0  0  0
   20.8437   -7.9958  -16.1859 N   0  0  0  0  0  0  0  0  0  0  0  0
   20.8926   -6.4763  -14.3197 C   0  0  0  0  0  0  0  0  0  0  0  0
   21.6036   -5.7277  -15.0255 O   0  0  0  0  0  0  0  0  0  0  0  0
   20.3177   -5.9678  -13.1621 O   0  0  0  0  0  0  0  0  0  0  0  0
  2  1  1  1
  2  5  1  0
  3  2  1  0
  4  3  1  0
  5  6  2  0
  7  5  1  0
  7  8  1  0
  8  9  1  6
 10  9  1  0
 10 11  1  0
 11 15  1  0
 11 12  2  0
 13  8  1  0
 13 21  1  0
 14 13  2  0
 16 17  1  0
 18 17  1  0
 19 18  1  0
 20 21  1  0
 20 19  1  1
 22 24  1  0
 22 20  1  0
 23 22  2  0
M  END
$$$$
