CEM.pdb
     RDKit          3D

 24 23  0  0  1  0  0  0  0  0999 V2000
   15.8446  -11.7262  -15.3470 N   0  0  0  0  0  0  0  0  0  0  0  0
   15.4093  -10.3978  -14.9801 C   0  0  1  0  0  0  0  0  0  0  0  0
   13.9170  -10.3689  -14.7008 C   0  0  0  0  0  0  0  0  0  0  0  0
   13.0699  -10.1938  -16.2875 S   0  0  0  0  0  0  0  0  0  0  0  0
   16.1603   -9.9776  -13.7668 C   0  0  0  0  0  0  0  0  0  0  0  0
   16.0118  -10.6625  -12.7281 O   0  0  0  0  0  0  0  0  0  0  0  0
   17.0201   -8.8329  -13.7882 N   0  0  0  0  0  0  0  0  0  0  0  0
   17.7580   -8.4201  -12.5740 C   0  0  1  0  0  0  0  0  0  0  0  0
   19.0764   -7.9108  -13.0249 C   0  0  0  0  0  0  0  0  0  0  0  0
   20.0533   -8.8797  -13.5633 C   0  0  0  0  0  0  0  0  0  0  0  0
   21.3086   -8.2976  -14.0842 C   0  0  0  0  0  0  0  0  0  0  0  0
   21.2745   -7.3033  -14.8379 O   0  0  0  0  0  0  0  0  0  0  0  0
   16.9118   -7.4883  -11.8227 C   0  0  0  0  0  0  0  0  0  0  0  0
   16.1629   -6.6655  -12.4694 O   0  0  0  0  0  0  0  0  0  0  0  0
   22.5396   -8.8338  -13.7536 O   0  0  0  0  0  0  0  0  0  0  0  0
   11.4415   -5.4973   -6.7597 C   0  0  0  0  0  0  0  0  0  0  0  0
   12.4633   -6.6944   -7.6348 S   0  0  0  0  0  0  0  0  0  0  0  0
   13.9100   -5.9730   -8.3971 C   0  0  0  0  0  0  0  0  0  0  0  0
   14.7949   -7.0067   -9.0602 C   0  0  0  0  0  0  0  0  0  0  0  0
   15.9507   -6.3959   -9.7781 C   0  0  2  0  0  0  0  0  0  0  0  0
   16.8051   -7.3731  -10.4222 N   0  0  0  0  0  0  0  0  0  0  0  0
   16.7512   -5.6155   -8.7784 C   0  0  0  0  0  0  0  0  0  0  0  0
   17.8450   -6.0769   -8.3849 O   0  0  0  0  0  0  0  0  0  0  0  0
   16.3127   -4.3964   -8.2778 O   0  0  0  0  0  0  0  0  0  0  0  0
  2  1  1  1
  2  5  1  0
  3  2  1  0
  4  3  1  0
  5  6  2  0
  7  5  1  0
  7  8  1  0
  8  9  1  6
 10  9  1  0
 10 11  1  0
 11 15  1  0
 11 12  2  0
 13  8  1  0
 13 21  1  0
 14 13  2  0
 16 17  1  0
 18 17  1  0
 19 18  1  0
 20 21  1  0
 20 19  1  1
 22 24  1  0
 22 20  1  0
 23 22  2  0
M  END
$$$$
