CEM.pdb
     RDKit          3D

 24 23  0  0  1  0  0  0  0  0999 V2000
   17.4447  -12.2750  -13.6141 N   0  0  0  0  0  0  0  0  0  0  0  0
   17.3219  -10.9042  -14.0553 C   0  0  1  0  0  0  0  0  0  0  0  0
   15.8950  -10.5880  -14.4673 C   0  0  0  0  0  0  0  0  0  0  0  0
   15.5211  -11.5748  -15.9344 S   0  0  0  0  0  0  0  0  0  0  0  0
   17.7360  -10.0140  -12.9379 C   0  0  0  0  0  0  0  0  0  0  0  0
   17.4532  -10.3779  -11.7727 O   0  0  0  0  0  0  0  0  0  0  0  0
   18.4317   -8.7877  -13.1876 N   0  0  0  0  0  0  0  0  0  0  0  0
   18.8378   -7.9088  -12.0687 C   0  0  1  0  0  0  0  0  0  0  0  0
   19.8897   -7.0037  -12.5935 C   0  0  0  0  0  0  0  0  0  0  0  0
   20.3820   -5.9214  -11.7166 C   0  0  0  0  0  0  0  0  0  0  0  0
   21.4646   -5.0865  -12.2798 C   0  0  0  0  0  0  0  0  0  0  0  0
   22.6448   -5.4924  -12.2617 O   0  0  0  0  0  0  0  0  0  0  0  0
   17.6317   -7.2758  -11.5271 C   0  0  0  0  0  0  0  0  0  0  0  0
   16.7223   -6.8674  -12.3410 O   0  0  0  0  0  0  0  0  0  0  0  0
   21.2006   -3.8479  -12.8351 O   0  0  0  0  0  0  0  0  0  0  0  0
   11.7118   -6.6710   -6.4257 C   0  0  0  0  0  0  0  0  0  0  0  0
   13.2896   -7.3955   -6.9039 S   0  0  0  0  0  0  0  0  0  0  0  0
   14.1373   -6.4761   -8.1807 C   0  0  0  0  0  0  0  0  0  0  0  0
   15.4399   -7.1247   -8.5975 C   0  0  0  0  0  0  0  0  0  0  0  0
   16.0903   -6.4215   -9.7406 C   0  0  2  0  0  0  0  0  0  0  0  0
   17.3238   -7.0485  -10.1708 N   0  0  0  0  0  0  0  0  0  0  0  0
   16.3704   -5.0118   -9.3124 C   0  0  0  0  0  0  0  0  0  0  0  0
   17.5533   -4.6675   -9.0973 O   0  0  0  0  0  0  0  0  0  0  0  0
   15.3546   -4.0788   -9.1483 O   0  0  0  0  0  0  0  0  0  0  0  0
  2  1  1  1
  2  5  1  0
  3  2  1  0
  4  3  1  0
  5  6  2  0
  7  5  1  0
  7  8  1  0
  8  9  1  6
 10  9  1  0
 10 11  1  0
 11 15  1  0
 11 12  2  0
 13  8  1  0
 13 21  1  0
 14 13  2  0
 16 17  1  0
 18 17  1  0
 19 18  1  0
 20 21  1  0
 20 19  1  1
 22 24  1  0
 22 20  1  0
 23 22  2  0
M  END
$$$$
