CEM.pdb
     RDKit          3D

 24 23  0  0  1  0  0  0  0  0999 V2000
   14.4669   -9.9117  -10.3378 N   0  0  0  0  0  0  0  0  0  0  0  0
   14.4415   -8.4719  -10.4595 C   0  0  1  0  0  0  0  0  0  0  0  0
   14.6593   -7.8052   -9.1127 C   0  0  0  0  0  0  0  0  0  0  0  0
   14.8949   -9.1144   -7.8894 S   0  0  0  0  0  0  0  0  0  0  0  0
   15.5132   -8.0632  -11.4066 C   0  0  0  0  0  0  0  0  0  0  0  0
   16.0307   -8.9573  -12.1159 O   0  0  0  0  0  0  0  0  0  0  0  0
   15.9355   -6.6985  -11.5022 N   0  0  0  0  0  0  0  0  0  0  0  0
   16.7633   -6.2422  -12.6406 C   0  0  1  0  0  0  0  0  0  0  0  0
   16.1868   -4.9556  -13.1024 C   0  0  0  0  0  0  0  0  0  0  0  0
   16.8342   -4.2670  -14.2380 C   0  0  0  0  0  0  0  0  0  0  0  0
   16.1808   -3.0176  -14.6830 C   0  0  0  0  0  0  0  0  0  0  0  0
   14.9364   -2.9501  -14.7529 O   0  0  0  0  0  0  0  0  0  0  0  0
   18.1628   -6.2205  -12.2049 C   0  0  0  0  0  0  0  0  0  0  0  0
   18.4868   -6.8257  -11.1164 O   0  0  0  0  0  0  0  0  0  0  0  0
   16.9231   -1.9036  -15.0295 O   0  0  0  0  0  0  0  0  0  0  0  0
   24.0127  -10.3296  -13.6328 C   0  0  0  0  0  0  0  0  0  0  0  0
   22.3482   -9.6667  -13.8135 S   0  0  0  0  0  0  0  0  0  0  0  0
   22.1519   -8.0347  -13.1118 C   0  0  0  0  0  0  0  0  0  0  0  0
   20.7426   -7.5029  -13.2607 C   0  0  0  0  0  0  0  0  0  0  0  0
   20.6044   -6.1007  -12.7718 C   0  0  2  0  0  0  0  0  0  0  0  0
   19.2480   -5.5975  -12.8531 N   0  0  0  0  0  0  0  0  0  0  0  0
   21.5077   -5.2354  -13.5992 C   0  0  0  0  0  0  0  0  0  0  0  0
   21.0504   -4.6921  -14.6287 O   0  0  0  0  0  0  0  0  0  0  0  0
   22.8360   -5.0205  -13.2549 O   0  0  0  0  0  0  0  0  0  0  0  0
  2  1  1  1
  2  5  1  0
  3  2  1  0
  4  3  1  0
  5  6  2  0
  7  5  1  0
  7  8  1  0
  8  9  1  1
 10  9  1  0
 10 11  1  0
 11 15  1  0
 11 12  2  0
 13  8  1  0
 13 21  1  0
 14 13  2  0
 16 17  1  0
 18 17  1  0
 19 18  1  0
 20 21  1  0
 20 19  1  6
 22 24  1  0
 22 20  1  0
 23 22  2  0
M  END
$$$$
