CEM.pdb
     RDKit          3D

 24 23  0  0  1  0  0  0  0  0999 V2000
   28.1339  -20.8269  -15.3720 N   0  0  0  0  0  0  0  0  0  0  0  0
   27.1246  -20.5018  -14.3901 C   0  0  1  0  0  0  0  0  0  0  0  0
   27.2354  -19.0524  -13.9510 C   0  0  0  0  0  0  0  0  0  0  0  0
   28.8213  -18.8597  -13.1062 S   0  0  0  0  0  0  0  0  0  0  0  0
   25.7876  -20.7476  -14.9941 C   0  0  0  0  0  0  0  0  0  0  0  0
   25.6286  -20.4316  -16.1961 O   0  0  0  0  0  0  0  0  0  0  0  0
   24.7242  -21.3241  -14.2281 N   0  0  0  0  0  0  0  0  0  0  0  0
   23.4511  -21.7109  -14.8753 C   0  0  1  0  0  0  0  0  0  0  0  0
   23.0395  -23.0037  -14.2752 C   0  0  0  0  0  0  0  0  0  0  0  0
   23.7303  -24.2320  -14.7191 C   0  0  0  0  0  0  0  0  0  0  0  0
   23.1977  -25.4973  -14.1703 C   0  0  0  0  0  0  0  0  0  0  0  0
   22.2168  -25.4836  -13.3986 O   0  0  0  0  0  0  0  0  0  0  0  0
   22.5141  -20.5917  -14.7399 C   0  0  0  0  0  0  0  0  0  0  0  0
   22.5116  -19.9085  -13.6493 O   0  0  0  0  0  0  0  0  0  0  0  0
   23.7664  -26.7155  -14.4940 O   0  0  0  0  0  0  0  0  0  0  0  0
   19.2270  -14.1479  -15.2228 C   0  0  0  0  0  0  0  0  0  0  0  0
   20.4197  -15.4756  -15.4630 S   0  0  0  0  0  0  0  0  0  0  0  0
   19.7550  -16.8778  -16.3497 C   0  0  0  0  0  0  0  0  0  0  0  0
   20.7714  -17.9840  -16.5354 C   0  0  0  0  0  0  0  0  0  0  0  0
   20.6997  -19.0147  -15.4599 C   0  0  2  0  0  0  0  0  0  0  0  0
   21.5756  -20.1454  -15.6919 N   0  0  0  0  0  0  0  0  0  0  0  0
   19.2805  -19.4923  -15.3763 C   0  0  0  0  0  0  0  0  0  0  0  0
   18.9029  -20.4072  -16.1408 O   0  0  0  0  0  0  0  0  0  0  0  0
   18.3747  -18.9481  -14.4748 O   0  0  0  0  0  0  0  0  0  0  0  0
  2  1  1  6
  2  5  1  0
  3  2  1  0
  4  3  1  0
  5  6  2  0
  7  5  1  0
  7  8  1  0
  8  9  1  1
 10  9  1  0
 10 11  1  0
 11 15  1  0
 11 12  2  0
 13  8  1  0
 13 21  1  0
 14 13  2  0
 16 17  1  0
 18 17  1  0
 19 18  1  0
 20 21  1  0
 20 19  1  6
 22 24  1  0
 22 20  1  0
 23 22  2  0
M  END
$$$$
