CEM.pdb
     RDKit          3D

 24 23  0  0  1  0  0  0  0  0999 V2000
   13.1034  -10.1972   -9.2960 N   0  0  0  0  0  0  0  0  0  0  0  0
   14.5112  -10.2404   -9.6199 C   0  0  1  0  0  0  0  0  0  0  0  0
   14.8250  -11.4055  -10.5417 C   0  0  0  0  0  0  0  0  0  0  0  0
   16.6200  -11.4747  -10.7393 S   0  0  0  0  0  0  0  0  0  0  0  0
   14.8792   -8.9589  -10.2795 C   0  0  0  0  0  0  0  0  0  0  0  0
   14.0603   -8.4702  -11.0922 O   0  0  0  0  0  0  0  0  0  0  0  0
   16.1234   -8.3103   -9.9941 N   0  0  0  0  0  0  0  0  0  0  0  0
   16.4672   -7.0214  -10.6344 C   0  0  1  0  0  0  0  0  0  0  0  0
   16.0409   -5.9506   -9.7004 C   0  0  0  0  0  0  0  0  0  0  0  0
   16.3749   -4.5522  -10.0406 C   0  0  0  0  0  0  0  0  0  0  0  0
   16.0438   -3.5476   -9.0076 C   0  0  0  0  0  0  0  0  0  0  0  0
   15.3522   -3.8678   -8.0191 O   0  0  0  0  0  0  0  0  0  0  0  0
   17.8879   -7.0573  -10.9940 C   0  0  0  0  0  0  0  0  0  0  0  0
   18.7517   -7.3711  -10.0932 O   0  0  0  0  0  0  0  0  0  0  0  0
   16.4867   -2.2415   -9.1086 O   0  0  0  0  0  0  0  0  0  0  0  0
   23.1988  -10.3156  -13.8570 C   0  0  0  0  0  0  0  0  0  0  0  0
   22.5905   -8.9121  -12.9068 S   0  0  0  0  0  0  0  0  0  0  0  0
   21.7585   -7.6843  -13.9039 C   0  0  0  0  0  0  0  0  0  0  0  0
   20.2638   -7.6577  -13.6671 C   0  0  0  0  0  0  0  0  0  0  0  0
   19.8840   -6.8165  -12.4956 C   0  0  2  0  0  0  0  0  0  0  0  0
   18.4555   -6.7831  -12.2543 N   0  0  0  0  0  0  0  0  0  0  0  0
   20.3792   -5.4241  -12.7509 C   0  0  0  0  0  0  0  0  0  0  0  0
   19.5688   -4.5543  -13.1392 O   0  0  0  0  0  0  0  0  0  0  0  0
   21.7107   -5.0736  -12.5685 O   0  0  0  0  0  0  0  0  0  0  0  0
  2  1  1  6
  2  5  1  0
  3  2  1  0
  4  3  1  0
  5  6  2  0
  7  5  1  0
  7  8  1  0
  8  9  1  1
 10  9  1  0
 10 11  1  0
 11 15  1  0
 11 12  2  0
 13  8  1  0
 13 21  1  0
 14 13  2  0
 16 17  1  0
 18 17  1  0
 19 18  1  0
 20 21  1  0
 20 19  1  6
 22 24  1  0
 22 20  1  0
 23 22  2  0
M  END
$$$$
