PND.pdb
     RDKit          3D

 24 24  0  0  1  0  0  0  0  0999 V2000
    8.0386  -14.9592   18.8103 N   0  0  0  0  0  0  0  0  0  0  0  0
    7.2909  -14.1940   17.8471 C   0  0  0  0  0  0  0  0  0  0  0  0
    6.9568  -12.8853   18.5321 C   0  0  0  0  0  0  0  0  0  0  0  0
    8.1609  -12.6704   19.4088 C   0  0  0  0  0  0  0  0  0  0  0  0
    8.8376  -14.0127   19.5859 C   0  0  1  0  0  0  0  0  0  0  0  0
    8.8838  -14.4677   20.9825 C   0  0  0  0  0  0  0  0  0  0  0  0
    9.4553  -13.7807   21.8741 O   0  0  0  0  0  0  0  0  0  0  0  0
    6.2990  -18.1719   25.0151 N   0  0  0  0  0  0  0  0  0  0  0  0
    6.8944  -16.9045   24.6674 C   0  0  0  0  0  0  0  0  0  0  0  0
    7.3398  -16.1810   25.6185 O   0  0  0  0  0  0  0  0  0  0  0  0
    6.9653  -16.4972   23.2459 C   0  0  0  0  0  0  0  0  0  0  0  0
    8.3775  -16.1235   22.8091 C   0  0  2  0  0  0  0  0  0  0  0  0
    8.2981  -15.6952   21.4305 N   0  0  0  0  0  0  0  0  0  0  0  0
    9.2347  -17.3105   22.9838 C   0  0  0  0  0  0  0  0  0  0  0  0
    8.7895  -18.4210   22.5790 O   0  0  0  0  0  0  0  0  0  0  0  0
   10.5126  -17.2849   23.5700 N   0  0  0  0  0  0  0  0  0  0  0  0
   11.3036  -18.4865   23.8786 C   0  0  1  0  0  0  0  0  0  0  0  0
   12.7445  -18.2529   23.4809 C   0  0  0  0  0  0  0  0  0  0  0  0
   12.8616  -17.0029   22.7256 C   0  0  0  0  0  0  0  0  0  0  0  0
   13.2206  -15.9435   23.2785 O   0  0  0  0  0  0  0  0  0  0  0  0
   11.2519  -18.6006   25.3560 C   0  0  0  0  0  0  0  0  0  0  0  0
   10.6942  -17.7797   26.1140 O   0  0  0  0  0  0  0  0  0  0  0  0
   12.5833  -16.9145   21.3549 O   0  0  0  0  0  0  0  0  0  0  0  0
   11.8545  -19.6856   26.0007 O   0  0  0  0  0  0  0  0  0  0  0  0
  1  5  1  0
  1  2  1  0
  2  3  1  0
  4  3  1  0
  5  4  1  0
  6  7  2  0
  5  6  1  1
  8  9  1  0
  9 10  2  0
 11  9  1  0
 12 11  1  6
 12 13  1  0
 13  6  1  0
 14 15  2  0
 14 12  1  0
 16 14  1  0
 17 16  1  0
 17 18  1  1
 19 18  1  0
 20 19  2  0
 21 24  1  0
 21 17  1  0
 22 21  2  0
 23 19  1  0
M  END
$$$$
