PND.pdb
     RDKit          3D

 24 24  0  0  1  0  0  0  0  0999 V2000
    7.9440  -15.0080   19.2156 N   0  0  0  0  0  0  0  0  0  0  0  0
    7.2395  -14.2485   18.2161 C   0  0  0  0  0  0  0  0  0  0  0  0
    6.9493  -12.9042   18.8504 C   0  0  0  0  0  0  0  0  0  0  0  0
    8.1500  -12.7062   19.7357 C   0  0  0  0  0  0  0  0  0  0  0  0
    8.7705  -14.0670   19.9687 C   0  0  1  0  0  0  0  0  0  0  0  0
    8.7811  -14.4738   21.3808 C   0  0  0  0  0  0  0  0  0  0  0  0
    9.4214  -13.8135   22.2454 O   0  0  0  0  0  0  0  0  0  0  0  0
    6.8637  -15.9765   26.0236 N   0  0  0  0  0  0  0  0  0  0  0  0
    6.5123  -16.9267   24.9965 C   0  0  0  0  0  0  0  0  0  0  0  0
    6.0611  -18.0596   25.3699 O   0  0  0  0  0  0  0  0  0  0  0  0
    6.6851  -16.5596   23.5727 C   0  0  0  0  0  0  0  0  0  0  0  0
    8.0542  -15.9552   23.2814 C   0  0  2  0  0  0  0  0  0  0  0  0
    8.0827  -15.6222   21.8747 N   0  0  0  0  0  0  0  0  0  0  0  0
    9.0769  -16.9524   23.6470 C   0  0  0  0  0  0  0  0  0  0  0  0
    9.0008  -18.0945   23.1129 O   0  0  0  0  0  0  0  0  0  0  0  0
   10.1286  -16.7138   24.5493 N   0  0  0  0  0  0  0  0  0  0  0  0
   11.1540  -17.7075   24.9037 C   0  0  1  0  0  0  0  0  0  0  0  0
   12.4880  -17.0131   25.0693 C   0  0  0  0  0  0  0  0  0  0  0  0
   13.0334  -16.6524   23.7581 C   0  0  0  0  0  0  0  0  0  0  0  0
   12.5797  -17.1517   22.7085 O   0  0  0  0  0  0  0  0  0  0  0  0
   10.7386  -18.2181   26.2323 C   0  0  0  0  0  0  0  0  0  0  0  0
    9.8094  -17.7433   26.9183 O   0  0  0  0  0  0  0  0  0  0  0  0
   14.0831  -15.7378   23.5974 O   0  0  0  0  0  0  0  0  0  0  0  0
   11.4000  -19.3083   26.8067 O   0  0  0  0  0  0  0  0  0  0  0  0
  1  5  1  0
  1  2  1  0
  2  3  1  0
  4  3  1  0
  5  4  1  0
  6  7  2  0
  5  6  1  1
  8  9  1  0
  9 10  2  0
 11  9  1  0
 12 11  1  6
 12 13  1  0
 13  6  1  0
 14 15  2  0
 14 12  1  0
 16 14  1  0
 17 16  1  0
 17 18  1  1
 19 18  1  0
 20 19  2  0
 21 24  1  0
 21 17  1  0
 22 21  2  0
 23 19  1  0
M  END
$$$$
