PND.pdb
     RDKit          3D

 24 24  0  0  1  0  0  0  0  0999 V2000
    7.9259  -15.1288   19.3502 N   0  0  0  0  0  0  0  0  0  0  0  0
    7.0503  -14.3836   18.4840 C   0  0  0  0  0  0  0  0  0  0  0  0
    7.3363  -12.9238   18.7680 C   0  0  0  0  0  0  0  0  0  0  0  0
    8.8067  -12.9456   19.0872 C   0  0  0  0  0  0  0  0  0  0  0  0
    9.1665  -14.3654   19.4688 C   0  0  1  0  0  0  0  0  0  0  0  0
    9.6702  -14.4947   20.8433 C   0  0  0  0  0  0  0  0  0  0  0  0
   10.7113  -13.8863   21.2167 O   0  0  0  0  0  0  0  0  0  0  0  0
    7.4134  -13.7633   23.1005 N   0  0  0  0  0  0  0  0  0  0  0  0
    7.3118  -14.9086   23.9721 C   0  0  0  0  0  0  0  0  0  0  0  0
    6.2155  -15.0756   24.6019 O   0  0  0  0  0  0  0  0  0  0  0  0
    8.4623  -15.8311   24.1018 C   0  0  0  0  0  0  0  0  0  0  0  0
    9.6073  -15.4826   23.1574 C   0  0  2  0  0  0  0  0  0  0  0  0
    9.0350  -15.3003   21.8423 N   0  0  0  0  0  0  0  0  0  0  0  0
   10.5830  -16.5873   23.2010 C   0  0  0  0  0  0  0  0  0  0  0  0
   10.2834  -17.6593   22.6040 O   0  0  0  0  0  0  0  0  0  0  0  0
   11.8222  -16.5236   23.8626 N   0  0  0  0  0  0  0  0  0  0  0  0
   12.7851  -17.6345   23.9210 C   0  0  1  0  0  0  0  0  0  0  0  0
   14.1807  -17.0784   24.1000 C   0  0  0  0  0  0  0  0  0  0  0  0
   14.5436  -16.2495   22.9477 C   0  0  0  0  0  0  0  0  0  0  0  0
   14.2083  -16.5691   21.7890 O   0  0  0  0  0  0  0  0  0  0  0  0
   12.4285  -18.3757   25.1546 C   0  0  0  0  0  0  0  0  0  0  0  0
   11.5217  -18.0446   25.9467 O   0  0  0  0  0  0  0  0  0  0  0  0
   15.2787  -15.0623   23.0670 O   0  0  0  0  0  0  0  0  0  0  0  0
   13.1251  -19.5366   25.5056 O   0  0  0  0  0  0  0  0  0  0  0  0
  1  5  1  0
  1  2  1  0
  2  3  1  0
  4  3  1  0
  5  4  1  0
  6  7  2  0
  5  6  1  1
  8  9  1  0
  9 10  2  0
 11  9  1  0
 12 11  1  1
 12 13  1  0
 13  6  1  0
 14 15  2  0
 14 12  1  0
 16 14  1  0
 17 16  1  0
 17 18  1  1
 19 18  1  0
 20 19  2  0
 21 24  1  0
 21 17  1  0
 22 21  2  0
 23 19  1  0
M  END
$$$$
