PND.pdb
     RDKit          3D

 24 24  0  0  1  0  0  0  0  0999 V2000
    7.3840  -15.0821   20.1715 N   0  0  0  0  0  0  0  0  0  0  0  0
    6.5484  -14.2972   19.3008 C   0  0  0  0  0  0  0  0  0  0  0  0
    7.1309  -12.8994   19.3225 C   0  0  0  0  0  0  0  0  0  0  0  0
    8.6025  -13.1722   19.4794 C   0  0  0  0  0  0  0  0  0  0  0  0
    8.7469  -14.5728   20.0349 C   0  0  1  0  0  0  0  0  0  0  0  0
    9.4017  -14.6187   21.3497 C   0  0  0  0  0  0  0  0  0  0  0  0
   10.6083  -14.2755   21.4902 O   0  0  0  0  0  0  0  0  0  0  0  0
    7.1320  -16.6342   23.4148 N   0  0  0  0  0  0  0  0  0  0  0  0
    7.1515  -15.8167   24.6035 C   0  0  0  0  0  0  0  0  0  0  0  0
    6.1214  -15.8430   25.3549 O   0  0  0  0  0  0  0  0  0  0  0  0
    8.3442  -14.9921   24.9024 C   0  0  0  0  0  0  0  0  0  0  0  0
    9.4153  -15.0906   23.8220 C   0  0  2  0  0  0  0  0  0  0  0  0
    8.7386  -15.0450   22.5451 N   0  0  0  0  0  0  0  0  0  0  0  0
   10.1512  -16.3518   24.0270 C   0  0  0  0  0  0  0  0  0  0  0  0
    9.6403  -17.4112   23.5664 O   0  0  0  0  0  0  0  0  0  0  0  0
   11.3819  -16.4501   24.7001 N   0  0  0  0  0  0  0  0  0  0  0  0
   12.1367  -17.7026   24.8620 C   0  0  1  0  0  0  0  0  0  0  0  0
   13.6161  -17.3913   24.9210 C   0  0  0  0  0  0  0  0  0  0  0  0
   14.0092  -16.5940   23.7563 C   0  0  0  0  0  0  0  0  0  0  0  0
   13.7411  -16.9668   22.5961 O   0  0  0  0  0  0  0  0  0  0  0  0
   11.7267  -18.2189   26.1900 C   0  0  0  0  0  0  0  0  0  0  0  0
   10.9399  -17.6388   26.9670 O   0  0  0  0  0  0  0  0  0  0  0  0
   14.7006  -15.3798   23.8651 O   0  0  0  0  0  0  0  0  0  0  0  0
   12.2263  -19.4389   26.6568 O   0  0  0  0  0  0  0  0  0  0  0  0
  1  5  1  0
  1  2  1  0
  2  3  1  0
  4  3  1  0
  5  4  1  0
  6  7  2  0
  5  6  1  1
  8  9  1  0
  9 10  2  0
 11  9  1  0
 12 11  1  1
 12 13  1  0
 13  6  1  0
 14 15  2  0
 14 12  1  0
 16 14  1  0
 17 16  1  0
 17 18  1  1
 19 18  1  0
 20 19  2  0
 21 24  1  0
 21 17  1  0
 22 21  2  0
 23 19  1  0
M  END
$$$$
