PND.pdb
     RDKit          3D

 24 24  0  0  1  0  0  0  0  0999 V2000
    9.1868  -13.1907   20.2145 N   0  0  0  0  0  0  0  0  0  0  0  0
    8.3943  -12.0594   19.8088 C   0  0  0  0  0  0  0  0  0  0  0  0
    7.7369  -12.4644   18.5060 C   0  0  0  0  0  0  0  0  0  0  0  0
    7.5221  -13.9405   18.7052 C   0  0  0  0  0  0  0  0  0  0  0  0
    8.4674  -14.3925   19.7975 C   0  0  1  0  0  0  0  0  0  0  0  0
    9.4440  -15.3958   19.3511 C   0  0  0  0  0  0  0  0  0  0  0  0
    9.0745  -16.5390   18.9638 O   0  0  0  0  0  0  0  0  0  0  0  0
   14.9509  -14.6257   18.3534 N   0  0  0  0  0  0  0  0  0  0  0  0
   13.5170  -14.4709   18.3189 C   0  0  0  0  0  0  0  0  0  0  0  0
   13.0332  -13.3616   18.7213 O   0  0  0  0  0  0  0  0  0  0  0  0
   12.6744  -15.5845   17.8272 C   0  0  0  0  0  0  0  0  0  0  0  0
   11.7946  -16.1847   18.9181 C   0  0  2  0  0  0  0  0  0  0  0  0
   10.8562  -15.1610   19.3206 N   0  0  0  0  0  0  0  0  0  0  0  0
   12.6718  -16.6133   20.0231 C   0  0  0  0  0  0  0  0  0  0  0  0
   13.5101  -17.5280   19.7863 O   0  0  0  0  0  0  0  0  0  0  0  0
   12.6351  -16.0702   21.3196 N   0  0  0  0  0  0  0  0  0  0  0  0
   13.4057  -16.5960   22.4573 C   0  0  1  0  0  0  0  0  0  0  0  0
   14.4080  -15.5555   22.9065 C   0  0  0  0  0  0  0  0  0  0  0  0
   15.5839  -15.5796   22.0327 C   0  0  0  0  0  0  0  0  0  0  0  0
   15.7938  -16.5331   21.2557 O   0  0  0  0  0  0  0  0  0  0  0  0
   12.4077  -16.7645   23.5408 C   0  0  0  0  0  0  0  0  0  0  0  0
   12.6485  -17.2676   24.6581 O   0  0  0  0  0  0  0  0  0  0  0  0
   16.5354  -14.5509   22.0109 O   0  0  0  0  0  0  0  0  0  0  0  0
   11.0861  -16.3474   23.3528 O   0  0  0  0  0  0  0  0  0  0  0  0
  1  5  1  0
  1  2  1  0
  2  3  1  0
  4  3  1  0
  5  4  1  0
  6  7  2  0
  5  6  1  6
  8  9  1  0
  9 10  2  0
 11  9  1  0
 12 11  1  6
 12 13  1  0
 13  6  1  0
 14 15  2  0
 14 12  1  0
 16 14  1  0
 17 16  1  0
 17 18  1  1
 19 18  1  0
 20 19  2  0
 21 24  1  0
 21 17  1  0
 22 21  2  0
 23 19  1  0
M  END
$$$$
