PND.pdb
     RDKit          3D

 24 24  0  0  1  0  0  0  0  0999 V2000
    7.6478  -15.2117   18.8494 N   0  0  0  0  0  0  0  0  0  0  0  0
    6.8570  -14.5294   17.8586 C   0  0  0  0  0  0  0  0  0  0  0  0
    7.1272  -13.0533   18.0626 C   0  0  0  0  0  0  0  0  0  0  0  0
    8.5636  -13.0534   18.5112 C   0  0  0  0  0  0  0  0  0  0  0  0
    8.8784  -14.4427   19.0228 C   0  0  1  0  0  0  0  0  0  0  0  0
    9.2582  -14.4741   20.4421 C   0  0  0  0  0  0  0  0  0  0  0  0
   10.3730  -14.0261   20.8294 O   0  0  0  0  0  0  0  0  0  0  0  0
    8.2267  -13.6938   25.7558 N   0  0  0  0  0  0  0  0  0  0  0  0
    7.7885  -14.9267   25.1480 C   0  0  0  0  0  0  0  0  0  0  0  0
    7.6442  -15.9407   25.9079 O   0  0  0  0  0  0  0  0  0  0  0  0
    7.5273  -14.9696   23.6914 C   0  0  0  0  0  0  0  0  0  0  0  0
    8.8070  -14.9941   22.8630 C   0  0  2  0  0  0  0  0  0  0  0  0
    8.4142  -15.0016   21.4716 N   0  0  0  0  0  0  0  0  0  0  0  0
    9.5690  -16.1983   23.2418 C   0  0  0  0  0  0  0  0  0  0  0  0
    9.0948  -17.3213   22.9110 O   0  0  0  0  0  0  0  0  0  0  0  0
   10.7863  -16.1764   23.9453 N   0  0  0  0  0  0  0  0  0  0  0  0
   11.5790  -17.3748   24.2614 C   0  0  1  0  0  0  0  0  0  0  0  0
   13.0384  -16.9932   24.3778 C   0  0  0  0  0  0  0  0  0  0  0  0
   13.7974  -17.5605   23.2603 C   0  0  0  0  0  0  0  0  0  0  0  0
   13.6266  -18.7413   22.8949 O   0  0  0  0  0  0  0  0  0  0  0  0
   11.1090  -17.7922   25.6043 C   0  0  0  0  0  0  0  0  0  0  0  0
   10.5051  -17.0521   26.4086 O   0  0  0  0  0  0  0  0  0  0  0  0
   14.7495  -16.8277   22.5388 O   0  0  0  0  0  0  0  0  0  0  0  0
   11.3310  -19.0976   26.0544 O   0  0  0  0  0  0  0  0  0  0  0  0
  1  5  1  0
  1  2  1  0
  2  3  1  0
  4  3  1  0
  5  4  1  0
  6  7  2  0
  5  6  1  1
  8  9  1  0
  9 10  2  0
 11  9  1  0
 12 11  1  1
 12 13  1  0
 13  6  1  0
 14 15  2  0
 14 12  1  0
 16 14  1  0
 17 16  1  0
 17 18  1  1
 19 18  1  0
 20 19  2  0
 21 24  1  0
 21 17  1  0
 22 21  2  0
 23 19  1  0
M  END
$$$$
