PND.pdb
     RDKit          3D

 24 24  0  0  1  0  0  0  0  0999 V2000
    8.0282  -13.6769   20.3215 N   0  0  0  0  0  0  0  0  0  0  0  0
    7.6301  -12.3656   19.8807 C   0  0  0  0  0  0  0  0  0  0  0  0
    8.2019  -12.2095   18.4870 C   0  0  0  0  0  0  0  0  0  0  0  0
    8.1289  -13.6155   17.9556 C   0  0  0  0  0  0  0  0  0  0  0  0
    8.0283  -14.5451   19.1459 C   0  0  1  0  0  0  0  0  0  0  0  0
    9.1526  -15.4852   19.2538 C   0  0  0  0  0  0  0  0  0  0  0  0
    9.3130  -16.4104   18.4101 O   0  0  0  0  0  0  0  0  0  0  0  0
   14.4863  -16.2881   18.2575 N   0  0  0  0  0  0  0  0  0  0  0  0
   13.3187  -16.7989   18.9338 C   0  0  0  0  0  0  0  0  0  0  0  0
   13.3698  -17.9927   19.3795 O   0  0  0  0  0  0  0  0  0  0  0  0
   12.1257  -15.9351   19.0832 C   0  0  0  0  0  0  0  0  0  0  0  0
   11.2917  -16.2881   20.3096 C   0  0  2  0  0  0  0  0  0  0  0  0
   10.1306  -15.4265   20.2981 N   0  0  0  0  0  0  0  0  0  0  0  0
   12.1333  -16.0863   21.5034 C   0  0  0  0  0  0  0  0  0  0  0  0
   12.6787  -14.9569   21.6533 O   0  0  0  0  0  0  0  0  0  0  0  0
   12.3666  -17.0679   22.4829 N   0  0  0  0  0  0  0  0  0  0  0  0
   13.0010  -16.8022   23.7835 C   0  0  1  0  0  0  0  0  0  0  0  0
   12.7712  -17.9817   24.7027 C   0  0  0  0  0  0  0  0  0  0  0  0
   11.3519  -18.0771   25.0535 C   0  0  0  0  0  0  0  0  0  0  0  0
   10.6527  -17.0550   25.2066 O   0  0  0  0  0  0  0  0  0  0  0  0
   14.4519  -16.7326   23.4861 C   0  0  0  0  0  0  0  0  0  0  0  0
   15.3363  -16.4475   24.3203 O   0  0  0  0  0  0  0  0  0  0  0  0
   10.6952  -19.3014   25.2371 O   0  0  0  0  0  0  0  0  0  0  0  0
   14.9201  -16.9959   22.1948 O   0  0  0  0  0  0  0  0  0  0  0  0
  1  5  1  0
  1  2  1  0
  2  3  1  0
  4  3  1  0
  5  4  1  0
  6  7  2  0
  5  6  1  1
  8  9  1  0
  9 10  2  0
 11  9  1  0
 12 11  1  6
 12 13  1  0
 13  6  1  0
 14 15  2  0
 14 12  1  0
 16 14  1  0
 17 16  1  0
 17 18  1  1
 19 18  1  0
 20 19  2  0
 21 24  1  0
 21 17  1  0
 22 21  2  0
 23 19  1  0
M  END
$$$$
