PND.pdb
     RDKit          3D

 24 24  0  0  1  0  0  0  0  0999 V2000
    8.3373  -14.9727   18.9558 N   0  0  0  0  0  0  0  0  0  0  0  0
    7.3517  -14.3068   18.1449 C   0  0  0  0  0  0  0  0  0  0  0  0
    7.4708  -12.8347   18.4797 C   0  0  0  0  0  0  0  0  0  0  0  0
    8.9428  -12.6912   18.7572 C   0  0  0  0  0  0  0  0  0  0  0  0
    9.4812  -14.0706   19.0710 C   0  0  1  0  0  0  0  0  0  0  0  0
   10.0407  -14.1889   20.4247 C   0  0  0  0  0  0  0  0  0  0  0  0
   11.0568  -13.5248   20.7713 O   0  0  0  0  0  0  0  0  0  0  0  0
    7.8279  -13.8109   23.4284 N   0  0  0  0  0  0  0  0  0  0  0  0
    7.9279  -15.1650   23.9162 C   0  0  0  0  0  0  0  0  0  0  0  0
    6.9522  -15.6195   24.6002 O   0  0  0  0  0  0  0  0  0  0  0  0
    9.1369  -15.9630   23.6110 C   0  0  0  0  0  0  0  0  0  0  0  0
   10.1251  -15.2194   22.7195 C   0  0  2  0  0  0  0  0  0  0  0  0
    9.4904  -15.0449   21.4322 N   0  0  0  0  0  0  0  0  0  0  0  0
   11.3570  -16.0256   22.6376 C   0  0  0  0  0  0  0  0  0  0  0  0
   11.3456  -17.0406   21.8859 O   0  0  0  0  0  0  0  0  0  0  0  0
   12.5402  -15.7372   23.3406 N   0  0  0  0  0  0  0  0  0  0  0  0
   13.8111  -16.4528   23.1467 C   0  0  1  0  0  0  0  0  0  0  0  0
   14.9459  -15.4534   23.0989 C   0  0  0  0  0  0  0  0  0  0  0  0
   16.2281  -16.1533   22.9861 C   0  0  0  0  0  0  0  0  0  0  0  0
   16.4239  -17.0068   22.0971 O   0  0  0  0  0  0  0  0  0  0  0  0
   13.9738  -17.2680   24.3745 C   0  0  0  0  0  0  0  0  0  0  0  0
   14.9078  -18.0720   24.5761 O   0  0  0  0  0  0  0  0  0  0  0  0
   17.3026  -15.9152   23.8537 O   0  0  0  0  0  0  0  0  0  0  0  0
   13.0437  -17.1696   25.4143 O   0  0  0  0  0  0  0  0  0  0  0  0
  1  5  1  0
  1  2  1  0
  2  3  1  0
  4  3  1  0
  5  4  1  0
  6  7  2  0
  5  6  1  1
  8  9  1  0
  9 10  2  0
 11  9  1  0
 12 11  1  1
 12 13  1  0
 13  6  1  0
 14 15  2  0
 14 12  1  0
 16 14  1  0
 17 16  1  0
 17 18  1  1
 19 18  1  0
 20 19  2  0
 21 24  1  0
 21 17  1  0
 22 21  2  0
 23 19  1  0
M  END
$$$$
