PND.pdb
     RDKit          3D

 24 24  0  0  1  0  0  0  0  0999 V2000
    7.9760  -14.6965   19.9226 N   0  0  0  0  0  0  0  0  0  0  0  0
    7.1391  -13.5529   20.1761 C   0  0  0  0  0  0  0  0  0  0  0  0
    7.8120  -12.3888   19.4792 C   0  0  0  0  0  0  0  0  0  0  0  0
    8.4293  -13.0528   18.2782 C   0  0  0  0  0  0  0  0  0  0  0  0
    8.5370  -14.5314   18.5833 C   0  0  1  0  0  0  0  0  0  0  0  0
    9.9188  -15.0317   18.5857 C   0  0  0  0  0  0  0  0  0  0  0  0
   10.3009  -15.8975   17.7503 O   0  0  0  0  0  0  0  0  0  0  0  0
   14.8589  -15.9393   18.9527 N   0  0  0  0  0  0  0  0  0  0  0  0
   14.5664  -14.5367   18.7841 C   0  0  0  0  0  0  0  0  0  0  0  0
   15.5206  -13.7749   18.4159 O   0  0  0  0  0  0  0  0  0  0  0  0
   13.1949  -14.0414   19.0399 C   0  0  0  0  0  0  0  0  0  0  0  0
   12.2522  -15.1380   19.5230 C   0  0  2  0  0  0  0  0  0  0  0  0
   10.9157  -14.5868   19.5124 N   0  0  0  0  0  0  0  0  0  0  0  0
   12.6849  -15.5454   20.8725 C   0  0  0  0  0  0  0  0  0  0  0  0
   12.6911  -14.6648   21.7779 O   0  0  0  0  0  0  0  0  0  0  0  0
   13.0894  -16.8479   21.2149 N   0  0  0  0  0  0  0  0  0  0  0  0
   13.4410  -17.2715   22.5792 C   0  0  1  0  0  0  0  0  0  0  0  0
   13.1021  -18.7359   22.7516 C   0  0  0  0  0  0  0  0  0  0  0  0
   11.6485  -18.9139   22.7964 C   0  0  0  0  0  0  0  0  0  0  0  0
   11.0675  -19.6949   22.0157 O   0  0  0  0  0  0  0  0  0  0  0  0
   14.9158  -17.1345   22.6463 C   0  0  0  0  0  0  0  0  0  0  0  0
   15.5997  -17.3007   23.6779 O   0  0  0  0  0  0  0  0  0  0  0  0
   10.8270  -18.2311   23.7036 O   0  0  0  0  0  0  0  0  0  0  0  0
   15.6451  -16.7966   21.5018 O   0  0  0  0  0  0  0  0  0  0  0  0
  1  5  1  0
  1  2  1  0
  2  3  1  0
  4  3  1  0
  5  4  1  0
  6  7  2  0
  5  6  1  1
  8  9  1  0
  9 10  2  0
 11  9  1  0
 12 11  1  1
 12 13  1  0
 13  6  1  0
 14 15  2  0
 14 12  1  0
 16 14  1  0
 17 16  1  0
 17 18  1  6
 19 18  1  0
 20 19  2  0
 21 24  1  0
 21 17  1  0
 22 21  2  0
 23 19  1  0
M  END
$$$$
