PND.pdb
     RDKit          3D

 24 24  0  0  1  0  0  0  0  0999 V2000
    8.0985  -14.7881   19.1929 N   0  0  0  0  0  0  0  0  0  0  0  0
    7.4383  -14.0355   18.1584 C   0  0  0  0  0  0  0  0  0  0  0  0
    6.8986  -12.7929   18.8353 C   0  0  0  0  0  0  0  0  0  0  0  0
    7.9388  -12.5300   19.8904 C   0  0  0  0  0  0  0  0  0  0  0  0
    8.6929  -13.8230   20.1154 C   0  0  1  0  0  0  0  0  0  0  0  0
    8.5721  -14.3429   21.4845 C   0  0  0  0  0  0  0  0  0  0  0  0
    9.0425  -13.7068   22.4681 O   0  0  0  0  0  0  0  0  0  0  0  0
    7.5989  -17.4091   25.5926 N   0  0  0  0  0  0  0  0  0  0  0  0
    6.5974  -17.6749   24.5887 C   0  0  0  0  0  0  0  0  0  0  0  0
    5.6364  -18.4514   24.9049 O   0  0  0  0  0  0  0  0  0  0  0  0
    6.7192  -17.0488   23.2528 C   0  0  0  0  0  0  0  0  0  0  0  0
    7.9245  -16.1215   23.1436 C   0  0  2  0  0  0  0  0  0  0  0  0
    7.9265  -15.5810   21.8026 N   0  0  0  0  0  0  0  0  0  0  0  0
    9.1335  -16.9135   23.4356 C   0  0  0  0  0  0  0  0  0  0  0  0
    9.3397  -17.9481   22.7409 O   0  0  0  0  0  0  0  0  0  0  0  0
   10.0690  -16.5914   24.4348 N   0  0  0  0  0  0  0  0  0  0  0  0
   11.3931  -17.2203   24.5599 C   0  0  1  0  0  0  0  0  0  0  0  0
   12.4653  -16.1629   24.4143 C   0  0  0  0  0  0  0  0  0  0  0  0
   13.7196  -16.7761   23.9701 C   0  0  0  0  0  0  0  0  0  0  0  0
   13.8003  -18.0027   23.7557 O   0  0  0  0  0  0  0  0  0  0  0  0
   11.4383  -17.7259   25.9530 C   0  0  0  0  0  0  0  0  0  0  0  0
   12.2123  -18.6164   26.3620 O   0  0  0  0  0  0  0  0  0  0  0  0
   14.8928  -16.0390   23.7594 O   0  0  0  0  0  0  0  0  0  0  0  0
   10.5744  -17.2034   26.9208 O   0  0  0  0  0  0  0  0  0  0  0  0
  1  5  1  0
  1  2  1  0
  2  3  1  0
  4  3  1  0
  5  4  1  0
  6  7  2  0
  5  6  1  1
  8  9  1  0
  9 10  2  0
 11  9  1  0
 12 11  1  6
 12 13  1  0
 13  6  1  0
 14 15  2  0
 14 12  1  0
 16 14  1  0
 17 16  1  0
 17 18  1  1
 19 18  1  0
 20 19  2  0
 21 24  1  0
 21 17  1  0
 22 21  2  0
 23 19  1  0
M  END
$$$$
