PND.pdb
     RDKit          3D

 24 24  0  0  1  0  0  0  0  0999 V2000
    7.2315  -15.0804   19.9060 N   0  0  0  0  0  0  0  0  0  0  0  0
    6.4894  -14.2318   19.0106 C   0  0  0  0  0  0  0  0  0  0  0  0
    6.9002  -12.8148   19.3526 C   0  0  0  0  0  0  0  0  0  0  0  0
    8.3385  -12.9913   19.7583 C   0  0  0  0  0  0  0  0  0  0  0  0
    8.5316  -14.4483   20.1201 C   0  0  1  0  0  0  0  0  0  0  0  0
    8.9336  -14.6582   21.5180 C   0  0  0  0  0  0  0  0  0  0  0  0
   10.1166  -14.4345   21.8975 O   0  0  0  0  0  0  0  0  0  0  0  0
    7.8870  -12.9763   25.5346 N   0  0  0  0  0  0  0  0  0  0  0  0
    6.8732  -14.0013   25.4790 C   0  0  0  0  0  0  0  0  0  0  0  0
    5.7682  -13.7713   26.0728 O   0  0  0  0  0  0  0  0  0  0  0  0
    7.1470  -15.2596   24.7487 C   0  0  0  0  0  0  0  0  0  0  0  0
    8.4279  -15.1963   23.9241 C   0  0  2  0  0  0  0  0  0  0  0  0
    8.0371  -15.1207   22.5342 N   0  0  0  0  0  0  0  0  0  0  0  0
    9.2198  -16.4036   24.2238 C   0  0  0  0  0  0  0  0  0  0  0  0
    8.6944  -17.5260   23.9795 O   0  0  0  0  0  0  0  0  0  0  0  0
   10.5187  -16.3852   24.7620 N   0  0  0  0  0  0  0  0  0  0  0  0
   11.2902  -17.5918   25.0986 C   0  0  1  0  0  0  0  0  0  0  0  0
   12.7648  -17.2541   25.1173 C   0  0  0  0  0  0  0  0  0  0  0  0
   13.1924  -16.7944   23.7934 C   0  0  0  0  0  0  0  0  0  0  0  0
   13.0960  -17.5301   22.7902 O   0  0  0  0  0  0  0  0  0  0  0  0
   10.8816  -17.9240   26.4847 C   0  0  0  0  0  0  0  0  0  0  0  0
   10.1498  -17.2096   27.2013 O   0  0  0  0  0  0  0  0  0  0  0  0
   13.7288  -15.5193   23.5685 O   0  0  0  0  0  0  0  0  0  0  0  0
   11.3179  -19.1105   27.0829 O   0  0  0  0  0  0  0  0  0  0  0  0
  1  5  1  0
  1  2  1  0
  2  3  1  0
  4  3  1  0
  5  4  1  0
  6  7  2  0
  5  6  1  1
  8  9  1  0
  9 10  2  0
 11  9  1  0
 12 11  1  1
 12 13  1  0
 13  6  1  0
 14 15  2  0
 14 12  1  0
 16 14  1  0
 17 16  1  0
 17 18  1  1
 19 18  1  0
 20 19  2  0
 21 24  1  0
 21 17  1  0
 22 21  2  0
 23 19  1  0
M  END
$$$$
