PND.pdb
     RDKit          3D

 24 24  0  0  1  0  0  0  0  0999 V2000
    7.6466  -14.9629   19.2108 N   0  0  0  0  0  0  0  0  0  0  0  0
    6.9708  -13.9950   18.3869 C   0  0  0  0  0  0  0  0  0  0  0  0
    7.2287  -12.6513   19.0362 C   0  0  0  0  0  0  0  0  0  0  0  0
    8.6092  -12.8349   19.6063 C   0  0  0  0  0  0  0  0  0  0  0  0
    8.8574  -14.3236   19.7216 C   0  0  1  0  0  0  0  0  0  0  0  0
    9.0839  -14.7763   21.1012 C   0  0  0  0  0  0  0  0  0  0  0  0
   10.1193  -14.4360   21.7381 O   0  0  0  0  0  0  0  0  0  0  0  0
    8.3583  -16.5611   25.9209 N   0  0  0  0  0  0  0  0  0  0  0  0
    7.0820  -16.5765   25.2484 C   0  0  0  0  0  0  0  0  0  0  0  0
    6.0486  -16.8361   25.9493 O   0  0  0  0  0  0  0  0  0  0  0  0
    7.0189  -16.2958   23.7962 C   0  0  0  0  0  0  0  0  0  0  0  0
    8.3853  -15.9846   23.1957 C   0  0  2  0  0  0  0  0  0  0  0  0
    8.1702  -15.6176   21.8138 N   0  0  0  0  0  0  0  0  0  0  0  0
    9.2267  -17.1872   23.3367 C   0  0  0  0  0  0  0  0  0  0  0  0
    8.6539  -18.3123   23.2992 O   0  0  0  0  0  0  0  0  0  0  0  0
   10.6221  -17.1616   23.5092 N   0  0  0  0  0  0  0  0  0  0  0  0
   11.4524  -18.3608   23.7019 C   0  0  1  0  0  0  0  0  0  0  0  0
   12.8509  -18.0882   23.1930 C   0  0  0  0  0  0  0  0  0  0  0  0
   12.8169  -17.8050   21.7559 C   0  0  0  0  0  0  0  0  0  0  0  0
   13.4750  -16.8651   21.2655 O   0  0  0  0  0  0  0  0  0  0  0  0
   11.5284  -18.5323   25.1726 C   0  0  0  0  0  0  0  0  0  0  0  0
   12.0717  -19.4975   25.7493 O   0  0  0  0  0  0  0  0  0  0  0  0
   12.0565  -18.5579   20.8509 O   0  0  0  0  0  0  0  0  0  0  0  0
   10.9681  -17.5744   26.0238 O   0  0  0  0  0  0  0  0  0  0  0  0
  1  5  1  0
  1  2  1  0
  2  3  1  0
  4  3  1  0
  5  4  1  0
  6  7  2  0
  5  6  1  1
  8  9  1  0
  9 10  2  0
 11  9  1  0
 12 11  1  6
 12 13  1  0
 13  6  1  0
 14 15  2  0
 14 12  1  0
 16 14  1  0
 17 16  1  0
 17 18  1  1
 19 18  1  0
 20 19  2  0
 21 24  1  0
 21 17  1  0
 22 21  2  0
 23 19  1  0
M  END
$$$$
