PND.pdb
     RDKit          3D

 24 24  0  0  1  0  0  0  0  0999 V2000
    9.1936  -13.7142   18.9037 N   0  0  0  0  0  0  0  0  0  0  0  0
    8.3849  -13.1245   17.8690 C   0  0  0  0  0  0  0  0  0  0  0  0
    6.9485  -13.3906   18.2685 C   0  0  0  0  0  0  0  0  0  0  0  0
    7.0220  -13.3343   19.7705 C   0  0  0  0  0  0  0  0  0  0  0  0
    8.4675  -13.5541   20.1618 C   0  0  1  0  0  0  0  0  0  0  0  0
    8.6776  -14.7541   20.9837 C   0  0  0  0  0  0  0  0  0  0  0  0
    8.0078  -14.9503   22.0356 O   0  0  0  0  0  0  0  0  0  0  0  0
   10.9117  -20.4218   20.6650 N   0  0  0  0  0  0  0  0  0  0  0  0
    9.9224  -19.4638   21.0949 C   0  0  0  0  0  0  0  0  0  0  0  0
    9.1384  -19.8087   22.0399 O   0  0  0  0  0  0  0  0  0  0  0  0
    9.8538  -18.1399   20.4359 C   0  0  0  0  0  0  0  0  0  0  0  0
    9.7421  -16.9905   21.4314 C   0  0  2  0  0  0  0  0  0  0  0  0
    9.6344  -15.7702   20.6635 N   0  0  0  0  0  0  0  0  0  0  0  0
   10.9417  -17.0151   22.2884 C   0  0  0  0  0  0  0  0  0  0  0  0
   11.1341  -18.0407   23.0000 O   0  0  0  0  0  0  0  0  0  0  0  0
   11.8827  -15.9728   22.3635 N   0  0  0  0  0  0  0  0  0  0  0  0
   12.9728  -15.9141   23.3497 C   0  0  1  0  0  0  0  0  0  0  0  0
   12.6623  -16.8521   24.4955 C   0  0  0  0  0  0  0  0  0  0  0  0
   13.7937  -16.9025   25.4251 C   0  0  0  0  0  0  0  0  0  0  0  0
   14.8106  -16.2019   25.2459 O   0  0  0  0  0  0  0  0  0  0  0  0
   14.1564  -16.4469   22.6331 C   0  0  0  0  0  0  0  0  0  0  0  0
   15.2503  -15.8540   22.5268 O   0  0  0  0  0  0  0  0  0  0  0  0
   13.8095  -17.7265   26.5586 O   0  0  0  0  0  0  0  0  0  0  0  0
   14.1000  -17.6991   22.0127 O   0  0  0  0  0  0  0  0  0  0  0  0
  1  5  1  0
  1  2  1  0
  2  3  1  0
  4  3  1  0
  5  4  1  0
  6  7  2  0
  5  6  1  1
  8  9  1  0
  9 10  2  0
 11  9  1  0
 12 11  1  6
 12 13  1  0
 13  6  1  0
 14 15  2  0
 14 12  1  0
 16 14  1  0
 17 16  1  0
 17 18  1  1
 19 18  1  0
 20 19  2  0
 21 24  1  0
 21 17  1  0
 22 21  2  0
 23 19  1  0
M  END
$$$$
