PND.pdb
     RDKit          3D

 24 24  0  0  1  0  0  0  0  0999 V2000
    8.8992  -14.5595   18.8767 N   0  0  0  0  0  0  0  0  0  0  0  0
    8.3992  -13.7870   17.7696 C   0  0  0  0  0  0  0  0  0  0  0  0
    7.2706  -12.9474   18.3310 C   0  0  0  0  0  0  0  0  0  0  0  0
    7.7447  -12.6766   19.7333 C   0  0  0  0  0  0  0  0  0  0  0  0
    8.7817  -13.7261   20.0715 C   0  0  1  0  0  0  0  0  0  0  0  0
    8.4049  -14.5798   21.2068 C   0  0  0  0  0  0  0  0  0  0  0  0
    8.1385  -14.0833   22.3365 O   0  0  0  0  0  0  0  0  0  0  0  0
    5.4069  -16.0710   21.5297 N   0  0  0  0  0  0  0  0  0  0  0  0
    5.7379  -17.4672   21.3794 C   0  0  0  0  0  0  0  0  0  0  0  0
    4.8424  -18.2377   20.8990 O   0  0  0  0  0  0  0  0  0  0  0  0
    7.0799  -17.9462   21.7810 C   0  0  0  0  0  0  0  0  0  0  0  0
    7.9854  -16.8218   22.2710 C   0  0  2  0  0  0  0  0  0  0  0  0
    8.3121  -16.0062   21.1227 N   0  0  0  0  0  0  0  0  0  0  0  0
    9.1770  -17.4350   22.8862 C   0  0  0  0  0  0  0  0  0  0  0  0
    8.9935  -18.2773   23.8093 O   0  0  0  0  0  0  0  0  0  0  0  0
   10.5005  -17.1431   22.5115 N   0  0  0  0  0  0  0  0  0  0  0  0
   11.6872  -17.7615   23.1230 C   0  0  1  0  0  0  0  0  0  0  0  0
   12.8030  -17.8197   22.1029 C   0  0  0  0  0  0  0  0  0  0  0  0
   12.4160  -18.6811   20.9827 C   0  0  0  0  0  0  0  0  0  0  0  0
   11.7307  -19.7082   21.1624 O   0  0  0  0  0  0  0  0  0  0  0  0
   12.0950  -16.8165   24.1903 C   0  0  0  0  0  0  0  0  0  0  0  0
   12.9414  -17.0638   25.0744 O   0  0  0  0  0  0  0  0  0  0  0  0
   12.7828  -18.4139   19.6567 O   0  0  0  0  0  0  0  0  0  0  0  0
   11.5228  -15.5422   24.2597 O   0  0  0  0  0  0  0  0  0  0  0  0
  1  5  1  0
  1  2  1  0
  2  3  1  0
  4  3  1  0
  5  4  1  0
  6  7  2  0
  5  6  1  1
  8  9  1  0
  9 10  2  0
 11  9  1  0
 12 11  1  6
 12 13  1  0
 13  6  1  0
 14 15  2  0
 14 12  1  0
 16 14  1  0
 17 16  1  0
 17 18  1  6
 19 18  1  0
 20 19  2  0
 21 24  1  0
 21 17  1  0
 22 21  2  0
 23 19  1  0
M  END
$$$$
