PND.pdb
     RDKit          3D

 24 24  0  0  1  0  0  0  0  0999 V2000
    7.8078  -15.2148   19.0197 N   0  0  0  0  0  0  0  0  0  0  0  0
    6.9202  -14.5999   18.0676 C   0  0  0  0  0  0  0  0  0  0  0  0
    7.0126  -13.1099   18.3226 C   0  0  0  0  0  0  0  0  0  0  0  0
    8.4470  -12.9500   18.7485 C   0  0  0  0  0  0  0  0  0  0  0  0
    8.9388  -14.3075   19.2027 C   0  0  1  0  0  0  0  0  0  0  0  0
    9.3480  -14.3423   20.6137 C   0  0  0  0  0  0  0  0  0  0  0  0
   10.3346  -13.6700   21.0239 O   0  0  0  0  0  0  0  0  0  0  0  0
    8.8287  -14.0148   25.8981 N   0  0  0  0  0  0  0  0  0  0  0  0
    8.1672  -15.1513   25.3046 C   0  0  0  0  0  0  0  0  0  0  0  0
    7.8729  -16.1286   26.0694 O   0  0  0  0  0  0  0  0  0  0  0  0
    7.8599  -15.1425   23.8564 C   0  0  0  0  0  0  0  0  0  0  0  0
    9.1127  -15.1450   22.9875 C   0  0  2  0  0  0  0  0  0  0  0  0
    8.6759  -15.1215   21.6095 N   0  0  0  0  0  0  0  0  0  0  0  0
    9.8882  -16.3558   23.3141 C   0  0  0  0  0  0  0  0  0  0  0  0
    9.3977  -17.4731   22.9877 O   0  0  0  0  0  0  0  0  0  0  0  0
   11.1355  -16.3461   23.9634 N   0  0  0  0  0  0  0  0  0  0  0  0
   11.8967  -17.5572   24.3074 C   0  0  1  0  0  0  0  0  0  0  0  0
   13.3609  -17.2042   24.4507 C   0  0  0  0  0  0  0  0  0  0  0  0
   13.8938  -16.7379   23.1680 C   0  0  0  0  0  0  0  0  0  0  0  0
   13.6520  -17.3474   22.1064 O   0  0  0  0  0  0  0  0  0  0  0  0
   11.3905  -17.9517   25.6440 C   0  0  0  0  0  0  0  0  0  0  0  0
   10.5772  -17.2886   26.3210 O   0  0  0  0  0  0  0  0  0  0  0  0
   14.6967  -15.5954   23.0491 O   0  0  0  0  0  0  0  0  0  0  0  0
   11.8213  -19.1426   26.2375 O   0  0  0  0  0  0  0  0  0  0  0  0
  1  5  1  0
  1  2  1  0
  2  3  1  0
  4  3  1  0
  5  4  1  0
  6  7  2  0
  5  6  1  1
  8  9  1  0
  9 10  2  0
 11  9  1  0
 12 11  1  1
 12 13  1  0
 13  6  1  0
 14 15  2  0
 14 12  1  0
 16 14  1  0
 17 16  1  0
 17 18  1  1
 19 18  1  0
 20 19  2  0
 21 24  1  0
 21 17  1  0
 22 21  2  0
 23 19  1  0
M  END
$$$$
