PND.pdb
     RDKit          3D

 24 24  0  0  1  0  0  0  0  0999 V2000
    8.0377  -13.4937   20.6644 N   0  0  0  0  0  0  0  0  0  0  0  0
    7.9741  -12.2077   20.0204 C   0  0  0  0  0  0  0  0  0  0  0  0
    8.2818  -12.4641   18.5598 C   0  0  0  0  0  0  0  0  0  0  0  0
    7.6868  -13.8296   18.3459 C   0  0  0  0  0  0  0  0  0  0  0  0
    7.5465  -14.4807   19.7051 C   0  0  1  0  0  0  0  0  0  0  0  0
    8.3345  -15.7126   19.8506 C   0  0  0  0  0  0  0  0  0  0  0  0
    8.1020  -16.7246   19.1327 O   0  0  0  0  0  0  0  0  0  0  0  0
   11.8859  -19.0017   18.1264 N   0  0  0  0  0  0  0  0  0  0  0  0
   11.8881  -18.2318   19.3465 C   0  0  0  0  0  0  0  0  0  0  0  0
   12.6792  -18.6013   20.2761 O   0  0  0  0  0  0  0  0  0  0  0  0
   10.9888  -17.0627   19.4732 C   0  0  0  0  0  0  0  0  0  0  0  0
   10.2569  -17.0236   20.8101 C   0  0  2  0  0  0  0  0  0  0  0  0
    9.4017  -15.8579   20.7942 N   0  0  0  0  0  0  0  0  0  0  0  0
   11.2701  -16.9667   21.8798 C   0  0  0  0  0  0  0  0  0  0  0  0
   11.9696  -15.9190   21.9710 O   0  0  0  0  0  0  0  0  0  0  0  0
   11.5063  -18.0012   22.8026 N   0  0  0  0  0  0  0  0  0  0  0  0
   12.0618  -17.7955   24.1493 C   0  0  1  0  0  0  0  0  0  0  0  0
   11.2679  -18.6088   25.1478 C   0  0  0  0  0  0  0  0  0  0  0  0
   11.8147  -18.4250   26.4946 C   0  0  0  0  0  0  0  0  0  0  0  0
   12.7738  -17.6548   26.7043 O   0  0  0  0  0  0  0  0  0  0  0  0
   13.4290  -18.3653   24.0823 C   0  0  0  0  0  0  0  0  0  0  0  0
   13.7432  -19.3871   23.4368 O   0  0  0  0  0  0  0  0  0  0  0  0
   11.3061  -19.0899   27.6185 O   0  0  0  0  0  0  0  0  0  0  0  0
   14.4814  -17.7553   24.7726 O   0  0  0  0  0  0  0  0  0  0  0  0
  1  5  1  0
  1  2  1  0
  2  3  1  0
  4  3  1  0
  5  4  1  0
  6  7  2  0
  5  6  1  6
  8  9  1  0
  9 10  2  0
 11  9  1  0
 12 11  1  6
 12 13  1  0
 13  6  1  0
 14 15  2  0
 14 12  1  0
 16 14  1  0
 17 16  1  0
 17 18  1  1
 19 18  1  0
 20 19  2  0
 21 24  1  0
 21 17  1  0
 22 21  2  0
 23 19  1  0
M  END
$$$$
