NVE.pdb
     RDKit          3D

 25 24  0  0  1  0  0  0  0  0999 V2000
    7.6175  -17.9554   18.3870 N   0  0  0  0  0  0  0  0  0  0  0  0
    6.8817  -17.1532   19.2953 C   0  0  0  0  0  0  0  0  0  0  0  0
    5.7516  -16.7733   18.9403 O   0  0  0  0  0  0  0  0  0  0  0  0
    7.4528  -16.8002   20.5932 C   0  0  0  0  0  0  0  0  0  0  0  0
    7.6560  -15.3305   20.8172 C   0  0  2  0  0  0  0  0  0  0  0  0
    8.4704  -14.7916   19.7533 N   0  0  0  0  0  0  0  0  0  0  0  0
    8.3341  -15.0193   22.1127 C   0  0  0  0  0  0  0  0  0  0  0  0
    9.5670  -15.2217   22.2184 O   0  0  0  0  0  0  0  0  0  0  0  0
    6.2392  -13.4989   25.8672 C   0  0  0  0  0  0  0  0  0  0  0  0
    7.6244  -13.3160   25.3052 C   0  0  2  0  0  0  0  0  0  0  0  0
    7.6537  -11.9823   24.5813 C   0  0  0  0  0  0  0  0  0  0  0  0
    8.1876  -14.4314   24.5310 C   0  0  2  0  0  0  0  0  0  0  0  0
    7.6154  -14.5065   23.2029 N   0  0  0  0  0  0  0  0  0  0  0  0
    8.4169  -15.7167   25.1642 C   0  0  0  0  0  0  0  0  0  0  0  0
    7.4153  -16.5204   25.2412 O   0  0  0  0  0  0  0  0  0  0  0  0
    9.6083  -16.1807   25.7002 N   0  0  0  0  0  0  0  0  0  0  0  0
    9.8100  -17.5232   26.2315 C   0  0  1  0  0  0  0  0  0  0  0  0
   10.6720  -18.3547   25.3016 C   0  0  0  0  0  0  0  0  0  0  0  0
   12.0450  -17.7151   25.1906 C   0  0  0  0  0  0  0  0  0  0  0  0
   12.9220  -18.4598   24.2658 C   0  0  0  0  0  0  0  0  0  0  0  0
   13.2371  -19.6483   24.5022 O   0  0  0  0  0  0  0  0  0  0  0  0
   10.5318  -17.3922   27.5137 C   0  0  0  0  0  0  0  0  0  0  0  0
   11.0025  -16.1594   27.9148 O   0  0  0  0  0  0  0  0  0  0  0  0
   13.4472  -17.9040   23.0933 O   0  0  0  0  0  0  0  0  0  0  0  0
   10.7228  -18.3880   28.2432 O   0  0  0  0  0  0  0  0  0  0  0  0
  1  2  1  0
  2  4  1  0
  2  3  2  0
  5  7  1  0
  5  4  1  0
  5  6  1  6
  7  8  2  0
 10  9  1  6
 10 11  1  0
 10 12  1  0
 12 14  1  0
 12 13  1  6
 13  7  1  0
 14 15  2  0
 14 16  1  0
 16 17  1  0
 17 22  1  0
 17 18  1  6
 19 18  1  0
 20 19  1  0
 21 20  2  0
 22 23  1  0
 24 20  1  0
 25 22  2  0
M  END
$$$$
