NVE.pdb
     RDKit          3D

 25 24  0  0  1  0  0  0  0  0999 V2000
    9.4380  -20.7470   18.4303 N   0  0  0  0  0  0  0  0  0  0  0  0
    8.5881  -19.6329   18.6455 C   0  0  0  0  0  0  0  0  0  0  0  0
    7.7173  -19.4011   17.7880 O   0  0  0  0  0  0  0  0  0  0  0  0
    8.7504  -18.8043   19.8381 C   0  0  0  0  0  0  0  0  0  0  0  0
    8.9216  -17.3376   19.5719 C   0  0  2  0  0  0  0  0  0  0  0  0
   10.0183  -17.1421   18.6529 N   0  0  0  0  0  0  0  0  0  0  0  0
    9.2132  -16.5441   20.8049 C   0  0  0  0  0  0  0  0  0  0  0  0
   10.3779  -16.5471   21.2694 O   0  0  0  0  0  0  0  0  0  0  0  0
    7.7564  -12.9186   21.9164 C   0  0  0  0  0  0  0  0  0  0  0  0
    7.5991  -14.0082   22.9440 C   0  0  2  0  0  0  0  0  0  0  0  0
    7.7462  -13.3719   24.3142 C   0  0  0  0  0  0  0  0  0  0  0  0
    8.4006  -15.2265   22.7591 C   0  0  2  0  0  0  0  0  0  0  0  0
    8.2094  -15.8009   21.4437 N   0  0  0  0  0  0  0  0  0  0  0  0
    8.5117  -16.1967   23.8324 C   0  0  0  0  0  0  0  0  0  0  0  0
    7.7950  -17.2609   23.7384 O   0  0  0  0  0  0  0  0  0  0  0  0
    9.3137  -16.1042   24.9594 N   0  0  0  0  0  0  0  0  0  0  0  0
   10.0264  -17.2237   25.5627 C   0  0  1  0  0  0  0  0  0  0  0  0
   11.2031  -17.6476   24.7055 C   0  0  0  0  0  0  0  0  0  0  0  0
   11.8847  -18.8415   25.3508 C   0  0  0  0  0  0  0  0  0  0  0  0
   12.9962  -19.3500   24.5232 C   0  0  0  0  0  0  0  0  0  0  0  0
   14.1824  -19.2379   24.9081 O   0  0  0  0  0  0  0  0  0  0  0  0
   10.5605  -16.7653   26.8614 C   0  0  0  0  0  0  0  0  0  0  0  0
   10.8847  -15.4369   27.0411 O   0  0  0  0  0  0  0  0  0  0  0  0
   12.8060  -19.9754   23.2853 O   0  0  0  0  0  0  0  0  0  0  0  0
   10.7234  -17.5688   27.8039 O   0  0  0  0  0  0  0  0  0  0  0  0
  1  2  1  0
  2  4  1  0
  2  3  2  0
  5  7  1  0
  5  4  1  0
  5  6  1  6
  7  8  2  0
 10  9  1  6
 10 11  1  0
 10 12  1  0
 12 14  1  0
 12 13  1  6
 13  7  1  0
 14 15  2  0
 14 16  1  0
 16 17  1  0
 17 22  1  0
 17 18  1  6
 19 18  1  0
 20 19  1  0
 21 20  2  0
 22 23  1  0
 24 20  1  0
 25 22  2  0
M  END
$$$$
