NVE.pdb
     RDKit          3D

 25 24  0  0  1  0  0  0  0  0999 V2000
    5.0451  -17.3441   20.4257 N   0  0  0  0  0  0  0  0  0  0  0  0
    6.4195  -17.0401   20.2564 C   0  0  0  0  0  0  0  0  0  0  0  0
    6.9047  -17.1890   19.1208 O   0  0  0  0  0  0  0  0  0  0  0  0
    7.2135  -16.5713   21.3901 C   0  0  0  0  0  0  0  0  0  0  0  0
    7.2213  -15.0837   21.5859 C   0  0  2  0  0  0  0  0  0  0  0  0
    7.8214  -14.4519   20.4343 N   0  0  0  0  0  0  0  0  0  0  0  0
    7.9883  -14.6517   22.7943 C   0  0  0  0  0  0  0  0  0  0  0  0
    9.2370  -14.5632   22.7231 O   0  0  0  0  0  0  0  0  0  0  0  0
    6.1178  -13.2717   26.6401 C   0  0  0  0  0  0  0  0  0  0  0  0
    7.4459  -12.9847   25.9906 C   0  0  2  0  0  0  0  0  0  0  0  0
    7.3109  -11.6800   25.2267 C   0  0  0  0  0  0  0  0  0  0  0  0
    8.0642  -14.0713   25.2176 C   0  0  2  0  0  0  0  0  0  0  0  0
    7.3347  -14.3449   23.9971 N   0  0  0  0  0  0  0  0  0  0  0  0
    8.5745  -15.2492   25.8942 C   0  0  0  0  0  0  0  0  0  0  0  0
    7.7267  -16.1713   26.1876 O   0  0  0  0  0  0  0  0  0  0  0  0
    9.8882  -15.4950   26.2625 N   0  0  0  0  0  0  0  0  0  0  0  0
   10.3627  -16.7385   26.8573 C   0  0  1  0  0  0  0  0  0  0  0  0
   11.8153  -16.9931   26.5047 C   0  0  0  0  0  0  0  0  0  0  0  0
   11.9476  -17.1146   24.9966 C   0  0  0  0  0  0  0  0  0  0  0  0
   13.3491  -16.9672   24.5570 C   0  0  0  0  0  0  0  0  0  0  0  0
   14.1828  -16.3659   25.2720 O   0  0  0  0  0  0  0  0  0  0  0  0
   10.2769  -16.5928   28.3248 C   0  0  0  0  0  0  0  0  0  0  0  0
   10.5237  -17.6782   29.1390 O   0  0  0  0  0  0  0  0  0  0  0  0
   13.8293  -17.4755   23.3444 O   0  0  0  0  0  0  0  0  0  0  0  0
    9.9823  -15.4940   28.8408 O   0  0  0  0  0  0  0  0  0  0  0  0
  1  2  1  0
  2  4  1  0
  2  3  2  0
  5  7  1  0
  5  4  1  0
  5  6  1  6
  7  8  2  0
 10  9  1  6
 10 11  1  0
 10 12  1  0
 12 14  1  0
 12 13  1  6
 13  7  1  0
 14 15  2  0
 14 16  1  0
 16 17  1  0
 17 22  1  0
 17 18  1  1
 19 18  1  0
 20 19  1  0
 21 20  2  0
 22 23  1  0
 24 20  1  0
 25 22  2  0
M  END
$$$$
