NVE.pdb
     RDKit          3D

 25 24  0  0  1  0  0  0  0  0999 V2000
    6.8362  -18.7034   20.1166 N   0  0  0  0  0  0  0  0  0  0  0  0
    6.1970  -17.7568   20.9565 C   0  0  0  0  0  0  0  0  0  0  0  0
    4.9771  -17.5759   20.7932 O   0  0  0  0  0  0  0  0  0  0  0  0
    6.9656  -17.0344   21.9677 C   0  0  0  0  0  0  0  0  0  0  0  0
    6.9029  -15.5390   21.8623 C   0  0  2  0  0  0  0  0  0  0  0  0
    7.3951  -15.1288   20.5680 N   0  0  0  0  0  0  0  0  0  0  0  0
    7.7177  -14.8394   22.9024 C   0  0  0  0  0  0  0  0  0  0  0  0
    8.9527  -14.7142   22.7256 O   0  0  0  0  0  0  0  0  0  0  0  0
    7.9943  -11.9573   26.9113 C   0  0  0  0  0  0  0  0  0  0  0  0
    7.2560  -12.6375   25.7887 C   0  0  2  0  0  0  0  0  0  0  0  0
    5.8431  -12.9140   26.2697 C   0  0  0  0  0  0  0  0  0  0  0  0
    7.9111  -13.7914   25.1561 C   0  0  2  0  0  0  0  0  0  0  0  0
    7.1235  -14.3241   24.0640 N   0  0  0  0  0  0  0  0  0  0  0  0
    8.5698  -14.7942   25.9722 C   0  0  0  0  0  0  0  0  0  0  0  0
    7.8505  -15.7749   26.3918 O   0  0  0  0  0  0  0  0  0  0  0  0
    9.9026  -14.8143   26.3532 N   0  0  0  0  0  0  0  0  0  0  0  0
   10.5473  -15.9188   27.0530 C   0  0  1  0  0  0  0  0  0  0  0  0
   12.0449  -15.9158   26.8157 C   0  0  0  0  0  0  0  0  0  0  0  0
   12.3187  -16.2436   25.3582 C   0  0  0  0  0  0  0  0  0  0  0  0
   13.7597  -16.1795   25.0447 C   0  0  0  0  0  0  0  0  0  0  0  0
   14.5859  -15.8111   25.9105 O   0  0  0  0  0  0  0  0  0  0  0  0
   10.3227  -15.7225   28.4998 C   0  0  0  0  0  0  0  0  0  0  0  0
   10.7125  -16.6970   29.3945 O   0  0  0  0  0  0  0  0  0  0  0  0
   14.2873  -16.5169   23.7928 O   0  0  0  0  0  0  0  0  0  0  0  0
    9.7815  -14.6805   28.9260 O   0  0  0  0  0  0  0  0  0  0  0  0
  1  2  1  0
  2  4  1  0
  2  3  2  0
  5  7  1  0
  5  4  1  0
  5  6  1  6
  7  8  2  0
 10  9  1  1
 10 11  1  0
 10 12  1  0
 12 14  1  0
 12 13  1  1
 13  7  1  0
 14 15  2  0
 14 16  1  0
 16 17  1  0
 17 22  1  0
 17 18  1  1
 19 18  1  0
 20 19  1  0
 21 20  2  0
 22 23  1  0
 24 20  1  0
 25 22  2  0
M  END
$$$$
