NVE.pdb
     RDKit          3D

 25 24  0  0  1  0  0  0  0  0999 V2000
    7.1930  -18.9035   15.8449 N   0  0  0  0  0  0  0  0  0  0  0  0
    6.8699  -19.2630   17.1777 C   0  0  0  0  0  0  0  0  0  0  0  0
    6.2093  -20.3032   17.3477 O   0  0  0  0  0  0  0  0  0  0  0  0
    7.3087  -18.4252   18.2917 C   0  0  0  0  0  0  0  0  0  0  0  0
    7.8264  -17.0721   17.9010 C   0  0  2  0  0  0  0  0  0  0  0  0
    8.7518  -17.2122   16.8013 N   0  0  0  0  0  0  0  0  0  0  0  0
    8.5406  -16.3704   19.0113 C   0  0  0  0  0  0  0  0  0  0  0  0
    9.7441  -16.6455   19.2305 O   0  0  0  0  0  0  0  0  0  0  0  0
    6.6375  -13.5007   22.0230 C   0  0  0  0  0  0  0  0  0  0  0  0
    7.9272  -13.4765   21.2457 C   0  0  2  0  0  0  0  0  0  0  0  0
    7.7216  -12.5735   20.0431 C   0  0  0  0  0  0  0  0  0  0  0  0
    8.5423  -14.7724   20.9247 C   0  0  2  0  0  0  0  0  0  0  0  0
    7.8878  -15.4149   19.8042 N   0  0  0  0  0  0  0  0  0  0  0  0
    8.9426  -15.6736   21.9892 C   0  0  0  0  0  0  0  0  0  0  0  0
    8.4151  -16.8470   21.9946 O   0  0  0  0  0  0  0  0  0  0  0  0
    9.8408  -15.4087   23.0115 N   0  0  0  0  0  0  0  0  0  0  0  0
   10.7776  -16.3800   23.5630 C   0  0  1  0  0  0  0  0  0  0  0  0
   12.2072  -16.0255   23.2027 C   0  0  0  0  0  0  0  0  0  0  0  0
   13.1439  -17.0541   23.8117 C   0  0  0  0  0  0  0  0  0  0  0  0
   14.1188  -17.5583   22.8246 C   0  0  0  0  0  0  0  0  0  0  0  0
   15.0566  -16.8314   22.4244 O   0  0  0  0  0  0  0  0  0  0  0  0
   10.6605  -16.3275   25.0346 C   0  0  0  0  0  0  0  0  0  0  0  0
    9.9036  -15.3397   25.6292 O   0  0  0  0  0  0  0  0  0  0  0  0
   14.0637  -18.8478   22.2828 O   0  0  0  0  0  0  0  0  0  0  0  0
   11.2409  -17.1699   25.7515 O   0  0  0  0  0  0  0  0  0  0  0  0
  1  2  1  0
  2  4  1  0
  2  3  2  0
  5  7  1  0
  5  4  1  0
  5  6  1  6
  7  8  2  0
 10  9  1  6
 10 11  1  0
 10 12  1  0
 12 14  1  0
 12 13  1  6
 13  7  1  0
 14 15  2  0
 14 16  1  0
 16 17  1  0
 17 22  1  0
 17 18  1  1
 19 18  1  0
 20 19  1  0
 21 20  2  0
 22 23  1  0
 24 20  1  0
 25 22  2  0
M  END
$$$$
