NVE.pdb
     RDKit          3D

 25 24  0  0  1  0  0  0  0  0999 V2000
   10.2065  -17.6331   14.1649 N   0  0  0  0  0  0  0  0  0  0  0  0
   10.2042  -18.3312   15.3988 C   0  0  0  0  0  0  0  0  0  0  0  0
    9.9998  -19.5577   15.3641 O   0  0  0  0  0  0  0  0  0  0  0  0
   10.4359  -17.6127   16.6500 C   0  0  0  0  0  0  0  0  0  0  0  0
    9.2426  -17.5145   17.5543 C   0  0  2  0  0  0  0  0  0  0  0  0
    8.1171  -17.0020   16.8086 N   0  0  0  0  0  0  0  0  0  0  0  0
    9.4625  -16.6117   18.7255 C   0  0  0  0  0  0  0  0  0  0  0  0
   10.5683  -16.6394   19.3161 O   0  0  0  0  0  0  0  0  0  0  0  0
    7.7697  -12.8476   19.2866 C   0  0  0  0  0  0  0  0  0  0  0  0
    7.6721  -13.8304   20.4235 C   0  0  2  0  0  0  0  0  0  0  0  0
    7.7118  -13.0397   21.7186 C   0  0  0  0  0  0  0  0  0  0  0  0
    8.5849  -14.9823   20.3958 C   0  0  2  0  0  0  0  0  0  0  0  0
    8.4567  -15.7399   19.1684 N   0  0  0  0  0  0  0  0  0  0  0  0
    8.7787  -15.7884   21.5866 C   0  0  0  0  0  0  0  0  0  0  0  0
    7.7928  -16.5230   21.9654 O   0  0  0  0  0  0  0  0  0  0  0  0
    9.9209  -15.8571   22.3695 N   0  0  0  0  0  0  0  0  0  0  0  0
   10.0783  -16.7251   23.5301 C   0  0  1  0  0  0  0  0  0  0  0  0
   10.9268  -17.9363   23.1950 C   0  0  0  0  0  0  0  0  0  0  0  0
   12.2798  -17.4708   22.6856 C   0  0  0  0  0  0  0  0  0  0  0  0
   13.1316  -18.6062   22.2803 C   0  0  0  0  0  0  0  0  0  0  0  0
   13.0065  -19.1263   21.1482 O   0  0  0  0  0  0  0  0  0  0  0  0
   10.7890  -15.9545   24.5709 C   0  0  0  0  0  0  0  0  0  0  0  0
   11.3072  -14.7117   24.2726 O   0  0  0  0  0  0  0  0  0  0  0  0
   14.1109  -19.1641   23.1105 O   0  0  0  0  0  0  0  0  0  0  0  0
   10.9278  -16.4158   25.7234 O   0  0  0  0  0  0  0  0  0  0  0  0
  1  2  1  0
  2  4  1  0
  2  3  2  0
  5  7  1  0
  5  4  1  0
  5  6  1  6
  7  8  2  0
 10  9  1  6
 10 11  1  0
 10 12  1  0
 12 14  1  0
 12 13  1  6
 13  7  1  0
 14 15  2  0
 14 16  1  0
 16 17  1  0
 17 22  1  0
 17 18  1  6
 19 18  1  0
 20 19  1  0
 21 20  2  0
 22 23  1  0
 24 20  1  0
 25 22  2  0
M  END
$$$$
