NVE.pdb
     RDKit          3D

 25 24  0  0  1  0  0  0  0  0999 V2000
    7.5889  -17.0362   19.1810 N   0  0  0  0  0  0  0  0  0  0  0  0
    8.4729  -15.9286   19.1400 C   0  0  0  0  0  0  0  0  0  0  0  0
    8.9442  -15.6109   18.0335 O   0  0  0  0  0  0  0  0  0  0  0  0
    8.8017  -15.2050   20.3663 C   0  0  0  0  0  0  0  0  0  0  0  0
    8.1955  -15.7702   21.6171 C   0  0  2  0  0  0  0  0  0  0  0  0
    6.7607  -15.6139   21.5673 N   0  0  0  0  0  0  0  0  0  0  0  0
    8.6838  -15.1033   22.8629 C   0  0  0  0  0  0  0  0  0  0  0  0
    9.9186  -15.0136   23.0613 O   0  0  0  0  0  0  0  0  0  0  0  0
    7.8093  -12.3655   26.8904 C   0  0  0  0  0  0  0  0  0  0  0  0
    7.3508  -13.0715   25.6416 C   0  0  2  0  0  0  0  0  0  0  0  0
    5.9120  -13.5028   25.8600 C   0  0  0  0  0  0  0  0  0  0  0  0
    8.2209  -14.1310   25.1113 C   0  0  2  0  0  0  0  0  0  0  0  0
    7.7860  -14.5796   23.8050 N   0  0  0  0  0  0  0  0  0  0  0  0
    8.7008  -15.1860   25.9842 C   0  0  0  0  0  0  0  0  0  0  0  0
    7.8950  -16.1590   26.2273 O   0  0  0  0  0  0  0  0  0  0  0  0
    9.9449  -15.2640   26.5910 N   0  0  0  0  0  0  0  0  0  0  0  0
   10.3671  -16.3403   27.4789 C   0  0  1  0  0  0  0  0  0  0  0  0
   11.7535  -16.8357   27.1158 C   0  0  0  0  0  0  0  0  0  0  0  0
   11.7203  -17.4273   25.7174 C   0  0  0  0  0  0  0  0  0  0  0  0
   12.7129  -18.5081   25.5572 C   0  0  0  0  0  0  0  0  0  0  0  0
   12.4348  -19.5387   24.9027 O   0  0  0  0  0  0  0  0  0  0  0  0
   10.4327  -15.7898   28.8481 C   0  0  0  0  0  0  0  0  0  0  0  0
   10.5687  -16.6403   29.9253 O   0  0  0  0  0  0  0  0  0  0  0  0
   13.9977  -18.4568   26.1106 O   0  0  0  0  0  0  0  0  0  0  0  0
   10.3660  -14.5580   29.0445 O   0  0  0  0  0  0  0  0  0  0  0  0
  1  2  1  0
  2  4  1  0
  2  3  2  0
  5  7  1  0
  5  4  1  0
  5  6  1  6
  7  8  2  0
 10  9  1  1
 10 11  1  0
 10 12  1  0
 12 14  1  0
 12 13  1  6
 13  7  1  0
 14 15  2  0
 14 16  1  0
 16 17  1  0
 17 22  1  0
 17 18  1  6
 19 18  1  0
 20 19  1  0
 21 20  2  0
 22 23  1  0
 24 20  1  0
 25 22  2  0
M  END
$$$$
