NVE.pdb
     RDKit          3D

 25 24  0  0  1  0  0  0  0  0999 V2000
   10.7209  -18.0088   15.6612 N   0  0  0  0  0  0  0  0  0  0  0  0
    9.5918  -17.6778   16.4520 C   0  0  0  0  0  0  0  0  0  0  0  0
    8.4861  -18.1138   16.0848 O   0  0  0  0  0  0  0  0  0  0  0  0
    9.7486  -16.8538   17.6485 C   0  0  0  0  0  0  0  0  0  0  0  0
    9.4334  -17.5475   18.9411 C   0  0  2  0  0  0  0  0  0  0  0  0
    8.0270  -17.8729   18.9799 N   0  0  0  0  0  0  0  0  0  0  0  0
    9.7430  -16.7188   20.1464 C   0  0  0  0  0  0  0  0  0  0  0  0
   10.9219  -16.3361   20.3354 O   0  0  0  0  0  0  0  0  0  0  0  0
    6.8136  -14.8693   23.2381 C   0  0  0  0  0  0  0  0  0  0  0  0
    8.0904  -14.5435   22.5089 C   0  0  2  0  0  0  0  0  0  0  0  0
    7.7186  -13.7790   21.2514 C   0  0  0  0  0  0  0  0  0  0  0  0
    9.0350  -15.6468   22.2829 C   0  0  2  0  0  0  0  0  0  0  0  0
    8.7397  -16.3652   21.0608 N   0  0  0  0  0  0  0  0  0  0  0  0
    9.4566  -16.4846   23.3901 C   0  0  0  0  0  0  0  0  0  0  0  0
    8.7261  -17.5075   23.6639 O   0  0  0  0  0  0  0  0  0  0  0  0
   10.5719  -16.3044   24.1937 N   0  0  0  0  0  0  0  0  0  0  0  0
   10.9896  -17.2206   25.2479 C   0  0  1  0  0  0  0  0  0  0  0  0
   12.4943  -17.4079   25.2441 C   0  0  0  0  0  0  0  0  0  0  0  0
   12.9045  -18.1171   23.9653 C   0  0  0  0  0  0  0  0  0  0  0  0
   14.3642  -18.3271   23.9005 C   0  0  0  0  0  0  0  0  0  0  0  0
   15.0307  -18.5059   24.9454 O   0  0  0  0  0  0  0  0  0  0  0  0
   10.6173  -16.6122   26.5415 C   0  0  0  0  0  0  0  0  0  0  0  0
   10.7914  -17.3226   27.7108 O   0  0  0  0  0  0  0  0  0  0  0  0
   15.0839  -18.3406   22.7000 O   0  0  0  0  0  0  0  0  0  0  0  0
   10.1443  -15.4571   26.5909 O   0  0  0  0  0  0  0  0  0  0  0  0
  1  2  1  0
  2  4  1  0
  2  3  2  0
  5  7  1  0
  5  4  1  0
  5  6  1  6
  7  8  2  0
 10  9  1  6
 10 11  1  0
 10 12  1  0
 12 14  1  0
 12 13  1  6
 13  7  1  0
 14 15  2  0
 14 16  1  0
 16 17  1  0
 17 22  1  0
 17 18  1  1
 19 18  1  0
 20 19  1  0
 21 20  2  0
 22 23  1  0
 24 20  1  0
 25 22  2  0
M  END
$$$$
