NVE.pdb
     RDKit          3D

 25 24  0  0  1  0  0  0  0  0999 V2000
    7.1693  -17.5835   13.6022 N   0  0  0  0  0  0  0  0  0  0  0  0
    8.4076  -17.7866   14.2620 C   0  0  0  0  0  0  0  0  0  0  0  0
    9.0974  -18.7572   13.9022 O   0  0  0  0  0  0  0  0  0  0  0  0
    8.8337  -16.8751   15.3218 C   0  0  0  0  0  0  0  0  0  0  0  0
    8.6050  -17.3757   16.7177 C   0  0  2  0  0  0  0  0  0  0  0  0
    7.1914  -17.5857   16.9259 N   0  0  0  0  0  0  0  0  0  0  0  0
    9.0851  -16.4287   17.7702 C   0  0  0  0  0  0  0  0  0  0  0  0
   10.3173  -16.2364   17.8996 O   0  0  0  0  0  0  0  0  0  0  0  0
    8.0756  -12.7580   20.8769 C   0  0  0  0  0  0  0  0  0  0  0  0
    7.6031  -13.9892   20.1496 C   0  0  2  0  0  0  0  0  0  0  0  0
    6.4748  -14.5977   20.9623 C   0  0  0  0  0  0  0  0  0  0  0  0
    8.6279  -14.9552   19.7284 C   0  0  2  0  0  0  0  0  0  0  0  0
    8.1824  -15.7567   18.6078 N   0  0  0  0  0  0  0  0  0  0  0  0
    9.3995  -15.6795   20.7212 C   0  0  0  0  0  0  0  0  0  0  0  0
    9.0232  -16.8784   20.9973 O   0  0  0  0  0  0  0  0  0  0  0  0
   10.5100  -15.2192   21.4118 N   0  0  0  0  0  0  0  0  0  0  0  0
   11.3764  -16.0526   22.2364 C   0  0  1  0  0  0  0  0  0  0  0  0
   12.7900  -15.5050   22.2699 C   0  0  0  0  0  0  0  0  0  0  0  0
   13.6843  -16.4805   23.0149 C   0  0  0  0  0  0  0  0  0  0  0  0
   15.0939  -16.0423   23.0117 C   0  0  0  0  0  0  0  0  0  0  0  0
   15.5997  -15.5257   21.9893 O   0  0  0  0  0  0  0  0  0  0  0  0
   10.8494  -16.0166   23.6159 C   0  0  0  0  0  0  0  0  0  0  0  0
   11.2083  -16.9990   24.5148 O   0  0  0  0  0  0  0  0  0  0  0  0
   15.9387  -16.1703   24.1204 O   0  0  0  0  0  0  0  0  0  0  0  0
   10.0789  -15.1037   23.9811 O   0  0  0  0  0  0  0  0  0  0  0  0
  1  2  1  0
  2  4  1  0
  2  3  2  0
  5  7  1  0
  5  4  1  0
  5  6  1  1
  7  8  2  0
 10  9  1  1
 10 11  1  0
 10 12  1  0
 12 14  1  0
 12 13  1  1
 13  7  1  0
 14 15  2  0
 14 16  1  0
 16 17  1  0
 17 22  1  0
 17 18  1  1
 19 18  1  0
 20 19  1  0
 21 20  2  0
 22 23  1  0
 24 20  1  0
 25 22  2  0
M  END
$$$$
