NVE.pdb
     RDKit          3D

 25 24  0  0  1  0  0  0  0  0999 V2000
    7.2163  -19.4676   15.4568 N   0  0  0  0  0  0  0  0  0  0  0  0
    7.4840  -19.9130   16.7759 C   0  0  0  0  0  0  0  0  0  0  0  0
    7.1468  -21.0739   17.0693 O   0  0  0  0  0  0  0  0  0  0  0  0
    8.1325  -19.0216   17.7351 C   0  0  0  0  0  0  0  0  0  0  0  0
    8.2425  -17.5910   17.2962 C   0  0  2  0  0  0  0  0  0  0  0  0
    9.0898  -17.5114   16.1294 N   0  0  0  0  0  0  0  0  0  0  0  0
    8.8232  -16.6956   18.3431 C   0  0  0  0  0  0  0  0  0  0  0  0
   10.0646  -16.6902   18.5191 O   0  0  0  0  0  0  0  0  0  0  0  0
    8.1631  -12.7550   21.2907 C   0  0  0  0  0  0  0  0  0  0  0  0
    7.6247  -13.8859   20.4546 C   0  0  2  0  0  0  0  0  0  0  0  0
    6.3188  -14.3392   21.0815 C   0  0  0  0  0  0  0  0  0  0  0  0
    8.5489  -14.9832   20.1341 C   0  0  2  0  0  0  0  0  0  0  0  0
    8.0043  -15.8667   19.1243 N   0  0  0  0  0  0  0  0  0  0  0  0
    9.2811  -15.6531   21.1926 C   0  0  0  0  0  0  0  0  0  0  0  0
    8.7895  -16.7544   21.6406 O   0  0  0  0  0  0  0  0  0  0  0  0
   10.4649  -15.2349   21.7807 N   0  0  0  0  0  0  0  0  0  0  0  0
   11.2823  -16.0525   22.6687 C   0  0  1  0  0  0  0  0  0  0  0  0
   12.7310  -15.6053   22.6433 C   0  0  0  0  0  0  0  0  0  0  0  0
   13.5563  -16.5416   23.5087 C   0  0  0  0  0  0  0  0  0  0  0  0
   15.0005  -16.4103   23.2332 C   0  0  0  0  0  0  0  0  0  0  0  0
   15.7709  -17.3857   23.3847 O   0  0  0  0  0  0  0  0  0  0  0  0
   10.7781  -15.8593   24.0437 C   0  0  0  0  0  0  0  0  0  0  0  0
    9.8524  -14.8707   24.3039 O   0  0  0  0  0  0  0  0  0  0  0  0
   15.5920  -15.2195   22.7955 O   0  0  0  0  0  0  0  0  0  0  0  0
   11.1811  -16.5829   24.9787 O   0  0  0  0  0  0  0  0  0  0  0  0
  1  2  1  0
  2  4  1  0
  2  3  2  0
  5  7  1  0
  5  4  1  0
  5  6  1  6
  7  8  2  0
 10  9  1  1
 10 11  1  0
 10 12  1  0
 12 14  1  0
 12 13  1  1
 13  7  1  0
 14 15  2  0
 14 16  1  0
 16 17  1  0
 17 22  1  0
 17 18  1  1
 19 18  1  0
 20 19  1  0
 21 20  2  0
 22 23  1  0
 24 20  1  0
 25 22  2  0
M  END
$$$$
