GYR.pdb
     RDKit          3D

 28 28  0  0  1  0  0  0  0  0999 V2000
   28.8281  -20.9217  -15.6806 N   0  0  0  0  0  0  0  0  0  0  0  0
   28.6088  -20.5915  -14.3181 C   0  0  0  0  0  0  0  0  0  0  0  0
   27.3641  -21.1790  -13.7539 C   0  0  0  0  0  0  0  0  0  0  0  0
   26.5528  -21.7556  -14.5207 O   0  0  0  0  0  0  0  0  0  0  0  0
   28.4316  -18.2149   -7.0422 O   0  0  0  0  0  0  0  0  0  0  0  0
   27.8297  -19.1758   -7.8650 C   0  0  0  0  0  0  0  0  0  0  0  0
   28.5883  -20.1407   -8.4855 C   0  0  0  0  0  0  0  0  0  0  0  0
   28.0018  -21.0897   -9.2963 C   0  0  0  0  0  0  0  0  0  0  0  0
   26.6378  -21.1250   -9.5284 C   0  0  0  0  0  0  0  0  0  0  0  0
   26.0309  -22.1593  -10.3961 C   0  0  0  0  0  0  0  0  0  0  0  0
   25.8432  -21.7673  -11.8188 C   0  0  2  0  0  0  0  0  0  0  0  0
   27.0327  -21.1268  -12.3814 N   0  0  0  0  0  0  0  0  0  0  0  0
   24.6440  -20.9489  -12.1006 C   0  0  0  0  0  0  0  0  0  0  0  0
   24.6562  -19.6779  -11.9366 O   0  0  0  0  0  0  0  0  0  0  0  0
   25.8901  -20.1550   -8.9026 C   0  0  0  0  0  0  0  0  0  0  0  0
   26.4689  -19.1922   -8.0824 C   0  0  0  0  0  0  0  0  0  0  0  0
   21.7007  -20.3454  -19.4935 N   0  0  0  0  0  0  0  0  0  0  0  0
   22.1042  -19.1796  -18.7964 C   0  0  0  0  0  0  0  0  0  0  0  0
   22.6625  -18.2268  -19.4765 N   0  0  0  0  0  0  0  0  0  0  0  0
   21.8907  -19.0856  -17.3955 N   0  0  0  0  0  0  0  0  0  0  0  0
   21.2894  -20.2004  -16.6959 C   0  0  0  0  0  0  0  0  0  0  0  0
   21.2244  -19.9308  -15.1899 C   0  0  0  0  0  0  0  0  0  0  0  0
   22.2746  -20.7362  -14.5150 C   0  0  0  0  0  0  0  0  0  0  0  0
   22.3348  -20.5776  -13.0104 C   0  0  2  0  0  0  0  0  0  0  0  0
   23.4135  -21.4888  -12.5677 N   0  0  0  0  0  0  0  0  0  0  0  0
   21.0375  -21.0178  -12.4497 C   0  0  0  0  0  0  0  0  0  0  0  0
   20.9023  -22.3660  -12.1060 O   0  0  0  0  0  0  0  0  0  0  0  0
   20.0546  -20.2695  -12.2625 O   0  0  0  0  0  0  0  0  0  0  0  0
  2  1  1  0
  3  2  1  0
  4  3  2  0
  6 16  2  0
  6  5  1  0
  7  6  1  0
  8  9  1  0
  8  7  2  0
  9 15  2  0
 10  9  1  0
 11 10  1  1
 11 12  1  0
 12  3  1  0
 13 25  1  0
 13 11  1  0
 14 13  2  0
 15 16  1  0
 18 19  2  0
 18 17  1  0
 20 18  1  0
 21 20  1  0
 22 21  1  0
 23 22  1  0
 24 23  1  6
 24 25  1  0
 26 27  1  0
 26 24  1  0
 28 26  2  0
M  END
$$$$
