GYR.pdb
     RDKit          3D

 28 28  0  0  1  0  0  0  0  0999 V2000
    8.1542  -18.9755   -0.3081 N   0  0  0  0  0  0  0  0  0  0  0  0
    9.4869  -19.1118   -0.7759 C   0  0  0  0  0  0  0  0  0  0  0  0
   10.4444  -19.5604    0.2705 C   0  0  0  0  0  0  0  0  0  0  0  0
   10.2672  -19.2020    1.4616 O   0  0  0  0  0  0  0  0  0  0  0  0
   16.3692  -24.4160    4.8034 O   0  0  0  0  0  0  0  0  0  0  0  0
   15.5418  -23.8802    3.8080 C   0  0  0  0  0  0  0  0  0  0  0  0
   14.1752  -24.0135    3.8866 C   0  0  0  0  0  0  0  0  0  0  0  0
   13.3552  -23.4879    2.9102 C   0  0  0  0  0  0  0  0  0  0  0  0
   13.8525  -22.8069    1.8126 C   0  0  0  0  0  0  0  0  0  0  0  0
   12.9509  -22.2444    0.7822 C   0  0  0  0  0  0  0  0  0  0  0  0
   12.4763  -20.8581    1.0393 C   0  0  2  0  0  0  0  0  0  0  0  0
   11.5625  -20.3810    0.0005 N   0  0  0  0  0  0  0  0  0  0  0  0
   13.5374  -19.8568    1.2818 C   0  0  0  0  0  0  0  0  0  0  0  0
   14.2741  -19.4277    0.3250 O   0  0  0  0  0  0  0  0  0  0  0  0
   15.2203  -22.6805    1.7452 C   0  0  0  0  0  0  0  0  0  0  0  0
   16.0588  -23.2057    2.7230 C   0  0  0  0  0  0  0  0  0  0  0  0
   12.0790  -13.1384    5.8818 N   0  0  0  0  0  0  0  0  0  0  0  0
   11.3390  -13.5010    4.7291 C   0  0  0  0  0  0  0  0  0  0  0  0
   10.1895  -12.9309    4.5400 N   0  0  0  0  0  0  0  0  0  0  0  0
   11.8653  -14.4625    3.8260 N   0  0  0  0  0  0  0  0  0  0  0  0
   12.8937  -15.3723    4.2827 C   0  0  0  0  0  0  0  0  0  0  0  0
   13.2990  -16.3432    3.1700 C   0  0  0  0  0  0  0  0  0  0  0  0
   14.3265  -17.2757    3.7008 C   0  0  0  0  0  0  0  0  0  0  0  0
   14.8704  -18.2685    2.6954 C   0  0  2  0  0  0  0  0  0  0  0  0
   13.8175  -19.2994    2.5604 N   0  0  0  0  0  0  0  0  0  0  0  0
   16.0988  -18.8698    3.2619 C   0  0  0  0  0  0  0  0  0  0  0  0
   16.0579  -20.2225    3.6122 O   0  0  0  0  0  0  0  0  0  0  0  0
   17.1694  -18.2535    3.4495 O   0  0  0  0  0  0  0  0  0  0  0  0
  2  1  1  0
  3  2  1  0
  4  3  2  0
  6 16  2  0
  6  5  1  0
  7  6  1  0
  8  9  1  0
  8  7  2  0
  9 15  2  0
 10  9  1  0
 11 10  1  6
 11 12  1  0
 12  3  1  0
 13 25  1  0
 13 11  1  0
 14 13  2  0
 15 16  1  0
 18 19  2  0
 18 17  1  0
 20 18  1  0
 21 20  1  0
 22 21  1  0
 23 22  1  0
 24 23  1  1
 24 25  1  0
 26 27  1  0
 26 24  1  0
 28 26  2  0
M  END
$$$$
