GYR.pdb
     RDKit          3D

 28 28  0  0  1  0  0  0  0  0999 V2000
   23.8162  -19.3034  -18.9137 N   0  0  0  0  0  0  0  0  0  0  0  0
   24.2503  -18.5670  -17.7811 C   0  0  0  0  0  0  0  0  0  0  0  0
   24.8405  -19.4128  -16.7090 C   0  0  0  0  0  0  0  0  0  0  0  0
   24.7292  -20.6622  -16.7791 O   0  0  0  0  0  0  0  0  0  0  0  0
   30.5297  -20.9505  -19.0698 O   0  0  0  0  0  0  0  0  0  0  0  0
   29.8036  -20.6260  -17.9166 C   0  0  0  0  0  0  0  0  0  0  0  0
   29.2943  -19.3603  -17.7426 C   0  0  0  0  0  0  0  0  0  0  0  0
   28.5782  -19.0346  -16.6098 C   0  0  0  0  0  0  0  0  0  0  0  0
   28.3348  -19.9483  -15.5990 C   0  0  0  0  0  0  0  0  0  0  0  0
   27.5558  -19.5768  -14.3965 C   0  0  0  0  0  0  0  0  0  0  0  0
   26.0805  -19.7186  -14.5243 C   0  0  2  0  0  0  0  0  0  0  0  0
   25.5320  -18.8855  -15.5953 N   0  0  0  0  0  0  0  0  0  0  0  0
   25.3111  -19.5154  -13.2777 C   0  0  0  0  0  0  0  0  0  0  0  0
   24.4861  -18.5418  -13.1599 O   0  0  0  0  0  0  0  0  0  0  0  0
   28.8493  -21.2102  -15.7845 C   0  0  0  0  0  0  0  0  0  0  0  0
   29.5731  -21.5519  -16.9221 C   0  0  0  0  0  0  0  0  0  0  0  0
   19.3657  -23.9561  -10.6259 N   0  0  0  0  0  0  0  0  0  0  0  0
   19.0140  -22.7364   -9.9963 C   0  0  0  0  0  0  0  0  0  0  0  0
   17.8772  -22.6783   -9.3747 N   0  0  0  0  0  0  0  0  0  0  0  0
   19.8997  -21.6280  -10.0604 N   0  0  0  0  0  0  0  0  0  0  0  0
   21.1313  -21.7500  -10.8102 C   0  0  0  0  0  0  0  0  0  0  0  0
   21.9119  -20.4327  -10.7988 C   0  0  0  0  0  0  0  0  0  0  0  0
   23.0901  -20.5680  -11.6934 C   0  0  0  0  0  0  0  0  0  0  0  0
   24.4231  -20.2513  -11.0488 C   0  0  2  0  0  0  0  0  0  0  0  0
   25.4169  -20.3624  -12.1396 N   0  0  0  0  0  0  0  0  0  0  0  0
   24.6886  -21.2768  -10.0148 C   0  0  0  0  0  0  0  0  0  0  0  0
   25.1389  -22.5292  -10.4425 O   0  0  0  0  0  0  0  0  0  0  0  0
   24.5381  -21.1022   -8.7868 O   0  0  0  0  0  0  0  0  0  0  0  0
  2  1  1  0
  3  2  1  0
  4  3  2  0
  6 16  2  0
  6  5  1  0
  7  6  1  0
  8  9  1  0
  8  7  2  0
  9 15  2  0
 10  9  1  0
 11 10  1  1
 11 12  1  0
 12  3  1  0
 13 25  1  0
 13 11  1  0
 14 13  2  0
 15 16  1  0
 18 19  2  0
 18 17  1  0
 20 18  1  0
 21 20  1  0
 22 21  1  0
 23 22  1  0
 24 23  1  6
 24 25  1  0
 26 27  1  0
 26 24  1  0
 28 26  2  0
M  END
$$$$
