GYR.pdb
     RDKit          3D

 28 28  0  0  1  0  0  0  0  0999 V2000
   28.8139  -21.4955  -14.2590 N   0  0  0  0  0  0  0  0  0  0  0  0
   28.1500  -20.4855  -13.5154 C   0  0  0  0  0  0  0  0  0  0  0  0
   26.8658  -20.9338  -12.9132 C   0  0  0  0  0  0  0  0  0  0  0  0
   26.5460  -22.1471  -12.9772 O   0  0  0  0  0  0  0  0  0  0  0  0
   28.2002  -20.3708   -6.0781 O   0  0  0  0  0  0  0  0  0  0  0  0
   27.2785  -20.2260   -7.1231 C   0  0  0  0  0  0  0  0  0  0  0  0
   27.1475  -19.0248   -7.7799 C   0  0  0  0  0  0  0  0  0  0  0  0
   26.2424  -18.8759   -8.8098 C   0  0  0  0  0  0  0  0  0  0  0  0
   25.4268  -19.9103   -9.2347 C   0  0  0  0  0  0  0  0  0  0  0  0
   24.4691  -19.7280  -10.3485 C   0  0  0  0  0  0  0  0  0  0  0  0
   24.7589  -20.5200  -11.5739 C   0  0  2  0  0  0  0  0  0  0  0  0
   25.9666  -20.0605  -12.2610 N   0  0  0  0  0  0  0  0  0  0  0  0
   23.6409  -20.6376  -12.5350 C   0  0  0  0  0  0  0  0  0  0  0  0
   23.3973  -19.7092  -13.3841 O   0  0  0  0  0  0  0  0  0  0  0  0
   25.5670  -21.1062   -8.5700 C   0  0  0  0  0  0  0  0  0  0  0  0
   26.4759  -21.2700   -7.5299 C   0  0  0  0  0  0  0  0  0  0  0  0
   24.5727  -25.9554  -16.3643 N   0  0  0  0  0  0  0  0  0  0  0  0
   23.3714  -26.6934  -16.2224 C   0  0  0  0  0  0  0  0  0  0  0  0
   23.1303  -27.6341  -17.0821 N   0  0  0  0  0  0  0  0  0  0  0  0
   22.4778  -26.3898  -15.1611 N   0  0  0  0  0  0  0  0  0  0  0  0
   22.7115  -25.2105  -14.3559 C   0  0  0  0  0  0  0  0  0  0  0  0
   21.9073  -24.0191  -14.8838 C   0  0  0  0  0  0  0  0  0  0  0  0
   21.3337  -23.2810  -13.7292 C   0  0  0  0  0  0  0  0  0  0  0  0
   21.7259  -21.8210  -13.6439 C   0  0  2  0  0  0  0  0  0  0  0  0
   22.7705  -21.7611  -12.5975 N   0  0  0  0  0  0  0  0  0  0  0  0
   20.5364  -21.0499  -13.2175 C   0  0  0  0  0  0  0  0  0  0  0  0
   19.5808  -20.7394  -14.1895 O   0  0  0  0  0  0  0  0  0  0  0  0
   20.3266  -20.6563  -12.0504 O   0  0  0  0  0  0  0  0  0  0  0  0
  2  1  1  0
  3  2  1  0
  4  3  2  0
  6 16  2  0
  6  5  1  0
  7  6  1  0
  8  9  1  0
  8  7  2  0
  9 15  2  0
 10  9  1  0
 11 10  1  1
 11 12  1  0
 12  3  1  0
 13 25  1  0
 13 11  1  0
 14 13  2  0
 15 16  1  0
 18 19  2  0
 18 17  1  0
 20 18  1  0
 21 20  1  0
 22 21  1  0
 23 22  1  0
 24 23  1  1
 24 25  1  0
 26 27  1  0
 26 24  1  0
 28 26  2  0
M  END
$$$$
