GYR.pdb
     RDKit          3D

 28 28  0  0  1  0  0  0  0  0999 V2000
   24.5123  -18.1057  -20.1692 N   0  0  0  0  0  0  0  0  0  0  0  0
   24.1958  -17.6372  -18.8677 C   0  0  0  0  0  0  0  0  0  0  0  0
   24.1282  -18.7152  -17.8448 C   0  0  0  0  0  0  0  0  0  0  0  0
   24.0682  -19.9138  -18.2165 O   0  0  0  0  0  0  0  0  0  0  0  0
   30.1921  -20.6405  -17.3302 O   0  0  0  0  0  0  0  0  0  0  0  0
   28.9919  -20.3614  -16.6637 C   0  0  0  0  0  0  0  0  0  0  0  0
   28.2154  -21.3803  -16.1634 C   0  0  0  0  0  0  0  0  0  0  0  0
   27.0331  -21.1123  -15.5059 C   0  0  0  0  0  0  0  0  0  0  0  0
   26.5675  -19.8229  -15.3148 C   0  0  0  0  0  0  0  0  0  0  0  0
   25.2993  -19.5605  -14.5980 C   0  0  0  0  0  0  0  0  0  0  0  0
   24.0802  -19.5317  -15.4500 C   0  0  2  0  0  0  0  0  0  0  0  0
   24.1275  -18.4677  -16.4536 N   0  0  0  0  0  0  0  0  0  0  0  0
   22.7946  -19.4853  -14.7203 C   0  0  0  0  0  0  0  0  0  0  0  0
   22.4355  -18.4363  -14.0778 O   0  0  0  0  0  0  0  0  0  0  0  0
   27.3526  -18.8129  -15.8198 C   0  0  0  0  0  0  0  0  0  0  0  0
   28.5471  -19.0693  -16.4848 C   0  0  0  0  0  0  0  0  0  0  0  0
   20.2879  -26.5780  -13.7376 N   0  0  0  0  0  0  0  0  0  0  0  0
   20.2625  -25.8598  -14.9587 C   0  0  0  0  0  0  0  0  0  0  0  0
   20.7809  -26.4221  -16.0061 N   0  0  0  0  0  0  0  0  0  0  0  0
   19.6801  -24.5653  -15.0042 N   0  0  0  0  0  0  0  0  0  0  0  0
   19.1565  -23.9828  -13.7874 C   0  0  0  0  0  0  0  0  0  0  0  0
   20.0185  -22.8026  -13.3304 C   0  0  0  0  0  0  0  0  0  0  0  0
   19.8051  -21.6661  -14.2631 C   0  0  0  0  0  0  0  0  0  0  0  0
   20.5982  -20.4170  -13.9421 C   0  0  2  0  0  0  0  0  0  0  0  0
   21.8742  -20.5691  -14.6758 N   0  0  0  0  0  0  0  0  0  0  0  0
   20.8515  -20.3955  -12.4838 C   0  0  0  0  0  0  0  0  0  0  0  0
   22.1080  -20.8141  -12.0365 O   0  0  0  0  0  0  0  0  0  0  0  0
   20.0212  -20.0304  -11.6245 O   0  0  0  0  0  0  0  0  0  0  0  0
  2  1  1  0
  3  2  1  0
  4  3  2  0
  6 16  2  0
  6  5  1  0
  7  6  1  0
  8  9  1  0
  8  7  2  0
  9 15  2  0
 10  9  1  0
 11 10  1  1
 11 12  1  0
 12  3  1  0
 13 25  1  0
 13 11  1  0
 14 13  2  0
 15 16  1  0
 18 19  2  0
 18 17  1  0
 20 18  1  0
 21 20  1  0
 22 21  1  0
 23 22  1  0
 24 23  1  1
 24 25  1  0
 26 27  1  0
 26 24  1  0
 28 26  2  0
M  END
$$$$
