GYR.pdb
     RDKit          3D

 28 28  0  0  1  0  0  0  0  0999 V2000
   23.8387  -25.3536  -14.3013 N   0  0  0  0  0  0  0  0  0  0  0  0
   24.8759  -24.5929  -14.9007 C   0  0  0  0  0  0  0  0  0  0  0  0
   24.6802  -23.1226  -14.7874 C   0  0  0  0  0  0  0  0  0  0  0  0
   23.5138  -22.6560  -14.7731 O   0  0  0  0  0  0  0  0  0  0  0  0
   23.9156  -20.8662   -8.4627 O   0  0  0  0  0  0  0  0  0  0  0  0
   24.4766  -20.6586   -9.7294 C   0  0  0  0  0  0  0  0  0  0  0  0
   25.7244  -21.1515  -10.0321 C   0  0  0  0  0  0  0  0  0  0  0  0
   26.2820  -20.9509  -11.2774 C   0  0  0  0  0  0  0  0  0  0  0  0
   25.6283  -20.2533  -12.2783 C   0  0  0  0  0  0  0  0  0  0  0  0
   26.2445  -20.0589  -13.6100 C   0  0  0  0  0  0  0  0  0  0  0  0
   25.5606  -20.7507  -14.7355 C   0  0  2  0  0  0  0  0  0  0  0  0
   25.7475  -22.2015  -14.6930 N   0  0  0  0  0  0  0  0  0  0  0  0
   25.8777  -20.2366  -16.0855 C   0  0  0  0  0  0  0  0  0  0  0  0
   26.9591  -20.5735  -16.6851 O   0  0  0  0  0  0  0  0  0  0  0  0
   24.3816  -19.7653  -11.9634 C   0  0  0  0  0  0  0  0  0  0  0  0
   23.8076  -19.9605  -10.7115 C   0  0  0  0  0  0  0  0  0  0  0  0
   19.1497  -18.9015  -19.0550 N   0  0  0  0  0  0  0  0  0  0  0  0
   19.9975  -19.6818  -18.2304 C   0  0  0  0  0  0  0  0  0  0  0  0
   19.5322  -20.7990  -17.7640 N   0  0  0  0  0  0  0  0  0  0  0  0
   21.3121  -19.2290  -17.9407 N   0  0  0  0  0  0  0  0  0  0  0  0
   21.7451  -17.9450  -18.4482 C   0  0  0  0  0  0  0  0  0  0  0  0
   23.2112  -17.6820  -18.0928 C   0  0  0  0  0  0  0  0  0  0  0  0
   24.0650  -18.6258  -18.8591 C   0  0  0  0  0  0  0  0  0  0  0  0
   25.3813  -18.9784  -18.1993 C   0  0  2  0  0  0  0  0  0  0  0  0
   25.0307  -19.3539  -16.8116 N   0  0  0  0  0  0  0  0  0  0  0  0
   26.2329  -17.7675  -18.1969 C   0  0  0  0  0  0  0  0  0  0  0  0
   27.5153  -17.8743  -18.7431 O   0  0  0  0  0  0  0  0  0  0  0  0
   25.8867  -16.6571  -17.7407 O   0  0  0  0  0  0  0  0  0  0  0  0
  2  1  1  0
  3  2  1  0
  4  3  2  0
  6 16  2  0
  6  5  1  0
  7  6  1  0
  8  9  1  0
  8  7  2  0
  9 15  2  0
 10  9  1  0
 11 10  1  1
 11 12  1  0
 12  3  1  0
 13 25  1  0
 13 11  1  0
 14 13  2  0
 15 16  1  0
 18 19  2  0
 18 17  1  0
 20 18  1  0
 21 20  1  0
 22 21  1  0
 23 22  1  0
 24 23  1  6
 24 25  1  0
 26 27  1  0
 26 24  1  0
 28 26  2  0
M  END
$$$$
