GYR.pdb
     RDKit          3D

 28 28  0  0  1  0  0  0  0  0999 V2000
   23.3662  -18.2348  -18.4768 N   0  0  0  0  0  0  0  0  0  0  0  0
   24.1607  -17.5600  -17.5139 C   0  0  0  0  0  0  0  0  0  0  0  0
   25.0123  -18.4683  -16.6999 C   0  0  0  0  0  0  0  0  0  0  0  0
   24.8340  -19.7098  -16.7733 O   0  0  0  0  0  0  0  0  0  0  0  0
   30.8103  -19.1198  -20.2075 O   0  0  0  0  0  0  0  0  0  0  0  0
   30.2028  -18.9843  -18.9525 C   0  0  0  0  0  0  0  0  0  0  0  0
   29.7179  -17.7663  -18.5370 C   0  0  0  0  0  0  0  0  0  0  0  0
   29.1183  -17.6264  -17.3029 C   0  0  0  0  0  0  0  0  0  0  0  0
   28.9725  -18.6869  -16.4256 C   0  0  0  0  0  0  0  0  0  0  0  0
   28.3174  -18.5132  -15.1097 C   0  0  0  0  0  0  0  0  0  0  0  0
   26.8841  -18.9079  -15.0546 C   0  0  2  0  0  0  0  0  0  0  0  0
   26.0292  -18.0102  -15.8323 N   0  0  0  0  0  0  0  0  0  0  0  0
   26.3263  -19.0918  -13.6973 C   0  0  0  0  0  0  0  0  0  0  0  0
   26.2855  -18.1215  -12.8611 O   0  0  0  0  0  0  0  0  0  0  0  0
   29.4615  -19.8995  -16.8524 C   0  0  0  0  0  0  0  0  0  0  0  0
   30.0682  -20.0544  -18.0944 C   0  0  0  0  0  0  0  0  0  0  0  0
   19.4825  -20.3759  -11.7149 N   0  0  0  0  0  0  0  0  0  0  0  0
   19.9755  -21.6512  -12.0866 C   0  0  0  0  0  0  0  0  0  0  0  0
   19.2272  -22.3972  -12.8388 N   0  0  0  0  0  0  0  0  0  0  0  0
   21.2540  -22.0730  -11.6342 N   0  0  0  0  0  0  0  0  0  0  0  0
   22.0535  -21.1706  -10.8340 C   0  0  0  0  0  0  0  0  0  0  0  0
   23.4681  -21.7224  -10.6353 C   0  0  0  0  0  0  0  0  0  0  0  0
   24.2379  -21.5261  -11.8906 C   0  0  0  0  0  0  0  0  0  0  0  0
   25.2598  -20.4097  -11.8470 C   0  0  2  0  0  0  0  0  0  0  0  0
   25.7999  -20.3250  -13.2221 N   0  0  0  0  0  0  0  0  0  0  0  0
   26.3314  -20.8043  -10.9050 C   0  0  0  0  0  0  0  0  0  0  0  0
   26.1715  -20.4621   -9.5591 O   0  0  0  0  0  0  0  0  0  0  0  0
   27.3689  -21.4210  -11.2281 O   0  0  0  0  0  0  0  0  0  0  0  0
  2  1  1  0
  3  2  1  0
  4  3  2  0
  6 16  2  0
  6  5  1  0
  7  6  1  0
  8  9  1  0
  8  7  2  0
  9 15  2  0
 10  9  1  0
 11 10  1  1
 11 12  1  0
 12  3  1  0
 13 25  1  0
 13 11  1  0
 14 13  2  0
 15 16  1  0
 18 19  2  0
 18 17  1  0
 20 18  1  0
 21 20  1  0
 22 21  1  0
 23 22  1  0
 24 23  1  6
 24 25  1  0
 26 27  1  0
 26 24  1  0
 28 26  2  0
M  END
$$$$
