GYR.pdb
     RDKit          3D

 28 28  0  0  1  0  0  0  0  0999 V2000
   29.1089  -22.6214  -17.7321 N   0  0  0  0  0  0  0  0  0  0  0  0
   28.5859  -21.4135  -17.2018 C   0  0  0  0  0  0  0  0  0  0  0  0
   27.7574  -21.6063  -15.9814 C   0  0  0  0  0  0  0  0  0  0  0  0
   27.2901  -22.7446  -15.7279 O   0  0  0  0  0  0  0  0  0  0  0  0
   24.1920  -20.3579   -7.8727 O   0  0  0  0  0  0  0  0  0  0  0  0
   24.9127  -20.2378   -9.0680 C   0  0  0  0  0  0  0  0  0  0  0  0
   24.3534  -19.6239  -10.1643 C   0  0  0  0  0  0  0  0  0  0  0  0
   25.0577  -19.5020  -11.3437 C   0  0  0  0  0  0  0  0  0  0  0  0
   26.3474  -19.9828  -11.4896 C   0  0  0  0  0  0  0  0  0  0  0  0
   27.0860  -19.8319  -12.7634 C   0  0  0  0  0  0  0  0  0  0  0  0
   26.6866  -20.7705  -13.8463 C   0  0  2  0  0  0  0  0  0  0  0  0
   27.4586  -20.5664  -15.0727 N   0  0  0  0  0  0  0  0  0  0  0  0
   25.2409  -20.8070  -14.1559 C   0  0  0  0  0  0  0  0  0  0  0  0
   24.7222  -19.9871  -14.9933 O   0  0  0  0  0  0  0  0  0  0  0  0
   26.8956  -20.5946  -10.3865 C   0  0  0  0  0  0  0  0  0  0  0  0
   26.1963  -20.7241   -9.1911 C   0  0  0  0  0  0  0  0  0  0  0  0
   20.5409  -27.7604  -14.3988 N   0  0  0  0  0  0  0  0  0  0  0  0
   21.6957  -27.1342  -14.9299 C   0  0  0  0  0  0  0  0  0  0  0  0
   22.6035  -27.8881  -15.4681 N   0  0  0  0  0  0  0  0  0  0  0  0
   21.8276  -25.7218  -14.8607 N   0  0  0  0  0  0  0  0  0  0  0  0
   20.8005  -24.9478  -14.1973 C   0  0  0  0  0  0  0  0  0  0  0  0
   21.0790  -23.4473  -14.3229 C   0  0  0  0  0  0  0  0  0  0  0  0
   22.4941  -23.1914  -13.9498 C   0  0  0  0  0  0  0  0  0  0  0  0
   22.9159  -21.7380  -13.9972 C   0  0  2  0  0  0  0  0  0  0  0  0
   24.3326  -21.7317  -13.5698 N   0  0  0  0  0  0  0  0  0  0  0  0
   22.0896  -20.9879  -13.0246 C   0  0  0  0  0  0  0  0  0  0  0  0
   21.0056  -20.2575  -13.5202 O   0  0  0  0  0  0  0  0  0  0  0  0
   22.2932  -20.9609  -11.7921 O   0  0  0  0  0  0  0  0  0  0  0  0
  2  1  1  0
  3  2  1  0
  4  3  2  0
  6 16  2  0
  6  5  1  0
  7  6  1  0
  8  9  1  0
  8  7  2  0
  9 15  2  0
 10  9  1  0
 11 10  1  1
 11 12  1  0
 12  3  1  0
 13 25  1  0
 13 11  1  0
 14 13  2  0
 15 16  1  0
 18 19  2  0
 18 17  1  0
 20 18  1  0
 21 20  1  0
 22 21  1  0
 23 22  1  0
 24 23  1  1
 24 25  1  0
 26 27  1  0
 26 24  1  0
 28 26  2  0
M  END
$$$$
