GYR.pdb
     RDKit          3D

 28 28  0  0  1  0  0  0  0  0999 V2000
   23.5572  -20.6909   -7.7313 N   0  0  0  0  0  0  0  0  0  0  0  0
   24.2877  -21.5585   -8.5842 C   0  0  0  0  0  0  0  0  0  0  0  0
   24.5701  -20.9794   -9.9251 C   0  0  0  0  0  0  0  0  0  0  0  0
   24.3478  -19.7597  -10.1283 O   0  0  0  0  0  0  0  0  0  0  0  0
   31.3437  -19.4010  -10.2111 O   0  0  0  0  0  0  0  0  0  0  0  0
   30.2212  -19.9614  -10.8345 C   0  0  0  0  0  0  0  0  0  0  0  0
   29.4420  -19.2089  -11.6818 C   0  0  0  0  0  0  0  0  0  0  0  0
   28.3360  -19.7548  -12.2989 C   0  0  0  0  0  0  0  0  0  0  0  0
   27.9528  -21.0704  -12.1040 C   0  0  0  0  0  0  0  0  0  0  0  0
   26.7663  -21.6357  -12.7848 C   0  0  0  0  0  0  0  0  0  0  0  0
   25.4528  -21.1414  -12.2912 C   0  0  2  0  0  0  0  0  0  0  0  0
   25.0833  -21.7329  -11.0046 N   0  0  0  0  0  0  0  0  0  0  0  0
   24.3293  -21.2580  -13.2458 C   0  0  0  0  0  0  0  0  0  0  0  0
   23.8121  -22.3972  -13.5237 O   0  0  0  0  0  0  0  0  0  0  0  0
   28.7397  -21.8124  -11.2545 C   0  0  0  0  0  0  0  0  0  0  0  0
   29.8577  -21.2743  -10.6258 C   0  0  0  0  0  0  0  0  0  0  0  0
   17.6683  -19.8486  -14.4179 N   0  0  0  0  0  0  0  0  0  0  0  0
   17.5550  -18.9777  -13.3059 C   0  0  0  0  0  0  0  0  0  0  0  0
   16.5473  -19.1407  -12.5058 N   0  0  0  0  0  0  0  0  0  0  0  0
   18.5305  -17.9665  -13.0991 N   0  0  0  0  0  0  0  0  0  0  0  0
   19.6981  -17.9258  -13.9529 C   0  0  0  0  0  0  0  0  0  0  0  0
   20.5041  -19.2229  -13.8401 C   0  0  0  0  0  0  0  0  0  0  0  0
   21.7449  -19.0856  -14.6454 C   0  0  0  0  0  0  0  0  0  0  0  0
   22.5632  -20.3523  -14.7815 C   0  0  2  0  0  0  0  0  0  0  0  0
   23.7432  -20.1464  -13.9126 N   0  0  0  0  0  0  0  0  0  0  0  0
   22.9891  -20.4746  -16.1940 C   0  0  0  0  0  0  0  0  0  0  0  0
   24.2588  -19.9984  -16.5332 O   0  0  0  0  0  0  0  0  0  0  0  0
   22.2934  -20.9729  -17.1044 O   0  0  0  0  0  0  0  0  0  0  0  0
  2  1  1  0
  3  2  1  0
  4  3  2  0
  6 16  2  0
  6  5  1  0
  7  6  1  0
  8  9  1  0
  8  7  2  0
  9 15  2  0
 10  9  1  0
 11 10  1  6
 11 12  1  0
 12  3  1  0
 13 25  1  0
 13 11  1  0
 14 13  2  0
 15 16  1  0
 18 19  2  0
 18 17  1  0
 20 18  1  0
 21 20  1  0
 22 21  1  0
 23 22  1  0
 24 23  1  6
 24 25  1  0
 26 27  1  0
 26 24  1  0
 28 26  2  0
M  END
$$$$
