GYR.pdb
     RDKit          3D

 28 28  0  0  1  0  0  0  0  0999 V2000
   21.8450  -21.3322   -7.1967 N   0  0  0  0  0  0  0  0  0  0  0  0
   23.1812  -21.7743   -7.0156 C   0  0  0  0  0  0  0  0  0  0  0  0
   24.1664  -21.0669   -7.8769 C   0  0  0  0  0  0  0  0  0  0  0  0
   23.7774  -20.1246   -8.6113 O   0  0  0  0  0  0  0  0  0  0  0  0
   28.6577  -18.5827   -3.0895 O   0  0  0  0  0  0  0  0  0  0  0  0
   28.4678  -19.1130   -4.3722 C   0  0  0  0  0  0  0  0  0  0  0  0
   28.6465  -20.4561   -4.6082 C   0  0  0  0  0  0  0  0  0  0  0  0
   28.4606  -20.9845   -5.8684 C   0  0  0  0  0  0  0  0  0  0  0  0
   28.0895  -20.2059   -6.9509 C   0  0  0  0  0  0  0  0  0  0  0  0
   27.8877  -20.7982   -8.2923 C   0  0  0  0  0  0  0  0  0  0  0  0
   26.4949  -20.7390   -8.8119 C   0  0  2  0  0  0  0  0  0  0  0  0
   25.5396  -21.3970   -7.9196 N   0  0  0  0  0  0  0  0  0  0  0  0
   26.3116  -21.2216  -10.1978 C   0  0  0  0  0  0  0  0  0  0  0  0
   25.9959  -22.4401  -10.4383 O   0  0  0  0  0  0  0  0  0  0  0  0
   27.9141  -18.8646   -6.7023 C   0  0  0  0  0  0  0  0  0  0  0  0
   28.0982  -18.3188   -5.4362 C   0  0  0  0  0  0  0  0  0  0  0  0
   19.7193  -22.5584  -12.1769 N   0  0  0  0  0  0  0  0  0  0  0  0
   20.2942  -23.0572  -13.3720 C   0  0  0  0  0  0  0  0  0  0  0  0
   19.7823  -24.1294  -13.8920 N   0  0  0  0  0  0  0  0  0  0  0  0
   21.3968  -22.3823  -13.9601 N   0  0  0  0  0  0  0  0  0  0  0  0
   22.1879  -21.4815  -13.1497 C   0  0  0  0  0  0  0  0  0  0  0  0
   23.6845  -21.7380  -13.3481 C   0  0  0  0  0  0  0  0  0  0  0  0
   24.4490  -20.7320  -12.5669 C   0  0  0  0  0  0  0  0  0  0  0  0
   25.9549  -20.8621  -12.6557 C   0  0  2  0  0  0  0  0  0  0  0  0
   26.4620  -20.3955  -11.3462 N   0  0  0  0  0  0  0  0  0  0  0  0
   26.4309  -19.9648  -13.7325 C   0  0  0  0  0  0  0  0  0  0  0  0
   26.9144  -18.7062  -13.3630 O   0  0  0  0  0  0  0  0  0  0  0  0
   26.4304  -20.2526  -14.9484 O   0  0  0  0  0  0  0  0  0  0  0  0
  2  1  1  0
  3  2  1  0
  4  3  2  0
  6 16  2  0
  6  5  1  0
  7  6  1  0
  8  9  1  0
  8  7  2  0
  9 15  2  0
 10  9  1  0
 11 10  1  1
 11 12  1  0
 12  3  1  0
 13 25  1  0
 13 11  1  0
 14 13  2  0
 15 16  1  0
 18 19  2  0
 18 17  1  0
 20 18  1  0
 21 20  1  0
 22 21  1  0
 23 22  1  0
 24 23  1  1
 24 25  1  0
 26 27  1  0
 26 24  1  0
 28 26  2  0
M  END
$$$$
