GYR.pdb
     RDKit          3D

 28 28  0  0  1  0  0  0  0  0999 V2000
   27.8309  -15.5548  -19.4717 N   0  0  0  0  0  0  0  0  0  0  0  0
   27.5944  -15.9093  -18.1182 C   0  0  0  0  0  0  0  0  0  0  0  0
   26.9961  -17.2609  -17.9505 C   0  0  0  0  0  0  0  0  0  0  0  0
   26.4916  -17.8388  -18.9455 O   0  0  0  0  0  0  0  0  0  0  0  0
   25.1328  -25.4272  -14.9407 O   0  0  0  0  0  0  0  0  0  0  0  0
   25.6294  -24.1272  -15.1008 C   0  0  0  0  0  0  0  0  0  0  0  0
   26.3849  -23.7968  -16.2015 C   0  0  0  0  0  0  0  0  0  0  0  0
   26.8764  -22.5186  -16.3653 C   0  0  0  0  0  0  0  0  0  0  0  0
   26.6413  -21.5110  -15.4461 C   0  0  0  0  0  0  0  0  0  0  0  0
   27.1725  -20.1444  -15.6488 C   0  0  0  0  0  0  0  0  0  0  0  0
   26.3721  -19.2777  -16.5550 C   0  0  2  0  0  0  0  0  0  0  0  0
   26.9604  -17.9474  -16.7159 N   0  0  0  0  0  0  0  0  0  0  0  0
   24.9362  -19.1615  -16.2205 C   0  0  0  0  0  0  0  0  0  0  0  0
   24.5435  -18.4602  -15.2223 O   0  0  0  0  0  0  0  0  0  0  0  0
   25.8848  -21.8537  -14.3498 C   0  0  0  0  0  0  0  0  0  0  0  0
   25.3830  -23.1389  -14.1723 C   0  0  0  0  0  0  0  0  0  0  0  0
   18.2062  -22.2170  -16.0406 N   0  0  0  0  0  0  0  0  0  0  0  0
   17.4363  -21.4935  -16.9847 C   0  0  0  0  0  0  0  0  0  0  0  0
   16.1448  -21.5274  -16.8705 N   0  0  0  0  0  0  0  0  0  0  0  0
   18.0867  -20.7623  -18.0140 N   0  0  0  0  0  0  0  0  0  0  0  0
   19.5262  -20.8435  -18.1371 C   0  0  0  0  0  0  0  0  0  0  0  0
   20.1971  -19.6012  -17.5443 C   0  0  0  0  0  0  0  0  0  0  0  0
   21.6635  -19.7012  -17.7608 C   0  0  0  0  0  0  0  0  0  0  0  0
   22.4991  -19.6916  -16.4982 C   0  0  2  0  0  0  0  0  0  0  0  0
   23.9008  -19.7971  -16.9606 N   0  0  0  0  0  0  0  0  0  0  0  0
   22.1379  -20.8841  -15.6990 C   0  0  0  0  0  0  0  0  0  0  0  0
   21.3466  -20.6895  -14.5631 O   0  0  0  0  0  0  0  0  0  0  0  0
   22.4908  -22.0521  -15.9676 O   0  0  0  0  0  0  0  0  0  0  0  0
  2  1  1  0
  3  2  1  0
  4  3  2  0
  6 16  2  0
  6  5  1  0
  7  6  1  0
  8  9  1  0
  8  7  2  0
  9 15  2  0
 10  9  1  0
 11 10  1  1
 11 12  1  0
 12  3  1  0
 13 25  1  0
 13 11  1  0
 14 13  2  0
 15 16  1  0
 18 19  2  0
 18 17  1  0
 20 18  1  0
 21 20  1  0
 22 21  1  0
 23 22  1  0
 24 23  1  6
 24 25  1  0
 26 27  1  0
 26 24  1  0
 28 26  2  0
M  END
$$$$
