FQV.pdb
     RDKit          3D

 28 28  0  0  1  0  0  0  0  0999 V2000
    7.3491  -15.4962   20.4953 N   0  0  0  0  0  0  0  0  0  0  0  0
    7.7316  -14.8050   21.7405 C   0  0  1  0  0  0  0  0  0  0  0  0
    6.5736  -14.0019   22.2323 C   0  0  0  0  0  0  0  0  0  0  0  0
    6.8876  -13.3219   23.4926 C   0  0  0  0  0  0  0  0  0  0  0  0
    6.5377  -13.8148   24.7334 C   0  0  0  0  0  0  0  0  0  0  0  0
    6.8672  -13.1751   25.8967 C   0  0  0  0  0  0  0  0  0  0  0  0
    7.5711  -11.9992   25.8544 C   0  0  0  0  0  0  0  0  0  0  0  0
    7.9364  -11.4797   24.6256 C   0  0  0  0  0  0  0  0  0  0  0  0
    7.6018  -12.1277   23.4637 C   0  0  0  0  0  0  0  0  0  0  0  0
    8.1903  -15.8447   22.6860 C   0  0  0  0  0  0  0  0  0  0  0  0
    7.3617  -16.6838   23.1138 O   0  0  0  0  0  0  0  0  0  0  0  0
   13.0860  -19.3823   22.0955 N   0  0  0  0  0  0  0  0  0  0  0  0
   13.0945  -18.0018   21.7928 C   0  0  0  0  0  0  0  0  0  0  0  0
   13.9030  -17.5800   20.9358 O   0  0  0  0  0  0  0  0  0  0  0  0
   12.1748  -17.0355   22.4586 C   0  0  0  0  0  0  0  0  0  0  0  0
   11.2122  -17.7235   23.3702 C   0  0  0  0  0  0  0  0  0  0  0  0
   10.1706  -16.7878   23.9870 C   0  0  2  0  0  0  0  0  0  0  0  0
    9.5460  -15.8863   23.0927 N   0  0  0  0  0  0  0  0  0  0  0  0
   10.6631  -16.2552   25.2440 C   0  0  0  0  0  0  0  0  0  0  0  0
   11.5786  -15.3810   25.2840 O   0  0  0  0  0  0  0  0  0  0  0  0
   10.2467  -14.6418   29.7008 C   0  0  0  0  0  0  0  0  0  0  0  0
    9.6027  -15.1917   28.4419 C   0  0  1  0  0  0  0  0  0  0  0  0
    9.2563  -14.0089   27.5635 C   0  0  0  0  0  0  0  0  0  0  0  0
   10.6027  -16.0580   27.7517 C   0  0  2  0  0  0  0  0  0  0  0  0
   10.1835  -16.6473   26.5322 N   0  0  0  0  0  0  0  0  0  0  0  0
   11.0167  -17.1358   28.6861 C   0  0  0  0  0  0  0  0  0  0  0  0
   11.8417  -16.9039   29.7744 O   0  0  0  0  0  0  0  0  0  0  0  0
   10.6150  -18.3111   28.5013 O   0  0  0  0  0  0  0  0  0  0  0  0
  2  1  1  6
  2  3  1  0
  3  4  1  0
  4  9  2  0
  5  4  1  0
  5  6  2  0
  6  7  1  0
  7  8  2  0
  9  8  1  0
 10  2  1  0
 10 18  1  0
 11 10  2  0
 13 15  1  0
 13 12  1  0
 14 13  2  0
 17 16  1  6
 16 15  1  0
 17 18  1  0
 19 17  1  0
 20 19  2  0
 22 21  1  1
 23 22  1  0
 24 25  1  6
 24 22  1  0
 25 19  1  0
 26 24  1  0
 27 26  1  0
 28 26  2  0
M  END
$$$$
