FQV.pdb
     RDKit          3D

 28 28  0  0  1  0  0  0  0  0999 V2000
    7.8421  -18.3789   19.9167 N   0  0  0  0  0  0  0  0  0  0  0  0
    8.1927  -17.0863   20.5338 C   0  0  1  0  0  0  0  0  0  0  0  0
    7.0039  -16.1845   20.4944 C   0  0  0  0  0  0  0  0  0  0  0  0
    7.3939  -14.7758   20.6062 C   0  0  0  0  0  0  0  0  0  0  0  0
    8.7054  -14.3488   20.6577 C   0  0  0  0  0  0  0  0  0  0  0  0
    9.0439  -13.0257   20.7337 C   0  0  0  0  0  0  0  0  0  0  0  0
    8.0618  -12.0693   20.7609 C   0  0  0  0  0  0  0  0  0  0  0  0
    6.7375  -12.4658   20.7106 C   0  0  0  0  0  0  0  0  0  0  0  0
    6.4068  -13.7950   20.6346 C   0  0  0  0  0  0  0  0  0  0  0  0
    8.6829  -17.3797   21.8973 C   0  0  0  0  0  0  0  0  0  0  0  0
    7.9801  -18.0911   22.6547 O   0  0  0  0  0  0  0  0  0  0  0  0
   13.5991  -19.4045   24.8413 N   0  0  0  0  0  0  0  0  0  0  0  0
   13.0764  -19.6739   23.5560 C   0  0  0  0  0  0  0  0  0  0  0  0
   13.3694  -20.7580   23.0039 O   0  0  0  0  0  0  0  0  0  0  0  0
   12.1907  -18.7121   22.8395 C   0  0  0  0  0  0  0  0  0  0  0  0
   11.9735  -17.4633   23.6296 C   0  0  0  0  0  0  0  0  0  0  0  0
   10.5275  -16.9637   23.6085 C   0  0  2  0  0  0  0  0  0  0  0  0
    9.9287  -16.8642   22.3301 N   0  0  0  0  0  0  0  0  0  0  0  0
   10.3776  -15.8368   24.5107 C   0  0  0  0  0  0  0  0  0  0  0  0
   10.8659  -14.6994   24.2428 O   0  0  0  0  0  0  0  0  0  0  0  0
    8.3847  -13.0239   27.7997 C   0  0  0  0  0  0  0  0  0  0  0  0
    8.2419  -14.2471   26.9136 C   0  0  1  0  0  0  0  0  0  0  0  0
    7.6373  -13.7837   25.6057 C   0  0  0  0  0  0  0  0  0  0  0  0
    9.6050  -14.8039   26.6710 C   0  0  2  0  0  0  0  0  0  0  0  0
    9.6849  -15.8873   25.7600 N   0  0  0  0  0  0  0  0  0  0  0  0
   10.1779  -15.2309   27.9732 C   0  0  0  0  0  0  0  0  0  0  0  0
   10.6546  -14.3292   28.9104 O   0  0  0  0  0  0  0  0  0  0  0  0
   10.2426  -16.4524   28.2566 O   0  0  0  0  0  0  0  0  0  0  0  0
  2  1  1  1
  2  3  1  0
  3  4  1  0
  4  9  2  0
  5  4  1  0
  5  6  2  0
  6  7  1  0
  7  8  2  0
  9  8  1  0
 10  2  1  0
 10 18  1  0
 11 10  2  0
 13 15  1  0
 13 12  1  0
 14 13  2  0
 17 16  1  6
 16 15  1  0
 17 18  1  0
 19 17  1  0
 20 19  2  0
 22 21  1  1
 23 22  1  0
 24 25  1  6
 24 22  1  0
 25 19  1  0
 26 24  1  0
 27 26  1  0
 28 26  2  0
M  END
$$$$
