FQV.pdb
     RDKit          3D

 28 28  0  0  1  0  0  0  0  0999 V2000
    7.3728  -17.8880   19.4321 N   0  0  0  0  0  0  0  0  0  0  0  0
    7.7550  -16.7295   20.2606 C   0  0  1  0  0  0  0  0  0  0  0  0
    6.6209  -15.7600   20.3024 C   0  0  0  0  0  0  0  0  0  0  0  0
    6.9251  -14.6138   21.1643 C   0  0  0  0  0  0  0  0  0  0  0  0
    6.6093  -14.5636   22.5070 C   0  0  0  0  0  0  0  0  0  0  0  0
    6.9293  -13.4934   23.2965 C   0  0  0  0  0  0  0  0  0  0  0  0
    7.5884  -12.4189   22.7572 C   0  0  0  0  0  0  0  0  0  0  0  0
    7.9188  -12.4395   21.4142 C   0  0  0  0  0  0  0  0  0  0  0  0
    7.5940  -13.5168   20.6294 C   0  0  0  0  0  0  0  0  0  0  0  0
    8.1465  -17.2581   21.5845 C   0  0  0  0  0  0  0  0  0  0  0  0
    7.4649  -18.1786   22.0960 O   0  0  0  0  0  0  0  0  0  0  0  0
   13.5595  -18.6450   24.3898 N   0  0  0  0  0  0  0  0  0  0  0  0
   13.4344  -18.0397   23.1187 C   0  0  0  0  0  0  0  0  0  0  0  0
   14.4744  -17.7714   22.4765 O   0  0  0  0  0  0  0  0  0  0  0  0
   12.1087  -17.7119   22.5205 C   0  0  0  0  0  0  0  0  0  0  0  0
   10.9810  -18.1504   23.3962 C   0  0  0  0  0  0  0  0  0  0  0  0
    9.8400  -17.1352   23.4873 C   0  0  2  0  0  0  0  0  0  0  0  0
    9.2766  -16.7294   22.2542 N   0  0  0  0  0  0  0  0  0  0  0  0
   10.1717  -16.0994   24.4483 C   0  0  0  0  0  0  0  0  0  0  0  0
   11.1575  -15.3230   24.2772 O   0  0  0  0  0  0  0  0  0  0  0  0
    9.4217  -12.8113   27.8486 C   0  0  0  0  0  0  0  0  0  0  0  0
    8.8150  -13.7899   26.8606 C   0  0  1  0  0  0  0  0  0  0  0  0
    8.5618  -13.0297   25.5765 C   0  0  0  0  0  0  0  0  0  0  0  0
    9.8082  -14.8766   26.6171 C   0  0  2  0  0  0  0  0  0  0  0  0
    9.4449  -15.8515   25.6539 N   0  0  0  0  0  0  0  0  0  0  0  0
   10.0854  -15.5591   27.9069 C   0  0  0  0  0  0  0  0  0  0  0  0
   10.9436  -15.0346   28.8594 O   0  0  0  0  0  0  0  0  0  0  0  0
    9.5308  -16.6556   28.1651 O   0  0  0  0  0  0  0  0  0  0  0  0
  2  1  1  6
  2  3  1  0
  3  4  1  0
  4  9  2  0
  5  4  1  0
  5  6  2  0
  6  7  1  0
  7  8  2  0
  9  8  1  0
 10  2  1  0
 10 18  1  0
 11 10  2  0
 13 15  1  0
 13 12  1  0
 14 13  2  0
 17 16  1  6
 16 15  1  0
 17 18  1  0
 19 17  1  0
 20 19  2  0
 22 21  1  1
 23 22  1  0
 24 25  1  6
 24 22  1  0
 25 19  1  0
 26 24  1  0
 27 26  1  0
 28 26  2  0
M  END
$$$$
