FQV.pdb
     RDKit          3D

 28 28  0  0  1  0  0  0  0  0999 V2000
    6.7042  -16.9733   21.7068 N   0  0  0  0  0  0  0  0  0  0  0  0
    7.2308  -15.9940   22.6755 C   0  0  1  0  0  0  0  0  0  0  0  0
    6.1016  -15.1806   23.2150 C   0  0  0  0  0  0  0  0  0  0  0  0
    6.5808  -14.1224   24.1093 C   0  0  0  0  0  0  0  0  0  0  0  0
    7.3880  -13.0817   23.6964 C   0  0  0  0  0  0  0  0  0  0  0  0
    7.7988  -12.0905   24.5448 C   0  0  0  0  0  0  0  0  0  0  0  0
    7.4071  -12.1095   25.8587 C   0  0  0  0  0  0  0  0  0  0  0  0
    6.5978  -13.1395   26.3028 C   0  0  0  0  0  0  0  0  0  0  0  0
    6.1904  -14.1297   25.4452 C   0  0  0  0  0  0  0  0  0  0  0  0
    7.9684  -16.7595   23.7029 C   0  0  0  0  0  0  0  0  0  0  0  0
    7.3206  -17.3571   24.5955 O   0  0  0  0  0  0  0  0  0  0  0  0
   11.2733  -21.1700   23.9510 N   0  0  0  0  0  0  0  0  0  0  0  0
   12.1103  -20.5170   24.8841 C   0  0  0  0  0  0  0  0  0  0  0  0
   12.8031  -21.2133   25.6594 O   0  0  0  0  0  0  0  0  0  0  0  0
   12.1942  -19.0311   24.9743 C   0  0  0  0  0  0  0  0  0  0  0  0
   11.3162  -18.3635   23.9672 C   0  0  0  0  0  0  0  0  0  0  0  0
   10.2633  -17.4398   24.5828 C   0  0  2  0  0  0  0  0  0  0  0  0
    9.3829  -16.8138   23.6686 N   0  0  0  0  0  0  0  0  0  0  0  0
   10.8682  -16.6106   25.6089 C   0  0  0  0  0  0  0  0  0  0  0  0
   11.7934  -15.7884   25.3412 O   0  0  0  0  0  0  0  0  0  0  0  0
   10.6425  -13.7322   27.4351 C   0  0  0  0  0  0  0  0  0  0  0  0
   10.6930  -14.7411   28.5671 C   0  0  1  0  0  0  0  0  0  0  0  0
    9.2707  -14.9569   29.0375 C   0  0  0  0  0  0  0  0  0  0  0  0
   11.2450  -16.0170   28.0248 C   0  0  2  0  0  0  0  0  0  0  0  0
   10.4970  -16.6318   26.9891 N   0  0  0  0  0  0  0  0  0  0  0  0
   11.3915  -16.9808   29.1455 C   0  0  0  0  0  0  0  0  0  0  0  0
   12.2302  -16.7500   30.2235 O   0  0  0  0  0  0  0  0  0  0  0  0
   10.7389  -18.0535   29.1361 O   0  0  0  0  0  0  0  0  0  0  0  0
  2  1  1  6
  2  3  1  0
  3  4  1  0
  4  9  2  0
  5  4  1  0
  5  6  2  0
  6  7  1  0
  7  8  2  0
  9  8  1  0
 10  2  1  0
 10 18  1  0
 11 10  2  0
 13 15  1  0
 13 12  1  0
 14 13  2  0
 17 16  1  6
 16 15  1  0
 17 18  1  0
 19 17  1  0
 20 19  2  0
 22 21  1  6
 23 22  1  0
 24 25  1  6
 24 22  1  0
 25 19  1  0
 26 24  1  0
 27 26  1  0
 28 26  2  0
M  END
$$$$
