FQV.pdb
     RDKit          3D

 28 28  0  0  1  0  0  0  0  0999 V2000
    6.6134  -18.0816   22.3002 N   0  0  0  0  0  0  0  0  0  0  0  0
    7.0745  -16.8028   22.8719 C   0  0  1  0  0  0  0  0  0  0  0  0
    6.0147  -16.2551   23.7690 C   0  0  0  0  0  0  0  0  0  0  0  0
    6.3600  -14.9152   24.2533 C   0  0  0  0  0  0  0  0  0  0  0  0
    6.3542  -14.5610   25.5873 C   0  0  0  0  0  0  0  0  0  0  0  0
    6.7079  -13.3112   26.0162 C   0  0  0  0  0  0  0  0  0  0  0  0
    7.0862  -12.3579   25.1063 C   0  0  0  0  0  0  0  0  0  0  0  0
    7.1023  -12.6825   23.7618 C   0  0  0  0  0  0  0  0  0  0  0  0
    6.7459  -13.9384   23.3402 C   0  0  0  0  0  0  0  0  0  0  0  0
    8.3595  -17.0737   23.5507 C   0  0  0  0  0  0  0  0  0  0  0  0
    8.4204  -18.0106   24.3827 O   0  0  0  0  0  0  0  0  0  0  0  0
   11.0620  -19.0463   20.8275 N   0  0  0  0  0  0  0  0  0  0  0  0
   12.0101  -18.1002   21.2789 C   0  0  0  0  0  0  0  0  0  0  0  0
   13.1272  -18.5083   21.6680 O   0  0  0  0  0  0  0  0  0  0  0  0
   11.7235  -16.6373   21.3063 C   0  0  0  0  0  0  0  0  0  0  0  0
   11.9135  -16.0599   22.6706 C   0  0  0  0  0  0  0  0  0  0  0  0
   10.8364  -16.4792   23.6732 C   0  0  2  0  0  0  0  0  0  0  0  0
    9.4980  -16.2848   23.2567 N   0  0  0  0  0  0  0  0  0  0  0  0
   11.1973  -16.0330   25.0062 C   0  0  0  0  0  0  0  0  0  0  0  0
   12.3083  -15.4732   25.2433 O   0  0  0  0  0  0  0  0  0  0  0  0
   10.4735  -14.3625   29.4423 C   0  0  0  0  0  0  0  0  0  0  0  0
    9.9112  -14.6700   28.0671 C   0  0  1  0  0  0  0  0  0  0  0  0
   10.0421  -13.4102   27.2386 C   0  0  0  0  0  0  0  0  0  0  0  0
   10.7340  -15.7591   27.4641 C   0  0  2  0  0  0  0  0  0  0  0  0
   10.3644  -16.1728   26.1594 N   0  0  0  0  0  0  0  0  0  0  0  0
   10.6926  -16.9366   28.3687 C   0  0  0  0  0  0  0  0  0  0  0  0
   10.0849  -18.1296   28.0134 O   0  0  0  0  0  0  0  0  0  0  0  0
   11.2228  -16.8702   29.5049 O   0  0  0  0  0  0  0  0  0  0  0  0
  2  1  1  1
  2  3  1  0
  3  4  1  0
  4  9  2  0
  5  4  1  0
  5  6  2  0
  6  7  1  0
  7  8  2  0
  9  8  1  0
 10  2  1  0
 10 18  1  0
 11 10  2  0
 13 15  1  0
 13 12  1  0
 14 13  2  0
 17 16  1  6
 16 15  1  0
 17 18  1  0
 19 17  1  0
 20 19  2  0
 22 21  1  1
 23 22  1  0
 24 25  1  6
 24 22  1  0
 25 19  1  0
 26 24  1  0
 27 26  1  0
 28 26  2  0
M  END
$$$$
