FQV.pdb
     RDKit          3D

 28 28  0  0  1  0  0  0  0  0999 V2000
    6.3644  -18.2595   20.8131 N   0  0  0  0  0  0  0  0  0  0  0  0
    7.1257  -17.0015   20.9245 C   0  0  1  0  0  0  0  0  0  0  0  0
    6.2013  -15.8479   20.7183 C   0  0  0  0  0  0  0  0  0  0  0  0
    6.9113  -14.5682   20.8038 C   0  0  0  0  0  0  0  0  0  0  0  0
    7.7050  -14.0668   19.7920 C   0  0  0  0  0  0  0  0  0  0  0  0
    8.3348  -12.8561   19.8850 C   0  0  0  0  0  0  0  0  0  0  0  0
    8.1872  -12.0938   21.0151 C   0  0  0  0  0  0  0  0  0  0  0  0
    7.3978  -12.5692   22.0467 C   0  0  0  0  0  0  0  0  0  0  0  0
    6.7699  -13.7846   21.9453 C   0  0  0  0  0  0  0  0  0  0  0  0
    7.7882  -17.0154   22.2460 C   0  0  0  0  0  0  0  0  0  0  0  0
    7.0969  -17.2375   23.2689 O   0  0  0  0  0  0  0  0  0  0  0  0
   14.2051  -17.6543   22.9912 N   0  0  0  0  0  0  0  0  0  0  0  0
   13.7038  -17.4278   24.2932 C   0  0  0  0  0  0  0  0  0  0  0  0
   14.5027  -17.4490   25.2562 O   0  0  0  0  0  0  0  0  0  0  0  0
   12.2598  -17.1654   24.5555 C   0  0  0  0  0  0  0  0  0  0  0  0
   11.4739  -17.0709   23.2888 C   0  0  0  0  0  0  0  0  0  0  0  0
    9.9915  -16.7595   23.5044 C   0  0  2  0  0  0  0  0  0  0  0  0
    9.1818  -16.7844   22.3441 N   0  0  0  0  0  0  0  0  0  0  0  0
    9.8465  -15.6279   24.4015 C   0  0  0  0  0  0  0  0  0  0  0  0
   10.3780  -14.5062   24.1500 O   0  0  0  0  0  0  0  0  0  0  0  0
    8.0474  -12.8832   27.9171 C   0  0  0  0  0  0  0  0  0  0  0  0
    7.8134  -13.9802   26.8956 C   0  0  1  0  0  0  0  0  0  0  0  0
    7.2612  -13.3210   25.6501 C   0  0  0  0  0  0  0  0  0  0  0  0
    9.1285  -14.6158   26.5903 C   0  0  2  0  0  0  0  0  0  0  0  0
    9.1116  -15.6561   25.6271 N   0  0  0  0  0  0  0  0  0  0  0  0
    9.7011  -15.1443   27.8549 C   0  0  0  0  0  0  0  0  0  0  0  0
   10.3203  -14.3320   28.7905 O   0  0  0  0  0  0  0  0  0  0  0  0
    9.6323  -16.3726   28.1062 O   0  0  0  0  0  0  0  0  0  0  0  0
  2  1  1  1
  2  3  1  0
  3  4  1  0
  4  9  2  0
  5  4  1  0
  5  6  2  0
  6  7  1  0
  7  8  2  0
  9  8  1  0
 10  2  1  0
 10 18  1  0
 11 10  2  0
 13 15  1  0
 13 12  1  0
 14 13  2  0
 17 16  1  6
 16 15  1  0
 17 18  1  0
 19 17  1  0
 20 19  2  0
 22 21  1  1
 23 22  1  0
 24 25  1  6
 24 22  1  0
 25 19  1  0
 26 24  1  0
 27 26  1  0
 28 26  2  0
M  END
$$$$
