FQV.pdb
     RDKit          3D

 28 28  0  0  1  0  0  0  0  0999 V2000
    8.5367  -18.0055   19.0890 N   0  0  0  0  0  0  0  0  0  0  0  0
    8.5896  -16.7422   19.8479 C   0  0  1  0  0  0  0  0  0  0  0  0
    7.6388  -15.7645   19.2414 C   0  0  0  0  0  0  0  0  0  0  0  0
    7.6203  -14.5010   19.9844 C   0  0  0  0  0  0  0  0  0  0  0  0
    6.9218  -14.3175   21.1607 C   0  0  0  0  0  0  0  0  0  0  0  0
    6.9433  -13.1364   21.8503 C   0  0  0  0  0  0  0  0  0  0  0  0
    7.6789  -12.0811   21.3758 C   0  0  0  0  0  0  0  0  0  0  0  0
    8.3900  -12.2340   20.1992 C   0  0  0  0  0  0  0  0  0  0  0  0
    8.3628  -13.4220   19.5138 C   0  0  0  0  0  0  0  0  0  0  0  0
    8.2957  -17.0750   21.2579 C   0  0  0  0  0  0  0  0  0  0  0  0
    7.5690  -18.0663   21.5085 O   0  0  0  0  0  0  0  0  0  0  0  0
   10.9184  -20.1839   24.7843 N   0  0  0  0  0  0  0  0  0  0  0  0
   11.6387  -19.1442   24.1534 C   0  0  0  0  0  0  0  0  0  0  0  0
   12.8617  -19.3036   23.9422 O   0  0  0  0  0  0  0  0  0  0  0  0
   10.9910  -17.8689   23.7329 C   0  0  0  0  0  0  0  0  0  0  0  0
    9.5528  -17.8185   24.1331 C   0  0  0  0  0  0  0  0  0  0  0  0
    8.8345  -16.5414   23.6928 C   0  0  2  0  0  0  0  0  0  0  0  0
    8.8339  -16.2834   22.3013 N   0  0  0  0  0  0  0  0  0  0  0  0
    9.1800  -15.4457   24.5797 C   0  0  0  0  0  0  0  0  0  0  0  0
   10.2656  -14.8054   24.4558 O   0  0  0  0  0  0  0  0  0  0  0  0
    7.1947  -12.2701   25.5280 C   0  0  0  0  0  0  0  0  0  0  0  0
    7.6069  -12.9429   26.8239 C   0  0  1  0  0  0  0  0  0  0  0  0
    6.3964  -13.6860   27.3467 C   0  0  0  0  0  0  0  0  0  0  0  0
    8.6996  -13.9110   26.5148 C   0  0  2  0  0  0  0  0  0  0  0  0
    8.3584  -14.9854   25.6550 N   0  0  0  0  0  0  0  0  0  0  0  0
    9.2126  -14.4662   27.7935 C   0  0  0  0  0  0  0  0  0  0  0  0
    9.8700  -13.6900   28.7337 O   0  0  0  0  0  0  0  0  0  0  0  0
    9.0552  -15.6845   28.0531 O   0  0  0  0  0  0  0  0  0  0  0  0
  2  1  1  6
  2  3  1  0
  3  4  1  0
  4  9  2  0
  5  4  1  0
  5  6  2  0
  6  7  1  0
  7  8  2  0
  9  8  1  0
 10  2  1  0
 10 18  1  0
 11 10  2  0
 13 15  1  0
 13 12  1  0
 14 13  2  0
 17 16  1  6
 16 15  1  0
 17 18  1  0
 19 17  1  0
 20 19  2  0
 22 21  1  6
 23 22  1  0
 24 25  1  6
 24 22  1  0
 25 19  1  0
 26 24  1  0
 27 26  1  0
 28 26  2  0
M  END
$$$$
