FQV.pdb
     RDKit          3D

 28 28  0  0  1  0  0  0  0  0999 V2000
    7.3946  -15.8508   20.2583 N   0  0  0  0  0  0  0  0  0  0  0  0
    7.8083  -15.0980   21.4570 C   0  0  1  0  0  0  0  0  0  0  0  0
    6.6585  -14.2811   21.9452 C   0  0  0  0  0  0  0  0  0  0  0  0
    7.0259  -13.4834   23.1191 C   0  0  0  0  0  0  0  0  0  0  0  0
    7.7722  -12.3244   23.0509 C   0  0  0  0  0  0  0  0  0  0  0  0
    8.0781  -11.5824   24.1586 C   0  0  0  0  0  0  0  0  0  0  0  0
    7.6382  -11.9844   25.3935 C   0  0  0  0  0  0  0  0  0  0  0  0
    6.8878  -13.1420   25.4944 C   0  0  0  0  0  0  0  0  0  0  0  0
    6.5856  -13.8803   24.3783 C   0  0  0  0  0  0  0  0  0  0  0  0
    8.3046  -16.0879   22.4364 C   0  0  0  0  0  0  0  0  0  0  0  0
    7.5666  -17.0522   22.7514 O   0  0  0  0  0  0  0  0  0  0  0  0
   11.2049  -20.4287   23.3464 N   0  0  0  0  0  0  0  0  0  0  0  0
   11.0318  -19.7259   22.1323 C   0  0  0  0  0  0  0  0  0  0  0  0
   10.8078  -20.3778   21.0880 O   0  0  0  0  0  0  0  0  0  0  0  0
   11.1070  -18.2388   22.0560 C   0  0  0  0  0  0  0  0  0  0  0  0
   11.3940  -17.6285   23.3887 C   0  0  0  0  0  0  0  0  0  0  0  0
   10.2461  -16.7795   23.9384 C   0  0  2  0  0  0  0  0  0  0  0  0
    9.5950  -15.9428   23.0010 N   0  0  0  0  0  0  0  0  0  0  0  0
   10.6254  -16.1951   25.2116 C   0  0  0  0  0  0  0  0  0  0  0  0
   11.3644  -15.1690   25.2798 O   0  0  0  0  0  0  0  0  0  0  0  0
    9.7579  -14.6581   29.5963 C   0  0  0  0  0  0  0  0  0  0  0  0
    9.2738  -15.4218   28.3780 C   0  0  1  0  0  0  0  0  0  0  0  0
    8.6335  -14.4163   27.4453 C   0  0  0  0  0  0  0  0  0  0  0  0
   10.4609  -16.0391   27.7175 C   0  0  2  0  0  0  0  0  0  0  0  0
   10.2188  -16.6987   26.4861 N   0  0  0  0  0  0  0  0  0  0  0  0
   11.0775  -17.0041   28.6636 C   0  0  0  0  0  0  0  0  0  0  0  0
   12.0502  -16.6348   29.5780 O   0  0  0  0  0  0  0  0  0  0  0  0
   10.7180  -18.2071   28.6514 O   0  0  0  0  0  0  0  0  0  0  0  0
  2  1  1  6
  2  3  1  0
  3  4  1  0
  4  9  2  0
  5  4  1  0
  5  6  2  0
  6  7  1  0
  7  8  2  0
  9  8  1  0
 10  2  1  0
 10 18  1  0
 11 10  2  0
 13 15  1  0
 13 12  1  0
 14 13  2  0
 17 16  1  6
 16 15  1  0
 17 18  1  0
 19 17  1  0
 20 19  2  0
 22 21  1  1
 23 22  1  0
 24 25  1  6
 24 22  1  0
 25 19  1  0
 26 24  1  0
 27 26  1  0
 28 26  2  0
M  END
$$$$
