FQV.pdb
     RDKit          3D

 28 28  0  0  1  0  0  0  0  0999 V2000
    5.7142  -18.1448   20.7875 N   0  0  0  0  0  0  0  0  0  0  0  0
    6.6034  -16.9776   20.9338 C   0  0  1  0  0  0  0  0  0  0  0  0
    5.9015  -15.7593   20.4330 C   0  0  0  0  0  0  0  0  0  0  0  0
    6.8078  -14.6094   20.3579 C   0  0  0  0  0  0  0  0  0  0  0  0
    7.7087  -14.4137   19.3307 C   0  0  0  0  0  0  0  0  0  0  0  0
    8.5243  -13.3173   19.2690 C   0  0  0  0  0  0  0  0  0  0  0  0
    8.4629  -12.3635   20.2521 C   0  0  0  0  0  0  0  0  0  0  0  0
    7.5699  -12.5312   21.2950 C   0  0  0  0  0  0  0  0  0  0  0  0
    6.7555  -13.6339   21.3492 C   0  0  0  0  0  0  0  0  0  0  0  0
    6.9910  -16.9082   22.3587 C   0  0  0  0  0  0  0  0  0  0  0  0
    6.0906  -16.8890   23.2321 O   0  0  0  0  0  0  0  0  0  0  0  0
   10.2417  -20.4488   25.6902 N   0  0  0  0  0  0  0  0  0  0  0  0
   10.1559  -19.1726   26.2916 C   0  0  0  0  0  0  0  0  0  0  0  0
    9.6767  -19.0830   27.4440 O   0  0  0  0  0  0  0  0  0  0  0  0
   10.6163  -17.9346   25.6000 C   0  0  0  0  0  0  0  0  0  0  0  0
   10.1098  -17.8617   24.1968 C   0  0  0  0  0  0  0  0  0  0  0  0
    8.9293  -16.9053   24.0160 C   0  0  2  0  0  0  0  0  0  0  0  0
    8.3592  -16.8683   22.7213 N   0  0  0  0  0  0  0  0  0  0  0  0
    9.2133  -15.6372   24.6622 C   0  0  0  0  0  0  0  0  0  0  0  0
   10.1173  -14.8598   24.2354 O   0  0  0  0  0  0  0  0  0  0  0  0
    7.5714  -12.3179   25.4443 C   0  0  0  0  0  0  0  0  0  0  0  0
    7.8864  -12.9625   26.7811 C   0  0  1  0  0  0  0  0  0  0  0  0
    6.6114  -13.6101   27.2768 C   0  0  0  0  0  0  0  0  0  0  0  0
    8.9292  -14.0061   26.5569 C   0  0  2  0  0  0  0  0  0  0  0  0
    8.5253  -15.1442   25.8141 N   0  0  0  0  0  0  0  0  0  0  0  0
    9.4392  -14.4539   27.8781 C   0  0  0  0  0  0  0  0  0  0  0  0
   10.1198  -13.6100   28.7404 O   0  0  0  0  0  0  0  0  0  0  0  0
    9.2575  -15.6398   28.2485 O   0  0  0  0  0  0  0  0  0  0  0  0
  2  1  1  1
  2  3  1  0
  3  4  1  0
  4  9  2  0
  5  4  1  0
  5  6  2  0
  6  7  1  0
  7  8  2  0
  9  8  1  0
 10  2  1  0
 10 18  1  0
 11 10  2  0
 13 15  1  0
 13 12  1  0
 14 13  2  0
 17 16  1  6
 16 15  1  0
 17 18  1  0
 19 17  1  0
 20 19  2  0
 22 21  1  6
 23 22  1  0
 24 25  1  1
 24 22  1  0
 25 19  1  0
 26 24  1  0
 27 26  1  0
 28 26  2  0
M  END
$$$$
