FQV.pdb
     RDKit          3D

 28 28  0  0  1  0  0  0  0  0999 V2000
    6.5247  -16.6226   21.0342 N   0  0  0  0  0  0  0  0  0  0  0  0
    7.5692  -15.9586   21.8361 C   0  0  1  0  0  0  0  0  0  0  0  0
    7.2135  -14.5196   22.0114 C   0  0  0  0  0  0  0  0  0  0  0  0
    7.5105  -13.7417   20.8048 C   0  0  0  0  0  0  0  0  0  0  0  0
    8.7905  -13.4267   20.3959 C   0  0  0  0  0  0  0  0  0  0  0  0
    9.0425  -12.7231   19.2502 C   0  0  0  0  0  0  0  0  0  0  0  0
    8.0015  -12.3045   18.4621 C   0  0  0  0  0  0  0  0  0  0  0  0
    6.7069  -12.6049   18.8454 C   0  0  0  0  0  0  0  0  0  0  0  0
    6.4630  -13.3110   19.9960 C   0  0  0  0  0  0  0  0  0  0  0  0
    7.6819  -16.7114   23.1034 C   0  0  0  0  0  0  0  0  0  0  0  0
    6.7096  -16.7139   23.8961 O   0  0  0  0  0  0  0  0  0  0  0  0
   11.0331  -21.9496   24.8607 N   0  0  0  0  0  0  0  0  0  0  0  0
   10.4364  -21.4167   23.6955 C   0  0  0  0  0  0  0  0  0  0  0  0
   10.6292  -21.9964   22.6034 O   0  0  0  0  0  0  0  0  0  0  0  0
    9.5879  -20.1911   23.7253 C   0  0  0  0  0  0  0  0  0  0  0  0
   10.1259  -19.1665   24.6696 C   0  0  0  0  0  0  0  0  0  0  0  0
    9.3402  -17.8537   24.6683 C   0  0  2  0  0  0  0  0  0  0  0  0
    8.8711  -17.4178   23.4063 N   0  0  0  0  0  0  0  0  0  0  0  0
   10.0023  -16.8772   25.5135 C   0  0  0  0  0  0  0  0  0  0  0  0
   11.0235  -16.2395   25.1205 O   0  0  0  0  0  0  0  0  0  0  0  0
   10.2579  -13.4976   28.9267 C   0  0  0  0  0  0  0  0  0  0  0  0
    9.3955  -14.4094   28.0743 C   0  0  1  0  0  0  0  0  0  0  0  0
    8.9725  -13.6155   26.8571 C   0  0  0  0  0  0  0  0  0  0  0  0
   10.2288  -15.5737   27.6537 C   0  0  2  0  0  0  0  0  0  0  0  0
    9.5868  -16.5403   26.8390 N   0  0  0  0  0  0  0  0  0  0  0  0
   10.7492  -16.2450   28.8722 C   0  0  0  0  0  0  0  0  0  0  0  0
   11.8064  -15.7379   29.6098 O   0  0  0  0  0  0  0  0  0  0  0  0
   10.2254  -17.3156   29.2674 O   0  0  0  0  0  0  0  0  0  0  0  0
  2  1  1  6
  2  3  1  0
  3  4  1  0
  4  9  2  0
  5  4  1  0
  5  6  2  0
  6  7  1  0
  7  8  2  0
  9  8  1  0
 10  2  1  0
 10 18  1  0
 11 10  2  0
 13 15  1  0
 13 12  1  0
 14 13  2  0
 17 16  1  6
 16 15  1  0
 17 18  1  0
 19 17  1  0
 20 19  2  0
 22 21  1  1
 23 22  1  0
 24 25  1  1
 24 22  1  0
 25 19  1  0
 26 24  1  0
 27 26  1  0
 28 26  2  0
M  END
$$$$
