FQV.pdb
     RDKit          3D

 28 28  0  0  1  0  0  0  0  0999 V2000
    6.5582  -18.3544   19.9214 N   0  0  0  0  0  0  0  0  0  0  0  0
    7.0272  -17.1059   20.5507 C   0  0  1  0  0  0  0  0  0  0  0  0
    6.4101  -15.9410   19.8508 C   0  0  0  0  0  0  0  0  0  0  0  0
    6.7725  -14.6742   20.4935 C   0  0  0  0  0  0  0  0  0  0  0  0
    6.2907  -14.2779   21.7247 C   0  0  0  0  0  0  0  0  0  0  0  0
    6.6663  -13.1030   22.3160 C   0  0  0  0  0  0  0  0  0  0  0  0
    7.5532  -12.2715   21.6820 C   0  0  0  0  0  0  0  0  0  0  0  0
    8.0540  -12.6412   20.4467 C   0  0  0  0  0  0  0  0  0  0  0  0
    7.6719  -13.8212   19.8607 C   0  0  0  0  0  0  0  0  0  0  0  0
    6.6897  -17.1953   21.9872 C   0  0  0  0  0  0  0  0  0  0  0  0
    5.5851  -17.6872   22.3214 O   0  0  0  0  0  0  0  0  0  0  0  0
    6.5903  -19.1244   27.6512 N   0  0  0  0  0  0  0  0  0  0  0  0
    7.0158  -19.6719   26.4197 C   0  0  0  0  0  0  0  0  0  0  0  0
    6.3063  -20.5466   25.8744 O   0  0  0  0  0  0  0  0  0  0  0  0
    8.2778  -19.2427   25.7516 C   0  0  0  0  0  0  0  0  0  0  0  0
    8.0319  -18.7563   24.3610 C   0  0  0  0  0  0  0  0  0  0  0  0
    7.8413  -17.2414   24.2621 C   0  0  2  0  0  0  0  0  0  0  0  0
    7.6069  -16.7336   22.9622 N   0  0  0  0  0  0  0  0  0  0  0  0
    8.8274  -16.5617   25.0819 C   0  0  0  0  0  0  0  0  0  0  0  0
   10.0536  -16.5378   24.7663 O   0  0  0  0  0  0  0  0  0  0  0  0
   10.0849  -13.3296   28.5738 C   0  0  0  0  0  0  0  0  0  0  0  0
    8.9249  -14.1164   27.9929 C   0  0  1  0  0  0  0  0  0  0  0  0
    8.0462  -13.1338   27.2491 C   0  0  0  0  0  0  0  0  0  0  0  0
    9.4795  -15.1210   27.0389 C   0  0  2  0  0  0  0  0  0  0  0  0
    8.5307  -15.8679   26.2959 N   0  0  0  0  0  0  0  0  0  0  0  0
   10.3426  -16.0632   27.7962 C   0  0  0  0  0  0  0  0  0  0  0  0
   11.6893  -15.8272   28.0187 O   0  0  0  0  0  0  0  0  0  0  0  0
    9.8534  -17.1217   28.2619 O   0  0  0  0  0  0  0  0  0  0  0  0
  2  1  1  6
  2  3  1  0
  3  4  1  0
  4  9  2  0
  5  4  1  0
  5  6  2  0
  6  7  1  0
  7  8  2  0
  9  8  1  0
 10  2  1  0
 10 18  1  0
 11 10  2  0
 13 15  1  0
 13 12  1  0
 14 13  2  0
 17 16  1  6
 16 15  1  0
 17 18  1  0
 19 17  1  0
 20 19  2  0
 22 21  1  6
 23 22  1  0
 24 25  1  1
 24 22  1  0
 25 19  1  0
 26 24  1  0
 27 26  1  0
 28 26  2  0
M  END
$$$$
