FQV.pdb
     RDKit          3D

 28 28  0  0  1  0  0  0  0  0999 V2000
    5.8154  -15.8153   25.4259 N   0  0  0  0  0  0  0  0  0  0  0  0
    7.0780  -15.2992   24.8654 C   0  0  1  0  0  0  0  0  0  0  0  0
    7.5887  -14.1995   25.7359 C   0  0  0  0  0  0  0  0  0  0  0  0
    6.7999  -12.9746   25.5730 C   0  0  0  0  0  0  0  0  0  0  0  0
    5.5763  -12.7689   26.1775 C   0  0  0  0  0  0  0  0  0  0  0  0
    4.8725  -11.6050   26.0323 C   0  0  0  0  0  0  0  0  0  0  0  0
    5.3808  -10.5904   25.2628 C   0  0  0  0  0  0  0  0  0  0  0  0
    6.6052  -10.7663   24.6439 C   0  0  0  0  0  0  0  0  0  0  0  0
    7.3044  -11.9369   24.7948 C   0  0  0  0  0  0  0  0  0  0  0  0
    7.9975  -16.4505   24.7451 C   0  0  0  0  0  0  0  0  0  0  0  0
    7.8824  -17.4055   25.5503 O   0  0  0  0  0  0  0  0  0  0  0  0
   14.8373  -16.8825   22.4282 N   0  0  0  0  0  0  0  0  0  0  0  0
   13.5145  -16.8390   21.9324 C   0  0  0  0  0  0  0  0  0  0  0  0
   13.2658  -16.1067   20.9486 O   0  0  0  0  0  0  0  0  0  0  0  0
   12.4100  -17.6342   22.5412 C   0  0  0  0  0  0  0  0  0  0  0  0
   11.1081  -16.9038   22.4927 C   0  0  0  0  0  0  0  0  0  0  0  0
   10.2893  -17.0163   23.7802 C   0  0  2  0  0  0  0  0  0  0  0  0
    8.9861  -16.4666   23.7316 N   0  0  0  0  0  0  0  0  0  0  0  0
   11.1164  -16.6852   24.9259 C   0  0  0  0  0  0  0  0  0  0  0  0
   11.9266  -15.7121   24.9036 O   0  0  0  0  0  0  0  0  0  0  0  0
   10.6722  -15.5471   29.3885 C   0  0  0  0  0  0  0  0  0  0  0  0
   10.3277  -15.8783   27.9485 C   0  0  1  0  0  0  0  0  0  0  0  0
   10.3629  -14.5806   27.1704 C   0  0  0  0  0  0  0  0  0  0  0  0
   11.3705  -16.8091   27.4261 C   0  0  2  0  0  0  0  0  0  0  0  0
   11.1065  -17.3991   26.1642 N   0  0  0  0  0  0  0  0  0  0  0  0
   11.5806  -17.8890   28.4242 C   0  0  0  0  0  0  0  0  0  0  0  0
   12.4112  -17.7387   29.5225 O   0  0  0  0  0  0  0  0  0  0  0  0
   10.9923  -18.9897   28.2866 O   0  0  0  0  0  0  0  0  0  0  0  0
  2  1  1  1
  2  3  1  0
  3  4  1  0
  4  9  2  0
  5  4  1  0
  5  6  2  0
  6  7  1  0
  7  8  2  0
  9  8  1  0
 10  2  1  0
 10 18  1  0
 11 10  2  0
 13 15  1  0
 13 12  1  0
 14 13  2  0
 17 16  1  6
 16 15  1  0
 17 18  1  0
 19 17  1  0
 20 19  2  0
 22 21  1  1
 23 22  1  0
 24 25  1  6
 24 22  1  0
 25 19  1  0
 26 24  1  0
 27 26  1  0
 28 26  2  0
M  END
$$$$
