FQV.pdb
     RDKit          3D

 28 28  0  0  1  0  0  0  0  0999 V2000
    6.5777  -17.8993   20.5516 N   0  0  0  0  0  0  0  0  0  0  0  0
    7.2799  -16.6974   21.0385 C   0  0  1  0  0  0  0  0  0  0  0  0
    6.2907  -15.5978   21.2388 C   0  0  0  0  0  0  0  0  0  0  0  0
    6.9499  -14.3443   21.6176 C   0  0  0  0  0  0  0  0  0  0  0  0
    7.0081  -13.8742   22.9139 C   0  0  0  0  0  0  0  0  0  0  0  0
    7.6539  -12.7149   23.2458 C   0  0  0  0  0  0  0  0  0  0  0  0
    8.2741  -11.9751   22.2722 C   0  0  0  0  0  0  0  0  0  0  0  0
    8.2334  -12.4202   20.9631 C   0  0  0  0  0  0  0  0  0  0  0  0
    7.5834  -13.5840   20.6390 C   0  0  0  0  0  0  0  0  0  0  0  0
    8.0031  -17.0900   22.2667 C   0  0  0  0  0  0  0  0  0  0  0  0
    7.4235  -17.8224   23.1041 O   0  0  0  0  0  0  0  0  0  0  0  0
   14.0010  -18.9421   22.5994 N   0  0  0  0  0  0  0  0  0  0  0  0
   12.8376  -19.2065   21.8416 C   0  0  0  0  0  0  0  0  0  0  0  0
   12.9484  -19.8574   20.7787 O   0  0  0  0  0  0  0  0  0  0  0  0
   11.4876  -18.7368   22.2662 C   0  0  0  0  0  0  0  0  0  0  0  0
   11.5698  -17.5272   23.1385 C   0  0  0  0  0  0  0  0  0  0  0  0
   10.2057  -16.9670   23.5462 C   0  0  2  0  0  0  0  0  0  0  0  0
    9.3296  -16.6441   22.4827 N   0  0  0  0  0  0  0  0  0  0  0  0
   10.3667  -15.9881   24.6055 C   0  0  0  0  0  0  0  0  0  0  0  0
   11.1314  -14.9868   24.4767 O   0  0  0  0  0  0  0  0  0  0  0  0
    9.3365  -13.3860   28.4861 C   0  0  0  0  0  0  0  0  0  0  0  0
    8.8318  -14.3017   27.3868 C   0  0  1  0  0  0  0  0  0  0  0  0
    8.3890  -13.4203   26.2388 C   0  0  0  0  0  0  0  0  0  0  0  0
    9.9654  -15.1684   26.9503 C   0  0  2  0  0  0  0  0  0  0  0  0
    9.7009  -16.0465   25.8690 N   0  0  0  0  0  0  0  0  0  0  0  0
   10.4221  -15.9687   28.1153 C   0  0  0  0  0  0  0  0  0  0  0  0
   10.3659  -17.3526   28.1383 O   0  0  0  0  0  0  0  0  0  0  0  0
   10.8808  -15.3887   29.1302 O   0  0  0  0  0  0  0  0  0  0  0  0
  2  1  1  1
  2  3  1  0
  3  4  1  0
  4  9  2  0
  5  4  1  0
  5  6  2  0
  6  7  1  0
  7  8  2  0
  9  8  1  0
 10  2  1  0
 10 18  1  0
 11 10  2  0
 13 15  1  0
 13 12  1  0
 14 13  2  0
 17 16  1  6
 16 15  1  0
 17 18  1  0
 19 17  1  0
 20 19  2  0
 22 21  1  1
 23 22  1  0
 24 25  1  6
 24 22  1  0
 25 19  1  0
 26 24  1  0
 27 26  1  0
 28 26  2  0
M  END
$$$$
