GMA.pdb
     RDKit          3D

 18 17  0  0  1  0  0  0  0  0999 V2000
    8.7657  -15.8147   19.6655 N   0  0  0  0  0  0  0  0  0  0  0  0
    8.2149  -16.4332   20.8435 C   0  0  0  0  0  0  0  0  0  0  0  0
    8.5617  -15.6511   22.0775 C   0  0  0  0  0  0  0  0  0  0  0  0
    9.6851  -15.0839   22.1418 O   0  0  0  0  0  0  0  0  0  0  0  0
    7.0658  -10.9638   27.4212 C   0  0  0  0  0  0  0  0  0  0  0  0
    6.3013  -12.0131   26.1569 S   0  0  0  0  0  0  0  0  0  0  0  0
    6.9734  -13.6912   26.3505 C   0  0  0  0  0  0  0  0  0  0  0  0
    6.7176  -14.4900   25.1152 C   0  0  0  0  0  0  0  0  0  0  0  0
    7.9753  -14.7701   24.3378 C   0  0  2  0  0  0  0  0  0  0  0  0
    7.6406  -15.5525   23.1519 N   0  0  0  0  0  0  0  0  0  0  0  0
    9.0105  -15.4792   25.1027 C   0  0  0  0  0  0  0  0  0  0  0  0
    9.4973  -15.0077   26.1511 O   0  0  0  0  0  0  0  0  0  0  0  0
   10.3198  -18.9092   25.3261 C   0  0  0  0  0  0  0  0  0  0  0  0
   10.5303  -17.4053   25.3889 C   0  0  2  0  0  0  0  0  0  0  0  0
    9.4929  -16.7595   24.6466 N   0  0  0  0  0  0  0  0  0  0  0  0
   11.8468  -17.0324   24.8493 C   0  0  0  0  0  0  0  0  0  0  0  0
   11.9261  -16.4196   23.7624 O   0  0  0  0  0  0  0  0  0  0  0  0
   13.0510  -17.3254   25.4882 O   0  0  0  0  0  0  0  0  0  0  0  0
  1  2  1  0
  2  3  1  0
  3  4  2  0
  6  5  1  0
  7  6  1  0
  7  8  1  0
  9  8  1  1
 10  9  1  0
 10  3  1  0
 11 15  1  0
 11  9  1  0
 12 11  2  0
 14 13  1  6
 14 15  1  0
 16 14  1  0
 16 18  1  0
 17 16  2  0
M  END
$$$$
