GMA.pdb
     RDKit          3D

 18 17  0  0  1  0  0  0  0  0999 V2000
    5.8601  -19.8642   24.1342 N   0  0  0  0  0  0  0  0  0  0  0  0
    6.2124  -18.8165   25.0570 C   0  0  0  0  0  0  0  0  0  0  0  0
    6.7752  -17.6263   24.3348 C   0  0  0  0  0  0  0  0  0  0  0  0
    6.9471  -17.6970   23.0884 O   0  0  0  0  0  0  0  0  0  0  0  0
    7.5743  -12.0940   27.4993 C   0  0  0  0  0  0  0  0  0  0  0  0
    5.9593  -12.3382   26.7144 S   0  0  0  0  0  0  0  0  0  0  0  0
    6.0514  -13.8580   25.7208 C   0  0  0  0  0  0  0  0  0  0  0  0
    7.4438  -14.0575   25.2197 C   0  0  0  0  0  0  0  0  0  0  0  0
    7.5684  -15.2599   24.3236 C   0  0  2  0  0  0  0  0  0  0  0  0
    7.1075  -16.4431   25.0434 N   0  0  0  0  0  0  0  0  0  0  0  0
    8.9301  -15.5020   23.8270 C   0  0  0  0  0  0  0  0  0  0  0  0
    9.3899  -14.8972   22.8364 O   0  0  0  0  0  0  0  0  0  0  0  0
   11.8696  -15.4120   23.9529 C   0  0  0  0  0  0  0  0  0  0  0  0
   11.0805  -16.7109   23.9539 C   0  0  2  0  0  0  0  0  0  0  0  0
    9.7779  -16.4629   24.4887 N   0  0  0  0  0  0  0  0  0  0  0  0
   11.7646  -17.7449   24.7453 C   0  0  0  0  0  0  0  0  0  0  0  0
   12.9557  -18.0345   24.4992 O   0  0  0  0  0  0  0  0  0  0  0  0
   11.1551  -18.4465   25.7848 O   0  0  0  0  0  0  0  0  0  0  0  0
  1  2  1  0
  2  3  1  0
  3  4  2  0
  6  5  1  0
  7  6  1  0
  7  8  1  0
  9  8  1  1
 10  9  1  0
 10  3  1  0
 11 15  1  0
 11  9  1  0
 12 11  2  0
 14 13  1  1
 14 15  1  0
 16 14  1  0
 16 18  1  0
 17 16  2  0
M  END
$$$$
