GMA.pdb
     RDKit          3D

 18 17  0  0  1  0  0  0  0  0999 V2000
    5.0395  -19.5734   21.7839 N   0  0  0  0  0  0  0  0  0  0  0  0
    5.2124  -19.1728   23.1562 C   0  0  0  0  0  0  0  0  0  0  0  0
    6.1341  -17.9922   23.2629 C   0  0  0  0  0  0  0  0  0  0  0  0
    6.8192  -17.6632   22.2579 O   0  0  0  0  0  0  0  0  0  0  0  0
    7.6475  -11.2148   26.8190 C   0  0  0  0  0  0  0  0  0  0  0  0
    6.6819  -12.7479   26.8579 S   0  0  0  0  0  0  0  0  0  0  0  0
    7.4120  -13.8921   25.6484 C   0  0  0  0  0  0  0  0  0  0  0  0
    6.6148  -15.1534   25.5920 C   0  0  0  0  0  0  0  0  0  0  0  0
    7.1480  -16.1289   24.5778 C   0  0  2  0  0  0  0  0  0  0  0  0
    6.2317  -17.2604   24.4743 N   0  0  0  0  0  0  0  0  0  0  0  0
    8.4965  -16.6307   24.8763 C   0  0  0  0  0  0  0  0  0  0  0  0
    8.7101  -17.4437   25.7994 O   0  0  0  0  0  0  0  0  0  0  0  0
   11.7864  -16.4570   23.0899 C   0  0  0  0  0  0  0  0  0  0  0  0
   10.8680  -16.8708   24.2280 C   0  0  2  0  0  0  0  0  0  0  0  0
    9.6213  -16.1839   24.0921 N   0  0  0  0  0  0  0  0  0  0  0  0
   11.4737  -16.5677   25.5336 C   0  0  0  0  0  0  0  0  0  0  0  0
   10.9983  -15.6577   26.2470 O   0  0  0  0  0  0  0  0  0  0  0  0
   12.5776  -17.2482   26.0459 O   0  0  0  0  0  0  0  0  0  0  0  0
  1  2  1  0
  2  3  1  0
  3  4  2  0
  6  5  1  0
  7  6  1  0
  7  8  1  0
  9  8  1  1
 10  9  1  0
 10  3  1  0
 11 15  1  0
 11  9  1  0
 12 11  2  0
 14 13  1  6
 14 15  1  0
 16 14  1  0
 16 18  1  0
 17 16  2  0
M  END
$$$$
