GMA.pdb
     RDKit          3D

 18 17  0  0  1  0  0  0  0  0999 V2000
    7.6636  -14.6981   19.3884 N   0  0  0  0  0  0  0  0  0  0  0  0
    6.9243  -14.9760   20.5924 C   0  0  0  0  0  0  0  0  0  0  0  0
    7.7819  -14.7844   21.8101 C   0  0  0  0  0  0  0  0  0  0  0  0
    9.0061  -14.5277   21.6570 O   0  0  0  0  0  0  0  0  0  0  0  0
    6.3607  -10.3239   26.7243 C   0  0  0  0  0  0  0  0  0  0  0  0
    6.7027  -12.0884   26.9554 S   0  0  0  0  0  0  0  0  0  0  0  0
    6.9807  -12.8176   25.3133 C   0  0  0  0  0  0  0  0  0  0  0  0
    7.2799  -14.2745   25.4450 C   0  0  0  0  0  0  0  0  0  0  0  0
    8.0814  -14.8064   24.2877 C   0  0  2  0  0  0  0  0  0  0  0  0
    7.2235  -14.8905   23.1098 N   0  0  0  0  0  0  0  0  0  0  0  0
    8.6904  -16.1215   24.5312 C   0  0  0  0  0  0  0  0  0  0  0  0
    8.0071  -17.1640   24.5995 O   0  0  0  0  0  0  0  0  0  0  0  0
   12.0594  -17.5697   24.2356 C   0  0  0  0  0  0  0  0  0  0  0  0
   10.6864  -17.5327   24.8863 C   0  0  2  0  0  0  0  0  0  0  0  0
   10.1183  -16.2341   24.6991 N   0  0  0  0  0  0  0  0  0  0  0  0
   10.7722  -17.8462   26.3208 C   0  0  0  0  0  0  0  0  0  0  0  0
   10.4194  -16.9974   27.1683 O   0  0  0  0  0  0  0  0  0  0  0  0
   11.2352  -19.0648   26.8155 O   0  0  0  0  0  0  0  0  0  0  0  0
  1  2  1  0
  2  3  1  0
  3  4  2  0
  6  5  1  0
  7  6  1  0
  7  8  1  0
  9  8  1  1
 10  9  1  0
 10  3  1  0
 11 15  1  0
 11  9  1  0
 12 11  2  0
 14 13  1  1
 14 15  1  0
 16 14  1  0
 16 18  1  0
 17 16  2  0
M  END
$$$$
