GMA.pdb
     RDKit          3D

 18 17  0  0  1  0  0  0  0  0999 V2000
    5.0773  -19.6639   21.9832 N   0  0  0  0  0  0  0  0  0  0  0  0
    5.3744  -19.2608   23.3333 C   0  0  0  0  0  0  0  0  0  0  0  0
    6.2285  -18.0259   23.3535 C   0  0  0  0  0  0  0  0  0  0  0  0
    6.9020  -17.7359   22.3287 O   0  0  0  0  0  0  0  0  0  0  0  0
    7.7681  -11.1433   26.7858 C   0  0  0  0  0  0  0  0  0  0  0  0
    6.7332  -12.6308   26.7760 S   0  0  0  0  0  0  0  0  0  0  0  0
    7.4733  -13.8118   25.6087 C   0  0  0  0  0  0  0  0  0  0  0  0
    6.6662  -15.0675   25.5712 C   0  0  0  0  0  0  0  0  0  0  0  0
    7.1729  -16.0495   24.5497 C   0  0  2  0  0  0  0  0  0  0  0  0
    6.2760  -17.2003   24.5061 N   0  0  0  0  0  0  0  0  0  0  0  0
    8.5434  -16.5198   24.7948 C   0  0  0  0  0  0  0  0  0  0  0  0
    8.8144  -17.3142   25.7189 O   0  0  0  0  0  0  0  0  0  0  0  0
   11.6971  -16.3683   22.7842 C   0  0  0  0  0  0  0  0  0  0  0  0
   10.8670  -16.7660   23.9936 C   0  0  2  0  0  0  0  0  0  0  0  0
    9.6228  -16.0625   23.9549 N   0  0  0  0  0  0  0  0  0  0  0  0
   11.5791  -16.4673   25.2455 C   0  0  0  0  0  0  0  0  0  0  0  0
   12.6895  -16.9945   25.4740 O   0  0  0  0  0  0  0  0  0  0  0  0
   11.0838  -15.6086   26.2260 O   0  0  0  0  0  0  0  0  0  0  0  0
  1  2  1  0
  2  3  1  0
  3  4  2  0
  6  5  1  0
  7  6  1  0
  7  8  1  0
  9  8  1  1
 10  9  1  0
 10  3  1  0
 11 15  1  0
 11  9  1  0
 12 11  2  0
 14 13  1  6
 14 15  1  0
 16 14  1  0
 16 18  1  0
 17 16  2  0
M  END
$$$$
