GMA.pdb
     RDKit          3D

 18 17  0  0  1  0  0  0  0  0999 V2000
    8.3562  -15.9982   19.0740 N   0  0  0  0  0  0  0  0  0  0  0  0
    7.4295  -16.0080   20.1761 C   0  0  0  0  0  0  0  0  0  0  0  0
    8.0669  -15.4669   21.4234 C   0  0  0  0  0  0  0  0  0  0  0  0
    9.3213  -15.5125   21.5340 O   0  0  0  0  0  0  0  0  0  0  0  0
    6.9841  -11.5482   28.1814 C   0  0  0  0  0  0  0  0  0  0  0  0
    6.2392  -12.1174   26.6305 S   0  0  0  0  0  0  0  0  0  0  0  0
    7.4618  -13.1598   25.7797 C   0  0  0  0  0  0  0  0  0  0  0  0
    6.9175  -13.6182   24.4670 C   0  0  0  0  0  0  0  0  0  0  0  0
    7.8862  -14.4879   23.7121 C   0  0  2  0  0  0  0  0  0  0  0  0
    7.2705  -14.9141   22.4591 N   0  0  0  0  0  0  0  0  0  0  0  0
    8.3335  -15.6750   24.4537 C   0  0  0  0  0  0  0  0  0  0  0  0
    7.5496  -16.5966   24.7613 O   0  0  0  0  0  0  0  0  0  0  0  0
   11.5074  -17.3971   24.7980 C   0  0  0  0  0  0  0  0  0  0  0  0
   10.1603  -17.0395   25.4040 C   0  0  2  0  0  0  0  0  0  0  0  0
    9.7151  -15.7997   24.8480 N   0  0  0  0  0  0  0  0  0  0  0  0
   10.2500  -16.9348   26.8684 C   0  0  0  0  0  0  0  0  0  0  0  0
   10.6409  -17.9127   27.5422 O   0  0  0  0  0  0  0  0  0  0  0  0
    9.9179  -15.7820   27.5788 O   0  0  0  0  0  0  0  0  0  0  0  0
  1  2  1  0
  2  3  1  0
  3  4  2  0
  6  5  1  0
  7  6  1  0
  7  8  1  0
  9  8  1  1
 10  9  1  0
 10  3  1  0
 11 15  1  0
 11  9  1  0
 12 11  2  0
 14 13  1  6
 14 15  1  0
 16 14  1  0
 16 18  1  0
 17 16  2  0
M  END
$$$$
