GMA.pdb
     RDKit          3D

 18 17  0  0  1  0  0  0  0  0999 V2000
    9.7785  -15.3359   20.4964 N   0  0  0  0  0  0  0  0  0  0  0  0
    8.5832  -15.6002   21.2548 C   0  0  0  0  0  0  0  0  0  0  0  0
    8.7650  -15.2279   22.6981 C   0  0  0  0  0  0  0  0  0  0  0  0
    9.8976  -14.8349   23.0864 O   0  0  0  0  0  0  0  0  0  0  0  0
    6.8328  -10.4298   26.7570 C   0  0  0  0  0  0  0  0  0  0  0  0
    7.2205  -12.1983   26.8379 S   0  0  0  0  0  0  0  0  0  0  0  0
    6.3172  -13.0245   25.4937 C   0  0  0  0  0  0  0  0  0  0  0  0
    6.5281  -14.5008   25.5681 C   0  0  0  0  0  0  0  0  0  0  0  0
    7.8571  -14.9237   25.0028 C   0  0  2  0  0  0  0  0  0  0  0  0
    7.6806  -15.3171   23.6083 N   0  0  0  0  0  0  0  0  0  0  0  0
    8.4989  -16.0254   25.7335 C   0  0  0  0  0  0  0  0  0  0  0  0
    8.8708  -15.9043   26.9190 O   0  0  0  0  0  0  0  0  0  0  0  0
    9.3714  -19.6012   24.9911 C   0  0  0  0  0  0  0  0  0  0  0  0
    9.4682  -18.2972   25.7657 C   0  0  2  0  0  0  0  0  0  0  0  0
    8.7155  -17.2929   25.0806 N   0  0  0  0  0  0  0  0  0  0  0  0
   10.8683  -17.8704   25.9103 C   0  0  0  0  0  0  0  0  0  0  0  0
   11.6633  -18.5549   26.5905 O   0  0  0  0  0  0  0  0  0  0  0  0
   11.3856  -16.7174   25.3213 O   0  0  0  0  0  0  0  0  0  0  0  0
  1  2  1  0
  2  3  1  0
  3  4  2  0
  6  5  1  0
  7  6  1  0
  7  8  1  0
  9  8  1  1
 10  9  1  0
 10  3  1  0
 11 15  1  0
 11  9  1  0
 12 11  2  0
 14 13  1  6
 14 15  1  0
 16 14  1  0
 16 18  1  0
 17 16  2  0
M  END
$$$$
