GMA.pdb
     RDKit          3D

 18 17  0  0  1  0  0  0  0  0999 V2000
    8.2580  -16.0422   18.8327 N   0  0  0  0  0  0  0  0  0  0  0  0
    7.3679  -16.0542   19.9646 C   0  0  0  0  0  0  0  0  0  0  0  0
    8.0208  -15.4460   21.1723 C   0  0  0  0  0  0  0  0  0  0  0  0
    9.2744  -15.3183   21.1861 O   0  0  0  0  0  0  0  0  0  0  0  0
    7.0803  -11.5820   27.9492 C   0  0  0  0  0  0  0  0  0  0  0  0
    6.2418  -12.3503   26.5382 S   0  0  0  0  0  0  0  0  0  0  0  0
    7.4764  -13.3223   25.6236 C   0  0  0  0  0  0  0  0  0  0  0  0
    6.9099  -13.7671   24.3156 C   0  0  0  0  0  0  0  0  0  0  0  0
    7.8876  -14.5778   23.5085 C   0  0  2  0  0  0  0  0  0  0  0  0
    7.2398  -15.0226   22.2784 N   0  0  0  0  0  0  0  0  0  0  0  0
    8.4275  -15.7477   24.2152 C   0  0  0  0  0  0  0  0  0  0  0  0
    7.7137  -16.7276   24.5132 O   0  0  0  0  0  0  0  0  0  0  0  0
   11.7813  -17.1727   24.5691 C   0  0  0  0  0  0  0  0  0  0  0  0
   10.3630  -17.0089   25.0900 C   0  0  2  0  0  0  0  0  0  0  0  0
    9.8209  -15.7859   24.5851 N   0  0  0  0  0  0  0  0  0  0  0  0
   10.3365  -17.0057   26.5606 C   0  0  0  0  0  0  0  0  0  0  0  0
   10.0126  -15.9677   27.1777 O   0  0  0  0  0  0  0  0  0  0  0  0
   10.6585  -18.1175   27.3380 O   0  0  0  0  0  0  0  0  0  0  0  0
  1  2  1  0
  2  3  1  0
  3  4  2  0
  6  5  1  0
  7  6  1  0
  7  8  1  0
  9  8  1  1
 10  9  1  0
 10  3  1  0
 11 15  1  0
 11  9  1  0
 12 11  2  0
 14 13  1  1
 14 15  1  0
 16 14  1  0
 16 18  1  0
 17 16  2  0
M  END
$$$$
