GMA.pdb
     RDKit          3D

 18 17  0  0  1  0  0  0  0  0999 V2000
    5.1327  -19.5260   21.6029 N   0  0  0  0  0  0  0  0  0  0  0  0
    5.1945  -19.0761   22.9694 C   0  0  0  0  0  0  0  0  0  0  0  0
    6.0955  -17.8826   23.1057 C   0  0  0  0  0  0  0  0  0  0  0  0
    6.7920  -17.5308   22.1163 O   0  0  0  0  0  0  0  0  0  0  0  0
    7.7056  -11.2773   26.9890 C   0  0  0  0  0  0  0  0  0  0  0  0
    6.6495  -12.7460   26.8810 S   0  0  0  0  0  0  0  0  0  0  0  0
    7.4039  -13.8825   25.6791 C   0  0  0  0  0  0  0  0  0  0  0  0
    6.5342  -15.0820   25.4941 C   0  0  0  0  0  0  0  0  0  0  0  0
    7.0808  -16.0394   24.4698 C   0  0  2  0  0  0  0  0  0  0  0  0
    6.1612  -17.1639   24.3271 N   0  0  0  0  0  0  0  0  0  0  0  0
    8.4214  -16.5540   24.7818 C   0  0  0  0  0  0  0  0  0  0  0  0
    8.6145  -17.3880   25.6904 O   0  0  0  0  0  0  0  0  0  0  0  0
   11.6291  -16.5295   22.8852 C   0  0  0  0  0  0  0  0  0  0  0  0
   10.7805  -16.8397   24.1073 C   0  0  2  0  0  0  0  0  0  0  0  0
    9.5623  -16.0953   24.0283 N   0  0  0  0  0  0  0  0  0  0  0  0
   11.4978  -16.5073   25.3477 C   0  0  0  0  0  0  0  0  0  0  0  0
   11.0747  -15.5934   26.0886 O   0  0  0  0  0  0  0  0  0  0  0  0
   12.6546  -17.1634   25.7666 O   0  0  0  0  0  0  0  0  0  0  0  0
  1  2  1  0
  2  3  1  0
  3  4  2  0
  6  5  1  0
  7  6  1  0
  7  8  1  0
  9  8  1  1
 10  9  1  0
 10  3  1  0
 11 15  1  0
 11  9  1  0
 12 11  2  0
 14 13  1  6
 14 15  1  0
 16 14  1  0
 16 18  1  0
 17 16  2  0
M  END
$$$$
