GMA.pdb
     RDKit          3D

 18 17  0  0  1  0  0  0  0  0999 V2000
    7.7761  -16.1897   18.7760 N   0  0  0  0  0  0  0  0  0  0  0  0
    7.0165  -16.2565   19.9976 C   0  0  0  0  0  0  0  0  0  0  0  0
    7.7671  -15.6279   21.1362 C   0  0  0  0  0  0  0  0  0  0  0  0
    9.0212  -15.5324   21.0583 O   0  0  0  0  0  0  0  0  0  0  0  0
    7.3016  -11.3887   27.7251 C   0  0  0  0  0  0  0  0  0  0  0  0
    6.4683  -12.5030   26.5640 S   0  0  0  0  0  0  0  0  0  0  0  0
    7.6411  -12.8887   25.2294 C   0  0  0  0  0  0  0  0  0  0  0  0
    6.9342  -13.5835   24.1127 C   0  0  0  0  0  0  0  0  0  0  0  0
    7.8158  -14.5706   23.3964 C   0  0  2  0  0  0  0  0  0  0  0  0
    7.0762  -15.1501   22.2794 N   0  0  0  0  0  0  0  0  0  0  0  0
    8.3222  -15.6549   24.2492 C   0  0  0  0  0  0  0  0  0  0  0  0
    7.5612  -16.4950   24.7721 O   0  0  0  0  0  0  0  0  0  0  0  0
   11.5672  -17.3248   24.5451 C   0  0  0  0  0  0  0  0  0  0  0  0
   10.2237  -16.9499   25.1487 C   0  0  2  0  0  0  0  0  0  0  0  0
    9.7371  -15.7706   24.5030 N   0  0  0  0  0  0  0  0  0  0  0  0
   10.3393  -16.7232   26.5974 C   0  0  0  0  0  0  0  0  0  0  0  0
   10.1160  -15.5884   27.0723 O   0  0  0  0  0  0  0  0  0  0  0  0
   10.6924  -17.7201   27.5061 O   0  0  0  0  0  0  0  0  0  0  0  0
  1  2  1  0
  2  3  1  0
  3  4  2  0
  6  5  1  0
  7  6  1  0
  7  8  1  0
  9  8  1  1
 10  9  1  0
 10  3  1  0
 11 15  1  0
 11  9  1  0
 12 11  2  0
 14 13  1  6
 14 15  1  0
 16 14  1  0
 16 18  1  0
 17 16  2  0
M  END
$$$$
