GMA.pdb
     RDKit          3D

 18 17  0  0  1  0  0  0  0  0999 V2000
    7.8137  -14.6524   19.6969 N   0  0  0  0  0  0  0  0  0  0  0  0
    7.0959  -15.1673   20.8341 C   0  0  0  0  0  0  0  0  0  0  0  0
    7.8850  -14.9868   22.0988 C   0  0  0  0  0  0  0  0  0  0  0  0
    9.1424  -14.9423   22.0295 O   0  0  0  0  0  0  0  0  0  0  0  0
    6.3901  -10.1520   26.8515 C   0  0  0  0  0  0  0  0  0  0  0  0
    6.3896  -11.9533   27.0498 S   0  0  0  0  0  0  0  0  0  0  0  0
    7.0475  -12.6785   25.5180 C   0  0  0  0  0  0  0  0  0  0  0  0
    7.1520  -14.1614   25.6583 C   0  0  0  0  0  0  0  0  0  0  0  0
    8.0012  -14.7848   24.5837 C   0  0  2  0  0  0  0  0  0  0  0  0
    7.2262  -14.8685   23.3496 N   0  0  0  0  0  0  0  0  0  0  0  0
    8.5120  -16.1212   24.9196 C   0  0  0  0  0  0  0  0  0  0  0  0
    7.7595  -17.1132   25.0097 O   0  0  0  0  0  0  0  0  0  0  0  0
   11.7387  -17.8174   24.7021 C   0  0  0  0  0  0  0  0  0  0  0  0
   10.3999  -17.6403   25.3993 C   0  0  2  0  0  0  0  0  0  0  0  0
    9.9213  -16.3150   25.1564 N   0  0  0  0  0  0  0  0  0  0  0  0
   10.5211  -17.8779   26.8457 C   0  0  0  0  0  0  0  0  0  0  0  0
   10.8889  -18.9962   27.2668 O   0  0  0  0  0  0  0  0  0  0  0  0
   10.2447  -16.9096   27.8101 O   0  0  0  0  0  0  0  0  0  0  0  0
  1  2  1  0
  2  3  1  0
  3  4  2  0
  6  5  1  0
  7  6  1  0
  7  8  1  0
  9  8  1  1
 10  9  1  0
 10  3  1  0
 11 15  1  0
 11  9  1  0
 12 11  2  0
 14 13  1  6
 14 15  1  0
 16 14  1  0
 16 18  1  0
 17 16  2  0
M  END
$$$$
