GMA.pdb
     RDKit          3D

 18 17  0  0  1  0  0  0  0  0999 V2000
    7.9835  -13.0011   18.4912 N   0  0  0  0  0  0  0  0  0  0  0  0
    7.2050  -13.7308   19.4582 C   0  0  0  0  0  0  0  0  0  0  0  0
    7.8621  -13.7100   20.8082 C   0  0  0  0  0  0  0  0  0  0  0  0
    9.1195  -13.6571   20.8715 O   0  0  0  0  0  0  0  0  0  0  0  0
    7.2343  -12.1678   28.4343 C   0  0  0  0  0  0  0  0  0  0  0  0
    6.3618  -12.2870   26.8504 S   0  0  0  0  0  0  0  0  0  0  0  0
    7.4392  -13.1824   25.6916 C   0  0  0  0  0  0  0  0  0  0  0  0
    6.8329  -13.1840   24.3271 C   0  0  0  0  0  0  0  0  0  0  0  0
    7.7280  -13.8197   23.2980 C   0  0  2  0  0  0  0  0  0  0  0  0
    7.0807  -13.7493   21.9916 N   0  0  0  0  0  0  0  0  0  0  0  0
    8.0764  -15.2183   23.5848 C   0  0  0  0  0  0  0  0  0  0  0  0
    7.3045  -16.1610   23.3128 O   0  0  0  0  0  0  0  0  0  0  0  0
   10.2463  -17.4405   23.0518 C   0  0  0  0  0  0  0  0  0  0  0  0
    9.6998  -16.9081   24.3663 C   0  0  2  0  0  0  0  0  0  0  0  0
    9.3427  -15.5338   24.1985 N   0  0  0  0  0  0  0  0  0  0  0  0
   10.6897  -17.0462   25.4454 C   0  0  0  0  0  0  0  0  0  0  0  0
   11.1173  -16.0301   26.0351 O   0  0  0  0  0  0  0  0  0  0  0  0
   11.1998  -18.2728   25.8689 O   0  0  0  0  0  0  0  0  0  0  0  0
  1  2  1  0
  2  3  1  0
  3  4  2  0
  6  5  1  0
  7  6  1  0
  7  8  1  0
  9  8  1  1
 10  9  1  0
 10  3  1  0
 11 15  1  0
 11  9  1  0
 12 11  2  0
 14 13  1  6
 14 15  1  0
 16 14  1  0
 16 18  1  0
 17 16  2  0
M  END
$$$$
