GMA.pdb
     RDKit          3D

 18 17  0  0  1  0  0  0  0  0999 V2000
    7.8978  -15.4318   18.9817 N   0  0  0  0  0  0  0  0  0  0  0  0
    6.9919  -15.5438   20.0954 C   0  0  0  0  0  0  0  0  0  0  0  0
    7.6649  -15.1572   21.3809 C   0  0  0  0  0  0  0  0  0  0  0  0
    8.9240  -15.1466   21.4285 O   0  0  0  0  0  0  0  0  0  0  0  0
    7.7376  -11.6336   28.1266 C   0  0  0  0  0  0  0  0  0  0  0  0
    6.9558  -11.8945   26.5126 S   0  0  0  0  0  0  0  0  0  0  0  0
    7.1303  -13.6545   26.0917 C   0  0  0  0  0  0  0  0  0  0  0  0
    6.5535  -13.9163   24.7395 C   0  0  0  0  0  0  0  0  0  0  0  0
    7.5552  -14.5171   23.7907 C   0  0  2  0  0  0  0  0  0  0  0  0
    6.8963  -14.8101   22.5216 N   0  0  0  0  0  0  0  0  0  0  0  0
    8.1984  -15.7405   24.2897 C   0  0  0  0  0  0  0  0  0  0  0  0
    7.5618  -16.8014   24.4564 O   0  0  0  0  0  0  0  0  0  0  0  0
   11.5910  -17.0736   24.3957 C   0  0  0  0  0  0  0  0  0  0  0  0
   10.2156  -16.9581   25.0318 C   0  0  2  0  0  0  0  0  0  0  0  0
    9.6062  -15.7378   24.6026 N   0  0  0  0  0  0  0  0  0  0  0  0
   10.3070  -16.9898   26.4995 C   0  0  0  0  0  0  0  0  0  0  0  0
    9.9730  -15.9877   27.1683 O   0  0  0  0  0  0  0  0  0  0  0  0
   10.7554  -18.0971   27.2184 O   0  0  0  0  0  0  0  0  0  0  0  0
  1  2  1  0
  2  3  1  0
  3  4  2  0
  6  5  1  0
  7  6  1  0
  7  8  1  0
  9  8  1  1
 10  9  1  0
 10  3  1  0
 11 15  1  0
 11  9  1  0
 12 11  2  0
 14 13  1  6
 14 15  1  0
 16 14  1  0
 16 18  1  0
 17 16  2  0
M  END
$$$$
