GMA.pdb
     RDKit          3D

 18 17  0  0  1  0  0  0  0  0999 V2000
    8.0675  -14.9756   19.4173 N   0  0  0  0  0  0  0  0  0  0  0  0
    7.1853  -15.1006   20.5485 C   0  0  0  0  0  0  0  0  0  0  0  0
    7.9396  -14.9679   21.8401 C   0  0  0  0  0  0  0  0  0  0  0  0
    9.1992  -14.9918   21.8134 O   0  0  0  0  0  0  0  0  0  0  0  0
    7.7463  -11.1583   27.4577 C   0  0  0  0  0  0  0  0  0  0  0  0
    6.3068  -12.0742   26.8469 S   0  0  0  0  0  0  0  0  0  0  0  0
    6.7548  -12.8024   25.2424 C   0  0  0  0  0  0  0  0  0  0  0  0
    7.0764  -14.2508   25.4105 C   0  0  0  0  0  0  0  0  0  0  0  0
    7.9830  -14.7705   24.3276 C   0  0  2  0  0  0  0  0  0  0  0  0
    7.2462  -14.8184   23.0685 N   0  0  0  0  0  0  0  0  0  0  0  0
    8.5485  -16.0989   24.6021 C   0  0  0  0  0  0  0  0  0  0  0  0
    7.8354  -17.1219   24.6598 O   0  0  0  0  0  0  0  0  0  0  0  0
   11.7731  -17.7468   24.3055 C   0  0  0  0  0  0  0  0  0  0  0  0
   10.4860  -17.5515   25.0898 C   0  0  2  0  0  0  0  0  0  0  0  0
    9.9672  -16.2480   24.8142 N   0  0  0  0  0  0  0  0  0  0  0  0
   10.7171  -17.7099   26.5338 C   0  0  0  0  0  0  0  0  0  0  0  0
   11.2288  -18.7626   26.9731 O   0  0  0  0  0  0  0  0  0  0  0  0
   10.3938  -16.7343   27.4759 O   0  0  0  0  0  0  0  0  0  0  0  0
  1  2  1  0
  2  3  1  0
  3  4  2  0
  6  5  1  0
  7  6  1  0
  7  8  1  0
  9  8  1  1
 10  9  1  0
 10  3  1  0
 11 15  1  0
 11  9  1  0
 12 11  2  0
 14 13  1  6
 14 15  1  0
 16 14  1  0
 16 18  1  0
 17 16  2  0
M  END
$$$$
