GMA.pdb
     RDKit          3D

 18 17  0  0  1  0  0  0  0  0999 V2000
    5.0823  -19.5880   22.4611 N   0  0  0  0  0  0  0  0  0  0  0  0
    5.3735  -18.9646   23.7261 C   0  0  0  0  0  0  0  0  0  0  0  0
    6.1855  -17.7154   23.5392 C   0  0  0  0  0  0  0  0  0  0  0  0
    6.7735  -17.5315   22.4399 O   0  0  0  0  0  0  0  0  0  0  0  0
    7.0457  -12.6416   28.0460 C   0  0  0  0  0  0  0  0  0  0  0  0
    6.8873  -11.9893   26.3627 S   0  0  0  0  0  0  0  0  0  0  0  0
    7.5051  -13.2589   25.2172 C   0  0  0  0  0  0  0  0  0  0  0  0
    6.7025  -14.5099   25.3597 C   0  0  0  0  0  0  0  0  0  0  0  0
    7.1663  -15.6022   24.4343 C   0  0  2  0  0  0  0  0  0  0  0  0
    6.2888  -16.7592   24.5820 N   0  0  0  0  0  0  0  0  0  0  0  0
    8.5568  -16.0252   24.6516 C   0  0  0  0  0  0  0  0  0  0  0  0
    8.9006  -16.6729   25.6619 O   0  0  0  0  0  0  0  0  0  0  0  0
   11.5160  -16.2213   22.3762 C   0  0  0  0  0  0  0  0  0  0  0  0
   10.8057  -16.4128   23.7062 C   0  0  2  0  0  0  0  0  0  0  0  0
    9.5707  -15.6928   23.6814 N   0  0  0  0  0  0  0  0  0  0  0  0
   11.6410  -15.9475   24.8239 C   0  0  0  0  0  0  0  0  0  0  0  0
   12.7366  -16.5022   25.0587 O   0  0  0  0  0  0  0  0  0  0  0  0
   11.2823  -14.8959   25.6662 O   0  0  0  0  0  0  0  0  0  0  0  0
  1  2  1  0
  2  3  1  0
  3  4  2  0
  6  5  1  0
  7  6  1  0
  7  8  1  0
  9  8  1  1
 10  9  1  0
 10  3  1  0
 11 15  1  0
 11  9  1  0
 12 11  2  0
 14 13  1  6
 14 15  1  0
 16 14  1  0
 16 18  1  0
 17 16  2  0
M  END
$$$$
