KFK.pdb
     RDKit          3D

 30 30  0  0  1  0  0  0  0  0999 V2000
    8.2477  -16.9618   19.9059 N   0  0  0  0  0  0  0  0  0  0  0  0
    9.5168  -16.2824   20.1462 C   0  0  1  0  0  0  0  0  0  0  0  0
    9.6888  -15.2957   19.0337 C   0  0  0  0  0  0  0  0  0  0  0  0
    8.4846  -15.1187   18.1478 C   0  0  0  0  0  0  0  0  0  0  0  0
    8.8107  -14.2100   16.9567 C   0  0  0  0  0  0  0  0  0  0  0  0
    7.6140  -14.0284   16.0551 C   0  0  0  0  0  0  0  0  0  0  0  0
    8.1026  -13.9011   14.6848 N   0  0  0  0  0  0  0  0  0  0  0  0
    9.5481  -15.6324   21.4479 C   0  0  0  0  0  0  0  0  0  0  0  0
   10.6338  -15.1493   21.8948 O   0  0  0  0  0  0  0  0  0  0  0  0
    8.4430  -15.4739   22.3161 N   0  0  0  0  0  0  0  0  0  0  0  0
    8.5461  -14.9018   23.6587 C   0  0  1  0  0  0  0  0  0  0  0  0
    7.3274  -14.0748   23.8949 C   0  0  0  0  0  0  0  0  0  0  0  0
    7.2858  -13.4455   25.2327 C   0  0  0  0  0  0  0  0  0  0  0  0
    8.1371  -12.3807   25.5019 C   0  0  0  0  0  0  0  0  0  0  0  0
    8.1005  -11.7663   26.7295 C   0  0  0  0  0  0  0  0  0  0  0  0
    7.2355  -12.1744   27.7201 C   0  0  0  0  0  0  0  0  0  0  0  0
    6.3914  -13.2243   27.4648 C   0  0  0  0  0  0  0  0  0  0  0  0
    6.4219  -13.8580   26.2144 C   0  0  0  0  0  0  0  0  0  0  0  0
    8.8169  -15.9427   24.6583 C   0  0  0  0  0  0  0  0  0  0  0  0
    7.9681  -16.8781   24.7755 O   0  0  0  0  0  0  0  0  0  0  0  0
    9.9824  -15.9524   25.5032 N   0  0  0  0  0  0  0  0  0  0  0  0
   10.1462  -17.0474   26.3998 C   0  0  1  0  0  0  0  0  0  0  0  0
   11.3421  -17.9141   26.0739 C   0  0  0  0  0  0  0  0  0  0  0  0
   10.9822  -19.3754   26.0447 C   0  0  0  0  0  0  0  0  0  0  0  0
   12.1977  -20.1577   25.6154 C   0  0  0  0  0  0  0  0  0  0  0  0
   11.9324  -21.6462   25.4994 C   0  0  0  0  0  0  0  0  0  0  0  0
   13.1840  -22.2520   25.0808 N   0  0  0  0  0  0  0  0  0  0  0  0
   10.2744  -16.5712   27.8370 C   0  0  0  0  0  0  0  0  0  0  0  0
   10.2897  -17.3944   28.7744 O   0  0  0  0  0  0  0  0  0  0  0  0
   10.3716  -15.2120   28.0243 O   0  0  0  0  0  0  0  0  0  0  0  0
  2  3  1  0
  2  1  1  6
  4  3  1  0
  5  4  1  0
  6  5  1  0
  7  6  1  0
  8 10  1  0
  8  2  1  0
  9  8  2  0
 11 10  1  0
 11 12  1  1
 12 13  1  0
 13 18  2  0
 14 15  2  0
 14 13  1  0
 15 16  1  0
 16 17  2  0
 18 17  1  0
 19 20  2  0
 19 11  1  0
 21 19  1  0
 22 28  1  0
 22 21  1  0
 22 23  1  6
 24 23  1  0
 25 24  1  0
 26 27  1  0
 26 25  1  0
 28 30  1  0
 29 28  2  0
M  END
$$$$
