KFK.pdb
     RDKit          3D

 30 30  0  0  1  0  0  0  0  0999 V2000
   10.1934  -16.7882   19.3209 N   0  0  0  0  0  0  0  0  0  0  0  0
    9.2785  -17.2338   20.3670 C   0  0  1  0  0  0  0  0  0  0  0  0
    9.6281  -18.6598   20.6593 C   0  0  0  0  0  0  0  0  0  0  0  0
    8.5058  -19.6436   20.4626 C   0  0  0  0  0  0  0  0  0  0  0  0
    8.9583  -21.0664   20.8114 C   0  0  0  0  0  0  0  0  0  0  0  0
    7.8282  -22.0569   20.6705 C   0  0  0  0  0  0  0  0  0  0  0  0
    8.3116  -23.3546   21.1342 N   0  0  0  0  0  0  0  0  0  0  0  0
    9.3702  -16.4049   21.5595 C   0  0  0  0  0  0  0  0  0  0  0  0
   10.5022  -16.0115   21.9787 O   0  0  0  0  0  0  0  0  0  0  0  0
    8.2782  -15.9686   22.3453 N   0  0  0  0  0  0  0  0  0  0  0  0
    8.4248  -15.1464   23.5465 C   0  0  1  0  0  0  0  0  0  0  0  0
    7.1707  -14.3559   23.7117 C   0  0  0  0  0  0  0  0  0  0  0  0
    7.1196  -13.5776   24.9684 C   0  0  0  0  0  0  0  0  0  0  0  0
    7.8156  -12.3772   25.0449 C   0  0  0  0  0  0  0  0  0  0  0  0
    7.7646  -11.6265   26.1936 C   0  0  0  0  0  0  0  0  0  0  0  0
    7.0359  -12.0272   27.2911 C   0  0  0  0  0  0  0  0  0  0  0  0
    6.3456  -13.2101   27.2260 C   0  0  0  0  0  0  0  0  0  0  0  0
    6.3920  -13.9835   26.0574 C   0  0  0  0  0  0  0  0  0  0  0  0
    8.8243  -15.9616   24.7005 C   0  0  0  0  0  0  0  0  0  0  0  0
    8.1020  -16.9639   24.9886 O   0  0  0  0  0  0  0  0  0  0  0  0
    9.9795  -15.6816   25.5126 N   0  0  0  0  0  0  0  0  0  0  0  0
   10.3138  -16.6115   26.5387 C   0  0  1  0  0  0  0  0  0  0  0  0
   11.7154  -17.1657   26.4109 C   0  0  0  0  0  0  0  0  0  0  0  0
   12.0112  -18.1888   27.4746 C   0  0  0  0  0  0  0  0  0  0  0  0
   13.3313  -18.8429   27.1535 C   0  0  0  0  0  0  0  0  0  0  0  0
   13.7417  -19.8816   28.1793 C   0  0  0  0  0  0  0  0  0  0  0  0
   14.9842  -20.4601   27.6992 N   0  0  0  0  0  0  0  0  0  0  0  0
   10.1658  -15.9907   27.9177 C   0  0  0  0  0  0  0  0  0  0  0  0
   10.1671  -14.7505   28.0535 O   0  0  0  0  0  0  0  0  0  0  0  0
   10.0322  -16.8654   28.9707 O   0  0  0  0  0  0  0  0  0  0  0  0
  2  3  1  0
  2  1  1  6
  4  3  1  0
  5  4  1  0
  6  5  1  0
  7  6  1  0
  8 10  1  0
  8  2  1  0
  9  8  2  0
 11 10  1  0
 11 12  1  1
 12 13  1  0
 13 18  2  0
 14 15  2  0
 14 13  1  0
 15 16  1  0
 16 17  2  0
 18 17  1  0
 19 20  2  0
 19 11  1  0
 21 19  1  0
 22 28  1  0
 22 21  1  0
 22 23  1  6
 24 23  1  0
 25 24  1  0
 26 27  1  0
 26 25  1  0
 28 30  1  0
 29 28  2  0
M  END
$$$$
