KFK.pdb
     RDKit          3D

 30 30  0  0  1  0  0  0  0  0999 V2000
    7.4024  -17.5885   19.7170 N   0  0  0  0  0  0  0  0  0  0  0  0
    8.6316  -17.8147   20.4704 C   0  0  1  0  0  0  0  0  0  0  0  0
    9.7359  -17.9114   19.4644 C   0  0  0  0  0  0  0  0  0  0  0  0
    9.3594  -18.5771   18.1678 C   0  0  0  0  0  0  0  0  0  0  0  0
   10.5739  -19.2651   17.5333 C   0  0  0  0  0  0  0  0  0  0  0  0
   10.2905  -20.7153   17.2257 C   0  0  0  0  0  0  0  0  0  0  0  0
   11.4315  -21.2457   16.4844 N   0  0  0  0  0  0  0  0  0  0  0  0
    8.8797  -16.7560   21.4376 C   0  0  0  0  0  0  0  0  0  0  0  0
   10.0607  -16.3330   21.6329 O   0  0  0  0  0  0  0  0  0  0  0  0
    7.8970  -16.1148   22.2270 N   0  0  0  0  0  0  0  0  0  0  0  0
    8.2089  -15.3062   23.4057 C   0  0  1  0  0  0  0  0  0  0  0  0
    7.0774  -14.3578   23.6184 C   0  0  0  0  0  0  0  0  0  0  0  0
    7.1957  -13.5593   24.8577 C   0  0  0  0  0  0  0  0  0  0  0  0
    6.6599  -14.0638   26.0365 C   0  0  0  0  0  0  0  0  0  0  0  0
    6.7773  -13.3504   27.2040 C   0  0  0  0  0  0  0  0  0  0  0  0
    7.4180  -12.1324   27.2494 C   0  0  0  0  0  0  0  0  0  0  0  0
    7.9501  -11.6257   26.0918 C   0  0  0  0  0  0  0  0  0  0  0  0
    7.8348  -12.3467   24.8948 C   0  0  0  0  0  0  0  0  0  0  0  0
    8.5572  -16.1544   24.5525 C   0  0  0  0  0  0  0  0  0  0  0  0
    7.7161  -17.0352   24.9073 O   0  0  0  0  0  0  0  0  0  0  0  0
    9.7899  -16.0356   25.2866 N   0  0  0  0  0  0  0  0  0  0  0  0
   10.0763  -17.0235   26.2722 C   0  0  1  0  0  0  0  0  0  0  0  0
   11.3244  -17.8237   25.9726 C   0  0  0  0  0  0  0  0  0  0  0  0
   11.0975  -18.8209   24.8681 C   0  0  0  0  0  0  0  0  0  0  0  0
   12.4301  -19.4039   24.4705 C   0  0  0  0  0  0  0  0  0  0  0  0
   12.3332  -20.3481   23.2878 C   0  0  0  0  0  0  0  0  0  0  0  0
   13.6937  -20.7446   22.9702 N   0  0  0  0  0  0  0  0  0  0  0  0
   10.2221  -16.4030   27.6515 C   0  0  0  0  0  0  0  0  0  0  0  0
   10.1997  -15.1633   27.7900 O   0  0  0  0  0  0  0  0  0  0  0  0
   10.3734  -17.2775   28.7023 O   0  0  0  0  0  0  0  0  0  0  0  0
  2  3  1  0
  2  1  1  6
  4  3  1  0
  5  4  1  0
  6  5  1  0
  7  6  1  0
  8 10  1  0
  8  2  1  0
  9  8  2  0
 11 10  1  0
 11 12  1  1
 12 13  1  0
 13 18  2  0
 14 15  2  0
 14 13  1  0
 15 16  1  0
 16 17  2  0
 18 17  1  0
 19 20  2  0
 19 11  1  0
 21 19  1  0
 22 28  1  0
 22 21  1  0
 22 23  1  6
 24 23  1  0
 25 24  1  0
 26 27  1  0
 26 25  1  0
 28 30  1  0
 29 28  2  0
M  END
$$$$
