KFK.pdb
     RDKit          3D

 30 30  0  0  1  0  0  0  0  0999 V2000
    7.5516  -15.3258   18.9532 N   0  0  0  0  0  0  0  0  0  0  0  0
    8.7434  -14.5523   19.2867 C   0  0  1  0  0  0  0  0  0  0  0  0
    8.6475  -13.2706   18.5193 C   0  0  0  0  0  0  0  0  0  0  0  0
    7.9493  -13.3753   17.1897 C   0  0  0  0  0  0  0  0  0  0  0  0
    8.6864  -14.3463   16.2598 C   0  0  0  0  0  0  0  0  0  0  0  0
    7.7443  -14.9885   15.2708 C   0  0  0  0  0  0  0  0  0  0  0  0
    7.9851  -14.3801   13.9652 N   0  0  0  0  0  0  0  0  0  0  0  0
    8.8537  -14.3125   20.7178 C   0  0  0  0  0  0  0  0  0  0  0  0
    9.8852  -13.7448   21.1928 O   0  0  0  0  0  0  0  0  0  0  0  0
    7.8871  -14.6637   21.6886 N   0  0  0  0  0  0  0  0  0  0  0  0
    8.0561  -14.4210   23.1214 C   0  0  1  0  0  0  0  0  0  0  0  0
    6.8037  -13.7869   23.6256 C   0  0  0  0  0  0  0  0  0  0  0  0
    6.8379  -13.4686   25.0696 C   0  0  0  0  0  0  0  0  0  0  0  0
    7.4556  -12.2952   25.4853 C   0  0  0  0  0  0  0  0  0  0  0  0
    7.4799  -11.9678   26.8187 C   0  0  0  0  0  0  0  0  0  0  0  0
    6.9043  -12.7742   27.7750 C   0  0  0  0  0  0  0  0  0  0  0  0
    6.2924  -13.9344   27.3754 C   0  0  0  0  0  0  0  0  0  0  0  0
    6.2629  -14.2771   26.0161 C   0  0  0  0  0  0  0  0  0  0  0  0
    8.4811  -15.6415   23.8185 C   0  0  0  0  0  0  0  0  0  0  0  0
    7.7727  -16.6822   23.6633 O   0  0  0  0  0  0  0  0  0  0  0  0
    9.6462  -15.7135   24.6610 N   0  0  0  0  0  0  0  0  0  0  0  0
    9.9943  -16.9814   25.2096 C   0  0  1  0  0  0  0  0  0  0  0  0
   11.2754  -17.5487   24.6399 C   0  0  0  0  0  0  0  0  0  0  0  0
   11.5989  -18.8970   25.2256 C   0  0  0  0  0  0  0  0  0  0  0  0
   12.8415  -19.4237   24.5532 C   0  0  0  0  0  0  0  0  0  0  0  0
   13.2360  -20.8053   25.0381 C   0  0  0  0  0  0  0  0  0  0  0  0
   14.3591  -21.2205   24.2165 N   0  0  0  0  0  0  0  0  0  0  0  0
   10.1293  -16.9118   26.7214 C   0  0  0  0  0  0  0  0  0  0  0  0
   10.0622  -15.8137   27.3099 O   0  0  0  0  0  0  0  0  0  0  0  0
   10.3221  -18.1073   27.3736 O   0  0  0  0  0  0  0  0  0  0  0  0
  2  3  1  0
  2  1  1  1
  4  3  1  0
  5  4  1  0
  6  5  1  0
  7  6  1  0
  8 10  1  0
  8  2  1  0
  9  8  2  0
 11 10  1  0
 11 12  1  1
 12 13  1  0
 13 18  2  0
 14 15  2  0
 14 13  1  0
 15 16  1  0
 16 17  2  0
 18 17  1  0
 19 20  2  0
 19 11  1  0
 21 19  1  0
 22 28  1  0
 22 21  1  0
 22 23  1  6
 24 23  1  0
 25 24  1  0
 26 27  1  0
 26 25  1  0
 28 30  1  0
 29 28  2  0
M  END
$$$$
