KFK.pdb
     RDKit          3D

 30 30  0  0  1  0  0  0  0  0999 V2000
   10.3433  -16.3674   18.9776 N   0  0  0  0  0  0  0  0  0  0  0  0
    9.0500  -16.3732   19.6537 C   0  0  1  0  0  0  0  0  0  0  0  0
    8.5557  -17.7857   19.6153 C   0  0  0  0  0  0  0  0  0  0  0  0
    8.4739  -18.3943   18.2408 C   0  0  0  0  0  0  0  0  0  0  0  0
    7.9596  -19.8370   18.3112 C   0  0  0  0  0  0  0  0  0  0  0  0
    7.9318  -20.4820   16.9470 C   0  0  0  0  0  0  0  0  0  0  0  0
    7.3755  -21.8237   17.0988 N   0  0  0  0  0  0  0  0  0  0  0  0
    9.1471  -15.8770   21.0183 C   0  0  0  0  0  0  0  0  0  0  0  0
   10.1946  -16.0912   21.7030 O   0  0  0  0  0  0  0  0  0  0  0  0
    8.1480  -15.1456   21.7018 N   0  0  0  0  0  0  0  0  0  0  0  0
    8.2491  -14.7613   23.1098 C   0  0  1  0  0  0  0  0  0  0  0  0
    7.2586  -13.6735   23.3560 C   0  0  0  0  0  0  0  0  0  0  0  0
    7.1831  -13.2468   24.7702 C   0  0  0  0  0  0  0  0  0  0  0  0
    6.1386  -13.7140   25.5588 C   0  0  0  0  0  0  0  0  0  0  0  0
    6.0605  -13.3493   26.8804 C   0  0  0  0  0  0  0  0  0  0  0  0
    6.9961  -12.5232   27.4622 C   0  0  0  0  0  0  0  0  0  0  0  0
    8.0306  -12.0566   26.6927 C   0  0  0  0  0  0  0  0  0  0  0  0
    8.1184  -12.4234   25.3423 C   0  0  0  0  0  0  0  0  0  0  0  0
    8.1437  -15.9336   23.9875 C   0  0  0  0  0  0  0  0  0  0  0  0
    7.1563  -16.7105   23.8121 O   0  0  0  0  0  0  0  0  0  0  0  0
    9.0925  -16.2397   25.0260 N   0  0  0  0  0  0  0  0  0  0  0  0
    8.9378  -17.4695   25.7284 C   0  0  1  0  0  0  0  0  0  0  0  0
   10.1069  -17.7941   26.6315 C   0  0  0  0  0  0  0  0  0  0  0  0
    9.9317  -17.2061   28.0060 C   0  0  0  0  0  0  0  0  0  0  0  0
   11.1297  -17.5807   28.8415 C   0  0  0  0  0  0  0  0  0  0  0  0
   11.1122  -16.9460   30.2187 C   0  0  0  0  0  0  0  0  0  0  0  0
   12.3518  -17.3394   30.8647 N   0  0  0  0  0  0  0  0  0  0  0  0
    7.6687  -17.4735   26.5640 C   0  0  0  0  0  0  0  0  0  0  0  0
    7.0216  -16.4200   26.7317 O   0  0  0  0  0  0  0  0  0  0  0  0
    7.2953  -18.6827   27.1026 O   0  0  0  0  0  0  0  0  0  0  0  0
  2  3  1  0
  2  1  1  1
  4  3  1  0
  5  4  1  0
  6  5  1  0
  7  6  1  0
  8 10  1  0
  8  2  1  0
  9  8  2  0
 11 10  1  0
 11 12  1  1
 12 13  1  0
 13 18  2  0
 14 15  2  0
 14 13  1  0
 15 16  1  0
 16 17  2  0
 18 17  1  0
 19 20  2  0
 19 11  1  0
 21 19  1  0
 22 28  1  0
 22 21  1  0
 22 23  1  1
 24 23  1  0
 25 24  1  0
 26 27  1  0
 26 25  1  0
 28 30  1  0
 29 28  2  0
M  END
$$$$
