KFK.pdb
     RDKit          3D

 30 30  0  0  1  0  0  0  0  0999 V2000
    8.1183  -17.6263   20.2718 N   0  0  0  0  0  0  0  0  0  0  0  0
    9.4814  -17.2761   20.6581 C   0  0  1  0  0  0  0  0  0  0  0  0
   10.1496  -16.7456   19.4280 C   0  0  0  0  0  0  0  0  0  0  0  0
   10.1951  -17.7015   18.2659 C   0  0  0  0  0  0  0  0  0  0  0  0
   11.2402  -18.7985   18.5007 C   0  0  0  0  0  0  0  0  0  0  0  0
   11.3138  -19.7521   17.3331 C   0  0  0  0  0  0  0  0  0  0  0  0
   12.2668  -20.8043   17.6754 N   0  0  0  0  0  0  0  0  0  0  0  0
    9.5075  -16.3057   21.7422 C   0  0  0  0  0  0  0  0  0  0  0  0
   10.6132  -15.8350   22.1519 O   0  0  0  0  0  0  0  0  0  0  0  0
    8.3758  -15.8051   22.4270 N   0  0  0  0  0  0  0  0  0  0  0  0
    8.4606  -14.9737   23.6278 C   0  0  1  0  0  0  0  0  0  0  0  0
    7.2588  -14.0906   23.6546 C   0  0  0  0  0  0  0  0  0  0  0  0
    7.1797  -13.2301   24.8550 C   0  0  0  0  0  0  0  0  0  0  0  0
    6.3786  -13.6301   25.9177 C   0  0  0  0  0  0  0  0  0  0  0  0
    6.3072  -12.8587   27.0514 C   0  0  0  0  0  0  0  0  0  0  0  0
    7.0131  -11.6828   27.1753 C   0  0  0  0  0  0  0  0  0  0  0  0
    7.8064  -11.2791   26.1324 C   0  0  0  0  0  0  0  0  0  0  0  0
    7.8853  -12.0601   24.9706 C   0  0  0  0  0  0  0  0  0  0  0  0
    8.6787  -15.7943   24.8256 C   0  0  0  0  0  0  0  0  0  0  0  0
    7.7856  -16.6441   25.1248 O   0  0  0  0  0  0  0  0  0  0  0  0
    9.8405  -15.6818   25.6682 N   0  0  0  0  0  0  0  0  0  0  0  0
   10.0210  -16.6599   26.6881 C   0  0  1  0  0  0  0  0  0  0  0  0
   11.2303  -17.5407   26.4654 C   0  0  0  0  0  0  0  0  0  0  0  0
   11.1581  -18.2672   25.1491 C   0  0  0  0  0  0  0  0  0  0  0  0
   12.4552  -19.0073   24.9407 C   0  0  0  0  0  0  0  0  0  0  0  0
   12.5051  -19.7533   23.6214 C   0  0  0  0  0  0  0  0  0  0  0  0
   13.7976  -20.4137   23.5751 N   0  0  0  0  0  0  0  0  0  0  0  0
   10.1416  -16.0146   28.0585 C   0  0  0  0  0  0  0  0  0  0  0  0
   10.2115  -16.7219   29.0838 O   0  0  0  0  0  0  0  0  0  0  0  0
   10.1698  -14.6398   28.0863 O   0  0  0  0  0  0  0  0  0  0  0  0
  2  3  1  0
  2  1  1  6
  4  3  1  0
  5  4  1  0
  6  5  1  0
  7  6  1  0
  8 10  1  0
  8  2  1  0
  9  8  2  0
 11 10  1  0
 11 12  1  1
 12 13  1  0
 13 18  2  0
 14 15  2  0
 14 13  1  0
 15 16  1  0
 16 17  2  0
 18 17  1  0
 19 20  2  0
 19 11  1  0
 21 19  1  0
 22 28  1  0
 22 21  1  0
 22 23  1  6
 24 23  1  0
 25 24  1  0
 26 27  1  0
 26 25  1  0
 28 30  1  0
 29 28  2  0
M  END
$$$$
