KFK.pdb
     RDKit          3D

 30 30  0  0  1  0  0  0  0  0999 V2000
    7.9604  -14.6618   19.6990 N   0  0  0  0  0  0  0  0  0  0  0  0
    7.3225  -15.5192   20.6929 C   0  0  1  0  0  0  0  0  0  0  0  0
    7.4206  -16.9196   20.1730 C   0  0  0  0  0  0  0  0  0  0  0  0
    7.3041  -17.0533   18.6781 C   0  0  0  0  0  0  0  0  0  0  0  0
    7.3301  -18.5274   18.2572 C   0  0  0  0  0  0  0  0  0  0  0  0
    7.1090  -18.6830   16.7723 C   0  0  0  0  0  0  0  0  0  0  0  0
    7.2533  -20.0990   16.4455 N   0  0  0  0  0  0  0  0  0  0  0  0
    7.9437  -15.3896   22.0025 C   0  0  0  0  0  0  0  0  0  0  0  0
    9.1709  -15.0787   22.0996 O   0  0  0  0  0  0  0  0  0  0  0  0
    7.2959  -15.5848   23.2444 N   0  0  0  0  0  0  0  0  0  0  0  0
    7.9609  -15.4206   24.5371 C   0  0  1  0  0  0  0  0  0  0  0  0
    6.9145  -15.0905   25.5476 C   0  0  0  0  0  0  0  0  0  0  0  0
    6.8848  -13.6615   25.9278 C   0  0  0  0  0  0  0  0  0  0  0  0
    8.0720  -12.9392   25.9223 C   0  0  0  0  0  0  0  0  0  0  0  0
    8.0654  -11.6057   26.2499 C   0  0  0  0  0  0  0  0  0  0  0  0
    6.9047  -10.9471   26.5895 C   0  0  0  0  0  0  0  0  0  0  0  0
    5.7279  -11.6507   26.5982 C   0  0  0  0  0  0  0  0  0  0  0  0
    5.7249  -13.0127   26.2654 C   0  0  0  0  0  0  0  0  0  0  0  0
    8.8078  -16.5791   24.8477 C   0  0  0  0  0  0  0  0  0  0  0  0
    8.2685  -17.7267   24.8097 O   0  0  0  0  0  0  0  0  0  0  0  0
   10.2021  -16.4779   25.1915 N   0  0  0  0  0  0  0  0  0  0  0  0
   10.9350  -17.6872   25.3648 C   0  0  1  0  0  0  0  0  0  0  0  0
   12.3439  -17.6166   24.8192 C   0  0  0  0  0  0  0  0  0  0  0  0
   13.0670  -18.9285   24.9667 C   0  0  0  0  0  0  0  0  0  0  0  0
   14.4615  -18.7693   24.4156 C   0  0  0  0  0  0  0  0  0  0  0  0
   15.2516  -20.0636   24.4228 C   0  0  0  0  0  0  0  0  0  0  0  0
   16.6115  -19.7133   24.0528 N   0  0  0  0  0  0  0  0  0  0  0  0
   11.0056  -18.0864   26.8292 C   0  0  0  0  0  0  0  0  0  0  0  0
   11.5707  -19.1463   27.1666 O   0  0  0  0  0  0  0  0  0  0  0  0
   10.4230  -17.2225   27.7270 O   0  0  0  0  0  0  0  0  0  0  0  0
  2  3  1  0
  2  1  1  6
  4  3  1  0
  5  4  1  0
  6  5  1  0
  7  6  1  0
  8 10  1  0
  8  2  1  0
  9  8  2  0
 11 10  1  0
 11 12  1  1
 12 13  1  0
 13 18  2  0
 14 15  2  0
 14 13  1  0
 15 16  1  0
 16 17  2  0
 18 17  1  0
 19 20  2  0
 19 11  1  0
 21 19  1  0
 22 28  1  0
 22 21  1  0
 22 23  1  1
 24 23  1  0
 25 24  1  0
 26 27  1  0
 26 25  1  0
 28 30  1  0
 29 28  2  0
M  END
$$$$
