KFK.pdb
     RDKit          3D

 30 30  0  0  1  0  0  0  0  0999 V2000
    8.1237  -17.8416   20.2910 N   0  0  0  0  0  0  0  0  0  0  0  0
    9.4738  -17.3497   20.5460 C   0  0  1  0  0  0  0  0  0  0  0  0
    9.9595  -16.7537   19.2615 C   0  0  0  0  0  0  0  0  0  0  0  0
    9.8698  -17.6619   18.0643 C   0  0  0  0  0  0  0  0  0  0  0  0
   11.2508  -17.8716   17.4322 C   0  0  0  0  0  0  0  0  0  0  0  0
   11.1630  -18.6962   16.1711 C   0  0  0  0  0  0  0  0  0  0  0  0
   12.5212  -18.8968   15.6734 N   0  0  0  0  0  0  0  0  0  0  0  0
    9.5039  -16.3804   21.6310 C   0  0  0  0  0  0  0  0  0  0  0  0
   10.6084  -15.8871   22.0166 O   0  0  0  0  0  0  0  0  0  0  0  0
    8.3776  -15.9046   22.3419 N   0  0  0  0  0  0  0  0  0  0  0  0
    8.4720  -15.1006   23.5605 C   0  0  1  0  0  0  0  0  0  0  0  0
    7.2114  -14.3127   23.6836 C   0  0  0  0  0  0  0  0  0  0  0  0
    7.1044  -13.5560   24.9500 C   0  0  0  0  0  0  0  0  0  0  0  0
    6.3151  -14.0662   25.9737 C   0  0  0  0  0  0  0  0  0  0  0  0
    6.2185  -13.3925   27.1663 C   0  0  0  0  0  0  0  0  0  0  0  0
    6.8872  -12.2094   27.3882 C   0  0  0  0  0  0  0  0  0  0  0  0
    7.6685  -11.6973   26.3846 C   0  0  0  0  0  0  0  0  0  0  0  0
    7.7730  -12.3780   25.1632 C   0  0  0  0  0  0  0  0  0  0  0  0
    8.8222  -15.9330   24.7182 C   0  0  0  0  0  0  0  0  0  0  0  0
    8.0911  -16.9416   24.9578 O   0  0  0  0  0  0  0  0  0  0  0  0
    9.9390  -15.6629   25.5855 N   0  0  0  0  0  0  0  0  0  0  0  0
   10.3364  -16.6829   26.4972 C   0  0  1  0  0  0  0  0  0  0  0  0
   11.6709  -17.3063   26.1533 C   0  0  0  0  0  0  0  0  0  0  0  0
   12.0339  -18.4123   27.1076 C   0  0  0  0  0  0  0  0  0  0  0  0
   13.3514  -19.0036   26.6738 C   0  0  0  0  0  0  0  0  0  0  0  0
   13.8223  -20.1261   27.5781 C   0  0  0  0  0  0  0  0  0  0  0  0
   14.9819  -20.7127   26.9299 N   0  0  0  0  0  0  0  0  0  0  0  0
   10.4038  -16.1568   27.9211 C   0  0  0  0  0  0  0  0  0  0  0  0
   10.3162  -14.9325   28.1450 O   0  0  0  0  0  0  0  0  0  0  0  0
   10.5608  -17.0963   28.9132 O   0  0  0  0  0  0  0  0  0  0  0  0
  2  3  1  0
  2  1  1  6
  4  3  1  0
  5  4  1  0
  6  5  1  0
  7  6  1  0
  8 10  1  0
  8  2  1  0
  9  8  2  0
 11 10  1  0
 11 12  1  1
 12 13  1  0
 13 18  2  0
 14 15  2  0
 14 13  1  0
 15 16  1  0
 16 17  2  0
 18 17  1  0
 19 20  2  0
 19 11  1  0
 21 19  1  0
 22 28  1  0
 22 21  1  0
 22 23  1  6
 24 23  1  0
 25 24  1  0
 26 27  1  0
 26 25  1  0
 28 30  1  0
 29 28  2  0
M  END
$$$$
