KFK.pdb
     RDKit          3D

 30 30  0  0  1  0  0  0  0  0999 V2000
   10.5621  -16.7979   19.6587 N   0  0  0  0  0  0  0  0  0  0  0  0
    9.2421  -16.6895   20.2717 C   0  0  1  0  0  0  0  0  0  0  0  0
    8.6859  -18.0780   20.3332 C   0  0  0  0  0  0  0  0  0  0  0  0
    9.6475  -19.1278   20.8222 C   0  0  0  0  0  0  0  0  0  0  0  0
    8.9917  -20.5137   20.8203 C   0  0  0  0  0  0  0  0  0  0  0  0
    9.9813  -21.5950   21.1803 C   0  0  0  0  0  0  0  0  0  0  0  0
    9.2670  -22.8687   21.1897 N   0  0  0  0  0  0  0  0  0  0  0  0
    9.3033  -16.0783   21.5909 C   0  0  0  0  0  0  0  0  0  0  0  0
   10.3383  -16.2187   22.3127 O   0  0  0  0  0  0  0  0  0  0  0  0
    8.2805  -15.3063   22.1892 N   0  0  0  0  0  0  0  0  0  0  0  0
    8.3936  -14.7074   23.5193 C   0  0  1  0  0  0  0  0  0  0  0  0
    7.2248  -13.8004   23.7099 C   0  0  0  0  0  0  0  0  0  0  0  0
    7.1797  -13.1606   25.0426 C   0  0  0  0  0  0  0  0  0  0  0  0
    8.3349  -12.5761   25.5476 C   0  0  0  0  0  0  0  0  0  0  0  0
    8.3112  -11.9567   26.7729 C   0  0  0  0  0  0  0  0  0  0  0  0
    7.1642  -11.8928   27.5322 C   0  0  0  0  0  0  0  0  0  0  0  0
    6.0190  -12.4666   27.0432 C   0  0  0  0  0  0  0  0  0  0  0  0
    6.0336  -13.1015   25.7931 C   0  0  0  0  0  0  0  0  0  0  0  0
    8.5794  -15.7370   24.5494 C   0  0  0  0  0  0  0  0  0  0  0  0
    7.6944  -16.6411   24.6412 O   0  0  0  0  0  0  0  0  0  0  0  0
    9.7013  -15.7691   25.4509 N   0  0  0  0  0  0  0  0  0  0  0  0
    9.8583  -16.9181   26.2785 C   0  0  1  0  0  0  0  0  0  0  0  0
   10.9902  -17.8208   25.8408 C   0  0  0  0  0  0  0  0  0  0  0  0
   11.1833  -18.9747   26.7879 C   0  0  0  0  0  0  0  0  0  0  0  0
   12.2687  -19.8660   26.2392 C   0  0  0  0  0  0  0  0  0  0  0  0
   12.5478  -21.0687   27.1196 C   0  0  0  0  0  0  0  0  0  0  0  0
   13.4946  -21.8954   26.3923 N   0  0  0  0  0  0  0  0  0  0  0  0
   10.0874  -16.5280   27.7290 C   0  0  0  0  0  0  0  0  0  0  0  0
    9.6643  -17.2544   28.6510 O   0  0  0  0  0  0  0  0  0  0  0  0
   10.7742  -15.3562   27.9457 O   0  0  0  0  0  0  0  0  0  0  0  0
  2  3  1  0
  2  1  1  1
  4  3  1  0
  5  4  1  0
  6  5  1  0
  7  6  1  0
  8 10  1  0
  8  2  1  0
  9  8  2  0
 11 10  1  0
 11 12  1  1
 12 13  1  0
 13 18  2  0
 14 15  2  0
 14 13  1  0
 15 16  1  0
 16 17  2  0
 18 17  1  0
 19 20  2  0
 19 11  1  0
 21 19  1  0
 22 28  1  0
 22 21  1  0
 22 23  1  6
 24 23  1  0
 25 24  1  0
 26 27  1  0
 26 25  1  0
 28 30  1  0
 29 28  2  0
M  END
$$$$
