WCV.pdb
     RDKit          3D

 28 29  0  0  1  0  0  0  0  0999 V2000
    7.6945  -17.9503   21.6522 N   0  0  0  0  0  0  0  0  0  0  0  0
    8.4663  -16.9003   22.2423 C   0  0  1  0  0  0  0  0  0  0  0  0
    7.8280  -15.5724   22.3482 C   0  0  0  0  0  0  0  0  0  0  0  0
    7.2118  -15.0226   21.1495 C   0  0  0  0  0  0  0  0  0  0  0  0
    5.9520  -15.1972   20.6239 C   0  0  0  0  0  0  0  0  0  0  0  0
    5.8703  -14.4451   19.4898 N   0  0  0  0  0  0  0  0  0  0  0  0
    7.0236  -13.8053   19.2774 C   0  0  0  0  0  0  0  0  0  0  0  0
    7.4981  -12.9228   18.3020 C   0  0  0  0  0  0  0  0  0  0  0  0
    8.7787  -12.4140   18.3570 C   0  0  0  0  0  0  0  0  0  0  0  0
    9.6431  -12.7639   19.3928 C   0  0  0  0  0  0  0  0  0  0  0  0
    9.1695  -13.6270   20.3450 C   0  0  0  0  0  0  0  0  0  0  0  0
    7.8932  -14.1436   20.3013 C   0  0  0  0  0  0  0  0  0  0  0  0
    9.1760  -17.3608   23.4753 C   0  0  0  0  0  0  0  0  0  0  0  0
    8.5020  -17.8841   24.3805 O   0  0  0  0  0  0  0  0  0  0  0  0
   10.5733  -17.2187   23.6428 N   0  0  0  0  0  0  0  0  0  0  0  0
   11.3080  -17.6929   24.8009 C   0  0  1  0  0  0  0  0  0  0  0  0
   12.5468  -18.4059   24.4394 C   0  0  0  0  0  0  0  0  0  0  0  0
   12.0797  -19.9759   23.6648 S   0  0  0  0  0  0  0  0  0  0  0  0
   11.4577  -16.6164   25.8169 C   0  0  0  0  0  0  0  0  0  0  0  0
   12.2728  -15.6990   25.6209 O   0  0  0  0  0  0  0  0  0  0  0  0
    9.8598  -13.7797   26.9606 C   0  0  0  0  0  0  0  0  0  0  0  0
    9.9079  -14.6441   28.1683 C   0  0  1  0  0  0  0  0  0  0  0  0
    8.5427  -15.2433   28.4278 C   0  0  0  0  0  0  0  0  0  0  0  0
   10.9538  -15.7401   28.1166 C   0  0  2  0  0  0  0  0  0  0  0  0
   10.6669  -16.6530   26.9928 N   0  0  0  0  0  0  0  0  0  0  0  0
   11.0488  -16.4828   29.3878 C   0  0  0  0  0  0  0  0  0  0  0  0
   11.5075  -15.9062   30.5726 O   0  0  0  0  0  0  0  0  0  0  0  0
   10.7198  -17.6898   29.4782 O   0  0  0  0  0  0  0  0  0  0  0  0
  2  1  1  1
  2  3  1  0
  3  4  1  0
  4  5  2  0
  6  5  1  0
  7  6  1  0
  8  7  2  0
  9  8  1  0
 10  9  2  0
 10 11  1  0
 11 12  2  0
 12  7  1  0
 12  4  1  0
 13  2  1  0
 13 14  2  0
 15 13  1  0
 16 15  1  0
 17 18  1  0
 16 17  1  6
 19 16  1  0
 20 19  2  0
 22 21  1  6
 22 24  1  0
 23 22  1  0
 24 25  1  6
 24 26  1  0
 25 19  1  0
 26 28  2  0
 26 27  1  0
M  END
$$$$
