WCV.pdb
     RDKit          3D

 28 29  0  0  1  0  0  0  0  0999 V2000
    6.3421  -17.8180   24.9600 N   0  0  0  0  0  0  0  0  0  0  0  0
    6.8872  -16.7131   24.2330 C   0  0  1  0  0  0  0  0  0  0  0  0
    7.5684  -15.6617   25.0154 C   0  0  0  0  0  0  0  0  0  0  0  0
    6.7373  -14.7546   25.7935 C   0  0  0  0  0  0  0  0  0  0  0  0
    5.6024  -14.9869   26.5362 C   0  0  0  0  0  0  0  0  0  0  0  0
    5.2177  -13.7993   27.0841 N   0  0  0  0  0  0  0  0  0  0  0  0
    6.0599  -12.8290   26.7183 C   0  0  0  0  0  0  0  0  0  0  0  0
    6.1568  -11.4576   26.9734 C   0  0  0  0  0  0  0  0  0  0  0  0
    7.1743  -10.6981   26.4352 C   0  0  0  0  0  0  0  0  0  0  0  0
    8.1434  -11.2773   25.6181 C   0  0  0  0  0  0  0  0  0  0  0  0
    8.0422  -12.6215   25.3753 C   0  0  0  0  0  0  0  0  0  0  0  0
    7.0303  -13.3914   25.9053 C   0  0  0  0  0  0  0  0  0  0  0  0
    7.6172  -17.1627   23.0079 C   0  0  0  0  0  0  0  0  0  0  0  0
    8.3893  -18.1331   23.1069 O   0  0  0  0  0  0  0  0  0  0  0  0
    7.4606  -16.5241   21.7556 N   0  0  0  0  0  0  0  0  0  0  0  0
    8.4346  -16.5856   20.6815 C   0  0  1  0  0  0  0  0  0  0  0  0
    8.0728  -15.7358   19.5323 C   0  0  0  0  0  0  0  0  0  0  0  0
    9.1973  -16.1350   18.1688 S   0  0  0  0  0  0  0  0  0  0  0  0
    9.8170  -16.4098   21.2025 C   0  0  0  0  0  0  0  0  0  0  0  0
   10.1262  -15.3492   21.7716 O   0  0  0  0  0  0  0  0  0  0  0  0
   13.6147  -18.6165   23.1540 C   0  0  0  0  0  0  0  0  0  0  0  0
   12.2528  -18.0905   22.8766 C   0  0  1  0  0  0  0  0  0  0  0  0
   11.7849  -17.2357   24.0344 C   0  0  0  0  0  0  0  0  0  0  0  0
   12.1289  -17.3180   21.5784 C   0  0  2  0  0  0  0  0  0  0  0  0
   10.7603  -17.4558   21.0428 N   0  0  0  0  0  0  0  0  0  0  0  0
   13.1303  -17.7381   20.5798 C   0  0  0  0  0  0  0  0  0  0  0  0
   14.4413  -17.2610   20.5709 O   0  0  0  0  0  0  0  0  0  0  0  0
   12.8580  -18.5574   19.6699 O   0  0  0  0  0  0  0  0  0  0  0  0
  2  1  1  1
  2  3  1  0
  3  4  1  0
  4  5  2  0
  6  5  1  0
  7  6  1  0
  8  7  2  0
  9  8  1  0
 10  9  2  0
 10 11  1  0
 11 12  2  0
 12  7  1  0
 12  4  1  0
 13  2  1  0
 13 14  2  0
 15 13  1  0
 16 15  1  0
 17 18  1  0
 16 17  1  6
 19 16  1  0
 20 19  2  0
 22 21  1  1
 22 24  1  0
 23 22  1  0
 24 25  1  6
 24 26  1  0
 25 19  1  0
 26 28  2  0
 26 27  1  0
M  END
$$$$
