WCV.pdb
     RDKit          3D

 28 29  0  0  1  0  0  0  0  0999 V2000
   10.1366  -17.8192   18.7017 N   0  0  0  0  0  0  0  0  0  0  0  0
   10.0492  -17.1844   19.9807 C   0  0  1  0  0  0  0  0  0  0  0  0
    8.6961  -16.9155   20.5086 C   0  0  0  0  0  0  0  0  0  0  0  0
    7.8646  -15.9671   19.7820 C   0  0  0  0  0  0  0  0  0  0  0  0
    6.9965  -16.1522   18.7303 C   0  0  0  0  0  0  0  0  0  0  0  0
    6.4514  -14.9400   18.4271 N   0  0  0  0  0  0  0  0  0  0  0  0
    6.9386  -13.9994   19.2409 C   0  0  0  0  0  0  0  0  0  0  0  0
    6.7425  -12.6227   19.3879 C   0  0  0  0  0  0  0  0  0  0  0  0
    7.4127  -11.9018   20.3537 C   0  0  0  0  0  0  0  0  0  0  0  0
    8.3091  -12.5266   21.2189 C   0  0  0  0  0  0  0  0  0  0  0  0
    8.4934  -13.8756   21.0695 C   0  0  0  0  0  0  0  0  0  0  0  0
    7.8316  -14.6073   20.1081 C   0  0  0  0  0  0  0  0  0  0  0  0
   11.0034  -17.7847   20.9630 C   0  0  0  0  0  0  0  0  0  0  0  0
   10.8767  -18.9900   21.2440 O   0  0  0  0  0  0  0  0  0  0  0  0
   12.0317  -17.0323   21.5771 N   0  0  0  0  0  0  0  0  0  0  0  0
   12.9673  -17.5701   22.5474 C   0  0  1  0  0  0  0  0  0  0  0  0
   14.1233  -16.6848   22.7785 C   0  0  0  0  0  0  0  0  0  0  0  0
   15.2164  -17.4970   23.9739 S   0  0  0  0  0  0  0  0  0  0  0  0
   12.2600  -18.0381   23.7698 C   0  0  0  0  0  0  0  0  0  0  0  0
   11.5141  -17.2555   24.3827 O   0  0  0  0  0  0  0  0  0  0  0  0
    9.8520  -20.9213   24.4362 C   0  0  0  0  0  0  0  0  0  0  0  0
   11.0656  -21.0911   25.2768 C   0  0  1  0  0  0  0  0  0  0  0  0
   11.9542  -22.1652   24.6879 C   0  0  0  0  0  0  0  0  0  0  0  0
   11.8630  -19.8206   25.4949 C   0  0  2  0  0  0  0  0  0  0  0  0
   12.4469  -19.3705   24.2161 N   0  0  0  0  0  0  0  0  0  0  0  0
   12.9087  -19.9860   26.5223 C   0  0  0  0  0  0  0  0  0  0  0  0
   14.2721  -19.8941   26.2410 O   0  0  0  0  0  0  0  0  0  0  0  0
   12.6297  -20.2225   27.7222 O   0  0  0  0  0  0  0  0  0  0  0  0
  2  1  1  6
  2  3  1  0
  3  4  1  0
  4  5  2  0
  6  5  1  0
  7  6  1  0
  8  7  2  0
  9  8  1  0
 10  9  2  0
 10 11  1  0
 11 12  2  0
 12  7  1  0
 12  4  1  0
 13  2  1  0
 13 14  2  0
 15 13  1  0
 16 15  1  0
 17 18  1  0
 16 17  1  1
 19 16  1  0
 20 19  2  0
 22 21  1  6
 22 24  1  0
 23 22  1  0
 24 25  1  6
 24 26  1  0
 25 19  1  0
 26 28  2  0
 26 27  1  0
M  END
$$$$
