WCV.pdb
     RDKit          3D

 28 29  0  0  1  0  0  0  0  0999 V2000
    6.3019  -18.0234   25.0337 N   0  0  0  0  0  0  0  0  0  0  0  0
    6.9105  -16.8843   24.4186 C   0  0  1  0  0  0  0  0  0  0  0  0
    7.6188  -15.9380   25.3044 C   0  0  0  0  0  0  0  0  0  0  0  0
    6.8178  -14.9562   26.0210 C   0  0  0  0  0  0  0  0  0  0  0  0
    5.6355  -15.0907   26.7123 C   0  0  0  0  0  0  0  0  0  0  0  0
    5.3098  -13.8659   27.2146 N   0  0  0  0  0  0  0  0  0  0  0  0
    6.2345  -12.9657   26.8693 C   0  0  0  0  0  0  0  0  0  0  0  0
    6.4154  -11.5983   27.0987 C   0  0  0  0  0  0  0  0  0  0  0  0
    7.5081  -10.9248   26.5944 C   0  0  0  0  0  0  0  0  0  0  0  0
    8.4716  -11.5901   25.8385 C   0  0  0  0  0  0  0  0  0  0  0  0
    8.2876  -12.9298   25.6205 C   0  0  0  0  0  0  0  0  0  0  0  0
    7.2002  -13.6142   26.1171 C   0  0  0  0  0  0  0  0  0  0  0  0
    7.6479  -17.2562   23.1721 C   0  0  0  0  0  0  0  0  0  0  0  0
    8.4725  -18.1858   23.2323 O   0  0  0  0  0  0  0  0  0  0  0  0
    7.4409  -16.5895   21.9419 N   0  0  0  0  0  0  0  0  0  0  0  0
    8.4472  -16.4621   20.9041 C   0  0  1  0  0  0  0  0  0  0  0  0
    8.1207  -15.4174   19.9163 C   0  0  0  0  0  0  0  0  0  0  0  0
    9.3567  -15.4960   18.5937 S   0  0  0  0  0  0  0  0  0  0  0  0
    9.8131  -16.3905   21.4895 C   0  0  0  0  0  0  0  0  0  0  0  0
   10.1165  -15.4316   22.2195 O   0  0  0  0  0  0  0  0  0  0  0  0
   11.7469  -18.4962   23.8677 C   0  0  0  0  0  0  0  0  0  0  0  0
   12.4764  -18.4843   22.5732 C   0  0  1  0  0  0  0  0  0  0  0  0
   12.2395  -19.7846   21.8362 C   0  0  0  0  0  0  0  0  0  0  0  0
   12.1434  -17.3104   21.6738 C   0  0  2  0  0  0  0  0  0  0  0  0
   10.7474  -17.4183   21.2066 N   0  0  0  0  0  0  0  0  0  0  0  0
   13.0733  -17.1977   20.5341 C   0  0  0  0  0  0  0  0  0  0  0  0
   14.3920  -16.7624   20.6691 O   0  0  0  0  0  0  0  0  0  0  0  0
   12.7285  -17.4892   19.3638 O   0  0  0  0  0  0  0  0  0  0  0  0
  2  1  1  1
  2  3  1  0
  3  4  1  0
  4  5  2  0
  6  5  1  0
  7  6  1  0
  8  7  2  0
  9  8  1  0
 10  9  2  0
 10 11  1  0
 11 12  2  0
 12  7  1  0
 12  4  1  0
 13  2  1  0
 13 14  2  0
 15 13  1  0
 16 15  1  0
 17 18  1  0
 16 17  1  1
 19 16  1  0
 20 19  2  0
 22 21  1  1
 22 24  1  0
 23 22  1  0
 24 25  1  6
 24 26  1  0
 25 19  1  0
 26 28  2  0
 26 27  1  0
M  END
$$$$
