WCV.pdb
     RDKit          3D

 28 29  0  0  1  0  0  0  0  0999 V2000
    6.4675  -18.0396   24.2092 N   0  0  0  0  0  0  0  0  0  0  0  0
    7.3546  -17.1810   23.4865 C   0  0  1  0  0  0  0  0  0  0  0  0
    6.9313  -15.7783   23.2993 C   0  0  0  0  0  0  0  0  0  0  0  0
    6.4571  -15.0547   24.4699 C   0  0  0  0  0  0  0  0  0  0  0  0
    5.7731  -15.4907   25.5817 C   0  0  0  0  0  0  0  0  0  0  0  0
    5.5815  -14.4145   26.3963 N   0  0  0  0  0  0  0  0  0  0  0  0
    6.1137  -13.3198   25.8462 C   0  0  0  0  0  0  0  0  0  0  0  0
    6.2160  -11.9764   26.2207 C   0  0  0  0  0  0  0  0  0  0  0  0
    6.8460  -11.0527   25.4135 C   0  0  0  0  0  0  0  0  0  0  0  0
    7.4049  -11.4319   24.1943 C   0  0  0  0  0  0  0  0  0  0  0  0
    7.3021  -12.7500   23.8363 C   0  0  0  0  0  0  0  0  0  0  0  0
    6.6743  -13.6826   24.6324 C   0  0  0  0  0  0  0  0  0  0  0  0
    8.7743  -17.3604   23.9203 C   0  0  0  0  0  0  0  0  0  0  0  0
    8.9908  -17.9543   24.9917 O   0  0  0  0  0  0  0  0  0  0  0  0
    9.8654  -16.8788   23.1599 N   0  0  0  0  0  0  0  0  0  0  0  0
   11.2497  -16.9396   23.5911 C   0  0  1  0  0  0  0  0  0  0  0  0
   12.2005  -16.6381   22.5053 C   0  0  0  0  0  0  0  0  0  0  0  0
   13.8691  -17.0062   23.1083 S   0  0  0  0  0  0  0  0  0  0  0  0
   11.4507  -16.1778   24.8531 C   0  0  0  0  0  0  0  0  0  0  0  0
   11.9320  -15.0329   24.8068 O   0  0  0  0  0  0  0  0  0  0  0  0
   10.1983  -14.1205   27.1059 C   0  0  0  0  0  0  0  0  0  0  0  0
   10.5520  -15.2839   27.9601 C   0  0  1  0  0  0  0  0  0  0  0  0
    9.3032  -16.0627   28.3128 C   0  0  0  0  0  0  0  0  0  0  0  0
   11.5900  -16.2121   27.3611 C   0  0  2  0  0  0  0  0  0  0  0  0
   11.0887  -16.7692   26.0894 N   0  0  0  0  0  0  0  0  0  0  0  0
   11.9801  -17.2890   28.2908 C   0  0  0  0  0  0  0  0  0  0  0  0
   12.5989  -17.0471   29.5176 O   0  0  0  0  0  0  0  0  0  0  0  0
   11.7766  -18.4988   28.0291 O   0  0  0  0  0  0  0  0  0  0  0  0
  2  1  1  1
  2  3  1  0
  3  4  1  0
  4  5  2  0
  6  5  1  0
  7  6  1  0
  8  7  2  0
  9  8  1  0
 10  9  2  0
 10 11  1  0
 11 12  2  0
 12  7  1  0
 12  4  1  0
 13  2  1  0
 13 14  2  0
 15 13  1  0
 16 15  1  0
 17 18  1  0
 16 17  1  6
 19 16  1  0
 20 19  2  0
 22 21  1  6
 22 24  1  0
 23 22  1  0
 24 25  1  6
 24 26  1  0
 25 19  1  0
 26 28  2  0
 26 27  1  0
M  END
$$$$
