WCV.pdb
     RDKit          3D

 28 29  0  0  1  0  0  0  0  0999 V2000
    6.4417  -17.4829   25.0826 N   0  0  0  0  0  0  0  0  0  0  0  0
    7.5193  -16.6281   24.6895 C   0  0  1  0  0  0  0  0  0  0  0  0
    7.7302  -15.4008   25.4840 C   0  0  0  0  0  0  0  0  0  0  0  0
    6.5742  -14.5525   25.7347 C   0  0  0  0  0  0  0  0  0  0  0  0
    5.3887  -14.8147   26.3826 C   0  0  0  0  0  0  0  0  0  0  0  0
    4.6440  -13.6731   26.3581 N   0  0  0  0  0  0  0  0  0  0  0  0
    5.3078  -12.7037   25.7225 C   0  0  0  0  0  0  0  0  0  0  0  0
    5.0425  -11.3670   25.4088 C   0  0  0  0  0  0  0  0  0  0  0  0
    5.9563  -10.5968   24.7207 C   0  0  0  0  0  0  0  0  0  0  0  0
    7.1793  -11.1288   24.3164 C   0  0  0  0  0  0  0  0  0  0  0  0
    7.4319  -12.4381   24.6296 C   0  0  0  0  0  0  0  0  0  0  0  0
    6.5275  -13.2189   25.3152 C   0  0  0  0  0  0  0  0  0  0  0  0
    8.7599  -17.4054   24.3854 C   0  0  0  0  0  0  0  0  0  0  0  0
    9.0658  -18.3438   25.1426 O   0  0  0  0  0  0  0  0  0  0  0  0
    9.5878  -17.1079   23.2777 N   0  0  0  0  0  0  0  0  0  0  0  0
   11.0369  -17.0529   23.3344 C   0  0  1  0  0  0  0  0  0  0  0  0
   11.6278  -16.3495   22.1813 C   0  0  0  0  0  0  0  0  0  0  0  0
   13.4246  -16.5716   22.2547 S   0  0  0  0  0  0  0  0  0  0  0  0
   11.5029  -16.6003   24.6727 C   0  0  0  0  0  0  0  0  0  0  0  0
   12.3710  -15.7143   24.7511 O   0  0  0  0  0  0  0  0  0  0  0  0
   10.7766  -15.6625   29.2907 C   0  0  0  0  0  0  0  0  0  0  0  0
   10.6033  -15.7907   27.8204 C   0  0  1  0  0  0  0  0  0  0  0  0
   10.8293  -14.4498   27.1562 C   0  0  0  0  0  0  0  0  0  0  0  0
   11.4796  -16.8444   27.1729 C   0  0  2  0  0  0  0  0  0  0  0  0
   10.9487  -17.1859   25.8386 N   0  0  0  0  0  0  0  0  0  0  0  0
   11.6151  -18.0511   28.0107 C   0  0  0  0  0  0  0  0  0  0  0  0
   11.2646  -19.3270   27.5683 O   0  0  0  0  0  0  0  0  0  0  0  0
   12.0575  -17.9995   29.1833 O   0  0  0  0  0  0  0  0  0  0  0  0
  2  1  1  1
  2  3  1  0
  3  4  1  0
  4  5  2  0
  6  5  1  0
  7  6  1  0
  8  7  2  0
  9  8  1  0
 10  9  2  0
 10 11  1  0
 11 12  2  0
 12  7  1  0
 12  4  1  0
 13  2  1  0
 13 14  2  0
 15 13  1  0
 16 15  1  0
 17 18  1  0
 16 17  1  6
 19 16  1  0
 20 19  2  0
 22 21  1  1
 22 24  1  0
 23 22  1  0
 24 25  1  6
 24 26  1  0
 25 19  1  0
 26 28  2  0
 26 27  1  0
M  END
$$$$
