WCV.pdb
     RDKit          3D

 28 29  0  0  1  0  0  0  0  0999 V2000
    6.4863  -18.0909   24.4279 N   0  0  0  0  0  0  0  0  0  0  0  0
    7.2331  -16.9655   23.9566 C   0  0  1  0  0  0  0  0  0  0  0  0
    7.8065  -16.0627   24.9754 C   0  0  0  0  0  0  0  0  0  0  0  0
    6.8955  -15.1661   25.6718 C   0  0  0  0  0  0  0  0  0  0  0  0
    5.7663  -15.4282   26.4135 C   0  0  0  0  0  0  0  0  0  0  0  0
    5.2840  -14.2359   26.8658 N   0  0  0  0  0  0  0  0  0  0  0  0
    6.0592  -13.2345   26.4408 C   0  0  0  0  0  0  0  0  0  0  0  0
    6.0494  -11.8446   26.5943 C   0  0  0  0  0  0  0  0  0  0  0  0
    7.0183  -11.0522   26.0156 C   0  0  0  0  0  0  0  0  0  0  0  0
    8.0437  -11.6152   25.2578 C   0  0  0  0  0  0  0  0  0  0  0  0
    8.0469  -12.9773   25.1145 C   0  0  0  0  0  0  0  0  0  0  0  0
    7.0845  -13.7803   25.6859 C   0  0  0  0  0  0  0  0  0  0  0  0
    8.1654  -17.3439   22.8505 C   0  0  0  0  0  0  0  0  0  0  0  0
    8.8662  -18.3615   22.9948 O   0  0  0  0  0  0  0  0  0  0  0  0
    8.2754  -16.5873   21.6604 N   0  0  0  0  0  0  0  0  0  0  0  0
    9.4049  -16.6564   20.7518 C   0  0  1  0  0  0  0  0  0  0  0  0
    9.1878  -15.8909   19.5106 C   0  0  0  0  0  0  0  0  0  0  0  0
    7.5721  -16.3637   18.8403 S   0  0  0  0  0  0  0  0  0  0  0  0
   10.6816  -16.3801   21.4638 C   0  0  0  0  0  0  0  0  0  0  0  0
   10.9942  -15.2064   21.7266 O   0  0  0  0  0  0  0  0  0  0  0  0
   11.6958  -16.9007   24.8175 C   0  0  0  0  0  0  0  0  0  0  0  0
   12.6499  -17.6876   23.9937 C   0  0  1  0  0  0  0  0  0  0  0  0
   12.2692  -19.1520   24.0222 C   0  0  0  0  0  0  0  0  0  0  0  0
   12.7826  -17.2141   22.5599 C   0  0  2  0  0  0  0  0  0  0  0  0
   11.5218  -17.4606   21.8328 N   0  0  0  0  0  0  0  0  0  0  0  0
   13.9224  -17.8436   21.8663 C   0  0  0  0  0  0  0  0  0  0  0  0
   13.7678  -18.7343   20.8036 O   0  0  0  0  0  0  0  0  0  0  0  0
   15.1104  -17.6126   22.1960 O   0  0  0  0  0  0  0  0  0  0  0  0
  2  1  1  1
  2  3  1  0
  3  4  1  0
  4  5  2  0
  6  5  1  0
  7  6  1  0
  8  7  2  0
  9  8  1  0
 10  9  2  0
 10 11  1  0
 11 12  2  0
 12  7  1  0
 12  4  1  0
 13  2  1  0
 13 14  2  0
 15 13  1  0
 16 15  1  0
 17 18  1  0
 16 17  1  6
 19 16  1  0
 20 19  2  0
 22 21  1  6
 22 24  1  0
 23 22  1  0
 24 25  1  6
 24 26  1  0
 25 19  1  0
 26 28  2  0
 26 27  1  0
M  END
$$$$
