WCV.pdb
     RDKit          3D

 28 29  0  0  1  0  0  0  0  0999 V2000
    8.6480  -15.8698   20.5517 N   0  0  0  0  0  0  0  0  0  0  0  0
    8.4267  -15.4578   21.9036 C   0  0  1  0  0  0  0  0  0  0  0  0
    7.0583  -15.0341   22.2636 C   0  0  0  0  0  0  0  0  0  0  0  0
    6.7792  -14.7779   23.6691 C   0  0  0  0  0  0  0  0  0  0  0  0
    6.4985  -15.6416   24.7031 C   0  0  0  0  0  0  0  0  0  0  0  0
    6.3305  -14.8941   25.8308 N   0  0  0  0  0  0  0  0  0  0  0  0
    6.4920  -13.5976   25.5523 C   0  0  0  0  0  0  0  0  0  0  0  0
    6.4397  -12.4142   26.2953 C   0  0  0  0  0  0  0  0  0  0  0  0
    6.6588  -11.1869   25.7057 C   0  0  0  0  0  0  0  0  0  0  0  0
    6.9425  -11.0879   24.3448 C   0  0  0  0  0  0  0  0  0  0  0  0
    6.9939  -12.2522   23.6251 C   0  0  0  0  0  0  0  0  0  0  0  0
    6.7758  -13.4843   24.2011 C   0  0  0  0  0  0  0  0  0  0  0  0
    9.0785  -16.3854   22.8787 C   0  0  0  0  0  0  0  0  0  0  0  0
    8.3844  -17.2814   23.3915 O   0  0  0  0  0  0  0  0  0  0  0  0
   10.4433  -16.2747   23.2334 N   0  0  0  0  0  0  0  0  0  0  0  0
   11.1091  -17.1370   24.1921 C   0  0  1  0  0  0  0  0  0  0  0  0
   12.2883  -17.8176   23.6265 C   0  0  0  0  0  0  0  0  0  0  0  0
   13.2275  -16.5999   22.6682 S   0  0  0  0  0  0  0  0  0  0  0  0
   11.3305  -16.4310   25.4828 C   0  0  0  0  0  0  0  0  0  0  0  0
   12.0516  -15.4192   25.5111 O   0  0  0  0  0  0  0  0  0  0  0  0
   10.0966  -14.9541   29.8464 C   0  0  0  0  0  0  0  0  0  0  0  0
    9.9521  -15.4314   28.4466 C   0  0  1  0  0  0  0  0  0  0  0  0
    9.8335  -14.2495   27.5089 C   0  0  0  0  0  0  0  0  0  0  0  0
   11.0593  -16.3551   27.9791 C   0  0  2  0  0  0  0  0  0  0  0  0
   10.7143  -16.9227   26.6609 N   0  0  0  0  0  0  0  0  0  0  0  0
   11.3449  -17.4242   28.9548 C   0  0  0  0  0  0  0  0  0  0  0  0
   11.1179  -18.7751   28.6902 O   0  0  0  0  0  0  0  0  0  0  0  0
   11.8130  -17.1780   30.0922 O   0  0  0  0  0  0  0  0  0  0  0  0
  2  1  1  6
  2  3  1  0
  3  4  1  0
  4  5  2  0
  6  5  1  0
  7  6  1  0
  8  7  2  0
  9  8  1  0
 10  9  2  0
 10 11  1  0
 11 12  2  0
 12  7  1  0
 12  4  1  0
 13  2  1  0
 13 14  2  0
 15 13  1  0
 16 15  1  0
 17 18  1  0
 16 17  1  6
 19 16  1  0
 20 19  2  0
 22 21  1  1
 22 24  1  0
 23 22  1  0
 24 25  1  6
 24 26  1  0
 25 19  1  0
 26 28  2  0
 26 27  1  0
M  END
$$$$
