WCV.pdb
     RDKit          3D

 28 29  0  0  1  0  0  0  0  0999 V2000
    8.1694  -18.8629   20.6310 N   0  0  0  0  0  0  0  0  0  0  0  0
    8.2443  -17.5999   21.2984 C   0  0  1  0  0  0  0  0  0  0  0  0
    7.1568  -16.6347   21.0385 C   0  0  0  0  0  0  0  0  0  0  0  0
    7.4360  -15.5322   20.1299 C   0  0  0  0  0  0  0  0  0  0  0  0
    7.6204  -15.5142   18.7663 C   0  0  0  0  0  0  0  0  0  0  0  0
    7.8382  -14.2201   18.3966 N   0  0  0  0  0  0  0  0  0  0  0  0
    7.8001  -13.4226   19.4675 C   0  0  0  0  0  0  0  0  0  0  0  0
    7.9484  -12.0486   19.6813 C   0  0  0  0  0  0  0  0  0  0  0  0
    7.8515  -11.5047   20.9448 C   0  0  0  0  0  0  0  0  0  0  0  0
    7.5994  -12.3113   22.0530 C   0  0  0  0  0  0  0  0  0  0  0  0
    7.4533  -13.6556   21.8344 C   0  0  0  0  0  0  0  0  0  0  0  0
    7.5491  -14.2120   20.5779 C   0  0  0  0  0  0  0  0  0  0  0  0
    8.6211  -17.7555   22.7370 C   0  0  0  0  0  0  0  0  0  0  0  0
    7.7202  -18.0097   23.5563 O   0  0  0  0  0  0  0  0  0  0  0  0
    9.9545  -17.6214   23.1896 N   0  0  0  0  0  0  0  0  0  0  0  0
   10.3498  -17.6623   24.5854 C   0  0  1  0  0  0  0  0  0  0  0  0
   11.5064  -18.5443   24.8265 C   0  0  0  0  0  0  0  0  0  0  0  0
   11.8856  -18.4936   26.5976 S   0  0  0  0  0  0  0  0  0  0  0  0
   10.4570  -16.2905   25.1512 C   0  0  0  0  0  0  0  0  0  0  0  0
   11.1953  -15.4569   24.5994 O   0  0  0  0  0  0  0  0  0  0  0  0
    8.6163  -13.3016   25.6414 C   0  0  0  0  0  0  0  0  0  0  0  0
    8.9481  -13.7409   27.0216 C   0  0  1  0  0  0  0  0  0  0  0  0
    7.7075  -14.2738   27.7051 C   0  0  0  0  0  0  0  0  0  0  0  0
   10.0655  -14.7617   27.1058 C   0  0  2  0  0  0  0  0  0  0  0  0
    9.7141  -15.9548   26.3109 N   0  0  0  0  0  0  0  0  0  0  0  0
   10.3818  -15.1310   28.4986 C   0  0  0  0  0  0  0  0  0  0  0  0
   10.8864  -14.2228   29.4299 O   0  0  0  0  0  0  0  0  0  0  0  0
   10.2146  -16.2963   28.9315 O   0  0  0  0  0  0  0  0  0  0  0  0
  2  1  1  1
  2  3  1  0
  3  4  1  0
  4  5  2  0
  6  5  1  0
  7  6  1  0
  8  7  2  0
  9  8  1  0
 10  9  2  0
 10 11  1  0
 11 12  2  0
 12  7  1  0
 12  4  1  0
 13  2  1  0
 13 14  2  0
 15 13  1  0
 16 15  1  0
 17 18  1  0
 16 17  1  6
 19 16  1  0
 20 19  2  0
 22 21  1  6
 22 24  1  0
 23 22  1  0
 24 25  1  6
 24 26  1  0
 25 19  1  0
 26 28  2  0
 26 27  1  0
M  END
$$$$
