WCV.pdb
     RDKit          3D

 28 29  0  0  1  0  0  0  0  0999 V2000
    6.1936  -17.7021   24.5378 N   0  0  0  0  0  0  0  0  0  0  0  0
    7.3661  -16.8909   24.4209 C   0  0  1  0  0  0  0  0  0  0  0  0
    7.6554  -15.9607   25.5312 C   0  0  0  0  0  0  0  0  0  0  0  0
    6.6921  -14.9011   25.7921 C   0  0  0  0  0  0  0  0  0  0  0  0
    5.4992  -14.9178   26.4781 C   0  0  0  0  0  0  0  0  0  0  0  0
    4.9869  -13.6549   26.4456 N   0  0  0  0  0  0  0  0  0  0  0  0
    5.8042  -12.8437   25.7685 C   0  0  0  0  0  0  0  0  0  0  0  0
    5.7905  -11.4872   25.4291 C   0  0  0  0  0  0  0  0  0  0  0  0
    6.8130  -10.9205   24.6976 C   0  0  0  0  0  0  0  0  0  0  0  0
    7.8980  -11.6856   24.2736 C   0  0  0  0  0  0  0  0  0  0  0  0
    7.9044  -13.0128   24.6122 C   0  0  0  0  0  0  0  0  0  0  0  0
    6.8890  -13.5917   25.3411 C   0  0  0  0  0  0  0  0  0  0  0  0
    8.5394  -17.6805   23.9355 C   0  0  0  0  0  0  0  0  0  0  0  0
    8.6661  -18.8514   24.3360 O   0  0  0  0  0  0  0  0  0  0  0  0
    9.4997  -17.1420   23.0474 N   0  0  0  0  0  0  0  0  0  0  0  0
   10.9150  -17.0291   23.3476 C   0  0  1  0  0  0  0  0  0  0  0  0
   11.7000  -16.5065   22.2143 C   0  0  0  0  0  0  0  0  0  0  0  0
   13.4535  -16.6020   22.6605 S   0  0  0  0  0  0  0  0  0  0  0  0
   11.1323  -16.3455   24.6510 C   0  0  0  0  0  0  0  0  0  0  0  0
   11.1877  -15.1046   24.6895 O   0  0  0  0  0  0  0  0  0  0  0  0
   10.0203  -15.2483   28.8688 C   0  0  0  0  0  0  0  0  0  0  0  0
   10.1640  -15.6526   27.4461 C   0  0  1  0  0  0  0  0  0  0  0  0
   10.1158  -14.4299   26.5556 C   0  0  0  0  0  0  0  0  0  0  0  0
   11.4081  -16.4646   27.1451 C   0  0  2  0  0  0  0  0  0  0  0  0
   11.2715  -17.1204   25.8298 N   0  0  0  0  0  0  0  0  0  0  0  0
   11.6985  -17.4544   28.1998 C   0  0  0  0  0  0  0  0  0  0  0  0
   11.7731  -18.8260   27.9553 O   0  0  0  0  0  0  0  0  0  0  0  0
   11.8967  -17.1168   29.3915 O   0  0  0  0  0  0  0  0  0  0  0  0
  2  1  1  1
  2  3  1  0
  3  4  1  0
  4  5  2  0
  6  5  1  0
  7  6  1  0
  8  7  2  0
  9  8  1  0
 10  9  2  0
 10 11  1  0
 11 12  2  0
 12  7  1  0
 12  4  1  0
 13  2  1  0
 13 14  2  0
 15 13  1  0
 16 15  1  0
 17 18  1  0
 16 17  1  6
 19 16  1  0
 20 19  2  0
 22 21  1  1
 22 24  1  0
 23 22  1  0
 24 25  1  6
 24 26  1  0
 25 19  1  0
 26 28  2  0
 26 27  1  0
M  END
$$$$
