WCV.pdb
     RDKit          3D

 28 29  0  0  1  0  0  0  0  0999 V2000
    6.9623  -17.5212   25.1533 N   0  0  0  0  0  0  0  0  0  0  0  0
    7.8804  -16.5287   24.6858 C   0  0  1  0  0  0  0  0  0  0  0  0
    7.9522  -15.2651   25.4473 C   0  0  0  0  0  0  0  0  0  0  0  0
    6.7027  -14.5700   25.7202 C   0  0  0  0  0  0  0  0  0  0  0  0
    5.5121  -15.0278   26.2368 C   0  0  0  0  0  0  0  0  0  0  0  0
    4.6583  -13.9674   26.3073 N   0  0  0  0  0  0  0  0  0  0  0  0
    5.2583  -12.8621   25.8572 C   0  0  0  0  0  0  0  0  0  0  0  0
    4.8786  -11.5250   25.7037 C   0  0  0  0  0  0  0  0  0  0  0  0
    5.7503  -10.5858   25.1941 C   0  0  0  0  0  0  0  0  0  0  0  0
    7.0438  -10.9415   24.8162 C   0  0  0  0  0  0  0  0  0  0  0  0
    7.4081  -12.2527   24.9718 C   0  0  0  0  0  0  0  0  0  0  0  0
    6.5469  -13.2012   25.4783 C   0  0  0  0  0  0  0  0  0  0  0  0
    9.2031  -17.1249   24.3240 C   0  0  0  0  0  0  0  0  0  0  0  0
    9.4345  -18.2966   24.6718 O   0  0  0  0  0  0  0  0  0  0  0  0
   10.1885  -16.4047   23.6090 N   0  0  0  0  0  0  0  0  0  0  0  0
   11.5828  -16.7974   23.5221 C   0  0  1  0  0  0  0  0  0  0  0  0
   12.3360  -16.0152   22.5249 C   0  0  0  0  0  0  0  0  0  0  0  0
   11.4481  -16.1201   20.9489 S   0  0  0  0  0  0  0  0  0  0  0  0
   12.1997  -16.8825   24.8733 C   0  0  0  0  0  0  0  0  0  0  0  0
   13.4256  -17.0583   24.9764 O   0  0  0  0  0  0  0  0  0  0  0  0
   12.0863  -14.4576   27.6426 C   0  0  0  0  0  0  0  0  0  0  0  0
   11.6610  -15.7520   28.2359 C   0  0  1  0  0  0  0  0  0  0  0  0
   10.1898  -15.6993   28.5867 C   0  0  0  0  0  0  0  0  0  0  0  0
   11.9448  -16.9641   27.3711 C   0  0  2  0  0  0  0  0  0  0  0  0
   11.3794  -16.7604   26.0229 N   0  0  0  0  0  0  0  0  0  0  0  0
   11.4364  -18.2116   27.9727 C   0  0  0  0  0  0  0  0  0  0  0  0
   11.9087  -18.7191   29.1835 O   0  0  0  0  0  0  0  0  0  0  0  0
   10.5404  -18.8968   27.4241 O   0  0  0  0  0  0  0  0  0  0  0  0
  2  1  1  1
  2  3  1  0
  3  4  1  0
  4  5  2  0
  6  5  1  0
  7  6  1  0
  8  7  2  0
  9  8  1  0
 10  9  2  0
 10 11  1  0
 11 12  2  0
 12  7  1  0
 12  4  1  0
 13  2  1  0
 13 14  2  0
 15 13  1  0
 16 15  1  0
 17 18  1  0
 16 17  1  6
 19 16  1  0
 20 19  2  0
 22 21  1  6
 22 24  1  0
 23 22  1  0
 24 25  1  6
 24 26  1  0
 25 19  1  0
 26 28  2  0
 26 27  1  0
M  END
$$$$
