WCV.pdb
     RDKit          3D

 28 29  0  0  1  0  0  0  0  0999 V2000
    6.3371  -17.6488   24.7712 N   0  0  0  0  0  0  0  0  0  0  0  0
    7.4551  -16.8102   24.4654 C   0  0  1  0  0  0  0  0  0  0  0  0
    7.7387  -15.6991   25.3964 C   0  0  0  0  0  0  0  0  0  0  0  0
    6.6718  -14.7417   25.6491 C   0  0  0  0  0  0  0  0  0  0  0  0
    5.4443  -14.8997   26.2507 C   0  0  0  0  0  0  0  0  0  0  0  0
    4.8264  -13.6845   26.2528 N   0  0  0  0  0  0  0  0  0  0  0  0
    5.6104  -12.7682   25.6782 C   0  0  0  0  0  0  0  0  0  0  0  0
    5.4994  -11.3996   25.4136 C   0  0  0  0  0  0  0  0  0  0  0  0
    6.5123  -10.7061   24.7853 C   0  0  0  0  0  0  0  0  0  0  0  0
    7.6846  -11.3506   24.3945 C   0  0  0  0  0  0  0  0  0  0  0  0
    7.7859  -12.6906   24.6594 C   0  0  0  0  0  0  0  0  0  0  0  0
    6.7813  -13.3956   25.2850 C   0  0  0  0  0  0  0  0  0  0  0  0
    8.6495  -17.6091   24.0517 C   0  0  0  0  0  0  0  0  0  0  0  0
    8.8196  -18.7252   24.5740 O   0  0  0  0  0  0  0  0  0  0  0  0
    9.5821  -17.1386   23.0979 N   0  0  0  0  0  0  0  0  0  0  0  0
   11.0218  -17.1838   23.2743 C   0  0  1  0  0  0  0  0  0  0  0  0
   11.7586  -16.7292   22.0809 C   0  0  0  0  0  0  0  0  0  0  0  0
   13.5299  -16.9035   22.4202 S   0  0  0  0  0  0  0  0  0  0  0  0
   11.4233  -16.5502   24.5591 C   0  0  0  0  0  0  0  0  0  0  0  0
   11.8513  -15.3835   24.5586 O   0  0  0  0  0  0  0  0  0  0  0  0
    9.1585  -15.9150   27.2834 C   0  0  0  0  0  0  0  0  0  0  0  0
   10.5862  -15.5030   27.2769 C   0  0  1  0  0  0  0  0  0  0  0  0
   10.9155  -14.7655   28.5567 C   0  0  0  0  0  0  0  0  0  0  0  0
   11.5679  -16.6384   27.0655 C   0  0  2  0  0  0  0  0  0  0  0  0
   11.3103  -17.2870   25.7648 N   0  0  0  0  0  0  0  0  0  0  0  0
   11.5280  -17.6237   28.1628 C   0  0  0  0  0  0  0  0  0  0  0  0
   11.8947  -17.3170   29.4735 O   0  0  0  0  0  0  0  0  0  0  0  0
   11.1588  -18.8083   27.9789 O   0  0  0  0  0  0  0  0  0  0  0  0
  2  1  1  1
  2  3  1  0
  3  4  1  0
  4  5  2  0
  6  5  1  0
  7  6  1  0
  8  7  2  0
  9  8  1  0
 10  9  2  0
 10 11  1  0
 11 12  2  0
 12  7  1  0
 12  4  1  0
 13  2  1  0
 13 14  2  0
 15 13  1  0
 16 15  1  0
 17 18  1  0
 16 17  1  6
 19 16  1  0
 20 19  2  0
 22 21  1  1
 22 24  1  0
 23 22  1  0
 24 25  1  6
 24 26  1  0
 25 19  1  0
 26 28  2  0
 26 27  1  0
M  END
$$$$
