WCV.pdb
     RDKit          3D

 28 29  0  0  1  0  0  0  0  0999 V2000
    6.3507  -17.7681   24.5126 N   0  0  0  0  0  0  0  0  0  0  0  0
    7.4541  -16.8671   24.3814 C   0  0  1  0  0  0  0  0  0  0  0  0
    7.6906  -15.9247   25.4938 C   0  0  0  0  0  0  0  0  0  0  0  0
    6.6711  -14.9189   25.7542 C   0  0  0  0  0  0  0  0  0  0  0  0
    5.3561  -15.0485   26.1388 C   0  0  0  0  0  0  0  0  0  0  0  0
    4.8372  -13.7940   26.2634 N   0  0  0  0  0  0  0  0  0  0  0  0
    5.7672  -12.8800   25.9733 C   0  0  0  0  0  0  0  0  0  0  0  0
    5.8006  -11.4826   25.9365 C   0  0  0  0  0  0  0  0  0  0  0  0
    6.9479  -10.8014   25.5881 C   0  0  0  0  0  0  0  0  0  0  0  0
    8.1161  -11.4882   25.2623 C   0  0  0  0  0  0  0  0  0  0  0  0
    8.0751  -12.8567   25.3030 C   0  0  0  0  0  0  0  0  0  0  0  0
    6.9355  -13.5495   25.6479 C   0  0  0  0  0  0  0  0  0  0  0  0
    8.6762  -17.5596   23.8687 C   0  0  0  0  0  0  0  0  0  0  0  0
    8.9095  -18.7138   24.2698 O   0  0  0  0  0  0  0  0  0  0  0  0
    9.5658  -16.9484   22.9544 N   0  0  0  0  0  0  0  0  0  0  0  0
   11.0109  -16.9693   23.0853 C   0  0  1  0  0  0  0  0  0  0  0  0
   11.7009  -16.4569   21.8873 C   0  0  0  0  0  0  0  0  0  0  0  0
   13.4635  -16.8435   22.0519 S   0  0  0  0  0  0  0  0  0  0  0  0
   11.4394  -16.3734   24.3794 C   0  0  0  0  0  0  0  0  0  0  0  0
   12.2845  -15.4622   24.3836 O   0  0  0  0  0  0  0  0  0  0  0  0
   10.4289  -14.5693   28.5743 C   0  0  0  0  0  0  0  0  0  0  0  0
   10.3675  -15.0571   27.1720 C   0  0  1  0  0  0  0  0  0  0  0  0
   10.6921  -13.9275   26.2188 C   0  0  0  0  0  0  0  0  0  0  0  0
   11.2546  -16.2515   26.8818 C   0  0  2  0  0  0  0  0  0  0  0  0
   10.8759  -16.8535   25.5883 N   0  0  0  0  0  0  0  0  0  0  0  0
   11.2126  -17.2550   27.9623 C   0  0  0  0  0  0  0  0  0  0  0  0
   11.6828  -17.0038   29.2517 O   0  0  0  0  0  0  0  0  0  0  0  0
   10.7471  -18.4059   27.7826 O   0  0  0  0  0  0  0  0  0  0  0  0
  2  1  1  1
  2  3  1  0
  3  4  1  0
  4  5  2  0
  6  5  1  0
  7  6  1  0
  8  7  2  0
  9  8  1  0
 10  9  2  0
 10 11  1  0
 11 12  2  0
 12  7  1  0
 12  4  1  0
 13  2  1  0
 13 14  2  0
 15 13  1  0
 16 15  1  0
 17 18  1  0
 16 17  1  6
 19 16  1  0
 20 19  2  0
 22 21  1  1
 22 24  1  0
 23 22  1  0
 24 25  1  6
 24 26  1  0
 25 19  1  0
 26 28  2  0
 26 27  1  0
M  END
$$$$
