WCV.pdb
     RDKit          3D

 28 29  0  0  1  0  0  0  0  0999 V2000
    6.3800  -17.7633   24.7379 N   0  0  0  0  0  0  0  0  0  0  0  0
    7.4136  -16.8045   24.4951 C   0  0  1  0  0  0  0  0  0  0  0  0
    7.6321  -15.7726   25.5291 C   0  0  0  0  0  0  0  0  0  0  0  0
    6.5433  -14.8443   25.7964 C   0  0  0  0  0  0  0  0  0  0  0  0
    5.2075  -15.0694   26.0393 C   0  0  0  0  0  0  0  0  0  0  0  0
    4.6160  -13.8585   26.2456 N   0  0  0  0  0  0  0  0  0  0  0  0
    5.5203  -12.8807   26.1425 C   0  0  0  0  0  0  0  0  0  0  0  0
    5.4852  -11.4874   26.2563 C   0  0  0  0  0  0  0  0  0  0  0  0
    6.6228  -10.7255   26.0915 C   0  0  0  0  0  0  0  0  0  0  0  0
    7.8490  -11.3237   25.8070 C   0  0  0  0  0  0  0  0  0  0  0  0
    7.8747  -12.6890   25.6994 C   0  0  0  0  0  0  0  0  0  0  0  0
    6.7457  -13.4617   25.8603 C   0  0  0  0  0  0  0  0  0  0  0  0
    8.6573  -17.4512   23.9745 C   0  0  0  0  0  0  0  0  0  0  0  0
    8.8522  -18.6504   24.2417 O   0  0  0  0  0  0  0  0  0  0  0  0
    9.6088  -16.7484   23.1990 N   0  0  0  0  0  0  0  0  0  0  0  0
   11.0345  -17.0189   23.2161 C   0  0  1  0  0  0  0  0  0  0  0  0
   11.7320  -16.4849   22.0321 C   0  0  0  0  0  0  0  0  0  0  0  0
   10.6871  -16.7934   20.5842 S   0  0  0  0  0  0  0  0  0  0  0  0
   11.6311  -16.6603   24.5311 C   0  0  0  0  0  0  0  0  0  0  0  0
   12.7593  -16.1406   24.5700 O   0  0  0  0  0  0  0  0  0  0  0  0
   10.8183  -14.9293   28.9527 C   0  0  0  0  0  0  0  0  0  0  0  0
   10.5178  -15.3458   27.5583 C   0  0  1  0  0  0  0  0  0  0  0  0
   10.5722  -14.1450   26.6388 C   0  0  0  0  0  0  0  0  0  0  0  0
   11.4106  -16.4484   27.0245 C   0  0  2  0  0  0  0  0  0  0  0  0
   10.9026  -16.9160   25.7199 N   0  0  0  0  0  0  0  0  0  0  0  0
   11.5403  -17.5711   27.9727 C   0  0  0  0  0  0  0  0  0  0  0  0
   12.4628  -17.5794   29.0193 O   0  0  0  0  0  0  0  0  0  0  0  0
   10.8212  -18.5957   27.8916 O   0  0  0  0  0  0  0  0  0  0  0  0
  2  1  1  1
  2  3  1  0
  3  4  1  0
  4  5  2  0
  6  5  1  0
  7  6  1  0
  8  7  2  0
  9  8  1  0
 10  9  2  0
 10 11  1  0
 11 12  2  0
 12  7  1  0
 12  4  1  0
 13  2  1  0
 13 14  2  0
 15 13  1  0
 16 15  1  0
 17 18  1  0
 16 17  1  6
 19 16  1  0
 20 19  2  0
 22 21  1  1
 22 24  1  0
 23 22  1  0
 24 25  1  6
 24 26  1  0
 25 19  1  0
 26 28  2  0
 26 27  1  0
M  END
$$$$
