KIL.pdb
     RDKit          3D

 26 25  0  0  1  0  0  0  0  0999 V2000
    8.4281  -19.4743   20.1687 N   0  0  0  0  0  0  0  0  0  0  0  0
    7.7032  -18.6177   21.0505 C   0  0  1  0  0  0  0  0  0  0  0  0
    7.3405  -19.2915   22.3600 C   0  0  0  0  0  0  0  0  0  0  0  0
    6.5916  -20.5859   22.0693 C   0  0  0  0  0  0  0  0  0  0  0  0
    6.0680  -21.0718   23.4267 C   0  0  0  0  0  0  0  0  0  0  0  0
    5.3116  -22.3643   23.2281 C   0  0  0  0  0  0  0  0  0  0  0  0
    4.9818  -22.8620   24.5718 N   0  0  0  0  0  0  0  0  0  0  0  0
    8.4372  -17.3751   21.3859 C   0  0  0  0  0  0  0  0  0  0  0  0
    9.6911  -17.3477   21.4408 O   0  0  0  0  0  0  0  0  0  0  0  0
    6.6103  -12.7026   19.2748 C   0  0  0  0  0  0  0  0  0  0  0  0
    7.5742  -13.7718   19.8123 C   0  0  0  0  0  0  0  0  0  0  0  0
    7.5560  -13.7888   21.3094 C   0  0  2  0  0  0  0  0  0  0  0  0
    7.9979  -12.4138   21.7796 C   0  0  0  0  0  0  0  0  0  0  0  0
    8.3683  -14.8880   21.8713 C   0  0  2  0  0  0  0  0  0  0  0  0
    7.7124  -16.1901   21.6510 N   0  0  0  0  0  0  0  0  0  0  0  0
    8.5425  -14.7730   23.3377 C   0  0  0  0  0  0  0  0  0  0  0  0
    8.9430  -13.6531   23.7901 O   0  0  0  0  0  0  0  0  0  0  0  0
    8.5696  -12.8301   26.6091 C   0  0  0  0  0  0  0  0  0  0  0  0
    7.3557  -13.2698   25.8175 C   0  0  2  0  0  0  0  0  0  0  0  0
    6.1741  -12.3532   25.9501 C   0  0  0  0  0  0  0  0  0  0  0  0
    7.0803  -14.7165   25.8726 C   0  0  0  0  0  0  0  0  0  0  0  0
    8.1444  -15.6991   25.6613 C   0  0  2  0  0  0  0  0  0  0  0  0
    8.2808  -15.8551   24.2249 N   0  0  0  0  0  0  0  0  0  0  0  0
    8.1293  -16.9594   26.3838 C   0  0  0  0  0  0  0  0  0  0  0  0
    8.1612  -18.2117   25.7961 O   0  0  0  0  0  0  0  0  0  0  0  0
    8.0818  -16.9686   27.6368 O   0  0  0  0  0  0  0  0  0  0  0  0
  2  3  1  0
  2  1  1  6
  4  3  1  0
  5  4  1  0
  5  6  1  0
  7  6  1  0
  8  9  2  0
  8  2  1  0
 11 10  1  0
 12 11  1  0
 12 14  1  0
 12 13  1  1
 14 15  1  1
 15  8  1  0
 16 14  1  0
 17 16  2  0
 19 18  1  1
 19 21  1  0
 20 19  1  0
 22 21  1  6
 22 23  1  0
 22 24  1  0
 23 16  1  0
 24 25  1  0
 26 24  2  0
M  END
$$$$
