KIL.pdb
     RDKit          3D

 26 25  0  0  1  0  0  0  0  0999 V2000
    5.8714  -19.0092   22.9825 N   0  0  0  0  0  0  0  0  0  0  0  0
    6.1399  -18.2481   24.1595 C   0  0  1  0  0  0  0  0  0  0  0  0
    6.8416  -19.0549   25.2352 C   0  0  0  0  0  0  0  0  0  0  0  0
    6.5242  -20.5325   25.0433 C   0  0  0  0  0  0  0  0  0  0  0  0
    7.3259  -21.2689   26.1241 C   0  0  0  0  0  0  0  0  0  0  0  0
    7.1497  -22.7577   25.9383 C   0  0  0  0  0  0  0  0  0  0  0  0
    7.8892  -23.4023   27.0336 N   0  0  0  0  0  0  0  0  0  0  0  0
    6.9714  -17.0497   23.8985 C   0  0  0  0  0  0  0  0  0  0  0  0
    7.6746  -16.9514   22.8632 O   0  0  0  0  0  0  0  0  0  0  0  0
    5.0944  -12.4455   25.9741 C   0  0  0  0  0  0  0  0  0  0  0  0
    5.8453  -13.2627   24.9112 C   0  0  0  0  0  0  0  0  0  0  0  0
    7.2078  -13.6387   25.4054 C   0  0  2  0  0  0  0  0  0  0  0  0
    8.0645  -12.3854   25.3579 C   0  0  0  0  0  0  0  0  0  0  0  0
    7.7875  -14.7721   24.6549 C   0  0  2  0  0  0  0  0  0  0  0  0
    6.9757  -15.9898   24.8347 N   0  0  0  0  0  0  0  0  0  0  0  0
    9.1470  -15.1272   25.1233 C   0  0  0  0  0  0  0  0  0  0  0  0
   10.1241  -14.4998   24.6029 O   0  0  0  0  0  0  0  0  0  0  0  0
   10.9180  -13.6805   28.0709 C   0  0  0  0  0  0  0  0  0  0  0  0
   10.1640  -14.8850   28.5947 C   0  0  2  0  0  0  0  0  0  0  0  0
    9.8532  -14.8213   30.0620 C   0  0  0  0  0  0  0  0  0  0  0  0
   10.6410  -16.1788   28.0749 C   0  0  0  0  0  0  0  0  0  0  0  0
   10.6923  -16.4453   26.6365 C   0  0  2  0  0  0  0  0  0  0  0  0
    9.3777  -16.1253   26.1118 N   0  0  0  0  0  0  0  0  0  0  0  0
   11.2233  -17.7052   26.1451 C   0  0  0  0  0  0  0  0  0  0  0  0
   10.5663  -18.5583   25.2761 O   0  0  0  0  0  0  0  0  0  0  0  0
   12.3580  -18.0967   26.5076 O   0  0  0  0  0  0  0  0  0  0  0  0
  2  3  1  0
  2  1  1  6
  4  3  1  0
  5  4  1  0
  5  6  1  0
  7  6  1  0
  8  9  2  0
  8  2  1  0
 11 10  1  0
 12 11  1  0
 12 14  1  0
 12 13  1  6
 14 15  1  1
 15  8  1  0
 16 14  1  0
 17 16  2  0
 19 18  1  1
 19 21  1  0
 20 19  1  0
 22 21  1  1
 22 23  1  0
 22 24  1  0
 23 16  1  0
 24 25  1  0
 26 24  2  0
M  END
$$$$
