KIL.pdb
     RDKit          3D

 26 25  0  0  1  0  0  0  0  0999 V2000
    7.7221  -15.8581   20.7675 N   0  0  0  0  0  0  0  0  0  0  0  0
    7.3059  -16.0999   22.1110 C   0  0  1  0  0  0  0  0  0  0  0  0
    7.2609  -17.5760   22.4570 C   0  0  0  0  0  0  0  0  0  0  0  0
    6.5906  -18.3387   21.3214 C   0  0  0  0  0  0  0  0  0  0  0  0
    6.5653  -19.8054   21.7698 C   0  0  0  0  0  0  0  0  0  0  0  0
    5.8820  -20.6330   20.7067 C   0  0  0  0  0  0  0  0  0  0  0  0
    6.8653  -20.8166   19.6289 N   0  0  0  0  0  0  0  0  0  0  0  0
    8.1740  -15.4410   23.1149 C   0  0  0  0  0  0  0  0  0  0  0  0
    9.3846  -15.2041   22.8816 O   0  0  0  0  0  0  0  0  0  0  0  0
    6.2300  -11.5160   26.1647 C   0  0  0  0  0  0  0  0  0  0  0  0
    7.2902  -12.3463   25.4246 C   0  0  0  0  0  0  0  0  0  0  0  0
    7.6963  -13.5302   26.2465 C   0  0  2  0  0  0  0  0  0  0  0  0
    8.4615  -13.0019   27.4476 C   0  0  0  0  0  0  0  0  0  0  0  0
    8.4541  -14.5280   25.4630 C   0  0  2  0  0  0  0  0  0  0  0  0
    7.6304  -15.0687   24.3662 N   0  0  0  0  0  0  0  0  0  0  0  0
    8.8563  -15.7003   26.2741 C   0  0  0  0  0  0  0  0  0  0  0  0
    7.9257  -16.4342   26.7374 O   0  0  0  0  0  0  0  0  0  0  0  0
   10.8014  -18.9660   24.7797 C   0  0  0  0  0  0  0  0  0  0  0  0
   11.8966  -18.0148   25.2148 C   0  0  2  0  0  0  0  0  0  0  0  0
   13.2417  -18.3183   24.6212 C   0  0  0  0  0  0  0  0  0  0  0  0
   11.8688  -17.6632   26.6457 C   0  0  0  0  0  0  0  0  0  0  0  0
   10.6419  -17.1851   27.2850 C   0  0  2  0  0  0  0  0  0  0  0  0
   10.2192  -16.0139   26.5395 N   0  0  0  0  0  0  0  0  0  0  0  0
   10.5904  -17.0066   28.7259 C   0  0  0  0  0  0  0  0  0  0  0  0
   10.6610  -18.0292   29.6554 O   0  0  0  0  0  0  0  0  0  0  0  0
   10.4710  -15.8587   29.2162 O   0  0  0  0  0  0  0  0  0  0  0  0
  2  3  1  0
  2  1  1  6
  4  3  1  0
  5  4  1  0
  5  6  1  0
  7  6  1  0
  8  9  2  0
  8  2  1  0
 11 10  1  0
 12 11  1  0
 12 14  1  0
 12 13  1  1
 14 15  1  6
 15  8  1  0
 16 14  1  0
 17 16  2  0
 19 18  1  1
 19 21  1  0
 20 19  1  0
 22 21  1  6
 22 23  1  0
 22 24  1  0
 23 16  1  0
 24 25  1  0
 26 24  2  0
M  END
$$$$
