KIL.pdb
     RDKit          3D

 26 25  0  0  1  0  0  0  0  0999 V2000
    9.0526  -15.9990   19.8305 N   0  0  0  0  0  0  0  0  0  0  0  0
    8.4862  -16.4577   21.0575 C   0  0  1  0  0  0  0  0  0  0  0  0
    8.6913  -17.9437   21.2816 C   0  0  0  0  0  0  0  0  0  0  0  0
    8.2257  -18.7074   20.0485 C   0  0  0  0  0  0  0  0  0  0  0  0
    8.4130  -20.1914   20.3889 C   0  0  0  0  0  0  0  0  0  0  0  0
    7.0561  -20.8268   20.5815 C   0  0  0  0  0  0  0  0  0  0  0  0
    6.7118  -21.4646   19.3021 N   0  0  0  0  0  0  0  0  0  0  0  0
    9.0287  -15.7567   22.2449 C   0  0  0  0  0  0  0  0  0  0  0  0
   10.1871  -15.2730   22.2493 O   0  0  0  0  0  0  0  0  0  0  0  0
    5.5992  -12.5314   24.7685 C   0  0  0  0  0  0  0  0  0  0  0  0
    6.8547  -13.1785   24.1631 C   0  0  0  0  0  0  0  0  0  0  0  0
    7.4941  -14.1055   25.1500 C   0  0  2  0  0  0  0  0  0  0  0  0
    7.8581  -13.2794   26.3715 C   0  0  0  0  0  0  0  0  0  0  0  0
    8.6423  -14.8369   24.5753 C   0  0  2  0  0  0  0  0  0  0  0  0
    8.2263  -15.6274   23.4022 N   0  0  0  0  0  0  0  0  0  0  0  0
    9.2275  -15.8115   25.5248 C   0  0  0  0  0  0  0  0  0  0  0  0
    8.4494  -16.6979   26.0023 O   0  0  0  0  0  0  0  0  0  0  0  0
   10.4257  -13.5033   30.1397 C   0  0  0  0  0  0  0  0  0  0  0  0
   10.9411  -14.7672   29.4835 C   0  0  2  0  0  0  0  0  0  0  0  0
   12.2537  -15.2487   30.0303 C   0  0  0  0  0  0  0  0  0  0  0  0
   10.7802  -14.8058   28.0192 C   0  0  0  0  0  0  0  0  0  0  0  0
   11.0628  -16.0233   27.2575 C   0  0  2  0  0  0  0  0  0  0  0  0
   10.5992  -15.7787   25.9042 N   0  0  0  0  0  0  0  0  0  0  0  0
   10.6699  -17.3205   27.7807 C   0  0  0  0  0  0  0  0  0  0  0  0
   11.5464  -18.3182   28.1694 O   0  0  0  0  0  0  0  0  0  0  0  0
    9.4563  -17.6092   27.9075 O   0  0  0  0  0  0  0  0  0  0  0  0
  2  3  1  0
  2  1  1  6
  4  3  1  0
  5  4  1  0
  5  6  1  0
  7  6  1  0
  8  9  2  0
  8  2  1  0
 11 10  1  0
 12 11  1  0
 12 14  1  0
 12 13  1  1
 14 15  1  6
 15  8  1  0
 16 14  1  0
 17 16  2  0
 19 18  1  6
 19 21  1  0
 20 19  1  0
 22 21  1  1
 22 23  1  0
 22 24  1  0
 23 16  1  0
 24 25  1  0
 26 24  2  0
M  END
$$$$
