KIL.pdb
     RDKit          3D

 26 25  0  0  1  0  0  0  0  0999 V2000
    7.1920  -19.7798   20.5777 N   0  0  0  0  0  0  0  0  0  0  0  0
    6.7052  -18.5896   21.1968 C   0  0  1  0  0  0  0  0  0  0  0  0
    6.0357  -18.8519   22.5322 C   0  0  0  0  0  0  0  0  0  0  0  0
    6.9280  -19.7558   23.3734 C   0  0  0  0  0  0  0  0  0  0  0  0
    6.1562  -19.9977   24.6768 C   0  0  0  0  0  0  0  0  0  0  0  0
    6.9609  -20.9214   25.5607 C   0  0  0  0  0  0  0  0  0  0  0  0
    7.3219  -20.1424   26.7544 N   0  0  0  0  0  0  0  0  0  0  0  0
    7.7656  -17.5810   21.4291 C   0  0  0  0  0  0  0  0  0  0  0  0
    8.9819  -17.8911   21.4110 O   0  0  0  0  0  0  0  0  0  0  0  0
    6.8150  -12.4493   19.6251 C   0  0  0  0  0  0  0  0  0  0  0  0
    7.5560  -13.7545   19.9546 C   0  0  0  0  0  0  0  0  0  0  0  0
    7.8128  -13.8542   21.4264 C   0  0  2  0  0  0  0  0  0  0  0  0
    8.6802  -12.6684   21.8122 C   0  0  0  0  0  0  0  0  0  0  0  0
    8.3975  -15.1559   21.8105 C   0  0  2  0  0  0  0  0  0  0  0  0
    7.4034  -16.2367   21.6773 N   0  0  0  0  0  0  0  0  0  0  0  0
    8.8327  -15.1874   23.2259 C   0  0  0  0  0  0  0  0  0  0  0  0
   10.0472  -14.8946   23.4679 O   0  0  0  0  0  0  0  0  0  0  0  0
    7.8056  -12.3900   26.4785 C   0  0  0  0  0  0  0  0  0  0  0  0
    6.7747  -13.4293   26.0903 C   0  0  2  0  0  0  0  0  0  0  0  0
    5.3633  -13.0481   26.4316 C   0  0  0  0  0  0  0  0  0  0  0  0
    7.1714  -14.8201   26.3734 C   0  0  0  0  0  0  0  0  0  0  0  0
    8.3102  -15.4371   25.6916 C   0  0  2  0  0  0  0  0  0  0  0  0
    7.9494  -15.5286   24.2889 N   0  0  0  0  0  0  0  0  0  0  0  0
    8.9065  -16.6526   26.2187 C   0  0  0  0  0  0  0  0  0  0  0  0
    9.6062  -16.7418   27.4092 O   0  0  0  0  0  0  0  0  0  0  0  0
    8.8107  -17.7298   25.5840 O   0  0  0  0  0  0  0  0  0  0  0  0
  2  3  1  0
  2  1  1  1
  4  3  1  0
  5  4  1  0
  5  6  1  0
  7  6  1  0
  8  9  2  0
  8  2  1  0
 11 10  1  0
 12 11  1  0
 12 14  1  0
 12 13  1  6
 14 15  1  1
 15  8  1  0
 16 14  1  0
 17 16  2  0
 19 18  1  1
 19 21  1  0
 20 19  1  0
 22 21  1  1
 22 23  1  0
 22 24  1  0
 23 16  1  0
 24 25  1  0
 26 24  2  0
M  END
$$$$
