KIL.pdb
     RDKit          3D

 26 25  0  0  1  0  0  0  0  0999 V2000
    6.9500  -15.4043   20.2762 N   0  0  0  0  0  0  0  0  0  0  0  0
    6.7239  -15.8512   21.6126 C   0  0  1  0  0  0  0  0  0  0  0  0
    6.7460  -17.3624   21.7399 C   0  0  0  0  0  0  0  0  0  0  0  0
    5.6775  -17.9593   20.8328 C   0  0  0  0  0  0  0  0  0  0  0  0
    5.5340  -19.4215   21.2736 C   0  0  0  0  0  0  0  0  0  0  0  0
    6.0734  -20.3187   20.1845 C   0  0  0  0  0  0  0  0  0  0  0  0
    5.8211  -21.6996   20.6223 N   0  0  0  0  0  0  0  0  0  0  0  0
    7.7120  -15.3158   22.5784 C   0  0  0  0  0  0  0  0  0  0  0  0
    8.9165  -15.1540   22.2637 O   0  0  0  0  0  0  0  0  0  0  0  0
    6.1193  -11.5774   26.1856 C   0  0  0  0  0  0  0  0  0  0  0  0
    7.0597  -12.3384   25.2381 C   0  0  0  0  0  0  0  0  0  0  0  0
    7.5346  -13.6063   25.8778 C   0  0  2  0  0  0  0  0  0  0  0  0
    8.3970  -13.2146   27.0652 C   0  0  0  0  0  0  0  0  0  0  0  0
    8.2253  -14.4966   24.9217 C   0  0  2  0  0  0  0  0  0  0  0  0
    7.2927  -14.9779   23.8860 N   0  0  0  0  0  0  0  0  0  0  0  0
    8.7652  -15.7148   25.5685 C   0  0  0  0  0  0  0  0  0  0  0  0
    7.9318  -16.4881   26.1402 O   0  0  0  0  0  0  0  0  0  0  0  0
   14.3519  -18.3683   25.6684 C   0  0  0  0  0  0  0  0  0  0  0  0
   12.8752  -18.5689   25.9379 C   0  0  2  0  0  0  0  0  0  0  0  0
   12.3687  -19.9366   25.5820 C   0  0  0  0  0  0  0  0  0  0  0  0
   12.0233  -17.4281   25.5576 C   0  0  0  0  0  0  0  0  0  0  0  0
   10.7040  -17.2331   26.1608 C   0  0  2  0  0  0  0  0  0  0  0  0
   10.1535  -16.0294   25.5657 N   0  0  0  0  0  0  0  0  0  0  0  0
   10.5439  -17.2936   27.6035 C   0  0  0  0  0  0  0  0  0  0  0  0
   10.7774  -16.2426   28.4728 O   0  0  0  0  0  0  0  0  0  0  0  0
   10.1700  -18.3566   28.1535 O   0  0  0  0  0  0  0  0  0  0  0  0
  2  3  1  0
  2  1  1  6
  4  3  1  0
  5  4  1  0
  5  6  1  0
  7  6  1  0
  8  9  2  0
  8  2  1  0
 11 10  1  0
 12 11  1  0
 12 14  1  0
 12 13  1  1
 14 15  1  6
 15  8  1  0
 16 14  1  0
 17 16  2  0
 19 18  1  6
 19 21  1  0
 20 19  1  0
 22 21  1  1
 22 23  1  0
 22 24  1  0
 23 16  1  0
 24 25  1  0
 26 24  2  0
M  END
$$$$
