KIL.pdb
     RDKit          3D

 26 25  0  0  1  0  0  0  0  0999 V2000
    8.7240  -15.9768   20.1133 N   0  0  0  0  0  0  0  0  0  0  0  0
    8.2300  -16.3709   21.3929 C   0  0  1  0  0  0  0  0  0  0  0  0
    8.4878  -17.8339   21.6988 C   0  0  0  0  0  0  0  0  0  0  0  0
    8.0536  -18.6806   20.5091 C   0  0  0  0  0  0  0  0  0  0  0  0
    8.2908  -20.1360   20.9319 C   0  0  0  0  0  0  0  0  0  0  0  0
    7.9598  -21.0453   19.7719 C   0  0  0  0  0  0  0  0  0  0  0  0
    8.0579  -22.4207   20.2825 N   0  0  0  0  0  0  0  0  0  0  0  0
    8.8083  -15.5822   22.5061 C   0  0  0  0  0  0  0  0  0  0  0  0
    9.9970  -15.1796   22.4773 O   0  0  0  0  0  0  0  0  0  0  0  0
    5.5520  -12.1076   25.2499 C   0  0  0  0  0  0  0  0  0  0  0  0
    6.7876  -12.7181   24.5702 C   0  0  0  0  0  0  0  0  0  0  0  0
    7.3974  -13.7725   25.4411 C   0  0  2  0  0  0  0  0  0  0  0  0
    7.8131  -13.0991   26.7375 C   0  0  0  0  0  0  0  0  0  0  0  0
    8.5047  -14.4865   24.7718 C   0  0  2  0  0  0  0  0  0  0  0  0
    8.0059  -15.2736   23.6290 N   0  0  0  0  0  0  0  0  0  0  0  0
    9.1739  -15.4607   25.6644 C   0  0  0  0  0  0  0  0  0  0  0  0
    8.4794  -16.4436   26.0778 O   0  0  0  0  0  0  0  0  0  0  0  0
   11.6407  -13.7156   28.4010 C   0  0  0  0  0  0  0  0  0  0  0  0
   10.5661  -14.7153   28.7742 C   0  0  2  0  0  0  0  0  0  0  0  0
   10.0949  -14.6049   30.1954 C   0  0  0  0  0  0  0  0  0  0  0  0
   10.7897  -16.0763   28.2551 C   0  0  0  0  0  0  0  0  0  0  0  0
   11.2330  -16.2989   26.8780 C   0  0  2  0  0  0  0  0  0  0  0  0
   10.5350  -15.3253   26.0588 N   0  0  0  0  0  0  0  0  0  0  0  0
   11.2303  -17.6390   26.3169 C   0  0  0  0  0  0  0  0  0  0  0  0
   10.7028  -17.9825   25.0846 O   0  0  0  0  0  0  0  0  0  0  0  0
   11.7295  -18.5934   26.9588 O   0  0  0  0  0  0  0  0  0  0  0  0
  2  3  1  0
  2  1  1  6
  4  3  1  0
  5  4  1  0
  5  6  1  0
  7  6  1  0
  8  9  2  0
  8  2  1  0
 11 10  1  0
 12 11  1  0
 12 14  1  0
 12 13  1  1
 14 15  1  6
 15  8  1  0
 16 14  1  0
 17 16  2  0
 19 18  1  1
 19 21  1  0
 20 19  1  0
 22 21  1  1
 22 23  1  0
 22 24  1  0
 23 16  1  0
 24 25  1  0
 26 24  2  0
M  END
$$$$
