KIL.pdb
     RDKit          3D

 26 25  0  0  1  0  0  0  0  0999 V2000
    7.0285  -19.7151   20.8936 N   0  0  0  0  0  0  0  0  0  0  0  0
    6.7670  -18.6164   21.7661 C   0  0  1  0  0  0  0  0  0  0  0  0
    6.6464  -19.0340   23.2192 C   0  0  0  0  0  0  0  0  0  0  0  0
    5.8493  -20.3293   23.3059 C   0  0  0  0  0  0  0  0  0  0  0  0
    6.2603  -20.9770   24.6342 C   0  0  0  0  0  0  0  0  0  0  0  0
    5.4578  -22.2411   24.8341 C   0  0  0  0  0  0  0  0  0  0  0  0
    6.2718  -23.3389   24.2916 N   0  0  0  0  0  0  0  0  0  0  0  0
    7.8056  -17.5617   21.6983 C   0  0  0  0  0  0  0  0  0  0  0  0
    9.0137  -17.8415   21.5032 O   0  0  0  0  0  0  0  0  0  0  0  0
    6.7124  -12.6395   19.4837 C   0  0  0  0  0  0  0  0  0  0  0  0
    7.5396  -13.8658   19.8998 C   0  0  0  0  0  0  0  0  0  0  0  0
    7.7913  -13.8519   21.3758 C   0  0  2  0  0  0  0  0  0  0  0  0
    8.6219  -12.6167   21.6782 C   0  0  0  0  0  0  0  0  0  0  0  0
    8.4112  -15.1051   21.8545 C   0  0  2  0  0  0  0  0  0  0  0  0
    7.4315  -16.2071   21.8564 N   0  0  0  0  0  0  0  0  0  0  0  0
    8.8967  -15.0015   23.2499 C   0  0  0  0  0  0  0  0  0  0  0  0
   10.0572  -14.5106   23.4273 O   0  0  0  0  0  0  0  0  0  0  0  0
    8.6661  -12.1546   26.2029 C   0  0  0  0  0  0  0  0  0  0  0  0
    7.4070  -12.9709   25.9983 C   0  0  2  0  0  0  0  0  0  0  0  0
    6.1483  -12.2703   26.4209 C   0  0  0  0  0  0  0  0  0  0  0  0
    7.5310  -14.3911   26.3717 C   0  0  0  0  0  0  0  0  0  0  0  0
    8.5314  -15.2554   25.7434 C   0  0  2  0  0  0  0  0  0  0  0  0
    8.1178  -15.4270   24.3630 N   0  0  0  0  0  0  0  0  0  0  0  0
    8.9354  -16.4935   26.3872 C   0  0  0  0  0  0  0  0  0  0  0  0
    8.9832  -17.7306   25.7691 O   0  0  0  0  0  0  0  0  0  0  0  0
    9.2737  -16.4965   27.5946 O   0  0  0  0  0  0  0  0  0  0  0  0
  2  3  1  0
  2  1  1  6
  4  3  1  0
  5  4  1  0
  5  6  1  0
  7  6  1  0
  8  9  2  0
  8  2  1  0
 11 10  1  0
 12 11  1  0
 12 14  1  0
 12 13  1  6
 14 15  1  1
 15  8  1  0
 16 14  1  0
 17 16  2  0
 19 18  1  1
 19 21  1  0
 20 19  1  0
 22 21  1  1
 22 23  1  0
 22 24  1  0
 23 16  1  0
 24 25  1  0
 26 24  2  0
M  END
$$$$
