KIL.pdb
     RDKit          3D

 26 25  0  0  1  0  0  0  0  0999 V2000
    9.4754  -18.9900   19.2682 N   0  0  0  0  0  0  0  0  0  0  0  0
    8.4646  -18.4400   20.1123 C   0  0  1  0  0  0  0  0  0  0  0  0
    7.9790  -19.4189   21.1642 C   0  0  0  0  0  0  0  0  0  0  0  0
    8.4205  -20.8263   20.7837 C   0  0  0  0  0  0  0  0  0  0  0  0
    7.8256  -21.7479   21.8560 C   0  0  0  0  0  0  0  0  0  0  0  0
    8.2604  -23.1681   21.5803 C   0  0  0  0  0  0  0  0  0  0  0  0
    7.6951  -23.9914   22.6594 N   0  0  0  0  0  0  0  0  0  0  0  0
    8.9043  -17.2162   20.8226 C   0  0  0  0  0  0  0  0  0  0  0  0
   10.0674  -17.1059   21.2820 O   0  0  0  0  0  0  0  0  0  0  0  0
    7.1735  -12.3228   19.1461 C   0  0  0  0  0  0  0  0  0  0  0  0
    8.0519  -13.4350   19.7399 C   0  0  0  0  0  0  0  0  0  0  0  0
    7.6252  -13.7480   21.1407 C   0  0  2  0  0  0  0  0  0  0  0  0
    7.7939  -12.4776   21.9560 C   0  0  0  0  0  0  0  0  0  0  0  0
    8.3489  -14.9059   21.7057 C   0  0  2  0  0  0  0  0  0  0  0  0
    7.9959  -16.1453   20.9891 N   0  0  0  0  0  0  0  0  0  0  0  0
    8.0035  -15.1542   23.1245 C   0  0  0  0  0  0  0  0  0  0  0  0
    6.9129  -15.7664   23.3592 O   0  0  0  0  0  0  0  0  0  0  0  0
    8.0027  -12.1488   26.5386 C   0  0  0  0  0  0  0  0  0  0  0  0
    6.9932  -12.9915   25.7873 C   0  0  2  0  0  0  0  0  0  0  0  0
    5.5733  -12.5301   25.9448 C   0  0  0  0  0  0  0  0  0  0  0  0
    7.2295  -14.4440   25.8654 C   0  0  0  0  0  0  0  0  0  0  0  0
    8.5506  -15.0126   25.5934 C   0  0  2  0  0  0  0  0  0  0  0  0
    8.8386  -14.7349   24.1984 N   0  0  0  0  0  0  0  0  0  0  0  0
    8.8545  -16.3771   25.9891 C   0  0  0  0  0  0  0  0  0  0  0  0
    9.3368  -17.3601   25.1430 O   0  0  0  0  0  0  0  0  0  0  0  0
    8.6819  -16.7440   27.1756 O   0  0  0  0  0  0  0  0  0  0  0  0
  2  3  1  0
  2  1  1  1
  4  3  1  0
  5  4  1  0
  5  6  1  0
  7  6  1  0
  8  9  2  0
  8  2  1  0
 11 10  1  0
 12 11  1  0
 12 14  1  0
 12 13  1  1
 14 15  1  6
 15  8  1  0
 16 14  1  0
 17 16  2  0
 19 18  1  1
 19 21  1  0
 20 19  1  0
 22 21  1  6
 22 23  1  0
 22 24  1  0
 23 16  1  0
 24 25  1  0
 26 24  2  0
M  END
$$$$
