KIL.pdb
     RDKit          3D

 26 25  0  0  1  0  0  0  0  0999 V2000
    7.1798  -16.7783   19.5253 N   0  0  0  0  0  0  0  0  0  0  0  0
    8.1041  -16.0654   20.3465 C   0  0  1  0  0  0  0  0  0  0  0  0
    7.6557  -14.6472   20.6435 C   0  0  0  0  0  0  0  0  0  0  0  0
    7.7198  -13.8212   19.3651 C   0  0  0  0  0  0  0  0  0  0  0  0
    8.3574  -12.4860   19.7697 C   0  0  0  0  0  0  0  0  0  0  0  0
    8.4473  -11.5952   18.5530 C   0  0  0  0  0  0  0  0  0  0  0  0
    8.9268  -10.2895   19.0299 N   0  0  0  0  0  0  0  0  0  0  0  0
    8.3540  -16.7274   21.6484 C   0  0  0  0  0  0  0  0  0  0  0  0
    7.4604  -17.3897   22.2304 O   0  0  0  0  0  0  0  0  0  0  0  0
   12.4771  -19.8061   22.4536 C   0  0  0  0  0  0  0  0  0  0  0  0
   11.1220  -19.0866   22.5391 C   0  0  0  0  0  0  0  0  0  0  0  0
   11.1834  -17.9701   23.5350 C   0  0  2  0  0  0  0  0  0  0  0  0
   11.5540  -18.5829   24.8745 C   0  0  0  0  0  0  0  0  0  0  0  0
    9.9337  -17.1826   23.5779 C   0  0  2  0  0  0  0  0  0  0  0  0
    9.6273  -16.6130   22.2528 N   0  0  0  0  0  0  0  0  0  0  0  0
   10.0232  -16.0251   24.4977 C   0  0  0  0  0  0  0  0  0  0  0  0
   10.1427  -14.8723   23.9724 O   0  0  0  0  0  0  0  0  0  0  0  0
    8.9724  -12.3555   26.2879 C   0  0  0  0  0  0  0  0  0  0  0  0
    7.9530  -13.3539   25.7804 C   0  0  2  0  0  0  0  0  0  0  0  0
    6.5396  -12.8481   25.7994 C   0  0  0  0  0  0  0  0  0  0  0  0
    8.1673  -14.7364   26.2437 C   0  0  0  0  0  0  0  0  0  0  0  0
    9.4513  -15.1564   26.8071 C   0  0  2  0  0  0  0  0  0  0  0  0
    9.9809  -16.1697   25.9133 N   0  0  0  0  0  0  0  0  0  0  0  0
    9.5518  -15.5113   28.2123 C   0  0  0  0  0  0  0  0  0  0  0  0
   10.1598  -14.7373   29.1849 O   0  0  0  0  0  0  0  0  0  0  0  0
    9.0692  -16.5917   28.6270 O   0  0  0  0  0  0  0  0  0  0  0  0
  2  3  1  0
  2  1  1  1
  4  3  1  0
  5  4  1  0
  5  6  1  0
  7  6  1  0
  8  9  2  0
  8  2  1  0
 11 10  1  0
 12 11  1  0
 12 14  1  0
 12 13  1  1
 14 15  1  6
 15  8  1  0
 16 14  1  0
 17 16  2  0
 19 18  1  1
 19 21  1  0
 20 19  1  0
 22 21  1  6
 22 23  1  0
 22 24  1  0
 23 16  1  0
 24 25  1  0
 26 24  2  0
M  END
$$$$
