KIL.pdb
     RDKit          3D

 26 25  0  0  1  0  0  0  0  0999 V2000
    8.9193  -15.7500   19.9136 N   0  0  0  0  0  0  0  0  0  0  0  0
    8.2952  -16.1894   21.1195 C   0  0  1  0  0  0  0  0  0  0  0  0
    8.4217  -17.6851   21.3369 C   0  0  0  0  0  0  0  0  0  0  0  0
    7.8625  -18.4188   20.1245 C   0  0  0  0  0  0  0  0  0  0  0  0
    7.7222  -19.8832   20.5587 C   0  0  0  0  0  0  0  0  0  0  0  0
    7.1957  -20.6925   19.3968 C   0  0  0  0  0  0  0  0  0  0  0  0
    7.1628  -22.0917   19.8475 N   0  0  0  0  0  0  0  0  0  0  0  0
    8.8354  -15.5240   22.3283 C   0  0  0  0  0  0  0  0  0  0  0  0
   10.0462  -15.2040   22.4159 O   0  0  0  0  0  0  0  0  0  0  0  0
    5.4730  -12.1079   24.9527 C   0  0  0  0  0  0  0  0  0  0  0  0
    6.7086  -12.7617   24.3145 C   0  0  0  0  0  0  0  0  0  0  0  0
    7.2945  -13.7859   25.2363 C   0  0  2  0  0  0  0  0  0  0  0  0
    7.6798  -13.0682   26.5183 C   0  0  0  0  0  0  0  0  0  0  0  0
    8.4162  -14.5243   24.6197 C   0  0  2  0  0  0  0  0  0  0  0  0
    7.9704  -15.2409   23.4106 N   0  0  0  0  0  0  0  0  0  0  0  0
    8.9727  -15.5638   25.5161 C   0  0  0  0  0  0  0  0  0  0  0  0
    8.4255  -16.7123   25.4855 O   0  0  0  0  0  0  0  0  0  0  0  0
   11.2486  -13.6475   28.7191 C   0  0  0  0  0  0  0  0  0  0  0  0
   10.1498  -14.6508   29.0017 C   0  0  2  0  0  0  0  0  0  0  0  0
    9.5050  -14.4889   30.3477 C   0  0  0  0  0  0  0  0  0  0  0  0
   10.4545  -16.0282   28.5753 C   0  0  0  0  0  0  0  0  0  0  0  0
   10.7229  -16.3452   27.1717 C   0  0  2  0  0  0  0  0  0  0  0  0
   10.0720  -15.3138   26.3853 N   0  0  0  0  0  0  0  0  0  0  0  0
   10.4951  -17.6894   26.6696 C   0  0  0  0  0  0  0  0  0  0  0  0
    9.2535  -18.2320   26.3891 O   0  0  0  0  0  0  0  0  0  0  0  0
   11.4634  -18.4578   26.4597 O   0  0  0  0  0  0  0  0  0  0  0  0
  2  3  1  0
  2  1  1  6
  4  3  1  0
  5  4  1  0
  5  6  1  0
  7  6  1  0
  8  9  2  0
  8  2  1  0
 11 10  1  0
 12 11  1  0
 12 14  1  0
 12 13  1  1
 14 15  1  6
 15  8  1  0
 16 14  1  0
 17 16  2  0
 19 18  1  1
 19 21  1  0
 20 19  1  0
 22 21  1  1
 22 23  1  0
 22 24  1  0
 23 16  1  0
 24 25  1  0
 26 24  2  0
M  END
$$$$
