KIL.pdb
     RDKit          3D

 26 25  0  0  1  0  0  0  0  0999 V2000
    6.9204  -19.0305   21.4598 N   0  0  0  0  0  0  0  0  0  0  0  0
    8.2613  -19.0928   20.9753 C   0  0  1  0  0  0  0  0  0  0  0  0
    8.3553  -19.6669   19.5746 C   0  0  0  0  0  0  0  0  0  0  0  0
    8.2437  -21.1846   19.6445 C   0  0  0  0  0  0  0  0  0  0  0  0
    9.5322  -21.7214   19.0083 C   0  0  0  0  0  0  0  0  0  0  0  0
    9.1765  -22.5223   17.7778 C   0  0  0  0  0  0  0  0  0  0  0  0
   10.4375  -23.0815   17.2686 N   0  0  0  0  0  0  0  0  0  0  0  0
    8.9322  -17.7718   20.9531 C   0  0  0  0  0  0  0  0  0  0  0  0
   10.0873  -17.6299   20.4824 O   0  0  0  0  0  0  0  0  0  0  0  0
    7.4859  -11.9789   20.1002 C   0  0  0  0  0  0  0  0  0  0  0  0
    8.4973  -12.9480   20.7320 C   0  0  0  0  0  0  0  0  0  0  0  0
    7.9227  -14.3286   20.8084 C   0  0  2  0  0  0  0  0  0  0  0  0
    6.5806  -14.2183   21.5112 C   0  0  0  0  0  0  0  0  0  0  0  0
    8.8432  -15.2883   21.4530 C   0  0  2  0  0  0  0  0  0  0  0  0
    8.2593  -16.6420   21.4733 N   0  0  0  0  0  0  0  0  0  0  0  0
    9.1149  -14.9506   22.8694 C   0  0  0  0  0  0  0  0  0  0  0  0
   10.0338  -14.1008   23.0990 O   0  0  0  0  0  0  0  0  0  0  0  0
    7.9471  -12.2399   26.1117 C   0  0  0  0  0  0  0  0  0  0  0  0
    6.9323  -13.2439   25.6059 C   0  0  2  0  0  0  0  0  0  0  0  0
    5.5074  -12.8759   25.9027 C   0  0  0  0  0  0  0  0  0  0  0  0
    7.3091  -14.6532   25.8153 C   0  0  0  0  0  0  0  0  0  0  0  0
    8.5908  -15.1740   25.3372 C   0  0  2  0  0  0  0  0  0  0  0  0
    8.3936  -15.5387   23.9465 N   0  0  0  0  0  0  0  0  0  0  0  0
    9.3035  -16.1797   26.1063 C   0  0  0  0  0  0  0  0  0  0  0  0
    9.8591  -17.3335   25.5820 O   0  0  0  0  0  0  0  0  0  0  0  0
    9.4523  -16.0407   27.3435 O   0  0  0  0  0  0  0  0  0  0  0  0
  2  3  1  0
  2  1  1  6
  4  3  1  0
  5  4  1  0
  5  6  1  0
  7  6  1  0
  8  9  2  0
  8  2  1  0
 11 10  1  0
 12 11  1  0
 12 14  1  0
 12 13  1  1
 14 15  1  1
 15  8  1  0
 16 14  1  0
 17 16  2  0
 19 18  1  1
 19 21  1  0
 20 19  1  0
 22 21  1  1
 22 23  1  0
 22 24  1  0
 23 16  1  0
 24 25  1  0
 26 24  2  0
M  END
$$$$
