KIL.pdb
     RDKit          3D

 26 25  0  0  1  0  0  0  0  0999 V2000
    8.1694  -18.7924   20.8618 N   0  0  0  0  0  0  0  0  0  0  0  0
    9.4096  -18.4235   20.2597 C   0  0  1  0  0  0  0  0  0  0  0  0
    9.4110  -18.6074   18.7542 C   0  0  0  0  0  0  0  0  0  0  0  0
    8.9148  -20.0079   18.4179 C   0  0  0  0  0  0  0  0  0  0  0  0
    8.9113  -20.0862   16.8860 C   0  0  0  0  0  0  0  0  0  0  0  0
    8.4350  -21.4564   16.4646 C   0  0  0  0  0  0  0  0  0  0  0  0
    8.3147  -21.4209   14.9996 N   0  0  0  0  0  0  0  0  0  0  0  0
    9.7899  -17.0170   20.5294 C   0  0  0  0  0  0  0  0  0  0  0  0
   10.8470  -16.5225   20.0670 O   0  0  0  0  0  0  0  0  0  0  0  0
    6.5008  -13.2021   19.3202 C   0  0  0  0  0  0  0  0  0  0  0  0
    7.8453  -13.8588   19.6699 C   0  0  0  0  0  0  0  0  0  0  0  0
    8.0005  -13.9766   21.1545 C   0  0  2  0  0  0  0  0  0  0  0  0
    8.0138  -12.5662   21.7181 C   0  0  0  0  0  0  0  0  0  0  0  0
    9.1870  -14.7703   21.5368 C   0  0  2  0  0  0  0  0  0  0  0  0
    8.9452  -16.2094   21.3258 N   0  0  0  0  0  0  0  0  0  0  0  0
    9.5260  -14.6297   22.9717 C   0  0  0  0  0  0  0  0  0  0  0  0
   10.1796  -13.5938   23.3165 O   0  0  0  0  0  0  0  0  0  0  0  0
    5.9812  -13.0611   26.4827 C   0  0  0  0  0  0  0  0  0  0  0  0
    7.4288  -13.5046   26.5215 C   0  0  2  0  0  0  0  0  0  0  0  0
    8.3544  -12.5157   27.1687 C   0  0  0  0  0  0  0  0  0  0  0  0
    7.9059  -14.1451   25.2829 C   0  0  0  0  0  0  0  0  0  0  0  0
    8.8389  -15.2722   25.3234 C   0  0  2  0  0  0  0  0  0  0  0  0
    9.1491  -15.5990   23.9439 N   0  0  0  0  0  0  0  0  0  0  0  0
    8.5456  -16.4346   26.1441 C   0  0  0  0  0  0  0  0  0  0  0  0
    9.1745  -16.7426   27.3375 O   0  0  0  0  0  0  0  0  0  0  0  0
    7.6659  -17.2538   25.7875 O   0  0  0  0  0  0  0  0  0  0  0  0
  2  3  1  0
  2  1  1  6
  4  3  1  0
  5  4  1  0
  5  6  1  0
  7  6  1  0
  8  9  2  0
  8  2  1  0
 11 10  1  0
 12 11  1  0
 12 14  1  0
 12 13  1  1
 14 15  1  1
 15  8  1  0
 16 14  1  0
 17 16  2  0
 19 18  1  6
 19 21  1  0
 20 19  1  0
 22 21  1  6
 22 23  1  0
 22 24  1  0
 23 16  1  0
 24 25  1  0
 26 24  2  0
M  END
$$$$
