PFP.pdb
     RDKit          3D

 26 28  0  0  1  0  0  0  0  0999 V2000
    9.5364  -17.7272   20.5501 N   0  0  0  0  0  0  0  0  0  0  0  0
    9.5240  -17.8428   19.1248 C   0  0  0  0  0  0  0  0  0  0  0  0
   10.5489  -16.8914   18.5683 C   0  0  0  0  0  0  0  0  0  0  0  0
   10.7760  -15.9492   19.7324 C   0  0  0  0  0  0  0  0  0  0  0  0
   10.6647  -16.8864   20.9103 C   0  0  1  0  0  0  0  0  0  0  0  0
   10.4462  -16.1437   22.1454 C   0  0  0  0  0  0  0  0  0  0  0  0
   11.3890  -15.4858   22.7050 O   0  0  0  0  0  0  0  0  0  0  0  0
    9.1840  -16.1077   22.7881 N   0  0  0  0  0  0  0  0  0  0  0  0
    8.9465  -15.3353   23.9731 C   0  0  1  0  0  0  0  0  0  0  0  0
    7.6062  -14.6512   23.7998 C   0  0  0  0  0  0  0  0  0  0  0  0
    7.2747  -13.8267   24.9855 C   0  0  0  0  0  0  0  0  0  0  0  0
    6.6645  -14.4030   26.0717 C   0  0  0  0  0  0  0  0  0  0  0  0
    6.3485  -13.6550   27.1823 C   0  0  0  0  0  0  0  0  0  0  0  0
    6.6489  -12.3156   27.2004 C   0  0  0  0  0  0  0  0  0  0  0  0
    7.2654  -11.7098   26.1151 C   0  0  0  0  0  0  0  0  0  0  0  0
    7.5652  -12.4910   25.0240 C   0  0  0  0  0  0  0  0  0  0  0  0
    9.1384  -15.9542   25.2599 C   0  0  0  0  0  0  0  0  0  0  0  0
    8.8662  -17.2250   25.2825 O   0  0  0  0  0  0  0  0  0  0  0  0
    9.5598  -15.4651   26.4989 N   0  0  0  0  0  0  0  0  0  0  0  0
    9.3134  -14.1720   27.0753 C   0  0  0  0  0  0  0  0  0  0  0  0
   10.7381  -13.7362   27.3895 C   0  0  0  0  0  0  0  0  0  0  0  0
   11.3515  -15.0577   27.8744 C   0  0  0  0  0  0  0  0  0  0  0  0
   10.3645  -16.1408   27.5235 C   0  0  1  0  0  0  0  0  0  0  0  0
    9.5412  -16.5871   28.6559 C   0  0  0  0  0  0  0  0  0  0  0  0
   10.0406  -17.3062   29.7455 O   0  0  0  0  0  0  0  0  0  0  0  0
    8.3100  -16.3311   28.6923 O   0  0  0  0  0  0  0  0  0  0  0  0
  1  5  1  0
  1  2  1  0
  2  3  1  0
  4  3  1  0
  5  4  1  0
  6  7  2  0
  5  6  1  1
  8  6  1  0
  9  8  1  0
  9 10  1  1
 11 10  1  0
 11 16  1  0
 12 11  2  0
 13 12  1  0
 13 14  2  0
 14 15  1  0
 15 16  2  0
 17  9  1  0
 18 17  2  0
 19 17  1  0
 19 20  1  0
 21 20  1  0
 22 23  1  0
 22 21  1  0
 23 19  1  0
 23 24  1  1
 24 25  1  0
 26 24  2  0
M  END
$$$$
