PFP.pdb
     RDKit          3D

 26 28  0  0  1  0  0  0  0  0999 V2000
    9.2390  -17.5131   20.5420 N   0  0  0  0  0  0  0  0  0  0  0  0
    9.1786  -17.6998   19.1256 C   0  0  0  0  0  0  0  0  0  0  0  0
   10.1794  -16.7741   18.4876 C   0  0  0  0  0  0  0  0  0  0  0  0
   10.4415  -15.7743   19.5949 C   0  0  0  0  0  0  0  0  0  0  0  0
   10.3748  -16.6519   20.8212 C   0  0  1  0  0  0  0  0  0  0  0  0
   10.1950  -15.8491   22.0244 C   0  0  0  0  0  0  0  0  0  0  0  0
   11.1346  -15.1135   22.4834 O   0  0  0  0  0  0  0  0  0  0  0  0
    8.9754  -15.8377   22.7455 N   0  0  0  0  0  0  0  0  0  0  0  0
    8.8137  -15.1101   23.9710 C   0  0  1  0  0  0  0  0  0  0  0  0
    7.4867  -14.3845   23.8885 C   0  0  0  0  0  0  0  0  0  0  0  0
    7.2181  -13.6276   25.1337 C   0  0  0  0  0  0  0  0  0  0  0  0
    7.6286  -12.3224   25.2441 C   0  0  0  0  0  0  0  0  0  0  0  0
    7.3888  -11.6024   26.3917 C   0  0  0  0  0  0  0  0  0  0  0  0
    6.7305  -12.2005   27.4373 C   0  0  0  0  0  0  0  0  0  0  0  0
    6.3057  -13.5184   27.3502 C   0  0  0  0  0  0  0  0  0  0  0  0
    6.5640  -14.2045   26.1870 C   0  0  0  0  0  0  0  0  0  0  0  0
    9.0464  -15.7877   25.2210 C   0  0  0  0  0  0  0  0  0  0  0  0
    8.6548  -17.0272   25.2326 O   0  0  0  0  0  0  0  0  0  0  0  0
    9.6103  -15.3830   26.4335 N   0  0  0  0  0  0  0  0  0  0  0  0
    9.5440  -14.0904   27.0578 C   0  0  0  0  0  0  0  0  0  0  0  0
   11.0261  -13.8110   27.2673 C   0  0  0  0  0  0  0  0  0  0  0  0
   11.5353  -15.2024   27.6705 C   0  0  0  0  0  0  0  0  0  0  0  0
   10.4174  -16.1685   27.3743 C   0  0  1  0  0  0  0  0  0  0  0  0
    9.6423  -16.5647   28.5582 C   0  0  0  0  0  0  0  0  0  0  0  0
   10.1328  -17.3998   29.5660 O   0  0  0  0  0  0  0  0  0  0  0  0
    8.4641  -16.1539   28.7187 O   0  0  0  0  0  0  0  0  0  0  0  0
  1  5  1  0
  1  2  1  0
  2  3  1  0
  4  3  1  0
  5  4  1  0
  6  7  2  0
  5  6  1  1
  8  6  1  0
  9  8  1  0
  9 10  1  1
 11 10  1  0
 11 16  1  0
 12 11  2  0
 13 12  1  0
 13 14  2  0
 14 15  1  0
 15 16  2  0
 17  9  1  0
 18 17  2  0
 19 17  1  0
 19 20  1  0
 21 20  1  0
 22 23  1  0
 22 21  1  0
 23 19  1  0
 23 24  1  1
 24 25  1  0
 26 24  2  0
M  END
$$$$
