PFP.pdb
     RDKit          3D

 26 28  0  0  1  0  0  0  0  0999 V2000
    8.9894  -17.6887   20.2405 N   0  0  0  0  0  0  0  0  0  0  0  0
    8.9233  -17.8178   18.8179 C   0  0  0  0  0  0  0  0  0  0  0  0
    9.9958  -16.9489   18.2179 C   0  0  0  0  0  0  0  0  0  0  0  0
   10.3272  -16.0136   19.3624 C   0  0  0  0  0  0  0  0  0  0  0  0
   10.1863  -16.9282   20.5550 C   0  0  1  0  0  0  0  0  0  0  0  0
   10.0614  -16.1588   21.7867 C   0  0  0  0  0  0  0  0  0  0  0  0
   11.0445  -15.4932   22.2613 O   0  0  0  0  0  0  0  0  0  0  0  0
    8.8502  -16.1044   22.5199 N   0  0  0  0  0  0  0  0  0  0  0  0
    8.7388  -15.4100   23.7699 C   0  0  1  0  0  0  0  0  0  0  0  0
    7.4053  -14.6916   23.7651 C   0  0  0  0  0  0  0  0  0  0  0  0
    7.2324  -13.8868   24.9972 C   0  0  0  0  0  0  0  0  0  0  0  0
    6.6805  -14.4580   26.1168 C   0  0  0  0  0  0  0  0  0  0  0  0
    6.5115  -13.7280   27.2706 C   0  0  0  0  0  0  0  0  0  0  0  0
    6.9010  -12.4119   27.2985 C   0  0  0  0  0  0  0  0  0  0  0  0
    7.4613  -11.8117   26.1801 C   0  0  0  0  0  0  0  0  0  0  0  0
    7.6137  -12.5744   25.0462 C   0  0  0  0  0  0  0  0  0  0  0  0
    9.0305  -16.1182   24.9902 C   0  0  0  0  0  0  0  0  0  0  0  0
    8.7555  -17.3878   24.9446 O   0  0  0  0  0  0  0  0  0  0  0  0
    9.5519  -15.7175   26.2229 N   0  0  0  0  0  0  0  0  0  0  0  0
    9.4443  -14.4335   26.8591 C   0  0  0  0  0  0  0  0  0  0  0  0
   10.9144  -14.1303   27.1146 C   0  0  0  0  0  0  0  0  0  0  0  0
   11.4368  -15.5170   27.5172 C   0  0  0  0  0  0  0  0  0  0  0  0
   10.3456  -16.4993   27.1782 C   0  0  1  0  0  0  0  0  0  0  0  0
    9.5438  -16.9227   28.3346 C   0  0  0  0  0  0  0  0  0  0  0  0
   10.0424  -17.6980   29.3853 O   0  0  0  0  0  0  0  0  0  0  0  0
    8.3335  -16.5930   28.4295 O   0  0  0  0  0  0  0  0  0  0  0  0
  1  5  1  0
  1  2  1  0
  2  3  1  0
  4  3  1  0
  5  4  1  0
  6  7  2  0
  5  6  1  1
  8  6  1  0
  9  8  1  0
  9 10  1  1
 11 10  1  0
 11 16  1  0
 12 11  2  0
 13 12  1  0
 13 14  2  0
 14 15  1  0
 15 16  2  0
 17  9  1  0
 18 17  2  0
 19 17  1  0
 19 20  1  0
 21 20  1  0
 22 23  1  0
 22 21  1  0
 23 19  1  0
 23 24  1  1
 24 25  1  0
 26 24  2  0
M  END
$$$$
