PFP.pdb
     RDKit          3D

 26 28  0  0  1  0  0  0  0  0999 V2000
    9.0661  -17.6778   20.4267 N   0  0  0  0  0  0  0  0  0  0  0  0
    8.8000  -17.8867   19.0373 C   0  0  0  0  0  0  0  0  0  0  0  0
    9.5315  -16.8290   18.2556 C   0  0  0  0  0  0  0  0  0  0  0  0
    9.8217  -15.7892   19.3182 C   0  0  0  0  0  0  0  0  0  0  0  0
   10.0912  -16.6536   20.5259 C   0  0  1  0  0  0  0  0  0  0  0  0
    9.9960  -15.8737   21.7537 C   0  0  0  0  0  0  0  0  0  0  0  0
   10.9285  -15.0759   22.1124 O   0  0  0  0  0  0  0  0  0  0  0  0
    8.8703  -15.9541   22.6103 N   0  0  0  0  0  0  0  0  0  0  0  0
    8.7765  -15.2037   23.8290 C   0  0  1  0  0  0  0  0  0  0  0  0
    7.4989  -14.3931   23.7578 C   0  0  0  0  0  0  0  0  0  0  0  0
    7.3056  -13.5987   24.9936 C   0  0  0  0  0  0  0  0  0  0  0  0
    7.6706  -12.2757   25.0217 C   0  0  0  0  0  0  0  0  0  0  0  0
    7.4994  -11.5209   26.1590 C   0  0  0  0  0  0  0  0  0  0  0  0
    6.9562  -12.1018   27.2780 C   0  0  0  0  0  0  0  0  0  0  0  0
    6.5793  -13.4371   27.2748 C   0  0  0  0  0  0  0  0  0  0  0  0
    6.7664  -14.1580   26.1190 C   0  0  0  0  0  0  0  0  0  0  0  0
    8.9841  -15.8809   25.0835 C   0  0  0  0  0  0  0  0  0  0  0  0
    8.5490  -17.1057   25.1028 O   0  0  0  0  0  0  0  0  0  0  0  0
    9.5610  -15.4885   26.2940 N   0  0  0  0  0  0  0  0  0  0  0  0
    9.4457  -14.2233   26.9655 C   0  0  0  0  0  0  0  0  0  0  0  0
   10.9167  -13.8731   27.1446 C   0  0  0  0  0  0  0  0  0  0  0  0
   11.5089  -15.2485   27.4841 C   0  0  0  0  0  0  0  0  0  0  0  0
   10.4348  -16.2618   27.1841 C   0  0  1  0  0  0  0  0  0  0  0  0
    9.7158  -16.7387   28.3737 C   0  0  0  0  0  0  0  0  0  0  0  0
   10.2932  -17.5396   29.3630 O   0  0  0  0  0  0  0  0  0  0  0  0
    8.5088  -16.4348   28.5566 O   0  0  0  0  0  0  0  0  0  0  0  0
  1  5  1  0
  1  2  1  0
  2  3  1  0
  4  3  1  0
  5  4  1  0
  6  7  2  0
  5  6  1  1
  8  6  1  0
  9  8  1  0
  9 10  1  1
 11 10  1  0
 11 16  1  0
 12 11  2  0
 13 12  1  0
 13 14  2  0
 14 15  1  0
 15 16  2  0
 17  9  1  0
 18 17  2  0
 19 17  1  0
 19 20  1  0
 21 20  1  0
 22 23  1  0
 22 21  1  0
 23 19  1  0
 23 24  1  1
 24 25  1  0
 26 24  2  0
M  END
$$$$
