PFP.pdb
     RDKit          3D

 26 28  0  0  1  0  0  0  0  0999 V2000
    8.0517  -15.8441   19.7197 N   0  0  0  0  0  0  0  0  0  0  0  0
    7.6460  -15.5148   18.3886 C   0  0  0  0  0  0  0  0  0  0  0  0
    8.4608  -14.3361   17.9282 C   0  0  0  0  0  0  0  0  0  0  0  0
    8.9872  -13.7808   19.2355 C   0  0  0  0  0  0  0  0  0  0  0  0
    9.2222  -15.0422   20.0306 C   0  0  1  0  0  0  0  0  0  0  0  0
    9.3434  -14.7441   21.4523 C   0  0  0  0  0  0  0  0  0  0  0  0
   10.3784  -14.1627   21.9272 O   0  0  0  0  0  0  0  0  0  0  0  0
    8.3258  -15.0777   22.3801 N   0  0  0  0  0  0  0  0  0  0  0  0
    8.3591  -14.6435   23.7467 C   0  0  1  0  0  0  0  0  0  0  0  0
    7.0793  -13.8750   24.0031 C   0  0  0  0  0  0  0  0  0  0  0  0
    7.0873  -13.2677   25.3546 C   0  0  0  0  0  0  0  0  0  0  0  0
    7.4574  -11.9554   25.5137 C   0  0  0  0  0  0  0  0  0  0  0  0
    7.4715  -11.3727   26.7599 C   0  0  0  0  0  0  0  0  0  0  0  0
    7.1101  -12.1166   27.8557 C   0  0  0  0  0  0  0  0  0  0  0  0
    6.7322  -13.4447   27.7210 C   0  0  0  0  0  0  0  0  0  0  0  0
    6.7310  -13.9909   26.4592 C   0  0  0  0  0  0  0  0  0  0  0  0
    8.6993  -15.5952   24.7734 C   0  0  0  0  0  0  0  0  0  0  0  0
    8.3858  -16.8228   24.4829 O   0  0  0  0  0  0  0  0  0  0  0  0
    9.3013  -15.4690   26.0279 N   0  0  0  0  0  0  0  0  0  0  0  0
    9.2200  -14.3670   26.9466 C   0  0  0  0  0  0  0  0  0  0  0  0
   10.6999  -14.0843   27.1669 C   0  0  0  0  0  0  0  0  0  0  0  0
   11.2706  -15.5092   27.2063 C   0  0  0  0  0  0  0  0  0  0  0  0
   10.1729  -16.4223   26.7244 C   0  0  1  0  0  0  0  0  0  0  0  0
    9.4624  -17.1219   27.8038 C   0  0  0  0  0  0  0  0  0  0  0  0
   10.0616  -18.0585   28.6507 O   0  0  0  0  0  0  0  0  0  0  0  0
    8.2428  -16.8985   28.0171 O   0  0  0  0  0  0  0  0  0  0  0  0
  1  5  1  0
  1  2  1  0
  2  3  1  0
  4  3  1  0
  5  4  1  0
  6  7  2  0
  5  6  1  1
  8  6  1  0
  9  8  1  0
  9 10  1  1
 11 10  1  0
 11 16  1  0
 12 11  2  0
 13 12  1  0
 13 14  2  0
 14 15  1  0
 15 16  2  0
 17  9  1  0
 18 17  2  0
 19 17  1  0
 19 20  1  0
 21 20  1  0
 22 23  1  0
 22 21  1  0
 23 19  1  0
 23 24  1  1
 24 25  1  0
 26 24  2  0
M  END
$$$$
