PFP.pdb
     RDKit          3D

 26 28  0  0  1  0  0  0  0  0999 V2000
    8.4728  -17.4016   20.2404 N   0  0  0  0  0  0  0  0  0  0  0  0
    8.1732  -17.4891   18.8448 C   0  0  0  0  0  0  0  0  0  0  0  0
    9.0098  -16.4688   18.1208 C   0  0  0  0  0  0  0  0  0  0  0  0
    9.4219  -15.5385   19.2429 C   0  0  0  0  0  0  0  0  0  0  0  0
    9.6052  -16.5040   20.3886 C   0  0  1  0  0  0  0  0  0  0  0  0
    9.6069  -15.8001   21.6650 C   0  0  0  0  0  0  0  0  0  0  0  0
   10.6218  -15.1277   22.0557 O   0  0  0  0  0  0  0  0  0  0  0  0
    8.4898  -15.8197   22.5362 N   0  0  0  0  0  0  0  0  0  0  0  0
    8.4981  -15.1640   23.8118 C   0  0  1  0  0  0  0  0  0  0  0  0
    7.2122  -14.3702   23.9150 C   0  0  0  0  0  0  0  0  0  0  0  0
    7.1993  -13.5391   25.1417 C   0  0  0  0  0  0  0  0  0  0  0  0
    7.6511  -12.2437   25.0963 C   0  0  0  0  0  0  0  0  0  0  0  0
    7.6474  -11.4556   26.2239 C   0  0  0  0  0  0  0  0  0  0  0  0
    7.1852  -11.9750   27.4076 C   0  0  0  0  0  0  0  0  0  0  0  0
    6.7234  -13.2814   27.4793 C   0  0  0  0  0  0  0  0  0  0  0  0
    6.7432  -14.0371   26.3308 C   0  0  0  0  0  0  0  0  0  0  0  0
    8.8223  -15.9300   24.9882 C   0  0  0  0  0  0  0  0  0  0  0  0
    8.4089  -17.1618   24.9490 O   0  0  0  0  0  0  0  0  0  0  0  0
    9.4945  -15.6183   26.1727 N   0  0  0  0  0  0  0  0  0  0  0  0
    9.5493  -14.3569   26.8589 C   0  0  0  0  0  0  0  0  0  0  0  0
   11.0564  -14.1707   26.9700 C   0  0  0  0  0  0  0  0  0  0  0  0
   11.5105  -15.6066   27.2700 C   0  0  0  0  0  0  0  0  0  0  0  0
   10.3195  -16.4934   27.0138 C   0  0  1  0  0  0  0  0  0  0  0  0
    9.6093  -16.9049   28.2327 C   0  0  0  0  0  0  0  0  0  0  0  0
   10.1132  -17.8285   29.1528 O   0  0  0  0  0  0  0  0  0  0  0  0
    8.4789  -16.4258   28.5074 O   0  0  0  0  0  0  0  0  0  0  0  0
  1  5  1  0
  1  2  1  0
  2  3  1  0
  4  3  1  0
  5  4  1  0
  6  7  2  0
  5  6  1  1
  8  6  1  0
  9  8  1  0
  9 10  1  1
 11 10  1  0
 11 16  1  0
 12 11  2  0
 13 12  1  0
 13 14  2  0
 14 15  1  0
 15 16  2  0
 17  9  1  0
 18 17  2  0
 19 17  1  0
 19 20  1  0
 21 20  1  0
 22 23  1  0
 22 21  1  0
 23 19  1  0
 23 24  1  1
 24 25  1  0
 26 24  2  0
M  END
$$$$
