PFP.pdb
     RDKit          3D

 26 28  0  0  1  0  0  0  0  0999 V2000
    8.8585  -17.5591   20.5543 N   0  0  0  0  0  0  0  0  0  0  0  0
    8.6897  -17.7073   19.1421 C   0  0  0  0  0  0  0  0  0  0  0  0
    9.6326  -16.7565   18.4549 C   0  0  0  0  0  0  0  0  0  0  0  0
    9.9739  -15.7854   19.5662 C   0  0  0  0  0  0  0  0  0  0  0  0
   10.0076  -16.6969   20.7688 C   0  0  1  0  0  0  0  0  0  0  0  0
    9.9169  -15.9290   22.0044 C   0  0  0  0  0  0  0  0  0  0  0  0
   10.9244  -15.2968   22.4737 O   0  0  0  0  0  0  0  0  0  0  0  0
    8.7138  -15.8390   22.7474 N   0  0  0  0  0  0  0  0  0  0  0  0
    8.6297  -15.1299   23.9913 C   0  0  1  0  0  0  0  0  0  0  0  0
    7.3436  -14.3302   23.9642 C   0  0  0  0  0  0  0  0  0  0  0  0
    7.1394  -13.6112   25.2436 C   0  0  0  0  0  0  0  0  0  0  0  0
    6.5154  -14.2412   26.2915 C   0  0  0  0  0  0  0  0  0  0  0  0
    6.3163  -13.5912   27.4875 C   0  0  0  0  0  0  0  0  0  0  0  0
    6.7486  -12.2961   27.6308 C   0  0  0  0  0  0  0  0  0  0  0  0
    7.3820  -11.6377   26.5866 C   0  0  0  0  0  0  0  0  0  0  0  0
    7.5624  -12.3211   25.4073 C   0  0  0  0  0  0  0  0  0  0  0  0
    8.8611  -15.8459   25.2199 C   0  0  0  0  0  0  0  0  0  0  0  0
    8.3724  -17.0504   25.2314 O   0  0  0  0  0  0  0  0  0  0  0  0
    9.5075  -15.5089   26.4118 N   0  0  0  0  0  0  0  0  0  0  0  0
    9.5211  -14.2413   27.0886 C   0  0  0  0  0  0  0  0  0  0  0  0
   11.0215  -14.0175   27.2209 C   0  0  0  0  0  0  0  0  0  0  0  0
   11.5057  -15.4395   27.5391 C   0  0  0  0  0  0  0  0  0  0  0  0
   10.3406  -16.3571   27.2722 C   0  0  1  0  0  0  0  0  0  0  0  0
    9.6221  -16.7764   28.4836 C   0  0  0  0  0  0  0  0  0  0  0  0
    8.2973  -16.4286   28.7623 O   0  0  0  0  0  0  0  0  0  0  0  0
   10.1900  -17.4907   29.3496 O   0  0  0  0  0  0  0  0  0  0  0  0
  1  5  1  0
  1  2  1  0
  2  3  1  0
  4  3  1  0
  5  4  1  0
  6  7  2  0
  5  6  1  1
  8  6  1  0
  9  8  1  0
  9 10  1  1
 11 10  1  0
 11 16  1  0
 12 11  2  0
 13 12  1  0
 13 14  2  0
 14 15  1  0
 15 16  2  0
 17  9  1  0
 18 17  2  0
 19 17  1  0
 19 20  1  0
 21 20  1  0
 22 23  1  0
 22 21  1  0
 23 19  1  0
 23 24  1  1
 24 25  1  0
 26 24  2  0
M  END
$$$$
