PFP.pdb
     RDKit          3D

 26 28  0  0  1  0  0  0  0  0999 V2000
    8.3213  -16.5343   20.0030 N   0  0  0  0  0  0  0  0  0  0  0  0
    7.9568  -16.4049   18.6263 C   0  0  0  0  0  0  0  0  0  0  0  0
    8.6993  -15.2278   18.0534 C   0  0  0  0  0  0  0  0  0  0  0  0
    9.1165  -14.4752   19.3001 C   0  0  0  0  0  0  0  0  0  0  0  0
    9.4094  -15.6060   20.2560 C   0  0  1  0  0  0  0  0  0  0  0  0
    9.4374  -15.1275   21.6326 C   0  0  0  0  0  0  0  0  0  0  0  0
   10.4196  -14.4435   22.0822 O   0  0  0  0  0  0  0  0  0  0  0  0
    8.3828  -15.3900   22.5417 N   0  0  0  0  0  0  0  0  0  0  0  0
    8.3752  -14.8740   23.8799 C   0  0  1  0  0  0  0  0  0  0  0  0
    7.0518  -14.1642   24.0779 C   0  0  0  0  0  0  0  0  0  0  0  0
    7.0202  -13.4549   25.3785 C   0  0  0  0  0  0  0  0  0  0  0  0
    6.5722  -14.1039   26.5020 C   0  0  0  0  0  0  0  0  0  0  0  0
    6.5350  -13.4631   27.7189 C   0  0  0  0  0  0  0  0  0  0  0  0
    6.9521  -12.1581   27.8064 C   0  0  0  0  0  0  0  0  0  0  0  0
    7.4091  -11.4804   26.6853 C   0  0  0  0  0  0  0  0  0  0  0  0
    7.4311  -12.1551   25.4874 C   0  0  0  0  0  0  0  0  0  0  0  0
    8.7546  -15.7424   24.9650 C   0  0  0  0  0  0  0  0  0  0  0  0
    8.5266  -17.0022   24.7400 O   0  0  0  0  0  0  0  0  0  0  0  0
    9.3212  -15.5069   26.2203 N   0  0  0  0  0  0  0  0  0  0  0  0
    9.1851  -14.3443   27.0537 C   0  0  0  0  0  0  0  0  0  0  0  0
   10.6502  -14.0008   27.2861 C   0  0  0  0  0  0  0  0  0  0  0  0
   11.2610  -15.4008   27.4427 C   0  0  0  0  0  0  0  0  0  0  0  0
   10.2027  -16.3799   27.0043 C   0  0  1  0  0  0  0  0  0  0  0  0
    9.4862  -17.0209   28.1156 C   0  0  0  0  0  0  0  0  0  0  0  0
   10.0731  -17.9337   28.9966 O   0  0  0  0  0  0  0  0  0  0  0  0
    8.2727  -16.7653   28.3270 O   0  0  0  0  0  0  0  0  0  0  0  0
  1  5  1  0
  1  2  1  0
  2  3  1  0
  4  3  1  0
  5  4  1  0
  6  7  2  0
  5  6  1  1
  8  6  1  0
  9  8  1  0
  9 10  1  1
 11 10  1  0
 11 16  1  0
 12 11  2  0
 13 12  1  0
 13 14  2  0
 14 15  1  0
 15 16  2  0
 17  9  1  0
 18 17  2  0
 19 17  1  0
 19 20  1  0
 21 20  1  0
 22 23  1  0
 22 21  1  0
 23 19  1  0
 23 24  1  1
 24 25  1  0
 26 24  2  0
M  END
$$$$
