PFP.pdb
     RDKit          3D

 26 28  0  0  1  0  0  0  0  0999 V2000
    8.3077  -17.0549   20.3355 N   0  0  0  0  0  0  0  0  0  0  0  0
    8.0095  -17.0702   18.9371 C   0  0  0  0  0  0  0  0  0  0  0  0
    8.9028  -16.0684   18.2562 C   0  0  0  0  0  0  0  0  0  0  0  0
    9.3598  -15.2074   19.4156 C   0  0  0  0  0  0  0  0  0  0  0  0
    9.4862  -16.2265   20.5218 C   0  0  1  0  0  0  0  0  0  0  0  0
    9.5207  -15.5754   21.8255 C   0  0  0  0  0  0  0  0  0  0  0  0
   10.5482  -14.9249   22.2204 O   0  0  0  0  0  0  0  0  0  0  0  0
    8.4232  -15.6249   22.7202 N   0  0  0  0  0  0  0  0  0  0  0  0
    8.4482  -14.9852   24.0036 C   0  0  1  0  0  0  0  0  0  0  0  0
    7.1415  -14.2341   24.1545 C   0  0  0  0  0  0  0  0  0  0  0  0
    7.1078  -13.4799   25.4295 C   0  0  0  0  0  0  0  0  0  0  0  0
    6.6166  -14.0752   26.5647 C   0  0  0  0  0  0  0  0  0  0  0  0
    6.5767  -13.3922   27.7583 C   0  0  0  0  0  0  0  0  0  0  0  0
    7.0348  -12.0991   27.8105 C   0  0  0  0  0  0  0  0  0  0  0  0
    7.5359  -11.4754   26.6769 C   0  0  0  0  0  0  0  0  0  0  0  0
    7.5591  -12.1911   25.5032 C   0  0  0  0  0  0  0  0  0  0  0  0
    8.8307  -15.7549   25.1599 C   0  0  0  0  0  0  0  0  0  0  0  0
    8.5288  -17.0167   25.0800 O   0  0  0  0  0  0  0  0  0  0  0  0
    9.4639  -15.4211   26.3598 N   0  0  0  0  0  0  0  0  0  0  0  0
    9.4520  -14.1616   27.0514 C   0  0  0  0  0  0  0  0  0  0  0  0
   10.9474  -13.9142   27.1959 C   0  0  0  0  0  0  0  0  0  0  0  0
   11.4536  -15.3315   27.5005 C   0  0  0  0  0  0  0  0  0  0  0  0
   10.3058  -16.2653   27.2155 C   0  0  1  0  0  0  0  0  0  0  0  0
    9.5870  -16.7110   28.4172 C   0  0  0  0  0  0  0  0  0  0  0  0
    8.2298  -16.4685   28.6471 O   0  0  0  0  0  0  0  0  0  0  0  0
   10.1850  -17.3515   29.3199 O   0  0  0  0  0  0  0  0  0  0  0  0
  1  5  1  0
  1  2  1  0
  2  3  1  0
  4  3  1  0
  5  4  1  0
  6  7  2  0
  5  6  1  1
  8  6  1  0
  9  8  1  0
  9 10  1  1
 11 10  1  0
 11 16  1  0
 12 11  2  0
 13 12  1  0
 13 14  2  0
 14 15  1  0
 15 16  2  0
 17  9  1  0
 18 17  2  0
 19 17  1  0
 19 20  1  0
 21 20  1  0
 22 23  1  0
 22 21  1  0
 23 19  1  0
 23 24  1  1
 24 25  1  0
 26 24  2  0
M  END
$$$$
