PFP.pdb
     RDKit          3D

 26 28  0  0  1  0  0  0  0  0999 V2000
    8.6064  -17.5070   20.3986 N   0  0  0  0  0  0  0  0  0  0  0  0
    8.3074  -17.6559   19.0081 C   0  0  0  0  0  0  0  0  0  0  0  0
    9.0906  -16.6206   18.2466 C   0  0  0  0  0  0  0  0  0  0  0  0
    9.4596  -15.6340   19.3352 C   0  0  0  0  0  0  0  0  0  0  0  0
    9.6936  -16.5504   20.5116 C   0  0  1  0  0  0  0  0  0  0  0  0
    9.6644  -15.8048   21.7637 C   0  0  0  0  0  0  0  0  0  0  0  0
   10.6521  -15.0825   22.1344 O   0  0  0  0  0  0  0  0  0  0  0  0
    8.5455  -15.8372   22.6324 N   0  0  0  0  0  0  0  0  0  0  0  0
    8.5306  -15.1524   23.8926 C   0  0  1  0  0  0  0  0  0  0  0  0
    7.2409  -14.3606   23.9561 C   0  0  0  0  0  0  0  0  0  0  0  0
    7.1345  -13.6226   25.2366 C   0  0  0  0  0  0  0  0  0  0  0  0
    7.5145  -12.3052   25.3015 C   0  0  0  0  0  0  0  0  0  0  0  0
    7.4235  -11.6023   26.4807 C   0  0  0  0  0  0  0  0  0  0  0  0
    6.9459  -12.2300   27.6042 C   0  0  0  0  0  0  0  0  0  0  0  0
    6.5555  -13.5608   27.5643 C   0  0  0  0  0  0  0  0  0  0  0  0
    6.6615  -14.2291   26.3673 C   0  0  0  0  0  0  0  0  0  0  0  0
    8.8373  -15.8901   25.0915 C   0  0  0  0  0  0  0  0  0  0  0  0
    8.4798  -17.1392   25.0511 O   0  0  0  0  0  0  0  0  0  0  0  0
    9.4444  -15.5360   26.2990 N   0  0  0  0  0  0  0  0  0  0  0  0
    9.4400  -14.2577   26.9554 C   0  0  0  0  0  0  0  0  0  0  0  0
   10.9358  -14.0367   27.1347 C   0  0  0  0  0  0  0  0  0  0  0  0
   11.4036  -15.4549   27.4920 C   0  0  0  0  0  0  0  0  0  0  0  0
   10.2447  -16.3729   27.2006 C   0  0  1  0  0  0  0  0  0  0  0  0
    9.4841  -16.7702   28.3935 C   0  0  0  0  0  0  0  0  0  0  0  0
   10.0156  -17.5337   29.4367 O   0  0  0  0  0  0  0  0  0  0  0  0
    8.2813  -16.4275   28.5292 O   0  0  0  0  0  0  0  0  0  0  0  0
  1  5  1  0
  1  2  1  0
  2  3  1  0
  4  3  1  0
  5  4  1  0
  6  7  2  0
  5  6  1  1
  8  6  1  0
  9  8  1  0
  9 10  1  1
 11 10  1  0
 11 16  1  0
 12 11  2  0
 13 12  1  0
 13 14  2  0
 14 15  1  0
 15 16  2  0
 17  9  1  0
 18 17  2  0
 19 17  1  0
 19 20  1  0
 21 20  1  0
 22 23  1  0
 22 21  1  0
 23 19  1  0
 23 24  1  1
 24 25  1  0
 26 24  2  0
M  END
$$$$
