PFP.pdb
     RDKit          3D

 26 28  0  0  1  0  0  0  0  0999 V2000
    8.6238  -17.4149   20.2931 N   0  0  0  0  0  0  0  0  0  0  0  0
    8.4561  -17.4529   18.8735 C   0  0  0  0  0  0  0  0  0  0  0  0
    9.5024  -16.5660   18.2540 C   0  0  0  0  0  0  0  0  0  0  0  0
    9.9324  -15.7105   19.4277 C   0  0  0  0  0  0  0  0  0  0  0  0
    9.8554  -16.6960   20.5685 C   0  0  1  0  0  0  0  0  0  0  0  0
    9.8329  -16.0039   21.8511 C   0  0  0  0  0  0  0  0  0  0  0  0
   10.8723  -15.4207   22.3140 O   0  0  0  0  0  0  0  0  0  0  0  0
    8.6641  -15.9374   22.6494 N   0  0  0  0  0  0  0  0  0  0  0  0
    8.6127  -15.1972   23.8769 C   0  0  1  0  0  0  0  0  0  0  0  0
    7.3458  -14.3675   23.8460 C   0  0  0  0  0  0  0  0  0  0  0  0
    7.2101  -13.5611   25.0817 C   0  0  0  0  0  0  0  0  0  0  0  0
    7.6504  -12.2611   25.1030 C   0  0  0  0  0  0  0  0  0  0  0  0
    7.5335  -11.4955   26.2401 C   0  0  0  0  0  0  0  0  0  0  0  0
    6.9688  -12.0424   27.3656 C   0  0  0  0  0  0  0  0  0  0  0  0
    6.5162  -13.3540   27.3692 C   0  0  0  0  0  0  0  0  0  0  0  0
    6.6507  -14.0866   26.2135 C   0  0  0  0  0  0  0  0  0  0  0  0
    8.8423  -15.8894   25.1194 C   0  0  0  0  0  0  0  0  0  0  0  0
    8.3120  -17.0750   25.1714 O   0  0  0  0  0  0  0  0  0  0  0  0
    9.5228  -15.5451   26.2901 N   0  0  0  0  0  0  0  0  0  0  0  0
    9.6015  -14.2599   26.9279 C   0  0  0  0  0  0  0  0  0  0  0  0
   11.1120  -14.0964   27.0294 C   0  0  0  0  0  0  0  0  0  0  0  0
   11.5413  -15.5277   27.3826 C   0  0  0  0  0  0  0  0  0  0  0  0
   10.3342  -16.4023   27.1623 C   0  0  1  0  0  0  0  0  0  0  0  0
    9.6197  -16.7547   28.3971 C   0  0  0  0  0  0  0  0  0  0  0  0
   10.1401  -17.5965   29.3841 O   0  0  0  0  0  0  0  0  0  0  0  0
    8.4701  -16.2971   28.6242 O   0  0  0  0  0  0  0  0  0  0  0  0
  1  5  1  0
  1  2  1  0
  2  3  1  0
  4  3  1  0
  5  4  1  0
  6  7  2  0
  5  6  1  1
  8  6  1  0
  9  8  1  0
  9 10  1  1
 11 10  1  0
 11 16  1  0
 12 11  2  0
 13 12  1  0
 13 14  2  0
 14 15  1  0
 15 16  2  0
 17  9  1  0
 18 17  2  0
 19 17  1  0
 19 20  1  0
 21 20  1  0
 22 23  1  0
 22 21  1  0
 23 19  1  0
 23 24  1  1
 24 25  1  0
 26 24  2  0
M  END
$$$$
