PFP.pdb
     RDKit          3D

 26 28  0  0  1  0  0  0  0  0999 V2000
    9.0809  -17.6133   20.5004 N   0  0  0  0  0  0  0  0  0  0  0  0
    9.0891  -17.7241   19.0747 C   0  0  0  0  0  0  0  0  0  0  0  0
   10.2650  -16.9445   18.5506 C   0  0  0  0  0  0  0  0  0  0  0  0
   10.6054  -16.0507   19.7253 C   0  0  0  0  0  0  0  0  0  0  0  0
   10.3169  -16.9602   20.8949 C   0  0  1  0  0  0  0  0  0  0  0  0
   10.1842  -16.1937   22.1276 C   0  0  0  0  0  0  0  0  0  0  0  0
   11.1939  -15.6368   22.6801 O   0  0  0  0  0  0  0  0  0  0  0  0
    8.9361  -16.0221   22.7759 N   0  0  0  0  0  0  0  0  0  0  0  0
    8.7979  -15.2745   23.9922 C   0  0  1  0  0  0  0  0  0  0  0  0
    7.4856  -14.5228   23.9084 C   0  0  0  0  0  0  0  0  0  0  0  0
    7.2706  -13.6952   25.1186 C   0  0  0  0  0  0  0  0  0  0  0  0
    7.7197  -12.3985   25.1503 C   0  0  0  0  0  0  0  0  0  0  0  0
    7.5300  -11.6135   26.2642 C   0  0  0  0  0  0  0  0  0  0  0  0
    6.8830  -12.1376   27.3557 C   0  0  0  0  0  0  0  0  0  0  0  0
    6.4198  -13.4454   27.3482 C   0  0  0  0  0  0  0  0  0  0  0  0
    6.6286  -14.1978   26.2165 C   0  0  0  0  0  0  0  0  0  0  0  0
    9.0252  -15.9396   25.2499 C   0  0  0  0  0  0  0  0  0  0  0  0
    8.6206  -17.1746   25.2770 O   0  0  0  0  0  0  0  0  0  0  0  0
    9.5952  -15.5264   26.4567 N   0  0  0  0  0  0  0  0  0  0  0  0
    9.5625  -14.2201   27.0547 C   0  0  0  0  0  0  0  0  0  0  0  0
   11.0509  -13.9780   27.2655 C   0  0  0  0  0  0  0  0  0  0  0  0
   11.5193  -15.3746   27.6989 C   0  0  0  0  0  0  0  0  0  0  0  0
   10.3762  -16.3150   27.4169 C   0  0  1  0  0  0  0  0  0  0  0  0
    9.5853  -16.6654   28.6048 C   0  0  0  0  0  0  0  0  0  0  0  0
    8.2198  -16.3981   28.7373 O   0  0  0  0  0  0  0  0  0  0  0  0
   10.1239  -17.2406   29.5855 O   0  0  0  0  0  0  0  0  0  0  0  0
  1  5  1  0
  1  2  1  0
  2  3  1  0
  4  3  1  0
  5  4  1  0
  6  7  2  0
  5  6  1  1
  8  6  1  0
  9  8  1  0
  9 10  1  1
 11 10  1  0
 11 16  1  0
 12 11  2  0
 13 12  1  0
 13 14  2  0
 14 15  1  0
 15 16  2  0
 17  9  1  0
 18 17  2  0
 19 17  1  0
 19 20  1  0
 21 20  1  0
 22 23  1  0
 22 21  1  0
 23 19  1  0
 23 24  1  1
 24 25  1  0
 26 24  2  0
M  END
$$$$
