PFP.pdb
     RDKit          3D

 26 28  0  0  1  0  0  0  0  0999 V2000
    9.2049  -17.6925   20.5909 N   0  0  0  0  0  0  0  0  0  0  0  0
    9.1184  -17.9084   19.1800 C   0  0  0  0  0  0  0  0  0  0  0  0
   10.0765  -16.9663   18.5020 C   0  0  0  0  0  0  0  0  0  0  0  0
   10.3333  -15.9378   19.5839 C   0  0  0  0  0  0  0  0  0  0  0  0
   10.3204  -16.7930   20.8277 C   0  0  1  0  0  0  0  0  0  0  0  0
   10.1436  -15.9726   22.0195 C   0  0  0  0  0  0  0  0  0  0  0  0
   11.0638  -15.1867   22.4322 O   0  0  0  0  0  0  0  0  0  0  0  0
    8.9483  -15.9986   22.7799 N   0  0  0  0  0  0  0  0  0  0  0  0
    8.7818  -15.2262   23.9769 C   0  0  1  0  0  0  0  0  0  0  0  0
    7.5104  -14.4190   23.8151 C   0  0  0  0  0  0  0  0  0  0  0  0
    7.2054  -13.6574   25.0490 C   0  0  0  0  0  0  0  0  0  0  0  0
    6.6067  -14.2866   26.1120 C   0  0  0  0  0  0  0  0  0  0  0  0
    6.3153  -13.5974   27.2665 C   0  0  0  0  0  0  0  0  0  0  0  0
    6.6288  -12.2637   27.3525 C   0  0  0  0  0  0  0  0  0  0  0  0
    7.2342  -11.6051   26.2919 C   0  0  0  0  0  0  0  0  0  0  0  0
    7.5094  -12.3283   25.1553 C   0  0  0  0  0  0  0  0  0  0  0  0
    8.9147  -15.8803   25.2538 C   0  0  0  0  0  0  0  0  0  0  0  0
    8.3627  -17.0559   25.3068 O   0  0  0  0  0  0  0  0  0  0  0  0
    9.5192  -15.5074   26.4569 N   0  0  0  0  0  0  0  0  0  0  0  0
    9.4584  -14.2375   27.1267 C   0  0  0  0  0  0  0  0  0  0  0  0
   10.9433  -13.9420   27.2888 C   0  0  0  0  0  0  0  0  0  0  0  0
   11.4877  -15.3378   27.6250 C   0  0  0  0  0  0  0  0  0  0  0  0
   10.3733  -16.3110   27.3392 C   0  0  1  0  0  0  0  0  0  0  0  0
    9.6502  -16.7584   28.5376 C   0  0  0  0  0  0  0  0  0  0  0  0
    8.2824  -16.5562   28.7422 O   0  0  0  0  0  0  0  0  0  0  0  0
   10.2541  -17.3631   29.4610 O   0  0  0  0  0  0  0  0  0  0  0  0
  1  5  1  0
  1  2  1  0
  2  3  1  0
  4  3  1  0
  5  4  1  0
  6  7  2  0
  5  6  1  1
  8  6  1  0
  9  8  1  0
  9 10  1  6
 11 10  1  0
 11 16  1  0
 12 11  2  0
 13 12  1  0
 13 14  2  0
 14 15  1  0
 15 16  2  0
 17  9  1  0
 18 17  2  0
 19 17  1  0
 19 20  1  0
 21 20  1  0
 22 23  1  0
 22 21  1  0
 23 19  1  0
 23 24  1  1
 24 25  1  0
 26 24  2  0
M  END
$$$$
