PFP.pdb
     RDKit          3D

 26 28  0  0  1  0  0  0  0  0999 V2000
   10.4879  -16.6656   19.6839 N   0  0  0  0  0  0  0  0  0  0  0  0
   10.7521  -17.8277   18.8935 C   0  0  0  0  0  0  0  0  0  0  0  0
    9.9594  -18.9729   19.4639 C   0  0  0  0  0  0  0  0  0  0  0  0
    9.6247  -18.4698   20.8529 C   0  0  0  0  0  0  0  0  0  0  0  0
    9.4116  -16.9968   20.6013 C   0  0  1  0  0  0  0  0  0  0  0  0
    9.4769  -16.2430   21.8472 C   0  0  0  0  0  0  0  0  0  0  0  0
   10.5958  -15.9373   22.3852 O   0  0  0  0  0  0  0  0  0  0  0  0
    8.3112  -15.8078   22.5249 N   0  0  0  0  0  0  0  0  0  0  0  0
    8.3647  -15.1209   23.7828 C   0  0  1  0  0  0  0  0  0  0  0  0
    7.1474  -14.2224   23.8538 C   0  0  0  0  0  0  0  0  0  0  0  0
    7.1099  -13.4809   25.1361 C   0  0  0  0  0  0  0  0  0  0  0  0
    7.6796  -12.2350   25.2239 C   0  0  0  0  0  0  0  0  0  0  0  0
    7.6554  -11.5302   26.4052 C   0  0  0  0  0  0  0  0  0  0  0  0
    7.0529  -12.0833   27.5077 C   0  0  0  0  0  0  0  0  0  0  0  0
    6.4701  -13.3408   27.4445 C   0  0  0  0  0  0  0  0  0  0  0  0
    6.5149  -14.0136   26.2462 C   0  0  0  0  0  0  0  0  0  0  0  0
    8.6175  -15.8788   24.9818 C   0  0  0  0  0  0  0  0  0  0  0  0
    8.0169  -17.0311   25.0167 O   0  0  0  0  0  0  0  0  0  0  0  0
    9.3811  -15.6275   26.1245 N   0  0  0  0  0  0  0  0  0  0  0  0
    9.6567  -14.3634   26.7499 C   0  0  0  0  0  0  0  0  0  0  0  0
   11.1781  -14.4062   26.7952 C   0  0  0  0  0  0  0  0  0  0  0  0
   11.4223  -15.8817   27.1429 C   0  0  0  0  0  0  0  0  0  0  0  0
   10.1005  -16.5849   26.9728 C   0  0  1  0  0  0  0  0  0  0  0  0
    9.3909  -16.8345   28.2352 C   0  0  0  0  0  0  0  0  0  0  0  0
    9.7862  -17.7915   29.1741 O   0  0  0  0  0  0  0  0  0  0  0  0
    8.3626  -16.1737   28.5329 O   0  0  0  0  0  0  0  0  0  0  0  0
  1  5  1  0
  1  2  1  0
  2  3  1  0
  4  3  1  0
  5  4  1  0
  6  7  2  0
  5  6  1  1
  8  6  1  0
  9  8  1  0
  9 10  1  1
 11 10  1  0
 11 16  1  0
 12 11  2  0
 13 12  1  0
 13 14  2  0
 14 15  1  0
 15 16  2  0
 17  9  1  0
 18 17  2  0
 19 17  1  0
 19 20  1  0
 21 20  1  0
 22 23  1  0
 22 21  1  0
 23 19  1  0
 23 24  1  1
 24 25  1  0
 26 24  2  0
M  END
$$$$
