CQL.pdb
     RDKit          3D

 24 23  0  0  1  0  0  0  0  0999 V2000
    7.8652  -13.8395   18.3021 N   0  0  0  0  0  0  0  0  0  0  0  0
    8.9198  -13.9489   19.2612 C   0  0  1  0  0  0  0  0  0  0  0  0
    9.3771  -12.5844   19.6781 C   0  0  0  0  0  0  0  0  0  0  0  0
    7.9043  -11.7763   20.4341 S   0  0  0  0  0  0  0  0  0  0  0  0
    8.4674  -14.7965   20.4350 C   0  0  0  0  0  0  0  0  0  0  0  0
    7.2431  -14.8736   20.5871 O   0  0  0  0  0  0  0  0  0  0  0  0
   11.4586  -19.9618   21.7958 N   0  0  0  0  0  0  0  0  0  0  0  0
   10.7926  -19.7701   23.0592 C   0  0  0  0  0  0  0  0  0  0  0  0
   10.8907  -20.7149   23.8700 O   0  0  0  0  0  0  0  0  0  0  0  0
   10.0714  -18.5056   23.2888 C   0  0  0  0  0  0  0  0  0  0  0  0
   10.1250  -17.5332   22.1565 C   0  0  0  0  0  0  0  0  0  0  0  0
    9.3608  -16.2614   22.3632 C   0  0  2  0  0  0  0  0  0  0  0  0
    9.4053  -15.4045   21.2357 N   0  0  0  0  0  0  0  0  0  0  0  0
    9.5371  -15.6546   23.7040 C   0  0  0  0  0  0  0  0  0  0  0  0
   10.6239  -15.2546   24.1510 O   0  0  0  0  0  0  0  0  0  0  0  0
    5.7322  -12.5300   26.4145 C   0  0  0  0  0  0  0  0  0  0  0  0
    7.0598  -13.0381   25.7920 C   0  0  1  0  0  0  0  0  0  0  0  0
    8.0213  -11.8671   25.9855 C   0  0  0  0  0  0  0  0  0  0  0  0
    7.4550  -14.2987   26.4585 C   0  0  0  0  0  0  0  0  0  0  0  0
    8.6325  -15.0550   26.0057 C   0  0  2  0  0  0  0  0  0  0  0  0
    8.4215  -15.4802   24.5995 N   0  0  0  0  0  0  0  0  0  0  0  0
    9.1266  -16.1753   26.7989 C   0  0  0  0  0  0  0  0  0  0  0  0
    8.9851  -17.3805   26.5552 O   0  0  0  0  0  0  0  0  0  0  0  0
    9.8427  -15.8862   27.9739 O   0  0  0  0  0  0  0  0  0  0  0  0
  2  1  1  6
  2  3  1  0
  3  4  1  0
  5  2  1  0
  6  5  2  0
  7  8  1  0
  8 10  1  0
  9  8  2  0
 10 11  1  0
 12 11  1  6
 12 13  1  0
 13  5  1  0
 14 21  1  0
 14 12  1  0
 15 14  2  0
 17 16  1  1
 18 17  1  0
 20 19  1  1
 19 17  1  0
 20 22  1  0
 20 21  1  0
 22 24  1  0
 23 22  2  0
M  END
$$$$
