CQL.pdb
     RDKit          3D

 24 23  0  0  1  0  0  0  0  0999 V2000
    6.5305  -15.3959   19.6135 N   0  0  0  0  0  0  0  0  0  0  0  0
    7.7864  -14.9428   20.1250 C   0  0  1  0  0  0  0  0  0  0  0  0
    7.7625  -13.4548   20.2982 C   0  0  0  0  0  0  0  0  0  0  0  0
    7.9619  -12.7545   18.6059 S   0  0  0  0  0  0  0  0  0  0  0  0
    8.1167  -15.6747   21.4120 C   0  0  0  0  0  0  0  0  0  0  0  0
    7.1597  -15.8598   22.1722 O   0  0  0  0  0  0  0  0  0  0  0  0
   13.9733  -14.5560   21.5573 N   0  0  0  0  0  0  0  0  0  0  0  0
   13.1839  -14.7605   20.3692 C   0  0  0  0  0  0  0  0  0  0  0  0
   13.8284  -15.0123   19.3295 O   0  0  0  0  0  0  0  0  0  0  0  0
   11.7172  -14.6627   20.4745 C   0  0  0  0  0  0  0  0  0  0  0  0
   11.1965  -14.4397   21.8564 C   0  0  0  0  0  0  0  0  0  0  0  0
   10.4714  -15.6001   22.4663 C   0  0  2  0  0  0  0  0  0  0  0  0
    9.4102  -16.0723   21.6549 N   0  0  0  0  0  0  0  0  0  0  0  0
   10.2273  -15.4700   23.9225 C   0  0  0  0  0  0  0  0  0  0  0  0
   11.1165  -15.2589   24.7626 O   0  0  0  0  0  0  0  0  0  0  0  0
    5.9832  -12.6433   25.6545 C   0  0  0  0  0  0  0  0  0  0  0  0
    7.4276  -13.1950   25.5233 C   0  0  1  0  0  0  0  0  0  0  0  0
    8.2832  -12.1366   26.2169 C   0  0  0  0  0  0  0  0  0  0  0  0
    7.4849  -14.5472   26.1216 C   0  0  0  0  0  0  0  0  0  0  0  0
    8.6604  -15.4097   25.9267 C   0  0  2  0  0  0  0  0  0  0  0  0
    8.8993  -15.5784   24.4716 N   0  0  0  0  0  0  0  0  0  0  0  0
    8.7339  -16.7021   26.5994 C   0  0  0  0  0  0  0  0  0  0  0  0
    8.7028  -16.9099   27.8192 O   0  0  0  0  0  0  0  0  0  0  0  0
    8.8559  -17.8542   25.8027 O   0  0  0  0  0  0  0  0  0  0  0  0
  2  1  1  1
  2  3  1  0
  3  4  1  0
  5  2  1  0
  6  5  2  0
  7  8  1  0
  8 10  1  0
  9  8  2  0
 10 11  1  0
 12 11  1  6
 12 13  1  0
 13  5  1  0
 14 21  1  0
 14 12  1  0
 15 14  2  0
 17 16  1  1
 18 17  1  0
 20 19  1  6
 19 17  1  0
 20 22  1  0
 20 21  1  0
 22 24  1  0
 23 22  2  0
M  END
$$$$
