CQL.pdb
     RDKit          3D

 24 23  0  0  1  0  0  0  0  0999 V2000
    9.3805  -14.5312   19.6777 N   0  0  0  0  0  0  0  0  0  0  0  0
    8.5668  -13.5201   20.2773 C   0  0  1  0  0  0  0  0  0  0  0  0
    7.7285  -12.8499   19.2319 C   0  0  0  0  0  0  0  0  0  0  0  0
    8.7097  -12.9404   17.6752 S   0  0  0  0  0  0  0  0  0  0  0  0
    7.7356  -14.1191   21.3960 C   0  0  0  0  0  0  0  0  0  0  0  0
    6.9220  -13.3482   21.9173 O   0  0  0  0  0  0  0  0  0  0  0  0
    6.6622  -21.0824   23.9884 N   0  0  0  0  0  0  0  0  0  0  0  0
    7.1470  -20.1240   23.0278 C   0  0  0  0  0  0  0  0  0  0  0  0
    7.9130  -20.5776   22.1519 O   0  0  0  0  0  0  0  0  0  0  0  0
    6.7080  -18.7225   23.1503 C   0  0  0  0  0  0  0  0  0  0  0  0
    7.4441  -17.7520   22.2860 C   0  0  0  0  0  0  0  0  0  0  0  0
    7.3316  -16.3144   22.6919 C   0  0  2  0  0  0  0  0  0  0  0  0
    7.9274  -15.4317   21.7573 N   0  0  0  0  0  0  0  0  0  0  0  0
    7.5735  -16.0665   24.1330 C   0  0  0  0  0  0  0  0  0  0  0  0
    7.0416  -16.7115   25.0507 O   0  0  0  0  0  0  0  0  0  0  0  0
    5.6295  -12.4365   26.7023 C   0  0  0  0  0  0  0  0  0  0  0  0
    6.9825  -12.7992   26.0345 C   0  0  1  0  0  0  0  0  0  0  0  0
    7.8869  -11.6194   26.3860 C   0  0  0  0  0  0  0  0  0  0  0  0
    7.4335  -14.1151   26.5392 C   0  0  0  0  0  0  0  0  0  0  0  0
    8.6567  -14.7444   26.0185 C   0  0  2  0  0  0  0  0  0  0  0  0
    8.4744  -15.0315   24.5738 N   0  0  0  0  0  0  0  0  0  0  0  0
    9.2195  -15.9089   26.6933 C   0  0  0  0  0  0  0  0  0  0  0  0
    9.6823  -15.9538   27.8405 O   0  0  0  0  0  0  0  0  0  0  0  0
    9.2561  -17.1254   25.9893 O   0  0  0  0  0  0  0  0  0  0  0  0
  2  1  1  6
  2  3  1  0
  3  4  1  0
  5  2  1  0
  6  5  2  0
  7  8  1  0
  8 10  1  0
  9  8  2  0
 10 11  1  0
 12 11  1  6
 12 13  1  0
 13  5  1  0
 14 21  1  0
 14 12  1  0
 15 14  2  0
 17 16  1  1
 18 17  1  0
 20 19  1  1
 19 17  1  0
 20 22  1  0
 20 21  1  0
 22 24  1  0
 23 22  2  0
M  END
$$$$
