CQL.pdb
     RDKit          3D

 24 23  0  0  1  0  0  0  0  0999 V2000
    5.9615  -19.1751   21.0907 N   0  0  0  0  0  0  0  0  0  0  0  0
    6.0500  -18.2082   22.1401 C   0  0  1  0  0  0  0  0  0  0  0  0
    5.6203  -18.8201   23.4384 C   0  0  0  0  0  0  0  0  0  0  0  0
    5.4661  -17.4167   24.6220 S   0  0  0  0  0  0  0  0  0  0  0  0
    7.4536  -17.6360   22.2010 C   0  0  0  0  0  0  0  0  0  0  0  0
    8.3310  -18.4319   22.5542 O   0  0  0  0  0  0  0  0  0  0  0  0
    8.5499  -12.0677   19.3581 N   0  0  0  0  0  0  0  0  0  0  0  0
    8.2197  -13.3666   18.8288 C   0  0  0  0  0  0  0  0  0  0  0  0
    7.9540  -13.4010   17.6091 O   0  0  0  0  0  0  0  0  0  0  0  0
    8.2259  -14.5211   19.7448 C   0  0  0  0  0  0  0  0  0  0  0  0
    8.6312  -14.2116   21.1486 C   0  0  0  0  0  0  0  0  0  0  0  0
    8.7200  -15.3910   22.0680 C   0  0  2  0  0  0  0  0  0  0  0  0
    7.6642  -16.3165   21.8775 N   0  0  0  0  0  0  0  0  0  0  0  0
    9.1045  -15.0528   23.4590 C   0  0  0  0  0  0  0  0  0  0  0  0
   10.2208  -14.6211   23.7887 O   0  0  0  0  0  0  0  0  0  0  0  0
    5.4230  -12.7522   26.6897 C   0  0  0  0  0  0  0  0  0  0  0  0
    6.7315  -13.0619   25.9151 C   0  0  1  0  0  0  0  0  0  0  0  0
    7.4657  -11.7225   25.8960 C   0  0  0  0  0  0  0  0  0  0  0  0
    7.4455  -14.1658   26.5940 C   0  0  0  0  0  0  0  0  0  0  0  0
    8.5676  -14.8549   25.9386 C   0  0  2  0  0  0  0  0  0  0  0  0
    8.1753  -15.2033   24.5503 N   0  0  0  0  0  0  0  0  0  0  0  0
    9.1937  -16.0030   26.5852 C   0  0  0  0  0  0  0  0  0  0  0  0
    9.3020  -17.1481   26.1280 O   0  0  0  0  0  0  0  0  0  0  0  0
    9.7402  -15.8206   27.8678 O   0  0  0  0  0  0  0  0  0  0  0  0
  2  1  1  6
  2  3  1  0
  3  4  1  0
  5  2  1  0
  6  5  2  0
  7  8  1  0
  8 10  1  0
  9  8  2  0
 10 11  1  0
 12 11  1  6
 12 13  1  0
 13  5  1  0
 14 21  1  0
 14 12  1  0
 15 14  2  0
 17 16  1  1
 18 17  1  0
 20 19  1  1
 19 17  1  0
 20 22  1  0
 20 21  1  0
 22 24  1  0
 23 22  2  0
M  END
$$$$
