CQL.pdb
     RDKit          3D

 24 23  0  0  1  0  0  0  0  0999 V2000
    8.1189  -14.5273   17.6344 N   0  0  0  0  0  0  0  0  0  0  0  0
    8.4975  -14.0189   18.9159 C   0  0  1  0  0  0  0  0  0  0  0  0
    7.8570  -12.6844   19.1476 C   0  0  0  0  0  0  0  0  0  0  0  0
    8.4409  -12.1344   20.8061 S   0  0  0  0  0  0  0  0  0  0  0  0
    8.1533  -15.0267   19.9960 C   0  0  0  0  0  0  0  0  0  0  0  0
    7.0274  -15.5290   19.9071 O   0  0  0  0  0  0  0  0  0  0  0  0
   11.4278  -19.7346   21.4206 N   0  0  0  0  0  0  0  0  0  0  0  0
   10.6950  -19.6514   22.6586 C   0  0  0  0  0  0  0  0  0  0  0  0
   10.8030  -20.6376   23.4171 O   0  0  0  0  0  0  0  0  0  0  0  0
    9.9010  -18.4389   22.9251 C   0  0  0  0  0  0  0  0  0  0  0  0
    9.9369  -17.4097   21.8434 C   0  0  0  0  0  0  0  0  0  0  0  0
    9.1141  -16.1832   22.0940 C   0  0  2  0  0  0  0  0  0  0  0  0
    9.0730  -15.3118   20.9775 N   0  0  0  0  0  0  0  0  0  0  0  0
    9.3055  -15.5837   23.4360 C   0  0  0  0  0  0  0  0  0  0  0  0
   10.3651  -15.0662   23.8241 O   0  0  0  0  0  0  0  0  0  0  0  0
    5.6830  -12.2621   25.9527 C   0  0  0  0  0  0  0  0  0  0  0  0
    7.0253  -12.8472   25.4390 C   0  0  1  0  0  0  0  0  0  0  0  0
    8.0427  -11.7540   25.7604 C   0  0  0  0  0  0  0  0  0  0  0  0
    7.2676  -14.1507   26.0961 C   0  0  0  0  0  0  0  0  0  0  0  0
    8.4426  -14.9644   25.7485 C   0  0  2  0  0  0  0  0  0  0  0  0
    8.2379  -15.5581   24.4038 N   0  0  0  0  0  0  0  0  0  0  0  0
    8.9234  -15.9816   26.6771 C   0  0  0  0  0  0  0  0  0  0  0  0
    8.8050  -17.2086   26.5648 O   0  0  0  0  0  0  0  0  0  0  0  0
    9.5956  -15.5525   27.8352 O   0  0  0  0  0  0  0  0  0  0  0  0
  2  1  1  6
  2  3  1  0
  3  4  1  0
  5  2  1  0
  6  5  2  0
  7  8  1  0
  8 10  1  0
  9  8  2  0
 10 11  1  0
 12 11  1  6
 12 13  1  0
 13  5  1  0
 14 21  1  0
 14 12  1  0
 15 14  2  0
 17 16  1  1
 18 17  1  0
 20 19  1  1
 19 17  1  0
 20 22  1  0
 20 21  1  0
 22 24  1  0
 23 22  2  0
M  END
$$$$
