CQL.pdb
     RDKit          3D

 24 23  0  0  1  0  0  0  0  0999 V2000
    8.2006  -15.3761   17.4184 N   0  0  0  0  0  0  0  0  0  0  0  0
    8.5255  -14.6138   18.5834 C   0  0  1  0  0  0  0  0  0  0  0  0
    7.9093  -13.2512   18.4927 C   0  0  0  0  0  0  0  0  0  0  0  0
    8.3658  -12.3942   20.0584 S   0  0  0  0  0  0  0  0  0  0  0  0
    8.0992  -15.3650   19.8304 C   0  0  0  0  0  0  0  0  0  0  0  0
    6.8861  -15.5830   19.9240 O   0  0  0  0  0  0  0  0  0  0  0  0
   11.1142  -19.7450   20.8100 N   0  0  0  0  0  0  0  0  0  0  0  0
   11.9015  -18.7462   21.4875 C   0  0  0  0  0  0  0  0  0  0  0  0
   13.1010  -19.0392   21.6739 O   0  0  0  0  0  0  0  0  0  0  0  0
   11.2459  -17.4898   21.8919 C   0  0  0  0  0  0  0  0  0  0  0  0
    9.7773  -17.5958   22.1425 C   0  0  0  0  0  0  0  0  0  0  0  0
    9.0142  -16.3099   22.0512 C   0  0  2  0  0  0  0  0  0  0  0  0
    9.0459  -15.7435   20.7528 N   0  0  0  0  0  0  0  0  0  0  0  0
    9.2043  -15.4040   23.2088 C   0  0  0  0  0  0  0  0  0  0  0  0
   10.2733  -14.8345   23.4807 O   0  0  0  0  0  0  0  0  0  0  0  0
    6.1521  -11.1055   25.9899 C   0  0  0  0  0  0  0  0  0  0  0  0
    7.2535  -12.1425   26.3359 C   0  0  1  0  0  0  0  0  0  0  0  0
    6.8413  -12.6620   27.7120 C   0  0  0  0  0  0  0  0  0  0  0  0
    7.3109  -13.1623   25.2653 C   0  0  0  0  0  0  0  0  0  0  0  0
    8.3304  -14.2224   25.2863 C   0  0  2  0  0  0  0  0  0  0  0  0
    8.1242  -15.1136   24.1177 N   0  0  0  0  0  0  0  0  0  0  0  0
    8.5286  -15.0171   26.4935 C   0  0  0  0  0  0  0  0  0  0  0  0
    7.9663  -16.0803   26.7862 O   0  0  0  0  0  0  0  0  0  0  0  0
    9.4497  -14.5493   27.4472 O   0  0  0  0  0  0  0  0  0  0  0  0
  2  1  1  6
  2  3  1  0
  3  4  1  0
  5  2  1  0
  6  5  2  0
  7  8  1  0
  8 10  1  0
  9  8  2  0
 10 11  1  0
 12 11  1  6
 12 13  1  0
 13  5  1  0
 14 21  1  0
 14 12  1  0
 15 14  2  0
 17 16  1  6
 18 17  1  0
 20 19  1  1
 19 17  1  0
 20 22  1  0
 20 21  1  0
 22 24  1  0
 23 22  2  0
M  END
$$$$
