CQL.pdb
     RDKit          3D

 24 23  0  0  1  0  0  0  0  0999 V2000
    6.2917  -16.5279   19.7544 N   0  0  0  0  0  0  0  0  0  0  0  0
    7.3961  -15.6411   19.9495 C   0  0  1  0  0  0  0  0  0  0  0  0
    6.8980  -14.2657   20.2734 C   0  0  0  0  0  0  0  0  0  0  0  0
    6.8177  -13.3744   18.6630 S   0  0  0  0  0  0  0  0  0  0  0  0
    8.3219  -16.1928   21.0170 C   0  0  0  0  0  0  0  0  0  0  0  0
    7.8050  -17.0041   21.7932 O   0  0  0  0  0  0  0  0  0  0  0  0
   14.3845  -14.1825   20.6410 N   0  0  0  0  0  0  0  0  0  0  0  0
   14.3865  -14.8090   21.9387 C   0  0  0  0  0  0  0  0  0  0  0  0
   15.4713  -14.7681   22.5562 O   0  0  0  0  0  0  0  0  0  0  0  0
   13.1396  -15.4278   22.4224 C   0  0  0  0  0  0  0  0  0  0  0  0
   11.9780  -15.3204   21.4897 C   0  0  0  0  0  0  0  0  0  0  0  0
   10.6857  -15.8768   22.0042 C   0  0  2  0  0  0  0  0  0  0  0  0
    9.6307  -15.7744   21.0639 N   0  0  0  0  0  0  0  0  0  0  0  0
   10.3930  -15.5344   23.4163 C   0  0  0  0  0  0  0  0  0  0  0  0
   11.1705  -15.7456   24.3607 O   0  0  0  0  0  0  0  0  0  0  0  0
    8.0810  -12.0088   27.0611 C   0  0  0  0  0  0  0  0  0  0  0  0
    7.1760  -13.1550   26.5365 C   0  0  1  0  0  0  0  0  0  0  0  0
    5.7890  -12.5185   26.4695 C   0  0  0  0  0  0  0  0  0  0  0  0
    7.7120  -13.6424   25.2463 C   0  0  0  0  0  0  0  0  0  0  0  0
    8.8861  -14.5274   25.2026 C   0  0  2  0  0  0  0  0  0  0  0  0
    9.1501  -14.9097   23.7931 N   0  0  0  0  0  0  0  0  0  0  0  0
    8.9405  -15.7065   26.0599 C   0  0  0  0  0  0  0  0  0  0  0  0
    9.5235  -15.8111   27.1468 O   0  0  0  0  0  0  0  0  0  0  0  0
    8.2699  -16.8654   25.6309 O   0  0  0  0  0  0  0  0  0  0  0  0
  2  1  1  1
  2  3  1  0
  3  4  1  0
  5  2  1  0
  6  5  2  0
  7  8  1  0
  8 10  1  0
  9  8  2  0
 10 11  1  0
 12 11  1  6
 12 13  1  0
 13  5  1  0
 14 21  1  0
 14 12  1  0
 15 14  2  0
 17 16  1  6
 18 17  1  0
 20 19  1  6
 19 17  1  0
 20 22  1  0
 20 21  1  0
 22 24  1  0
 23 22  2  0
M  END
$$$$
