CQL.pdb
     RDKit          3D

 24 23  0  0  1  0  0  0  0  0999 V2000
    9.3282  -14.1815   19.0953 N   0  0  0  0  0  0  0  0  0  0  0  0
    8.4109  -13.5002   19.9548 C   0  0  1  0  0  0  0  0  0  0  0  0
    7.0952  -13.3206   19.2610 C   0  0  0  0  0  0  0  0  0  0  0  0
    7.4848  -12.4858   17.6655 S   0  0  0  0  0  0  0  0  0  0  0  0
    8.2803  -14.2459   21.2692 C   0  0  0  0  0  0  0  0  0  0  0  0
    7.4388  -13.7897   22.0513 O   0  0  0  0  0  0  0  0  0  0  0  0
   11.5067  -19.7369   21.5947 N   0  0  0  0  0  0  0  0  0  0  0  0
   10.9594  -19.6655   22.9259 C   0  0  0  0  0  0  0  0  0  0  0  0
   11.1696  -20.6609   23.6501 O   0  0  0  0  0  0  0  0  0  0  0  0
   10.2185  -18.4531   23.3170 C   0  0  0  0  0  0  0  0  0  0  0  0
   10.1078  -17.4099   22.2539 C   0  0  0  0  0  0  0  0  0  0  0  0
    9.2748  -16.2161   22.6077 C   0  0  2  0  0  0  0  0  0  0  0  0
    9.0754  -15.3412   21.5111 N   0  0  0  0  0  0  0  0  0  0  0  0
    9.5955  -15.6168   23.9248 C   0  0  0  0  0  0  0  0  0  0  0  0
   10.7103  -15.1657   24.2330 O   0  0  0  0  0  0  0  0  0  0  0  0
    5.7332  -12.7418   26.6101 C   0  0  0  0  0  0  0  0  0  0  0  0
    7.0865  -13.1241   25.9541 C   0  0  1  0  0  0  0  0  0  0  0  0
    7.8390  -11.7970   25.8781 C   0  0  0  0  0  0  0  0  0  0  0  0
    7.7377  -14.1755   26.7665 C   0  0  0  0  0  0  0  0  0  0  0  0
    8.9247  -14.8874   26.2687 C   0  0  2  0  0  0  0  0  0  0  0  0
    8.6003  -15.5117   24.9619 N   0  0  0  0  0  0  0  0  0  0  0  0
    9.6096  -15.8483   27.1265 C   0  0  0  0  0  0  0  0  0  0  0  0
   10.1745  -15.6158   28.2030 O   0  0  0  0  0  0  0  0  0  0  0  0
    9.6511  -17.1909   26.7109 O   0  0  0  0  0  0  0  0  0  0  0  0
  2  1  1  6
  2  3  1  0
  3  4  1  0
  5  2  1  0
  6  5  2  0
  7  8  1  0
  8 10  1  0
  9  8  2  0
 10 11  1  0
 12 11  1  6
 12 13  1  0
 13  5  1  0
 14 21  1  0
 14 12  1  0
 15 14  2  0
 17 16  1  1
 18 17  1  0
 20 19  1  1
 19 17  1  0
 20 22  1  0
 20 21  1  0
 22 24  1  0
 23 22  2  0
M  END
$$$$
