CQL.pdb
     RDKit          3D

 24 23  0  0  1  0  0  0  0  0999 V2000
    7.3794  -16.0780   18.9187 N   0  0  0  0  0  0  0  0  0  0  0  0
    7.8139  -15.3010   20.0374 C   0  0  1  0  0  0  0  0  0  0  0  0
    6.7261  -14.3629   20.4634 C   0  0  0  0  0  0  0  0  0  0  0  0
    5.3128  -15.4344   20.9617 S   0  0  0  0  0  0  0  0  0  0  0  0
    8.2678  -16.2157   21.1592 C   0  0  0  0  0  0  0  0  0  0  0  0
    7.5722  -17.2230   21.3304 O   0  0  0  0  0  0  0  0  0  0  0  0
   13.8432  -18.2010   21.9357 N   0  0  0  0  0  0  0  0  0  0  0  0
   13.3489  -18.4604   23.2642 C   0  0  0  0  0  0  0  0  0  0  0  0
   14.0779  -19.1776   23.9810 O   0  0  0  0  0  0  0  0  0  0  0  0
   12.0582  -17.8703   23.6615 C   0  0  0  0  0  0  0  0  0  0  0  0
   11.3925  -17.0420   22.6120 C   0  0  0  0  0  0  0  0  0  0  0  0
   10.0652  -16.4626   22.9951 C   0  0  2  0  0  0  0  0  0  0  0  0
    9.3802  -15.8860   21.8969 N   0  0  0  0  0  0  0  0  0  0  0  0
   10.0709  -15.7196   24.2776 C   0  0  0  0  0  0  0  0  0  0  0  0
   10.9811  -14.9558   24.6371 O   0  0  0  0  0  0  0  0  0  0  0  0
    6.2086  -12.7267   26.2646 C   0  0  0  0  0  0  0  0  0  0  0  0
    7.6134  -13.2843   25.9125 C   0  0  1  0  0  0  0  0  0  0  0  0
    8.5240  -12.0625   26.0178 C   0  0  0  0  0  0  0  0  0  0  0  0
    7.9369  -14.3964   26.8335 C   0  0  0  0  0  0  0  0  0  0  0  0
    9.0923  -15.2716   26.5836 C   0  0  2  0  0  0  0  0  0  0  0  0
    8.9830  -15.8365   25.2155 N   0  0  0  0  0  0  0  0  0  0  0  0
    9.4258  -16.3256   27.5355 C   0  0  0  0  0  0  0  0  0  0  0  0
    9.3804  -17.5471   27.3407 O   0  0  0  0  0  0  0  0  0  0  0  0
    9.8451  -15.9437   28.8221 O   0  0  0  0  0  0  0  0  0  0  0  0
  2  1  1  6
  2  3  1  0
  3  4  1  0
  5  2  1  0
  6  5  2  0
  7  8  1  0
  8 10  1  0
  9  8  2  0
 10 11  1  0
 12 11  1  6
 12 13  1  0
 13  5  1  0
 14 21  1  0
 14 12  1  0
 15 14  2  0
 17 16  1  1
 18 17  1  0
 20 19  1  1
 19 17  1  0
 20 22  1  0
 20 21  1  0
 22 24  1  0
 23 22  2  0
M  END
$$$$
