CQL.pdb
     RDKit          3D

 24 23  0  0  1  0  0  0  0  0999 V2000
    6.9684  -18.2497   21.1280 N   0  0  0  0  0  0  0  0  0  0  0  0
    8.2847  -18.4165   20.5953 C   0  0  1  0  0  0  0  0  0  0  0  0
    8.2078  -18.7915   19.1468 C   0  0  0  0  0  0  0  0  0  0  0  0
    7.1940  -20.3286   19.0847 S   0  0  0  0  0  0  0  0  0  0  0  0
    9.1022  -17.1605   20.8302 C   0  0  0  0  0  0  0  0  0  0  0  0
   10.3043  -17.2571   20.5590 O   0  0  0  0  0  0  0  0  0  0  0  0
    9.4089  -12.4519   18.7671 N   0  0  0  0  0  0  0  0  0  0  0  0
    8.3095  -13.3515   18.5252 C   0  0  0  0  0  0  0  0  0  0  0  0
    7.9990  -13.5145   17.3266 O   0  0  0  0  0  0  0  0  0  0  0  0
    7.6593  -13.9935   19.6814 C   0  0  0  0  0  0  0  0  0  0  0  0
    8.2372  -13.6346   21.0110 C   0  0  0  0  0  0  0  0  0  0  0  0
    8.9253  -14.7502   21.7363 C   0  0  2  0  0  0  0  0  0  0  0  0
    8.4877  -16.0306   21.3161 N   0  0  0  0  0  0  0  0  0  0  0  0
    9.0982  -14.5179   23.1899 C   0  0  0  0  0  0  0  0  0  0  0  0
    9.8764  -13.6810   23.6748 O   0  0  0  0  0  0  0  0  0  0  0  0
    5.5584  -12.8428   26.4785 C   0  0  0  0  0  0  0  0  0  0  0  0
    6.9727  -13.1046   25.8958 C   0  0  1  0  0  0  0  0  0  0  0  0
    7.8296  -12.0041   26.5186 C   0  0  0  0  0  0  0  0  0  0  0  0
    7.3822  -14.4881   26.2239 C   0  0  0  0  0  0  0  0  0  0  0  0
    8.5818  -15.0844   25.6165 C   0  0  2  0  0  0  0  0  0  0  0  0
    8.3458  -15.2690   24.1629 N   0  0  0  0  0  0  0  0  0  0  0  0
    9.1609  -16.2955   26.1875 C   0  0  0  0  0  0  0  0  0  0  0  0
    9.4307  -17.3456   25.5903 O   0  0  0  0  0  0  0  0  0  0  0  0
    9.4529  -16.3018   27.5629 O   0  0  0  0  0  0  0  0  0  0  0  0
  2  1  1  6
  2  3  1  0
  3  4  1  0
  5  2  1  0
  6  5  2  0
  7  8  1  0
  8 10  1  0
  9  8  2  0
 10 11  1  0
 12 11  1  1
 12 13  1  0
 13  5  1  0
 14 21  1  0
 14 12  1  0
 15 14  2  0
 17 16  1  1
 18 17  1  0
 20 19  1  1
 19 17  1  0
 20 22  1  0
 20 21  1  0
 22 24  1  0
 23 22  2  0
M  END
$$$$
