CQL.pdb
     RDKit          3D

 24 23  0  0  1  0  0  0  0  0999 V2000
    6.2127  -20.3987   23.1193 N   0  0  0  0  0  0  0  0  0  0  0  0
    5.9847  -18.9896   23.2000 C   0  0  1  0  0  0  0  0  0  0  0  0
    5.4481  -18.6338   24.5528 C   0  0  0  0  0  0  0  0  0  0  0  0
    6.8881  -18.7256   25.6983 S   0  0  0  0  0  0  0  0  0  0  0  0
    7.2581  -18.2380   22.8613 C   0  0  0  0  0  0  0  0  0  0  0  0
    8.3072  -18.8462   23.1006 O   0  0  0  0  0  0  0  0  0  0  0  0
    6.6769  -13.2050   19.0420 N   0  0  0  0  0  0  0  0  0  0  0  0
    8.0644  -13.1028   19.4173 C   0  0  0  0  0  0  0  0  0  0  0  0
    8.7231  -12.2281   18.8168 O   0  0  0  0  0  0  0  0  0  0  0  0
    8.5804  -14.0124   20.4557 C   0  0  0  0  0  0  0  0  0  0  0  0
    7.5832  -14.9834   20.9973 C   0  0  0  0  0  0  0  0  0  0  0  0
    8.1153  -15.9607   22.0002 C   0  0  2  0  0  0  0  0  0  0  0  0
    7.1794  -16.9714   22.3321 N   0  0  0  0  0  0  0  0  0  0  0  0
    8.8903  -15.3431   23.1024 C   0  0  0  0  0  0  0  0  0  0  0  0
    9.9414  -14.7022   22.9421 O   0  0  0  0  0  0  0  0  0  0  0  0
    7.0769  -12.2354   27.3114 C   0  0  0  0  0  0  0  0  0  0  0  0
    7.2308  -13.4232   26.3247 C   0  0  1  0  0  0  0  0  0  0  0  0
    6.2437  -13.0943   25.2063 C   0  0  0  0  0  0  0  0  0  0  0  0
    8.6472  -13.5262   25.9090 C   0  0  0  0  0  0  0  0  0  0  0  0
    9.2415  -14.8281   25.5696 C   0  0  2  0  0  0  0  0  0  0  0  0
    8.4559  -15.4461   24.4726 N   0  0  0  0  0  0  0  0  0  0  0  0
    9.4928  -15.8090   26.6198 C   0  0  0  0  0  0  0  0  0  0  0  0
    9.0644  -16.9691   26.6737 O   0  0  0  0  0  0  0  0  0  0  0  0
   10.3035  -15.4235   27.7020 O   0  0  0  0  0  0  0  0  0  0  0  0
  2  1  1  1
  2  3  1  0
  3  4  1  0
  5  2  1  0
  6  5  2  0
  7  8  1  0
  8 10  1  0
  9  8  2  0
 10 11  1  0
 12 11  1  1
 12 13  1  0
 13  5  1  0
 14 21  1  0
 14 12  1  0
 15 14  2  0
 17 16  1  1
 18 17  1  0
 20 19  1  1
 19 17  1  0
 20 22  1  0
 20 21  1  0
 22 24  1  0
 23 22  2  0
M  END
$$$$
