CQL.pdb
     RDKit          3D

 24 23  0  0  1  0  0  0  0  0999 V2000
    9.0921  -16.5334   19.9647 N   0  0  0  0  0  0  0  0  0  0  0  0
    8.5562  -15.2859   20.4126 C   0  0  1  0  0  0  0  0  0  0  0  0
    7.9697  -14.5351   19.2562 C   0  0  0  0  0  0  0  0  0  0  0  0
    7.7976  -12.7932   19.8308 S   0  0  0  0  0  0  0  0  0  0  0  0
    7.5518  -15.5222   21.5244 C   0  0  0  0  0  0  0  0  0  0  0  0
    6.5600  -14.7848   21.5027 O   0  0  0  0  0  0  0  0  0  0  0  0
    8.4926  -20.1363   25.4396 N   0  0  0  0  0  0  0  0  0  0  0  0
    7.1239  -19.8604   25.7962 C   0  0  0  0  0  0  0  0  0  0  0  0
    6.7146  -20.4163   26.8369 O   0  0  0  0  0  0  0  0  0  0  0  0
    6.3387  -18.9641   24.9290 C   0  0  0  0  0  0  0  0  0  0  0  0
    7.0707  -18.4348   23.7397 C   0  0  0  0  0  0  0  0  0  0  0  0
    7.1451  -16.9418   23.6414 C   0  0  2  0  0  0  0  0  0  0  0  0
    7.7913  -16.5008   22.4600 N   0  0  0  0  0  0  0  0  0  0  0  0
    7.4856  -16.2627   24.9141 C   0  0  0  0  0  0  0  0  0  0  0  0
    6.8523  -16.4056   25.9721 O   0  0  0  0  0  0  0  0  0  0  0  0
    5.8060  -12.1967   26.2888 C   0  0  0  0  0  0  0  0  0  0  0  0
    7.0697  -12.8297   25.6481 C   0  0  1  0  0  0  0  0  0  0  0  0
    7.9692  -11.6291   25.3605 C   0  0  0  0  0  0  0  0  0  0  0  0
    7.6320  -13.8338   26.5782 C   0  0  0  0  0  0  0  0  0  0  0  0
    8.8557  -14.5758   26.2382 C   0  0  2  0  0  0  0  0  0  0  0  0
    8.6127  -15.3694   25.0078 N   0  0  0  0  0  0  0  0  0  0  0  0
    9.5087  -15.4031   27.2469 C   0  0  0  0  0  0  0  0  0  0  0  0
   10.1153  -15.0119   28.2524 O   0  0  0  0  0  0  0  0  0  0  0  0
    9.4630  -16.7991   27.0854 O   0  0  0  0  0  0  0  0  0  0  0  0
  2  1  1  6
  2  3  1  0
  3  4  1  0
  5  2  1  0
  6  5  2  0
  7  8  1  0
  8 10  1  0
  9  8  2  0
 10 11  1  0
 12 11  1  1
 12 13  1  0
 13  5  1  0
 14 21  1  0
 14 12  1  0
 15 14  2  0
 17 16  1  1
 18 17  1  0
 20 19  1  1
 19 17  1  0
 20 22  1  0
 20 21  1  0
 22 24  1  0
 23 22  2  0
M  END
$$$$
