CQL.pdb
     RDKit          3D

 24 23  0  0  1  0  0  0  0  0999 V2000
    5.7296  -19.2406   20.9205 N   0  0  0  0  0  0  0  0  0  0  0  0
    5.6688  -18.0448   21.7019 C   0  0  1  0  0  0  0  0  0  0  0  0
    4.8391  -18.2752   22.9279 C   0  0  0  0  0  0  0  0  0  0  0  0
    3.0877  -18.2309   22.3580 S   0  0  0  0  0  0  0  0  0  0  0  0
    7.0709  -17.5664   22.0277 C   0  0  0  0  0  0  0  0  0  0  0  0
    7.7623  -18.3636   22.6714 O   0  0  0  0  0  0  0  0  0  0  0  0
    8.9461  -12.2152   19.1239 N   0  0  0  0  0  0  0  0  0  0  0  0
    8.2846  -13.4047   18.6506 C   0  0  0  0  0  0  0  0  0  0  0  0
    7.8825  -13.3649   17.4689 O   0  0  0  0  0  0  0  0  0  0  0  0
    8.1432  -14.5448   19.5737 C   0  0  0  0  0  0  0  0  0  0  0  0
    8.6718  -14.3118   20.9510 C   0  0  0  0  0  0  0  0  0  0  0  0
    8.5901  -15.4851   21.8789 C   0  0  2  0  0  0  0  0  0  0  0  0
    7.4784  -16.3214   21.6103 N   0  0  0  0  0  0  0  0  0  0  0  0
    8.8930  -15.1659   23.2943 C   0  0  0  0  0  0  0  0  0  0  0  0
    9.9194  -14.5790   23.6727 O   0  0  0  0  0  0  0  0  0  0  0  0
    5.8603  -12.4449   26.6220 C   0  0  0  0  0  0  0  0  0  0  0  0
    7.1336  -13.0264   25.9522 C   0  0  1  0  0  0  0  0  0  0  0  0
    8.2394  -12.0638   26.3812 C   0  0  0  0  0  0  0  0  0  0  0  0
    7.3113  -14.4293   26.3877 C   0  0  0  0  0  0  0  0  0  0  0  0
    8.3383  -15.2857   25.7750 C   0  0  2  0  0  0  0  0  0  0  0  0
    7.9835  -15.5232   24.3536 N   0  0  0  0  0  0  0  0  0  0  0  0
    8.7137  -16.5422   26.4141 C   0  0  0  0  0  0  0  0  0  0  0  0
    8.5552  -17.6839   25.9632 O   0  0  0  0  0  0  0  0  0  0  0  0
    9.3212  -16.4820   27.6807 O   0  0  0  0  0  0  0  0  0  0  0  0
  2  1  1  1
  2  3  1  0
  3  4  1  0
  5  2  1  0
  6  5  2  0
  7  8  1  0
  8 10  1  0
  9  8  2  0
 10 11  1  0
 12 11  1  6
 12 13  1  0
 13  5  1  0
 14 21  1  0
 14 12  1  0
 15 14  2  0
 17 16  1  1
 18 17  1  0
 20 19  1  1
 19 17  1  0
 20 22  1  0
 20 21  1  0
 22 24  1  0
 23 22  2  0
M  END
$$$$
