CQL.pdb
     RDKit          3D

 24 23  0  0  1  0  0  0  0  0999 V2000
    6.2940  -18.8223   19.1477 N   0  0  0  0  0  0  0  0  0  0  0  0
    7.3652  -18.6460   20.0780 C   0  0  1  0  0  0  0  0  0  0  0  0
    8.4461  -17.8105   19.4628 C   0  0  0  0  0  0  0  0  0  0  0  0
    7.7603  -16.1033   19.3666 S   0  0  0  0  0  0  0  0  0  0  0  0
    6.8367  -18.0559   21.3716 C   0  0  0  0  0  0  0  0  0  0  0  0
    5.9835  -17.1718   21.2365 O   0  0  0  0  0  0  0  0  0  0  0  0
    7.8272  -21.3109   26.7401 N   0  0  0  0  0  0  0  0  0  0  0  0
    7.2622  -20.0861   27.2473 C   0  0  0  0  0  0  0  0  0  0  0  0
    6.9643  -20.0905   28.4600 O   0  0  0  0  0  0  0  0  0  0  0  0
    7.0898  -18.9545   26.3191 C   0  0  0  0  0  0  0  0  0  0  0  0
    7.3450  -19.2715   24.8821 C   0  0  0  0  0  0  0  0  0  0  0  0
    7.1717  -18.1280   23.9299 C   0  0  2  0  0  0  0  0  0  0  0  0
    7.3187  -18.5148   22.5747 N   0  0  0  0  0  0  0  0  0  0  0  0
    7.8177  -16.8673   24.3662 C   0  0  0  0  0  0  0  0  0  0  0  0
    8.9906  -16.5572   24.1032 O   0  0  0  0  0  0  0  0  0  0  0  0
    7.2988  -11.4213   25.2544 C   0  0  0  0  0  0  0  0  0  0  0  0
    7.0052  -12.3245   26.4816 C   0  0  1  0  0  0  0  0  0  0  0  0
    5.8819  -11.5897   27.2106 C   0  0  0  0  0  0  0  0  0  0  0  0
    6.6695  -13.6864   26.0103 C   0  0  0  0  0  0  0  0  0  0  0  0
    7.7061  -14.5699   25.4548 C   0  0  2  0  0  0  0  0  0  0  0  0
    7.1003  -15.8885   25.1435 N   0  0  0  0  0  0  0  0  0  0  0  0
    8.9648  -14.7531   26.1690 C   0  0  0  0  0  0  0  0  0  0  0  0
   10.0094  -14.1071   26.0155 O   0  0  0  0  0  0  0  0  0  0  0  0
    9.0300  -15.7669   27.1411 O   0  0  0  0  0  0  0  0  0  0  0  0
  2  1  1  6
  2  3  1  0
  3  4  1  0
  5  2  1  0
  6  5  2  0
  7  8  1  0
  8 10  1  0
  9  8  2  0
 10 11  1  0
 12 11  1  1
 12 13  1  0
 13  5  1  0
 14 21  1  0
 14 12  1  0
 15 14  2  0
 17 16  1  6
 18 17  1  0
 20 19  1  1
 19 17  1  0
 20 22  1  0
 20 21  1  0
 22 24  1  0
 23 22  2  0
M  END
$$$$
