GSR.pdb
     RDKit          3D

 22 21  0  0  1  0  0  0  0  0999 V2000
   12.6856  -17.6780   16.3226 N   0  0  0  0  0  0  0  0  0  0  0  0
   13.5052  -18.1211   17.4253 C   0  0  0  0  0  0  0  0  0  0  0  0
   12.6125  -18.1779   18.6459 C   0  0  0  0  0  0  0  0  0  0  0  0
   11.5281  -17.5437   18.6626 O   0  0  0  0  0  0  0  0  0  0  0  0
   13.9583  -20.2142   21.8947 O   0  0  0  0  0  0  0  0  0  0  0  0
   12.5596  -20.3025   21.7400 C   0  0  0  0  0  0  0  0  0  0  0  0
   12.1226  -19.1065   20.9293 C   0  0  2  0  0  0  0  0  0  0  0  0
   12.9770  -18.9377   19.7800 N   0  0  0  0  0  0  0  0  0  0  0  0
   12.0148  -17.8910   21.7621 C   0  0  0  0  0  0  0  0  0  0  0  0
   12.9972  -17.1108   21.8760 O   0  0  0  0  0  0  0  0  0  0  0  0
    7.5181  -12.6168   20.0137 N   0  0  0  0  0  0  0  0  0  0  0  0
    8.0318  -13.4651   18.9795 C   0  0  0  0  0  0  0  0  0  0  0  0
    7.6073  -13.2613   17.7909 N   0  0  0  0  0  0  0  0  0  0  0  0
    8.9612  -14.4652   19.3058 N   0  0  0  0  0  0  0  0  0  0  0  0
    9.4728  -14.4698   20.6980 C   0  0  0  0  0  0  0  0  0  0  0  0
    8.8993  -15.6360   21.4220 C   0  0  0  0  0  0  0  0  0  0  0  0
    9.3268  -15.8505   22.7964 C   0  0  0  0  0  0  0  0  0  0  0  0
   10.6900  -16.2572   23.1605 C   0  0  2  0  0  0  0  0  0  0  0  0
   10.8269  -17.5898   22.4346 N   0  0  0  0  0  0  0  0  0  0  0  0
   11.0741  -16.5667   24.5161 C   0  0  0  0  0  0  0  0  0  0  0  0
   11.0168  -17.7812   24.9279 O   0  0  0  0  0  0  0  0  0  0  0  0
   11.5258  -15.6554   25.4519 O   0  0  0  0  0  0  0  0  0  0  0  0
  1  2  1  0
  2  3  1  0
  3  4  2  0
  3  8  1  0
  5  6  1  0
  7  6  1  1
  7  9  1  0
  8  7  1  0
  9 10  2  0
  9 19  1  0
 11 12  1  0
 12 13  2  0
 12 14  1  0
 14 15  1  0
 15 16  1  0
 17 16  1  0
 18 17  1  1
 18 20  1  0
 19 18  1  0
 20 22  1  0
 21 20  2  0
M  END
$$$$
