GSR.pdb
     RDKit          3D

 22 21  0  0  1  0  0  0  0  0999 V2000
    8.4619  -13.2899   16.4177 N   0  0  0  0  0  0  0  0  0  0  0  0
    7.6089  -14.0038   17.3380 C   0  0  0  0  0  0  0  0  0  0  0  0
    8.3024  -13.9945   18.6830 C   0  0  0  0  0  0  0  0  0  0  0  0
    9.5144  -13.6737   18.7639 O   0  0  0  0  0  0  0  0  0  0  0  0
    6.5686  -15.7273   22.1101 O   0  0  0  0  0  0  0  0  0  0  0  0
    7.1561  -14.4524   22.2426 C   0  0  0  0  0  0  0  0  0  0  0  0
    8.2132  -14.3333   21.1717 C   0  0  2  0  0  0  0  0  0  0  0  0
    7.6077  -14.3428   19.8630 N   0  0  0  0  0  0  0  0  0  0  0  0
    9.2730  -15.3496   21.3337 C   0  0  0  0  0  0  0  0  0  0  0  0
    9.1975  -16.4481   20.7217 O   0  0  0  0  0  0  0  0  0  0  0  0
   15.7698  -14.6707   19.4756 N   0  0  0  0  0  0  0  0  0  0  0  0
   14.9222  -14.7540   18.3233 C   0  0  0  0  0  0  0  0  0  0  0  0
   15.4817  -15.0103   17.2027 N   0  0  0  0  0  0  0  0  0  0  0  0
   13.5402  -14.5548   18.4678 N   0  0  0  0  0  0  0  0  0  0  0  0
   13.0422  -14.3172   19.8446 C   0  0  0  0  0  0  0  0  0  0  0  0
   13.1309  -15.5846   20.6184 C   0  0  0  0  0  0  0  0  0  0  0  0
   12.6427  -15.5708   21.9893 C   0  0  0  0  0  0  0  0  0  0  0  0
   11.3905  -16.2165   22.4036 C   0  0  2  0  0  0  0  0  0  0  0  0
   10.3705  -15.1100   22.1656 N   0  0  0  0  0  0  0  0  0  0  0  0
   11.1385  -16.6252   23.7639 C   0  0  0  0  0  0  0  0  0  0  0  0
   10.3886  -15.9013   24.5131 O   0  0  0  0  0  0  0  0  0  0  0  0
   11.6326  -17.7676   24.3648 O   0  0  0  0  0  0  0  0  0  0  0  0
  1  2  1  0
  2  3  1  0
  3  4  2  0
  3  8  1  0
  5  6  1  0
  7  6  1  1
  7  9  1  0
  8  7  1  0
  9 10  2  0
  9 19  1  0
 11 12  1  0
 12 13  2  0
 12 14  1  0
 14 15  1  0
 15 16  1  0
 17 16  1  0
 18 17  1  1
 18 20  1  0
 19 18  1  0
 20 22  1  0
 21 20  2  0
M  END
$$$$
