GSR.pdb
     RDKit          3D

 22 21  0  0  1  0  0  0  0  0999 V2000
    6.3001  -18.1922   18.8224 N   0  0  0  0  0  0  0  0  0  0  0  0
    6.1730  -16.8320   19.2891 C   0  0  0  0  0  0  0  0  0  0  0  0
    7.4958  -16.1469   19.0228 C   0  0  0  0  0  0  0  0  0  0  0  0
    8.4955  -16.8228   18.6734 O   0  0  0  0  0  0  0  0  0  0  0  0
    7.7674  -12.4274   17.6156 O   0  0  0  0  0  0  0  0  0  0  0  0
    8.6072  -12.5679   18.7395 C   0  0  0  0  0  0  0  0  0  0  0  0
    8.8676  -14.0435   18.9220 C   0  0  2  0  0  0  0  0  0  0  0  0
    7.6318  -14.7473   19.1604 N   0  0  0  0  0  0  0  0  0  0  0  0
    9.8928  -14.2944   19.9556 C   0  0  0  0  0  0  0  0  0  0  0  0
    9.5777  -14.2932   21.1753 O   0  0  0  0  0  0  0  0  0  0  0  0
   13.9379  -18.7806   24.3674 N   0  0  0  0  0  0  0  0  0  0  0  0
   13.0883  -19.6359   23.5930 C   0  0  0  0  0  0  0  0  0  0  0  0
   13.5828  -20.7447   23.1923 N   0  0  0  0  0  0  0  0  0  0  0  0
   11.7742  -19.2306   23.3110 N   0  0  0  0  0  0  0  0  0  0  0  0
   11.5343  -18.6319   21.9753 C   0  0  0  0  0  0  0  0  0  0  0  0
   11.9462  -17.2027   22.0030 C   0  0  0  0  0  0  0  0  0  0  0  0
   11.8433  -16.4493   20.7622 C   0  0  0  0  0  0  0  0  0  0  0  0
   12.2069  -15.0310   20.6501 C   0  0  2  0  0  0  0  0  0  0  0  0
   11.2227  -14.5345   19.5983 N   0  0  0  0  0  0  0  0  0  0  0  0
   13.4879  -14.5929   20.1516 C   0  0  0  0  0  0  0  0  0  0  0  0
   13.6631  -14.4622   18.8868 O   0  0  0  0  0  0  0  0  0  0  0  0
   14.5870  -14.2762   20.9275 O   0  0  0  0  0  0  0  0  0  0  0  0
  1  2  1  0
  2  3  1  0
  3  4  2  0
  3  8  1  0
  5  6  1  0
  7  6  1  1
  7  9  1  0
  8  7  1  0
  9 10  2  0
  9 19  1  0
 11 12  1  0
 12 13  2  0
 12 14  1  0
 14 15  1  0
 15 16  1  0
 17 16  1  0
 18 17  1  6
 18 20  1  0
 19 18  1  0
 20 22  1  0
 21 20  2  0
M  END
$$$$
