GSR.pdb
     RDKit          3D

 22 21  0  0  1  0  0  0  0  0999 V2000
    7.0742  -19.3466   20.7557 N   0  0  0  0  0  0  0  0  0  0  0  0
    6.3968  -19.0933   22.0052 C   0  0  0  0  0  0  0  0  0  0  0  0
    7.4357  -18.5726   22.9746 C   0  0  0  0  0  0  0  0  0  0  0  0
    8.6580  -18.6810   22.7053 O   0  0  0  0  0  0  0  0  0  0  0  0
    6.1940  -16.2863   26.0605 O   0  0  0  0  0  0  0  0  0  0  0  0
    7.5654  -16.1769   25.7513 C   0  0  0  0  0  0  0  0  0  0  0  0
    8.0019  -17.5029   25.1772 C   0  0  2  0  0  0  0  0  0  0  0  0
    7.0556  -17.9604   24.1899 N   0  0  0  0  0  0  0  0  0  0  0  0
    8.2684  -18.4968   26.2372 C   0  0  0  0  0  0  0  0  0  0  0  0
    7.3259  -19.1821   26.7158 O   0  0  0  0  0  0  0  0  0  0  0  0
   11.1662  -25.6365   25.5838 N   0  0  0  0  0  0  0  0  0  0  0  0
   10.2741  -24.9929   24.6657 C   0  0  0  0  0  0  0  0  0  0  0  0
    9.7863  -25.7082   23.7251 N   0  0  0  0  0  0  0  0  0  0  0  0
    9.9777  -23.6309   24.8321 N   0  0  0  0  0  0  0  0  0  0  0  0
   10.5005  -22.9809   26.0585 C   0  0  0  0  0  0  0  0  0  0  0  0
   10.2149  -21.5224   25.9942 C   0  0  0  0  0  0  0  0  0  0  0  0
   10.6763  -20.6975   27.1008 C   0  0  0  0  0  0  0  0  0  0  0  0
    9.8143  -19.7378   27.8025 C   0  0  2  0  0  0  0  0  0  0  0  0
    9.5642  -18.6906   26.7244 N   0  0  0  0  0  0  0  0  0  0  0  0
   10.2696  -18.9629   28.9309 C   0  0  0  0  0  0  0  0  0  0  0  0
   10.6503  -17.7500   28.7528 O   0  0  0  0  0  0  0  0  0  0  0  0
   10.3305  -19.4062   30.2386 O   0  0  0  0  0  0  0  0  0  0  0  0
  1  2  1  0
  2  3  1  0
  3  4  2  0
  3  8  1  0
  5  6  1  0
  7  6  1  1
  7  9  1  0
  8  7  1  0
  9 10  2  0
  9 19  1  0
 11 12  1  0
 12 13  2  0
 12 14  1  0
 14 15  1  0
 15 16  1  0
 17 16  1  0
 18 17  1  6
 18 20  1  0
 19 18  1  0
 20 22  1  0
 21 20  2  0
M  END
$$$$
