GSR.pdb
     RDKit          3D

 22 21  0  0  1  0  0  0  0  0999 V2000
    7.8799  -13.8378   16.8832 N   0  0  0  0  0  0  0  0  0  0  0  0
    7.0806  -13.6247   18.0663 C   0  0  0  0  0  0  0  0  0  0  0  0
    7.9914  -13.8244   19.2582 C   0  0  0  0  0  0  0  0  0  0  0  0
    9.1698  -14.2260   19.0894 O   0  0  0  0  0  0  0  0  0  0  0  0
    6.5193  -13.4636   23.1745 O   0  0  0  0  0  0  0  0  0  0  0  0
    7.8039  -12.9500   22.9017 C   0  0  0  0  0  0  0  0  0  0  0  0
    8.3638  -13.7377   21.7421 C   0  0  2  0  0  0  0  0  0  0  0  0
    7.5393  -13.5659   20.5716 N   0  0  0  0  0  0  0  0  0  0  0  0
    8.5854  -15.1540   22.0991 C   0  0  0  0  0  0  0  0  0  0  0  0
    7.7082  -16.0192   21.8369 O   0  0  0  0  0  0  0  0  0  0  0  0
   14.5717  -17.8169   20.4232 N   0  0  0  0  0  0  0  0  0  0  0  0
   14.4594  -19.2436   20.4937 C   0  0  0  0  0  0  0  0  0  0  0  0
   15.5461  -19.9133   20.5651 N   0  0  0  0  0  0  0  0  0  0  0  0
   13.1872  -19.8367   20.4819 N   0  0  0  0  0  0  0  0  0  0  0  0
   12.0273  -18.9218   20.3495 C   0  0  0  0  0  0  0  0  0  0  0  0
   11.6716  -18.3913   21.6930 C   0  0  0  0  0  0  0  0  0  0  0  0
   10.4836  -17.5569   21.7934 C   0  0  0  0  0  0  0  0  0  0  0  0
    9.9794  -17.0253   23.0661 C   0  0  2  0  0  0  0  0  0  0  0  0
    9.7660  -15.5543   22.7318 N   0  0  0  0  0  0  0  0  0  0  0  0
   10.7793  -16.9893   24.2661 C   0  0  0  0  0  0  0  0  0  0  0  0
   11.4062  -15.9129   24.5761 O   0  0  0  0  0  0  0  0  0  0  0  0
   10.9382  -18.0330   25.1581 O   0  0  0  0  0  0  0  0  0  0  0  0
  1  2  1  0
  2  3  1  0
  3  4  2  0
  3  8  1  0
  5  6  1  0
  7  6  1  1
  7  9  1  0
  8  7  1  0
  9 10  2  0
  9 19  1  0
 11 12  1  0
 12 13  2  0
 12 14  1  0
 14 15  1  0
 15 16  1  0
 17 16  1  0
 18 17  1  6
 18 20  1  0
 19 18  1  0
 20 22  1  0
 21 20  2  0
M  END
$$$$
