GSR.pdb
     RDKit          3D

 22 21  0  0  1  0  0  0  0  0999 V2000
   13.3726  -14.1114   18.8408 N   0  0  0  0  0  0  0  0  0  0  0  0
   12.0209  -14.5213   18.5427 C   0  0  0  0  0  0  0  0  0  0  0  0
   11.1596  -14.0901   19.7098 C   0  0  0  0  0  0  0  0  0  0  0  0
   11.6759  -13.9132   20.8415 O   0  0  0  0  0  0  0  0  0  0  0  0
    6.9558  -14.1670   19.3998 O   0  0  0  0  0  0  0  0  0  0  0  0
    7.5452  -13.1338   20.1572 C   0  0  0  0  0  0  0  0  0  0  0  0
    8.8740  -13.6471   20.6565 C   0  0  2  0  0  0  0  0  0  0  0  0
    9.7714  -13.8798   19.5520 N   0  0  0  0  0  0  0  0  0  0  0  0
    8.7108  -14.8229   21.5358 C   0  0  0  0  0  0  0  0  0  0  0  0
    8.9646  -15.9786   21.1034 O   0  0  0  0  0  0  0  0  0  0  0  0
   10.6741  -16.3303   30.3524 N   0  0  0  0  0  0  0  0  0  0  0  0
   10.2677  -15.2327   29.5260 C   0  0  0  0  0  0  0  0  0  0  0  0
    9.8820  -14.1667   30.1171 N   0  0  0  0  0  0  0  0  0  0  0  0
   10.3083  -15.3688   28.1295 N   0  0  0  0  0  0  0  0  0  0  0  0
    9.0728  -15.8604   27.4723 C   0  0  0  0  0  0  0  0  0  0  0  0
    9.3698  -16.1664   26.0472 C   0  0  0  0  0  0  0  0  0  0  0  0
    8.7209  -15.3474   25.0343 C   0  0  0  0  0  0  0  0  0  0  0  0
    8.2076  -15.8891   23.7696 C   0  0  2  0  0  0  0  0  0  0  0  0
    8.2730  -14.6725   22.8548 N   0  0  0  0  0  0  0  0  0  0  0  0
    6.8518  -16.3577   23.6168 C   0  0  0  0  0  0  0  0  0  0  0  0
    5.9397  -15.5401   23.2331 O   0  0  0  0  0  0  0  0  0  0  0  0
    6.4181  -17.6509   23.8398 O   0  0  0  0  0  0  0  0  0  0  0  0
  1  2  1  0
  2  3  1  0
  3  4  2  0
  3  8  1  0
  5  6  1  0
  7  6  1  6
  7  9  1  0
  8  7  1  0
  9 10  2  0
  9 19  1  0
 11 12  1  0
 12 13  2  0
 12 14  1  0
 14 15  1  0
 15 16  1  0
 17 16  1  0
 18 17  1  1
 18 20  1  0
 19 18  1  0
 20 22  1  0
 21 20  2  0
M  END
$$$$
