GSR.pdb
     RDKit          3D

 22 21  0  0  1  0  0  0  0  0999 V2000
    8.4955  -14.5338   14.4466 N   0  0  0  0  0  0  0  0  0  0  0  0
    7.5579  -14.3527   15.5294 C   0  0  0  0  0  0  0  0  0  0  0  0
    8.3687  -14.2279   16.8011 C   0  0  0  0  0  0  0  0  0  0  0  0
    9.5949  -14.5014   16.7952 O   0  0  0  0  0  0  0  0  0  0  0  0
    6.5091  -13.5786   20.5114 O   0  0  0  0  0  0  0  0  0  0  0  0
    7.6944  -12.8640   20.2418 C   0  0  0  0  0  0  0  0  0  0  0  0
    8.4911  -13.6767   19.2501 C   0  0  2  0  0  0  0  0  0  0  0  0
    7.7689  -13.8054   18.0086 N   0  0  0  0  0  0  0  0  0  0  0  0
    8.9131  -14.9731   19.8189 C   0  0  0  0  0  0  0  0  0  0  0  0
    8.2464  -16.0159   19.5845 O   0  0  0  0  0  0  0  0  0  0  0  0
   14.0430  -21.9510   18.7717 N   0  0  0  0  0  0  0  0  0  0  0  0
   13.6514  -20.5906   18.5509 C   0  0  0  0  0  0  0  0  0  0  0  0
   13.0478  -20.3258   17.4555 N   0  0  0  0  0  0  0  0  0  0  0  0
   13.9402  -19.6228   19.5259 N   0  0  0  0  0  0  0  0  0  0  0  0
   13.3663  -18.2717   19.3132 C   0  0  0  0  0  0  0  0  0  0  0  0
   12.3330  -18.0142   20.3519 C   0  0  0  0  0  0  0  0  0  0  0  0
   11.6234  -16.7450   20.2942 C   0  0  0  0  0  0  0  0  0  0  0  0
   10.4873  -16.4185   21.1654 C   0  0  2  0  0  0  0  0  0  0  0  0
   10.0528  -15.0624   20.6234 N   0  0  0  0  0  0  0  0  0  0  0  0
   10.6337  -16.1881   22.5820 C   0  0  0  0  0  0  0  0  0  0  0  0
   10.8488  -14.9972   23.0100 O   0  0  0  0  0  0  0  0  0  0  0  0
   10.5524  -17.1548   23.5664 O   0  0  0  0  0  0  0  0  0  0  0  0
  1  2  1  0
  2  3  1  0
  3  4  2  0
  3  8  1  0
  5  6  1  0
  7  6  1  1
  7  9  1  0
  8  7  1  0
  9 10  2  0
  9 19  1  0
 11 12  1  0
 12 13  2  0
 12 14  1  0
 14 15  1  0
 15 16  1  0
 17 16  1  0
 18 17  1  6
 18 20  1  0
 19 18  1  0
 20 22  1  0
 21 20  2  0
M  END
$$$$
