GSR.pdb
     RDKit          3D

 22 21  0  0  1  0  0  0  0  0999 V2000
   14.9134  -16.4561   16.5332 N   0  0  0  0  0  0  0  0  0  0  0  0
   15.7773  -16.8174   17.6320 C   0  0  0  0  0  0  0  0  0  0  0  0
   14.9271  -17.5640   18.6370 C   0  0  0  0  0  0  0  0  0  0  0  0
   13.6860  -17.6571   18.4655 O   0  0  0  0  0  0  0  0  0  0  0  0
   14.7927  -20.3249   22.6005 O   0  0  0  0  0  0  0  0  0  0  0  0
   15.6289  -19.5921   21.7333 C   0  0  0  0  0  0  0  0  0  0  0  0
   14.7338  -18.7831   20.8262 C   0  0  2  0  0  0  0  0  0  0  0  0
   15.5063  -18.1653   19.7769 N   0  0  0  0  0  0  0  0  0  0  0  0
   13.9074  -17.8237   21.5871 C   0  0  0  0  0  0  0  0  0  0  0  0
   14.3923  -16.7208   21.9550 O   0  0  0  0  0  0  0  0  0  0  0  0
    7.9424  -13.8647   18.3116 N   0  0  0  0  0  0  0  0  0  0  0  0
    7.9832  -13.1648   19.5612 C   0  0  0  0  0  0  0  0  0  0  0  0
    7.4092  -12.0235   19.6116 N   0  0  0  0  0  0  0  0  0  0  0  0
    8.6381  -13.7479   20.6573 N   0  0  0  0  0  0  0  0  0  0  0  0
    9.4116  -14.9849   20.3896 C   0  0  0  0  0  0  0  0  0  0  0  0
    9.9694  -15.4954   21.6707 C   0  0  0  0  0  0  0  0  0  0  0  0
   10.7457  -16.7254   21.6232 C   0  0  0  0  0  0  0  0  0  0  0  0
   11.7336  -17.0928   22.6456 C   0  0  2  0  0  0  0  0  0  0  0  0
   12.5810  -18.1238   21.9105 N   0  0  0  0  0  0  0  0  0  0  0  0
   11.3727  -17.7608   23.8723 C   0  0  0  0  0  0  0  0  0  0  0  0
   11.5019  -19.0349   23.9601 O   0  0  0  0  0  0  0  0  0  0  0  0
   10.8927  -17.1443   25.0124 O   0  0  0  0  0  0  0  0  0  0  0  0
  1  2  1  0
  2  3  1  0
  3  4  2  0
  3  8  1  0
  5  6  1  0
  7  6  1  1
  7  9  1  0
  8  7  1  0
  9 10  2  0
  9 19  1  0
 11 12  1  0
 12 13  2  0
 12 14  1  0
 14 15  1  0
 15 16  1  0
 17 16  1  0
 18 17  1  6
 18 20  1  0
 19 18  1  0
 20 22  1  0
 21 20  2  0
M  END
$$$$
