GSR.pdb
     RDKit          3D

 22 21  0  0  1  0  0  0  0  0999 V2000
    8.7046  -15.0372   14.2484 N   0  0  0  0  0  0  0  0  0  0  0  0
    7.7440  -14.6616   15.2585 C   0  0  0  0  0  0  0  0  0  0  0  0
    8.4947  -14.5632   16.5688 C   0  0  0  0  0  0  0  0  0  0  0  0
    9.6676  -15.0047   16.6569 O   0  0  0  0  0  0  0  0  0  0  0  0
    6.5283  -13.4264   20.0589 O   0  0  0  0  0  0  0  0  0  0  0  0
    7.8192  -12.8902   19.8733 C   0  0  0  0  0  0  0  0  0  0  0  0
    8.5733  -13.8400   18.9745 C   0  0  2  0  0  0  0  0  0  0  0  0
    7.8976  -13.9785   17.7081 N   0  0  0  0  0  0  0  0  0  0  0  0
    8.8370  -15.1314   19.6416 C   0  0  0  0  0  0  0  0  0  0  0  0
    8.1038  -16.1284   19.4064 O   0  0  0  0  0  0  0  0  0  0  0  0
   14.9243  -18.6386   20.7019 N   0  0  0  0  0  0  0  0  0  0  0  0
   14.5053  -19.9998   20.5449 C   0  0  0  0  0  0  0  0  0  0  0  0
   15.2863  -20.9078   20.9923 N   0  0  0  0  0  0  0  0  0  0  0  0
   13.2795  -20.2764   19.9192 N   0  0  0  0  0  0  0  0  0  0  0  0
   12.5211  -19.1134   19.3974 C   0  0  0  0  0  0  0  0  0  0  0  0
   11.8233  -18.4425   20.5269 C   0  0  0  0  0  0  0  0  0  0  0  0
   10.9830  -17.2967   20.2127 C   0  0  0  0  0  0  0  0  0  0  0  0
   10.1515  -16.6115   21.2104 C   0  0  2  0  0  0  0  0  0  0  0  0
    9.8985  -15.2664   20.5411 N   0  0  0  0  0  0  0  0  0  0  0  0
   10.6419  -16.2538   22.5192 C   0  0  0  0  0  0  0  0  0  0  0  0
   10.5929  -17.1148   23.4699 O   0  0  0  0  0  0  0  0  0  0  0  0
   11.1911  -15.0339   22.8662 O   0  0  0  0  0  0  0  0  0  0  0  0
  1  2  1  0
  2  3  1  0
  3  4  2  0
  3  8  1  0
  5  6  1  0
  7  6  1  1
  7  9  1  0
  8  7  1  0
  9 10  2  0
  9 19  1  0
 11 12  1  0
 12 13  2  0
 12 14  1  0
 14 15  1  0
 15 16  1  0
 17 16  1  0
 18 17  1  6
 18 20  1  0
 19 18  1  0
 20 22  1  0
 21 20  2  0
M  END
$$$$
