GSR.pdb
     RDKit          3D

 22 21  0  0  1  0  0  0  0  0999 V2000
    9.8230  -16.1453   14.9462 N   0  0  0  0  0  0  0  0  0  0  0  0
    8.6647  -15.6140   15.6243 C   0  0  0  0  0  0  0  0  0  0  0  0
    9.1201  -15.1702   16.9976 C   0  0  0  0  0  0  0  0  0  0  0  0
   10.2357  -15.5410   17.4409 O   0  0  0  0  0  0  0  0  0  0  0  0
    6.5246  -13.0027   19.3571 O   0  0  0  0  0  0  0  0  0  0  0  0
    7.8874  -12.6776   19.5163 C   0  0  0  0  0  0  0  0  0  0  0  0
    8.6871  -13.8947   19.1193 C   0  0  2  0  0  0  0  0  0  0  0  0
    8.3081  -14.3384   17.8006 N   0  0  0  0  0  0  0  0  0  0  0  0
    8.6067  -14.9591   20.1406 C   0  0  0  0  0  0  0  0  0  0  0  0
    7.7359  -15.8645   20.0462 O   0  0  0  0  0  0  0  0  0  0  0  0
   14.4184  -19.0105   23.5551 N   0  0  0  0  0  0  0  0  0  0  0  0
   13.5680  -20.1344   23.2966 C   0  0  0  0  0  0  0  0  0  0  0  0
   14.1126  -21.2911   23.2908 N   0  0  0  0  0  0  0  0  0  0  0  0
   12.1995  -19.9249   23.0648 N   0  0  0  0  0  0  0  0  0  0  0  0
   11.8387  -18.7690   22.2083 C   0  0  0  0  0  0  0  0  0  0  0  0
   11.2656  -17.6931   23.0610 C   0  0  0  0  0  0  0  0  0  0  0  0
   10.8263  -16.4735   22.3999 C   0  0  0  0  0  0  0  0  0  0  0  0
    9.4126  -16.1100   22.2397 C   0  0  2  0  0  0  0  0  0  0  0  0
    9.4905  -14.9774   21.2235 N   0  0  0  0  0  0  0  0  0  0  0  0
    8.6260  -15.5516   23.3124 C   0  0  0  0  0  0  0  0  0  0  0  0
    8.5850  -14.2783   23.4698 O   0  0  0  0  0  0  0  0  0  0  0  0
    7.8731  -16.2748   24.2180 O   0  0  0  0  0  0  0  0  0  0  0  0
  1  2  1  0
  2  3  1  0
  3  4  2  0
  3  8  1  0
  5  6  1  0
  7  6  1  1
  7  9  1  0
  8  7  1  0
  9 10  2  0
  9 19  1  0
 11 12  1  0
 12 13  2  0
 12 14  1  0
 14 15  1  0
 15 16  1  0
 17 16  1  0
 18 17  1  1
 18 20  1  0
 19 18  1  0
 20 22  1  0
 21 20  2  0
M  END
$$$$
