GSR.pdb
     RDKit          3D

 22 21  0  0  1  0  0  0  0  0999 V2000
    7.3873  -13.5237   19.4751 N   0  0  0  0  0  0  0  0  0  0  0  0
    6.5941  -13.6221   20.6774 C   0  0  0  0  0  0  0  0  0  0  0  0
    7.5582  -13.7937   21.8312 C   0  0  0  0  0  0  0  0  0  0  0  0
    8.7859  -13.9411   21.6090 O   0  0  0  0  0  0  0  0  0  0  0  0
    6.1618  -13.5711   25.7483 O   0  0  0  0  0  0  0  0  0  0  0  0
    7.4872  -13.1717   25.4803 C   0  0  0  0  0  0  0  0  0  0  0  0
    7.9700  -13.9840   24.3031 C   0  0  2  0  0  0  0  0  0  0  0  0
    7.1014  -13.7918   23.1683 N   0  0  0  0  0  0  0  0  0  0  0  0
    8.1607  -15.4048   24.6603 C   0  0  0  0  0  0  0  0  0  0  0  0
    7.1839  -16.2001   24.6423 O   0  0  0  0  0  0  0  0  0  0  0  0
   10.1553  -16.9181   19.9952 N   0  0  0  0  0  0  0  0  0  0  0  0
   10.9717  -18.0889   20.1219 C   0  0  0  0  0  0  0  0  0  0  0  0
   11.9367  -18.2217   19.2940 N   0  0  0  0  0  0  0  0  0  0  0  0
   10.6851  -19.0238   21.1290 N   0  0  0  0  0  0  0  0  0  0  0  0
    9.6268  -18.6532   22.0998 C   0  0  0  0  0  0  0  0  0  0  0  0
   10.1439  -17.5858   22.9978 C   0  0  0  0  0  0  0  0  0  0  0  0
   10.3476  -17.9256   24.3981 C   0  0  0  0  0  0  0  0  0  0  0  0
    9.5705  -17.3287   25.4917 C   0  0  2  0  0  0  0  0  0  0  0  0
    9.4217  -15.8865   25.0234 N   0  0  0  0  0  0  0  0  0  0  0  0
   10.0860  -17.1998   26.8329 C   0  0  0  0  0  0  0  0  0  0  0  0
   10.4508  -16.0463   27.2619 O   0  0  0  0  0  0  0  0  0  0  0  0
   10.2232  -18.2300   27.7440 O   0  0  0  0  0  0  0  0  0  0  0  0
  1  2  1  0
  2  3  1  0
  3  4  2  0
  3  8  1  0
  5  6  1  0
  7  6  1  1
  7  9  1  0
  8  7  1  0
  9 10  2  0
  9 19  1  0
 11 12  1  0
 12 13  2  0
 12 14  1  0
 14 15  1  0
 15 16  1  0
 17 16  1  0
 18 17  1  6
 18 20  1  0
 19 18  1  0
 20 22  1  0
 21 20  2  0
M  END
$$$$
