GSR.pdb
     RDKit          3D

 22 21  0  0  1  0  0  0  0  0999 V2000
    8.9405  -20.1389   16.7595 N   0  0  0  0  0  0  0  0  0  0  0  0
   10.1897  -20.0997   17.4821 C   0  0  0  0  0  0  0  0  0  0  0  0
    9.8613  -19.7421   18.9154 C   0  0  0  0  0  0  0  0  0  0  0  0
    9.1459  -18.7402   19.1660 O   0  0  0  0  0  0  0  0  0  0  0  0
   11.8651  -21.6982   21.9289 O   0  0  0  0  0  0  0  0  0  0  0  0
   10.5566  -21.3029   22.2751 C   0  0  0  0  0  0  0  0  0  0  0  0
   10.1840  -20.1505   21.3741 C   0  0  2  0  0  0  0  0  0  0  0  0
   10.3479  -20.5199   19.9899 N   0  0  0  0  0  0  0  0  0  0  0  0
   10.9064  -18.9148   21.7397 C   0  0  0  0  0  0  0  0  0  0  0  0
   12.0021  -18.6329   21.1856 O   0  0  0  0  0  0  0  0  0  0  0  0
    6.5591  -13.1871   20.0068 N   0  0  0  0  0  0  0  0  0  0  0  0
    7.7108  -13.3253   19.1656 C   0  0  0  0  0  0  0  0  0  0  0  0
    7.6464  -12.8123   17.9964 N   0  0  0  0  0  0  0  0  0  0  0  0
    8.8403  -14.0043   19.6489 N   0  0  0  0  0  0  0  0  0  0  0  0
    8.7447  -14.5644   21.0190 C   0  0  0  0  0  0  0  0  0  0  0  0
   10.0616  -15.1419   21.4003 C   0  0  0  0  0  0  0  0  0  0  0  0
   10.1798  -15.7280   22.7270 C   0  0  0  0  0  0  0  0  0  0  0  0
   11.1538  -16.7755   23.0596 C   0  0  2  0  0  0  0  0  0  0  0  0
   10.3885  -18.0436   22.7025 N   0  0  0  0  0  0  0  0  0  0  0  0
   11.6056  -17.0186   24.4079 C   0  0  0  0  0  0  0  0  0  0  0  0
   10.9926  -17.8812   25.1343 O   0  0  0  0  0  0  0  0  0  0  0  0
   12.6805  -16.4012   25.0193 O   0  0  0  0  0  0  0  0  0  0  0  0
  1  2  1  0
  2  3  1  0
  3  4  2  0
  3  8  1  0
  5  6  1  0
  7  6  1  1
  7  9  1  0
  8  7  1  0
  9 10  2  0
  9 19  1  0
 11 12  1  0
 12 13  2  0
 12 14  1  0
 14 15  1  0
 15 16  1  0
 17 16  1  0
 18 17  1  1
 18 20  1  0
 19 18  1  0
 20 22  1  0
 21 20  2  0
M  END
$$$$
