GSR.pdb
     RDKit          3D

 22 21  0  0  1  0  0  0  0  0999 V2000
    8.1973  -23.3570   25.4627 N   0  0  0  0  0  0  0  0  0  0  0  0
    9.5910  -22.9970   25.3535 C   0  0  0  0  0  0  0  0  0  0  0  0
    9.6547  -21.4863   25.2905 C   0  0  0  0  0  0  0  0  0  0  0  0
    8.8894  -20.8558   24.5190 O   0  0  0  0  0  0  0  0  0  0  0  0
   12.7340  -19.5030   27.1938 O   0  0  0  0  0  0  0  0  0  0  0  0
   11.4935  -18.8337   27.2311 C   0  0  0  0  0  0  0  0  0  0  0  0
   10.6843  -19.3251   26.0554 C   0  0  2  0  0  0  0  0  0  0  0  0
   10.5671  -20.7619   26.0899 N   0  0  0  0  0  0  0  0  0  0  0  0
   11.2125  -18.8115   24.7749 C   0  0  0  0  0  0  0  0  0  0  0  0
   11.9259  -19.5471   24.0422 O   0  0  0  0  0  0  0  0  0  0  0  0
    6.9131  -13.0503   20.2081 N   0  0  0  0  0  0  0  0  0  0  0  0
    7.8937  -13.4516   19.2435 C   0  0  0  0  0  0  0  0  0  0  0  0
    7.7346  -13.0432   18.0426 N   0  0  0  0  0  0  0  0  0  0  0  0
    8.9676  -14.2605   19.6473 N   0  0  0  0  0  0  0  0  0  0  0  0
    9.0394  -14.6007   21.0892 C   0  0  0  0  0  0  0  0  0  0  0  0
   10.2266  -15.4654   21.3254 C   0  0  0  0  0  0  0  0  0  0  0  0
   10.4135  -15.9993   22.6662 C   0  0  0  0  0  0  0  0  0  0  0  0
   11.4023  -17.0360   22.9885 C   0  0  2  0  0  0  0  0  0  0  0  0
   10.9314  -17.5069   24.3588 N   0  0  0  0  0  0  0  0  0  0  0  0
   12.8001  -16.7423   23.1910 C   0  0  0  0  0  0  0  0  0  0  0  0
   13.2285  -16.4918   24.3748 O   0  0  0  0  0  0  0  0  0  0  0  0
   13.7667  -16.7122   22.2036 O   0  0  0  0  0  0  0  0  0  0  0  0
  1  2  1  0
  2  3  1  0
  3  4  2  0
  3  8  1  0
  5  6  1  0
  7  6  1  1
  7  9  1  0
  8  7  1  0
  9 10  2  0
  9 19  1  0
 11 12  1  0
 12 13  2  0
 12 14  1  0
 14 15  1  0
 15 16  1  0
 17 16  1  0
 18 17  1  1
 18 20  1  0
 19 18  1  0
 20 22  1  0
 21 20  2  0
M  END
$$$$
