GSR.pdb
     RDKit          3D

 22 21  0  0  1  0  0  0  0  0999 V2000
    7.8261  -13.3566   19.3135 N   0  0  0  0  0  0  0  0  0  0  0  0
    7.0613  -13.9758   20.3698 C   0  0  0  0  0  0  0  0  0  0  0  0
    7.9483  -14.0133   21.5954 C   0  0  0  0  0  0  0  0  0  0  0  0
    9.1981  -13.9986   21.4685 O   0  0  0  0  0  0  0  0  0  0  0  0
    6.3276  -14.2231   25.5244 O   0  0  0  0  0  0  0  0  0  0  0  0
    7.4645  -13.4406   25.2358 C   0  0  0  0  0  0  0  0  0  0  0  0
    8.1912  -14.1107   24.0950 C   0  0  2  0  0  0  0  0  0  0  0  0
    7.3942  -14.0652   22.8941 N   0  0  0  0  0  0  0  0  0  0  0  0
    8.6324  -15.4743   24.4533 C   0  0  0  0  0  0  0  0  0  0  0  0
    7.8851  -16.4629   24.2273 O   0  0  0  0  0  0  0  0  0  0  0  0
   13.8182  -18.1313   20.4413 N   0  0  0  0  0  0  0  0  0  0  0  0
   12.6735  -18.9877   20.5385 C   0  0  0  0  0  0  0  0  0  0  0  0
   12.2279  -19.4944   19.4526 N   0  0  0  0  0  0  0  0  0  0  0  0
   12.0990  -19.2310   21.7960 N   0  0  0  0  0  0  0  0  0  0  0  0
   12.6998  -18.5205   22.9511 C   0  0  0  0  0  0  0  0  0  0  0  0
   11.7822  -17.4317   23.3819 C   0  0  0  0  0  0  0  0  0  0  0  0
   11.6063  -17.2273   24.8120 C   0  0  0  0  0  0  0  0  0  0  0  0
   10.2900  -17.0987   25.4501 C   0  0  2  0  0  0  0  0  0  0  0  0
    9.8798  -15.6878   25.0471 N   0  0  0  0  0  0  0  0  0  0  0  0
   10.1148  -17.1086   26.8820 C   0  0  0  0  0  0  0  0  0  0  0  0
    9.9143  -16.0027   27.5021 O   0  0  0  0  0  0  0  0  0  0  0  0
   10.1307  -18.2324   27.6863 O   0  0  0  0  0  0  0  0  0  0  0  0
  1  2  1  0
  2  3  1  0
  3  4  2  0
  3  8  1  0
  5  6  1  0
  7  6  1  1
  7  9  1  0
  8  7  1  0
  9 10  2  0
  9 19  1  0
 11 12  1  0
 12 13  2  0
 12 14  1  0
 14 15  1  0
 15 16  1  0
 17 16  1  0
 18 17  1  1
 18 20  1  0
 19 18  1  0
 20 22  1  0
 21 20  2  0
M  END
$$$$
