IKW.pdb
     RDKit          3D

 32 33  0  0  1  0  0  0  0  0999 V2000
    7.9532  -12.0325   22.2512 C   0  0  0  0  0  0  0  0  0  0  0  0
    7.5862  -13.4000   21.7755 C   0  0  0  0  0  0  0  0  0  0  0  0
    8.2326  -13.7251   20.4144 C   0  0  2  0  0  0  0  0  0  0  0  0
    7.6943  -12.7968   19.3767 C   0  0  0  0  0  0  0  0  0  0  0  0
    7.9256  -15.1850   20.1811 C   0  0  2  0  0  0  0  0  0  0  0  0
    6.4565  -15.2554   20.1347 N   0  0  0  0  0  0  0  0  0  0  0  0
    8.4610  -16.1023   21.1874 C   0  0  0  0  0  0  0  0  0  0  0  0
    7.6723  -16.5806   22.0793 O   0  0  0  0  0  0  0  0  0  0  0  0
    9.7978  -16.5483   21.3042 N   0  0  0  0  0  0  0  0  0  0  0  0
   10.2356  -17.4699   22.3405 C   0  0  1  0  0  0  0  0  0  0  0  0
   11.4499  -18.2743   21.9417 C   0  0  0  0  0  0  0  0  0  0  0  0
   11.0916  -19.3449   20.9376 C   0  0  0  0  0  0  0  0  0  0  0  0
   11.9748  -19.2448   19.7285 C   0  0  0  0  0  0  0  0  0  0  0  0
   11.6796  -20.2976   18.6884 C   0  0  0  0  0  0  0  0  0  0  0  0
   12.5547  -19.9983   17.5442 N   0  0  0  0  0  0  0  0  0  0  0  0
   10.5149  -16.6751   23.5939 C   0  0  0  0  0  0  0  0  0  0  0  0
   11.2050  -15.6278   23.5459 O   0  0  0  0  0  0  0  0  0  0  0  0
   10.0042  -17.0946   24.8505 N   0  0  0  0  0  0  0  0  0  0  0  0
   10.4782  -16.6271   26.1325 C   0  0  1  0  0  0  0  0  0  0  0  0
   10.0683  -15.2350   26.4471 C   0  0  0  0  0  0  0  0  0  0  0  0
    8.6120  -15.0680   26.2876 C   0  0  0  0  0  0  0  0  0  0  0  0
    7.6838  -16.0722   26.1256 C   0  0  0  0  0  0  0  0  0  0  0  0
    6.4750  -15.5265   26.0110 N   0  0  0  0  0  0  0  0  0  0  0  0
    6.5955  -14.1799   26.0950 C   0  0  0  0  0  0  0  0  0  0  0  0
    5.6234  -13.1952   26.0304 C   0  0  0  0  0  0  0  0  0  0  0  0
    6.0096  -11.8768   26.1436 C   0  0  0  0  0  0  0  0  0  0  0  0
    7.3515  -11.5672   26.3183 C   0  0  0  0  0  0  0  0  0  0  0  0
    8.3303  -12.5312   26.3849 C   0  0  0  0  0  0  0  0  0  0  0  0
    7.9373  -13.8675   26.2700 C   0  0  0  0  0  0  0  0  0  0  0  0
   10.1429  -17.6193   27.2078 C   0  0  0  0  0  0  0  0  0  0  0  0
    9.3827  -18.5921   27.0094 O   0  0  0  0  0  0  0  0  0  0  0  0
   10.6722  -17.4912   28.4768 O   0  0  0  0  0  0  0  0  0  0  0  0
  2  1  1  0
  3  2  1  0
  3  4  1  6
  5  3  1  0
  5  6  1  1
  7  8  2  0
  7  5  1  0
  9  7  1  0
 10 16  1  0
 10  9  1  0
 10 11  1  6
 12 11  1  0
 12 13  1  0
 14 13  1  0
 14 15  1  0
 16 17  2  0
 18 19  1  0
 18 16  1  0
 19 20  1  1
 20 21  1  0
 21 22  2  0
 21 29  1  0
 22 23  1  0
 23 24  1  0
 24 25  2  0
 25 26  1  0
 27 26  2  0
 28 27  1  0
 29 28  2  0
 29 24  1  0
 30 19  1  0
 31 30  2  0
 32 30  1  0
M  END
$$$$
