IKW.pdb
     RDKit          3D

 32 33  0  0  1  0  0  0  0  0999 V2000
    5.3760  -21.9878   25.8335 C   0  0  0  0  0  0  0  0  0  0  0  0
    5.2655  -21.3977   24.4658 C   0  0  0  0  0  0  0  0  0  0  0  0
    6.3372  -20.3172   24.2204 C   0  0  2  0  0  0  0  0  0  0  0  0
    6.1976  -19.2402   25.2445 C   0  0  0  0  0  0  0  0  0  0  0  0
    6.1147  -19.8709   22.7951 C   0  0  2  0  0  0  0  0  0  0  0  0
    6.3047  -21.0869   21.9884 N   0  0  0  0  0  0  0  0  0  0  0  0
    6.9941  -18.7960   22.3349 C   0  0  0  0  0  0  0  0  0  0  0  0
    8.2384  -19.0452   22.1446 O   0  0  0  0  0  0  0  0  0  0  0  0
    6.6279  -17.4581   22.0602 N   0  0  0  0  0  0  0  0  0  0  0  0
    7.5973  -16.4250   21.7322 C   0  0  1  0  0  0  0  0  0  0  0  0
    7.0311  -15.3439   20.8425 C   0  0  0  0  0  0  0  0  0  0  0  0
    8.1113  -14.3941   20.3803 C   0  0  0  0  0  0  0  0  0  0  0  0
    7.5639  -13.4327   19.3663 C   0  0  0  0  0  0  0  0  0  0  0  0
    8.4568  -13.2680   18.1610 C   0  0  0  0  0  0  0  0  0  0  0  0
    7.8569  -12.1959   17.3515 N   0  0  0  0  0  0  0  0  0  0  0  0
    8.1134  -15.8331   23.0221 C   0  0  0  0  0  0  0  0  0  0  0  0
    7.3790  -15.0987   23.7270 O   0  0  0  0  0  0  0  0  0  0  0  0
    9.4372  -16.0937   23.4641 N   0  0  0  0  0  0  0  0  0  0  0  0
   10.0592  -15.4818   24.6154 C   0  0  1  0  0  0  0  0  0  0  0  0
    9.4080  -15.8355   25.9021 C   0  0  0  0  0  0  0  0  0  0  0  0
    8.0636  -15.2369   25.9918 C   0  0  0  0  0  0  0  0  0  0  0  0
    6.8614  -15.8998   25.8847 C   0  0  0  0  0  0  0  0  0  0  0  0
    5.8713  -15.0195   26.0150 N   0  0  0  0  0  0  0  0  0  0  0  0
    6.4050  -13.7892   26.2059 C   0  0  0  0  0  0  0  0  0  0  0  0
    5.7783  -12.5677   26.3894 C   0  0  0  0  0  0  0  0  0  0  0  0
    6.5579  -11.4443   26.5642 C   0  0  0  0  0  0  0  0  0  0  0  0
    7.9413  -11.5604   26.5527 C   0  0  0  0  0  0  0  0  0  0  0  0
    8.5809  -12.7646   26.3720 C   0  0  0  0  0  0  0  0  0  0  0  0
    7.7891  -13.9026   26.1949 C   0  0  0  0  0  0  0  0  0  0  0  0
   11.5415  -15.7184   24.5967 C   0  0  0  0  0  0  0  0  0  0  0  0
   12.1060  -16.3644   23.6871 O   0  0  0  0  0  0  0  0  0  0  0  0
   12.3485  -15.2214   25.6010 O   0  0  0  0  0  0  0  0  0  0  0  0
  2  1  1  0
  3  2  1  0
  3  4  1  1
  5  3  1  0
  5  6  1  6
  7  8  2  0
  7  5  1  0
  9  7  1  0
 10 16  1  0
 10  9  1  0
 10 11  1  6
 12 11  1  0
 12 13  1  0
 14 13  1  0
 14 15  1  0
 16 17  2  0
 18 19  1  0
 18 16  1  0
 19 20  1  1
 20 21  1  0
 21 22  2  0
 21 29  1  0
 22 23  1  0
 23 24  1  0
 24 25  2  0
 25 26  1  0
 27 26  2  0
 28 27  1  0
 29 28  2  0
 29 24  1  0
 30 19  1  0
 31 30  2  0
 32 30  1  0
M  END
$$$$
