IKW.pdb
     RDKit          3D

 32 33  0  0  1  0  0  0  0  0999 V2000
    8.7106  -18.6457   15.8401 C   0  0  0  0  0  0  0  0  0  0  0  0
    9.0974  -18.8897   17.2620 C   0  0  0  0  0  0  0  0  0  0  0  0
    9.3529  -17.5718   18.0198 C   0  0  2  0  0  0  0  0  0  0  0  0
   10.5882  -16.9257   17.4860 C   0  0  0  0  0  0  0  0  0  0  0  0
    9.4230  -17.9714   19.4743 C   0  0  2  0  0  0  0  0  0  0  0  0
    8.1939  -18.7457   19.7090 N   0  0  0  0  0  0  0  0  0  0  0  0
    9.5294  -16.8606   20.4205 C   0  0  0  0  0  0  0  0  0  0  0  0
   10.6422  -16.2295   20.5205 O   0  0  0  0  0  0  0  0  0  0  0  0
    8.5141  -16.3731   21.2754 N   0  0  0  0  0  0  0  0  0  0  0  0
    8.7757  -15.4447   22.3637 C   0  0  1  0  0  0  0  0  0  0  0  0
    7.5579  -14.6473   22.7663 C   0  0  0  0  0  0  0  0  0  0  0  0
    7.8811  -13.6800   23.8810 C   0  0  0  0  0  0  0  0  0  0  0  0
    6.6494  -12.9301   24.2965 C   0  0  0  0  0  0  0  0  0  0  0  0
    6.9080  -11.9220   25.3893 C   0  0  0  0  0  0  0  0  0  0  0  0
    5.6420  -11.1986   25.5857 N   0  0  0  0  0  0  0  0  0  0  0  0
    9.3068  -16.2302   23.5391 C   0  0  0  0  0  0  0  0  0  0  0  0
    8.5880  -16.4360   24.5473 O   0  0  0  0  0  0  0  0  0  0  0  0
   10.6274  -16.7514   23.5291 N   0  0  0  0  0  0  0  0  0  0  0  0
   11.6250  -16.4933   24.5415 C   0  0  1  0  0  0  0  0  0  0  0  0
   11.4308  -17.2835   25.7836 C   0  0  0  0  0  0  0  0  0  0  0  0
   10.2715  -16.7855   26.5465 C   0  0  0  0  0  0  0  0  0  0  0  0
    9.0026  -17.3202   26.5532 C   0  0  0  0  0  0  0  0  0  0  0  0
    8.2329  -16.5920   27.3591 N   0  0  0  0  0  0  0  0  0  0  0  0
    8.9769  -15.5877   27.8812 C   0  0  0  0  0  0  0  0  0  0  0  0
    8.6177  -14.5821   28.7635 C   0  0  0  0  0  0  0  0  0  0  0  0
    9.5742  -13.6667   29.1474 C   0  0  0  0  0  0  0  0  0  0  0  0
   10.8647  -13.7715   28.6464 C   0  0  0  0  0  0  0  0  0  0  0  0
   11.2395  -14.7630   27.7700 C   0  0  0  0  0  0  0  0  0  0  0  0
   10.2686  -15.6903   27.3816 C   0  0  0  0  0  0  0  0  0  0  0  0
   13.0036  -16.6036   23.9578 C   0  0  0  0  0  0  0  0  0  0  0  0
   13.2041  -16.9409   22.7705 O   0  0  0  0  0  0  0  0  0  0  0  0
   14.1190  -16.3309   24.7247 O   0  0  0  0  0  0  0  0  0  0  0  0
  2  1  1  0
  3  2  1  0
  3  4  1  6
  5  3  1  0
  5  6  1  1
  7  8  2  0
  7  5  1  0
  9  7  1  0
 10 16  1  0
 10  9  1  0
 10 11  1  1
 12 11  1  0
 12 13  1  0
 14 13  1  0
 14 15  1  0
 16 17  2  0
 18 19  1  0
 18 16  1  0
 19 20  1  1
 20 21  1  0
 21 22  2  0
 21 29  1  0
 22 23  1  0
 23 24  1  0
 24 25  2  0
 25 26  1  0
 27 26  2  0
 28 27  1  0
 29 28  2  0
 29 24  1  0
 30 19  1  0
 31 30  2  0
 32 30  1  0
M  END
$$$$
