IKW.pdb
     RDKit          3D

 32 33  0  0  1  0  0  0  0  0999 V2000
    5.5993  -21.8641   25.9666 C   0  0  0  0  0  0  0  0  0  0  0  0
    5.5054  -21.3513   24.5669 C   0  0  0  0  0  0  0  0  0  0  0  0
    6.5538  -20.2564   24.2871 C   0  0  2  0  0  0  0  0  0  0  0  0
    6.4054  -19.1612   25.2906 C   0  0  0  0  0  0  0  0  0  0  0  0
    6.3071  -19.8438   22.8556 C   0  0  2  0  0  0  0  0  0  0  0  0
    6.5195  -21.0705   22.0710 N   0  0  0  0  0  0  0  0  0  0  0  0
    7.1554  -18.7570   22.3661 C   0  0  0  0  0  0  0  0  0  0  0  0
    8.4072  -18.9742   22.1862 O   0  0  0  0  0  0  0  0  0  0  0  0
    6.7502  -17.4394   22.0511 N   0  0  0  0  0  0  0  0  0  0  0  0
    7.6849  -16.3994   21.6516 C   0  0  1  0  0  0  0  0  0  0  0  0
    7.0866  -15.4070   20.6832 C   0  0  0  0  0  0  0  0  0  0  0  0
    8.1234  -14.4191   20.2016 C   0  0  0  0  0  0  0  0  0  0  0  0
    7.5485  -13.5367   19.1326 C   0  0  0  0  0  0  0  0  0  0  0  0
    8.5675  -12.6105   18.5151 C   0  0  0  0  0  0  0  0  0  0  0  0
    7.8373  -11.7991   17.5287 N   0  0  0  0  0  0  0  0  0  0  0  0
    8.1721  -15.6970   22.8965 C   0  0  0  0  0  0  0  0  0  0  0  0
    7.3872  -15.0019   23.5867 O   0  0  0  0  0  0  0  0  0  0  0  0
    9.5253  -15.8071   23.3118 N   0  0  0  0  0  0  0  0  0  0  0  0
   10.0305  -15.3922   24.6000 C   0  0  1  0  0  0  0  0  0  0  0  0
    9.3405  -16.0370   25.7458 C   0  0  0  0  0  0  0  0  0  0  0  0
    7.9797  -15.4942   25.9119 C   0  0  0  0  0  0  0  0  0  0  0  0
    6.7966  -16.1689   25.7084 C   0  0  0  0  0  0  0  0  0  0  0  0
    5.7822  -15.3430   25.9554 N   0  0  0  0  0  0  0  0  0  0  0  0
    6.2811  -14.1369   26.3176 C   0  0  0  0  0  0  0  0  0  0  0  0
    5.6202  -12.9705   26.6664 C   0  0  0  0  0  0  0  0  0  0  0  0
    6.3679  -11.8612   26.9989 C   0  0  0  0  0  0  0  0  0  0  0  0
    7.7540  -11.9362   26.9774 C   0  0  0  0  0  0  0  0  0  0  0  0
    8.4272  -13.0853   26.6341 C   0  0  0  0  0  0  0  0  0  0  0  0
    7.6678  -14.2093   26.2971 C   0  0  0  0  0  0  0  0  0  0  0  0
   11.5259  -15.5164   24.6403 C   0  0  0  0  0  0  0  0  0  0  0  0
   12.1953  -15.2308   25.6571 O   0  0  0  0  0  0  0  0  0  0  0  0
   12.2277  -15.9591   23.5366 O   0  0  0  0  0  0  0  0  0  0  0  0
  2  1  1  0
  3  2  1  0
  3  4  1  1
  5  3  1  0
  5  6  1  6
  7  8  2  0
  7  5  1  0
  9  7  1  0
 10 16  1  0
 10  9  1  0
 10 11  1  6
 12 11  1  0
 12 13  1  0
 14 13  1  0
 14 15  1  0
 16 17  2  0
 18 19  1  0
 18 16  1  0
 19 20  1  1
 20 21  1  0
 21 22  2  0
 21 29  1  0
 22 23  1  0
 23 24  1  0
 24 25  2  0
 25 26  1  0
 27 26  2  0
 28 27  1  0
 29 28  2  0
 29 24  1  0
 30 19  1  0
 31 30  2  0
 32 30  1  0
M  END
$$$$
