IKW.pdb
     RDKit          3D

 32 33  0  0  1  0  0  0  0  0999 V2000
    5.3417  -21.4671   25.5718 C   0  0  0  0  0  0  0  0  0  0  0  0
    5.1856  -20.8923   24.2020 C   0  0  0  0  0  0  0  0  0  0  0  0
    6.2566  -19.8244   23.9042 C   0  0  2  0  0  0  0  0  0  0  0  0
    6.2242  -18.7803   24.9706 C   0  0  0  0  0  0  0  0  0  0  0  0
    5.9280  -19.3258   22.5172 C   0  0  2  0  0  0  0  0  0  0  0  0
    6.0074  -20.5206   21.6618 N   0  0  0  0  0  0  0  0  0  0  0  0
    6.8004  -18.2644   22.0143 C   0  0  0  0  0  0  0  0  0  0  0  0
    8.0375  -18.5243   21.7942 O   0  0  0  0  0  0  0  0  0  0  0  0
    6.4342  -16.9292   21.7266 N   0  0  0  0  0  0  0  0  0  0  0  0
    7.4085  -15.8704   21.5164 C   0  0  1  0  0  0  0  0  0  0  0  0
    6.8391  -14.6801   20.7817 C   0  0  0  0  0  0  0  0  0  0  0  0
    7.9055  -13.6461   20.5054 C   0  0  0  0  0  0  0  0  0  0  0  0
    8.6870  -14.0154   19.2787 C   0  0  0  0  0  0  0  0  0  0  0  0
    8.1487  -13.3832   18.0187 C   0  0  0  0  0  0  0  0  0  0  0  0
    9.0456  -13.8086   16.9327 N   0  0  0  0  0  0  0  0  0  0  0  0
    7.9512  -15.4522   22.8622 C   0  0  0  0  0  0  0  0  0  0  0  0
    7.2611  -14.7474   23.6384 O   0  0  0  0  0  0  0  0  0  0  0  0
    9.2506  -15.8460   23.2773 N   0  0  0  0  0  0  0  0  0  0  0  0
    9.9625  -15.2880   24.4036 C   0  0  1  0  0  0  0  0  0  0  0  0
    9.4567  -15.7561   25.7188 C   0  0  0  0  0  0  0  0  0  0  0  0
    8.0486  -15.3630   25.9096 C   0  0  0  0  0  0  0  0  0  0  0  0
    6.9402  -16.1521   25.6971 C   0  0  0  0  0  0  0  0  0  0  0  0
    5.8479  -15.4434   25.9739 N   0  0  0  0  0  0  0  0  0  0  0  0
    6.2220  -14.2015   26.3645 C   0  0  0  0  0  0  0  0  0  0  0  0
    5.4468  -13.1200   26.7494 C   0  0  0  0  0  0  0  0  0  0  0  0
    6.0782  -11.9476   27.1059 C   0  0  0  0  0  0  0  0  0  0  0  0
    7.4642  -11.8768   27.0719 C   0  0  0  0  0  0  0  0  0  0  0  0
    8.2500  -12.9400   26.6928 C   0  0  0  0  0  0  0  0  0  0  0  0
    7.6084  -14.1281   26.3316 C   0  0  0  0  0  0  0  0  0  0  0  0
   11.4430  -15.4591   24.2235 C   0  0  0  0  0  0  0  0  0  0  0  0
   11.9338  -16.0702   23.2493 O   0  0  0  0  0  0  0  0  0  0  0  0
   12.3311  -14.9376   25.1434 O   0  0  0  0  0  0  0  0  0  0  0  0
  2  1  1  0
  3  2  1  0
  3  4  1  1
  5  3  1  0
  5  6  1  6
  7  8  2  0
  7  5  1  0
  9  7  1  0
 10 16  1  0
 10  9  1  0
 10 11  1  1
 12 11  1  0
 12 13  1  0
 14 13  1  0
 14 15  1  0
 16 17  2  0
 18 19  1  0
 18 16  1  0
 19 20  1  1
 20 21  1  0
 21 22  2  0
 21 29  1  0
 22 23  1  0
 23 24  1  0
 24 25  2  0
 25 26  1  0
 27 26  2  0
 28 27  1  0
 29 28  2  0
 29 24  1  0
 30 19  1  0
 31 30  2  0
 32 30  1  0
M  END
$$$$
