IKW.pdb
     RDKit          3D

 32 33  0  0  1  0  0  0  0  0999 V2000
    7.2540  -12.1631   22.3269 C   0  0  0  0  0  0  0  0  0  0  0  0
    7.1824  -13.5791   21.8570 C   0  0  0  0  0  0  0  0  0  0  0  0
    8.0788  -13.8196   20.6262 C   0  0  2  0  0  0  0  0  0  0  0  0
    7.6346  -12.9335   19.5099 C   0  0  0  0  0  0  0  0  0  0  0  0
    7.9617  -15.2990   20.3475 C   0  0  2  0  0  0  0  0  0  0  0  0
    6.5161  -15.5418   20.2177 N   0  0  0  0  0  0  0  0  0  0  0  0
    8.5489  -16.1723   21.3639 C   0  0  0  0  0  0  0  0  0  0  0  0
    7.7962  -16.6521   22.2858 O   0  0  0  0  0  0  0  0  0  0  0  0
    9.9016  -16.5724   21.4610 N   0  0  0  0  0  0  0  0  0  0  0  0
   10.3850  -17.4815   22.4880 C   0  0  1  0  0  0  0  0  0  0  0  0
   11.8168  -17.9105   22.2715 C   0  0  0  0  0  0  0  0  0  0  0  0
   12.1652  -19.1059   23.1274 C   0  0  0  0  0  0  0  0  0  0  0  0
   11.8849  -20.3799   22.3855 C   0  0  0  0  0  0  0  0  0  0  0  0
   12.1316  -21.6166   23.2145 C   0  0  0  0  0  0  0  0  0  0  0  0
   13.5869  -21.8323   23.2034 N   0  0  0  0  0  0  0  0  0  0  0  0
   10.2318  -16.8051   23.8295 C   0  0  0  0  0  0  0  0  0  0  0  0
    9.7606  -15.6445   23.9098 O   0  0  0  0  0  0  0  0  0  0  0  0
   10.6166  -17.4658   25.0258 N   0  0  0  0  0  0  0  0  0  0  0  0
   10.1954  -17.0825   26.3534 C   0  0  1  0  0  0  0  0  0  0  0  0
    8.7479  -17.2986   26.6043 C   0  0  0  0  0  0  0  0  0  0  0  0
    7.9774  -16.0742   26.3194 C   0  0  0  0  0  0  0  0  0  0  0  0
    6.8907  -15.9650   25.4806 C   0  0  0  0  0  0  0  0  0  0  0  0
    6.4717  -14.7015   25.4814 N   0  0  0  0  0  0  0  0  0  0  0  0
    7.2665  -13.9798   26.3074 C   0  0  0  0  0  0  0  0  0  0  0  0
    7.2232  -12.6332   26.6294 C   0  0  0  0  0  0  0  0  0  0  0  0
    8.1598  -12.1334   27.5086 C   0  0  0  0  0  0  0  0  0  0  0  0
    9.1171  -12.9822   28.0475 C   0  0  0  0  0  0  0  0  0  0  0  0
    9.1753  -14.3215   27.7397 C   0  0  0  0  0  0  0  0  0  0  0  0
    8.2250  -14.8268   26.8480 C   0  0  0  0  0  0  0  0  0  0  0  0
   11.0923  -17.7012   27.3859 C   0  0  0  0  0  0  0  0  0  0  0  0
   11.7343  -18.7529   27.1730 O   0  0  0  0  0  0  0  0  0  0  0  0
   11.2435  -17.1200   28.6293 O   0  0  0  0  0  0  0  0  0  0  0  0
  2  1  1  0
  3  2  1  0
  3  4  1  6
  5  3  1  0
  5  6  1  1
  7  8  2  0
  7  5  1  0
  9  7  1  0
 10 16  1  0
 10  9  1  0
 10 11  1  6
 12 11  1  0
 12 13  1  0
 14 13  1  0
 14 15  1  0
 16 17  2  0
 18 19  1  0
 18 16  1  0
 19 20  1  1
 20 21  1  0
 21 22  2  0
 21 29  1  0
 22 23  1  0
 23 24  1  0
 24 25  2  0
 25 26  1  0
 27 26  2  0
 28 27  1  0
 29 28  2  0
 29 24  1  0
 30 19  1  0
 31 30  2  0
 32 30  1  0
M  END
$$$$
