IKW.pdb
     RDKit          3D

 32 33  0  0  1  0  0  0  0  0999 V2000
    4.7468  -21.6954   24.6022 C   0  0  0  0  0  0  0  0  0  0  0  0
    4.8454  -20.9025   23.3403 C   0  0  0  0  0  0  0  0  0  0  0  0
    6.0625  -19.9564   23.3525 C   0  0  2  0  0  0  0  0  0  0  0  0
    5.9949  -19.0790   24.5583 C   0  0  0  0  0  0  0  0  0  0  0  0
    5.9966  -19.2271   22.0320 C   0  0  2  0  0  0  0  0  0  0  0  0
    6.0260  -20.2907   21.0155 N   0  0  0  0  0  0  0  0  0  0  0  0
    7.0666  -18.2560   21.8031 C   0  0  0  0  0  0  0  0  0  0  0  0
    8.2767  -18.6714   21.7044 O   0  0  0  0  0  0  0  0  0  0  0  0
    6.9279  -16.8551   21.6699 N   0  0  0  0  0  0  0  0  0  0  0  0
    8.0650  -15.9508   21.6078 C   0  0  1  0  0  0  0  0  0  0  0  0
    7.8132  -14.7432   20.7365 C   0  0  0  0  0  0  0  0  0  0  0  0
    8.1166  -15.0415   19.2868 C   0  0  0  0  0  0  0  0  0  0  0  0
    7.8253  -13.8417   18.4337 C   0  0  0  0  0  0  0  0  0  0  0  0
    8.0017  -14.1049   16.9583 C   0  0  0  0  0  0  0  0  0  0  0  0
    7.6067  -12.8649   16.2720 N   0  0  0  0  0  0  0  0  0  0  0  0
    8.4096  -15.5258   23.0154 C   0  0  0  0  0  0  0  0  0  0  0  0
    7.7367  -14.6411   23.5985 O   0  0  0  0  0  0  0  0  0  0  0  0
    9.4995  -16.1161   23.7076 N   0  0  0  0  0  0  0  0  0  0  0  0
   10.1825  -15.5219   24.8333 C   0  0  1  0  0  0  0  0  0  0  0  0
    9.4869  -15.7291   26.1287 C   0  0  0  0  0  0  0  0  0  0  0  0
    8.1377  -15.1350   26.1007 C   0  0  0  0  0  0  0  0  0  0  0  0
    6.9560  -15.7943   25.8457 C   0  0  0  0  0  0  0  0  0  0  0  0
    5.9539  -14.9199   25.9052 N   0  0  0  0  0  0  0  0  0  0  0  0
    6.4597  -13.6972   26.1951 C   0  0  0  0  0  0  0  0  0  0  0  0
    5.8120  -12.4836   26.3575 C   0  0  0  0  0  0  0  0  0  0  0  0
    6.5645  -11.3671   26.6529 C   0  0  0  0  0  0  0  0  0  0  0  0
    7.9421  -11.4819   26.7802 C   0  0  0  0  0  0  0  0  0  0  0  0
    8.6022  -12.6782   26.6226 C   0  0  0  0  0  0  0  0  0  0  0  0
    7.8379  -13.8094   26.3231 C   0  0  0  0  0  0  0  0  0  0  0  0
   11.6268  -15.9309   24.8443 C   0  0  0  0  0  0  0  0  0  0  0  0
   12.1059  -16.7228   24.0036 O   0  0  0  0  0  0  0  0  0  0  0  0
   12.4930  -15.4378   25.8000 O   0  0  0  0  0  0  0  0  0  0  0  0
  2  1  1  0
  3  2  1  0
  3  4  1  1
  5  3  1  0
  5  6  1  6
  7  8  2  0
  7  5  1  0
  9  7  1  0
 10 16  1  0
 10  9  1  0
 10 11  1  6
 12 11  1  0
 12 13  1  0
 14 13  1  0
 14 15  1  0
 16 17  2  0
 18 19  1  0
 18 16  1  0
 19 20  1  1
 20 21  1  0
 21 22  2  0
 21 29  1  0
 22 23  1  0
 23 24  1  0
 24 25  2  0
 25 26  1  0
 27 26  2  0
 28 27  1  0
 29 28  2  0
 29 24  1  0
 30 19  1  0
 31 30  2  0
 32 30  1  0
M  END
$$$$
