IKW.pdb
     RDKit          3D

 32 33  0  0  1  0  0  0  0  0999 V2000
    7.4857  -11.5465   19.7152 C   0  0  0  0  0  0  0  0  0  0  0  0
    7.4439  -13.0261   19.5147 C   0  0  0  0  0  0  0  0  0  0  0  0
    7.8402  -13.7884   20.7947 C   0  0  2  0  0  0  0  0  0  0  0  0
    9.1553  -13.2807   21.2857 C   0  0  0  0  0  0  0  0  0  0  0  0
    7.8309  -15.2443   20.3943 C   0  0  2  0  0  0  0  0  0  0  0  0
    6.4491  -15.5038   19.9599 N   0  0  0  0  0  0  0  0  0  0  0  0
    8.2334  -16.1810   21.4436 C   0  0  0  0  0  0  0  0  0  0  0  0
    7.4125  -16.4452   22.3937 O   0  0  0  0  0  0  0  0  0  0  0  0
    9.4680  -16.8628   21.5454 N   0  0  0  0  0  0  0  0  0  0  0  0
    9.7802  -17.7735   22.6353 C   0  0  1  0  0  0  0  0  0  0  0  0
   10.9260  -18.7048   22.3178 C   0  0  0  0  0  0  0  0  0  0  0  0
   11.1936  -19.6534   23.4630 C   0  0  0  0  0  0  0  0  0  0  0  0
   12.3649  -20.5370   23.1476 C   0  0  0  0  0  0  0  0  0  0  0  0
   12.4760  -21.7273   24.0685 C   0  0  0  0  0  0  0  0  0  0  0  0
   13.6713  -22.4682   23.6360 N   0  0  0  0  0  0  0  0  0  0  0  0
   10.0899  -16.9526   23.8645 C   0  0  0  0  0  0  0  0  0  0  0  0
   10.7455  -15.8863   23.7722 O   0  0  0  0  0  0  0  0  0  0  0  0
    9.6473  -17.3685   25.1478 N   0  0  0  0  0  0  0  0  0  0  0  0
    9.9771  -16.7079   26.3894 C   0  0  1  0  0  0  0  0  0  0  0  0
    8.8067  -16.4901   27.2770 C   0  0  0  0  0  0  0  0  0  0  0  0
    7.7950  -15.6470   26.6140 C   0  0  0  0  0  0  0  0  0  0  0  0
    6.7025  -16.0850   25.8994 C   0  0  0  0  0  0  0  0  0  0  0  0
    6.0287  -15.0276   25.4521 N   0  0  0  0  0  0  0  0  0  0  0  0
    6.6621  -13.9026   25.8619 C   0  0  0  0  0  0  0  0  0  0  0  0
    6.3412  -12.5728   25.6440 C   0  0  0  0  0  0  0  0  0  0  0  0
    7.1601  -11.5995   26.1753 C   0  0  0  0  0  0  0  0  0  0  0  0
    8.2781  -11.9695   26.9105 C   0  0  0  0  0  0  0  0  0  0  0  0
    8.6123  -13.2842   27.1372 C   0  0  0  0  0  0  0  0  0  0  0  0
    7.7810  -14.2699   26.5979 C   0  0  0  0  0  0  0  0  0  0  0  0
   11.1302  -17.3976   27.0589 C   0  0  0  0  0  0  0  0  0  0  0  0
   11.6372  -16.9775   28.1219 O   0  0  0  0  0  0  0  0  0  0  0  0
   11.6811  -18.5411   26.5152 O   0  0  0  0  0  0  0  0  0  0  0  0
  2  1  1  0
  3  2  1  0
  3  4  1  6
  5  3  1  0
  5  6  1  1
  7  8  2  0
  7  5  1  0
  9  7  1  0
 10 16  1  0
 10  9  1  0
 10 11  1  6
 12 11  1  0
 12 13  1  0
 14 13  1  0
 14 15  1  0
 16 17  2  0
 18 19  1  0
 18 16  1  0
 19 20  1  1
 20 21  1  0
 21 22  2  0
 21 29  1  0
 22 23  1  0
 23 24  1  0
 24 25  2  0
 25 26  1  0
 27 26  2  0
 28 27  1  0
 29 28  2  0
 29 24  1  0
 30 19  1  0
 31 30  2  0
 32 30  1  0
M  END
$$$$
