IKW.pdb
     RDKit          3D

 32 33  0  0  1  0  0  0  0  0999 V2000
    3.3430  -16.9148   20.3642 C   0  0  0  0  0  0  0  0  0  0  0  0
    4.7131  -17.2994   19.9106 C   0  0  0  0  0  0  0  0  0  0  0  0
    5.6871  -17.4500   21.0959 C   0  0  2  0  0  0  0  0  0  0  0  0
    5.7389  -16.1684   21.8597 C   0  0  0  0  0  0  0  0  0  0  0  0
    6.9953  -17.8687   20.4687 C   0  0  2  0  0  0  0  0  0  0  0  0
    6.6779  -19.1006   19.7289 N   0  0  0  0  0  0  0  0  0  0  0  0
    8.0933  -18.0925   21.4093 C   0  0  0  0  0  0  0  0  0  0  0  0
    7.8963  -18.8408   22.4329 O   0  0  0  0  0  0  0  0  0  0  0  0
    9.4026  -17.5649   21.3272 N   0  0  0  0  0  0  0  0  0  0  0  0
   10.4342  -17.8541   22.3106 C   0  0  1  0  0  0  0  0  0  0  0  0
   11.8291  -17.8149   21.7333 C   0  0  0  0  0  0  0  0  0  0  0  0
   12.8651  -18.1444   22.7825 C   0  0  0  0  0  0  0  0  0  0  0  0
   14.2433  -18.0944   22.1908 C   0  0  0  0  0  0  0  0  0  0  0  0
   15.3248  -18.4791   23.1705 C   0  0  0  0  0  0  0  0  0  0  0  0
   16.6033  -18.2173   22.4912 N   0  0  0  0  0  0  0  0  0  0  0  0
   10.3011  -16.8628   23.4421 C   0  0  0  0  0  0  0  0  0  0  0  0
   10.4273  -15.6319   23.2312 O   0  0  0  0  0  0  0  0  0  0  0  0
   10.0313  -17.3007   24.7654 N   0  0  0  0  0  0  0  0  0  0  0  0
   10.5441  -16.6763   25.9628 C   0  0  1  0  0  0  0  0  0  0  0  0
   10.1500  -15.2519   26.1070 C   0  0  0  0  0  0  0  0  0  0  0  0
    8.6844  -15.1038   26.0427 C   0  0  0  0  0  0  0  0  0  0  0  0
    7.7646  -16.1135   25.8671 C   0  0  0  0  0  0  0  0  0  0  0  0
    6.5425  -15.5856   25.8587 N   0  0  0  0  0  0  0  0  0  0  0  0
    6.6460  -14.2454   26.0260 C   0  0  0  0  0  0  0  0  0  0  0  0
    5.6561  -13.2782   26.0834 C   0  0  0  0  0  0  0  0  0  0  0  0
    6.0269  -11.9626   26.2625 C   0  0  0  0  0  0  0  0  0  0  0  0
    7.3716  -11.6386   26.3805 C   0  0  0  0  0  0  0  0  0  0  0  0
    8.3680  -12.5851   26.3262 C   0  0  0  0  0  0  0  0  0  0  0  0
    7.9906  -13.9185   26.1444 C   0  0  0  0  0  0  0  0  0  0  0  0
   10.2352  -17.5193   27.1659 C   0  0  0  0  0  0  0  0  0  0  0  0
    9.5544  -18.5657   27.0946 O   0  0  0  0  0  0  0  0  0  0  0  0
   10.7008  -17.1631   28.4161 O   0  0  0  0  0  0  0  0  0  0  0  0
  2  1  1  0
  3  2  1  0
  3  4  1  6
  5  3  1  0
  5  6  1  1
  7  8  2  0
  7  5  1  0
  9  7  1  0
 10 16  1  0
 10  9  1  0
 10 11  1  6
 12 11  1  0
 12 13  1  0
 14 13  1  0
 14 15  1  0
 16 17  2  0
 18 19  1  0
 18 16  1  0
 19 20  1  1
 20 21  1  0
 21 22  2  0
 21 29  1  0
 22 23  1  0
 23 24  1  0
 24 25  2  0
 25 26  1  0
 27 26  2  0
 28 27  1  0
 29 28  2  0
 29 24  1  0
 30 19  1  0
 31 30  2  0
 32 30  1  0
M  END
$$$$
