IKW.pdb
     RDKit          3D

 32 33  0  0  1  0  0  0  0  0999 V2000
    8.5389  -22.5363   21.1364 C   0  0  0  0  0  0  0  0  0  0  0  0
    8.0235  -21.2480   20.5835 C   0  0  0  0  0  0  0  0  0  0  0  0
    8.8060  -20.0372   21.1293 C   0  0  2  0  0  0  0  0  0  0  0  0
    8.7641  -20.0527   22.6214 C   0  0  0  0  0  0  0  0  0  0  0  0
    8.1531  -18.8360   20.4882 C   0  0  2  0  0  0  0  0  0  0  0  0
    8.2125  -19.1051   19.0427 N   0  0  0  0  0  0  0  0  0  0  0  0
    8.7707  -17.5483   20.8057 C   0  0  0  0  0  0  0  0  0  0  0  0
    9.9608  -17.3071   20.3911 O   0  0  0  0  0  0  0  0  0  0  0  0
    8.1941  -16.4889   21.5439 N   0  0  0  0  0  0  0  0  0  0  0  0
    8.8163  -15.1802   21.6654 C   0  0  1  0  0  0  0  0  0  0  0  0
    7.8568  -14.0430   21.4068 C   0  0  0  0  0  0  0  0  0  0  0  0
    7.2111  -14.1703   20.0468 C   0  0  0  0  0  0  0  0  0  0  0  0
    8.1342  -13.6596   18.9795 C   0  0  0  0  0  0  0  0  0  0  0  0
    7.5322  -13.7154   17.5969 C   0  0  0  0  0  0  0  0  0  0  0  0
    8.5880  -13.2714   16.6734 N   0  0  0  0  0  0  0  0  0  0  0  0
    9.4129  -15.0659   23.0480 C   0  0  0  0  0  0  0  0  0  0  0  0
   10.0879  -14.0583   23.3714 O   0  0  0  0  0  0  0  0  0  0  0  0
    9.2236  -16.0933   24.0094 N   0  0  0  0  0  0  0  0  0  0  0  0
    9.8293  -16.1195   25.3206 C   0  0  1  0  0  0  0  0  0  0  0  0
    8.8561  -16.3314   26.4219 C   0  0  0  0  0  0  0  0  0  0  0  0
    7.6909  -15.4405   26.2711 C   0  0  0  0  0  0  0  0  0  0  0  0
    6.4135  -15.8131   25.9168 C   0  0  0  0  0  0  0  0  0  0  0  0
    5.6428  -14.7282   25.8820 N   0  0  0  0  0  0  0  0  0  0  0  0
    6.3945  -13.6496   26.2079 C   0  0  0  0  0  0  0  0  0  0  0  0
    6.0378  -12.3146   26.3050 C   0  0  0  0  0  0  0  0  0  0  0  0
    7.0032  -11.3965   26.6588 C   0  0  0  0  0  0  0  0  0  0  0  0
    8.2998  -11.8254   26.9081 C   0  0  0  0  0  0  0  0  0  0  0  0
    8.6722  -13.1462   26.8169 C   0  0  0  0  0  0  0  0  0  0  0  0
    7.6923  -14.0760   26.4579 C   0  0  0  0  0  0  0  0  0  0  0  0
   10.9906  -17.0705   25.3416 C   0  0  0  0  0  0  0  0  0  0  0  0
   11.7296  -17.2045   26.3414 O   0  0  0  0  0  0  0  0  0  0  0  0
   11.2888  -17.8453   24.2383 O   0  0  0  0  0  0  0  0  0  0  0  0
  2  1  1  0
  3  2  1  0
  3  4  1  1
  5  3  1  0
  5  6  1  6
  7  8  2  0
  7  5  1  0
  9  7  1  0
 10 16  1  0
 10  9  1  0
 10 11  1  1
 12 11  1  0
 12 13  1  0
 14 13  1  0
 14 15  1  0
 16 17  2  0
 18 19  1  0
 18 16  1  0
 19 20  1  1
 20 21  1  0
 21 22  2  0
 21 29  1  0
 22 23  1  0
 23 24  1  0
 24 25  2  0
 25 26  1  0
 27 26  2  0
 28 27  1  0
 29 28  2  0
 29 24  1  0
 30 19  1  0
 31 30  2  0
 32 30  1  0
M  END
$$$$
