IKW.pdb
     RDKit          3D

 32 33  0  0  1  0  0  0  0  0999 V2000
    8.3765  -11.9799   20.3819 C   0  0  0  0  0  0  0  0  0  0  0  0
    7.8170  -13.3489   20.1725 C   0  0  0  0  0  0  0  0  0  0  0  0
    8.8076  -14.2639   19.4257 C   0  0  2  0  0  0  0  0  0  0  0  0
    9.1048  -13.6805   18.0841 C   0  0  0  0  0  0  0  0  0  0  0  0
    8.1354  -15.6157   19.3954 C   0  0  2  0  0  0  0  0  0  0  0  0
    6.9089  -15.4060   18.6099 N   0  0  0  0  0  0  0  0  0  0  0  0
    7.8250  -16.1860   20.7065 C   0  0  0  0  0  0  0  0  0  0  0  0
    6.7075  -15.8945   21.2658 O   0  0  0  0  0  0  0  0  0  0  0  0
    8.6377  -17.0579   21.4673 N   0  0  0  0  0  0  0  0  0  0  0  0
    8.2179  -17.6188   22.7416 C   0  0  1  0  0  0  0  0  0  0  0  0
    8.0434  -19.1183   22.6988 C   0  0  0  0  0  0  0  0  0  0  0  0
    7.7035  -19.6689   24.0642 C   0  0  0  0  0  0  0  0  0  0  0  0
    7.7031  -21.1693   24.0380 C   0  0  0  0  0  0  0  0  0  0  0  0
    7.0773  -21.7848   25.2655 C   0  0  0  0  0  0  0  0  0  0  0  0
    7.2461  -23.2395   25.1245 N   0  0  0  0  0  0  0  0  0  0  0  0
    9.2371  -17.2338   23.7874 C   0  0  0  0  0  0  0  0  0  0  0  0
   10.4655  -17.3319   23.5490 O   0  0  0  0  0  0  0  0  0  0  0  0
    8.8287  -16.7539   25.0596 N   0  0  0  0  0  0  0  0  0  0  0  0
    9.7237  -16.4255   26.1449 C   0  0  1  0  0  0  0  0  0  0  0  0
    9.1483  -15.4668   27.1219 C   0  0  0  0  0  0  0  0  0  0  0  0
    7.8987  -14.8783   26.6058 C   0  0  0  0  0  0  0  0  0  0  0  0
    6.8200  -15.5631   26.0924 C   0  0  0  0  0  0  0  0  0  0  0  0
    5.8874  -14.6860   25.7275 N   0  0  0  0  0  0  0  0  0  0  0  0
    6.3374  -13.4363   25.9932 C   0  0  0  0  0  0  0  0  0  0  0  0
    5.7268  -12.2099   25.7885 C   0  0  0  0  0  0  0  0  0  0  0  0
    6.4054  -11.0653   26.1487 C   0  0  0  0  0  0  0  0  0  0  0  0
    7.6739  -11.1654   26.7037 C   0  0  0  0  0  0  0  0  0  0  0  0
    8.2957  -12.3740   26.9145 C   0  0  0  0  0  0  0  0  0  0  0  0
    7.6065  -13.5336   26.5488 C   0  0  0  0  0  0  0  0  0  0  0  0
   10.2712  -17.6766   26.7683 C   0  0  0  0  0  0  0  0  0  0  0  0
    9.5409  -18.5179   27.3360 O   0  0  0  0  0  0  0  0  0  0  0  0
   11.6248  -17.9478   26.7356 O   0  0  0  0  0  0  0  0  0  0  0  0
  2  1  1  0
  3  2  1  0
  3  4  1  6
  5  3  1  0
  5  6  1  6
  7  8  2  0
  7  5  1  0
  9  7  1  0
 10 16  1  0
 10  9  1  0
 10 11  1  6
 12 11  1  0
 12 13  1  0
 14 13  1  0
 14 15  1  0
 16 17  2  0
 18 19  1  0
 18 16  1  0
 19 20  1  1
 20 21  1  0
 21 22  2  0
 21 29  1  0
 22 23  1  0
 23 24  1  0
 24 25  2  0
 25 26  1  0
 27 26  2  0
 28 27  1  0
 29 28  2  0
 29 24  1  0
 30 19  1  0
 31 30  2  0
 32 30  1  0
M  END
$$$$
