IKW.pdb
     RDKit          3D

 32 33  0  0  1  0  0  0  0  0999 V2000
    6.8339  -12.2384   21.6406 C   0  0  0  0  0  0  0  0  0  0  0  0
    6.8422  -13.6807   21.2523 C   0  0  0  0  0  0  0  0  0  0  0  0
    7.9352  -13.9861   20.2090 C   0  0  2  0  0  0  0  0  0  0  0  0
    7.7432  -13.1055   19.0190 C   0  0  0  0  0  0  0  0  0  0  0  0
    7.8017  -15.4647   19.9330 C   0  0  2  0  0  0  0  0  0  0  0  0
    6.4356  -15.6256   19.4102 N   0  0  0  0  0  0  0  0  0  0  0  0
    8.0256  -16.3360   21.0867 C   0  0  0  0  0  0  0  0  0  0  0  0
    7.0348  -16.6352   21.8452 O   0  0  0  0  0  0  0  0  0  0  0  0
    9.2511  -16.9165   21.4873 N   0  0  0  0  0  0  0  0  0  0  0  0
    9.3644  -17.8195   22.6216 C   0  0  1  0  0  0  0  0  0  0  0  0
   10.3312  -18.9542   22.3797 C   0  0  0  0  0  0  0  0  0  0  0  0
   10.3525  -19.9132   23.5471 C   0  0  0  0  0  0  0  0  0  0  0  0
   11.2723  -21.0642   23.2619 C   0  0  0  0  0  0  0  0  0  0  0  0
   11.2572  -22.1184   24.3416 C   0  0  0  0  0  0  0  0  0  0  0  0
   12.1911  -23.1668   23.9021 N   0  0  0  0  0  0  0  0  0  0  0  0
    9.7842  -17.0141   23.8281 C   0  0  0  0  0  0  0  0  0  0  0  0
   10.6624  -16.1230   23.7275 O   0  0  0  0  0  0  0  0  0  0  0  0
    9.1960  -17.2470   25.0991 N   0  0  0  0  0  0  0  0  0  0  0  0
    9.6797  -16.7006   26.3458 C   0  0  1  0  0  0  0  0  0  0  0  0
    8.5982  -16.3418   27.2980 C   0  0  0  0  0  0  0  0  0  0  0  0
    7.6658  -15.3734   26.6924 C   0  0  0  0  0  0  0  0  0  0  0  0
    6.5168  -15.6677   25.9929 C   0  0  0  0  0  0  0  0  0  0  0  0
    5.9480  -14.5297   25.6011 N   0  0  0  0  0  0  0  0  0  0  0  0
    6.7058  -13.4932   26.0325 C   0  0  0  0  0  0  0  0  0  0  0  0
    6.5218  -12.1300   25.8698 C   0  0  0  0  0  0  0  0  0  0  0  0
    7.4510  -11.2681   26.4122 C   0  0  0  0  0  0  0  0  0  0  0  0
    8.5406  -11.7801   27.1035 C   0  0  0  0  0  0  0  0  0  0  0  0
    8.7395  -13.1302   27.2752 C   0  0  0  0  0  0  0  0  0  0  0  0
    7.7967  -14.0028   26.7246 C   0  0  0  0  0  0  0  0  0  0  0  0
   10.7375  -17.5902   26.9315 C   0  0  0  0  0  0  0  0  0  0  0  0
   11.0010  -18.7183   26.4609 O   0  0  0  0  0  0  0  0  0  0  0  0
   11.4707  -17.1867   28.0299 O   0  0  0  0  0  0  0  0  0  0  0  0
  2  1  1  0
  3  2  1  0
  3  4  1  6
  5  3  1  0
  5  6  1  1
  7  8  2  0
  7  5  1  0
  9  7  1  0
 10 16  1  0
 10  9  1  0
 10 11  1  6
 12 11  1  0
 12 13  1  0
 14 13  1  0
 14 15  1  0
 16 17  2  0
 18 19  1  0
 18 16  1  0
 19 20  1  1
 20 21  1  0
 21 22  2  0
 21 29  1  0
 22 23  1  0
 23 24  1  0
 24 25  2  0
 25 26  1  0
 27 26  2  0
 28 27  1  0
 29 28  2  0
 29 24  1  0
 30 19  1  0
 31 30  2  0
 32 30  1  0
M  END
$$$$
