ALI.pdb
     RDKit          3D

 22 21  0  0  1  0  0  0  0  0999 V2000
    7.7544  -13.4846   20.3812 C   0  0  0  0  0  0  0  0  0  0  0  0
    7.6473  -14.8140   21.0606 C   0  0  2  0  0  0  0  0  0  0  0  0
    6.2943  -15.2581   21.1750 N   0  0  0  0  0  0  0  0  0  0  0  0
    8.3339  -14.8040   22.4080 C   0  0  0  0  0  0  0  0  0  0  0  0
    9.5824  -14.7341   22.4492 O   0  0  0  0  0  0  0  0  0  0  0  0
    8.2872  -12.1542   26.1402 C   0  0  0  0  0  0  0  0  0  0  0  0
    6.9698  -12.8329   25.7253 C   0  0  2  0  0  0  0  0  0  0  0  0
    5.8395  -12.2172   26.4923 C   0  0  0  0  0  0  0  0  0  0  0  0
    7.0718  -14.3223   25.9255 C   0  0  0  0  0  0  0  0  0  0  0  0
    8.0575  -14.9047   24.9529 C   0  0  2  0  0  0  0  0  0  0  0  0
    7.5877  -14.8719   23.6021 N   0  0  0  0  0  0  0  0  0  0  0  0
    8.7199  -16.1341   25.3592 C   0  0  0  0  0  0  0  0  0  0  0  0
    7.9925  -17.1897   25.3862 O   0  0  0  0  0  0  0  0  0  0  0  0
   13.1388  -17.4676   23.1610 C   0  0  0  0  0  0  0  0  0  0  0  0
   11.8377  -17.3718   23.9239 C   0  0  0  0  0  0  0  0  0  0  0  0
   12.0232  -17.6917   25.3917 C   0  0  2  0  0  0  0  0  0  0  0  0
   12.4720  -19.0979   25.6223 C   0  0  0  0  0  0  0  0  0  0  0  0
   10.6396  -17.5460   26.0359 C   0  0  2  0  0  0  0  0  0  0  0  0
   10.0660  -16.2636   25.7189 N   0  0  0  0  0  0  0  0  0  0  0  0
   10.7431  -17.7578   27.5069 C   0  0  0  0  0  0  0  0  0  0  0  0
   10.8100  -16.7986   28.3219 O   0  0  0  0  0  0  0  0  0  0  0  0
   10.7699  -19.0385   28.0389 O   0  0  0  0  0  0  0  0  0  0  0  0
  2  1  1  1
  3  2  1  0
  4  2  1  0
  4 11  1  0
  5  4  2  0
  7  6  1  1
  7  9  1  0
  8  7  1  0
 10  9  1  1
 10 11  1  0
 10 12  1  0
 12 19  1  0
 13 12  2  0
 14 15  1  0
 16 17  1  6
 16 15  1  0
 16 18  1  0
 18 20  1  0
 18 19  1  1
 20 21  2  0
 20 22  1  0
M  END
$$$$
