ALI.pdb
     RDKit          3D

 22 21  0  0  1  0  0  0  0  0999 V2000
   11.4332  -18.9090   20.6675 C   0  0  0  0  0  0  0  0  0  0  0  0
   11.5046  -17.4749   20.2449 C   0  0  2  0  0  0  0  0  0  0  0  0
   12.7826  -17.1299   19.7076 N   0  0  0  0  0  0  0  0  0  0  0  0
   11.1183  -16.5454   21.3734 C   0  0  0  0  0  0  0  0  0  0  0  0
   12.0126  -16.1173   22.1364 O   0  0  0  0  0  0  0  0  0  0  0  0
    8.5769  -12.8299   21.4103 C   0  0  0  0  0  0  0  0  0  0  0  0
    7.7710  -14.1163   21.1571 C   0  0  2  0  0  0  0  0  0  0  0  0
    6.3830  -13.7478   20.7296 C   0  0  0  0  0  0  0  0  0  0  0  0
    7.7943  -14.9893   22.3843 C   0  0  0  0  0  0  0  0  0  0  0  0
    9.1984  -15.4444   22.6639 C   0  0  2  0  0  0  0  0  0  0  0  0
    9.7757  -16.1627   21.5696 N   0  0  0  0  0  0  0  0  0  0  0  0
    9.4486  -16.0010   23.9840 C   0  0  0  0  0  0  0  0  0  0  0  0
    9.7132  -17.2548   24.0317 O   0  0  0  0  0  0  0  0  0  0  0  0
    9.9110  -12.5698   28.2051 C   0  0  0  0  0  0  0  0  0  0  0  0
   10.1863  -13.6750   27.2116 C   0  0  0  0  0  0  0  0  0  0  0  0
    9.5157  -14.9709   27.6139 C   0  0  2  0  0  0  0  0  0  0  0  0
   10.1398  -15.5918   28.8210 C   0  0  0  0  0  0  0  0  0  0  0  0
    9.7284  -15.9395   26.4447 C   0  0  2  0  0  0  0  0  0  0  0  0
    9.4262  -15.2956   25.1924 N   0  0  0  0  0  0  0  0  0  0  0  0
    8.9069  -17.1654   26.6493 C   0  0  0  0  0  0  0  0  0  0  0  0
    9.3090  -18.1367   27.3447 O   0  0  0  0  0  0  0  0  0  0  0  0
    7.6510  -17.2820   26.0720 O   0  0  0  0  0  0  0  0  0  0  0  0
  2  1  1  1
  3  2  1  0
  4  2  1  0
  4 11  1  0
  5  4  2  0
  7  6  1  1
  7  9  1  0
  8  7  1  0
 10  9  1  6
 10 11  1  0
 10 12  1  0
 12 19  1  0
 13 12  2  0
 14 15  1  0
 16 17  1  1
 16 15  1  0
 16 18  1  0
 18 20  1  0
 18 19  1  6
 20 21  2  0
 20 22  1  0
M  END
$$$$
