ALI.pdb
     RDKit          3D

 22 21  0  0  1  0  0  0  0  0999 V2000
   11.7280  -18.9491   20.6190 C   0  0  0  0  0  0  0  0  0  0  0  0
   11.5796  -17.5039   20.2590 C   0  0  2  0  0  0  0  0  0  0  0  0
   12.7656  -16.9659   19.6716 N   0  0  0  0  0  0  0  0  0  0  0  0
   11.1374  -16.6799   21.4474 C   0  0  0  0  0  0  0  0  0  0  0  0
   12.0078  -16.1986   22.2063 O   0  0  0  0  0  0  0  0  0  0  0  0
    8.1718  -13.2668   21.3431 C   0  0  0  0  0  0  0  0  0  0  0  0
    7.5447  -14.6672   21.2245 C   0  0  2  0  0  0  0  0  0  0  0  0
    6.1108  -14.5278   20.8126 C   0  0  0  0  0  0  0  0  0  0  0  0
    7.7127  -15.4187   22.5189 C   0  0  0  0  0  0  0  0  0  0  0  0
    9.1676  -15.7031   22.7623 C   0  0  2  0  0  0  0  0  0  0  0  0
    9.7697  -16.4531   21.7033 N   0  0  0  0  0  0  0  0  0  0  0  0
    9.5314  -16.1128   24.1095 C   0  0  0  0  0  0  0  0  0  0  0  0
    9.9476  -17.3181   24.2444 O   0  0  0  0  0  0  0  0  0  0  0  0
    9.7581  -12.2567   27.8298 C   0  0  0  0  0  0  0  0  0  0  0  0
   10.1188  -13.4573   26.9855 C   0  0  0  0  0  0  0  0  0  0  0  0
    9.6671  -14.7511   27.6281 C   0  0  2  0  0  0  0  0  0  0  0  0
   10.5256  -15.1505   28.7839 C   0  0  0  0  0  0  0  0  0  0  0  0
    9.8202  -15.8344   26.5541 C   0  0  2  0  0  0  0  0  0  0  0  0
    9.4676  -15.3155   25.2577 N   0  0  0  0  0  0  0  0  0  0  0  0
    8.9992  -17.0236   26.9163 C   0  0  0  0  0  0  0  0  0  0  0  0
    7.7902  -17.1352   26.5778 O   0  0  0  0  0  0  0  0  0  0  0  0
    9.5458  -18.0659   27.6504 O   0  0  0  0  0  0  0  0  0  0  0  0
  2  1  1  1
  3  2  1  0
  4  2  1  0
  4 11  1  0
  5  4  2  0
  7  6  1  1
  7  9  1  0
  8  7  1  0
 10  9  1  1
 10 11  1  0
 10 12  1  0
 12 19  1  0
 13 12  2  0
 14 15  1  0
 16 17  1  1
 16 15  1  0
 16 18  1  0
 18 20  1  0
 18 19  1  6
 20 21  2  0
 20 22  1  0
M  END
$$$$
