ALI.pdb
     RDKit          3D

 22 21  0  0  1  0  0  0  0  0999 V2000
    7.9829  -19.5716   23.1011 C   0  0  0  0  0  0  0  0  0  0  0  0
    7.5670  -18.4196   22.2406 C   0  0  2  0  0  0  0  0  0  0  0  0
    7.9082  -18.6164   20.8673 N   0  0  0  0  0  0  0  0  0  0  0  0
    8.1231  -17.1123   22.7589 C   0  0  0  0  0  0  0  0  0  0  0  0
    9.2865  -16.7817   22.4391 O   0  0  0  0  0  0  0  0  0  0  0  0
    5.9525  -12.4814   26.4101 C   0  0  0  0  0  0  0  0  0  0  0  0
    7.0742  -13.0854   25.5468 C   0  0  2  0  0  0  0  0  0  0  0  0
    7.5501  -12.0530   24.5708 C   0  0  0  0  0  0  0  0  0  0  0  0
    6.5889  -14.3449   24.8783 C   0  0  0  0  0  0  0  0  0  0  0  0
    7.7518  -15.1004   24.3008 C   0  0  2  0  0  0  0  0  0  0  0  0
    7.3506  -16.2745   23.5888 N   0  0  0  0  0  0  0  0  0  0  0  0
    8.9167  -15.2516   25.1583 C   0  0  0  0  0  0  0  0  0  0  0  0
    9.7609  -14.2866   25.1462 O   0  0  0  0  0  0  0  0  0  0  0  0
    9.8048  -13.3716   29.2165 C   0  0  0  0  0  0  0  0  0  0  0  0
   10.0531  -14.1715   27.9585 C   0  0  0  0  0  0  0  0  0  0  0  0
    9.9428  -15.6601   28.2094 C   0  0  2  0  0  0  0  0  0  0  0  0
   10.9075  -16.1429   29.2431 C   0  0  0  0  0  0  0  0  0  0  0  0
   10.3158  -16.3419   26.8878 C   0  0  2  0  0  0  0  0  0  0  0  0
    9.1931  -16.3459   25.9857 N   0  0  0  0  0  0  0  0  0  0  0  0
   10.8165  -17.7194   27.1545 C   0  0  0  0  0  0  0  0  0  0  0  0
   12.0034  -17.9465   27.5130 O   0  0  0  0  0  0  0  0  0  0  0  0
    9.9803  -18.8174   27.0151 O   0  0  0  0  0  0  0  0  0  0  0  0
  2  1  1  1
  3  2  1  0
  4  2  1  0
  4 11  1  0
  5  4  2  0
  7  6  1  6
  7  9  1  0
  8  7  1  0
 10  9  1  1
 10 11  1  0
 10 12  1  0
 12 19  1  0
 13 12  2  0
 14 15  1  0
 16 17  1  1
 16 15  1  0
 16 18  1  0
 18 20  1  0
 18 19  1  6
 20 21  2  0
 20 22  1  0
M  END
$$$$
