ALI.pdb
     RDKit          3D

 22 21  0  0  1  0  0  0  0  0999 V2000
    8.8976  -15.4577   19.6916 C   0  0  0  0  0  0  0  0  0  0  0  0
    8.6904  -16.4502   20.7926 C   0  0  2  0  0  0  0  0  0  0  0  0
    7.3423  -16.9191   20.8546 N   0  0  0  0  0  0  0  0  0  0  0  0
    9.1377  -15.8978   22.1274 C   0  0  0  0  0  0  0  0  0  0  0  0
   10.3209  -15.5123   22.2557 O   0  0  0  0  0  0  0  0  0  0  0  0
    7.9892  -12.4340   24.8220 C   0  0  0  0  0  0  0  0  0  0  0  0
    6.8022  -13.3960   24.6377 C   0  0  2  0  0  0  0  0  0  0  0  0
    5.5985  -12.8246   25.3231 C   0  0  0  0  0  0  0  0  0  0  0  0
    7.1675  -14.7679   25.1408 C   0  0  0  0  0  0  0  0  0  0  0  0
    8.4475  -15.2252   24.5011 C   0  0  2  0  0  0  0  0  0  0  0  0
    8.2432  -15.8150   23.2138 N   0  0  0  0  0  0  0  0  0  0  0  0
    9.3944  -15.9124   25.3650 C   0  0  0  0  0  0  0  0  0  0  0  0
    9.6916  -17.1164   25.0390 O   0  0  0  0  0  0  0  0  0  0  0  0
   10.6578  -14.0980   30.4060 C   0  0  0  0  0  0  0  0  0  0  0  0
   10.4761  -15.2404   29.4334 C   0  0  0  0  0  0  0  0  0  0  0  0
   11.5660  -15.2619   28.3832 C   0  0  2  0  0  0  0  0  0  0  0  0
   11.8682  -13.9035   27.8392 C   0  0  0  0  0  0  0  0  0  0  0  0
   11.0213  -16.1037   27.2235 C   0  0  2  0  0  0  0  0  0  0  0  0
   10.0023  -15.3802   26.5076 N   0  0  0  0  0  0  0  0  0  0  0  0
   10.5160  -17.4066   27.7395 C   0  0  0  0  0  0  0  0  0  0  0  0
   11.2894  -18.3151   28.1460 O   0  0  0  0  0  0  0  0  0  0  0  0
    9.1549  -17.6692   27.7913 O   0  0  0  0  0  0  0  0  0  0  0  0
  2  1  1  6
  3  2  1  0
  4  2  1  0
  4 11  1  0
  5  4  2  0
  7  6  1  1
  7  9  1  0
  8  7  1  0
 10  9  1  1
 10 11  1  0
 10 12  1  0
 12 19  1  0
 13 12  2  0
 14 15  1  0
 16 17  1  6
 16 15  1  0
 16 18  1  0
 18 20  1  0
 18 19  1  1
 20 21  2  0
 20 22  1  0
M  END
$$$$
