ALI.pdb
     RDKit          3D

 22 21  0  0  1  0  0  0  0  0999 V2000
    7.7564  -13.9812   20.5038 C   0  0  0  0  0  0  0  0  0  0  0  0
    7.4966  -15.1340   21.4224 C   0  0  2  0  0  0  0  0  0  0  0  0
    6.1042  -15.3153   21.6862 N   0  0  0  0  0  0  0  0  0  0  0  0
    8.2831  -15.0058   22.7077 C   0  0  0  0  0  0  0  0  0  0  0  0
    9.5326  -14.9814   22.6514 O   0  0  0  0  0  0  0  0  0  0  0  0
    8.3112  -11.8233   25.5914 C   0  0  0  0  0  0  0  0  0  0  0  0
    7.0367  -12.6851   25.6282 C   0  0  2  0  0  0  0  0  0  0  0  0
    5.9714  -11.9510   26.3839 C   0  0  0  0  0  0  0  0  0  0  0  0
    7.3456  -14.0376   26.2147 C   0  0  0  0  0  0  0  0  0  0  0  0
    8.1968  -14.8280   25.2620 C   0  0  2  0  0  0  0  0  0  0  0  0
    7.6274  -14.9147   23.9524 N   0  0  0  0  0  0  0  0  0  0  0  0
    8.7774  -16.0573   25.7785 C   0  0  0  0  0  0  0  0  0  0  0  0
    7.9724  -17.0422   25.9403 O   0  0  0  0  0  0  0  0  0  0  0  0
   13.1300  -17.8223   23.7401 C   0  0  0  0  0  0  0  0  0  0  0  0
   11.8065  -17.7207   24.4626 C   0  0  0  0  0  0  0  0  0  0  0  0
   11.9746  -17.8450   25.9617 C   0  0  2  0  0  0  0  0  0  0  0  0
   12.3432  -19.2290   26.3871 C   0  0  0  0  0  0  0  0  0  0  0  0
   10.6021  -17.5342   26.5699 C   0  0  2  0  0  0  0  0  0  0  0  0
   10.1222  -16.2564   26.1103 N   0  0  0  0  0  0  0  0  0  0  0  0
   10.6839  -17.5927   28.0563 C   0  0  0  0  0  0  0  0  0  0  0  0
   10.7274  -18.6839   28.6856 O   0  0  0  0  0  0  0  0  0  0  0  0
   10.7156  -16.4294   28.8112 O   0  0  0  0  0  0  0  0  0  0  0  0
  2  1  1  6
  3  2  1  0
  4  2  1  0
  4 11  1  0
  5  4  2  0
  7  6  1  1
  7  9  1  0
  8  7  1  0
 10  9  1  1
 10 11  1  0
 10 12  1  0
 12 19  1  0
 13 12  2  0
 14 15  1  0
 16 17  1  6
 16 15  1  0
 16 18  1  0
 18 20  1  0
 18 19  1  1
 20 21  2  0
 20 22  1  0
M  END
$$$$
