ALI.pdb
     RDKit          3D

 22 21  0  0  1  0  0  0  0  0999 V2000
    9.6310  -16.2115   19.3809 C   0  0  0  0  0  0  0  0  0  0  0  0
    9.2962  -16.9493   20.6395 C   0  0  2  0  0  0  0  0  0  0  0  0
    8.0008  -17.5496   20.5890 N   0  0  0  0  0  0  0  0  0  0  0  0
    9.4393  -16.0622   21.8559 C   0  0  0  0  0  0  0  0  0  0  0  0
   10.5398  -15.5085   22.0736 O   0  0  0  0  0  0  0  0  0  0  0  0
    5.6197  -13.4182   26.0327 C   0  0  0  0  0  0  0  0  0  0  0  0
    7.0084  -13.5913   25.3926 C   0  0  2  0  0  0  0  0  0  0  0  0
    7.5112  -12.2526   24.9451 C   0  0  0  0  0  0  0  0  0  0  0  0
    6.9383  -14.5958   24.2725 C   0  0  0  0  0  0  0  0  0  0  0  0
    8.3159  -15.0989   23.9471 C   0  0  2  0  0  0  0  0  0  0  0  0
    8.3562  -15.8573   22.7347 N   0  0  0  0  0  0  0  0  0  0  0  0
    9.0861  -15.6418   25.0549 C   0  0  0  0  0  0  0  0  0  0  0  0
    9.0474  -16.9147   25.2046 O   0  0  0  0  0  0  0  0  0  0  0  0
   11.2168  -14.4423   30.6248 C   0  0  0  0  0  0  0  0  0  0  0  0
   11.2502  -15.2982   29.3796 C   0  0  0  0  0  0  0  0  0  0  0  0
   10.8827  -14.5053   28.1438 C   0  0  2  0  0  0  0  0  0  0  0  0
    9.6774  -13.6463   28.3481 C   0  0  0  0  0  0  0  0  0  0  0  0
   10.5266  -15.5375   27.0677 C   0  0  2  0  0  0  0  0  0  0  0  0
    9.8566  -14.9045   25.9610 N   0  0  0  0  0  0  0  0  0  0  0  0
    9.7023  -16.6252   27.6649 C   0  0  0  0  0  0  0  0  0  0  0  0
    8.4539  -16.5236   27.8059 O   0  0  0  0  0  0  0  0  0  0  0  0
   10.2898  -17.8065   28.0933 O   0  0  0  0  0  0  0  0  0  0  0  0
  2  1  1  6
  3  2  1  0
  4  2  1  0
  4 11  1  0
  5  4  2  0
  7  6  1  6
  7  9  1  0
  8  7  1  0
 10  9  1  1
 10 11  1  0
 10 12  1  0
 12 19  1  0
 13 12  2  0
 14 15  1  0
 16 17  1  1
 16 15  1  0
 16 18  1  0
 18 20  1  0
 18 19  1  6
 20 21  2  0
 20 22  1  0
M  END
$$$$
