ALI.pdb
     RDKit          3D

 22 21  0  0  1  0  0  0  0  0999 V2000
    8.2353  -15.0618   19.6786 C   0  0  0  0  0  0  0  0  0  0  0  0
    8.3297  -16.1180   20.7349 C   0  0  2  0  0  0  0  0  0  0  0  0
    7.1190  -16.8651   20.8660 N   0  0  0  0  0  0  0  0  0  0  0  0
    8.7579  -15.5357   22.0632 C   0  0  0  0  0  0  0  0  0  0  0  0
    9.8736  -14.9756   22.1458 O   0  0  0  0  0  0  0  0  0  0  0  0
    7.7340  -12.4018   25.1348 C   0  0  0  0  0  0  0  0  0  0  0  0
    6.5162  -13.3142   24.9046 C   0  0  2  0  0  0  0  0  0  0  0  0
    5.3647  -12.8079   25.7187 C   0  0  0  0  0  0  0  0  0  0  0  0
    6.8750  -14.7425   25.2208 C   0  0  0  0  0  0  0  0  0  0  0  0
    8.1468  -15.1203   24.5162 C   0  0  2  0  0  0  0  0  0  0  0  0
    7.9205  -15.6182   23.1943 N   0  0  0  0  0  0  0  0  0  0  0  0
    9.1320  -15.8463   25.3021 C   0  0  0  0  0  0  0  0  0  0  0  0
    9.3913  -17.0436   24.9233 O   0  0  0  0  0  0  0  0  0  0  0  0
   10.6859  -14.3251   30.4611 C   0  0  0  0  0  0  0  0  0  0  0  0
   10.2614  -15.1968   29.3017 C   0  0  0  0  0  0  0  0  0  0  0  0
   11.3803  -15.3807   28.2990 C   0  0  2  0  0  0  0  0  0  0  0  0
   11.8816  -14.0841   27.7513 C   0  0  0  0  0  0  0  0  0  0  0  0
   10.7761  -16.1640   27.1278 C   0  0  2  0  0  0  0  0  0  0  0  0
    9.8136  -15.3577   26.4223 N   0  0  0  0  0  0  0  0  0  0  0  0
   10.1759  -17.4333   27.6259 C   0  0  0  0  0  0  0  0  0  0  0  0
    8.9299  -17.5938   27.7286 O   0  0  0  0  0  0  0  0  0  0  0  0
   10.9806  -18.4995   27.9998 O   0  0  0  0  0  0  0  0  0  0  0  0
  2  1  1  6
  3  2  1  0
  4  2  1  0
  4 11  1  0
  5  4  2  0
  7  6  1  1
  7  9  1  0
  8  7  1  0
 10  9  1  1
 10 11  1  0
 10 12  1  0
 12 19  1  0
 13 12  2  0
 14 15  1  0
 16 17  1  6
 16 15  1  0
 16 18  1  0
 18 20  1  0
 18 19  1  1
 20 21  2  0
 20 22  1  0
M  END
$$$$
