ALI.pdb
     RDKit          3D

 22 21  0  0  1  0  0  0  0  0999 V2000
    6.1451  -19.4187   24.9999 C   0  0  0  0  0  0  0  0  0  0  0  0
    6.0714  -18.5462   23.7860 C   0  0  2  0  0  0  0  0  0  0  0  0
    6.0508  -19.3022   22.5739 N   0  0  0  0  0  0  0  0  0  0  0  0
    7.1846  -17.5227   23.7715 C   0  0  0  0  0  0  0  0  0  0  0  0
    8.3257  -17.8765   23.4000 O   0  0  0  0  0  0  0  0  0  0  0  0
    5.6662  -12.7473   25.9399 C   0  0  0  0  0  0  0  0  0  0  0  0
    7.0913  -13.2404   25.6329 C   0  0  2  0  0  0  0  0  0  0  0  0
    8.0611  -12.1295   25.8984 C   0  0  0  0  0  0  0  0  0  0  0  0
    7.1647  -13.7579   24.2203 C   0  0  0  0  0  0  0  0  0  0  0  0
    7.8614  -15.0887   24.1968 C   0  0  2  0  0  0  0  0  0  0  0  0
    6.9494  -16.1905   24.1682 N   0  0  0  0  0  0  0  0  0  0  0  0
    9.0022  -15.2390   25.0862 C   0  0  0  0  0  0  0  0  0  0  0  0
    9.9265  -14.3566   24.9796 O   0  0  0  0  0  0  0  0  0  0  0  0
    9.3069  -13.8111   29.5984 C   0  0  0  0  0  0  0  0  0  0  0  0
    9.7535  -14.3618   28.2637 C   0  0  0  0  0  0  0  0  0  0  0  0
    9.9664  -15.8594   28.3175 C   0  0  2  0  0  0  0  0  0  0  0  0
   11.1048  -16.2477   29.2038 C   0  0  0  0  0  0  0  0  0  0  0  0
   10.3352  -16.2871   26.8923 C   0  0  2  0  0  0  0  0  0  0  0  0
    9.1769  -16.2507   26.0371 N   0  0  0  0  0  0  0  0  0  0  0  0
   10.9625  -17.6381   26.9173 C   0  0  0  0  0  0  0  0  0  0  0  0
   12.1552  -17.8197   27.2825 O   0  0  0  0  0  0  0  0  0  0  0  0
   10.2442  -18.7609   26.5333 O   0  0  0  0  0  0  0  0  0  0  0  0
  2  1  1  1
  3  2  1  0
  4  2  1  0
  4 11  1  0
  5  4  2  0
  7  6  1  6
  7  9  1  0
  8  7  1  0
 10  9  1  1
 10 11  1  0
 10 12  1  0
 12 19  1  0
 13 12  2  0
 14 15  1  0
 16 17  1  1
 16 15  1  0
 16 18  1  0
 18 20  1  0
 18 19  1  6
 20 21  2  0
 20 22  1  0
M  END
$$$$
