ALI.pdb
     RDKit          3D

 22 21  0  0  1  0  0  0  0  0999 V2000
    9.0773  -19.7054   21.6265 C   0  0  0  0  0  0  0  0  0  0  0  0
    9.0666  -18.6111   20.6053 C   0  0  2  0  0  0  0  0  0  0  0  0
    9.8605  -18.9284   19.4607 N   0  0  0  0  0  0  0  0  0  0  0  0
    9.4825  -17.2878   21.2077 C   0  0  0  0  0  0  0  0  0  0  0  0
   10.5663  -17.2209   21.8290 O   0  0  0  0  0  0  0  0  0  0  0  0
    8.9332  -12.9333   19.4718 C   0  0  0  0  0  0  0  0  0  0  0  0
    7.6467  -13.6613   19.8999 C   0  0  2  0  0  0  0  0  0  0  0  0
    6.4610  -12.8471   19.4799 C   0  0  0  0  0  0  0  0  0  0  0  0
    7.6766  -13.9330   21.3811 C   0  0  0  0  0  0  0  0  0  0  0  0
    8.8055  -14.8683   21.7088 C   0  0  2  0  0  0  0  0  0  0  0  0
    8.6688  -16.1442   21.0762 N   0  0  0  0  0  0  0  0  0  0  0  0
    9.2416  -14.8971   23.0959 C   0  0  0  0  0  0  0  0  0  0  0  0
   10.3611  -14.3268   23.3521 O   0  0  0  0  0  0  0  0  0  0  0  0
    6.8551  -12.1251   27.3546 C   0  0  0  0  0  0  0  0  0  0  0  0
    7.7882  -13.2782   27.0653 C   0  0  0  0  0  0  0  0  0  0  0  0
    7.5515  -13.8594   25.6879 C   0  0  2  0  0  0  0  0  0  0  0  0
    6.2208  -14.5277   25.5658 C   0  0  0  0  0  0  0  0  0  0  0  0
    8.6211  -14.9405   25.4939 C   0  0  2  0  0  0  0  0  0  0  0  0
    8.5538  -15.4862   24.1628 N   0  0  0  0  0  0  0  0  0  0  0  0
    8.4658  -15.9962   26.5335 C   0  0  0  0  0  0  0  0  0  0  0  0
    8.6032  -15.7554   27.7631 O   0  0  0  0  0  0  0  0  0  0  0  0
    8.1597  -17.3017   26.1784 O   0  0  0  0  0  0  0  0  0  0  0  0
  2  1  1  1
  3  2  1  0
  4  2  1  0
  4 11  1  0
  5  4  2  0
  7  6  1  1
  7  9  1  0
  8  7  1  0
 10  9  1  1
 10 11  1  0
 10 12  1  0
 12 19  1  0
 13 12  2  0
 14 15  1  0
 16 17  1  1
 16 15  1  0
 16 18  1  0
 18 20  1  0
 18 19  1  6
 20 21  2  0
 20 22  1  0
M  END
$$$$
