TLR.pdb
     RDKit          3D

 27 26  0  0  1  0  0  0  0  0999 V2000
    8.2481  -19.8526   18.0664 C   0  0  0  0  0  0  0  0  0  0  0  0
    8.6740  -19.1750   16.8013 C   0  0  1  0  0  0  0  0  0  0  0  0
    8.2061  -19.8653   15.6798 O   0  0  0  0  0  0  0  0  0  0  0  0
    8.3436  -17.7087   16.7342 C   0  0  2  0  0  0  0  0  0  0  0  0
    8.7029  -17.2180   15.4249 N   0  0  0  0  0  0  0  0  0  0  0  0
    8.9637  -16.9221   17.8016 C   0  0  0  0  0  0  0  0  0  0  0  0
   10.2285  -16.7901   17.7762 O   0  0  0  0  0  0  0  0  0  0  0  0
    6.4924  -12.7822   20.8259 C   0  0  0  0  0  0  0  0  0  0  0  0
    7.4866  -13.4972   19.8848 C   0  0  1  0  0  0  0  0  0  0  0  0
    8.4752  -12.4475   19.4890 C   0  0  0  0  0  0  0  0  0  0  0  0
    8.0133  -14.6439   20.6514 C   0  0  0  0  0  0  0  0  0  0  0  0
    8.8873  -15.6211   19.9587 C   0  0  2  0  0  0  0  0  0  0  0  0
    8.2789  -16.2968   18.8581 N   0  0  0  0  0  0  0  0  0  0  0  0
    9.5963  -16.5438   20.8832 C   0  0  0  0  0  0  0  0  0  0  0  0
    9.0303  -17.5320   21.4240 O   0  0  0  0  0  0  0  0  0  0  0  0
   18.0939  -18.6597   20.6492 N   0  0  0  0  0  0  0  0  0  0  0  0
   17.5486  -19.5276   21.6578 C   0  0  0  0  0  0  0  0  0  0  0  0
   18.3364  -20.4680   22.0667 N   0  0  0  0  0  0  0  0  0  0  0  0
   16.2413  -19.3592   22.1630 N   0  0  0  0  0  0  0  0  0  0  0  0
   15.3826  -18.3610   21.5862 C   0  0  0  0  0  0  0  0  0  0  0  0
   14.0013  -18.3743   22.2481 C   0  0  0  0  0  0  0  0  0  0  0  0
   13.1362  -17.3787   21.5603 C   0  0  0  0  0  0  0  0  0  0  0  0
   11.7210  -17.3277   22.0277 C   0  0  2  0  0  0  0  0  0  0  0  0
   10.9678  -16.3585   21.2107 N   0  0  0  0  0  0  0  0  0  0  0  0
   11.6416  -16.9346   23.4402 C   0  0  0  0  0  0  0  0  0  0  0  0
   12.2162  -17.6743   24.3142 O   0  0  0  0  0  0  0  0  0  0  0  0
   10.9845  -15.8122   23.8832 O   0  0  0  0  0  0  0  0  0  0  0  0
  2  1  1  1
  2  3  1  0
  4  2  1  0
  4  6  1  0
  4  5  1  6
  6 13  1  0
  7  6  2  0
  9  8  1  1
 10  9  1  0
 11  9  1  0
 12 11  1  1
 13 12  1  0
 14 12  1  0
 14 15  2  0
 16 17  1  0
 17 19  1  0
 17 18  2  0
 19 20  1  0
 20 21  1  0
 21 22  1  0
 23 22  1  6
 23 25  1  0
 23 24  1  0
 24 14  1  0
 25 27  1  0
 26 25  2  0
M  END
$$$$
