TLR.pdb
     RDKit          3D

 27 26  0  0  1  0  0  0  0  0999 V2000
    6.8763  -12.2219   20.8264 C   0  0  0  0  0  0  0  0  0  0  0  0
    7.6517  -13.3384   20.1996 C   0  0  1  0  0  0  0  0  0  0  0  0
    7.7868  -13.1447   18.8222 O   0  0  0  0  0  0  0  0  0  0  0  0
    8.9738  -13.6288   20.8565 C   0  0  2  0  0  0  0  0  0  0  0  0
    9.7811  -14.3984   19.9398 N   0  0  0  0  0  0  0  0  0  0  0  0
    8.8461  -14.2875   22.1575 C   0  0  0  0  0  0  0  0  0  0  0  0
    8.8371  -15.5593   22.1745 O   0  0  0  0  0  0  0  0  0  0  0  0
    5.0922  -12.7049   25.8363 C   0  0  0  0  0  0  0  0  0  0  0  0
    6.5417  -12.6113   25.3115 C   0  0  1  0  0  0  0  0  0  0  0  0
    7.2911  -11.8575   26.3631 C   0  0  0  0  0  0  0  0  0  0  0  0
    6.9712  -14.0022   25.0643 C   0  0  0  0  0  0  0  0  0  0  0  0
    8.3678  -14.2489   24.6315 C   0  0  2  0  0  0  0  0  0  0  0  0
    8.7316  -13.6329   23.3962 N   0  0  0  0  0  0  0  0  0  0  0  0
    8.7689  -15.6780   24.7051 C   0  0  0  0  0  0  0  0  0  0  0  0
    7.9532  -16.6231   24.5296 O   0  0  0  0  0  0  0  0  0  0  0  0
   15.1947  -15.6902   20.9722 N   0  0  0  0  0  0  0  0  0  0  0  0
   13.9006  -15.6862   20.3452 C   0  0  0  0  0  0  0  0  0  0  0  0
   13.8547  -15.1507   19.1691 N   0  0  0  0  0  0  0  0  0  0  0  0
   12.7616  -16.2314   20.9760 N   0  0  0  0  0  0  0  0  0  0  0  0
   12.8759  -16.7637   22.3065 C   0  0  0  0  0  0  0  0  0  0  0  0
   11.5264  -17.2872   22.8076 C   0  0  0  0  0  0  0  0  0  0  0  0
   11.6851  -17.7343   24.2175 C   0  0  0  0  0  0  0  0  0  0  0  0
   10.5186  -17.4711   25.1085 C   0  0  2  0  0  0  0  0  0  0  0  0
   10.1109  -16.0597   24.9809 N   0  0  0  0  0  0  0  0  0  0  0  0
   10.8464  -17.7548   26.5113 C   0  0  0  0  0  0  0  0  0  0  0  0
   11.1880  -18.9477   26.8304 O   0  0  0  0  0  0  0  0  0  0  0  0
   10.8098  -16.8106   27.5086 O   0  0  0  0  0  0  0  0  0  0  0  0
  2  1  1  1
  2  3  1  0
  4  2  1  0
  4  6  1  0
  4  5  1  6
  6 13  1  0
  7  6  2  0
  9  8  1  1
 10  9  1  0
 11  9  1  0
 12 11  1  6
 13 12  1  0
 14 12  1  0
 14 15  2  0
 16 17  1  0
 17 19  1  0
 17 18  2  0
 19 20  1  0
 20 21  1  0
 21 22  1  0
 23 22  1  6
 23 25  1  0
 23 24  1  0
 24 14  1  0
 25 27  1  0
 26 25  2  0
M  END
$$$$
