TLR.pdb
     RDKit          3D

 27 26  0  0  1  0  0  0  0  0999 V2000
    6.7399  -17.1105   21.4388 C   0  0  0  0  0  0  0  0  0  0  0  0
    7.5545  -16.1641   20.6133 C   0  0  1  0  0  0  0  0  0  0  0  0
    7.1990  -16.2406   19.2639 O   0  0  0  0  0  0  0  0  0  0  0  0
    7.5605  -14.7442   21.1110 C   0  0  2  0  0  0  0  0  0  0  0  0
    8.2605  -13.9252   20.1500 N   0  0  0  0  0  0  0  0  0  0  0  0
    8.1154  -14.6011   22.4580 C   0  0  0  0  0  0  0  0  0  0  0  0
    9.3804  -14.6486   22.5811 O   0  0  0  0  0  0  0  0  0  0  0  0
    5.8164  -11.6771   26.6451 C   0  0  0  0  0  0  0  0  0  0  0  0
    6.7527  -12.1916   25.5297 C   0  0  1  0  0  0  0  0  0  0  0  0
    7.8598  -11.1894   25.4545 C   0  0  0  0  0  0  0  0  0  0  0  0
    7.1306  -13.5640   25.9222 C   0  0  0  0  0  0  0  0  0  0  0  0
    7.8947  -14.3938   24.9599 C   0  0  2  0  0  0  0  0  0  0  0  0
    7.3673  -14.4149   23.6335 N   0  0  0  0  0  0  0  0  0  0  0  0
    8.2222  -15.7494   25.4735 C   0  0  0  0  0  0  0  0  0  0  0  0
    7.3461  -16.6374   25.6557 O   0  0  0  0  0  0  0  0  0  0  0  0
   12.2975  -20.8129   22.2118 N   0  0  0  0  0  0  0  0  0  0  0  0
   12.4283  -19.5157   21.6053 C   0  0  0  0  0  0  0  0  0  0  0  0
   12.2537  -19.4810   20.3245 N   0  0  0  0  0  0  0  0  0  0  0  0
   12.7271  -18.3623   22.3622 N   0  0  0  0  0  0  0  0  0  0  0  0
   12.6060  -18.4041   23.7940 C   0  0  0  0  0  0  0  0  0  0  0  0
   11.2128  -17.9518   24.2419 C   0  0  0  0  0  0  0  0  0  0  0  0
   11.1802  -17.9181   25.7287 C   0  0  0  0  0  0  0  0  0  0  0  0
    9.8991  -17.4498   26.3313 C   0  0  2  0  0  0  0  0  0  0  0  0
    9.5579  -16.1211   25.7905 N   0  0  0  0  0  0  0  0  0  0  0  0
    9.9989  -17.3657   27.7938 C   0  0  0  0  0  0  0  0  0  0  0  0
   10.0183  -16.2070   28.3399 O   0  0  0  0  0  0  0  0  0  0  0  0
   10.0717  -18.4632   28.6171 O   0  0  0  0  0  0  0  0  0  0  0  0
  2  1  1  1
  2  3  1  0
  4  2  1  0
  4  6  1  0
  4  5  1  6
  6 13  1  0
  7  6  2  0
  9  8  1  1
 10  9  1  0
 11  9  1  0
 12 11  1  1
 13 12  1  0
 14 12  1  0
 14 15  2  0
 16 17  1  0
 17 19  1  0
 17 18  2  0
 19 20  1  0
 20 21  1  0
 21 22  1  0
 23 22  1  6
 23 25  1  0
 23 24  1  0
 24 14  1  0
 25 27  1  0
 26 25  2  0
M  END
$$$$
