TLR.pdb
     RDKit          3D

 27 26  0  0  1  0  0  0  0  0999 V2000
   10.9138  -19.2808   18.4081 C   0  0  0  0  0  0  0  0  0  0  0  0
   10.6634  -17.9507   19.0474 C   0  0  1  0  0  0  0  0  0  0  0  0
    9.9127  -17.1232   18.2078 O   0  0  0  0  0  0  0  0  0  0  0  0
   10.0791  -18.0212   20.4321 C   0  0  2  0  0  0  0  0  0  0  0  0
    8.8714  -18.8106   20.3797 N   0  0  0  0  0  0  0  0  0  0  0  0
    9.8474  -16.7075   21.0347 C   0  0  0  0  0  0  0  0  0  0  0  0
   10.8492  -16.1057   21.5366 O   0  0  0  0  0  0  0  0  0  0  0  0
    6.2079  -12.7913   19.4448 C   0  0  0  0  0  0  0  0  0  0  0  0
    7.4950  -13.5583   19.8197 C   0  0  1  0  0  0  0  0  0  0  0  0
    8.6148  -12.6132   19.5225 C   0  0  0  0  0  0  0  0  0  0  0  0
    7.3278  -13.9603   21.2306 C   0  0  0  0  0  0  0  0  0  0  0  0
    8.3418  -14.8540   21.8403 C   0  0  2  0  0  0  0  0  0  0  0  0
    8.6070  -16.0499   21.1073 N   0  0  0  0  0  0  0  0  0  0  0  0
    8.1219  -15.1007   23.2893 C   0  0  0  0  0  0  0  0  0  0  0  0
    7.0232  -14.8638   23.8603 O   0  0  0  0  0  0  0  0  0  0  0  0
    5.6471  -22.0701   25.7498 N   0  0  0  0  0  0  0  0  0  0  0  0
    6.1751  -21.6542   27.0210 C   0  0  0  0  0  0  0  0  0  0  0  0
    5.8779  -22.4164   28.0224 N   0  0  0  0  0  0  0  0  0  0  0  0
    6.9639  -20.4918   27.1597 N   0  0  0  0  0  0  0  0  0  0  0  0
    7.1676  -19.6348   26.0236 C   0  0  0  0  0  0  0  0  0  0  0  0
    7.9019  -18.3522   26.4264 C   0  0  0  0  0  0  0  0  0  0  0  0
    8.1554  -17.5464   25.2020 C   0  0  0  0  0  0  0  0  0  0  0  0
    8.8712  -16.2566   25.4204 C   0  0  2  0  0  0  0  0  0  0  0  0
    9.1522  -15.6235   24.1186 N   0  0  0  0  0  0  0  0  0  0  0  0
   10.1342  -16.4646   26.1397 C   0  0  0  0  0  0  0  0  0  0  0  0
   11.2285  -16.4395   25.4741 O   0  0  0  0  0  0  0  0  0  0  0  0
   10.2128  -16.6847   27.4936 O   0  0  0  0  0  0  0  0  0  0  0  0
  2  1  1  6
  2  3  1  0
  4  2  1  0
  4  6  1  0
  4  5  1  6
  6 13  1  0
  7  6  2  0
  9  8  1  1
 10  9  1  0
 11  9  1  0
 12 11  1  6
 13 12  1  0
 14 12  1  0
 14 15  2  0
 16 17  1  0
 17 19  1  0
 17 18  2  0
 19 20  1  0
 20 21  1  0
 21 22  1  0
 23 22  1  6
 23 25  1  0
 23 24  1  0
 24 14  1  0
 25 27  1  0
 26 25  2  0
M  END
$$$$
