TLR.pdb
     RDKit          3D

 27 26  0  0  1  0  0  0  0  0999 V2000
    7.5874  -20.0322   20.5978 C   0  0  0  0  0  0  0  0  0  0  0  0
    8.0736  -19.8687   19.1915 C   0  0  1  0  0  0  0  0  0  0  0  0
    7.5460  -20.8596   18.3592 O   0  0  0  0  0  0  0  0  0  0  0  0
    7.8773  -18.4921   18.6169 C   0  0  2  0  0  0  0  0  0  0  0  0
    8.2843  -18.5118   17.2319 N   0  0  0  0  0  0  0  0  0  0  0  0
    8.5619  -17.4419   19.3727 C   0  0  0  0  0  0  0  0  0  0  0  0
    9.8321  -17.4087   19.3152 O   0  0  0  0  0  0  0  0  0  0  0  0
    6.5027  -12.3875   20.6271 C   0  0  0  0  0  0  0  0  0  0  0  0
    7.4025  -13.5128   20.0708 C   0  0  1  0  0  0  0  0  0  0  0  0
    8.4419  -12.8149   19.2532 C   0  0  0  0  0  0  0  0  0  0  0  0
    7.8832  -14.2633   21.2480 C   0  0  0  0  0  0  0  0  0  0  0  0
    8.5967  -15.5449   21.0314 C   0  0  2  0  0  0  0  0  0  0  0  0
    7.9339  -16.4619   20.1610 N   0  0  0  0  0  0  0  0  0  0  0  0
    9.0709  -16.1806   22.2883 C   0  0  0  0  0  0  0  0  0  0  0  0
    8.2821  -16.6537   23.1506 O   0  0  0  0  0  0  0  0  0  0  0  0
   13.5800  -23.4535   24.6712 N   0  0  0  0  0  0  0  0  0  0  0  0
   12.2891  -22.8487   24.4819 C   0  0  0  0  0  0  0  0  0  0  0  0
   11.3926  -23.6096   23.9439 N   0  0  0  0  0  0  0  0  0  0  0  0
   12.0250  -21.5145   24.8597 N   0  0  0  0  0  0  0  0  0  0  0  0
   12.5342  -20.4371   24.0558 C   0  0  0  0  0  0  0  0  0  0  0  0
   12.0570  -19.0816   24.5861 C   0  0  0  0  0  0  0  0  0  0  0  0
   11.4634  -18.3136   23.4589 C   0  0  0  0  0  0  0  0  0  0  0  0
   10.9487  -16.9582   23.8076 C   0  0  2  0  0  0  0  0  0  0  0  0
   10.4566  -16.2903   22.5885 N   0  0  0  0  0  0  0  0  0  0  0  0
   11.9968  -16.1332   24.4216 C   0  0  0  0  0  0  0  0  0  0  0  0
   12.4870  -16.5041   25.5456 O   0  0  0  0  0  0  0  0  0  0  0  0
   12.4873  -14.9803   23.8579 O   0  0  0  0  0  0  0  0  0  0  0  0
  2  1  1  1
  2  3  1  0
  4  2  1  0
  4  6  1  0
  4  5  1  6
  6 13  1  0
  7  6  2  0
  9  8  1  1
 10  9  1  0
 11  9  1  0
 12 11  1  1
 13 12  1  0
 14 12  1  0
 14 15  2  0
 16 17  1  0
 17 19  1  0
 17 18  2  0
 19 20  1  0
 20 21  1  0
 21 22  1  0
 23 22  1  6
 23 25  1  0
 23 24  1  0
 24 14  1  0
 25 27  1  0
 26 25  2  0
M  END
$$$$
