TLR.pdb
     RDKit          3D

 27 26  0  0  1  0  0  0  0  0999 V2000
    6.5644  -14.5443   18.6620 C   0  0  0  0  0  0  0  0  0  0  0  0
    7.2169  -14.6548   20.0047 C   0  0  1  0  0  0  0  0  0  0  0  0
    8.4103  -15.3776   19.9253 O   0  0  0  0  0  0  0  0  0  0  0  0
    7.4026  -13.3446   20.7206 C   0  0  2  0  0  0  0  0  0  0  0  0
    8.1990  -12.4760   19.8866 N   0  0  0  0  0  0  0  0  0  0  0  0
    7.9729  -13.4884   22.0611 C   0  0  0  0  0  0  0  0  0  0  0  0
    9.2342  -13.3744   22.1789 O   0  0  0  0  0  0  0  0  0  0  0  0
    5.5170  -12.1671   26.8845 C   0  0  0  0  0  0  0  0  0  0  0  0
    6.6219  -12.2199   25.8067 C   0  0  1  0  0  0  0  0  0  0  0  0
    7.6927  -11.2992   26.2981 C   0  0  0  0  0  0  0  0  0  0  0  0
    6.9867  -13.6444   25.6732 C   0  0  0  0  0  0  0  0  0  0  0  0
    7.8039  -14.0631   24.5090 C   0  0  2  0  0  0  0  0  0  0  0  0
    7.2437  -13.7433   23.2355 N   0  0  0  0  0  0  0  0  0  0  0  0
    8.2829  -15.4675   24.5937 C   0  0  0  0  0  0  0  0  0  0  0  0
    7.4992  -16.4549   24.5856 O   0  0  0  0  0  0  0  0  0  0  0  0
   14.4247  -20.0444   22.2188 N   0  0  0  0  0  0  0  0  0  0  0  0
   13.5974  -21.0340   22.8545 C   0  0  0  0  0  0  0  0  0  0  0  0
   14.1805  -22.1568   23.1223 N   0  0  0  0  0  0  0  0  0  0  0  0
   12.2416  -20.7904   23.1626 N   0  0  0  0  0  0  0  0  0  0  0  0
   11.7175  -19.4570   23.0448 C   0  0  0  0  0  0  0  0  0  0  0  0
   12.1636  -18.5843   24.2220 C   0  0  0  0  0  0  0  0  0  0  0  0
   11.4913  -17.2618   24.1136 C   0  0  0  0  0  0  0  0  0  0  0  0
   10.1628  -17.1613   24.7835 C   0  0  2  0  0  0  0  0  0  0  0  0
    9.6681  -15.7754   24.6894 N   0  0  0  0  0  0  0  0  0  0  0  0
   10.2495  -17.5491   26.1970 C   0  0  0  0  0  0  0  0  0  0  0  0
   10.4097  -16.6296   27.0747 O   0  0  0  0  0  0  0  0  0  0  0  0
   10.1671  -18.8478   26.6375 O   0  0  0  0  0  0  0  0  0  0  0  0
  2  1  1  6
  2  3  1  0
  4  2  1  0
  4  6  1  0
  4  5  1  6
  6 13  1  0
  7  6  2  0
  9  8  1  1
 10  9  1  0
 11  9  1  0
 12 11  1  1
 13 12  1  0
 14 12  1  0
 14 15  2  0
 16 17  1  0
 17 19  1  0
 17 18  2  0
 19 20  1  0
 20 21  1  0
 21 22  1  0
 23 22  1  1
 23 25  1  0
 23 24  1  0
 24 14  1  0
 25 27  1  0
 26 25  2  0
M  END
$$$$
