TLR.pdb
     RDKit          3D

 27 26  0  0  1  0  0  0  0  0999 V2000
    9.1290  -15.9188   19.5220 C   0  0  0  0  0  0  0  0  0  0  0  0
    9.2785  -15.3117   20.8821 C   0  0  1  0  0  0  0  0  0  0  0  0
    8.7071  -14.0372   20.9288 O   0  0  0  0  0  0  0  0  0  0  0  0
    8.7999  -16.1816   22.0125 C   0  0  2  0  0  0  0  0  0  0  0  0
    7.4201  -16.5301   21.7693 N   0  0  0  0  0  0  0  0  0  0  0  0
    8.9862  -15.5771   23.3325 C   0  0  0  0  0  0  0  0  0  0  0  0
   10.1774  -15.4575   23.7619 O   0  0  0  0  0  0  0  0  0  0  0  0
    5.4540  -11.9344   25.7550 C   0  0  0  0  0  0  0  0  0  0  0  0
    6.6614  -12.6104   25.0690 C   0  0  1  0  0  0  0  0  0  0  0  0
    7.6499  -11.5113   24.8441 C   0  0  0  0  0  0  0  0  0  0  0  0
    7.0805  -13.6997   25.9733 C   0  0  0  0  0  0  0  0  0  0  0  0
    8.1227  -14.6472   25.5099 C   0  0  2  0  0  0  0  0  0  0  0  0
    7.9571  -15.1150   24.1715 N   0  0  0  0  0  0  0  0  0  0  0  0
    8.4012  -15.7426   26.4750 C   0  0  0  0  0  0  0  0  0  0  0  0
    8.6678  -15.5283   27.6884 O   0  0  0  0  0  0  0  0  0  0  0  0
    8.2729  -22.9462   29.0379 N   0  0  0  0  0  0  0  0  0  0  0  0
    6.8420  -23.0176   28.9151 C   0  0  0  0  0  0  0  0  0  0  0  0
    6.2407  -23.7177   29.8210 N   0  0  0  0  0  0  0  0  0  0  0  0
    6.1466  -22.3654   27.8740 N   0  0  0  0  0  0  0  0  0  0  0  0
    6.8859  -21.6690   26.8567 C   0  0  0  0  0  0  0  0  0  0  0  0
    7.7673  -20.5755   27.4681 C   0  0  0  0  0  0  0  0  0  0  0  0
    7.6750  -19.3600   26.6156 C   0  0  0  0  0  0  0  0  0  0  0  0
    8.5283  -18.2131   27.0401 C   0  0  2  0  0  0  0  0  0  0  0  0
    8.3815  -17.1074   26.0757 N   0  0  0  0  0  0  0  0  0  0  0  0
    9.9419  -18.6025   27.1180 C   0  0  0  0  0  0  0  0  0  0  0  0
   10.3178  -19.3502   28.0880 O   0  0  0  0  0  0  0  0  0  0  0  0
   10.8916  -18.2111   26.2056 O   0  0  0  0  0  0  0  0  0  0  0  0
  2  1  1  6
  2  3  1  0
  4  2  1  0
  4  6  1  0
  4  5  1  6
  6 13  1  0
  7  6  2  0
  9  8  1  1
 10  9  1  0
 11  9  1  0
 12 11  1  1
 13 12  1  0
 14 12  1  0
 14 15  2  0
 16 17  1  0
 17 19  1  0
 17 18  2  0
 19 20  1  0
 20 21  1  0
 21 22  1  0
 23 22  1  6
 23 25  1  0
 23 24  1  0
 24 14  1  0
 25 27  1  0
 26 25  2  0
M  END
$$$$
