TLR.pdb
     RDKit          3D

 27 26  0  0  1  0  0  0  0  0999 V2000
    6.8955  -14.4233   18.5132 C   0  0  0  0  0  0  0  0  0  0  0  0
    7.4317  -14.5770   19.9023 C   0  0  1  0  0  0  0  0  0  0  0  0
    8.6479  -15.2654   19.8979 O   0  0  0  0  0  0  0  0  0  0  0  0
    7.5164  -13.2957   20.6864 C   0  0  2  0  0  0  0  0  0  0  0  0
    8.3517  -12.3689   19.9600 N   0  0  0  0  0  0  0  0  0  0  0  0
    7.9779  -13.4839   22.0627 C   0  0  0  0  0  0  0  0  0  0  0  0
    9.2314  -13.4402   22.2739 O   0  0  0  0  0  0  0  0  0  0  0  0
    5.0365  -12.3609   26.6913 C   0  0  0  0  0  0  0  0  0  0  0  0
    6.2215  -12.3373   25.7010 C   0  0  1  0  0  0  0  0  0  0  0  0
    7.1973  -11.3640   26.2811 C   0  0  0  0  0  0  0  0  0  0  0  0
    6.6765  -13.7370   25.5837 C   0  0  0  0  0  0  0  0  0  0  0  0
    7.5968  -14.0953   24.4777 C   0  0  2  0  0  0  0  0  0  0  0  0
    7.1515  -13.7104   23.1771 N   0  0  0  0  0  0  0  0  0  0  0  0
    8.0728  -15.5021   24.5330 C   0  0  0  0  0  0  0  0  0  0  0  0
    7.5629  -16.4204   23.8359 O   0  0  0  0  0  0  0  0  0  0  0  0
   14.5807  -19.9470   24.1439 N   0  0  0  0  0  0  0  0  0  0  0  0
   14.1250  -19.9510   22.7801 C   0  0  0  0  0  0  0  0  0  0  0  0
   14.4193  -21.0102   22.0990 N   0  0  0  0  0  0  0  0  0  0  0  0
   13.4056  -18.8692   22.2280 N   0  0  0  0  0  0  0  0  0  0  0  0
   12.9284  -17.8228   23.0905 C   0  0  0  0  0  0  0  0  0  0  0  0
   11.6596  -18.2561   23.8314 C   0  0  0  0  0  0  0  0  0  0  0  0
   10.8248  -17.0516   24.0868 C   0  0  0  0  0  0  0  0  0  0  0  0
    9.8597  -17.1687   25.2176 C   0  0  2  0  0  0  0  0  0  0  0  0
    9.1422  -15.8915   25.3859 N   0  0  0  0  0  0  0  0  0  0  0  0
   10.5471  -17.5061   26.4704 C   0  0  0  0  0  0  0  0  0  0  0  0
   10.7460  -16.5759   27.3286 O   0  0  0  0  0  0  0  0  0  0  0  0
   10.9915  -18.7688   26.7797 O   0  0  0  0  0  0  0  0  0  0  0  0
  2  1  1  6
  2  3  1  0
  4  2  1  0
  4  6  1  0
  4  5  1  6
  6 13  1  0
  7  6  2  0
  9  8  1  1
 10  9  1  0
 11  9  1  0
 12 11  1  1
 13 12  1  0
 14 12  1  0
 14 15  2  0
 16 17  1  0
 17 19  1  0
 17 18  2  0
 19 20  1  0
 20 21  1  0
 21 22  1  0
 23 22  1  6
 23 25  1  0
 23 24  1  0
 24 14  1  0
 25 27  1  0
 26 25  2  0
M  END
$$$$
