TLR.pdb
     RDKit          3D

 27 26  0  0  1  0  0  0  0  0999 V2000
    7.7680  -17.5946   19.5878 C   0  0  0  0  0  0  0  0  0  0  0  0
    8.0801  -17.0384   20.9421 C   0  0  1  0  0  0  0  0  0  0  0  0
    9.0012  -17.8448   21.6162 O   0  0  0  0  0  0  0  0  0  0  0  0
    8.4947  -15.5922   20.9450 C   0  0  2  0  0  0  0  0  0  0  0  0
    9.6230  -15.4377   20.0576 N   0  0  0  0  0  0  0  0  0  0  0  0
    8.7762  -15.0691   22.2829 C   0  0  0  0  0  0  0  0  0  0  0  0
    9.9949  -14.8900   22.5999 O   0  0  0  0  0  0  0  0  0  0  0  0
    8.1310  -11.5443   26.1303 C   0  0  0  0  0  0  0  0  0  0  0  0
    7.1642  -12.7161   26.4090 C   0  0  1  0  0  0  0  0  0  0  0  0
    5.9587  -12.0891   27.0332 C   0  0  0  0  0  0  0  0  0  0  0  0
    6.9606  -13.3880   25.1101 C   0  0  0  0  0  0  0  0  0  0  0  0
    8.0785  -14.1721   24.5323 C   0  0  2  0  0  0  0  0  0  0  0  0
    7.8113  -14.7463   23.2529 N   0  0  0  0  0  0  0  0  0  0  0  0
    8.6806  -15.1400   25.4860 C   0  0  0  0  0  0  0  0  0  0  0  0
    8.8999  -14.8566   26.6947 O   0  0  0  0  0  0  0  0  0  0  0  0
    9.2332  -23.2411   22.9564 N   0  0  0  0  0  0  0  0  0  0  0  0
    8.4033  -22.2423   22.3388 C   0  0  0  0  0  0  0  0  0  0  0  0
    7.6400  -22.6664   21.3849 N   0  0  0  0  0  0  0  0  0  0  0  0
    8.4249  -20.8922   22.7503 N   0  0  0  0  0  0  0  0  0  0  0  0
    9.2418  -20.5059   23.8684 C   0  0  0  0  0  0  0  0  0  0  0  0
    9.2046  -18.9892   24.0792 C   0  0  0  0  0  0  0  0  0  0  0  0
   10.0382  -18.6546   25.2649 C   0  0  0  0  0  0  0  0  0  0  0  0
    9.6233  -17.4353   26.0166 C   0  0  2  0  0  0  0  0  0  0  0  0
    9.0457  -16.4533   25.0805 N   0  0  0  0  0  0  0  0  0  0  0  0
   10.7635  -16.8267   26.7134 C   0  0  0  0  0  0  0  0  0  0  0  0
   11.4139  -15.8939   26.1233 O   0  0  0  0  0  0  0  0  0  0  0  0
   11.1762  -17.1996   27.9697 O   0  0  0  0  0  0  0  0  0  0  0  0
  2  1  1  6
  2  3  1  0
  4  2  1  0
  4  6  1  0
  4  5  1  6
  6 13  1  0
  7  6  2  0
  9  8  1  6
 10  9  1  0
 11  9  1  0
 12 11  1  1
 13 12  1  0
 14 12  1  0
 14 15  2  0
 16 17  1  0
 17 19  1  0
 17 18  2  0
 19 20  1  0
 20 21  1  0
 21 22  1  0
 23 22  1  6
 23 25  1  0
 23 24  1  0
 24 14  1  0
 25 27  1  0
 26 25  2  0
M  END
$$$$
