TLR.pdb
     RDKit          3D

 27 26  0  0  1  0  0  0  0  0999 V2000
    7.6237  -14.3940   17.9865 C   0  0  0  0  0  0  0  0  0  0  0  0
    8.0056  -14.4601   19.4323 C   0  0  1  0  0  0  0  0  0  0  0  0
    9.2139  -15.1415   19.6021 O   0  0  0  0  0  0  0  0  0  0  0  0
    8.0068  -13.1330   20.1413 C   0  0  2  0  0  0  0  0  0  0  0  0
    8.9136  -12.2464   19.4514 N   0  0  0  0  0  0  0  0  0  0  0  0
    8.3209  -13.2343   21.5674 C   0  0  0  0  0  0  0  0  0  0  0  0
    9.5479  -13.2969   21.8964 O   0  0  0  0  0  0  0  0  0  0  0  0
    7.9219  -12.3748   26.8550 C   0  0  0  0  0  0  0  0  0  0  0  0
    6.8141  -13.3383   26.3754 C   0  0  1  0  0  0  0  0  0  0  0  0
    5.6436  -13.0625   27.2639 C   0  0  0  0  0  0  0  0  0  0  0  0
    6.6313  -13.0579   24.9373 C   0  0  0  0  0  0  0  0  0  0  0  0
    7.6697  -13.5202   23.9851 C   0  0  2  0  0  0  0  0  0  0  0  0
    7.3789  -13.2688   22.6103 N   0  0  0  0  0  0  0  0  0  0  0  0
    8.1267  -14.9123   24.2342 C   0  0  0  0  0  0  0  0  0  0  0  0
    7.3445  -15.9005   24.2034 O   0  0  0  0  0  0  0  0  0  0  0  0
   13.6753  -14.2532   20.7983 N   0  0  0  0  0  0  0  0  0  0  0  0
   12.8515  -15.0870   19.9653 C   0  0  0  0  0  0  0  0  0  0  0  0
   12.5816  -14.6089   18.7945 N   0  0  0  0  0  0  0  0  0  0  0  0
   12.3730  -16.3412   20.4019 N   0  0  0  0  0  0  0  0  0  0  0  0
   12.4320  -16.6741   21.7991 C   0  0  0  0  0  0  0  0  0  0  0  0
   11.0584  -16.5218   22.4596 C   0  0  0  0  0  0  0  0  0  0  0  0
   11.1960  -16.8105   23.9124 C   0  0  0  0  0  0  0  0  0  0  0  0
    9.9692  -16.5853   24.7297 C   0  0  2  0  0  0  0  0  0  0  0  0
    9.4875  -15.2068   24.5241 N   0  0  0  0  0  0  0  0  0  0  0  0
   10.2358  -16.7965   26.1581 C   0  0  0  0  0  0  0  0  0  0  0  0
   10.5344  -17.9769   26.5565 O   0  0  0  0  0  0  0  0  0  0  0  0
   10.1851  -15.7965   27.0988 O   0  0  0  0  0  0  0  0  0  0  0  0
  2  1  1  6
  2  3  1  0
  4  2  1  0
  4  6  1  0
  4  5  1  6
  6 13  1  0
  7  6  2  0
  9  8  1  1
 10  9  1  0
 11  9  1  0
 12 11  1  1
 13 12  1  0
 14 12  1  0
 14 15  2  0
 16 17  1  0
 17 19  1  0
 17 18  2  0
 19 20  1  0
 20 21  1  0
 21 22  1  0
 23 22  1  6
 23 25  1  0
 23 24  1  0
 24 14  1  0
 25 27  1  0
 26 25  2  0
M  END
$$$$
