TLR.pdb
     RDKit          3D

 27 26  0  0  1  0  0  0  0  0999 V2000
    7.1263  -16.2207   20.6181 C   0  0  0  0  0  0  0  0  0  0  0  0
    7.8259  -15.0436   20.0132 C   0  0  1  0  0  0  0  0  0  0  0  0
    7.5343  -14.9315   18.6511 O   0  0  0  0  0  0  0  0  0  0  0  0
    7.6096  -13.7446   20.7409 C   0  0  2  0  0  0  0  0  0  0  0  0
    8.1865  -12.6788   19.9562 N   0  0  0  0  0  0  0  0  0  0  0  0
    8.1217  -13.7522   22.1122 C   0  0  0  0  0  0  0  0  0  0  0  0
    9.3826  -13.6961   22.2695 O   0  0  0  0  0  0  0  0  0  0  0  0
    5.5289  -11.8264   26.6564 C   0  0  0  0  0  0  0  0  0  0  0  0
    6.5639  -12.0561   25.5332 C   0  0  1  0  0  0  0  0  0  0  0  0
    7.5987  -10.9952   25.7313 C   0  0  0  0  0  0  0  0  0  0  0  0
    7.0154  -13.4541   25.6813 C   0  0  0  0  0  0  0  0  0  0  0  0
    7.8247  -14.0586   24.5959 C   0  0  2  0  0  0  0  0  0  0  0  0
    7.3365  -13.8169   23.2764 N   0  0  0  0  0  0  0  0  0  0  0  0
    8.1663  -15.4854   24.8337 C   0  0  0  0  0  0  0  0  0  0  0  0
    7.2975  -16.3988   24.8506 O   0  0  0  0  0  0  0  0  0  0  0  0
   14.2122  -18.4047   22.1568 N   0  0  0  0  0  0  0  0  0  0  0  0
   13.2979  -18.7796   21.1121 C   0  0  0  0  0  0  0  0  0  0  0  0
   13.7966  -19.5201   20.1766 N   0  0  0  0  0  0  0  0  0  0  0  0
   11.9488  -18.3644   21.1135 N   0  0  0  0  0  0  0  0  0  0  0  0
   11.5125  -17.3788   22.0647 C   0  0  0  0  0  0  0  0  0  0  0  0
   10.4463  -17.9532   23.0026 C   0  0  0  0  0  0  0  0  0  0  0  0
   10.9020  -17.7711   24.4069 C   0  0  0  0  0  0  0  0  0  0  0  0
    9.8593  -17.2999   25.3631 C   0  0  2  0  0  0  0  0  0  0  0  0
    9.5079  -15.9008   25.0575 N   0  0  0  0  0  0  0  0  0  0  0  0
   10.3315  -17.3881   26.7506 C   0  0  0  0  0  0  0  0  0  0  0  0
   10.5132  -16.3017   27.4050 O   0  0  0  0  0  0  0  0  0  0  0  0
   10.5905  -18.5742   27.3936 O   0  0  0  0  0  0  0  0  0  0  0  0
  2  1  1  1
  2  3  1  0
  4  2  1  0
  4  6  1  0
  4  5  1  6
  6 13  1  0
  7  6  2  0
  9  8  1  1
 10  9  1  0
 11  9  1  0
 12 11  1  1
 13 12  1  0
 14 12  1  0
 14 15  2  0
 16 17  1  0
 17 19  1  0
 17 18  2  0
 19 20  1  0
 20 21  1  0
 21 22  1  0
 23 22  1  6
 23 25  1  0
 23 24  1  0
 24 14  1  0
 25 27  1  0
 26 25  2  0
M  END
$$$$
