TLR.pdb
     RDKit          3D

 27 26  0  0  1  0  0  0  0  0999 V2000
    6.5025  -17.6876   22.1141 C   0  0  0  0  0  0  0  0  0  0  0  0
    7.5444  -17.3019   21.1109 C   0  0  1  0  0  0  0  0  0  0  0  0
    7.2251  -17.7917   19.8415 O   0  0  0  0  0  0  0  0  0  0  0  0
    7.8699  -15.8334   21.0787 C   0  0  2  0  0  0  0  0  0  0  0  0
    8.8151  -15.5972   20.0134 N   0  0  0  0  0  0  0  0  0  0  0  0
    8.3503  -15.3146   22.3604 C   0  0  0  0  0  0  0  0  0  0  0  0
    9.5657  -15.5332   22.6650 O   0  0  0  0  0  0  0  0  0  0  0  0
    8.6009  -11.7203   26.5331 C   0  0  0  0  0  0  0  0  0  0  0  0
    7.4623  -12.7599   26.6234 C   0  0  1  0  0  0  0  0  0  0  0  0
    6.3650  -12.0749   27.3733 C   0  0  0  0  0  0  0  0  0  0  0  0
    7.1647  -13.1532   25.2316 C   0  0  0  0  0  0  0  0  0  0  0  0
    8.0102  -14.1878   24.5888 C   0  0  2  0  0  0  0  0  0  0  0  0
    7.5808  -14.5921   23.2889 N   0  0  0  0  0  0  0  0  0  0  0  0
    8.3218  -15.3371   25.4782 C   0  0  0  0  0  0  0  0  0  0  0  0
    7.4464  -16.1624   25.8548 O   0  0  0  0  0  0  0  0  0  0  0  0
   13.1139  -16.8002   22.1146 N   0  0  0  0  0  0  0  0  0  0  0  0
   12.4844  -18.0750   21.8989 C   0  0  0  0  0  0  0  0  0  0  0  0
   12.1823  -18.3448   20.6708 N   0  0  0  0  0  0  0  0  0  0  0  0
   12.2172  -18.9669   22.9598 N   0  0  0  0  0  0  0  0  0  0  0  0
   12.3215  -18.5042   24.3169 C   0  0  0  0  0  0  0  0  0  0  0  0
   10.9807  -17.9573   24.8164 C   0  0  0  0  0  0  0  0  0  0  0  0
   11.1662  -17.4349   26.1968 C   0  0  0  0  0  0  0  0  0  0  0  0
    9.9838  -16.7414   26.7839 C   0  0  2  0  0  0  0  0  0  0  0  0
    9.6405  -15.5695   25.9574 N   0  0  0  0  0  0  0  0  0  0  0  0
   10.2540  -16.3014   28.1585 C   0  0  0  0  0  0  0  0  0  0  0  0
   10.4616  -17.1917   29.0560 O   0  0  0  0  0  0  0  0  0  0  0  0
   10.2990  -14.9828   28.5417 O   0  0  0  0  0  0  0  0  0  0  0  0
  2  1  1  1
  2  3  1  0
  4  2  1  0
  4  6  1  0
  4  5  1  6
  6 13  1  0
  7  6  2  0
  9  8  1  6
 10  9  1  0
 11  9  1  0
 12 11  1  1
 13 12  1  0
 14 12  1  0
 14 15  2  0
 16 17  1  0
 17 19  1  0
 17 18  2  0
 19 20  1  0
 20 21  1  0
 21 22  1  0
 23 22  1  6
 23 25  1  0
 23 24  1  0
 24 14  1  0
 25 27  1  0
 26 25  2  0
M  END
$$$$
