TLR.pdb
     RDKit          3D

 27 26  0  0  1  0  0  0  0  0999 V2000
    6.3569  -17.0164   21.5406 C   0  0  0  0  0  0  0  0  0  0  0  0
    7.2878  -16.1849   20.7144 C   0  0  1  0  0  0  0  0  0  0  0  0
    6.9475  -16.2451   19.3603 O   0  0  0  0  0  0  0  0  0  0  0  0
    7.4488  -14.7661   21.1887 C   0  0  2  0  0  0  0  0  0  0  0  0
    8.2290  -14.0429   20.2127 N   0  0  0  0  0  0  0  0  0  0  0  0
    8.0213  -14.6619   22.5319 C   0  0  0  0  0  0  0  0  0  0  0  0
    9.2815  -14.7913   22.6457 O   0  0  0  0  0  0  0  0  0  0  0  0
    5.7068  -11.8529   26.8536 C   0  0  0  0  0  0  0  0  0  0  0  0
    6.6324  -12.3024   25.7018 C   0  0  1  0  0  0  0  0  0  0  0  0
    7.7130  -11.2707   25.6425 C   0  0  0  0  0  0  0  0  0  0  0  0
    7.0515  -13.6783   26.0354 C   0  0  0  0  0  0  0  0  0  0  0  0
    7.8323  -14.4460   25.0356 C   0  0  2  0  0  0  0  0  0  0  0  0
    7.2952  -14.4302   23.7131 N   0  0  0  0  0  0  0  0  0  0  0  0
    8.2040  -15.8105   25.4925 C   0  0  0  0  0  0  0  0  0  0  0  0
    7.3519  -16.6496   25.8914 O   0  0  0  0  0  0  0  0  0  0  0  0
   10.9746  -19.9359   21.6831 N   0  0  0  0  0  0  0  0  0  0  0  0
   11.7871  -18.9007   21.1036 C   0  0  0  0  0  0  0  0  0  0  0  0
   12.4066  -19.2243   20.0155 N   0  0  0  0  0  0  0  0  0  0  0  0
   11.8970  -17.6203   21.6875 N   0  0  0  0  0  0  0  0  0  0  0  0
   12.0535  -17.5028   23.1117 C   0  0  0  0  0  0  0  0  0  0  0  0
   10.9379  -18.2477   23.8512 C   0  0  0  0  0  0  0  0  0  0  0  0
   11.1389  -18.0713   25.3145 C   0  0  0  0  0  0  0  0  0  0  0  0
    9.9607  -17.5498   26.0651 C   0  0  2  0  0  0  0  0  0  0  0  0
    9.5574  -16.2472   25.5040 N   0  0  0  0  0  0  0  0  0  0  0  0
   10.2684  -17.3875   27.4916 C   0  0  0  0  0  0  0  0  0  0  0  0
   10.6430  -18.4160   28.1574 O   0  0  0  0  0  0  0  0  0  0  0  0
   10.1794  -16.1899   28.1591 O   0  0  0  0  0  0  0  0  0  0  0  0
  2  1  1  1
  2  3  1  0
  4  2  1  0
  4  6  1  0
  4  5  1  6
  6 13  1  0
  7  6  2  0
  9  8  1  1
 10  9  1  0
 11  9  1  0
 12 11  1  1
 13 12  1  0
 14 12  1  0
 14 15  2  0
 16 17  1  0
 17 19  1  0
 17 18  2  0
 19 20  1  0
 20 21  1  0
 21 22  1  0
 23 22  1  6
 23 25  1  0
 23 24  1  0
 24 14  1  0
 25 27  1  0
 26 25  2  0
M  END
$$$$
