TLR.pdb
     RDKit          3D

 27 26  0  0  1  0  0  0  0  0999 V2000
    7.7543  -18.4784   20.1208 C   0  0  0  0  0  0  0  0  0  0  0  0
    8.0836  -17.5710   21.2649 C   0  0  1  0  0  0  0  0  0  0  0  0
    9.3769  -17.8086   21.7382 O   0  0  0  0  0  0  0  0  0  0  0  0
    7.8461  -16.1102   20.9943 C   0  0  2  0  0  0  0  0  0  0  0  0
    8.5888  -15.7366   19.8139 N   0  0  0  0  0  0  0  0  0  0  0  0
    8.1615  -15.2474   22.1340 C   0  0  0  0  0  0  0  0  0  0  0  0
    9.2887  -14.6582   22.1314 O   0  0  0  0  0  0  0  0  0  0  0  0
    7.3890  -11.6083   25.9890 C   0  0  0  0  0  0  0  0  0  0  0  0
    6.7818  -12.9669   26.4027 C   0  0  1  0  0  0  0  0  0  0  0  0
    5.5880  -12.6249   27.2356 C   0  0  0  0  0  0  0  0  0  0  0  0
    6.5217  -13.6921   25.1432 C   0  0  0  0  0  0  0  0  0  0  0  0
    7.6710  -14.2662   24.4029 C   0  0  2  0  0  0  0  0  0  0  0  0
    7.3223  -15.0126   23.2370 N   0  0  0  0  0  0  0  0  0  0  0  0
    8.6441  -14.9756   25.2739 C   0  0  0  0  0  0  0  0  0  0  0  0
    9.1086  -14.4667   26.3296 O   0  0  0  0  0  0  0  0  0  0  0  0
    5.6356  -20.4164   26.6366 N   0  0  0  0  0  0  0  0  0  0  0  0
    6.5155  -20.9114   27.6606 C   0  0  0  0  0  0  0  0  0  0  0  0
    5.9381  -21.2909   28.7536 N   0  0  0  0  0  0  0  0  0  0  0  0
    7.9139  -20.9762   27.4788 N   0  0  0  0  0  0  0  0  0  0  0  0
    8.5025  -20.3956   26.3028 C   0  0  0  0  0  0  0  0  0  0  0  0
    8.6330  -18.8761   26.4457 C   0  0  0  0  0  0  0  0  0  0  0  0
    9.8735  -18.4392   25.7506 C   0  0  0  0  0  0  0  0  0  0  0  0
   10.1331  -16.9708   25.7651 C   0  0  2  0  0  0  0  0  0  0  0  0
    9.1086  -16.2823   24.9585 N   0  0  0  0  0  0  0  0  0  0  0  0
   11.4628  -16.6606   25.2251 C   0  0  0  0  0  0  0  0  0  0  0  0
   11.5395  -15.9928   24.1345 O   0  0  0  0  0  0  0  0  0  0  0  0
   12.6376  -17.0453   25.8247 O   0  0  0  0  0  0  0  0  0  0  0  0
  2  1  1  6
  2  3  1  0
  4  2  1  0
  4  6  1  0
  4  5  1  6
  6 13  1  0
  7  6  2  0
  9  8  1  6
 10  9  1  0
 11  9  1  0
 12 11  1  1
 13 12  1  0
 14 12  1  0
 14 15  2  0
 16 17  1  0
 17 19  1  0
 17 18  2  0
 19 20  1  0
 20 21  1  0
 21 22  1  0
 23 22  1  6
 23 25  1  0
 23 24  1  0
 24 14  1  0
 25 27  1  0
 26 25  2  0
M  END
$$$$
