GEH.pdb
     RDKit          3D

 24 24  0  0  1  0  0  0  0  0999 V2000
    6.7376  -14.0125   19.0655 N   0  0  0  0  0  0  0  0  0  0  0  0
    8.1401  -14.1188   19.4103 C   0  0  0  0  0  0  0  0  0  0  0  0
    8.3245  -15.1372   20.4802 C   0  0  0  0  0  0  0  0  0  0  0  0
    7.2871  -15.6304   21.0483 O   0  0  0  0  0  0  0  0  0  0  0  0
    9.6239  -15.5604   20.8703 N   0  0  0  0  0  0  0  0  0  0  0  0
    9.8652  -16.6575   21.7584 C   0  0  1  0  0  0  0  0  0  0  0  0
   10.8944  -17.6139   21.2919 C   0  0  0  0  0  0  0  0  0  0  0  0
   12.2980  -17.2336   21.1941 C   0  0  0  0  0  0  0  0  0  0  0  0
   13.2669  -18.2125   20.7158 C   0  0  0  0  0  0  0  0  0  0  0  0
   13.8979  -18.1167   19.6515 O   0  0  0  0  0  0  0  0  0  0  0  0
    9.9657  -16.3244   23.1849 C   0  0  0  0  0  0  0  0  0  0  0  0
   10.6920  -15.3292   23.5414 O   0  0  0  0  0  0  0  0  0  0  0  0
   13.5608  -19.3747   21.4588 O   0  0  0  0  0  0  0  0  0  0  0  0
    9.3200  -17.0168   24.2388 N   0  0  0  0  0  0  0  0  0  0  0  0
    9.3176  -16.5327   25.6315 C   0  0  1  0  0  0  0  0  0  0  0  0
    7.9572  -16.2287   26.1154 C   0  0  0  0  0  0  0  0  0  0  0  0
    7.5490  -14.8810   25.6783 C   0  0  0  0  0  0  0  0  0  0  0  0
    8.2418  -13.8750   25.0433 C   0  0  0  0  0  0  0  0  0  0  0  0
    7.4716  -12.7835   24.8689 N   0  0  0  0  0  0  0  0  0  0  0  0
    6.2746  -13.0859   25.3946 C   0  0  0  0  0  0  0  0  0  0  0  0
    6.3096  -14.3367   25.8811 N   0  0  0  0  0  0  0  0  0  0  0  0
    9.9375  -17.5808   26.4453 C   0  0  0  0  0  0  0  0  0  0  0  0
   10.0542  -17.4414   27.6858 O   0  0  0  0  0  0  0  0  0  0  0  0
   10.4147  -18.7565   25.9073 O   0  0  0  0  0  0  0  0  0  0  0  0
  2  3  1  0
  2  1  1  0
  3  5  1  0
  4  3  2  0
  5  6  1  0
  6 11  1  0
  6  7  1  6
  7  8  1  0
  9 13  1  0
  9  8  1  0
 10  9  2  0
 11 14  1  0
 11 12  2  0
 14 15  1  0
 15 22  1  0
 15 16  1  1
 16 17  1  0
 17 18  2  0
 19 18  1  0
 20 19  1  0
 21 20  2  0
 21 17  1  0
 22 24  1  0
 23 22  2  0
M  END
$$$$
