GEH.pdb
     RDKit          3D

 24 24  0  0  1  0  0  0  0  0999 V2000
    6.9543  -12.7898   19.4475 N   0  0  0  0  0  0  0  0  0  0  0  0
    8.2852  -13.3606   19.4507 C   0  0  0  0  0  0  0  0  0  0  0  0
    8.3570  -14.4768   20.4328 C   0  0  0  0  0  0  0  0  0  0  0  0
    7.3407  -14.7098   21.1777 O   0  0  0  0  0  0  0  0  0  0  0  0
    9.5275  -15.2746   20.5484 N   0  0  0  0  0  0  0  0  0  0  0  0
    9.6882  -16.3063   21.5284 C   0  0  1  0  0  0  0  0  0  0  0  0
   10.3541  -17.5313   21.0308 C   0  0  0  0  0  0  0  0  0  0  0  0
   10.5899  -18.6762   21.9014 C   0  0  0  0  0  0  0  0  0  0  0  0
   11.2131  -19.8724   21.3476 C   0  0  0  0  0  0  0  0  0  0  0  0
   11.9868  -19.8784   20.3773 O   0  0  0  0  0  0  0  0  0  0  0  0
   10.1513  -15.8735   22.8528 C   0  0  0  0  0  0  0  0  0  0  0  0
   11.2960  -15.3043   22.9558 O   0  0  0  0  0  0  0  0  0  0  0  0
   10.9683  -21.1473   21.8989 O   0  0  0  0  0  0  0  0  0  0  0  0
    9.4361  -16.0289   24.0657 N   0  0  0  0  0  0  0  0  0  0  0  0
    9.9237  -15.5061   25.3553 C   0  0  1  0  0  0  0  0  0  0  0  0
    8.8718  -15.5007   26.3901 C   0  0  0  0  0  0  0  0  0  0  0  0
    9.3939  -14.9309   27.6458 C   0  0  0  0  0  0  0  0  0  0  0  0
    9.8470  -13.6696   27.9607 C   0  0  0  0  0  0  0  0  0  0  0  0
   10.2712  -13.6055   29.2377 N   0  0  0  0  0  0  0  0  0  0  0  0
   10.0915  -14.8323   29.7507 C   0  0  0  0  0  0  0  0  0  0  0  0
    9.5679  -15.6323   28.8082 N   0  0  0  0  0  0  0  0  0  0  0  0
   11.0468  -16.3550   25.7591 C   0  0  0  0  0  0  0  0  0  0  0  0
   10.9672  -17.6034   25.6732 O   0  0  0  0  0  0  0  0  0  0  0  0
   12.2311  -15.8424   26.2428 O   0  0  0  0  0  0  0  0  0  0  0  0
  2  3  1  0
  2  1  1  0
  3  5  1  0
  4  3  2  0
  5  6  1  0
  6 11  1  0
  6  7  1  6
  7  8  1  0
  9 13  1  0
  9  8  1  0
 10  9  2  0
 11 14  1  0
 11 12  2  0
 14 15  1  0
 15 22  1  0
 15 16  1  1
 16 17  1  0
 17 18  2  0
 19 18  1  0
 20 19  1  0
 21 20  2  0
 21 17  1  0
 22 24  1  0
 23 22  2  0
M  END
$$$$
