GEH.pdb
     RDKit          3D

 24 24  0  0  1  0  0  0  0  0999 V2000
    6.7608  -16.2620   19.4298 N   0  0  0  0  0  0  0  0  0  0  0  0
    7.5702  -17.2544   20.1058 C   0  0  0  0  0  0  0  0  0  0  0  0
    7.1576  -17.3607   21.5321 C   0  0  0  0  0  0  0  0  0  0  0  0
    6.2974  -16.5282   21.9895 O   0  0  0  0  0  0  0  0  0  0  0  0
    7.7027  -18.3644   22.3779 N   0  0  0  0  0  0  0  0  0  0  0  0
    7.4237  -18.4551   23.7795 C   0  0  1  0  0  0  0  0  0  0  0  0
    7.1919  -19.8309   24.2745 C   0  0  0  0  0  0  0  0  0  0  0  0
    6.8750  -20.0932   25.6727 C   0  0  0  0  0  0  0  0  0  0  0  0
    6.6738  -21.4699   26.1087 C   0  0  0  0  0  0  0  0  0  0  0  0
    7.5411  -22.3563   26.0646 O   0  0  0  0  0  0  0  0  0  0  0  0
    8.2692  -17.6403   24.6610 C   0  0  0  0  0  0  0  0  0  0  0  0
    9.5276  -17.5692   24.4240 O   0  0  0  0  0  0  0  0  0  0  0  0
    5.4349  -21.8995   26.6280 O   0  0  0  0  0  0  0  0  0  0  0  0
    7.8172  -16.9030   25.7831 N   0  0  0  0  0  0  0  0  0  0  0  0
    8.6996  -16.0225   26.5707 C   0  0  1  0  0  0  0  0  0  0  0  0
    7.9492  -14.9677   27.2789 C   0  0  0  0  0  0  0  0  0  0  0  0
    7.4493  -13.9654   26.3201 C   0  0  0  0  0  0  0  0  0  0  0  0
    7.7272  -13.7530   24.9886 C   0  0  0  0  0  0  0  0  0  0  0  0
    7.0598  -12.6839   24.5127 N   0  0  0  0  0  0  0  0  0  0  0  0
    6.3469  -12.2026   25.5425 C   0  0  0  0  0  0  0  0  0  0  0  0
    6.5721  -12.9606   26.6275 N   0  0  0  0  0  0  0  0  0  0  0  0
    9.4149  -16.8789   27.5195 C   0  0  0  0  0  0  0  0  0  0  0  0
    9.1859  -18.1107   27.5666 O   0  0  0  0  0  0  0  0  0  0  0  0
   10.3626  -16.3920   28.3936 O   0  0  0  0  0  0  0  0  0  0  0  0
  2  3  1  0
  2  1  1  0
  3  5  1  0
  4  3  2  0
  5  6  1  0
  6 11  1  0
  6  7  1  1
  7  8  1  0
  9 13  1  0
  9  8  1  0
 10  9  2  0
 11 14  1  0
 11 12  2  0
 14 15  1  0
 15 22  1  0
 15 16  1  1
 16 17  1  0
 17 18  2  0
 19 18  1  0
 20 19  1  0
 21 20  2  0
 21 17  1  0
 22 24  1  0
 23 22  2  0
M  END
$$$$
