GEH.pdb
     RDKit          3D

 24 24  0  0  1  0  0  0  0  0999 V2000
    7.7105  -13.5904   16.7916 N   0  0  0  0  0  0  0  0  0  0  0  0
    8.6731  -13.0303   17.7172 C   0  0  0  0  0  0  0  0  0  0  0  0
    9.6172  -14.0882   18.1705 C   0  0  0  0  0  0  0  0  0  0  0  0
    9.1975  -15.2963   18.2518 O   0  0  0  0  0  0  0  0  0  0  0  0
   10.9610  -13.7727   18.5086 N   0  0  0  0  0  0  0  0  0  0  0  0
   11.8563  -14.6964   19.1376 C   0  0  1  0  0  0  0  0  0  0  0  0
   13.2831  -14.5053   18.7917 C   0  0  0  0  0  0  0  0  0  0  0  0
   14.2979  -15.4742   19.1860 C   0  0  0  0  0  0  0  0  0  0  0  0
   14.9136  -16.3127   18.1643 C   0  0  0  0  0  0  0  0  0  0  0  0
   15.0262  -17.5462   18.2396 O   0  0  0  0  0  0  0  0  0  0  0  0
   11.6196  -14.9574   20.5630 C   0  0  0  0  0  0  0  0  0  0  0  0
   11.9205  -14.0512   21.4194 O   0  0  0  0  0  0  0  0  0  0  0  0
   15.4406  -15.7559   16.9805 O   0  0  0  0  0  0  0  0  0  0  0  0
   11.0756  -16.1493   21.1018 N   0  0  0  0  0  0  0  0  0  0  0  0
   10.8261  -16.3355   22.5430 C   0  0  1  0  0  0  0  0  0  0  0  0
    9.4485  -16.7867   22.8182 C   0  0  0  0  0  0  0  0  0  0  0  0
    8.4780  -15.7848   22.3402 C   0  0  0  0  0  0  0  0  0  0  0  0
    8.4232  -14.4175   22.4914 C   0  0  0  0  0  0  0  0  0  0  0  0
    7.3218  -13.9036   21.9103 N   0  0  0  0  0  0  0  0  0  0  0  0
    6.6611  -14.9445   21.3810 C   0  0  0  0  0  0  0  0  0  0  0  0
    7.3428  -16.0736   21.6319 N   0  0  0  0  0  0  0  0  0  0  0  0
   11.8009  -17.3200   23.0179 C   0  0  0  0  0  0  0  0  0  0  0  0
   12.6108  -17.8523   22.2224 O   0  0  0  0  0  0  0  0  0  0  0  0
   11.8853  -17.7072   24.3379 O   0  0  0  0  0  0  0  0  0  0  0  0
  2  3  1  0
  2  1  1  0
  3  5  1  0
  4  3  2  0
  5  6  1  0
  6 11  1  0
  6  7  1  1
  7  8  1  0
  9 13  1  0
  9  8  1  0
 10  9  2  0
 11 14  1  0
 11 12  2  0
 14 15  1  0
 15 22  1  0
 15 16  1  6
 16 17  1  0
 17 18  2  0
 19 18  1  0
 20 19  1  0
 21 20  2  0
 21 17  1  0
 22 24  1  0
 23 22  2  0
M  END
$$$$
