GEH.pdb
     RDKit          3D

 24 24  0  0  1  0  0  0  0  0999 V2000
    8.0051  -15.3863   13.8760 N   0  0  0  0  0  0  0  0  0  0  0  0
    8.8888  -14.6558   14.7606 C   0  0  0  0  0  0  0  0  0  0  0  0
    9.2351  -15.4956   15.9399 C   0  0  0  0  0  0  0  0  0  0  0  0
    8.3193  -15.7680   16.7939 O   0  0  0  0  0  0  0  0  0  0  0  0
   10.5547  -15.9904   16.1227 N   0  0  0  0  0  0  0  0  0  0  0  0
   10.9524  -16.7881   17.2434 C   0  0  1  0  0  0  0  0  0  0  0  0
   12.1464  -17.6310   17.0079 C   0  0  0  0  0  0  0  0  0  0  0  0
   13.4309  -17.0463   16.6439 C   0  0  0  0  0  0  0  0  0  0  0  0
   14.6007  -17.9105   16.5417 C   0  0  0  0  0  0  0  0  0  0  0  0
   15.3232  -18.2336   17.4975 O   0  0  0  0  0  0  0  0  0  0  0  0
   10.9463  -16.1169   18.5493 C   0  0  0  0  0  0  0  0  0  0  0  0
   11.6136  -15.0310   18.6934 O   0  0  0  0  0  0  0  0  0  0  0  0
   15.0021  -18.4556   15.3043 O   0  0  0  0  0  0  0  0  0  0  0  0
   10.2552  -16.5657   19.7016 N   0  0  0  0  0  0  0  0  0  0  0  0
   10.3493  -15.8863   21.0068 C   0  0  1  0  0  0  0  0  0  0  0  0
    9.0239  -15.5293   21.5482 C   0  0  0  0  0  0  0  0  0  0  0  0
    8.3607  -14.5485   20.6693 C   0  0  0  0  0  0  0  0  0  0  0  0
    7.2470  -14.6445   19.8658 C   0  0  0  0  0  0  0  0  0  0  0  0
    7.0212  -13.4948   19.2011 N   0  0  0  0  0  0  0  0  0  0  0  0
    7.9947  -12.6513   19.5769 C   0  0  0  0  0  0  0  0  0  0  0  0
    8.8008  -13.2705   20.4539 N   0  0  0  0  0  0  0  0  0  0  0  0
   11.0517  -16.8003   21.9104 C   0  0  0  0  0  0  0  0  0  0  0  0
   11.4143  -17.9342   21.5171 O   0  0  0  0  0  0  0  0  0  0  0  0
   11.3513  -16.4730   23.2152 O   0  0  0  0  0  0  0  0  0  0  0  0
  2  3  1  0
  2  1  1  0
  3  5  1  0
  4  3  2  0
  5  6  1  0
  6 11  1  0
  6  7  1  6
  7  8  1  0
  9 13  1  0
  9  8  1  0
 10  9  2  0
 11 14  1  0
 11 12  2  0
 14 15  1  0
 15 22  1  0
 15 16  1  1
 16 17  1  0
 17 18  2  0
 19 18  1  0
 20 19  1  0
 21 20  2  0
 21 17  1  0
 22 24  1  0
 23 22  2  0
M  END
$$$$
