GEH.pdb
     RDKit          3D

 24 24  0  0  1  0  0  0  0  0999 V2000
   15.4190  -16.6760   15.1007 N   0  0  0  0  0  0  0  0  0  0  0  0
   16.3101  -16.3918   16.2064 C   0  0  0  0  0  0  0  0  0  0  0  0
   15.6770  -16.8060   17.4884 C   0  0  0  0  0  0  0  0  0  0  0  0
   14.4362  -17.1264   17.4889 O   0  0  0  0  0  0  0  0  0  0  0  0
   16.4279  -16.8481   18.6943 N   0  0  0  0  0  0  0  0  0  0  0  0
   15.8682  -17.2064   19.9627 C   0  0  1  0  0  0  0  0  0  0  0  0
   15.8493  -18.6605   20.2400 C   0  0  0  0  0  0  0  0  0  0  0  0
   16.2960  -19.6302   19.2477 C   0  0  0  0  0  0  0  0  0  0  0  0
   16.3872  -21.0367   19.6208 C   0  0  0  0  0  0  0  0  0  0  0  0
   15.4134  -21.7612   19.8794 O   0  0  0  0  0  0  0  0  0  0  0  0
   16.2856  -16.3879   21.1079 C   0  0  0  0  0  0  0  0  0  0  0  0
   17.5315  -16.3245   21.4057 O   0  0  0  0  0  0  0  0  0  0  0  0
   17.6339  -21.6894   19.7156 O   0  0  0  0  0  0  0  0  0  0  0  0
   15.4201  -15.6389   21.9427 N   0  0  0  0  0  0  0  0  0  0  0  0
   15.1318  -16.0142   23.3391 C   0  0  1  0  0  0  0  0  0  0  0  0
   14.2550  -17.1974   23.4305 C   0  0  0  0  0  0  0  0  0  0  0  0
   12.8562  -16.8185   23.1587 C   0  0  0  0  0  0  0  0  0  0  0  0
   12.2376  -16.3542   22.0198 C   0  0  0  0  0  0  0  0  0  0  0  0
   10.9336  -16.0976   22.2398 N   0  0  0  0  0  0  0  0  0  0  0  0
   10.7083  -16.3974   23.5282 C   0  0  0  0  0  0  0  0  0  0  0  0
   11.8502  -16.8290   24.0869 N   0  0  0  0  0  0  0  0  0  0  0  0
   16.4217  -16.2712   23.9835 C   0  0  0  0  0  0  0  0  0  0  0  0
   16.7512  -15.6523   25.0230 O   0  0  0  0  0  0  0  0  0  0  0  0
   17.3266  -17.1903   23.4978 O   0  0  0  0  0  0  0  0  0  0  0  0
  2  3  1  0
  2  1  1  0
  3  5  1  0
  4  3  2  0
  5  6  1  0
  6 11  1  0
  6  7  1  1
  7  8  1  0
  9 13  1  0
  9  8  1  0
 10  9  2  0
 11 14  1  0
 11 12  2  0
 14 15  1  0
 15 22  1  0
 15 16  1  6
 16 17  1  0
 17 18  2  0
 19 18  1  0
 20 19  1  0
 21 20  2  0
 21 17  1  0
 22 24  1  0
 23 22  2  0
M  END
$$$$
