GEH.pdb
     RDKit          3D

 24 24  0  0  1  0  0  0  0  0999 V2000
    3.7490  -19.5088   22.0061 N   0  0  0  0  0  0  0  0  0  0  0  0
    3.8124  -18.0919   22.2986 C   0  0  0  0  0  0  0  0  0  0  0  0
    5.2318  -17.6458   22.3450 C   0  0  0  0  0  0  0  0  0  0  0  0
    6.0958  -18.3952   22.9231 O   0  0  0  0  0  0  0  0  0  0  0  0
    5.6299  -16.4127   21.7612 N   0  0  0  0  0  0  0  0  0  0  0  0
    6.9543  -15.8784   21.8669 C   0  0  1  0  0  0  0  0  0  0  0  0
    7.3302  -14.9428   20.7829 C   0  0  0  0  0  0  0  0  0  0  0  0
    8.7154  -14.5431   20.5691 C   0  0  0  0  0  0  0  0  0  0  0  0
    9.6455  -15.4961   19.9753 C   0  0  0  0  0  0  0  0  0  0  0  0
    9.4770  -16.0557   18.8805 O   0  0  0  0  0  0  0  0  0  0  0  0
    7.3682  -15.4363   23.2044 C   0  0  0  0  0  0  0  0  0  0  0  0
    6.7506  -14.4557   23.7540 O   0  0  0  0  0  0  0  0  0  0  0  0
   10.8410  -15.8573   20.6306 O   0  0  0  0  0  0  0  0  0  0  0  0
    8.4161  -16.0036   23.9706 N   0  0  0  0  0  0  0  0  0  0  0  0
    8.7949  -15.5018   25.3043 C   0  0  1  0  0  0  0  0  0  0  0  0
    7.6429  -15.4337   26.2239 C   0  0  0  0  0  0  0  0  0  0  0  0
    7.2085  -14.0351   26.3953 C   0  0  0  0  0  0  0  0  0  0  0  0
    7.7053  -12.8535   25.8931 C   0  0  0  0  0  0  0  0  0  0  0  0
    7.0070  -11.7951   26.3481 N   0  0  0  0  0  0  0  0  0  0  0  0
    6.0539  -12.2956   27.1490 C   0  0  0  0  0  0  0  0  0  0  0  0
    6.1650  -13.6331   27.1846 N   0  0  0  0  0  0  0  0  0  0  0  0
    9.8215  -16.4090   25.8223 C   0  0  0  0  0  0  0  0  0  0  0  0
   10.1575  -17.4293   25.1758 O   0  0  0  0  0  0  0  0  0  0  0  0
   10.4658  -16.1967   27.0219 O   0  0  0  0  0  0  0  0  0  0  0  0
  2  3  1  0
  2  1  1  0
  3  5  1  0
  4  3  2  0
  5  6  1  0
  6 11  1  0
  6  7  1  6
  7  8  1  0
  9 13  1  0
  9  8  1  0
 10  9  2  0
 11 14  1  0
 11 12  2  0
 14 15  1  0
 15 22  1  0
 15 16  1  1
 16 17  1  0
 17 18  2  0
 19 18  1  0
 20 19  1  0
 21 20  2  0
 21 17  1  0
 22 24  1  0
 23 22  2  0
M  END
$$$$
