GEH.pdb
     RDKit          3D

 24 24  0  0  1  0  0  0  0  0999 V2000
    9.8371  -16.4604   14.2979 N   0  0  0  0  0  0  0  0  0  0  0  0
   11.0315  -16.3824   15.1131 C   0  0  0  0  0  0  0  0  0  0  0  0
   10.7296  -16.8291   16.5006 C   0  0  0  0  0  0  0  0  0  0  0  0
    9.5060  -16.8925   16.8762 O   0  0  0  0  0  0  0  0  0  0  0  0
   11.7734  -17.1807   17.3987 N   0  0  0  0  0  0  0  0  0  0  0  0
   11.5445  -17.6993   18.7137 C   0  0  1  0  0  0  0  0  0  0  0  0
   12.3490  -18.8946   19.0541 C   0  0  0  0  0  0  0  0  0  0  0  0
   13.7280  -19.0370   18.6041 C   0  0  0  0  0  0  0  0  0  0  0  0
   14.5026  -20.1912   19.0442 C   0  0  0  0  0  0  0  0  0  0  0  0
   14.1650  -20.9582   19.9595 O   0  0  0  0  0  0  0  0  0  0  0  0
   11.4644  -16.7087   19.7945 C   0  0  0  0  0  0  0  0  0  0  0  0
   12.3578  -15.7911   19.8644 O   0  0  0  0  0  0  0  0  0  0  0  0
   15.7310  -20.5232   18.4361 O   0  0  0  0  0  0  0  0  0  0  0  0
   10.4668  -16.6665   20.7994 N   0  0  0  0  0  0  0  0  0  0  0  0
   10.3365  -15.5484   21.7517 C   0  0  1  0  0  0  0  0  0  0  0  0
    8.9696  -14.9932   21.7785 C   0  0  0  0  0  0  0  0  0  0  0  0
    8.6861  -14.2735   20.5231 C   0  0  0  0  0  0  0  0  0  0  0  0
    9.4814  -13.9716   19.4406 C   0  0  0  0  0  0  0  0  0  0  0  0
    8.8062  -13.2560   18.5205 N   0  0  0  0  0  0  0  0  0  0  0  0
    7.5679  -13.0941   19.0113 C   0  0  0  0  0  0  0  0  0  0  0  0
    7.4850  -13.6980   20.2075 N   0  0  0  0  0  0  0  0  0  0  0  0
   10.7134  -16.0673   23.0684 C   0  0  0  0  0  0  0  0  0  0  0  0
   10.9220  -17.2921   23.2366 O   0  0  0  0  0  0  0  0  0  0  0  0
   10.8609  -15.2571   24.1735 O   0  0  0  0  0  0  0  0  0  0  0  0
  2  3  1  0
  2  1  1  0
  3  5  1  0
  4  3  2  0
  5  6  1  0
  6 11  1  0
  6  7  1  1
  7  8  1  0
  9 13  1  0
  9  8  1  0
 10  9  2  0
 11 14  1  0
 11 12  2  0
 14 15  1  0
 15 22  1  0
 15 16  1  1
 16 17  1  0
 17 18  2  0
 19 18  1  0
 20 19  1  0
 21 20  2  0
 21 17  1  0
 22 24  1  0
 23 22  2  0
M  END
$$$$
