GEH.pdb
     RDKit          3D

 24 24  0  0  1  0  0  0  0  0999 V2000
    8.2288  -13.7644   16.7470 N   0  0  0  0  0  0  0  0  0  0  0  0
    9.5414  -13.2819   17.1233 C   0  0  0  0  0  0  0  0  0  0  0  0
   10.2292  -14.2914   17.9739 C   0  0  0  0  0  0  0  0  0  0  0  0
    9.5546  -15.2856   18.4196 O   0  0  0  0  0  0  0  0  0  0  0  0
   11.6087  -14.1625   18.2904 N   0  0  0  0  0  0  0  0  0  0  0  0
   12.3316  -15.1140   19.0796 C   0  0  1  0  0  0  0  0  0  0  0  0
   13.7923  -15.1315   18.8396 C   0  0  0  0  0  0  0  0  0  0  0  0
   14.3413  -15.1701   17.4900 C   0  0  0  0  0  0  0  0  0  0  0  0
   15.7881  -15.2056   17.3131 C   0  0  0  0  0  0  0  0  0  0  0  0
   16.4355  -16.2194   17.0080 O   0  0  0  0  0  0  0  0  0  0  0  0
   11.9608  -15.1921   20.4981 C   0  0  0  0  0  0  0  0  0  0  0  0
   12.3283  -14.2521   21.2895 O   0  0  0  0  0  0  0  0  0  0  0  0
   16.5749  -14.0475   17.4834 O   0  0  0  0  0  0  0  0  0  0  0  0
   11.2149  -16.2370   21.0971 N   0  0  0  0  0  0  0  0  0  0  0  0
   10.8680  -16.2534   22.5300 C   0  0  1  0  0  0  0  0  0  0  0  0
    9.4362  -16.5298   22.7555 C   0  0  0  0  0  0  0  0  0  0  0  0
    8.6136  -15.4264   22.2263 C   0  0  0  0  0  0  0  0  0  0  0  0
    8.9464  -14.1647   21.7876 C   0  0  0  0  0  0  0  0  0  0  0  0
    7.8528  -13.4688   21.4204 N   0  0  0  0  0  0  0  0  0  0  0  0
    6.8076  -14.2854   21.6234 C   0  0  0  0  0  0  0  0  0  0  0  0
    7.2506  -15.4578   22.1049 N   0  0  0  0  0  0  0  0  0  0  0  0
   11.7016  -17.2822   23.1559 C   0  0  0  0  0  0  0  0  0  0  0  0
   12.4730  -17.9877   22.4637 O   0  0  0  0  0  0  0  0  0  0  0  0
   11.6896  -17.5267   24.5122 O   0  0  0  0  0  0  0  0  0  0  0  0
  2  3  1  0
  2  1  1  0
  3  5  1  0
  4  3  2  0
  5  6  1  0
  6 11  1  0
  6  7  1  1
  7  8  1  0
  9 13  1  0
  9  8  1  0
 10  9  2  0
 11 14  1  0
 11 12  2  0
 14 15  1  0
 15 22  1  0
 15 16  1  6
 16 17  1  0
 17 18  2  0
 19 18  1  0
 20 19  1  0
 21 20  2  0
 21 17  1  0
 22 24  1  0
 23 22  2  0
M  END
$$$$
