GEH.pdb
     RDKit          3D

 24 24  0  0  1  0  0  0  0  0999 V2000
    7.6721  -16.7655   18.2312 N   0  0  0  0  0  0  0  0  0  0  0  0
    8.7736  -16.0163   18.7991 C   0  0  0  0  0  0  0  0  0  0  0  0
    9.1164  -16.5570   20.1429 C   0  0  0  0  0  0  0  0  0  0  0  0
    8.1693  -16.9615   20.9055 O   0  0  0  0  0  0  0  0  0  0  0  0
   10.4670  -16.6269   20.5799 N   0  0  0  0  0  0  0  0  0  0  0  0
   10.8506  -17.0040   21.9070 C   0  0  1  0  0  0  0  0  0  0  0  0
   12.2254  -17.5410   22.0225 C   0  0  0  0  0  0  0  0  0  0  0  0
   12.7197  -18.1044   23.2725 C   0  0  0  0  0  0  0  0  0  0  0  0
   14.0673  -18.6592   23.3171 C   0  0  0  0  0  0  0  0  0  0  0  0
   15.0913  -18.0504   22.9695 O   0  0  0  0  0  0  0  0  0  0  0  0
   10.4865  -16.0661   22.9763 C   0  0  0  0  0  0  0  0  0  0  0  0
   10.8690  -14.8450   22.8892 O   0  0  0  0  0  0  0  0  0  0  0  0
   14.3034  -19.9721   23.7750 O   0  0  0  0  0  0  0  0  0  0  0  0
    9.7318  -16.3880   24.1311 N   0  0  0  0  0  0  0  0  0  0  0  0
    9.2248  -15.3671   25.0665 C   0  0  1  0  0  0  0  0  0  0  0  0
    7.7971  -15.0665   24.8459 C   0  0  0  0  0  0  0  0  0  0  0  0
    7.3737  -13.9432   25.7021 C   0  0  0  0  0  0  0  0  0  0  0  0
    8.0393  -13.2306   26.6740 C   0  0  0  0  0  0  0  0  0  0  0  0
    7.2413  -12.3005   27.2333 N   0  0  0  0  0  0  0  0  0  0  0  0
    6.0533  -12.4129   26.6196 C   0  0  0  0  0  0  0  0  0  0  0  0
    6.1211  -13.3915   25.7029 N   0  0  0  0  0  0  0  0  0  0  0  0
    9.4449  -15.8850   26.4187 C   0  0  0  0  0  0  0  0  0  0  0  0
    9.7093  -17.0966   26.6036 O   0  0  0  0  0  0  0  0  0  0  0  0
    9.3793  -15.0878   27.5410 O   0  0  0  0  0  0  0  0  0  0  0  0
  2  3  1  0
  2  1  1  0
  3  5  1  0
  4  3  2  0
  5  6  1  0
  6 11  1  0
  6  7  1  6
  7  8  1  0
  9 13  1  0
  9  8  1  0
 10  9  2  0
 11 14  1  0
 11 12  2  0
 14 15  1  0
 15 22  1  0
 15 16  1  6
 16 17  1  0
 17 18  2  0
 19 18  1  0
 20 19  1  0
 21 20  2  0
 21 17  1  0
 22 24  1  0
 23 22  2  0
M  END
$$$$
