GEH.pdb
     RDKit          3D

 24 24  0  0  1  0  0  0  0  0999 V2000
   16.5725  -16.3923   16.8916 N   0  0  0  0  0  0  0  0  0  0  0  0
   16.4189  -17.4413   17.8780 C   0  0  0  0  0  0  0  0  0  0  0  0
   15.5527  -16.9681   18.9923 C   0  0  0  0  0  0  0  0  0  0  0  0
   16.0634  -16.2132   19.8931 O   0  0  0  0  0  0  0  0  0  0  0  0
   14.1834  -17.3419   19.0631 N   0  0  0  0  0  0  0  0  0  0  0  0
   13.3093  -16.9464   20.1261 C   0  0  1  0  0  0  0  0  0  0  0  0
   11.8801  -17.2578   19.8977 C   0  0  0  0  0  0  0  0  0  0  0  0
   10.8596  -16.9109   20.8787 C   0  0  0  0  0  0  0  0  0  0  0  0
    9.4656  -17.2321   20.5966 C   0  0  0  0  0  0  0  0  0  0  0  0
    9.0692  -17.8071   19.5708 O   0  0  0  0  0  0  0  0  0  0  0  0
   13.7723  -17.2422   21.4877 C   0  0  0  0  0  0  0  0  0  0  0  0
   14.0195  -18.4588   21.8099 O   0  0  0  0  0  0  0  0  0  0  0  0
    8.4393  -16.8981   21.5046 O   0  0  0  0  0  0  0  0  0  0  0  0
   13.9779  -16.2860   22.5126 N   0  0  0  0  0  0  0  0  0  0  0  0
   14.3806  -16.6546   23.8823 C   0  0  1  0  0  0  0  0  0  0  0  0
   15.3528  -15.7033   24.4543 C   0  0  0  0  0  0  0  0  0  0  0  0
   16.7257  -16.0895   24.0802 C   0  0  0  0  0  0  0  0  0  0  0  0
   17.2133  -17.1585   23.3626 C   0  0  0  0  0  0  0  0  0  0  0  0
   18.5585  -17.1318   23.2960 N   0  0  0  0  0  0  0  0  0  0  0  0
   18.9423  -16.0397   23.9745 C   0  0  0  0  0  0  0  0  0  0  0  0
   17.8554  -15.4094   24.4475 N   0  0  0  0  0  0  0  0  0  0  0  0
   13.1574  -16.6956   24.6868 C   0  0  0  0  0  0  0  0  0  0  0  0
   12.0512  -16.3867   24.1837 O   0  0  0  0  0  0  0  0  0  0  0  0
   13.1507  -17.0712   26.0128 O   0  0  0  0  0  0  0  0  0  0  0  0
  2  3  1  0
  2  1  1  0
  3  5  1  0
  4  3  2  0
  5  6  1  0
  6 11  1  0
  6  7  1  6
  7  8  1  0
  9 13  1  0
  9  8  1  0
 10  9  2  0
 11 14  1  0
 11 12  2  0
 14 15  1  0
 15 22  1  0
 15 16  1  1
 16 17  1  0
 17 18  2  0
 19 18  1  0
 20 19  1  0
 21 20  2  0
 21 17  1  0
 22 24  1  0
 23 22  2  0
M  END
$$$$
