PAM.pdb
     RDKit          3D

 21 21  0  0  1  0  0  0  0  0999 V2000
   26.3029  -23.1132  -18.0360 N   0  0  0  0  0  0  0  0  0  0  0  0
   27.0617  -22.9720  -19.2567 C   0  0  0  0  0  0  0  0  0  0  0  0
   28.3501  -22.2985  -18.7840 C   0  0  0  0  0  0  0  0  0  0  0  0
   28.6009  -23.0477  -17.4914 C   0  0  0  0  0  0  0  0  0  0  0  0
   27.1987  -23.2339  -16.9571 C   0  0  1  0  0  0  0  0  0  0  0  0
   27.0081  -22.2944  -15.8484 C   0  0  0  0  0  0  0  0  0  0  0  0
   27.7711  -22.4231  -14.8440 O   0  0  0  0  0  0  0  0  0  0  0  0
   25.1481  -19.0899  -15.0995 C   0  0  0  0  0  0  0  0  0  0  0  0
   25.9803  -20.2837  -14.7267 C   0  0  2  0  0  0  0  0  0  0  0  0
   26.0549  -21.2584  -15.7915 N   0  0  0  0  0  0  0  0  0  0  0  0
   25.5020  -20.8621  -13.4604 C   0  0  0  0  0  0  0  0  0  0  0  0
   24.6539  -21.7794  -13.3811 O   0  0  0  0  0  0  0  0  0  0  0  0
   26.7062  -19.7936   -5.7174 C   0  0  0  0  0  0  0  0  0  0  0  0
   27.0408  -19.3038   -7.4305 S   0  0  0  0  0  0  0  0  0  0  0  0
   25.9703  -20.3226   -8.5092 C   0  0  0  0  0  0  0  0  0  0  0  0
   26.3887  -20.0657   -9.9277 C   0  0  0  0  0  0  0  0  0  0  0  0
   25.5565  -20.8245  -10.9290 C   0  0  2  0  0  0  0  0  0  0  0  0
   26.0270  -20.3578  -12.2430 N   0  0  0  0  0  0  0  0  0  0  0  0
   24.1412  -20.4261  -10.8108 C   0  0  0  0  0  0  0  0  0  0  0  0
   23.5908  -19.2974  -11.4012 O   0  0  0  0  0  0  0  0  0  0  0  0
   23.3617  -21.1405  -10.1337 O   0  0  0  0  0  0  0  0  0  0  0  0
  2  1  1  0
  3  4  1  0
  3  2  1  0
  4  5  1  0
  5  1  1  0
  5  6  1  1
  7  6  2  0
  9 10  1  0
  9  8  1  6
 10  6  1  0
 11 18  1  0
 11  9  1  0
 12 11  2  0
 14 13  1  0
 15 16  1  0
 15 14  1  0
 17 18  1  0
 17 16  1  1
 19 17  1  0
 20 19  1  0
 21 19  2  0
M  END
$$$$
