PAM.pdb
     RDKit          3D

 21 21  0  0  1  0  0  0  0  0999 V2000
   27.1889  -19.6097  -15.8282 N   0  0  0  0  0  0  0  0  0  0  0  0
   27.2264  -18.6007  -16.8608 C   0  0  0  0  0  0  0  0  0  0  0  0
   27.2918  -17.2973  -16.0646 C   0  0  0  0  0  0  0  0  0  0  0  0
   28.2580  -17.6878  -14.9650 C   0  0  0  0  0  0  0  0  0  0  0  0
   27.8643  -19.1223  -14.6936 C   0  0  1  0  0  0  0  0  0  0  0  0
   27.1196  -19.1564  -13.4317 C   0  0  0  0  0  0  0  0  0  0  0  0
   27.6812  -18.6479  -12.4151 O   0  0  0  0  0  0  0  0  0  0  0  0
   23.6508  -19.9892  -12.1666 C   0  0  0  0  0  0  0  0  0  0  0  0
   25.0975  -19.6207  -11.9988 C   0  0  2  0  0  0  0  0  0  0  0  0
   25.8349  -19.7022  -13.2394 N   0  0  0  0  0  0  0  0  0  0  0  0
   25.7053  -20.4217  -10.9238 C   0  0  0  0  0  0  0  0  0  0  0  0
   26.2480  -21.5364  -11.0968 O   0  0  0  0  0  0  0  0  0  0  0  0
   28.9739  -19.5585   -3.9050 C   0  0  0  0  0  0  0  0  0  0  0  0
   28.3075  -18.8597   -5.4393 S   0  0  0  0  0  0  0  0  0  0  0  0
   27.4088  -20.1982   -6.3043 C   0  0  0  0  0  0  0  0  0  0  0  0
   26.9369  -19.6455   -7.6177 C   0  0  0  0  0  0  0  0  0  0  0  0
   26.2111  -20.6671   -8.4547 C   0  0  2  0  0  0  0  0  0  0  0  0
   25.6824  -19.9104   -9.6008 N   0  0  0  0  0  0  0  0  0  0  0  0
   25.0502  -21.1923   -7.7115 C   0  0  0  0  0  0  0  0  0  0  0  0
   25.1258  -22.1528   -6.7130 O   0  0  0  0  0  0  0  0  0  0  0  0
   23.9046  -20.7568   -7.9840 O   0  0  0  0  0  0  0  0  0  0  0  0
  2  1  1  0
  3  4  1  0
  3  2  1  0
  4  5  1  0
  5  1  1  0
  5  6  1  1
  7  6  2  0
  9 10  1  0
  9  8  1  6
 10  6  1  0
 11 18  1  0
 11  9  1  0
 12 11  2  0
 14 13  1  0
 15 16  1  0
 15 14  1  0
 17 18  1  0
 17 16  1  1
 19 17  1  0
 20 19  1  0
 21 19  2  0
M  END
$$$$
