PAM.pdb
     RDKit          3D

 21 21  0  0  1  0  0  0  0  0999 V2000
   28.0724  -18.5129  -14.8170 N   0  0  0  0  0  0  0  0  0  0  0  0
   27.6740  -18.0219  -16.1155 C   0  0  0  0  0  0  0  0  0  0  0  0
   26.2849  -17.4409  -15.8513 C   0  0  0  0  0  0  0  0  0  0  0  0
   26.5128  -16.7641  -14.5152 C   0  0  0  0  0  0  0  0  0  0  0  0
   27.4478  -17.7322  -13.8263 C   0  0  1  0  0  0  0  0  0  0  0  0
   26.6786  -18.4627  -12.8150 C   0  0  0  0  0  0  0  0  0  0  0  0
   26.0822  -17.7739  -11.9333 O   0  0  0  0  0  0  0  0  0  0  0  0
   25.4212  -21.9291  -12.0326 C   0  0  0  0  0  0  0  0  0  0  0  0
   25.8553  -20.5423  -11.6510 C   0  0  2  0  0  0  0  0  0  0  0  0
   26.5379  -19.8619  -12.7283 N   0  0  0  0  0  0  0  0  0  0  0  0
   26.6479  -20.5802  -10.4112 C   0  0  0  0  0  0  0  0  0  0  0  0
   27.8733  -20.8320  -10.3662 O   0  0  0  0  0  0  0  0  0  0  0  0
   29.9657  -18.6892   -5.2982 C   0  0  0  0  0  0  0  0  0  0  0  0
   28.1836  -18.4948   -5.0285 S   0  0  0  0  0  0  0  0  0  0  0  0
   27.3610  -19.9736   -5.7242 C   0  0  0  0  0  0  0  0  0  0  0  0
   26.9832  -19.6518   -7.1408 C   0  0  0  0  0  0  0  0  0  0  0  0
   26.4814  -20.8535   -7.8993 C   0  0  2  0  0  0  0  0  0  0  0  0
   25.9947  -20.3163   -9.1800 N   0  0  0  0  0  0  0  0  0  0  0  0
   25.3175  -21.4357   -7.2050 C   0  0  0  0  0  0  0  0  0  0  0  0
   25.3987  -22.3811   -6.1926 O   0  0  0  0  0  0  0  0  0  0  0  0
   24.1637  -21.0674   -7.5359 O   0  0  0  0  0  0  0  0  0  0  0  0
  2  1  1  0
  3  4  1  0
  3  2  1  0
  4  5  1  0
  5  1  1  0
  5  6  1  1
  7  6  2  0
  9 10  1  0
  9  8  1  6
 10  6  1  0
 11 18  1  0
 11  9  1  0
 12 11  2  0
 14 13  1  0
 15 16  1  0
 15 14  1  0
 17 18  1  0
 17 16  1  1
 19 17  1  0
 20 19  1  0
 21 19  2  0
M  END
$$$$
