PAM.pdb
     RDKit          3D

 21 21  0  0  1  0  0  0  0  0999 V2000
   27.4514  -20.1286  -15.4743 N   0  0  0  0  0  0  0  0  0  0  0  0
   27.5661  -19.2019  -16.5760 C   0  0  0  0  0  0  0  0  0  0  0  0
   27.5591  -17.8402  -15.8811 C   0  0  0  0  0  0  0  0  0  0  0  0
   28.4356  -18.1328  -14.6806 C   0  0  0  0  0  0  0  0  0  0  0  0
   28.0300  -19.5468  -14.3307 C   0  0  1  0  0  0  0  0  0  0  0  0
   27.1860  -19.4927  -13.1336 C   0  0  0  0  0  0  0  0  0  0  0  0
   27.6582  -18.8952  -12.1199 O   0  0  0  0  0  0  0  0  0  0  0  0
   23.6684  -20.3588  -12.0298 C   0  0  0  0  0  0  0  0  0  0  0  0
   25.0969  -19.9544  -11.7996 C   0  0  2  0  0  0  0  0  0  0  0  0
   25.8958  -20.0430  -13.0010 N   0  0  0  0  0  0  0  0  0  0  0  0
   25.6685  -20.7206  -10.6802 C   0  0  0  0  0  0  0  0  0  0  0  0
   26.0248  -21.9182  -10.7557 O   0  0  0  0  0  0  0  0  0  0  0  0
   29.9286  -19.4254   -5.3642 C   0  0  0  0  0  0  0  0  0  0  0  0
   28.1755  -19.0514   -5.0932 S   0  0  0  0  0  0  0  0  0  0  0  0
   27.2023  -20.3319   -5.9654 C   0  0  0  0  0  0  0  0  0  0  0  0
   26.8972  -19.8059   -7.3378 C   0  0  0  0  0  0  0  0  0  0  0  0
   26.1750  -20.8084   -8.2007 C   0  0  2  0  0  0  0  0  0  0  0  0
   25.8326  -20.0733   -9.4287 N   0  0  0  0  0  0  0  0  0  0  0  0
   24.9038  -21.1978   -7.5618 C   0  0  0  0  0  0  0  0  0  0  0  0
   24.7902  -22.1359   -6.5458 O   0  0  0  0  0  0  0  0  0  0  0  0
   23.8378  -20.6581   -7.9474 O   0  0  0  0  0  0  0  0  0  0  0  0
  2  1  1  0
  3  4  1  0
  3  2  1  0
  4  5  1  0
  5  1  1  0
  5  6  1  1
  7  6  2  0
  9 10  1  0
  9  8  1  6
 10  6  1  0
 11 18  1  0
 11  9  1  0
 12 11  2  0
 14 13  1  0
 15 16  1  0
 15 14  1  0
 17 18  1  0
 17 16  1  1
 19 17  1  0
 20 19  1  0
 21 19  2  0
M  END
$$$$
