PAM.pdb
     RDKit          3D

 21 21  0  0  1  0  0  0  0  0999 V2000
   28.5867  -18.6779  -14.9176 N   0  0  0  0  0  0  0  0  0  0  0  0
   28.4324  -18.4795  -16.3398 C   0  0  0  0  0  0  0  0  0  0  0  0
   26.9243  -18.2848  -16.4976 C   0  0  0  0  0  0  0  0  0  0  0  0
   26.6259  -17.4148  -15.2938 C   0  0  0  0  0  0  0  0  0  0  0  0
   27.5560  -17.9903  -14.2498 C   0  0  1  0  0  0  0  0  0  0  0  0
   26.7518  -18.7796  -13.3126 C   0  0  0  0  0  0  0  0  0  0  0  0
   25.8136  -18.1785  -12.7074 O   0  0  0  0  0  0  0  0  0  0  0  0
   25.8476  -22.2885  -12.5051 C   0  0  0  0  0  0  0  0  0  0  0  0
   26.1163  -20.8771  -12.0660 C   0  0  2  0  0  0  0  0  0  0  0  0
   26.9218  -20.1469  -13.0186 N   0  0  0  0  0  0  0  0  0  0  0  0
   26.6908  -20.8663  -10.7108 C   0  0  0  0  0  0  0  0  0  0  0  0
   27.8822  -21.1471  -10.4487 O   0  0  0  0  0  0  0  0  0  0  0  0
   29.0284  -20.5785   -4.9419 C   0  0  0  0  0  0  0  0  0  0  0  0
   28.7027  -19.1625   -6.0260 S   0  0  0  0  0  0  0  0  0  0  0  0
   26.8998  -19.1131   -6.3338 C   0  0  0  0  0  0  0  0  0  0  0  0
   26.6938  -19.2505   -7.8143 C   0  0  0  0  0  0  0  0  0  0  0  0
   26.2871  -20.6435   -8.2209 C   0  0  2  0  0  0  0  0  0  0  0  0
   25.8524  -20.5170   -9.6212 N   0  0  0  0  0  0  0  0  0  0  0  0
   25.1107  -21.0713   -7.4406 C   0  0  0  0  0  0  0  0  0  0  0  0
   25.1718  -21.6534   -6.1826 O   0  0  0  0  0  0  0  0  0  0  0  0
   23.9648  -20.9090   -7.9275 O   0  0  0  0  0  0  0  0  0  0  0  0
  2  1  1  0
  3  4  1  0
  3  2  1  0
  4  5  1  0
  5  1  1  0
  5  6  1  1
  7  6  2  0
  9 10  1  0
  9  8  1  6
 10  6  1  0
 11 18  1  0
 11  9  1  0
 12 11  2  0
 14 13  1  0
 15 16  1  0
 15 14  1  0
 17 18  1  0
 17 16  1  1
 19 17  1  0
 20 19  1  0
 21 19  2  0
M  END
$$$$
