PAM.pdb
     RDKit          3D

 21 21  0  0  1  0  0  0  0  0999 V2000
   26.7757  -22.2064  -16.5845 N   0  0  0  0  0  0  0  0  0  0  0  0
   27.4661  -21.6771  -17.7374 C   0  0  0  0  0  0  0  0  0  0  0  0
   28.3337  -20.5696  -17.1391 C   0  0  0  0  0  0  0  0  0  0  0  0
   28.8094  -21.2413  -15.8673 C   0  0  0  0  0  0  0  0  0  0  0  0
   27.5868  -22.0262  -15.4484 C   0  0  1  0  0  0  0  0  0  0  0  0
   26.9694  -21.3318  -14.3149 C   0  0  0  0  0  0  0  0  0  0  0  0
   27.7346  -20.9755  -13.3689 O   0  0  0  0  0  0  0  0  0  0  0  0
   23.5871  -19.9907  -13.2365 C   0  0  0  0  0  0  0  0  0  0  0  0
   25.0457  -20.3003  -13.0528 C   0  0  2  0  0  0  0  0  0  0  0  0
   25.6022  -21.0212  -14.1754 N   0  0  0  0  0  0  0  0  0  0  0  0
   25.2618  -20.9913  -11.7712 C   0  0  0  0  0  0  0  0  0  0  0  0
   25.0109  -22.2015  -11.5725 O   0  0  0  0  0  0  0  0  0  0  0  0
   29.6260  -19.2772   -7.0192 C   0  0  0  0  0  0  0  0  0  0  0  0
   27.9771  -18.9483   -6.3413 S   0  0  0  0  0  0  0  0  0  0  0  0
   26.8254  -20.1527   -7.0966 C   0  0  0  0  0  0  0  0  0  0  0  0
   26.7382  -19.8323   -8.5605 C   0  0  0  0  0  0  0  0  0  0  0  0
   25.8761  -20.8064   -9.3215 C   0  0  2  0  0  0  0  0  0  0  0  0
   25.7880  -20.2511  -10.6815 N   0  0  0  0  0  0  0  0  0  0  0  0
   24.5095  -20.8079   -8.7664 C   0  0  0  0  0  0  0  0  0  0  0  0
   23.4481  -20.0834   -9.2898 O   0  0  0  0  0  0  0  0  0  0  0  0
   24.2654  -21.5036   -7.7502 O   0  0  0  0  0  0  0  0  0  0  0  0
  2  1  1  0
  3  4  1  0
  3  2  1  0
  4  5  1  0
  5  1  1  0
  5  6  1  1
  7  6  2  0
  9 10  1  0
  9  8  1  6
 10  6  1  0
 11 18  1  0
 11  9  1  0
 12 11  2  0
 14 13  1  0
 15 16  1  0
 15 14  1  0
 17 18  1  0
 17 16  1  1
 19 17  1  0
 20 19  1  0
 21 19  2  0
M  END
$$$$
