PAM.pdb
     RDKit          3D

 21 21  0  0  1  0  0  0  0  0999 V2000
   27.4256  -19.3525  -16.1926 N   0  0  0  0  0  0  0  0  0  0  0  0
   27.4941  -18.3824  -17.2602 C   0  0  0  0  0  0  0  0  0  0  0  0
   27.4927  -17.0488  -16.5127 C   0  0  0  0  0  0  0  0  0  0  0  0
   28.4102  -17.3760  -15.3525 C   0  0  0  0  0  0  0  0  0  0  0  0
   28.0331  -18.8078  -15.0457 C   0  0  1  0  0  0  0  0  0  0  0  0
   27.2269  -18.8113  -13.8217 C   0  0  0  0  0  0  0  0  0  0  0  0
   27.7034  -18.2074  -12.8138 O   0  0  0  0  0  0  0  0  0  0  0  0
   23.7102  -19.5185  -12.7115 C   0  0  0  0  0  0  0  0  0  0  0  0
   25.1787  -19.3399  -12.4495 C   0  0  2  0  0  0  0  0  0  0  0  0
   25.9687  -19.4237  -13.6571 N   0  0  0  0  0  0  0  0  0  0  0  0
   25.6284  -20.2810  -11.4108 C   0  0  0  0  0  0  0  0  0  0  0  0
   25.8014  -21.5066  -11.5980 O   0  0  0  0  0  0  0  0  0  0  0  0
   29.6121  -18.9709   -6.4557 C   0  0  0  0  0  0  0  0  0  0  0  0
   28.0628  -19.3473   -5.5929 S   0  0  0  0  0  0  0  0  0  0  0  0
   27.1124  -20.4968   -6.6527 C   0  0  0  0  0  0  0  0  0  0  0  0
   26.8030  -19.7751   -7.9320 C   0  0  0  0  0  0  0  0  0  0  0  0
   26.1654  -20.6667   -8.9664 C   0  0  2  0  0  0  0  0  0  0  0  0
   25.8866  -19.7815  -10.1085 N   0  0  0  0  0  0  0  0  0  0  0  0
   24.8649  -21.1580   -8.4733 C   0  0  0  0  0  0  0  0  0  0  0  0
   24.7002  -22.2846   -7.6802 O   0  0  0  0  0  0  0  0  0  0  0  0
   23.8210  -20.5314   -8.7798 O   0  0  0  0  0  0  0  0  0  0  0  0
  2  1  1  0
  3  4  1  0
  3  2  1  0
  4  5  1  0
  5  1  1  0
  5  6  1  1
  7  6  2  0
  9 10  1  0
  9  8  1  6
 10  6  1  0
 11 18  1  0
 11  9  1  0
 12 11  2  0
 14 13  1  0
 15 16  1  0
 15 14  1  0
 17 18  1  0
 17 16  1  1
 19 17  1  0
 20 19  1  0
 21 19  2  0
M  END
$$$$
