PAM.pdb
     RDKit          3D

 21 21  0  0  1  0  0  0  0  0999 V2000
   26.7856  -20.4657  -16.1840 N   0  0  0  0  0  0  0  0  0  0  0  0
   28.0683  -19.8237  -16.3522 C   0  0  0  0  0  0  0  0  0  0  0  0
   28.2295  -19.0335  -15.0534 C   0  0  0  0  0  0  0  0  0  0  0  0
   27.6982  -20.0344  -14.0479 C   0  0  0  0  0  0  0  0  0  0  0  0
   26.5600  -20.6742  -14.8104 C   0  0  1  0  0  0  0  0  0  0  0  0
   25.3023  -20.1474  -14.2730 C   0  0  0  0  0  0  0  0  0  0  0  0
   25.1035  -20.2835  -13.0282 O   0  0  0  0  0  0  0  0  0  0  0  0
   22.3098  -18.1010  -15.3592 C   0  0  0  0  0  0  0  0  0  0  0  0
   23.0469  -19.0326  -14.4394 C   0  0  2  0  0  0  0  0  0  0  0  0
   24.2893  -19.5022  -15.0097 N   0  0  0  0  0  0  0  0  0  0  0  0
   22.1653  -20.1326  -14.0158 C   0  0  0  0  0  0  0  0  0  0  0  0
   22.0089  -21.1965  -14.6567 O   0  0  0  0  0  0  0  0  0  0  0  0
   19.4443  -23.0124   -7.2997 C   0  0  0  0  0  0  0  0  0  0  0  0
   20.3826  -21.7624   -8.2181 S   0  0  0  0  0  0  0  0  0  0  0  0
   20.0480  -22.0259   -9.9975 C   0  0  0  0  0  0  0  0  0  0  0  0
   20.8720  -21.0303  -10.7609 C   0  0  0  0  0  0  0  0  0  0  0  0
   20.6223  -21.0816  -12.2463 C   0  0  2  0  0  0  0  0  0  0  0  0
   21.4396  -19.9927  -12.8050 N   0  0  0  0  0  0  0  0  0  0  0  0
   19.2127  -20.7529  -12.5304 C   0  0  0  0  0  0  0  0  0  0  0  0
   18.1844  -21.6830  -12.5827 O   0  0  0  0  0  0  0  0  0  0  0  0
   18.8972  -19.5566  -12.7440 O   0  0  0  0  0  0  0  0  0  0  0  0
  2  1  1  0
  3  4  1  0
  3  2  1  0
  4  5  1  0
  5  1  1  0
  5  6  1  1
  7  6  2  0
  9 10  1  0
  9  8  1  6
 10  6  1  0
 11 18  1  0
 11  9  1  0
 12 11  2  0
 14 13  1  0
 15 16  1  0
 15 14  1  0
 17 18  1  0
 17 16  1  1
 19 17  1  0
 20 19  1  0
 21 19  2  0
M  END
$$$$
