PAM.pdb
     RDKit          3D

 21 21  0  0  1  0  0  0  0  0999 V2000
   26.8858  -19.1696  -15.7411 N   0  0  0  0  0  0  0  0  0  0  0  0
   28.2193  -19.2607  -16.2881 C   0  0  0  0  0  0  0  0  0  0  0  0
   28.9962  -19.9741  -15.1814 C   0  0  0  0  0  0  0  0  0  0  0  0
   27.9817  -21.0139  -14.7514 C   0  0  0  0  0  0  0  0  0  0  0  0
   26.6809  -20.2515  -14.8643 C   0  0  1  0  0  0  0  0  0  0  0  0
   26.2357  -19.9124  -13.5097 C   0  0  0  0  0  0  0  0  0  0  0  0
   26.7471  -18.8833  -12.9738 O   0  0  0  0  0  0  0  0  0  0  0  0
   23.3363  -20.3504  -11.2908 C   0  0  0  0  0  0  0  0  0  0  0  0
   24.8239  -20.2035  -11.4411 C   0  0  2  0  0  0  0  0  0  0  0  0
   25.2908  -20.6228  -12.7432 N   0  0  0  0  0  0  0  0  0  0  0  0
   25.5171  -20.8929  -10.3406 C   0  0  0  0  0  0  0  0  0  0  0  0
   25.8849  -22.0888  -10.3794 O   0  0  0  0  0  0  0  0  0  0  0  0
   29.3018  -19.1418   -3.6714 C   0  0  0  0  0  0  0  0  0  0  0  0
   28.5252  -18.6142   -5.2222 S   0  0  0  0  0  0  0  0  0  0  0  0
   27.6627  -20.0674   -5.9236 C   0  0  0  0  0  0  0  0  0  0  0  0
   27.0891  -19.6525   -7.2472 C   0  0  0  0  0  0  0  0  0  0  0  0
   26.4260  -20.7908   -7.9793 C   0  0  2  0  0  0  0  0  0  0  0  0
   25.7932  -20.1680   -9.1529 N   0  0  0  0  0  0  0  0  0  0  0  0
   25.3424  -21.3559   -7.1533 C   0  0  0  0  0  0  0  0  0  0  0  0
   25.5364  -22.2339   -6.0966 O   0  0  0  0  0  0  0  0  0  0  0  0
   24.1546  -21.0363   -7.4051 O   0  0  0  0  0  0  0  0  0  0  0  0
  2  1  1  0
  3  4  1  0
  3  2  1  0
  4  5  1  0
  5  1  1  0
  5  6  1  1
  7  6  2  0
  9 10  1  0
  9  8  1  6
 10  6  1  0
 11 18  1  0
 11  9  1  0
 12 11  2  0
 14 13  1  0
 15 16  1  0
 15 14  1  0
 17 18  1  0
 17 16  1  1
 19 17  1  0
 20 19  1  0
 21 19  2  0
M  END
$$$$
