PAM.pdb
     RDKit          3D

 21 21  0  0  1  0  0  0  0  0999 V2000
   25.2398  -23.7436  -13.6733 N   0  0  0  0  0  0  0  0  0  0  0  0
   24.5349  -24.5645  -14.6299 C   0  0  0  0  0  0  0  0  0  0  0  0
   23.6150  -23.5635  -15.3290 C   0  0  0  0  0  0  0  0  0  0  0  0
   24.5471  -22.3778  -15.4723 C   0  0  0  0  0  0  0  0  0  0  0  0
   25.3297  -22.4335  -14.1798 C   0  0  1  0  0  0  0  0  0  0  0  0
   24.8367  -21.3655  -13.3055 C   0  0  0  0  0  0  0  0  0  0  0  0
   24.9647  -20.1740  -13.7197 O   0  0  0  0  0  0  0  0  0  0  0  0
   22.4584  -20.7866  -10.5293 C   0  0  0  0  0  0  0  0  0  0  0  0
   23.7467  -20.4494  -11.2245 C   0  0  2  0  0  0  0  0  0  0  0  0
   24.2320  -21.5365  -12.0444 N   0  0  0  0  0  0  0  0  0  0  0  0
   24.7457  -19.9855  -10.2480 C   0  0  0  0  0  0  0  0  0  0  0  0
   24.5483  -19.0668   -9.4209 O   0  0  0  0  0  0  0  0  0  0  0  0
   28.8453  -19.3235   -4.4240 C   0  0  0  0  0  0  0  0  0  0  0  0
   27.5349  -20.0084   -5.4729 S   0  0  0  0  0  0  0  0  0  0  0  0
   28.0491  -19.7742   -7.2130 C   0  0  0  0  0  0  0  0  0  0  0  0
   26.8898  -20.1704   -8.0804 C   0  0  0  0  0  0  0  0  0  0  0  0
   27.1800  -20.0140   -9.5509 C   0  0  2  0  0  0  0  0  0  0  0  0
   26.0191  -20.6103  -10.2310 N   0  0  0  0  0  0  0  0  0  0  0  0
   28.3580  -20.8217   -9.9193 C   0  0  0  0  0  0  0  0  0  0  0  0
   28.2988  -22.1150  -10.4183 O   0  0  0  0  0  0  0  0  0  0  0  0
   29.5036  -20.3272   -9.7795 O   0  0  0  0  0  0  0  0  0  0  0  0
  2  1  1  0
  3  4  1  0
  3  2  1  0
  4  5  1  0
  5  1  1  0
  5  6  1  1
  7  6  2  0
  9 10  1  0
  9  8  1  1
 10  6  1  0
 11 18  1  0
 11  9  1  0
 12 11  2  0
 14 13  1  0
 15 16  1  0
 15 14  1  0
 17 18  1  0
 17 16  1  1
 19 17  1  0
 20 19  1  0
 21 19  2  0
M  END
$$$$
