PAM.pdb
     RDKit          3D

 21 21  0  0  1  0  0  0  0  0999 V2000
   18.3626  -14.9320  -17.0526 N   0  0  0  0  0  0  0  0  0  0  0  0
   17.7174  -15.7644  -18.0408 C   0  0  0  0  0  0  0  0  0  0  0  0
   18.1896  -15.1573  -19.3620 C   0  0  0  0  0  0  0  0  0  0  0  0
   19.6421  -14.8740  -19.0378 C   0  0  0  0  0  0  0  0  0  0  0  0
   19.5633  -14.4349  -17.5930 C   0  0  1  0  0  0  0  0  0  0  0  0
   19.7396  -12.9805  -17.5515 C   0  0  0  0  0  0  0  0  0  0  0  0
   20.8757  -12.5261  -17.8838 O   0  0  0  0  0  0  0  0  0  0  0  0
   17.7331   -9.8313  -16.8895 C   0  0  0  0  0  0  0  0  0  0  0  0
   18.9973  -10.6103  -17.1174 C   0  0  2  0  0  0  0  0  0  0  0  0
   18.7641  -12.0356  -17.1764 N   0  0  0  0  0  0  0  0  0  0  0  0
   20.0097  -10.2420  -16.1142 C   0  0  0  0  0  0  0  0  0  0  0  0
   20.0692  -10.7283  -14.9623 O   0  0  0  0  0  0  0  0  0  0  0  0
   26.5548  -10.9801  -14.9622 C   0  0  0  0  0  0  0  0  0  0  0  0
   25.9896   -9.6491  -16.0555 S   0  0  0  0  0  0  0  0  0  0  0  0
   24.5117   -8.8971  -15.2822 C   0  0  0  0  0  0  0  0  0  0  0  0
   23.3155   -9.3485  -16.0685 C   0  0  0  0  0  0  0  0  0  0  0  0
   22.0177   -8.8215  -15.5124 C   0  0  2  0  0  0  0  0  0  0  0  0
   20.9879   -9.2749  -16.4608 N   0  0  0  0  0  0  0  0  0  0  0  0
   22.0180   -7.3468  -15.5478 C   0  0  0  0  0  0  0  0  0  0  0  0
   22.3787   -6.5355  -14.4815 O   0  0  0  0  0  0  0  0  0  0  0  0
   21.6709   -6.7627  -16.6035 O   0  0  0  0  0  0  0  0  0  0  0  0
  2  1  1  0
  3  4  1  0
  3  2  1  0
  4  5  1  0
  5  1  1  0
  5  6  1  6
  7  6  2  0
  9 10  1  0
  9  8  1  1
 10  6  1  0
 11 18  1  0
 11  9  1  0
 12 11  2  0
 14 13  1  0
 15 16  1  0
 15 14  1  0
 17 18  1  0
 17 16  1  6
 19 17  1  0
 20 19  1  0
 21 19  2  0
M  END
$$$$
