PAM.pdb
     RDKit          3D

 21 21  0  0  1  0  0  0  0  0999 V2000
   21.0335  -12.4692  -17.5376 N   0  0  0  0  0  0  0  0  0  0  0  0
   22.2376  -13.2568  -17.6625 C   0  0  0  0  0  0  0  0  0  0  0  0
   23.1996  -12.5689  -16.6937 C   0  0  0  0  0  0  0  0  0  0  0  0
   22.2698  -12.2783  -15.5334 C   0  0  0  0  0  0  0  0  0  0  0  0
   20.9826  -11.9217  -16.2419 C   0  0  1  0  0  0  0  0  0  0  0  0
   20.8074  -10.4689  -16.1588 C   0  0  0  0  0  0  0  0  0  0  0  0
   21.3910   -9.7651  -17.0371 O   0  0  0  0  0  0  0  0  0  0  0  0
   18.7797   -7.9078  -14.2463 C   0  0  0  0  0  0  0  0  0  0  0  0
   19.8804   -8.3418  -15.1722 C   0  0  2  0  0  0  0  0  0  0  0  0
   20.0499   -9.7772  -15.1930 N   0  0  0  0  0  0  0  0  0  0  0  0
   21.1268   -7.6277  -14.8508 C   0  0  0  0  0  0  0  0  0  0  0  0
   22.1482   -8.1730  -14.3751 O   0  0  0  0  0  0  0  0  0  0  0  0
   27.1087   -5.6066  -17.2639 C   0  0  0  0  0  0  0  0  0  0  0  0
   25.5896   -6.4394  -16.7298 S   0  0  0  0  0  0  0  0  0  0  0  0
   24.1900   -5.3288  -17.1241 C   0  0  0  0  0  0  0  0  0  0  0  0
   22.9335   -6.0116  -16.6677 C   0  0  0  0  0  0  0  0  0  0  0  0
   22.4618   -5.5279  -15.3205 C   0  0  2  0  0  0  0  0  0  0  0  0
   21.1897   -6.2310  -15.0904 N   0  0  0  0  0  0  0  0  0  0  0  0
   22.1534   -4.0868  -15.3839 C   0  0  0  0  0  0  0  0  0  0  0  0
   21.0342   -3.5496  -16.0037 O   0  0  0  0  0  0  0  0  0  0  0  0
   22.9432   -3.2706  -14.8488 O   0  0  0  0  0  0  0  0  0  0  0  0
  2  1  1  0
  3  4  1  0
  3  2  1  0
  4  5  1  0
  5  1  1  0
  5  6  1  6
  7  6  2  0
  9 10  1  0
  9  8  1  1
 10  6  1  0
 11 18  1  0
 11  9  1  0
 12 11  2  0
 14 13  1  0
 15 16  1  0
 15 14  1  0
 17 18  1  0
 17 16  1  6
 19 17  1  0
 20 19  1  0
 21 19  2  0
M  END
$$$$
