PAM.pdb
     RDKit          3D

 21 21  0  0  1  0  0  0  0  0999 V2000
   27.1039  -18.5964  -15.5654 N   0  0  0  0  0  0  0  0  0  0  0  0
   28.3986  -18.1789  -16.0504 C   0  0  0  0  0  0  0  0  0  0  0  0
   29.3326  -18.5502  -14.8984 C   0  0  0  0  0  0  0  0  0  0  0  0
   28.7632  -19.8956  -14.4975 C   0  0  0  0  0  0  0  0  0  0  0  0
   27.2783  -19.6775  -14.6812 C   0  0  1  0  0  0  0  0  0  0  0  0
   26.6742  -19.5328  -13.3536 C   0  0  0  0  0  0  0  0  0  0  0  0
   26.8722  -18.4385  -12.7446 O   0  0  0  0  0  0  0  0  0  0  0  0
   23.7866  -20.6480  -11.4426 C   0  0  0  0  0  0  0  0  0  0  0  0
   25.2413  -20.2734  -11.4157 C   0  0  2  0  0  0  0  0  0  0  0  0
   25.8920  -20.4966  -12.6870 N   0  0  0  0  0  0  0  0  0  0  0  0
   25.9218  -20.9550  -10.3026 C   0  0  0  0  0  0  0  0  0  0  0  0
   26.3725  -22.1214  -10.3610 O   0  0  0  0  0  0  0  0  0  0  0  0
   29.7390  -18.7475   -5.5854 C   0  0  0  0  0  0  0  0  0  0  0  0
   28.2085  -19.0763   -4.6711 S   0  0  0  0  0  0  0  0  0  0  0  0
   27.3185  -20.4076   -5.5561 C   0  0  0  0  0  0  0  0  0  0  0  0
   27.0444  -19.9156   -6.9475 C   0  0  0  0  0  0  0  0  0  0  0  0
   26.3656  -20.9488   -7.8095 C   0  0  2  0  0  0  0  0  0  0  0  0
   26.0851  -20.2577   -9.0782 N   0  0  0  0  0  0  0  0  0  0  0  0
   25.0640  -21.3171   -7.2214 C   0  0  0  0  0  0  0  0  0  0  0  0
   24.8925  -22.2689   -6.2265 O   0  0  0  0  0  0  0  0  0  0  0  0
   24.0254  -20.7447   -7.6337 O   0  0  0  0  0  0  0  0  0  0  0  0
  2  1  1  0
  3  4  1  0
  3  2  1  0
  4  5  1  0
  5  1  1  0
  5  6  1  1
  7  6  2  0
  9 10  1  0
  9  8  1  6
 10  6  1  0
 11 18  1  0
 11  9  1  0
 12 11  2  0
 14 13  1  0
 15 16  1  0
 15 14  1  0
 17 18  1  0
 17 16  1  1
 19 17  1  0
 20 19  1  0
 21 19  2  0
M  END
$$$$
