AGL.pdb
     RDKit          3D

 18 17  0  0  1  0  0  0  0  0999 V2000
    9.6602  -19.0997   18.7871 C   0  0  0  0  0  0  0  0  0  0  0  0
    9.6902  -18.8122   20.2707 C   0  0  2  0  0  0  0  0  0  0  0  0
    8.8252  -19.7668   20.9257 N   0  0  0  0  0  0  0  0  0  0  0  0
    9.2723  -17.4532   20.6127 C   0  0  0  0  0  0  0  0  0  0  0  0
   10.0740  -16.4998   20.3110 O   0  0  0  0  0  0  0  0  0  0  0  0
    8.0390  -17.1457   21.2534 N   0  0  0  0  0  0  0  0  0  0  0  0
    7.7035  -15.7900   21.4829 C   0  0  0  0  0  0  0  0  0  0  0  0
    8.1781  -15.1835   22.7182 C   0  0  0  0  0  0  0  0  0  0  0  0
    9.3887  -14.7741   22.7235 O   0  0  0  0  0  0  0  0  0  0  0  0
    7.9418  -11.2196   26.1779 C   0  0  0  0  0  0  0  0  0  0  0  0
    7.0312  -12.3943   26.6781 C   0  0  1  0  0  0  0  0  0  0  0  0
    5.8386  -11.7130   27.2444 C   0  0  0  0  0  0  0  0  0  0  0  0
    6.8573  -13.3573   25.5861 C   0  0  0  0  0  0  0  0  0  0  0  0
    7.9776  -14.1161   25.0154 C   0  0  2  0  0  0  0  0  0  0  0  0
    7.4584  -14.9936   23.9133 N   0  0  0  0  0  0  0  0  0  0  0  0
    8.6910  -15.0297   25.9161 C   0  0  0  0  0  0  0  0  0  0  0  0
    9.6076  -14.7032   26.6995 O   0  0  0  0  0  0  0  0  0  0  0  0
    8.3788  -16.4134   25.9666 O   0  0  0  0  0  0  0  0  0  0  0  0
  2  1  1  6
  2  3  1  0
  4  5  2  0
  4  2  1  0
  6  4  1  0
  7  6  1  0
  8  7  1  0
  8 15  1  0
  9  8  2  0
 11 10  1  6
 11 13  1  0
 12 11  1  0
 14 13  1  1
 14 15  1  0
 14 16  1  0
 16 17  2  0
 16 18  1  0
M  END
$$$$
