AGL.pdb
     RDKit          3D

 18 17  0  0  1  0  0  0  0  0999 V2000
   11.2888  -18.0838   20.0530 C   0  0  0  0  0  0  0  0  0  0  0  0
    9.8027  -18.1719   19.7914 C   0  0  2  0  0  0  0  0  0  0  0  0
    9.4873  -17.2642   18.7120 N   0  0  0  0  0  0  0  0  0  0  0  0
    8.9823  -17.8526   20.9591 C   0  0  0  0  0  0  0  0  0  0  0  0
    8.7985  -18.7850   21.8191 O   0  0  0  0  0  0  0  0  0  0  0  0
    8.3893  -16.5778   21.1809 N   0  0  0  0  0  0  0  0  0  0  0  0
    7.5813  -16.3862   22.3269 C   0  0  0  0  0  0  0  0  0  0  0  0
    8.1916  -15.7280   23.4729 C   0  0  0  0  0  0  0  0  0  0  0  0
    9.4446  -15.4898   23.3926 O   0  0  0  0  0  0  0  0  0  0  0  0
    5.7180  -11.7761   26.5356 C   0  0  0  0  0  0  0  0  0  0  0  0
    6.7236  -12.5215   25.5911 C   0  0  1  0  0  0  0  0  0  0  0  0
    7.5520  -11.4328   25.0116 C   0  0  0  0  0  0  0  0  0  0  0  0
    7.3757  -13.5959   26.3462 C   0  0  0  0  0  0  0  0  0  0  0  0
    8.2998  -14.5520   25.7228 C   0  0  2  0  0  0  0  0  0  0  0  0
    7.5624  -15.3207   24.6648 N   0  0  0  0  0  0  0  0  0  0  0  0
    8.8829  -15.5797   26.5938 C   0  0  0  0  0  0  0  0  0  0  0  0
    8.4687  -16.7530   26.7049 O   0  0  0  0  0  0  0  0  0  0  0  0
   10.0107  -15.3052   27.4106 O   0  0  0  0  0  0  0  0  0  0  0  0
  2  1  1  1
  2  3  1  0
  4  5  2  0
  4  2  1  0
  6  4  1  0
  7  6  1  0
  8  7  1  0
  8 15  1  0
  9  8  2  0
 11 10  1  1
 11 13  1  0
 12 11  1  0
 14 13  1  1
 14 15  1  0
 14 16  1  0
 16 17  2  0
 16 18  1  0
M  END
$$$$
