AGL.pdb
     RDKit          3D

 18 17  0  0  1  0  0  0  0  0999 V2000
    8.6846  -17.8447   18.0701 C   0  0  0  0  0  0  0  0  0  0  0  0
    9.4865  -17.3604   19.2563 C   0  0  2  0  0  0  0  0  0  0  0  0
   10.1063  -18.5110   19.8730 N   0  0  0  0  0  0  0  0  0  0  0  0
    8.6888  -16.6400   20.2480 C   0  0  0  0  0  0  0  0  0  0  0  0
    8.1766  -15.5216   19.8882 O   0  0  0  0  0  0  0  0  0  0  0  0
    8.4589  -17.1147   21.5701 N   0  0  0  0  0  0  0  0  0  0  0  0
    7.5477  -16.4198   22.4006 C   0  0  0  0  0  0  0  0  0  0  0  0
    8.1015  -15.6578   23.5104 C   0  0  0  0  0  0  0  0  0  0  0  0
    9.3749  -15.5607   23.5555 O   0  0  0  0  0  0  0  0  0  0  0  0
    7.3108  -11.6140   25.0146 C   0  0  0  0  0  0  0  0  0  0  0  0
    7.0000  -12.1311   26.4620 C   0  0  1  0  0  0  0  0  0  0  0  0
    5.6950  -11.5058   26.7982 C   0  0  0  0  0  0  0  0  0  0  0  0
    7.1222  -13.5922   26.4798 C   0  0  0  0  0  0  0  0  0  0  0  0
    8.1097  -14.3129   25.6662 C   0  0  2  0  0  0  0  0  0  0  0  0
    7.3974  -15.0122   24.5447 N   0  0  0  0  0  0  0  0  0  0  0  0
    8.8813  -15.3679   26.3346 C   0  0  0  0  0  0  0  0  0  0  0  0
    8.5503  -16.5703   26.4064 O   0  0  0  0  0  0  0  0  0  0  0  0
   10.1154  -15.0883   26.9773 O   0  0  0  0  0  0  0  0  0  0  0  0
  2  1  1  6
  2  3  1  0
  4  5  2  0
  4  2  1  0
  6  4  1  0
  7  6  1  0
  8  7  1  0
  8 15  1  0
  9  8  2  0
 11 10  1  6
 11 13  1  0
 12 11  1  0
 14 13  1  1
 14 15  1  0
 14 16  1  0
 16 17  2  0
 16 18  1  0
M  END
$$$$
