AGL.pdb
     RDKit          3D

 18 17  0  0  1  0  0  0  0  0999 V2000
    6.7134  -18.1192   19.0957 C   0  0  0  0  0  0  0  0  0  0  0  0
    7.7776  -18.5624   20.0732 C   0  0  2  0  0  0  0  0  0  0  0  0
    7.1139  -19.1118   21.2335 N   0  0  0  0  0  0  0  0  0  0  0  0
    8.6795  -17.4873   20.4847 C   0  0  0  0  0  0  0  0  0  0  0  0
    9.4971  -17.0391   19.6053 O   0  0  0  0  0  0  0  0  0  0  0  0
    8.6914  -16.9259   21.7927 N   0  0  0  0  0  0  0  0  0  0  0  0
    9.5302  -15.8170   22.0565 C   0  0  0  0  0  0  0  0  0  0  0  0
    9.4934  -15.2551   23.3988 C   0  0  0  0  0  0  0  0  0  0  0  0
   10.5571  -14.6728   23.8021 O   0  0  0  0  0  0  0  0  0  0  0  0
    5.4876  -12.7212   26.2658 C   0  0  0  0  0  0  0  0  0  0  0  0
    6.9133  -13.0183   25.6844 C   0  0  1  0  0  0  0  0  0  0  0  0
    7.6700  -11.7615   25.9191 C   0  0  0  0  0  0  0  0  0  0  0  0
    7.4081  -14.2728   26.2603 C   0  0  0  0  0  0  0  0  0  0  0  0
    8.6121  -14.9503   25.7626 C   0  0  2  0  0  0  0  0  0  0  0  0
    8.4201  -15.2770   24.3098 N   0  0  0  0  0  0  0  0  0  0  0  0
    8.9642  -16.2299   26.3902 C   0  0  0  0  0  0  0  0  0  0  0  0
    8.8273  -17.3547   25.8644 O   0  0  0  0  0  0  0  0  0  0  0  0
    9.5106  -16.2871   27.6988 O   0  0  0  0  0  0  0  0  0  0  0  0
  2  1  1  6
  2  3  1  0
  4  5  2  0
  4  2  1  0
  6  4  1  0
  7  6  1  0
  8  7  1  0
  8 15  1  0
  9  8  2  0
 11 10  1  1
 11 13  1  0
 12 11  1  0
 14 13  1  1
 14 15  1  0
 14 16  1  0
 16 17  2  0
 16 18  1  0
M  END
$$$$
