AGL.pdb
     RDKit          3D

 18 17  0  0  1  0  0  0  0  0999 V2000
    7.0286  -18.5355   18.9799 C   0  0  0  0  0  0  0  0  0  0  0  0
    8.1184  -18.0292   19.8968 C   0  0  2  0  0  0  0  0  0  0  0  0
    8.6488  -19.1604   20.6231 N   0  0  0  0  0  0  0  0  0  0  0  0
    7.6633  -17.0081   20.8396 C   0  0  0  0  0  0  0  0  0  0  0  0
    7.0358  -17.4106   21.8822 O   0  0  0  0  0  0  0  0  0  0  0  0
    7.8810  -15.6134   20.6565 N   0  0  0  0  0  0  0  0  0  0  0  0
    7.3107  -14.7025   21.5774 C   0  0  0  0  0  0  0  0  0  0  0  0
    7.9534  -14.5752   22.8773 C   0  0  0  0  0  0  0  0  0  0  0  0
    9.1854  -14.2352   22.8729 O   0  0  0  0  0  0  0  0  0  0  0  0
    5.5839  -11.8381   26.9382 C   0  0  0  0  0  0  0  0  0  0  0  0
    6.7224  -12.2564   25.9442 C   0  0  1  0  0  0  0  0  0  0  0  0
    7.7126  -11.1531   26.0418 C   0  0  0  0  0  0  0  0  0  0  0  0
    7.1415  -13.6272   26.2531 C   0  0  0  0  0  0  0  0  0  0  0  0
    8.0794  -14.3765   25.4074 C   0  0  2  0  0  0  0  0  0  0  0  0
    7.3764  -14.7831   24.1446 N   0  0  0  0  0  0  0  0  0  0  0  0
    8.6171  -15.6277   25.9554 C   0  0  0  0  0  0  0  0  0  0  0  0
    9.4195  -15.7133   26.9090 O   0  0  0  0  0  0  0  0  0  0  0  0
    8.2491  -16.8893   25.4194 O   0  0  0  0  0  0  0  0  0  0  0  0
  2  1  1  1
  2  3  1  0
  4  5  2  0
  4  2  1  0
  6  4  1  0
  7  6  1  0
  8  7  1  0
  8 15  1  0
  9  8  2  0
 11 10  1  1
 11 13  1  0
 12 11  1  0
 14 13  1  1
 14 15  1  0
 14 16  1  0
 16 17  2  0
 16 18  1  0
M  END
$$$$
