AGL.pdb
     RDKit          3D

 18 17  0  0  1  0  0  0  0  0999 V2000
    7.3426  -20.7251   21.9799 C   0  0  0  0  0  0  0  0  0  0  0  0
    6.9115  -19.5138   22.7746 C   0  0  2  0  0  0  0  0  0  0  0  0
    5.4888  -19.3430   22.5872 N   0  0  0  0  0  0  0  0  0  0  0  0
    7.6092  -18.2857   22.3957 C   0  0  0  0  0  0  0  0  0  0  0  0
    8.8631  -18.2204   22.6532 O   0  0  0  0  0  0  0  0  0  0  0  0
    6.9721  -17.1798   21.7656 N   0  0  0  0  0  0  0  0  0  0  0  0
    7.7337  -16.0230   21.4744 C   0  0  0  0  0  0  0  0  0  0  0  0
    8.0766  -15.1503   22.5878 C   0  0  0  0  0  0  0  0  0  0  0  0
    9.0786  -14.3757   22.4169 O   0  0  0  0  0  0  0  0  0  0  0  0
    7.5939  -11.1641   25.9895 C   0  0  0  0  0  0  0  0  0  0  0  0
    6.8410  -12.4252   26.5387 C   0  0  1  0  0  0  0  0  0  0  0  0
    5.6048  -11.8723   27.1497 C   0  0  0  0  0  0  0  0  0  0  0  0
    6.7296  -13.4163   25.4637 C   0  0  0  0  0  0  0  0  0  0  0  0
    7.8980  -14.1000   24.8947 C   0  0  2  0  0  0  0  0  0  0  0  0
    7.4325  -15.0578   23.8364 N   0  0  0  0  0  0  0  0  0  0  0  0
    8.7032  -14.9172   25.8105 C   0  0  0  0  0  0  0  0  0  0  0  0
    9.6529  -14.4998   26.5066 O   0  0  0  0  0  0  0  0  0  0  0  0
    8.4518  -16.3036   25.9813 O   0  0  0  0  0  0  0  0  0  0  0  0
  2  1  1  6
  2  3  1  0
  4  5  2  0
  4  2  1  0
  6  4  1  0
  7  6  1  0
  8  7  1  0
  8 15  1  0
  9  8  2  0
 11 10  1  6
 11 13  1  0
 12 11  1  0
 14 13  1  1
 14 15  1  0
 14 16  1  0
 16 17  2  0
 16 18  1  0
M  END
$$$$
