AGL.pdb
     RDKit          3D

 18 17  0  0  1  0  0  0  0  0999 V2000
    7.5999  -19.4316   19.0704 C   0  0  0  0  0  0  0  0  0  0  0  0
    8.0506  -18.9869   20.4428 C   0  0  2  0  0  0  0  0  0  0  0  0
    7.0994  -19.4901   21.4074 N   0  0  0  0  0  0  0  0  0  0  0  0
    8.1692  -17.5357   20.5789 C   0  0  0  0  0  0  0  0  0  0  0  0
    9.2002  -16.9802   20.0582 O   0  0  0  0  0  0  0  0  0  0  0  0
    7.2102  -16.7262   21.2506 N   0  0  0  0  0  0  0  0  0  0  0  0
    7.4556  -15.3388   21.3844 C   0  0  0  0  0  0  0  0  0  0  0  0
    8.0081  -14.8763   22.6492 C   0  0  0  0  0  0  0  0  0  0  0  0
    9.0197  -14.0986   22.5787 O   0  0  0  0  0  0  0  0  0  0  0  0
    5.6540  -12.0042   26.5487 C   0  0  0  0  0  0  0  0  0  0  0  0
    6.9800  -12.4039   25.8133 C   0  0  1  0  0  0  0  0  0  0  0  0
    8.0030  -11.4933   26.3893 C   0  0  0  0  0  0  0  0  0  0  0  0
    7.1653  -13.8542   25.9245 C   0  0  0  0  0  0  0  0  0  0  0  0
    8.1920  -14.5804   25.1662 C   0  0  2  0  0  0  0  0  0  0  0  0
    7.5582  -15.1854   23.9470 N   0  0  0  0  0  0  0  0  0  0  0  0
    8.8493  -15.7050   25.8431 C   0  0  0  0  0  0  0  0  0  0  0  0
    9.5666  -15.6161   26.8620 O   0  0  0  0  0  0  0  0  0  0  0  0
    8.7130  -17.0361   25.3697 O   0  0  0  0  0  0  0  0  0  0  0  0
  2  1  1  6
  2  3  1  0
  4  5  2  0
  4  2  1  0
  6  4  1  0
  7  6  1  0
  8  7  1  0
  8 15  1  0
  9  8  2  0
 11 10  1  1
 11 13  1  0
 12 11  1  0
 14 13  1  1
 14 15  1  0
 14 16  1  0
 16 17  2  0
 16 18  1  0
M  END
$$$$
