AGL.pdb
     RDKit          3D

 18 17  0  0  1  0  0  0  0  0999 V2000
    8.5626  -17.9853   17.7656 C   0  0  0  0  0  0  0  0  0  0  0  0
    8.9259  -17.9945   19.2328 C   0  0  2  0  0  0  0  0  0  0  0  0
    8.1954  -19.0697   19.8644 N   0  0  0  0  0  0  0  0  0  0  0  0
    8.6364  -16.7344   19.9160 C   0  0  0  0  0  0  0  0  0  0  0  0
    9.3179  -15.7072   19.5651 O   0  0  0  0  0  0  0  0  0  0  0  0
    7.6510  -16.5982   20.9340 N   0  0  0  0  0  0  0  0  0  0  0  0
    7.3846  -15.3135   21.4646 C   0  0  0  0  0  0  0  0  0  0  0  0
    7.9687  -14.9897   22.7579 C   0  0  0  0  0  0  0  0  0  0  0  0
    9.2432  -14.9058   22.8026 O   0  0  0  0  0  0  0  0  0  0  0  0
    5.3762  -11.7405   26.5899 C   0  0  0  0  0  0  0  0  0  0  0  0
    6.5746  -12.1212   25.6529 C   0  0  1  0  0  0  0  0  0  0  0  0
    7.5117  -10.9752   25.7787 C   0  0  0  0  0  0  0  0  0  0  0  0
    7.0375  -13.4688   25.9990 C   0  0  0  0  0  0  0  0  0  0  0  0
    8.0024  -14.2089   25.1758 C   0  0  2  0  0  0  0  0  0  0  0  0
    7.2933  -14.7569   23.9712 N   0  0  0  0  0  0  0  0  0  0  0  0
    8.6481  -15.3745   25.7919 C   0  0  0  0  0  0  0  0  0  0  0  0
    8.2484  -16.5545   25.7009 O   0  0  0  0  0  0  0  0  0  0  0  0
    9.8268  -15.2420   26.5713 O   0  0  0  0  0  0  0  0  0  0  0  0
  2  1  1  6
  2  3  1  0
  4  5  2  0
  4  2  1  0
  6  4  1  0
  7  6  1  0
  8  7  1  0
  8 15  1  0
  9  8  2  0
 11 10  1  1
 11 13  1  0
 12 11  1  0
 14 13  1  1
 14 15  1  0
 14 16  1  0
 16 17  2  0
 16 18  1  0
M  END
$$$$
