AGL.pdb
     RDKit          3D

 18 17  0  0  1  0  0  0  0  0999 V2000
    7.0486  -18.2425   18.8250 C   0  0  0  0  0  0  0  0  0  0  0  0
    8.0048  -18.0248   19.9753 C   0  0  2  0  0  0  0  0  0  0  0  0
    8.5427  -19.3112   20.3551 N   0  0  0  0  0  0  0  0  0  0  0  0
    7.3877  -17.3863   21.1372 C   0  0  0  0  0  0  0  0  0  0  0  0
    6.9854  -16.1775   20.9973 O   0  0  0  0  0  0  0  0  0  0  0  0
    7.2164  -18.0332   22.3935 N   0  0  0  0  0  0  0  0  0  0  0  0
    6.6532  -17.3061   23.4693 C   0  0  0  0  0  0  0  0  0  0  0  0
    7.5254  -16.3850   24.1831 C   0  0  0  0  0  0  0  0  0  0  0  0
    8.7592  -16.3945   23.8499 O   0  0  0  0  0  0  0  0  0  0  0  0
    5.8403  -11.6580   26.9221 C   0  0  0  0  0  0  0  0  0  0  0  0
    6.5710  -12.5325   25.8449 C   0  0  1  0  0  0  0  0  0  0  0  0
    7.1515  -11.5396   24.9045 C   0  0  0  0  0  0  0  0  0  0  0  0
    7.4581  -13.4806   26.5262 C   0  0  0  0  0  0  0  0  0  0  0  0
    8.1736  -14.5463   25.8128 C   0  0  2  0  0  0  0  0  0  0  0  0
    7.1696  -15.4806   25.2018 N   0  0  0  0  0  0  0  0  0  0  0  0
    9.0506  -15.4106   26.6121 C   0  0  0  0  0  0  0  0  0  0  0  0
    8.7082  -16.4805   27.1584 O   0  0  0  0  0  0  0  0  0  0  0  0
   10.4132  -15.0809   26.8333 O   0  0  0  0  0  0  0  0  0  0  0  0
  2  1  1  6
  2  3  1  0
  4  5  2  0
  4  2  1  0
  6  4  1  0
  7  6  1  0
  8  7  1  0
  8 15  1  0
  9  8  2  0
 11 10  1  1
 11 13  1  0
 12 11  1  0
 14 13  1  1
 14 15  1  0
 14 16  1  0
 16 17  2  0
 16 18  1  0
M  END
$$$$
