AGL.pdb
     RDKit          3D

 18 17  0  0  1  0  0  0  0  0999 V2000
    8.4616  -12.0787   19.2873 C   0  0  0  0  0  0  0  0  0  0  0  0
    8.5407  -13.5470   18.9374 C   0  0  2  0  0  0  0  0  0  0  0  0
    7.6724  -13.7813   17.8060 N   0  0  0  0  0  0  0  0  0  0  0  0
    8.1647  -14.4328   20.0385 C   0  0  0  0  0  0  0  0  0  0  0  0
    6.9432  -14.8173   20.0908 O   0  0  0  0  0  0  0  0  0  0  0  0
    9.0757  -14.8796   21.0367 N   0  0  0  0  0  0  0  0  0  0  0  0
    8.6167  -15.7697   22.0367 C   0  0  0  0  0  0  0  0  0  0  0  0
    8.8694  -15.4057   23.4232 C   0  0  0  0  0  0  0  0  0  0  0  0
   10.0933  -15.3716   23.7894 O   0  0  0  0  0  0  0  0  0  0  0  0
    5.4703  -12.3505   26.8594 C   0  0  0  0  0  0  0  0  0  0  0  0
    6.7353  -12.7414   26.0190 C   0  0  1  0  0  0  0  0  0  0  0  0
    7.6201  -11.5523   26.1207 C   0  0  0  0  0  0  0  0  0  0  0  0
    7.2266  -14.0439   26.4798 C   0  0  0  0  0  0  0  0  0  0  0  0
    8.3308  -14.7511   25.8187 C   0  0  2  0  0  0  0  0  0  0  0  0
    7.9211  -15.0854   24.4134 N   0  0  0  0  0  0  0  0  0  0  0  0
    8.7453  -16.0328   26.4022 C   0  0  0  0  0  0  0  0  0  0  0  0
    8.2825  -17.1512   26.0930 O   0  0  0  0  0  0  0  0  0  0  0  0
    9.7472  -16.1002   27.4052 O   0  0  0  0  0  0  0  0  0  0  0  0
  2  1  1  1
  2  3  1  0
  4  5  2  0
  4  2  1  0
  6  4  1  0
  7  6  1  0
  8  7  1  0
  8 15  1  0
  9  8  2  0
 11 10  1  1
 11 13  1  0
 12 11  1  0
 14 13  1  1
 14 15  1  0
 14 16  1  0
 16 17  2  0
 16 18  1  0
M  END
$$$$
