AGL.pdb
     RDKit          3D

 18 17  0  0  1  0  0  0  0  0999 V2000
    7.9376  -16.1679   18.0296 C   0  0  0  0  0  0  0  0  0  0  0  0
    8.6419  -16.4382   19.3394 C   0  0  2  0  0  0  0  0  0  0  0  0
    8.9889  -17.8407   19.3759 N   0  0  0  0  0  0  0  0  0  0  0  0
    7.8425  -16.0978   20.5156 C   0  0  0  0  0  0  0  0  0  0  0  0
    7.5598  -14.8605   20.6944 O   0  0  0  0  0  0  0  0  0  0  0  0
    7.3722  -17.0592   21.4540 N   0  0  0  0  0  0  0  0  0  0  0  0
    6.7517  -16.6107   22.6443 C   0  0  0  0  0  0  0  0  0  0  0  0
    7.6006  -15.9800   23.6445 C   0  0  0  0  0  0  0  0  0  0  0  0
    8.8439  -15.8911   23.3623 O   0  0  0  0  0  0  0  0  0  0  0  0
    5.9409  -11.8414   27.1132 C   0  0  0  0  0  0  0  0  0  0  0  0
    6.8062  -12.5397   26.0075 C   0  0  1  0  0  0  0  0  0  0  0  0
    7.6704  -11.4514   25.4819 C   0  0  0  0  0  0  0  0  0  0  0  0
    7.4283  -13.7382   26.5790 C   0  0  0  0  0  0  0  0  0  0  0  0
    8.1770  -14.7046   25.7653 C   0  0  2  0  0  0  0  0  0  0  0  0
    7.2129  -15.4537   24.8915 N   0  0  0  0  0  0  0  0  0  0  0  0
    8.9184  -15.7480   26.4842 C   0  0  0  0  0  0  0  0  0  0  0  0
    8.4858  -16.8893   26.7500 O   0  0  0  0  0  0  0  0  0  0  0  0
   10.2405  -15.5283   26.9515 O   0  0  0  0  0  0  0  0  0  0  0  0
  2  1  1  6
  2  3  1  0
  4  5  2  0
  4  2  1  0
  6  4  1  0
  7  6  1  0
  8  7  1  0
  8 15  1  0
  9  8  2  0
 11 10  1  1
 11 13  1  0
 12 11  1  0
 14 13  1  1
 14 15  1  0
 14 16  1  0
 16 17  2  0
 16 18  1  0
M  END
$$$$
