AGL.pdb
     RDKit          3D

 18 17  0  0  1  0  0  0  0  0999 V2000
    7.5133  -18.6194   18.8803 C   0  0  0  0  0  0  0  0  0  0  0  0
    8.3655  -19.0850   20.0386 C   0  0  2  0  0  0  0  0  0  0  0  0
    7.4808  -19.4646   21.1164 N   0  0  0  0  0  0  0  0  0  0  0  0
    9.3132  -18.0764   20.5112 C   0  0  0  0  0  0  0  0  0  0  0  0
   10.3894  -17.9198   19.8331 O   0  0  0  0  0  0  0  0  0  0  0  0
    9.0997  -17.2754   21.6683 N   0  0  0  0  0  0  0  0  0  0  0  0
   10.0669  -16.3035   22.0188 C   0  0  0  0  0  0  0  0  0  0  0  0
    9.8249  -15.5232   23.2236 C   0  0  0  0  0  0  0  0  0  0  0  0
   10.7692  -14.7489   23.6002 O   0  0  0  0  0  0  0  0  0  0  0  0
    7.8085  -11.8265   26.4281 C   0  0  0  0  0  0  0  0  0  0  0  0
    6.9236  -13.1211   26.4309 C   0  0  1  0  0  0  0  0  0  0  0  0
    5.5306  -12.6083   26.4932 C   0  0  0  0  0  0  0  0  0  0  0  0
    7.3259  -13.9728   25.3072 C   0  0  0  0  0  0  0  0  0  0  0  0
    8.5908  -14.7187   25.2939 C   0  0  2  0  0  0  0  0  0  0  0  0
    8.6686  -15.5203   24.0268 N   0  0  0  0  0  0  0  0  0  0  0  0
    8.7988  -15.6969   26.3686 C   0  0  0  0  0  0  0  0  0  0  0  0
    8.3321  -16.8554   26.3918 O   0  0  0  0  0  0  0  0  0  0  0  0
    9.5802  -15.3858   27.5119 O   0  0  0  0  0  0  0  0  0  0  0  0
  2  1  1  6
  2  3  1  0
  4  5  2  0
  4  2  1  0
  6  4  1  0
  7  6  1  0
  8  7  1  0
  8 15  1  0
  9  8  2  0
 11 10  1  6
 11 13  1  0
 12 11  1  0
 14 13  1  1
 14 15  1  0
 14 16  1  0
 16 17  2  0
 16 18  1  0
M  END
$$$$
