AGL.pdb
     RDKit          3D

 18 17  0  0  1  0  0  0  0  0999 V2000
    6.7848  -19.8304   20.4898 C   0  0  0  0  0  0  0  0  0  0  0  0
    6.7459  -18.9695   21.7316 C   0  0  2  0  0  0  0  0  0  0  0  0
    5.3598  -18.7504   22.0769 N   0  0  0  0  0  0  0  0  0  0  0  0
    7.4236  -17.6832   21.5743 C   0  0  0  0  0  0  0  0  0  0  0  0
    8.6816  -17.7092   21.3307 O   0  0  0  0  0  0  0  0  0  0  0  0
    6.7629  -16.4266   21.6772 N   0  0  0  0  0  0  0  0  0  0  0  0
    7.5253  -15.2391   21.5705 C   0  0  0  0  0  0  0  0  0  0  0  0
    8.1175  -14.7124   22.7915 C   0  0  0  0  0  0  0  0  0  0  0  0
    9.0713  -13.8743   22.6466 O   0  0  0  0  0  0  0  0  0  0  0  0
    5.7605  -12.1707   26.7974 C   0  0  0  0  0  0  0  0  0  0  0  0
    6.9194  -12.4763   25.7863 C   0  0  1  0  0  0  0  0  0  0  0  0
    7.7305  -11.2316   25.7771 C   0  0  0  0  0  0  0  0  0  0  0  0
    7.5536  -13.7441   26.1613 C   0  0  0  0  0  0  0  0  0  0  0  0
    8.5072  -14.4398   25.2876 C   0  0  2  0  0  0  0  0  0  0  0  0
    7.7626  -15.0182   24.1192 N   0  0  0  0  0  0  0  0  0  0  0  0
    9.2352  -15.5755   25.8665 C   0  0  0  0  0  0  0  0  0  0  0  0
   10.0548  -15.5053   26.8065 O   0  0  0  0  0  0  0  0  0  0  0  0
    9.0540  -16.8966   25.3802 O   0  0  0  0  0  0  0  0  0  0  0  0
  2  1  1  6
  2  3  1  0
  4  5  2  0
  4  2  1  0
  6  4  1  0
  7  6  1  0
  8  7  1  0
  8 15  1  0
  9  8  2  0
 11 10  1  1
 11 13  1  0
 12 11  1  0
 14 13  1  1
 14 15  1  0
 14 16  1  0
 16 17  2  0
 16 18  1  0
M  END
$$$$
