AGL.pdb
     RDKit          3D

 18 17  0  0  1  0  0  0  0  0999 V2000
    8.3522  -12.2308   19.6067 C   0  0  0  0  0  0  0  0  0  0  0  0
    8.0813  -13.6786   19.2672 C   0  0  2  0  0  0  0  0  0  0  0  0
    6.6982  -13.7886   18.8627 N   0  0  0  0  0  0  0  0  0  0  0  0
    8.3459  -14.5990   20.3723 C   0  0  0  0  0  0  0  0  0  0  0  0
    9.5728  -14.8520   20.6436 O   0  0  0  0  0  0  0  0  0  0  0  0
    7.3231  -15.2157   21.1466 N   0  0  0  0  0  0  0  0  0  0  0  0
    7.6899  -16.0611   22.2206 C   0  0  0  0  0  0  0  0  0  0  0  0
    8.2224  -15.4280   23.4183 C   0  0  0  0  0  0  0  0  0  0  0  0
    9.3503  -14.8394   23.2982 O   0  0  0  0  0  0  0  0  0  0  0  0
    5.6251  -12.2983   26.9816 C   0  0  0  0  0  0  0  0  0  0  0  0
    6.8365  -12.7286   26.0837 C   0  0  1  0  0  0  0  0  0  0  0  0
    7.6712  -11.5032   25.9890 C   0  0  0  0  0  0  0  0  0  0  0  0
    7.4218  -13.9556   26.6334 C   0  0  0  0  0  0  0  0  0  0  0  0
    8.3601  -14.7925   25.8747 C   0  0  2  0  0  0  0  0  0  0  0  0
    7.6395  -15.3870   24.6993 N   0  0  0  0  0  0  0  0  0  0  0  0
    8.9441  -15.9424   26.5759 C   0  0  0  0  0  0  0  0  0  0  0  0
    9.6907  -15.8767   27.5753 O   0  0  0  0  0  0  0  0  0  0  0  0
    8.6928  -17.2736   26.1524 O   0  0  0  0  0  0  0  0  0  0  0  0
  2  1  1  1
  2  3  1  0
  4  5  2  0
  4  2  1  0
  6  4  1  0
  7  6  1  0
  8  7  1  0
  8 15  1  0
  9  8  2  0
 11 10  1  1
 11 13  1  0
 12 11  1  0
 14 13  1  1
 14 15  1  0
 14 16  1  0
 16 17  2  0
 16 18  1  0
M  END
$$$$
