AGL.pdb
     RDKit          3D

 18 17  0  0  1  0  0  0  0  0999 V2000
    7.2590  -19.6271   19.3697 C   0  0  0  0  0  0  0  0  0  0  0  0
    7.8126  -18.9686   20.6125 C   0  0  2  0  0  0  0  0  0  0  0  0
    6.9475  -19.3096   21.7187 N   0  0  0  0  0  0  0  0  0  0  0  0
    7.9246  -17.5145   20.5048 C   0  0  0  0  0  0  0  0  0  0  0  0
    8.7625  -17.0525   19.6519 O   0  0  0  0  0  0  0  0  0  0  0  0
    7.1602  -16.6050   21.2887 N   0  0  0  0  0  0  0  0  0  0  0  0
    7.5749  -15.2545   21.3733 C   0  0  0  0  0  0  0  0  0  0  0  0
    8.0932  -14.7931   22.6529 C   0  0  0  0  0  0  0  0  0  0  0  0
    9.2325  -14.2144   22.6308 O   0  0  0  0  0  0  0  0  0  0  0  0
    7.6283  -11.4708   25.2301 C   0  0  0  0  0  0  0  0  0  0  0  0
    7.2539  -12.3680   26.4606 C   0  0  1  0  0  0  0  0  0  0  0  0
    6.0676  -11.6966   27.0516 C   0  0  0  0  0  0  0  0  0  0  0  0
    7.1435  -13.7608   26.0156 C   0  0  0  0  0  0  0  0  0  0  0  0
    8.1533  -14.4006   25.1627 C   0  0  2  0  0  0  0  0  0  0  0  0
    7.4857  -14.9091   23.9177 N   0  0  0  0  0  0  0  0  0  0  0  0
    8.8506  -15.5677   25.7164 C   0  0  0  0  0  0  0  0  0  0  0  0
    8.4671  -16.7525   25.6183 O   0  0  0  0  0  0  0  0  0  0  0  0
   10.0662  -15.4312   26.4362 O   0  0  0  0  0  0  0  0  0  0  0  0
  2  1  1  6
  2  3  1  0
  4  5  2  0
  4  2  1  0
  6  4  1  0
  7  6  1  0
  8  7  1  0
  8 15  1  0
  9  8  2  0
 11 10  1  6
 11 13  1  0
 12 11  1  0
 14 13  1  1
 14 15  1  0
 14 16  1  0
 16 17  2  0
 16 18  1  0
M  END
$$$$
