GWS.pdb
     RDKit          3D

 25 26  0  0  1  0  0  0  0  0999 V2000
    5.6902  -15.9355   20.4700 N   0  0  0  0  0  0  0  0  0  0  0  0
    6.4067  -16.8664   21.2784 C   0  0  0  0  0  0  0  0  0  0  0  0
    7.5816  -16.2546   21.9704 C   0  0  0  0  0  0  0  0  0  0  0  0
    8.2595  -15.3201   21.4480 O   0  0  0  0  0  0  0  0  0  0  0  0
    7.9868  -16.7027   23.2539 N   0  0  0  0  0  0  0  0  0  0  0  0
    9.1508  -16.1797   23.9396 C   0  0  1  0  0  0  0  0  0  0  0  0
    8.8460  -15.8761   25.3855 C   0  0  0  0  0  0  0  0  0  0  0  0
    7.6777  -15.0654   25.6450 C   0  0  0  0  0  0  0  0  0  0  0  0
    6.3805  -15.5661   25.7293 C   0  0  0  0  0  0  0  0  0  0  0  0
    5.5178  -14.5777   26.0041 N   0  0  0  0  0  0  0  0  0  0  0  0
    6.2415  -13.4480   26.0973 C   0  0  0  0  0  0  0  0  0  0  0  0
    5.8545  -12.1647   26.3534 C   0  0  0  0  0  0  0  0  0  0  0  0
    6.7650  -11.1169   26.4018 C   0  0  0  0  0  0  0  0  0  0  0  0
    8.1052  -11.4028   26.1804 C   0  0  0  0  0  0  0  0  0  0  0  0
    8.4753  -12.6886   25.9264 C   0  0  0  0  0  0  0  0  0  0  0  0
    7.5751  -13.7277   25.8787 C   0  0  0  0  0  0  0  0  0  0  0  0
   10.3941  -16.9070   23.6857 C   0  0  0  0  0  0  0  0  0  0  0  0
   10.5434  -18.0539   24.2025 O   0  0  0  0  0  0  0  0  0  0  0  0
   13.2396  -15.2062   21.3741 O   0  0  0  0  0  0  0  0  0  0  0  0
   13.2872  -16.6007   21.3695 C   0  0  0  0  0  0  0  0  0  0  0  0
   12.6872  -17.1733   22.6730 C   0  0  2  0  0  0  0  0  0  0  0  0
   11.4593  -16.4103   22.8818 N   0  0  0  0  0  0  0  0  0  0  0  0
   13.7109  -16.8993   23.7070 C   0  0  0  0  0  0  0  0  0  0  0  0
   14.8404  -17.4398   23.6174 O   0  0  0  0  0  0  0  0  0  0  0  0
   13.4709  -16.0629   24.7804 O   0  0  0  0  0  0  0  0  0  0  0  0
  1  2  1  0
  3  5  1  0
  3  2  1  0
  4  3  2  0
  6  5  1  0
  7  8  1  0
  6  7  1  1
  8 16  1  0
  9  8  2  0
  9 10  1  0
 10 11  1  0
 11 12  1  0
 12 13  2  0
 14 13  1  0
 15 14  2  0
 16 11  2  0
 16 15  1  0
 17 22  1  0
 17  6  1  0
 18 17  2  0
 19 20  1  0
 21 20  1  6
 21 22  1  0
 21 23  1  0
 23 25  1  0
 24 23  2  0
M  END
$$$$
