GWS.pdb
     RDKit          3D

 25 26  0  0  1  0  0  0  0  0999 V2000
    6.9111  -15.2918   19.9381 N   0  0  0  0  0  0  0  0  0  0  0  0
    6.9953  -16.0626   21.1348 C   0  0  0  0  0  0  0  0  0  0  0  0
    8.1346  -15.6552   22.0121 C   0  0  0  0  0  0  0  0  0  0  0  0
    8.9853  -14.7877   21.6519 O   0  0  0  0  0  0  0  0  0  0  0  0
    8.3082  -16.2312   23.2967 N   0  0  0  0  0  0  0  0  0  0  0  0
    9.4328  -15.9185   24.1547 C   0  0  1  0  0  0  0  0  0  0  0  0
    9.0023  -15.7739   25.5933 C   0  0  0  0  0  0  0  0  0  0  0  0
    7.7873  -15.0287   25.8343 C   0  0  0  0  0  0  0  0  0  0  0  0
    6.5221  -15.6037   25.9289 C   0  0  0  0  0  0  0  0  0  0  0  0
    5.6016  -14.6626   26.1814 N   0  0  0  0  0  0  0  0  0  0  0  0
    6.2566  -13.4901   26.2503 C   0  0  0  0  0  0  0  0  0  0  0  0
    5.7935  -12.2268   26.4779 C   0  0  0  0  0  0  0  0  0  0  0  0
    6.6400  -11.1259   26.5039 C   0  0  0  0  0  0  0  0  0  0  0  0
    7.9952  -11.3363   26.2895 C   0  0  0  0  0  0  0  0  0  0  0  0
    8.4417  -12.6031   26.0639 C   0  0  0  0  0  0  0  0  0  0  0  0
    7.6049  -13.6946   26.0385 C   0  0  0  0  0  0  0  0  0  0  0  0
   10.6291  -16.7270   23.9219 C   0  0  0  0  0  0  0  0  0  0  0  0
   10.4963  -17.9767   23.7629 O   0  0  0  0  0  0  0  0  0  0  0  0
   14.0886  -14.8547   23.5295 O   0  0  0  0  0  0  0  0  0  0  0  0
   14.2076  -16.1781   23.1033 C   0  0  0  0  0  0  0  0  0  0  0  0
   13.1220  -17.0629   23.7555 C   0  0  2  0  0  0  0  0  0  0  0  0
   11.9494  -16.1977   23.8547 N   0  0  0  0  0  0  0  0  0  0  0  0
   13.6787  -17.4217   25.0797 C   0  0  0  0  0  0  0  0  0  0  0  0
   13.1055  -17.0188   26.1213 O   0  0  0  0  0  0  0  0  0  0  0  0
   14.8180  -18.1914   25.2179 O   0  0  0  0  0  0  0  0  0  0  0  0
  1  2  1  0
  3  5  1  0
  3  2  1  0
  4  3  2  0
  6  5  1  0
  7  8  1  0
  6  7  1  1
  8 16  1  0
  9  8  2  0
  9 10  1  0
 10 11  1  0
 11 12  1  0
 12 13  2  0
 14 13  1  0
 15 14  2  0
 16 11  2  0
 16 15  1  0
 17 22  1  0
 17  6  1  0
 18 17  2  0
 19 20  1  0
 21 20  1  6
 21 22  1  0
 21 23  1  0
 23 25  1  0
 24 23  2  0
M  END
$$$$
