GWS.pdb
     RDKit          3D

 25 26  0  0  1  0  0  0  0  0999 V2000
    4.7199  -18.0672   21.3060 N   0  0  0  0  0  0  0  0  0  0  0  0
    5.4534  -18.2252   22.5186 C   0  0  0  0  0  0  0  0  0  0  0  0
    6.6365  -17.3164   22.6072 C   0  0  0  0  0  0  0  0  0  0  0  0
    6.9357  -16.5076   21.6786 O   0  0  0  0  0  0  0  0  0  0  0  0
    7.4791  -17.3251   23.7484 N   0  0  0  0  0  0  0  0  0  0  0  0
    8.6568  -16.4896   23.8643 C   0  0  1  0  0  0  0  0  0  0  0  0
    8.7407  -15.8445   25.2254 C   0  0  0  0  0  0  0  0  0  0  0  0
    7.6253  -15.0131   25.6183 C   0  0  0  0  0  0  0  0  0  0  0  0
    6.3667  -15.5023   25.9602 C   0  0  0  0  0  0  0  0  0  0  0  0
    5.5532  -14.4934   26.3025 N   0  0  0  0  0  0  0  0  0  0  0  0
    6.2706  -13.3619   26.1852 C   0  0  0  0  0  0  0  0  0  0  0  0
    5.9197  -12.0617   26.4057 C   0  0  0  0  0  0  0  0  0  0  0  0
    6.8143  -11.0159   26.2188 C   0  0  0  0  0  0  0  0  0  0  0  0
    8.1001  -11.3215   25.7943 C   0  0  0  0  0  0  0  0  0  0  0  0
    8.4348  -12.6240   25.5789 C   0  0  0  0  0  0  0  0  0  0  0  0
    7.5503  -13.6612   25.7641 C   0  0  0  0  0  0  0  0  0  0  0  0
    9.8918  -17.0923   23.3636 C   0  0  0  0  0  0  0  0  0  0  0  0
   10.3056  -18.1633   23.8988 O   0  0  0  0  0  0  0  0  0  0  0  0
   11.9921  -15.2754   20.3699 O   0  0  0  0  0  0  0  0  0  0  0  0
   12.0860  -16.6675   20.3898 C   0  0  0  0  0  0  0  0  0  0  0  0
   11.8833  -17.2093   21.8224 C   0  0  2  0  0  0  0  0  0  0  0  0
   10.6674  -16.5541   22.2975 N   0  0  0  0  0  0  0  0  0  0  0  0
   13.0906  -16.7740   22.5606 C   0  0  0  0  0  0  0  0  0  0  0  0
   12.9781  -15.9429   23.4947 O   0  0  0  0  0  0  0  0  0  0  0  0
   14.3522  -17.2506   22.2595 O   0  0  0  0  0  0  0  0  0  0  0  0
  1  2  1  0
  3  5  1  0
  3  2  1  0
  4  3  2  0
  6  5  1  0
  7  8  1  0
  6  7  1  1
  8 16  1  0
  9  8  2  0
  9 10  1  0
 10 11  1  0
 11 12  1  0
 12 13  2  0
 14 13  1  0
 15 14  2  0
 16 11  2  0
 16 15  1  0
 17 22  1  0
 17  6  1  0
 18 17  2  0
 19 20  1  0
 21 20  1  6
 21 22  1  0
 21 23  1  0
 23 25  1  0
 24 23  2  0
M  END
$$$$
