GWS.pdb
     RDKit          3D

 25 26  0  0  1  0  0  0  0  0999 V2000
    4.8482  -19.4513   23.5533 N   0  0  0  0  0  0  0  0  0  0  0  0
    6.2294  -19.6675   23.8343 C   0  0  0  0  0  0  0  0  0  0  0  0
    7.0699  -18.4549   23.5962 C   0  0  0  0  0  0  0  0  0  0  0  0
    7.0568  -17.8324   22.4924 O   0  0  0  0  0  0  0  0  0  0  0  0
    7.9241  -17.9490   24.6094 N   0  0  0  0  0  0  0  0  0  0  0  0
    8.8616  -16.8682   24.3822 C   0  0  1  0  0  0  0  0  0  0  0  0
    8.9286  -15.9406   25.5700 C   0  0  0  0  0  0  0  0  0  0  0  0
    7.7136  -15.2354   25.9106 C   0  0  0  0  0  0  0  0  0  0  0  0
    6.5100  -15.8592   26.2310 C   0  0  0  0  0  0  0  0  0  0  0  0
    5.5758  -14.9438   26.5247 N   0  0  0  0  0  0  0  0  0  0  0  0
    6.1613  -13.7398   26.3974 C   0  0  0  0  0  0  0  0  0  0  0  0
    5.6565  -12.4843   26.5743 C   0  0  0  0  0  0  0  0  0  0  0  0
    6.4299  -11.3464   26.3844 C   0  0  0  0  0  0  0  0  0  0  0  0
    7.7544  -11.5105   26.0030 C   0  0  0  0  0  0  0  0  0  0  0  0
    8.2432  -12.7700   25.8308 C   0  0  0  0  0  0  0  0  0  0  0  0
    7.4789  -13.8982   26.0191 C   0  0  0  0  0  0  0  0  0  0  0  0
   10.1462  -17.2759   23.8142 C   0  0  0  0  0  0  0  0  0  0  0  0
   10.8444  -18.1275   24.4403 O   0  0  0  0  0  0  0  0  0  0  0  0
   11.6338  -15.3502   20.5381 O   0  0  0  0  0  0  0  0  0  0  0  0
   12.0255  -16.6862   20.6327 C   0  0  0  0  0  0  0  0  0  0  0  0
   11.9928  -17.1635   22.1017 C   0  0  2  0  0  0  0  0  0  0  0  0
   10.6696  -16.7793   22.5865 N   0  0  0  0  0  0  0  0  0  0  0  0
   13.0825  -16.4105   22.7633 C   0  0  0  0  0  0  0  0  0  0  0  0
   12.8030  -15.5792   23.6614 O   0  0  0  0  0  0  0  0  0  0  0  0
   14.4114  -16.5873   22.4282 O   0  0  0  0  0  0  0  0  0  0  0  0
  1  2  1  0
  3  5  1  0
  3  2  1  0
  4  3  2  0
  6  5  1  0
  7  8  1  0
  6  7  1  1
  8 16  1  0
  9  8  2  0
  9 10  1  0
 10 11  1  0
 11 12  1  0
 12 13  2  0
 14 13  1  0
 15 14  2  0
 16 11  2  0
 16 15  1  0
 17 22  1  0
 17  6  1  0
 18 17  2  0
 19 20  1  0
 21 20  1  6
 21 22  1  0
 21 23  1  0
 23 25  1  0
 24 23  2  0
M  END
$$$$
