GWS.pdb
     RDKit          3D

 25 26  0  0  1  0  0  0  0  0999 V2000
    4.7869  -19.3276   22.2133 N   0  0  0  0  0  0  0  0  0  0  0  0
    5.7221  -19.3582   23.2894 C   0  0  0  0  0  0  0  0  0  0  0  0
    6.7434  -18.2703   23.2057 C   0  0  0  0  0  0  0  0  0  0  0  0
    7.0189  -17.6876   22.1146 O   0  0  0  0  0  0  0  0  0  0  0  0
    7.4511  -17.8439   24.3588 N   0  0  0  0  0  0  0  0  0  0  0  0
    8.5321  -16.8809   24.3081 C   0  0  1  0  0  0  0  0  0  0  0  0
    8.6357  -16.1034   25.5968 C   0  0  0  0  0  0  0  0  0  0  0  0
    7.5531  -15.1923   25.8925 C   0  0  0  0  0  0  0  0  0  0  0  0
    6.2667  -15.5935   26.2456 C   0  0  0  0  0  0  0  0  0  0  0  0
    5.4949  -14.5235   26.4830 N   0  0  0  0  0  0  0  0  0  0  0  0
    6.2664  -13.4395   26.2872 C   0  0  0  0  0  0  0  0  0  0  0  0
    5.9725  -12.1108   26.3892 C   0  0  0  0  0  0  0  0  0  0  0  0
    6.9184  -11.1260   26.1353 C   0  0  0  0  0  0  0  0  0  0  0  0
    8.1964  -11.5242   25.7676 C   0  0  0  0  0  0  0  0  0  0  0  0
    8.4739  -12.8540   25.6704 C   0  0  0  0  0  0  0  0  0  0  0  0
    7.5385  -13.8308   25.9222 C   0  0  0  0  0  0  0  0  0  0  0  0
    9.7900  -17.3943   23.7666 C   0  0  0  0  0  0  0  0  0  0  0  0
   10.2877  -18.4423   24.2752 O   0  0  0  0  0  0  0  0  0  0  0  0
   11.6704  -15.4136   20.7362 O   0  0  0  0  0  0  0  0  0  0  0  0
   11.8397  -16.7986   20.7217 C   0  0  0  0  0  0  0  0  0  0  0  0
   11.7232  -17.3792   22.1486 C   0  0  2  0  0  0  0  0  0  0  0  0
   10.4994  -16.7923   22.6885 N   0  0  0  0  0  0  0  0  0  0  0  0
   12.9392  -16.9027   22.8460 C   0  0  0  0  0  0  0  0  0  0  0  0
   14.0703  -17.2045   22.3927 O   0  0  0  0  0  0  0  0  0  0  0  0
   12.8795  -16.1300   23.9900 O   0  0  0  0  0  0  0  0  0  0  0  0
  1  2  1  0
  3  5  1  0
  3  2  1  0
  4  3  2  0
  6  5  1  0
  7  8  1  0
  6  7  1  1
  8 16  1  0
  9  8  2  0
  9 10  1  0
 10 11  1  0
 11 12  1  0
 12 13  2  0
 14 13  1  0
 15 14  2  0
 16 11  2  0
 16 15  1  0
 17 22  1  0
 17  6  1  0
 18 17  2  0
 19 20  1  0
 21 20  1  6
 21 22  1  0
 21 23  1  0
 23 25  1  0
 24 23  2  0
M  END
$$$$
