GWS.pdb
     RDKit          3D

 25 26  0  0  1  0  0  0  0  0999 V2000
    5.9994  -15.8018   20.1457 N   0  0  0  0  0  0  0  0  0  0  0  0
    6.4002  -16.5817   21.2702 C   0  0  0  0  0  0  0  0  0  0  0  0
    7.6263  -16.0516   21.9405 C   0  0  0  0  0  0  0  0  0  0  0  0
    8.3790  -15.1949   21.3880 O   0  0  0  0  0  0  0  0  0  0  0  0
    7.9977  -16.4931   23.2365 N   0  0  0  0  0  0  0  0  0  0  0  0
    9.1927  -16.0321   23.9131 C   0  0  1  0  0  0  0  0  0  0  0  0
    8.9268  -15.7598   25.3729 C   0  0  0  0  0  0  0  0  0  0  0  0
    7.7516  -14.9770   25.6823 C   0  0  0  0  0  0  0  0  0  0  0  0
    6.4800  -15.5142   25.8692 C   0  0  0  0  0  0  0  0  0  0  0  0
    5.6048  -14.5438   26.1677 N   0  0  0  0  0  0  0  0  0  0  0  0
    6.2951  -13.3897   26.1751 C   0  0  0  0  0  0  0  0  0  0  0  0
    5.8833  -12.1107   26.4135 C   0  0  0  0  0  0  0  0  0  0  0  0
    6.7597  -11.0343   26.3665 C   0  0  0  0  0  0  0  0  0  0  0  0
    8.0914  -11.2862   26.0662 C   0  0  0  0  0  0  0  0  0  0  0  0
    8.4866  -12.5682   25.8310 C   0  0  0  0  0  0  0  0  0  0  0  0
    7.6201  -13.6356   25.8777 C   0  0  0  0  0  0  0  0  0  0  0  0
   10.4038  -16.7956   23.6140 C   0  0  0  0  0  0  0  0  0  0  0  0
   10.5406  -17.9445   24.1298 O   0  0  0  0  0  0  0  0  0  0  0  0
   13.2321  -15.1202   21.2947 O   0  0  0  0  0  0  0  0  0  0  0  0
   13.2809  -16.5142   21.2564 C   0  0  0  0  0  0  0  0  0  0  0  0
   12.6589  -17.1191   22.5348 C   0  0  2  0  0  0  0  0  0  0  0  0
   11.4502  -16.3325   22.7664 N   0  0  0  0  0  0  0  0  0  0  0  0
   13.6836  -16.9108   23.5830 C   0  0  0  0  0  0  0  0  0  0  0  0
   14.8046  -17.4645   23.4707 O   0  0  0  0  0  0  0  0  0  0  0  0
   13.4536  -16.1223   24.6943 O   0  0  0  0  0  0  0  0  0  0  0  0
  1  2  1  0
  3  5  1  0
  3  2  1  0
  4  3  2  0
  6  5  1  0
  7  8  1  0
  6  7  1  1
  8 16  1  0
  9  8  2  0
  9 10  1  0
 10 11  1  0
 11 12  1  0
 12 13  2  0
 14 13  1  0
 15 14  2  0
 16 11  2  0
 16 15  1  0
 17 22  1  0
 17  6  1  0
 18 17  2  0
 19 20  1  0
 21 20  1  6
 21 22  1  0
 21 23  1  0
 23 25  1  0
 24 23  2  0
M  END
$$$$
