GWS.pdb
     RDKit          3D

 25 26  0  0  1  0  0  0  0  0999 V2000
    4.8594  -19.3561   22.8362 N   0  0  0  0  0  0  0  0  0  0  0  0
    6.0144  -19.3483   23.6724 C   0  0  0  0  0  0  0  0  0  0  0  0
    6.9026  -18.1712   23.4292 C   0  0  0  0  0  0  0  0  0  0  0  0
    6.9337  -17.5699   22.3142 O   0  0  0  0  0  0  0  0  0  0  0  0
    7.7546  -17.6770   24.4501 N   0  0  0  0  0  0  0  0  0  0  0  0
    8.7299  -16.6301   24.2238 C   0  0  1  0  0  0  0  0  0  0  0  0
    8.8435  -15.7176   25.4197 C   0  0  0  0  0  0  0  0  0  0  0  0
    7.6785  -14.9253   25.7431 C   0  0  0  0  0  0  0  0  0  0  0  0
    6.4293  -15.4595   26.0507 C   0  0  0  0  0  0  0  0  0  0  0  0
    5.5601  -14.4779   26.3299 N   0  0  0  0  0  0  0  0  0  0  0  0
    6.2323  -13.3197   26.2059 C   0  0  0  0  0  0  0  0  0  0  0  0
    5.8172  -12.0305   26.3725 C   0  0  0  0  0  0  0  0  0  0  0  0
    6.6729  -10.9520   26.1884 C   0  0  0  0  0  0  0  0  0  0  0  0
    7.9867  -11.2127   25.8239 C   0  0  0  0  0  0  0  0  0  0  0  0
    8.3854  -12.5049   25.6618 C   0  0  0  0  0  0  0  0  0  0  0  0
    7.5396  -13.5743   25.8443 C   0  0  0  0  0  0  0  0  0  0  0  0
    9.9926  -17.0802   23.6389 C   0  0  0  0  0  0  0  0  0  0  0  0
   10.4789  -18.1860   24.0203 O   0  0  0  0  0  0  0  0  0  0  0  0
   11.4209  -16.1161   19.9416 O   0  0  0  0  0  0  0  0  0  0  0  0
   12.3361  -15.8874   20.9697 C   0  0  0  0  0  0  0  0  0  0  0  0
   12.0316  -16.7916   22.1849 C   0  0  2  0  0  0  0  0  0  0  0  0
   10.7189  -16.3540   22.6525 N   0  0  0  0  0  0  0  0  0  0  0  0
   13.1106  -16.4914   23.1534 C   0  0  0  0  0  0  0  0  0  0  0  0
   12.8269  -15.9347   24.2421 O   0  0  0  0  0  0  0  0  0  0  0  0
   14.4338  -16.8024   22.9047 O   0  0  0  0  0  0  0  0  0  0  0  0
  1  2  1  0
  3  5  1  0
  3  2  1  0
  4  3  2  0
  6  5  1  0
  7  8  1  0
  6  7  1  1
  8 16  1  0
  9  8  2  0
  9 10  1  0
 10 11  1  0
 11 12  1  0
 12 13  2  0
 14 13  1  0
 15 14  2  0
 16 11  2  0
 16 15  1  0
 17 22  1  0
 17  6  1  0
 18 17  2  0
 19 20  1  0
 21 20  1  6
 21 22  1  0
 21 23  1  0
 23 25  1  0
 24 23  2  0
M  END
$$$$
