GWS.pdb
     RDKit          3D

 25 26  0  0  1  0  0  0  0  0999 V2000
    3.4487  -18.7652   21.6589 N   0  0  0  0  0  0  0  0  0  0  0  0
    4.3733  -18.9998   22.7188 C   0  0  0  0  0  0  0  0  0  0  0  0
    5.3090  -17.8557   22.9405 C   0  0  0  0  0  0  0  0  0  0  0  0
    4.9248  -16.6497   22.8786 O   0  0  0  0  0  0  0  0  0  0  0  0
    6.6790  -18.0799   23.2323 N   0  0  0  0  0  0  0  0  0  0  0  0
    7.4860  -17.1455   23.9900 C   0  0  1  0  0  0  0  0  0  0  0  0
    6.7407  -16.6275   25.1949 C   0  0  0  0  0  0  0  0  0  0  0  0
    7.4185  -15.6357   25.9990 C   0  0  0  0  0  0  0  0  0  0  0  0
    8.3981  -15.9307   26.9444 C   0  0  0  0  0  0  0  0  0  0  0  0
    8.8552  -14.8033   27.5073 N   0  0  0  0  0  0  0  0  0  0  0  0
    8.1833  -13.7871   26.9377 C   0  0  0  0  0  0  0  0  0  0  0  0
    8.2603  -12.4416   27.1520 C   0  0  0  0  0  0  0  0  0  0  0  0
    7.4646  -11.5389   26.4583 C   0  0  0  0  0  0  0  0  0  0  0  0
    6.5696  -12.0389   25.5224 C   0  0  0  0  0  0  0  0  0  0  0  0
    6.5050  -13.3842   25.3200 C   0  0  0  0  0  0  0  0  0  0  0  0
    7.2927  -14.2796   26.0056 C   0  0  0  0  0  0  0  0  0  0  0  0
    8.8655  -17.5713   24.2240 C   0  0  0  0  0  0  0  0  0  0  0  0
    9.0752  -18.5569   24.9916 O   0  0  0  0  0  0  0  0  0  0  0  0
   11.8269  -15.4821   22.5378 O   0  0  0  0  0  0  0  0  0  0  0  0
   12.1826  -16.8232   22.6868 C   0  0  0  0  0  0  0  0  0  0  0  0
   11.3500  -17.4894   23.8048 C   0  0  2  0  0  0  0  0  0  0  0  0
   10.0034  -16.9496   23.6354 N   0  0  0  0  0  0  0  0  0  0  0  0
   11.9889  -17.0420   25.0632 C   0  0  0  0  0  0  0  0  0  0  0  0
   11.3424  -16.3221   25.8630 O   0  0  0  0  0  0  0  0  0  0  0  0
   13.2841  -17.3884   25.3976 O   0  0  0  0  0  0  0  0  0  0  0  0
  1  2  1  0
  3  5  1  0
  3  2  1  0
  4  3  2  0
  6  5  1  0
  7  8  1  0
  6  7  1  1
  8 16  1  0
  9  8  2  0
  9 10  1  0
 10 11  1  0
 11 12  1  0
 12 13  2  0
 14 13  1  0
 15 14  2  0
 16 11  2  0
 16 15  1  0
 17 22  1  0
 17  6  1  0
 18 17  2  0
 19 20  1  0
 21 20  1  6
 21 22  1  0
 21 23  1  0
 23 25  1  0
 24 23  2  0
M  END
$$$$
