GWS.pdb
     RDKit          3D

 25 26  0  0  1  0  0  0  0  0999 V2000
    5.6096  -16.6845   20.3265 N   0  0  0  0  0  0  0  0  0  0  0  0
    6.2712  -17.4017   21.3664 C   0  0  0  0  0  0  0  0  0  0  0  0
    7.4510  -16.6703   21.9201 C   0  0  0  0  0  0  0  0  0  0  0  0
    8.1606  -15.8992   21.2075 O   0  0  0  0  0  0  0  0  0  0  0  0
    7.8251  -16.8134   23.2810 N   0  0  0  0  0  0  0  0  0  0  0  0
    9.0286  -16.2259   23.8330 C   0  0  1  0  0  0  0  0  0  0  0  0
    8.8408  -15.8481   25.2814 C   0  0  0  0  0  0  0  0  0  0  0  0
    7.6950  -15.0236   25.5926 C   0  0  0  0  0  0  0  0  0  0  0  0
    6.4078  -15.5163   25.7947 C   0  0  0  0  0  0  0  0  0  0  0  0
    5.5679  -14.5144   26.0908 N   0  0  0  0  0  0  0  0  0  0  0  0
    6.2964  -13.3840   26.0816 C   0  0  0  0  0  0  0  0  0  0  0  0
    5.9295  -12.0898   26.3111 C   0  0  0  0  0  0  0  0  0  0  0  0
    6.8410  -11.0438   26.2469 C   0  0  0  0  0  0  0  0  0  0  0  0
    8.1609  -11.3429   25.9384 C   0  0  0  0  0  0  0  0  0  0  0  0
    8.5112  -12.6394   25.7124 C   0  0  0  0  0  0  0  0  0  0  0  0
    7.6100  -13.6768   25.7762 C   0  0  0  0  0  0  0  0  0  0  0  0
   10.2653  -16.9375   23.5115 C   0  0  0  0  0  0  0  0  0  0  0  0
   10.4318  -18.1053   23.9732 O   0  0  0  0  0  0  0  0  0  0  0  0
   12.9812  -15.2269   21.0256 O   0  0  0  0  0  0  0  0  0  0  0  0
   13.0129  -16.6216   21.0554 C   0  0  0  0  0  0  0  0  0  0  0  0
   12.5296  -17.1510   22.4240 C   0  0  2  0  0  0  0  0  0  0  0  0
   11.3056  -16.4029   22.6992 N   0  0  0  0  0  0  0  0  0  0  0  0
   13.6250  -16.8157   23.3620 C   0  0  0  0  0  0  0  0  0  0  0  0
   13.4242  -15.9747   24.2720 O   0  0  0  0  0  0  0  0  0  0  0  0
   14.8753  -17.3977   23.2755 O   0  0  0  0  0  0  0  0  0  0  0  0
  1  2  1  0
  3  5  1  0
  3  2  1  0
  4  3  2  0
  6  5  1  0
  7  8  1  0
  6  7  1  1
  8 16  1  0
  9  8  2  0
  9 10  1  0
 10 11  1  0
 11 12  1  0
 12 13  2  0
 14 13  1  0
 15 14  2  0
 16 11  2  0
 16 15  1  0
 17 22  1  0
 17  6  1  0
 18 17  2  0
 19 20  1  0
 21 20  1  6
 21 22  1  0
 21 23  1  0
 23 25  1  0
 24 23  2  0
M  END
$$$$
