GWS.pdb
     RDKit          3D

 25 26  0  0  1  0  0  0  0  0999 V2000
    4.7755  -19.7562   22.7144 N   0  0  0  0  0  0  0  0  0  0  0  0
    5.6803  -19.4146   23.7622 C   0  0  0  0  0  0  0  0  0  0  0  0
    6.6264  -18.3217   23.3827 C   0  0  0  0  0  0  0  0  0  0  0  0
    6.6459  -17.8218   22.2184 O   0  0  0  0  0  0  0  0  0  0  0  0
    7.5493  -17.7966   24.3233 N   0  0  0  0  0  0  0  0  0  0  0  0
    8.5508  -16.8088   23.9771 C   0  0  1  0  0  0  0  0  0  0  0  0
    8.8263  -15.8780   25.1318 C   0  0  0  0  0  0  0  0  0  0  0  0
    7.7143  -15.0837   25.6033 C   0  0  0  0  0  0  0  0  0  0  0  0
    6.5194  -15.6161   26.0821 C   0  0  0  0  0  0  0  0  0  0  0  0
    5.6941  -14.6329   26.4680 N   0  0  0  0  0  0  0  0  0  0  0  0
    6.3410  -13.4753   26.2438 C   0  0  0  0  0  0  0  0  0  0  0  0
    5.9497  -12.1849   26.4539 C   0  0  0  0  0  0  0  0  0  0  0  0
    6.7703  -11.1075   26.1461 C   0  0  0  0  0  0  0  0  0  0  0  0
    8.0231  -11.3704   25.6090 C   0  0  0  0  0  0  0  0  0  0  0  0
    8.3988  -12.6636   25.4057 C   0  0  0  0  0  0  0  0  0  0  0  0
    7.5877  -13.7320   25.7106 C   0  0  0  0  0  0  0  0  0  0  0  0
    9.7262  -17.3387   23.2867 C   0  0  0  0  0  0  0  0  0  0  0  0
   10.3112  -18.3516   23.7730 O   0  0  0  0  0  0  0  0  0  0  0  0
   11.1116  -15.4774   19.9535 O   0  0  0  0  0  0  0  0  0  0  0  0
   11.3528  -16.8517   19.9721 C   0  0  0  0  0  0  0  0  0  0  0  0
   11.4243  -17.3753   21.4238 C   0  0  2  0  0  0  0  0  0  0  0  0
   10.2612  -16.7907   22.0862 N   0  0  0  0  0  0  0  0  0  0  0  0
   12.7040  -16.8470   21.9487 C   0  0  0  0  0  0  0  0  0  0  0  0
   12.6898  -16.0018   22.8767 O   0  0  0  0  0  0  0  0  0  0  0  0
   13.9287  -17.2508   21.4524 O   0  0  0  0  0  0  0  0  0  0  0  0
  1  2  1  0
  3  5  1  0
  3  2  1  0
  4  3  2  0
  6  5  1  0
  7  8  1  0
  6  7  1  1
  8 16  1  0
  9  8  2  0
  9 10  1  0
 10 11  1  0
 11 12  1  0
 12 13  2  0
 14 13  1  0
 15 14  2  0
 16 11  2  0
 16 15  1  0
 17 22  1  0
 17  6  1  0
 18 17  2  0
 19 20  1  0
 21 20  1  6
 21 22  1  0
 21 23  1  0
 23 25  1  0
 24 23  2  0
M  END
$$$$
