GWS.pdb
     RDKit          3D

 25 26  0  0  1  0  0  0  0  0999 V2000
    5.0132  -19.0115   23.2318 N   0  0  0  0  0  0  0  0  0  0  0  0
    6.3888  -19.3842   23.2762 C   0  0  0  0  0  0  0  0  0  0  0  0
    7.3132  -18.2115   23.2143 C   0  0  0  0  0  0  0  0  0  0  0  0
    7.4761  -17.5374   22.1537 O   0  0  0  0  0  0  0  0  0  0  0  0
    8.0518  -17.8040   24.3548 N   0  0  0  0  0  0  0  0  0  0  0  0
    9.0505  -16.7554   24.3131 C   0  0  1  0  0  0  0  0  0  0  0  0
    9.0037  -15.9027   25.5567 C   0  0  0  0  0  0  0  0  0  0  0  0
    7.8100  -15.1121   25.7556 C   0  0  0  0  0  0  0  0  0  0  0  0
    6.5413  -15.6486   25.9626 C   0  0  0  0  0  0  0  0  0  0  0  0
    5.6451  -14.6676   26.1396 N   0  0  0  0  0  0  0  0  0  0  0  0
    6.3192  -13.5074   26.0489 C   0  0  0  0  0  0  0  0  0  0  0  0
    5.8837  -12.2179   26.1472 C   0  0  0  0  0  0  0  0  0  0  0  0
    6.7464  -11.1374   26.0150 C   0  0  0  0  0  0  0  0  0  0  0  0
    8.0891  -11.3964   25.7759 C   0  0  0  0  0  0  0  0  0  0  0  0
    8.5079  -12.6889   25.6808 C   0  0  0  0  0  0  0  0  0  0  0  0
    7.6551  -13.7602   25.8120 C   0  0  0  0  0  0  0  0  0  0  0  0
   10.3796  -17.1871   23.8817 C   0  0  0  0  0  0  0  0  0  0  0  0
   10.9881  -18.0596   24.5696 O   0  0  0  0  0  0  0  0  0  0  0  0
   12.1401  -15.3453   20.7346 O   0  0  0  0  0  0  0  0  0  0  0  0
   12.5808  -16.6581   20.9069 C   0  0  0  0  0  0  0  0  0  0  0  0
   12.3980  -17.1088   22.3733 C   0  0  2  0  0  0  0  0  0  0  0  0
   11.0424  -16.6919   22.7227 N   0  0  0  0  0  0  0  0  0  0  0  0
   13.4343  -16.3646   23.1246 C   0  0  0  0  0  0  0  0  0  0  0  0
   13.0889  -15.5751   24.0375 O   0  0  0  0  0  0  0  0  0  0  0  0
   14.7830  -16.5048   22.8586 O   0  0  0  0  0  0  0  0  0  0  0  0
  1  2  1  0
  3  5  1  0
  3  2  1  0
  4  3  2  0
  6  5  1  0
  7  8  1  0
  6  7  1  1
  8 16  1  0
  9  8  2  0
  9 10  1  0
 10 11  1  0
 11 12  1  0
 12 13  2  0
 14 13  1  0
 15 14  2  0
 16 11  2  0
 16 15  1  0
 17 22  1  0
 17  6  1  0
 18 17  2  0
 19 20  1  0
 21 20  1  6
 21 22  1  0
 21 23  1  0
 23 25  1  0
 24 23  2  0
M  END
$$$$
