GWS.pdb
     RDKit          3D

 25 26  0  0  1  0  0  0  0  0999 V2000
    5.1916  -21.5741   23.8163 N   0  0  0  0  0  0  0  0  0  0  0  0
    6.1801  -21.0462   24.6980 C   0  0  0  0  0  0  0  0  0  0  0  0
    6.7232  -19.7299   24.2443 C   0  0  0  0  0  0  0  0  0  0  0  0
    7.1482  -19.5471   23.0646 O   0  0  0  0  0  0  0  0  0  0  0  0
    6.7838  -18.6221   25.1283 N   0  0  0  0  0  0  0  0  0  0  0  0
    7.3448  -17.3415   24.7490 C   0  0  1  0  0  0  0  0  0  0  0  0
    6.6940  -16.2108   25.5066 C   0  0  0  0  0  0  0  0  0  0  0  0
    7.0234  -14.8700   25.0786 C   0  0  0  0  0  0  0  0  0  0  0  0
    7.5531  -14.5549   23.8293 C   0  0  0  0  0  0  0  0  0  0  0  0
    7.7274  -13.2304   23.7190 N   0  0  0  0  0  0  0  0  0  0  0  0
    7.3177  -12.6888   24.8798 C   0  0  0  0  0  0  0  0  0  0  0  0
    7.2882  -11.3878   25.2906 C   0  0  0  0  0  0  0  0  0  0  0  0
    6.8294  -11.0237   26.5499 C   0  0  0  0  0  0  0  0  0  0  0  0
    6.3915  -12.0272   27.4032 C   0  0  0  0  0  0  0  0  0  0  0  0
    6.4271  -13.3207   26.9783 C   0  0  0  0  0  0  0  0  0  0  0  0
    6.8806  -13.6832   25.7312 C   0  0  0  0  0  0  0  0  0  0  0  0
    8.8050  -17.3060   24.6743 C   0  0  0  0  0  0  0  0  0  0  0  0
    9.4737  -17.6191   25.7036 O   0  0  0  0  0  0  0  0  0  0  0  0
   10.7042  -15.6731   21.4814 O   0  0  0  0  0  0  0  0  0  0  0  0
   11.3348  -16.8251   21.9529 C   0  0  0  0  0  0  0  0  0  0  0  0
   10.9897  -17.0688   23.4390 C   0  0  2  0  0  0  0  0  0  0  0  0
    9.5359  -16.9451   23.5067 N   0  0  0  0  0  0  0  0  0  0  0  0
   11.6880  -15.9850   24.1670 C   0  0  0  0  0  0  0  0  0  0  0  0
   11.0164  -15.1085   24.7641 O   0  0  0  0  0  0  0  0  0  0  0  0
   13.0662  -15.8975   24.2166 O   0  0  0  0  0  0  0  0  0  0  0  0
  1  2  1  0
  3  5  1  0
  3  2  1  0
  4  3  2  0
  6  5  1  0
  7  8  1  0
  6  7  1  1
  8 16  1  0
  9  8  2  0
  9 10  1  0
 10 11  1  0
 11 12  1  0
 12 13  2  0
 14 13  1  0
 15 14  2  0
 16 11  2  0
 16 15  1  0
 17 22  1  0
 17  6  1  0
 18 17  2  0
 19 20  1  0
 21 20  1  6
 21 22  1  0
 21 23  1  0
 23 25  1  0
 24 23  2  0
M  END
$$$$
