GWS.pdb
     RDKit          3D

 25 26  0  0  1  0  0  0  0  0999 V2000
    6.2826  -15.2500   20.2264 N   0  0  0  0  0  0  0  0  0  0  0  0
    6.8363  -16.2836   21.0379 C   0  0  0  0  0  0  0  0  0  0  0  0
    7.9699  -15.8120   21.8900 C   0  0  0  0  0  0  0  0  0  0  0  0
    8.7687  -14.9059   21.5072 O   0  0  0  0  0  0  0  0  0  0  0  0
    8.1966  -16.3679   23.1753 N   0  0  0  0  0  0  0  0  0  0  0  0
    9.3402  -16.0195   23.9935 C   0  0  1  0  0  0  0  0  0  0  0  0
    8.9439  -15.8228   25.4358 C   0  0  0  0  0  0  0  0  0  0  0  0
    7.8027  -14.9708   25.6837 C   0  0  0  0  0  0  0  0  0  0  0  0
    6.4885  -15.4259   25.7624 C   0  0  0  0  0  0  0  0  0  0  0  0
    5.6589  -14.4067   26.0267 N   0  0  0  0  0  0  0  0  0  0  0  0
    6.4207  -13.3022   26.1186 C   0  0  0  0  0  0  0  0  0  0  0  0
    6.0768  -12.0049   26.3657 C   0  0  0  0  0  0  0  0  0  0  0  0
    7.0227  -10.9891   26.4145 C   0  0  0  0  0  0  0  0  0  0  0  0
    8.3536  -11.3223   26.2030 C   0  0  0  0  0  0  0  0  0  0  0  0
    8.6805  -12.6216   25.9579 C   0  0  0  0  0  0  0  0  0  0  0  0
    7.7451  -13.6291   25.9098 C   0  0  0  0  0  0  0  0  0  0  0  0
   10.5340  -16.8321   23.7621 C   0  0  0  0  0  0  0  0  0  0  0  0
   10.4445  -18.0903   23.8785 O   0  0  0  0  0  0  0  0  0  0  0  0
   14.1475  -15.0324   23.0282 O   0  0  0  0  0  0  0  0  0  0  0  0
   13.9977  -16.3062   22.4785 C   0  0  0  0  0  0  0  0  0  0  0  0
   12.9929  -17.1428   23.3016 C   0  0  2  0  0  0  0  0  0  0  0  0
   11.8050  -16.2991   23.4040 N   0  0  0  0  0  0  0  0  0  0  0  0
   13.6598  -17.3486   24.6074 C   0  0  0  0  0  0  0  0  0  0  0  0
   13.1884  -16.8034   25.6352 O   0  0  0  0  0  0  0  0  0  0  0  0
   14.7944  -18.1256   24.7428 O   0  0  0  0  0  0  0  0  0  0  0  0
  1  2  1  0
  3  5  1  0
  3  2  1  0
  4  3  2  0
  6  5  1  0
  7  8  1  0
  6  7  1  1
  8 16  1  0
  9  8  2  0
  9 10  1  0
 10 11  1  0
 11 12  1  0
 12 13  2  0
 14 13  1  0
 15 14  2  0
 16 11  2  0
 16 15  1  0
 17 22  1  0
 17  6  1  0
 18 17  2  0
 19 20  1  0
 21 20  1  6
 21 22  1  0
 21 23  1  0
 23 25  1  0
 24 23  2  0
M  END
$$$$
