GWS.pdb
     RDKit          3D

 25 26  0  0  1  0  0  0  0  0999 V2000
    6.0537  -15.9274   19.8565 N   0  0  0  0  0  0  0  0  0  0  0  0
    6.3023  -16.6093   21.0839 C   0  0  0  0  0  0  0  0  0  0  0  0
    7.4894  -16.0751   21.8179 C   0  0  0  0  0  0  0  0  0  0  0  0
    8.2586  -15.2045   21.3117 O   0  0  0  0  0  0  0  0  0  0  0  0
    7.8034  -16.5282   23.1250 N   0  0  0  0  0  0  0  0  0  0  0  0
    9.0253  -16.1639   23.8126 C   0  0  1  0  0  0  0  0  0  0  0  0
    8.7748  -15.9053   25.2776 C   0  0  0  0  0  0  0  0  0  0  0  0
    7.7004  -14.9936   25.6001 C   0  0  0  0  0  0  0  0  0  0  0  0
    6.3678  -15.3734   25.7432 C   0  0  0  0  0  0  0  0  0  0  0  0
    5.6146  -14.3131   26.0677 N   0  0  0  0  0  0  0  0  0  0  0  0
    6.4436  -13.2563   26.1350 C   0  0  0  0  0  0  0  0  0  0  0  0
    6.1900  -11.9461   26.4202 C   0  0  0  0  0  0  0  0  0  0  0  0
    7.1951  -10.9876   26.4330 C   0  0  0  0  0  0  0  0  0  0  0  0
    8.4909  -11.3931   26.1444 C   0  0  0  0  0  0  0  0  0  0  0  0
    8.7276  -12.7043   25.8621 C   0  0  0  0  0  0  0  0  0  0  0  0
    7.7336  -13.6551   25.8496 C   0  0  0  0  0  0  0  0  0  0  0  0
   10.1824  -17.0013   23.4984 C   0  0  0  0  0  0  0  0  0  0  0  0
   10.0792  -18.2564   23.6351 O   0  0  0  0  0  0  0  0  0  0  0  0
   13.4547  -15.3984   21.7251 O   0  0  0  0  0  0  0  0  0  0  0  0
   13.3107  -16.7812   21.6048 C   0  0  0  0  0  0  0  0  0  0  0  0
   12.5882  -17.3657   22.8389 C   0  0  2  0  0  0  0  0  0  0  0  0
   11.4314  -16.4962   23.0373 N   0  0  0  0  0  0  0  0  0  0  0  0
   13.5766  -17.2579   23.9360 C   0  0  0  0  0  0  0  0  0  0  0  0
   14.6717  -17.8644   23.8435 O   0  0  0  0  0  0  0  0  0  0  0  0
   13.3398  -16.5079   25.0722 O   0  0  0  0  0  0  0  0  0  0  0  0
  1  2  1  0
  3  5  1  0
  3  2  1  0
  4  3  2  0
  6  5  1  0
  7  8  1  0
  6  7  1  1
  8 16  1  0
  9  8  2  0
  9 10  1  0
 10 11  1  0
 11 12  1  0
 12 13  2  0
 14 13  1  0
 15 14  2  0
 16 11  2  0
 16 15  1  0
 17 22  1  0
 17  6  1  0
 18 17  2  0
 19 20  1  0
 21 20  1  6
 21 22  1  0
 21 23  1  0
 23 25  1  0
 24 23  2  0
M  END
$$$$
