GWS.pdb
     RDKit          3D

 25 26  0  0  1  0  0  0  0  0999 V2000
    4.8524  -19.4538   23.2778 N   0  0  0  0  0  0  0  0  0  0  0  0
    6.0698  -19.4141   24.0192 C   0  0  0  0  0  0  0  0  0  0  0  0
    6.9394  -18.2557   23.6511 C   0  0  0  0  0  0  0  0  0  0  0  0
    6.9963  -17.8054   22.4679 O   0  0  0  0  0  0  0  0  0  0  0  0
    7.7435  -17.6089   24.6244 N   0  0  0  0  0  0  0  0  0  0  0  0
    8.7257  -16.5982   24.2893 C   0  0  1  0  0  0  0  0  0  0  0  0
    8.8765  -15.5892   25.4005 C   0  0  0  0  0  0  0  0  0  0  0  0
    7.6962  -14.8328   25.7534 C   0  0  0  0  0  0  0  0  0  0  0  0
    6.4640  -15.4040   26.0631 C   0  0  0  0  0  0  0  0  0  0  0  0
    5.5744  -14.4502   26.3726 N   0  0  0  0  0  0  0  0  0  0  0  0
    6.2166  -13.2735   26.2659 C   0  0  0  0  0  0  0  0  0  0  0  0
    5.7721  -11.9986   26.4644 C   0  0  0  0  0  0  0  0  0  0  0  0
    6.5990  -10.8958   26.2940 C   0  0  0  0  0  0  0  0  0  0  0  0
    7.9145  -11.1163   25.9098 C   0  0  0  0  0  0  0  0  0  0  0  0
    8.3428  -12.3945   25.7159 C   0  0  0  0  0  0  0  0  0  0  0  0
    7.5255  -13.4880   25.8848 C   0  0  0  0  0  0  0  0  0  0  0  0
    9.9698  -17.1133   23.7183 C   0  0  0  0  0  0  0  0  0  0  0  0
   10.6272  -17.9760   24.3726 O   0  0  0  0  0  0  0  0  0  0  0  0
   11.7165  -15.2985   20.4979 O   0  0  0  0  0  0  0  0  0  0  0  0
   11.8589  -16.6866   20.5066 C   0  0  0  0  0  0  0  0  0  0  0  0
   11.7586  -17.2380   21.9463 C   0  0  2  0  0  0  0  0  0  0  0  0
   10.4962  -16.7107   22.4578 N   0  0  0  0  0  0  0  0  0  0  0  0
   12.9361  -16.6742   22.6449 C   0  0  0  0  0  0  0  0  0  0  0  0
   12.7655  -15.8959   23.6149 O   0  0  0  0  0  0  0  0  0  0  0  0
   14.2314  -16.9732   22.2680 O   0  0  0  0  0  0  0  0  0  0  0  0
  1  2  1  0
  3  5  1  0
  3  2  1  0
  4  3  2  0
  6  5  1  0
  7  8  1  0
  6  7  1  1
  8 16  1  0
  9  8  2  0
  9 10  1  0
 10 11  1  0
 11 12  1  0
 12 13  2  0
 14 13  1  0
 15 14  2  0
 16 11  2  0
 16 15  1  0
 17 22  1  0
 17  6  1  0
 18 17  2  0
 19 20  1  0
 21 20  1  6
 21 22  1  0
 21 23  1  0
 23 25  1  0
 24 23  2  0
M  END
$$$$
