GWS.pdb
     RDKit          3D

 25 26  0  0  1  0  0  0  0  0999 V2000
    5.2978  -17.5755   20.8986 N   0  0  0  0  0  0  0  0  0  0  0  0
    6.0254  -18.0256   22.0393 C   0  0  0  0  0  0  0  0  0  0  0  0
    7.1947  -17.1543   22.3665 C   0  0  0  0  0  0  0  0  0  0  0  0
    7.6937  -16.3517   21.5222 O   0  0  0  0  0  0  0  0  0  0  0  0
    7.7970  -17.1934   23.6503 N   0  0  0  0  0  0  0  0  0  0  0  0
    8.9921  -16.4453   23.9827 C   0  0  1  0  0  0  0  0  0  0  0  0
    8.9477  -15.9428   25.4044 C   0  0  0  0  0  0  0  0  0  0  0  0
    7.7579  -15.2235   25.8004 C   0  0  0  0  0  0  0  0  0  0  0  0
    6.5461  -15.8311   26.1207 C   0  0  0  0  0  0  0  0  0  0  0  0
    5.6413  -14.9067   26.4724 N   0  0  0  0  0  0  0  0  0  0  0  0
    6.2538  -13.7128   26.3825 C   0  0  0  0  0  0  0  0  0  0  0  0
    5.7842  -12.4542   26.6225 C   0  0  0  0  0  0  0  0  0  0  0  0
    6.5816  -11.3282   26.4633 C   0  0  0  0  0  0  0  0  0  0  0  0
    7.8935  -11.5079   26.0467 C   0  0  0  0  0  0  0  0  0  0  0  0
    8.3471  -12.7705   25.8117 C   0  0  0  0  0  0  0  0  0  0  0  0
    7.5590  -13.8868   25.9694 C   0  0  0  0  0  0  0  0  0  0  0  0
   10.2465  -17.0691   23.5625 C   0  0  0  0  0  0  0  0  0  0  0  0
   10.6079  -18.1454   24.1243 O   0  0  0  0  0  0  0  0  0  0  0  0
   12.4850  -15.2797   20.7147 O   0  0  0  0  0  0  0  0  0  0  0  0
   12.6419  -16.6660   20.7407 C   0  0  0  0  0  0  0  0  0  0  0  0
   12.3254  -17.2264   22.1452 C   0  0  2  0  0  0  0  0  0  0  0  0
   11.0971  -16.5459   22.5473 N   0  0  0  0  0  0  0  0  0  0  0  0
   13.4894  -16.8375   22.9735 C   0  0  0  0  0  0  0  0  0  0  0  0
   13.3287  -16.0414   23.9307 O   0  0  0  0  0  0  0  0  0  0  0  0
   14.7614  -17.3205   22.7328 O   0  0  0  0  0  0  0  0  0  0  0  0
  1  2  1  0
  3  5  1  0
  3  2  1  0
  4  3  2  0
  6  5  1  0
  7  8  1  0
  6  7  1  1
  8 16  1  0
  9  8  2  0
  9 10  1  0
 10 11  1  0
 11 12  1  0
 12 13  2  0
 14 13  1  0
 15 14  2  0
 16 11  2  0
 16 15  1  0
 17 22  1  0
 17  6  1  0
 18 17  2  0
 19 20  1  0
 21 20  1  6
 21 22  1  0
 21 23  1  0
 23 25  1  0
 24 23  2  0
M  END
$$$$
