QLS.pdb
     RDKit          3D

 24 23  0  0  1  0  0  0  0  0999 V2000
   19.3787  -22.1008  -11.5222 N   0  0  0  0  0  0  0  0  0  0  0  0
   18.8827  -22.7058  -12.7321 C   0  0  0  0  0  0  0  0  0  0  0  0
   17.6646  -22.9694  -12.7339 O   0  0  0  0  0  0  0  0  0  0  0  0
   19.8477  -22.9371  -13.8045 C   0  0  0  0  0  0  0  0  0  0  0  0
   20.4793  -21.6621  -14.2607 C   0  0  0  0  0  0  0  0  0  0  0  0
   21.1586  -20.9792  -13.1264 C   0  0  2  0  0  0  0  0  0  0  0  0
   20.3704  -19.8541  -12.6605 N   0  0  0  0  0  0  0  0  0  0  0  0
   22.5053  -20.5168  -13.6093 C   0  0  0  0  0  0  0  0  0  0  0  0
   22.5073  -19.3823  -14.1370 O   0  0  0  0  0  0  0  0  0  0  0  0
   27.3565  -21.7285  -11.1141 C   0  0  0  0  0  0  0  0  0  0  0  0
   26.2701  -20.9593  -11.8374 C   0  0  1  0  0  0  0  0  0  0  0  0
   26.8456  -19.5310  -12.0635 C   0  0  0  0  0  0  0  0  0  0  0  0
   26.0106  -21.4870  -13.2002 C   0  0  0  0  0  0  0  0  0  0  0  0
   24.9553  -20.8459  -14.0185 C   0  0  2  0  0  0  0  0  0  0  0  0
   23.6597  -21.2691  -13.4893 N   0  0  0  0  0  0  0  0  0  0  0  0
   24.9986  -21.2317  -15.4285 C   0  0  0  0  0  0  0  0  0  0  0  0
   24.8997  -22.4582  -15.7847 O   0  0  0  0  0  0  0  0  0  0  0  0
   23.8654  -18.8994  -18.5218 O   0  0  0  0  0  0  0  0  0  0  0  0
   23.9656  -20.2792  -18.6795 C   0  0  0  0  0  0  0  0  0  0  0  0
   25.1814  -20.8046  -17.9042 C   0  0  2  0  0  0  0  0  0  0  0  0
   25.1442  -20.3369  -16.5341 N   0  0  0  0  0  0  0  0  0  0  0  0
   26.4398  -20.3443  -18.5393 C   0  0  0  0  0  0  0  0  0  0  0  0
   27.2192  -19.6134  -17.9104 O   0  0  0  0  0  0  0  0  0  0  0  0
   26.7740  -20.7192  -19.8477 O   0  0  0  0  0  0  0  0  0  0  0  0
  2  1  1  0
  3  2  2  0
  4  2  1  0
  5  4  1  0
  6  5  1  0
  6  7  1  6
  8  9  2  0
  8  6  1  0
 11 10  1  6
 11 12  1  0
 14 13  1  1
 13 11  1  0
 14 15  1  0
 15  8  1  0
 16 14  1  0
 17 16  2  0
 18 19  1  0
 20 19  1  6
 20 21  1  0
 21 16  1  0
 22 20  1  0
 23 22  2  0
 24 22  1  0
M  END
$$$$
