QLS.pdb
     RDKit          3D

 24 23  0  0  1  0  0  0  0  0999 V2000
   19.4137  -24.2495  -14.7737 N   0  0  0  0  0  0  0  0  0  0  0  0
   18.2271  -24.3289  -13.9602 C   0  0  0  0  0  0  0  0  0  0  0  0
   17.6190  -25.4155  -14.0120 O   0  0  0  0  0  0  0  0  0  0  0  0
   17.8767  -23.1461  -13.1772 C   0  0  0  0  0  0  0  0  0  0  0  0
   18.8884  -22.0587  -13.3405 C   0  0  0  0  0  0  0  0  0  0  0  0
   19.8372  -22.0499  -12.1941 C   0  0  2  0  0  0  0  0  0  0  0  0
   19.1597  -21.6600  -10.9722 N   0  0  0  0  0  0  0  0  0  0  0  0
   20.9402  -21.0811  -12.5188 C   0  0  0  0  0  0  0  0  0  0  0  0
   20.6414  -19.8776  -12.3512 O   0  0  0  0  0  0  0  0  0  0  0  0
   26.0300  -22.0565  -11.0198 C   0  0  0  0  0  0  0  0  0  0  0  0
   24.6766  -21.4614  -11.3506 C   0  0  1  0  0  0  0  0  0  0  0  0
   24.6298  -20.0896  -10.6170 C   0  0  0  0  0  0  0  0  0  0  0  0
   24.5377  -21.1296  -12.7907 C   0  0  0  0  0  0  0  0  0  0  0  0
   23.2687  -20.5254  -13.2587 C   0  0  2  0  0  0  0  0  0  0  0  0
   22.1899  -21.4684  -12.9673 N   0  0  0  0  0  0  0  0  0  0  0  0
   23.2449  -20.2653  -14.6976 C   0  0  0  0  0  0  0  0  0  0  0  0
   23.2805  -21.2242  -15.5464 O   0  0  0  0  0  0  0  0  0  0  0  0
   23.1112  -16.4380  -16.4005 O   0  0  0  0  0  0  0  0  0  0  0  0
   22.4559  -17.4552  -17.0895 C   0  0  0  0  0  0  0  0  0  0  0  0
   23.0922  -18.8091  -16.7472 C   0  0  2  0  0  0  0  0  0  0  0  0
   23.1776  -18.9757  -15.3112 N   0  0  0  0  0  0  0  0  0  0  0  0
   24.4534  -18.9039  -17.3277 C   0  0  0  0  0  0  0  0  0  0  0  0
   24.6051  -18.8755  -18.5579 O   0  0  0  0  0  0  0  0  0  0  0  0
   25.5858  -19.0262  -16.5111 O   0  0  0  0  0  0  0  0  0  0  0  0
  2  1  1  0
  3  2  2  0
  4  2  1  0
  5  4  1  0
  6  5  1  0
  6  7  1  1
  8  9  2  0
  8  6  1  0
 11 10  1  6
 11 12  1  0
 14 13  1  6
 13 11  1  0
 14 15  1  0
 15  8  1  0
 16 14  1  0
 17 16  2  0
 18 19  1  0
 20 19  1  1
 20 21  1  0
 21 16  1  0
 22 20  1  0
 23 22  2  0
 24 22  1  0
M  END
$$$$
