QLS.pdb
     RDKit          3D

 24 23  0  0  1  0  0  0  0  0999 V2000
   25.5825  -25.6343  -15.0334 N   0  0  0  0  0  0  0  0  0  0  0  0
   24.8587  -24.3886  -15.0095 C   0  0  0  0  0  0  0  0  0  0  0  0
   24.8921  -23.7341  -16.0696 O   0  0  0  0  0  0  0  0  0  0  0  0
   24.1765  -24.0391  -13.7656 C   0  0  0  0  0  0  0  0  0  0  0  0
   23.8347  -22.5854  -13.7154 C   0  0  0  0  0  0  0  0  0  0  0  0
   25.0643  -21.7639  -13.5480 C   0  0  2  0  0  0  0  0  0  0  0  0
   25.6541  -21.9860  -12.2415 N   0  0  0  0  0  0  0  0  0  0  0  0
   24.6780  -20.3205  -13.7147 C   0  0  0  0  0  0  0  0  0  0  0  0
   24.1271  -19.8105  -12.7137 O   0  0  0  0  0  0  0  0  0  0  0  0
   25.9603  -15.2272  -14.8168 C   0  0  0  0  0  0  0  0  0  0  0  0
   25.7048  -16.0989  -16.0293 C   0  0  1  0  0  0  0  0  0  0  0  0
   26.9028  -15.8448  -16.9898 C   0  0  0  0  0  0  0  0  0  0  0  0
   25.7695  -17.5475  -15.7124 C   0  0  0  0  0  0  0  0  0  0  0  0
   24.6316  -18.1664  -14.9938 C   0  0  2  0  0  0  0  0  0  0  0  0
   24.9045  -19.5977  -14.8720 N   0  0  0  0  0  0  0  0  0  0  0  0
   23.3553  -18.0228  -15.6933 C   0  0  0  0  0  0  0  0  0  0  0  0
   23.1026  -18.6899  -16.7575 O   0  0  0  0  0  0  0  0  0  0  0  0
   19.8067  -17.9966  -14.1008 O   0  0  0  0  0  0  0  0  0  0  0  0
   19.8596  -16.9374  -15.0030 C   0  0  0  0  0  0  0  0  0  0  0  0
   21.0096  -17.1560  -15.9953 C   0  0  2  0  0  0  0  0  0  0  0  0
   22.2791  -17.1683  -15.2986 N   0  0  0  0  0  0  0  0  0  0  0  0
   21.0268  -16.0791  -17.0145 C   0  0  0  0  0  0  0  0  0  0  0  0
   21.8664  -15.1699  -16.9402 O   0  0  0  0  0  0  0  0  0  0  0  0
   20.1072  -16.0633  -18.0719 O   0  0  0  0  0  0  0  0  0  0  0  0
  2  1  1  0
  3  2  2  0
  4  2  1  0
  5  4  1  0
  6  5  1  0
  6  7  1  1
  8  9  2  0
  8  6  1  0
 11 10  1  1
 11 12  1  0
 14 13  1  6
 13 11  1  0
 14 15  1  0
 15  8  1  0
 16 14  1  0
 17 16  2  0
 18 19  1  0
 20 19  1  1
 20 21  1  0
 21 16  1  0
 22 20  1  0
 23 22  2  0
 24 22  1  0
M  END
$$$$
