QLS.pdb
     RDKit          3D

 24 23  0  0  1  0  0  0  0  0999 V2000
   22.8086  -14.7354  -21.5179 N   0  0  0  0  0  0  0  0  0  0  0  0
   22.8282  -13.7750  -22.5918 C   0  0  0  0  0  0  0  0  0  0  0  0
   22.9868  -14.2547  -23.7311 O   0  0  0  0  0  0  0  0  0  0  0  0
   22.6610  -12.3691  -22.2305 C   0  0  0  0  0  0  0  0  0  0  0  0
   22.3691  -12.2064  -20.7741 C   0  0  0  0  0  0  0  0  0  0  0  0
   23.6322  -12.1652  -19.9884 C   0  0  2  0  0  0  0  0  0  0  0  0
   24.0153  -13.4987  -19.5653 N   0  0  0  0  0  0  0  0  0  0  0  0
   23.4022  -11.2785  -18.7962 C   0  0  0  0  0  0  0  0  0  0  0  0
   22.4538  -11.6318  -18.0604 O   0  0  0  0  0  0  0  0  0  0  0  0
   27.4985   -9.8176  -15.8031 C   0  0  0  0  0  0  0  0  0  0  0  0
   26.1116  -10.2233  -16.2582 C   0  0  1  0  0  0  0  0  0  0  0  0
   25.3759  -10.7147  -14.9777 C   0  0  0  0  0  0  0  0  0  0  0  0
   25.3111   -9.0702  -16.7403 C   0  0  0  0  0  0  0  0  0  0  0  0
   23.9764   -9.3311  -17.3277 C   0  0  2  0  0  0  0  0  0  0  0  0
   24.1655  -10.1592  -18.5179 N   0  0  0  0  0  0  0  0  0  0  0  0
   23.2785   -8.1163  -17.7469 C   0  0  0  0  0  0  0  0  0  0  0  0
   23.5937   -7.5096  -18.8303 O   0  0  0  0  0  0  0  0  0  0  0  0
   19.3785   -5.2602  -17.7163 O   0  0  0  0  0  0  0  0  0  0  0  0
   20.0130   -6.4316  -17.3113 C   0  0  0  0  0  0  0  0  0  0  0  0
   21.5226   -6.3195  -17.5635 C   0  0  2  0  0  0  0  0  0  0  0  0
   22.2072   -7.4842  -17.0418 N   0  0  0  0  0  0  0  0  0  0  0  0
   22.0685   -5.1045  -16.9119 C   0  0  0  0  0  0  0  0  0  0  0  0
   22.4674   -5.1573  -15.7392 O   0  0  0  0  0  0  0  0  0  0  0  0
   22.1456   -3.8841  -17.5964 O   0  0  0  0  0  0  0  0  0  0  0  0
  2  1  1  0
  3  2  2  0
  4  2  1  0
  5  4  1  0
  6  5  1  0
  6  7  1  1
  8  9  2  0
  8  6  1  0
 11 10  1  1
 11 12  1  0
 14 13  1  6
 13 11  1  0
 14 15  1  0
 15  8  1  0
 16 14  1  0
 17 16  2  0
 18 19  1  0
 20 19  1  1
 20 21  1  0
 21 16  1  0
 22 20  1  0
 23 22  2  0
 24 22  1  0
M  END
$$$$
