QLS.pdb
     RDKit          3D

 24 23  0  0  1  0  0  0  0  0999 V2000
   14.7626  -22.1834    0.7804 N   0  0  0  0  0  0  0  0  0  0  0  0
   13.7785  -22.8865   -0.0027 C   0  0  0  0  0  0  0  0  0  0  0  0
   13.3440  -22.2658   -0.9922 O   0  0  0  0  0  0  0  0  0  0  0  0
   13.4076  -24.2276    0.4432 C   0  0  0  0  0  0  0  0  0  0  0  0
   14.2202  -24.6604    1.6201 C   0  0  0  0  0  0  0  0  0  0  0  0
   15.5115  -25.2516    1.1758 C   0  0  2  0  0  0  0  0  0  0  0  0
   15.2934  -26.5347    0.5353 N   0  0  0  0  0  0  0  0  0  0  0  0
   16.3859  -25.4085    2.3888 C   0  0  0  0  0  0  0  0  0  0  0  0
   16.4960  -26.5845    2.8020 O   0  0  0  0  0  0  0  0  0  0  0  0
   21.2947  -24.4709    2.3310 C   0  0  0  0  0  0  0  0  0  0  0  0
   19.9907  -25.0615    2.8274 C   0  0  1  0  0  0  0  0  0  0  0  0
   20.3891  -26.2929    3.6917 C   0  0  0  0  0  0  0  0  0  0  0  0
   19.2745  -24.1556    3.7597 C   0  0  0  0  0  0  0  0  0  0  0  0
   17.8975  -24.5112    4.1744 C   0  0  2  0  0  0  0  0  0  0  0  0
   17.0250  -24.3520    3.0119 N   0  0  0  0  0  0  0  0  0  0  0  0
   17.3710  -23.6549    5.2365 C   0  0  0  0  0  0  0  0  0  0  0  0
   17.0555  -22.4341    5.0101 O   0  0  0  0  0  0  0  0  0  0  0  0
   14.9721  -24.6224    8.4526 O   0  0  0  0  0  0  0  0  0  0  0  0
   16.1105  -23.9027    8.8056 C   0  0  0  0  0  0  0  0  0  0  0  0
   16.6363  -23.1305    7.5881 C   0  0  2  0  0  0  0  0  0  0  0  0
   17.1473  -24.0495    6.5924 N   0  0  0  0  0  0  0  0  0  0  0  0
   17.7196  -22.2017    7.9914 C   0  0  0  0  0  0  0  0  0  0  0  0
   18.8687  -22.6315    8.1704 O   0  0  0  0  0  0  0  0  0  0  0  0
   17.4741  -20.8345    8.1774 O   0  0  0  0  0  0  0  0  0  0  0  0
  2  1  1  0
  3  2  2  0
  4  2  1  0
  5  4  1  0
  6  5  1  0
  6  7  1  1
  8  9  2  0
  8  6  1  0
 11 10  1  1
 11 12  1  0
 14 13  1  6
 13 11  1  0
 14 15  1  0
 15  8  1  0
 16 14  1  0
 17 16  2  0
 18 19  1  0
 20 19  1  1
 20 21  1  0
 21 16  1  0
 22 20  1  0
 23 22  2  0
 24 22  1  0
M  END
$$$$
