QLS.pdb
     RDKit          3D

 24 23  0  0  1  0  0  0  0  0999 V2000
   24.8118  -21.2600  -19.3146 N   0  0  0  0  0  0  0  0  0  0  0  0
   23.8675  -22.2896  -19.6668 C   0  0  0  0  0  0  0  0  0  0  0  0
   22.9407  -21.9268  -20.4169 O   0  0  0  0  0  0  0  0  0  0  0  0
   24.0997  -23.6226  -19.1152 C   0  0  0  0  0  0  0  0  0  0  0  0
   24.2283  -23.5873  -17.6270 C   0  0  0  0  0  0  0  0  0  0  0  0
   25.6242  -23.2583  -17.2297 C   0  0  2  0  0  0  0  0  0  0  0  0
   26.3508  -24.4611  -16.8699 N   0  0  0  0  0  0  0  0  0  0  0  0
   25.5584  -22.3121  -16.0631 C   0  0  0  0  0  0  0  0  0  0  0  0
   25.8526  -22.8248  -14.9603 O   0  0  0  0  0  0  0  0  0  0  0  0
   28.0672  -17.7650  -16.2450 C   0  0  0  0  0  0  0  0  0  0  0  0
   27.4120  -19.0478  -15.7755 C   0  0  1  0  0  0  0  0  0  0  0  0
   28.1082  -19.4077  -14.4309 C   0  0  0  0  0  0  0  0  0  0  0  0
   25.9813  -18.8615  -15.4274 C   0  0  0  0  0  0  0  0  0  0  0  0
   25.1839  -20.0513  -15.0496 C   0  0  2  0  0  0  0  0  0  0  0  0
   25.2038  -20.9802  -16.1787 N   0  0  0  0  0  0  0  0  0  0  0  0
   23.7834  -19.7446  -14.7609 C   0  0  0  0  0  0  0  0  0  0  0  0
   23.4538  -19.0443  -13.7400 O   0  0  0  0  0  0  0  0  0  0  0  0
   20.5880  -20.6159  -17.3401 O   0  0  0  0  0  0  0  0  0  0  0  0
   20.5098  -19.5012  -16.5094 C   0  0  0  0  0  0  0  0  0  0  0  0
   21.3073  -19.7540  -15.2228 C   0  0  2  0  0  0  0  0  0  0  0  0
   22.6602  -20.1602  -15.5418 N   0  0  0  0  0  0  0  0  0  0  0  0
   20.6614  -20.8145  -14.4124 C   0  0  0  0  0  0  0  0  0  0  0  0
   21.2870  -21.8479  -14.1336 O   0  0  0  0  0  0  0  0  0  0  0  0
   19.3462  -20.6762  -13.9483 O   0  0  0  0  0  0  0  0  0  0  0  0
  2  1  1  0
  3  2  2  0
  4  2  1  0
  5  4  1  0
  6  5  1  0
  6  7  1  1
  8  9  2  0
  8  6  1  0
 11 10  1  1
 11 12  1  0
 14 13  1  6
 13 11  1  0
 14 15  1  0
 15  8  1  0
 16 14  1  0
 17 16  2  0
 18 19  1  0
 20 19  1  6
 20 21  1  0
 21 16  1  0
 22 20  1  0
 23 22  2  0
 24 22  1  0
M  END
$$$$
