QLS.pdb
     RDKit          3D

 24 23  0  0  1  0  0  0  0  0999 V2000
   28.9443  -19.2160  -18.1087 N   0  0  0  0  0  0  0  0  0  0  0  0
   28.1405  -18.0408  -17.8876 C   0  0  0  0  0  0  0  0  0  0  0  0
   28.6670  -16.9645  -18.2305 O   0  0  0  0  0  0  0  0  0  0  0  0
   26.8188  -18.2398  -17.2973 C   0  0  0  0  0  0  0  0  0  0  0  0
   26.5267  -19.6888  -17.0783 C   0  0  0  0  0  0  0  0  0  0  0  0
   27.0414  -20.1324  -15.7544 C   0  0  2  0  0  0  0  0  0  0  0  0
   28.1060  -21.1038  -15.9187 N   0  0  0  0  0  0  0  0  0  0  0  0
   25.8921  -20.7321  -14.9928 C   0  0  0  0  0  0  0  0  0  0  0  0
   25.4945  -21.8337  -15.4332 O   0  0  0  0  0  0  0  0  0  0  0  0
   26.0383  -20.3863   -9.5890 C   0  0  0  0  0  0  0  0  0  0  0  0
   25.8832  -20.8646  -11.0182 C   0  0  1  0  0  0  0  0  0  0  0  0
   25.7561  -22.4134  -10.9316 C   0  0  0  0  0  0  0  0  0  0  0  0
   24.6120  -20.4106  -11.6353 C   0  0  0  0  0  0  0  0  0  0  0  0
   24.3276  -20.7974  -13.0366 C   0  0  2  0  0  0  0  0  0  0  0  0
   25.3081  -20.1310  -13.8926 N   0  0  0  0  0  0  0  0  0  0  0  0
   22.9997  -20.3898  -13.4939 C   0  0  0  0  0  0  0  0  0  0  0  0
   22.6459  -19.1585  -13.4927 O   0  0  0  0  0  0  0  0  0  0  0  0
   21.1705  -21.2853  -16.7308 O   0  0  0  0  0  0  0  0  0  0  0  0
   20.2602  -21.5237  -15.7044 C   0  0  0  0  0  0  0  0  0  0  0  0
   20.6963  -20.7747  -14.4379 C   0  0  2  0  0  0  0  0  0  0  0  0
   21.9797  -21.2656  -13.9805 N   0  0  0  0  0  0  0  0  0  0  0  0
   19.6959  -20.9552  -13.3584 C   0  0  0  0  0  0  0  0  0  0  0  0
   19.9054  -21.7735  -12.4509 O   0  0  0  0  0  0  0  0  0  0  0  0
   18.5058  -20.2154  -13.3382 O   0  0  0  0  0  0  0  0  0  0  0  0
  2  1  1  0
  3  2  2  0
  4  2  1  0
  5  4  1  0
  6  5  1  0
  6  7  1  6
  8  9  2  0
  8  6  1  0
 11 10  1  1
 11 12  1  0
 14 13  1  1
 13 11  1  0
 14 15  1  0
 15  8  1  0
 16 14  1  0
 17 16  2  0
 18 19  1  0
 20 19  1  6
 20 21  1  0
 21 16  1  0
 22 20  1  0
 23 22  2  0
 24 22  1  0
M  END
$$$$
