QLS.pdb
     RDKit          3D

 24 23  0  0  1  0  0  0  0  0999 V2000
   20.0591  -20.0978  -12.5995 N   0  0  0  0  0  0  0  0  0  0  0  0
   20.4425  -21.2643  -11.8457 C   0  0  0  0  0  0  0  0  0  0  0  0
   19.5032  -22.0088  -11.5041 O   0  0  0  0  0  0  0  0  0  0  0  0
   21.8669  -21.4415  -11.5723 C   0  0  0  0  0  0  0  0  0  0  0  0
   22.6810  -20.3321  -12.1548 C   0  0  0  0  0  0  0  0  0  0  0  0
   23.1422  -20.6848  -13.5250 C   0  0  2  0  0  0  0  0  0  0  0  0
   23.3607  -22.1143  -13.6392 N   0  0  0  0  0  0  0  0  0  0  0  0
   24.4174  -19.9329  -13.7876 C   0  0  0  0  0  0  0  0  0  0  0  0
   24.3440  -18.6995  -13.5905 O   0  0  0  0  0  0  0  0  0  0  0  0
   29.3498  -21.6193  -12.2980 C   0  0  0  0  0  0  0  0  0  0  0  0
   28.1058  -20.8215  -12.6317 C   0  0  1  0  0  0  0  0  0  0  0  0
   28.3291  -19.4137  -12.0070 C   0  0  0  0  0  0  0  0  0  0  0  0
   27.9619  -20.5750  -14.0883 C   0  0  0  0  0  0  0  0  0  0  0  0
   26.7963  -19.7931  -14.5621 C   0  0  2  0  0  0  0  0  0  0  0  0
   25.5868  -20.5368  -14.2128 N   0  0  0  0  0  0  0  0  0  0  0  0
   26.7821  -19.5911  -16.0104 C   0  0  0  0  0  0  0  0  0  0  0  0
   26.4759  -20.5434  -16.8108 O   0  0  0  0  0  0  0  0  0  0  0  0
   25.9862  -16.7970  -19.8044 O   0  0  0  0  0  0  0  0  0  0  0  0
   26.0778  -16.9736  -18.4263 C   0  0  0  0  0  0  0  0  0  0  0  0
   26.9238  -18.2158  -18.1160 C   0  0  2  0  0  0  0  0  0  0  0  0
   27.0872  -18.3680  -16.6851 N   0  0  0  0  0  0  0  0  0  0  0  0
   28.2610  -18.1034  -18.7470 C   0  0  0  0  0  0  0  0  0  0  0  0
   29.2461  -17.7970  -18.0594 O   0  0  0  0  0  0  0  0  0  0  0  0
   28.4410  -18.3376  -20.1170 O   0  0  0  0  0  0  0  0  0  0  0  0
  2  1  1  0
  3  2  2  0
  4  2  1  0
  5  4  1  0
  6  5  1  0
  6  7  1  1
  8  9  2  0
  8  6  1  0
 11 10  1  6
 11 12  1  0
 14 13  1  6
 13 11  1  0
 14 15  1  0
 15  8  1  0
 16 14  1  0
 17 16  2  0
 18 19  1  0
 20 19  1  1
 20 21  1  0
 21 16  1  0
 22 20  1  0
 23 22  2  0
 24 22  1  0
M  END
$$$$
