QLS.pdb
     RDKit          3D

 24 23  0  0  1  0  0  0  0  0999 V2000
   16.4467  -21.2143  -11.5981 N   0  0  0  0  0  0  0  0  0  0  0  0
   16.7323  -22.6163  -11.7677 C   0  0  0  0  0  0  0  0  0  0  0  0
   15.7949  -23.3876  -11.4857 O   0  0  0  0  0  0  0  0  0  0  0  0
   18.0670  -22.9705  -12.2453 C   0  0  0  0  0  0  0  0  0  0  0  0
   18.9160  -21.7589  -12.4544 C   0  0  0  0  0  0  0  0  0  0  0  0
   19.8344  -21.9559  -13.6086 C   0  0  2  0  0  0  0  0  0  0  0  0
   20.1279  -23.3642  -13.7943 N   0  0  0  0  0  0  0  0  0  0  0  0
   21.0951  -21.1860  -13.3285 C   0  0  0  0  0  0  0  0  0  0  0  0
   20.9305  -19.9546  -13.1802 O   0  0  0  0  0  0  0  0  0  0  0  0
   25.5851  -19.7200  -10.9480 C   0  0  0  0  0  0  0  0  0  0  0  0
   25.6656  -21.0914  -11.5867 C   0  0  1  0  0  0  0  0  0  0  0  0
   26.2090  -22.0399  -10.4789 C   0  0  0  0  0  0  0  0  0  0  0  0
   24.3294  -21.6361  -11.9347 C   0  0  0  0  0  0  0  0  0  0  0  0
   23.5791  -21.0124  -13.0494 C   0  0  2  0  0  0  0  0  0  0  0  0
   22.3444  -21.7726  -13.2383 N   0  0  0  0  0  0  0  0  0  0  0  0
   24.3031  -21.0320  -14.3199 C   0  0  0  0  0  0  0  0  0  0  0  0
   24.6817  -22.1343  -14.8515 O   0  0  0  0  0  0  0  0  0  0  0  0
   24.0386  -20.5503  -18.6405 O   0  0  0  0  0  0  0  0  0  0  0  0
   23.7832  -20.5828  -17.2721 C   0  0  0  0  0  0  0  0  0  0  0  0
   24.9661  -19.9737  -16.5074 C   0  0  2  0  0  0  0  0  0  0  0  0
   24.6591  -19.8845  -15.0949 N   0  0  0  0  0  0  0  0  0  0  0  0
   25.2738  -18.6178  -17.0228 C   0  0  0  0  0  0  0  0  0  0  0  0
   24.9946  -17.6192  -16.3432 O   0  0  0  0  0  0  0  0  0  0  0  0
   25.8793  -18.4349  -18.2735 O   0  0  0  0  0  0  0  0  0  0  0  0
  2  1  1  0
  3  2  2  0
  4  2  1  0
  5  4  1  0
  6  5  1  0
  6  7  1  1
  8  9  2  0
  8  6  1  0
 11 10  1  1
 11 12  1  0
 14 13  1  1
 13 11  1  0
 14 15  1  0
 15  8  1  0
 16 14  1  0
 17 16  2  0
 18 19  1  0
 20 19  1  6
 20 21  1  0
 21 16  1  0
 22 20  1  0
 23 22  2  0
 24 22  1  0
M  END
$$$$
