QLS.pdb
     RDKit          3D

 24 23  0  0  1  0  0  0  0  0999 V2000
   17.3345  -12.2649  -14.7188 N   0  0  0  0  0  0  0  0  0  0  0  0
   17.2193  -12.4342  -16.1450 C   0  0  0  0  0  0  0  0  0  0  0  0
   16.2159  -13.0678  -16.5257 O   0  0  0  0  0  0  0  0  0  0  0  0
   18.2740  -11.8518  -16.9716 C   0  0  0  0  0  0  0  0  0  0  0  0
   19.3376  -11.2143  -16.1378 C   0  0  0  0  0  0  0  0  0  0  0  0
   19.6821   -9.8675  -16.6687 C   0  0  2  0  0  0  0  0  0  0  0  0
   20.3519   -9.9787  -17.9505 N   0  0  0  0  0  0  0  0  0  0  0  0
   20.5736   -9.1924  -15.6637 C   0  0  0  0  0  0  0  0  0  0  0  0
   20.0784   -9.0829  -14.5198 O   0  0  0  0  0  0  0  0  0  0  0  0
   25.8585  -10.1788  -15.7811 C   0  0  0  0  0  0  0  0  0  0  0  0
   24.4265   -9.9250  -15.3565 C   0  0  1  0  0  0  0  0  0  0  0  0
   24.3245  -10.4416  -13.8919 C   0  0  0  0  0  0  0  0  0  0  0  0
   24.1054   -8.4782  -15.2747 C   0  0  0  0  0  0  0  0  0  0  0  0
   22.7104   -8.0785  -14.9771 C   0  0  2  0  0  0  0  0  0  0  0  0
   21.8407   -8.7236  -15.9596 N   0  0  0  0  0  0  0  0  0  0  0  0
   22.4857   -6.6367  -15.0746 C   0  0  0  0  0  0  0  0  0  0  0  0
   23.1168   -5.8139  -14.3224 O   0  0  0  0  0  0  0  0  0  0  0  0
   21.5807   -2.6263  -17.4198 O   0  0  0  0  0  0  0  0  0  0  0  0
   21.8213   -3.9971  -17.3772 C   0  0  0  0  0  0  0  0  0  0  0  0
   21.4178   -4.5538  -16.0052 C   0  0  2  0  0  0  0  0  0  0  0  0
   21.5839   -5.9921  -15.9777 N   0  0  0  0  0  0  0  0  0  0  0  0
   20.0032   -4.2237  -15.7073 C   0  0  0  0  0  0  0  0  0  0  0  0
   19.0984   -4.9857  -16.0788 O   0  0  0  0  0  0  0  0  0  0  0  0
   19.6594   -3.0587  -15.0083 O   0  0  0  0  0  0  0  0  0  0  0  0
  2  1  1  0
  3  2  2  0
  4  2  1  0
  5  4  1  0
  6  5  1  0
  6  7  1  6
  8  9  2  0
  8  6  1  0
 11 10  1  1
 11 12  1  0
 14 13  1  6
 13 11  1  0
 14 15  1  0
 15  8  1  0
 16 14  1  0
 17 16  2  0
 18 19  1  0
 20 19  1  6
 20 21  1  0
 21 16  1  0
 22 20  1  0
 23 22  2  0
 24 22  1  0
M  END
$$$$
