QLS.pdb
     RDKit          3D

 24 23  0  0  1  0  0  0  0  0999 V2000
   15.8246  -14.2919  -16.5200 N   0  0  0  0  0  0  0  0  0  0  0  0
   15.5956  -13.9215  -17.8935 C   0  0  0  0  0  0  0  0  0  0  0  0
   14.8760  -14.7052  -18.5425 O   0  0  0  0  0  0  0  0  0  0  0  0
   16.2216  -12.6876  -18.3632 C   0  0  0  0  0  0  0  0  0  0  0  0
   17.0577  -12.0551  -17.2986 C   0  0  0  0  0  0  0  0  0  0  0  0
   17.7613  -10.8559  -17.8288 C   0  0  2  0  0  0  0  0  0  0  0  0
   18.6110  -11.2145  -18.9484 N   0  0  0  0  0  0  0  0  0  0  0  0
   18.5794  -10.2720  -16.7106 C   0  0  0  0  0  0  0  0  0  0  0  0
   17.9133   -9.8950  -15.7207 O   0  0  0  0  0  0  0  0  0  0  0  0
   22.7375  -10.1283  -13.2661 C   0  0  0  0  0  0  0  0  0  0  0  0
   23.0981   -9.7914  -14.6985 C   0  0  1  0  0  0  0  0  0  0  0  0
   24.3618  -10.6393  -15.0244 C   0  0  0  0  0  0  0  0  0  0  0  0
   22.0704  -10.2494  -15.6666 C   0  0  0  0  0  0  0  0  0  0  0  0
   20.7492   -9.5794  -15.6664 C   0  0  2  0  0  0  0  0  0  0  0  0
   19.9566  -10.1525  -16.7532 N   0  0  0  0  0  0  0  0  0  0  0  0
   20.8290   -8.1374  -15.8971 C   0  0  0  0  0  0  0  0  0  0  0  0
   21.1422   -7.6651  -17.0460 O   0  0  0  0  0  0  0  0  0  0  0  0
   19.5266   -3.6197  -15.0733 O   0  0  0  0  0  0  0  0  0  0  0  0
   19.3633   -4.9947  -14.9265 C   0  0  0  0  0  0  0  0  0  0  0  0
   20.6848   -5.7114  -15.2347 C   0  0  2  0  0  0  0  0  0  0  0  0
   20.5763   -7.1216  -14.9232 N   0  0  0  0  0  0  0  0  0  0  0  0
   21.7908   -5.1237  -14.4410 C   0  0  0  0  0  0  0  0  0  0  0  0
   22.2034   -5.7069  -13.4277 O   0  0  0  0  0  0  0  0  0  0  0  0
   22.3883   -3.9114  -14.8119 O   0  0  0  0  0  0  0  0  0  0  0  0
  2  1  1  0
  3  2  2  0
  4  2  1  0
  5  4  1  0
  6  5  1  0
  6  7  1  6
  8  9  2  0
  8  6  1  0
 11 10  1  1
 11 12  1  0
 14 13  1  6
 13 11  1  0
 14 15  1  0
 15  8  1  0
 16 14  1  0
 17 16  2  0
 18 19  1  0
 20 19  1  1
 20 21  1  0
 21 16  1  0
 22 20  1  0
 23 22  2  0
 24 22  1  0
M  END
$$$$
