QLS.pdb
     RDKit          3D

 24 23  0  0  1  0  0  0  0  0999 V2000
   23.1478  -23.0689  -14.4165 N   0  0  0  0  0  0  0  0  0  0  0  0
   22.6969  -22.3631  -13.2441 C   0  0  0  0  0  0  0  0  0  0  0  0
   21.9851  -23.0265  -12.4653 O   0  0  0  0  0  0  0  0  0  0  0  0
   23.1195  -20.9717  -13.1013 C   0  0  0  0  0  0  0  0  0  0  0  0
   24.0130  -20.5504  -14.2223 C   0  0  0  0  0  0  0  0  0  0  0  0
   23.5570  -19.2556  -14.7969 C   0  0  2  0  0  0  0  0  0  0  0  0
   22.2846  -19.4162  -15.4745 N   0  0  0  0  0  0  0  0  0  0  0  0
   24.6118  -18.7836  -15.7587 C   0  0  0  0  0  0  0  0  0  0  0  0
   24.6024  -19.3642  -16.8671 O   0  0  0  0  0  0  0  0  0  0  0  0
   26.3402  -13.5397  -15.4055 C   0  0  0  0  0  0  0  0  0  0  0  0
   25.8346  -14.8439  -15.9875 C   0  0  1  0  0  0  0  0  0  0  0  0
   25.5479  -14.5510  -17.4890 C   0  0  0  0  0  0  0  0  0  0  0  0
   26.8738  -15.9036  -15.9964 C   0  0  0  0  0  0  0  0  0  0  0  0
   26.4905  -17.2673  -16.4297 C   0  0  2  0  0  0  0  0  0  0  0  0
   25.5271  -17.7901  -15.4618 N   0  0  0  0  0  0  0  0  0  0  0  0
   27.6155  -18.2006  -16.4741 C   0  0  0  0  0  0  0  0  0  0  0  0
   28.7502  -17.8978  -15.9623 O   0  0  0  0  0  0  0  0  0  0  0  0
   27.4230  -22.2210  -16.4900 O   0  0  0  0  0  0  0  0  0  0  0  0
   28.6097  -21.5569  -16.1907 C   0  0  0  0  0  0  0  0  0  0  0  0
   28.7743  -20.3432  -17.1154 C   0  0  2  0  0  0  0  0  0  0  0  0
   27.5947  -19.5050  -17.0593 N   0  0  0  0  0  0  0  0  0  0  0  0
   28.9898  -20.7832  -18.5149 C   0  0  0  0  0  0  0  0  0  0  0  0
   28.1498  -20.5117  -19.3855 O   0  0  0  0  0  0  0  0  0  0  0  0
   30.1324  -21.5067  -18.8825 O   0  0  0  0  0  0  0  0  0  0  0  0
  2  1  1  0
  3  2  2  0
  4  2  1  0
  5  4  1  0
  6  5  1  0
  6  7  1  6
  8  9  2  0
  8  6  1  0
 11 10  1  1
 11 12  1  0
 14 13  1  1
 13 11  1  0
 14 15  1  0
 15  8  1  0
 16 14  1  0
 17 16  2  0
 18 19  1  0
 20 19  1  1
 20 21  1  0
 21 16  1  0
 22 20  1  0
 23 22  2  0
 24 22  1  0
M  END
$$$$
