VRM.pdb
     RDKit          3D

 27 26  0  0  1  0  0  0  0  0999 V2000
   25.6646  -15.9726  -17.2210 C   0  0  0  0  0  0  0  0  0  0  0  0
   25.5902  -16.9146  -16.0509 C   0  0  1  0  0  0  0  0  0  0  0  0
   25.6035  -16.0606  -14.7820 C   0  0  0  0  0  0  0  0  0  0  0  0
   24.3083  -17.6895  -16.0384 C   0  0  2  0  0  0  0  0  0  0  0  0
   23.1749  -16.7364  -16.1233 N   0  0  0  0  0  0  0  0  0  0  0  0
   24.0706  -18.5065  -14.8337 C   0  0  0  0  0  0  0  0  0  0  0  0
   23.3956  -17.9586  -13.9101 O   0  0  0  0  0  0  0  0  0  0  0  0
   18.5344  -23.9349  -13.4408 N   0  0  0  0  0  0  0  0  0  0  0  0
   19.7600  -23.2491  -13.6311 C   0  0  0  0  0  0  0  0  0  0  0  0
   19.8788  -21.9850  -13.2610 N   0  0  0  0  0  0  0  0  0  0  0  0
   20.9056  -23.8317  -14.2085 N   0  0  0  0  0  0  0  0  0  0  0  0
   22.2282  -23.5560  -13.7906 C   0  0  0  0  0  0  0  0  0  0  0  0
   22.6098  -22.0946  -13.8073 C   0  0  0  0  0  0  0  0  0  0  0  0
   24.0532  -21.9510  -13.3801 C   0  0  0  0  0  0  0  0  0  0  0  0
   24.5516  -20.5287  -13.3756 C   0  0  2  0  0  0  0  0  0  0  0  0
   24.5017  -19.8152  -14.5943 N   0  0  0  0  0  0  0  0  0  0  0  0
   25.8715  -20.4647  -12.7500 C   0  0  0  0  0  0  0  0  0  0  0  0
   26.8584  -21.1569  -13.1771 O   0  0  0  0  0  0  0  0  0  0  0  0
   20.7503  -21.5193  -13.5885 C   0  0  0  0  0  0  0  0  0  0  0  0
   27.6067  -19.8559   -5.2295 S   0  0  0  0  0  0  0  0  0  0  0  0
   26.5651  -20.4779   -6.5336 C   0  0  0  0  0  0  0  0  0  0  0  0
   27.2756  -20.4433   -8.1542 C   0  0  0  0  0  0  0  0  0  0  0  0
   26.3718  -20.0055   -9.2514 C   0  0  1  0  0  0  0  0  0  0  0  0
   27.0043  -19.9404  -10.5867 N   0  0  0  0  0  0  0  0  0  0  0  0
   26.0297  -19.5972  -11.6335 C   0  0  0  0  0  0  0  0  0  0  0  0
   27.6135  -21.2229  -11.0367 O   0  0  0  0  0  0  0  0  0  0  0  0
   28.8725  -21.3085  -11.0314 O   0  0  0  0  0  0  0  0  0  0  0  0
  2  3  1  1
  2  1  1  0
  4  2  1  0
  4  5  1  1
  6  4  1  0
  6  7  2  0
  9  8  1  0
 10  9  2  0
 11  9  1  0
 12 11  1  0
 13 14  1  0
 13 12  1  0
 15 16  1  0
 15 14  1  6
 16  6  1  0
 17 15  1  0
 18 17  2  0
 19 20  1  0
 20 21  1  0
 23 22  1  1
 22 21  1  0
 23 24  1  0
 24 17  1  0
 25 23  1  0
 25 27  1  0
 26 25  2  0
M  END
$$$$
