VRM.pdb
     RDKit          3D

 27 26  0  0  1  0  0  0  0  0999 V2000
   24.6967  -20.3791   -8.7570 C   0  0  0  0  0  0  0  0  0  0  0  0
   25.5138  -20.3724  -10.0195 C   0  0  1  0  0  0  0  0  0  0  0  0
   26.0473  -21.7918  -10.2199 C   0  0  0  0  0  0  0  0  0  0  0  0
   24.6811  -20.0486  -11.2220 C   0  0  2  0  0  0  0  0  0  0  0  0
   23.5158  -20.9657  -11.2551 N   0  0  0  0  0  0  0  0  0  0  0  0
   25.3589  -20.1959  -12.5235 C   0  0  0  0  0  0  0  0  0  0  0  0
   26.3538  -19.4355  -12.7256 O   0  0  0  0  0  0  0  0  0  0  0  0
   28.5586  -24.8620  -17.1519 N   0  0  0  0  0  0  0  0  0  0  0  0
   27.4075  -25.6101  -16.7996 C   0  0  0  0  0  0  0  0  0  0  0  0
   27.5346  -26.7957  -16.2276 N   0  0  0  0  0  0  0  0  0  0  0  0
   26.0869  -25.1724  -17.0221 N   0  0  0  0  0  0  0  0  0  0  0  0
   25.7539  -23.9108  -17.5674 C   0  0  0  0  0  0  0  0  0  0  0  0
   26.2541  -22.7239  -16.7783 C   0  0  0  0  0  0  0  0  0  0  0  0
   25.3569  -22.5072  -15.5805 C   0  0  0  0  0  0  0  0  0  0  0  0
   25.6455  -21.2377  -14.8211 C   0  0  2  0  0  0  0  0  0  0  0  0
   25.0321  -21.0781  -13.5582 N   0  0  0  0  0  0  0  0  0  0  0  0
   25.4371  -20.0794  -15.6885 C   0  0  0  0  0  0  0  0  0  0  0  0
   24.2748  -19.5869  -15.8940 O   0  0  0  0  0  0  0  0  0  0  0  0
   26.6350  -27.2399  -15.9503 C   0  0  0  0  0  0  0  0  0  0  0  0
   26.6034  -13.5642  -15.5842 S   0  0  0  0  0  0  0  0  0  0  0  0
   27.7440  -14.4459  -16.6303 C   0  0  0  0  0  0  0  0  0  0  0  0
   27.1031  -15.9131  -17.3846 C   0  0  0  0  0  0  0  0  0  0  0  0
   27.0456  -17.1191  -16.5161 C   0  0  1  0  0  0  0  0  0  0  0  0
   26.4246  -18.3057  -17.1434 N   0  0  0  0  0  0  0  0  0  0  0  0
   26.5821  -19.5066  -16.3088 C   0  0  0  0  0  0  0  0  0  0  0  0
   27.0107  -18.6763  -18.4616 O   0  0  0  0  0  0  0  0  0  0  0  0
   28.0239  -19.4285  -18.4630 O   0  0  0  0  0  0  0  0  0  0  0  0
  2  3  1  6
  2  1  1  0
  4  2  1  0
  4  5  1  6
  6  4  1  0
  6  7  2  0
  9  8  1  0
 10  9  2  0
 11  9  1  0
 12 11  1  0
 13 14  1  0
 13 12  1  0
 15 16  1  0
 15 14  1  6
 16  6  1  0
 17 15  1  0
 18 17  2  0
 19 20  1  0
 20 21  1  0
 23 22  1  1
 22 21  1  0
 23 24  1  0
 24 17  1  0
 25 23  1  0
 25 27  1  0
 26 25  2  0
M  END
$$$$
