VRM.pdb
     RDKit          3D

 27 26  0  0  1  0  0  0  0  0999 V2000
   22.2538  -15.8194  -21.1271 C   0  0  0  0  0  0  0  0  0  0  0  0
   22.0498  -14.3427  -20.9279 C   0  0  1  0  0  0  0  0  0  0  0  0
   20.5561  -14.0651  -21.1053 C   0  0  0  0  0  0  0  0  0  0  0  0
   22.4088  -13.9117  -19.5388 C   0  0  2  0  0  0  0  0  0  0  0  0
   21.9050  -14.9257  -18.5806 N   0  0  0  0  0  0  0  0  0  0  0  0
   21.8430  -12.6198  -19.1074 C   0  0  0  0  0  0  0  0  0  0  0  0
   22.3322  -11.5845  -19.6529 O   0  0  0  0  0  0  0  0  0  0  0  0
   17.5160   -7.7955  -14.4086 N   0  0  0  0  0  0  0  0  0  0  0  0
   16.6128   -7.5472  -15.4721 C   0  0  0  0  0  0  0  0  0  0  0  0
   15.9464   -6.4061  -15.5255 N   0  0  0  0  0  0  0  0  0  0  0  0
   16.3583   -8.4581  -16.5165 N   0  0  0  0  0  0  0  0  0  0  0  0
   16.9670   -9.7302  -16.6212 C   0  0  0  0  0  0  0  0  0  0  0  0
   18.4510   -9.7050  -16.9016 C   0  0  0  0  0  0  0  0  0  0  0  0
   18.9258  -11.1087  -17.2026 C   0  0  0  0  0  0  0  0  0  0  0  0
   20.3754  -11.1912  -17.6069 C   0  0  2  0  0  0  0  0  0  0  0  0
   20.8288  -12.4059  -18.1686 N   0  0  0  0  0  0  0  0  0  0  0  0
   21.2262  -10.7374  -16.5080 C   0  0  0  0  0  0  0  0  0  0  0  0
   21.6580  -11.5387  -15.6096 O   0  0  0  0  0  0  0  0  0  0  0  0
   15.2763   -6.3342  -16.3189 C   0  0  0  0  0  0  0  0  0  0  0  0
   26.9533  -11.5486  -15.2809 S   0  0  0  0  0  0  0  0  0  0  0  0
   26.6962   -9.8522  -15.7591 C   0  0  0  0  0  0  0  0  0  0  0  0
   25.1533   -9.1470  -15.2547 C   0  0  0  0  0  0  0  0  0  0  0  0
   23.9661   -9.5339  -16.0628 C   0  0  2  0  0  0  0  0  0  0  0  0
   22.6936   -8.9172  -15.6296 N   0  0  0  0  0  0  0  0  0  0  0  0
   21.5651   -9.3563  -16.4645 C   0  0  0  0  0  0  0  0  0  0  0  0
   22.6762   -7.4303  -15.7140 O   0  0  0  0  0  0  0  0  0  0  0  0
   22.2970   -6.9082  -16.7984 O   0  0  0  0  0  0  0  0  0  0  0  0
  2  3  1  1
  2  1  1  0
  4  2  1  0
  4  5  1  1
  6  4  1  0
  6  7  2  0
  9  8  1  0
 10  9  2  0
 11  9  1  0
 12 11  1  0
 13 14  1  0
 13 12  1  0
 15 16  1  0
 15 14  1  1
 16  6  1  0
 17 15  1  0
 18 17  2  0
 19 20  1  0
 20 21  1  0
 23 22  1  1
 22 21  1  0
 23 24  1  0
 24 17  1  0
 25 23  1  0
 25 27  1  0
 26 25  2  0
M  END
$$$$
