VRM.pdb
     RDKit          3D

 27 26  0  0  1  0  0  0  0  0999 V2000
   27.8136  -21.5700  -13.4179 C   0  0  0  0  0  0  0  0  0  0  0  0
   26.5021  -21.3744  -14.1276 C   0  0  1  0  0  0  0  0  0  0  0  0
   25.8211  -22.7420  -14.2031 C   0  0  0  0  0  0  0  0  0  0  0  0
   25.5819  -20.4737  -13.3621 C   0  0  2  0  0  0  0  0  0  0  0  0
   25.3897  -21.0338  -12.0022 N   0  0  0  0  0  0  0  0  0  0  0  0
   24.2326  -20.3081  -13.9342 C   0  0  0  0  0  0  0  0  0  0  0  0
   24.1767  -19.8200  -15.1037 O   0  0  0  0  0  0  0  0  0  0  0  0
   19.2892  -25.8754  -10.8819 N   0  0  0  0  0  0  0  0  0  0  0  0
   19.3613  -24.6308  -10.2078 C   0  0  0  0  0  0  0  0  0  0  0  0
   19.2011  -24.5750   -8.8962 N   0  0  0  0  0  0  0  0  0  0  0  0
   19.5977  -23.4003  -10.8520 N   0  0  0  0  0  0  0  0  0  0  0  0
   19.6046  -23.2320  -12.2560 C   0  0  0  0  0  0  0  0  0  0  0  0
   20.8526  -22.5896  -12.8143 C   0  0  0  0  0  0  0  0  0  0  0  0
   20.5740  -21.1334  -13.1114 C   0  0  0  0  0  0  0  0  0  0  0  0
   21.6988  -20.4281  -13.8248 C   0  0  2  0  0  0  0  0  0  0  0  0
   23.0096  -20.6290  -13.3367 N   0  0  0  0  0  0  0  0  0  0  0  0
   21.3778  -19.0106  -13.9832 C   0  0  0  0  0  0  0  0  0  0  0  0
   21.7735  -18.1284  -13.1461 O   0  0  0  0  0  0  0  0  0  0  0  0
   19.2392  -23.6143   -8.4972 C   0  0  0  0  0  0  0  0  0  0  0  0
   24.4261  -14.2528  -18.5402 S   0  0  0  0  0  0  0  0  0  0  0  0
   24.1205  -15.7541  -17.6317 C   0  0  0  0  0  0  0  0  0  0  0  0
   22.4858  -15.9243  -16.9750 C   0  0  0  0  0  0  0  0  0  0  0  0
   22.2131  -17.1804  -16.2265 C   0  0  1  0  0  0  0  0  0  0  0  0
   20.8244  -17.3217  -15.7379 N   0  0  0  0  0  0  0  0  0  0  0  0
   20.5992  -18.6339  -15.1127 C   0  0  0  0  0  0  0  0  0  0  0  0
   19.7891  -17.2232  -16.8042 O   0  0  0  0  0  0  0  0  0  0  0  0
   19.6028  -16.0957  -17.3392 O   0  0  0  0  0  0  0  0  0  0  0  0
  2  3  1  1
  2  1  1  0
  4  2  1  0
  4  5  1  1
  6  4  1  0
  6  7  2  0
  9  8  1  0
 10  9  2  0
 11  9  1  0
 12 11  1  0
 13 14  1  0
 13 12  1  0
 15 16  1  0
 15 14  1  1
 16  6  1  0
 17 15  1  0
 18 17  2  0
 19 20  1  0
 20 21  1  0
 23 22  1  1
 22 21  1  0
 23 24  1  0
 24 17  1  0
 25 23  1  0
 25 27  1  0
 26 25  2  0
M  END
$$$$
