VRM.pdb
     RDKit          3D

 27 26  0  0  1  0  0  0  0  0999 V2000
   28.5973  -18.8745  -16.9472 C   0  0  0  0  0  0  0  0  0  0  0  0
   27.6939  -18.6220  -15.7716 C   0  0  1  0  0  0  0  0  0  0  0  0
   26.2974  -18.3391  -16.3277 C   0  0  0  0  0  0  0  0  0  0  0  0
   27.5736  -19.8277  -14.8907 C   0  0  2  0  0  0  0  0  0  0  0  0
   27.0410  -20.9541  -15.6954 N   0  0  0  0  0  0  0  0  0  0  0  0
   26.6694  -19.6831  -13.7346 C   0  0  0  0  0  0  0  0  0  0  0  0
   26.4230  -18.4960  -13.3619 O   0  0  0  0  0  0  0  0  0  0  0  0
   19.9626  -20.8215  -14.7547 N   0  0  0  0  0  0  0  0  0  0  0  0
   19.6188  -19.9299  -13.7080 C   0  0  0  0  0  0  0  0  0  0  0  0
   18.6438  -19.0523  -13.8758 N   0  0  0  0  0  0  0  0  0  0  0  0
   20.2617  -19.9036  -12.4546 N   0  0  0  0  0  0  0  0  0  0  0  0
   21.2997  -20.7880  -12.0803 C   0  0  0  0  0  0  0  0  0  0  0  0
   22.6444  -20.1356  -11.8616 C   0  0  0  0  0  0  0  0  0  0  0  0
   23.7386  -21.1336  -12.1665 C   0  0  0  0  0  0  0  0  0  0  0  0
   25.1311  -20.6045  -11.9370 C   0  0  2  0  0  0  0  0  0  0  0  0
   26.0517  -20.7034  -13.0044 N   0  0  0  0  0  0  0  0  0  0  0  0
   25.6698  -21.1430  -10.6891 C   0  0  0  0  0  0  0  0  0  0  0  0
   25.9601  -22.3813  -10.5547 O   0  0  0  0  0  0  0  0  0  0  0  0
   18.4083  -18.5006  -13.0250 C   0  0  0  0  0  0  0  0  0  0  0  0
   27.8545  -17.6372   -4.6325 S   0  0  0  0  0  0  0  0  0  0  0  0
   28.6788  -19.0088   -5.4148 C   0  0  0  0  0  0  0  0  0  0  0  0
   27.6200  -20.1517   -6.2545 C   0  0  0  0  0  0  0  0  0  0  0  0
   27.2405  -19.7856   -7.6453 C   0  0  1  0  0  0  0  0  0  0  0  0
   26.3395  -20.7479   -8.3157 N   0  0  0  0  0  0  0  0  0  0  0  0
   25.8644  -20.2362   -9.6102 C   0  0  0  0  0  0  0  0  0  0  0  0
   25.1009  -21.0599   -7.5496 O   0  0  0  0  0  0  0  0  0  0  0  0
   25.1297  -22.0464   -6.7633 O   0  0  0  0  0  0  0  0  0  0  0  0
  2  3  1  6
  2  1  1  0
  4  2  1  0
  4  5  1  6
  6  4  1  0
  6  7  2  0
  9  8  1  0
 10  9  2  0
 11  9  1  0
 12 11  1  0
 13 14  1  0
 13 12  1  0
 15 16  1  0
 15 14  1  6
 16  6  1  0
 17 15  1  0
 18 17  2  0
 19 20  1  0
 20 21  1  0
 23 22  1  6
 22 21  1  0
 23 24  1  0
 24 17  1  0
 25 23  1  0
 25 27  1  0
 26 25  2  0
M  END
$$$$
