VRM.pdb
     RDKit          3D

 27 26  0  0  1  0  0  0  0  0999 V2000
   28.4405  -18.0906  -17.2948 C   0  0  0  0  0  0  0  0  0  0  0  0
   27.3848  -18.6189  -16.3628 C   0  0  1  0  0  0  0  0  0  0  0  0
   26.0632  -18.6221  -17.1328 C   0  0  0  0  0  0  0  0  0  0  0  0
   27.6548  -20.0360  -15.9592 C   0  0  2  0  0  0  0  0  0  0  0  0
   27.6746  -20.8824  -17.1771 N   0  0  0  0  0  0  0  0  0  0  0  0
   26.6597  -20.6400  -15.0535 C   0  0  0  0  0  0  0  0  0  0  0  0
   25.7909  -21.3883  -15.5957 O   0  0  0  0  0  0  0  0  0  0  0  0
   21.7508  -20.1724   -8.8360 N   0  0  0  0  0  0  0  0  0  0  0  0
   22.5317  -21.0450   -8.0376 C   0  0  0  0  0  0  0  0  0  0  0  0
   21.9524  -21.8116   -7.1289 N   0  0  0  0  0  0  0  0  0  0  0  0
   23.9321  -21.1622   -8.1395 N   0  0  0  0  0  0  0  0  0  0  0  0
   24.7208  -20.4348   -9.0607 C   0  0  0  0  0  0  0  0  0  0  0  0
   24.4080  -20.6988  -10.5147 C   0  0  0  0  0  0  0  0  0  0  0  0
   25.6464  -20.4475  -11.3451 C   0  0  0  0  0  0  0  0  0  0  0  0
   25.4462  -20.6622  -12.8234 C   0  0  2  0  0  0  0  0  0  0  0  0
   26.5658  -20.4840  -13.6669 N   0  0  0  0  0  0  0  0  0  0  0  0
   24.2806  -19.9090  -13.2834 C   0  0  0  0  0  0  0  0  0  0  0  0
   24.2676  -18.6305  -13.3111 O   0  0  0  0  0  0  0  0  0  0  0  0
   22.6075  -22.4220   -6.5979 C   0  0  0  0  0  0  0  0  0  0  0  0
   22.2883  -19.9848  -18.9335 S   0  0  0  0  0  0  0  0  0  0  0  0
   20.8556  -19.2568  -18.1655 C   0  0  0  0  0  0  0  0  0  0  0  0
   20.8313  -19.3135  -16.3967 C   0  0  0  0  0  0  0  0  0  0  0  0
   22.0242  -19.9217  -15.7491 C   0  0  1  0  0  0  0  0  0  0  0  0
   21.9867  -19.9370  -14.2708 N   0  0  0  0  0  0  0  0  0  0  0  0
   23.1420  -20.6504  -13.7052 C   0  0  0  0  0  0  0  0  0  0  0  0
   20.7954  -20.6229  -13.6975 O   0  0  0  0  0  0  0  0  0  0  0  0
   20.9241  -21.8283  -13.3469 O   0  0  0  0  0  0  0  0  0  0  0  0
  2  3  1  6
  2  1  1  0
  4  2  1  0
  4  5  1  6
  6  4  1  0
  6  7  2  0
  9  8  1  0
 10  9  2  0
 11  9  1  0
 12 11  1  0
 13 14  1  0
 13 12  1  0
 15 16  1  0
 15 14  1  1
 16  6  1  0
 17 15  1  0
 18 17  2  0
 19 20  1  0
 20 21  1  0
 23 22  1  1
 22 21  1  0
 23 24  1  0
 24 17  1  0
 25 23  1  0
 25 27  1  0
 26 25  2  0
M  END
$$$$
