VRM.pdb
     RDKit          3D

 27 26  0  0  1  0  0  0  0  0999 V2000
   27.6133  -22.1079  -16.4683 C   0  0  0  0  0  0  0  0  0  0  0  0
   28.4801  -20.8996  -16.6929 C   0  0  1  0  0  0  0  0  0  0  0  0
   29.6571  -21.3435  -17.5632 C   0  0  0  0  0  0  0  0  0  0  0  0
   27.7592  -19.8285  -17.4526 C   0  0  2  0  0  0  0  0  0  0  0  0
   28.6790  -18.6812  -17.6467 N   0  0  0  0  0  0  0  0  0  0  0  0
   26.5546  -19.2850  -16.7976 C   0  0  0  0  0  0  0  0  0  0  0  0
   26.7541  -18.5151  -15.8095 O   0  0  0  0  0  0  0  0  0  0  0  0
   18.9041  -19.4360  -15.3322 N   0  0  0  0  0  0  0  0  0  0  0  0
   18.5991  -18.1393  -15.8160 C   0  0  0  0  0  0  0  0  0  0  0  0
   17.5544  -17.4815  -15.3416 N   0  0  0  0  0  0  0  0  0  0  0  0
   19.3506  -17.4715  -16.8031 N   0  0  0  0  0  0  0  0  0  0  0  0
   20.4997  -18.0143  -17.4233 C   0  0  0  0  0  0  0  0  0  0  0  0
   21.6573  -18.2869  -16.4921 C   0  0  0  0  0  0  0  0  0  0  0  0
   22.8399  -18.7775  -17.2965 C   0  0  0  0  0  0  0  0  0  0  0  0
   24.0425  -19.1349  -16.4613 C   0  0  2  0  0  0  0  0  0  0  0  0
   25.2196  -19.5194  -17.1419 N   0  0  0  0  0  0  0  0  0  0  0  0
   23.6630  -20.0944  -15.4256 C   0  0  0  0  0  0  0  0  0  0  0  0
   23.4659  -21.3308  -15.6864 O   0  0  0  0  0  0  0  0  0  0  0  0
   17.4519  -16.5124  -15.7077 C   0  0  0  0  0  0  0  0  0  0  0  0
   25.8517  -19.5108   -9.0114 S   0  0  0  0  0  0  0  0  0  0  0  0
   25.3069  -21.1458   -9.4614 C   0  0  0  0  0  0  0  0  0  0  0  0
   24.0525  -21.2114  -10.7082 C   0  0  0  0  0  0  0  0  0  0  0  0
   24.3070  -20.4024  -11.9301 C   0  0  1  0  0  0  0  0  0  0  0  0
   23.2972  -20.5596  -12.9991 N   0  0  0  0  0  0  0  0  0  0  0  0
   23.5156  -19.6061  -14.0975 C   0  0  0  0  0  0  0  0  0  0  0  0
   21.8960  -20.3178  -12.5555 O   0  0  0  0  0  0  0  0  0  0  0  0
   21.4697  -19.1304  -12.5781 O   0  0  0  0  0  0  0  0  0  0  0  0
  2  3  1  6
  2  1  1  0
  4  2  1  0
  4  5  1  1
  6  4  1  0
  6  7  2  0
  9  8  1  0
 10  9  2  0
 11  9  1  0
 12 11  1  0
 13 14  1  0
 13 12  1  0
 15 16  1  0
 15 14  1  6
 16  6  1  0
 17 15  1  0
 18 17  2  0
 19 20  1  0
 20 21  1  0
 23 22  1  6
 22 21  1  0
 23 24  1  0
 24 17  1  0
 25 23  1  0
 25 27  1  0
 26 25  2  0
M  END
$$$$
