VRM.pdb
     RDKit          3D

 27 26  0  0  1  0  0  0  0  0999 V2000
   27.1757  -15.2566  -15.8174 C   0  0  0  0  0  0  0  0  0  0  0  0
   27.1280  -16.5161  -14.9969 C   0  0  1  0  0  0  0  0  0  0  0  0
   26.3975  -16.1801  -13.6957 C   0  0  0  0  0  0  0  0  0  0  0  0
   26.3362  -17.5933  -15.6727 C   0  0  2  0  0  0  0  0  0  0  0  0
   25.0555  -17.0156  -16.1484 N   0  0  0  0  0  0  0  0  0  0  0  0
   25.9789  -18.7467  -14.8258 C   0  0  0  0  0  0  0  0  0  0  0  0
   24.8937  -18.6492  -14.1763 O   0  0  0  0  0  0  0  0  0  0  0  0
   25.5092  -25.8586  -16.2663 N   0  0  0  0  0  0  0  0  0  0  0  0
   24.5200  -25.5863  -15.2885 C   0  0  0  0  0  0  0  0  0  0  0  0
   23.6884  -26.5388  -14.9010 N   0  0  0  0  0  0  0  0  0  0  0  0
   24.3458  -24.3299  -14.6751 N   0  0  0  0  0  0  0  0  0  0  0  0
   24.7325  -23.1032  -15.2628 C   0  0  0  0  0  0  0  0  0  0  0  0
   26.2076  -22.9779  -15.5627 C   0  0  0  0  0  0  0  0  0  0  0  0
   26.9152  -22.4042  -14.3557 C   0  0  0  0  0  0  0  0  0  0  0  0
   26.3656  -21.0779  -13.8970 C   0  0  2  0  0  0  0  0  0  0  0  0
   26.6974  -19.9347  -14.6586 N   0  0  0  0  0  0  0  0  0  0  0  0
   26.6359  -20.8918  -12.4723 C   0  0  0  0  0  0  0  0  0  0  0  0
   27.8151  -20.6711  -12.0293 O   0  0  0  0  0  0  0  0  0  0  0  0
   23.0154  -26.2497  -14.1613 C   0  0  0  0  0  0  0  0  0  0  0  0
   28.9862  -17.9982   -8.5434 S   0  0  0  0  0  0  0  0  0  0  0  0
   27.6214  -18.4875   -7.5088 C   0  0  0  0  0  0  0  0  0  0  0  0
   26.6195  -19.8006   -8.1448 C   0  0  0  0  0  0  0  0  0  0  0  0
   26.5358  -19.8955   -9.6267 C   0  0  1  0  0  0  0  0  0  0  0  0
   25.7823  -21.0637  -10.1315 N   0  0  0  0  0  0  0  0  0  0  0  0
   25.5322  -20.9655  -11.5776 C   0  0  0  0  0  0  0  0  0  0  0  0
   24.4342  -21.2308   -9.5205 O   0  0  0  0  0  0  0  0  0  0  0  0
   23.4280  -21.0047  -10.2477 O   0  0  0  0  0  0  0  0  0  0  0  0
  2  3  1  1
  2  1  1  0
  4  2  1  0
  4  5  1  1
  6  4  1  0
  6  7  2  0
  9  8  1  0
 10  9  2  0
 11  9  1  0
 12 11  1  0
 13 14  1  0
 13 12  1  0
 15 16  1  0
 15 14  1  6
 16  6  1  0
 17 15  1  0
 18 17  2  0
 19 20  1  0
 20 21  1  0
 23 22  1  6
 22 21  1  0
 23 24  1  0
 24 17  1  0
 25 23  1  0
 25 27  1  0
 26 25  2  0
M  END
$$$$
