VRM.pdb
     RDKit          3D

 27 26  0  0  1  0  0  0  0  0999 V2000
   26.7272  -14.6990  -14.7541 C   0  0  0  0  0  0  0  0  0  0  0  0
   26.4266  -15.6670  -15.8651 C   0  0  1  0  0  0  0  0  0  0  0  0
   27.0048  -17.0217  -15.4526 C   0  0  0  0  0  0  0  0  0  0  0  0
   24.9532  -15.8633  -16.0514 C   0  0  2  0  0  0  0  0  0  0  0  0
   24.7380  -16.8579  -17.1305 N   0  0  0  0  0  0  0  0  0  0  0  0
   24.1956  -14.6599  -16.4427 C   0  0  0  0  0  0  0  0  0  0  0  0
   24.4973  -14.1486  -17.5636 O   0  0  0  0  0  0  0  0  0  0  0  0
   17.2967  -10.2593  -16.4228 N   0  0  0  0  0  0  0  0  0  0  0  0
   18.1742   -9.6580  -17.3593 C   0  0  0  0  0  0  0  0  0  0  0  0
   18.0268   -8.3850  -17.6861 N   0  0  0  0  0  0  0  0  0  0  0  0
   19.2314  -10.3384  -17.9953 N   0  0  0  0  0  0  0  0  0  0  0  0
   19.7830  -11.5540  -17.5285 C   0  0  0  0  0  0  0  0  0  0  0  0
   20.3243  -11.5079  -16.1191 C   0  0  0  0  0  0  0  0  0  0  0  0
   20.9900  -12.8269  -15.7970 C   0  0  0  0  0  0  0  0  0  0  0  0
   22.4786  -12.8350  -16.0326 C   0  0  2  0  0  0  0  0  0  0  0  0
   23.1827  -14.0199  -15.7214 N   0  0  0  0  0  0  0  0  0  0  0  0
   23.0864  -11.6532  -15.4232 C   0  0  0  0  0  0  0  0  0  0  0  0
   23.2265  -11.5395  -14.1571 O   0  0  0  0  0  0  0  0  0  0  0  0
   18.7407   -8.0251  -18.3528 C   0  0  0  0  0  0  0  0  0  0  0  0
   29.2621  -10.8739  -16.8714 S   0  0  0  0  0  0  0  0  0  0  0  0
   28.0098   -9.6106  -16.9626 C   0  0  0  0  0  0  0  0  0  0  0  0
   26.4721  -10.0086  -16.1820 C   0  0  0  0  0  0  0  0  0  0  0  0
   25.3732   -9.0241  -16.3701 C   0  0  2  0  0  0  0  0  0  0  0  0
   24.0965   -9.3881  -15.7185 N   0  0  0  0  0  0  0  0  0  0  0  0
   23.5240  -10.6154  -16.2925 C   0  0  0  0  0  0  0  0  0  0  0  0
   23.0249   -8.3634  -15.8602 O   0  0  0  0  0  0  0  0  0  0  0  0
   22.1565   -8.5424  -16.7581 O   0  0  0  0  0  0  0  0  0  0  0  0
  2  3  1  1
  2  1  1  0
  4  2  1  0
  4  5  1  6
  6  4  1  0
  6  7  2  0
  9  8  1  0
 10  9  2  0
 11  9  1  0
 12 11  1  0
 13 14  1  0
 13 12  1  0
 15 16  1  0
 15 14  1  1
 16  6  1  0
 17 15  1  0
 18 17  2  0
 19 20  1  0
 20 21  1  0
 23 22  1  1
 22 21  1  0
 23 24  1  0
 24 17  1  0
 25 23  1  0
 25 27  1  0
 26 25  2  0
M  END
$$$$
