VRM.pdb
     RDKit          3D

 27 26  0  0  1  0  0  0  0  0999 V2000
   12.3633  -12.4820  -13.1017 C   0  0  0  0  0  0  0  0  0  0  0  0
   13.1535  -11.2447  -12.7755 C   0  0  1  0  0  0  0  0  0  0  0  0
   13.0441  -11.0238  -11.2659 C   0  0  0  0  0  0  0  0  0  0  0  0
   14.6095  -11.4143  -13.0843 C   0  0  2  0  0  0  0  0  0  0  0  0
   15.0701  -12.7037  -12.5138 N   0  0  0  0  0  0  0  0  0  0  0  0
   15.5017  -10.3773  -12.5331 C   0  0  0  0  0  0  0  0  0  0  0  0
   15.9054  -10.5604  -11.3447 O   0  0  0  0  0  0  0  0  0  0  0  0
   21.9798  -10.0718  -15.2744 N   0  0  0  0  0  0  0  0  0  0  0  0
   21.9354   -9.3768  -14.0400 C   0  0  0  0  0  0  0  0  0  0  0  0
   22.9302   -9.4919  -13.1762 N   0  0  0  0  0  0  0  0  0  0  0  0
   20.8712   -8.5419  -13.6457 N   0  0  0  0  0  0  0  0  0  0  0  0
   19.5383   -8.9849  -13.4818 C   0  0  0  0  0  0  0  0  0  0  0  0
   18.5321   -8.3291  -14.3978 C   0  0  0  0  0  0  0  0  0  0  0  0
   17.6371   -7.4196  -13.5864 C   0  0  0  0  0  0  0  0  0  0  0  0
   16.7154   -8.1499  -12.6437 C   0  0  2  0  0  0  0  0  0  0  0  0
   15.9547   -9.2179  -13.1705 N   0  0  0  0  0  0  0  0  0  0  0  0
   15.8906   -7.1913  -11.9102 C   0  0  0  0  0  0  0  0  0  0  0  0
   14.7685   -6.7768  -12.3627 O   0  0  0  0  0  0  0  0  0  0  0  0
   22.7564   -9.0398  -12.2548 C   0  0  0  0  0  0  0  0  0  0  0  0
   11.3319   -5.9533   -6.4130 S   0  0  0  0  0  0  0  0  0  0  0  0
   12.9893   -6.4845   -6.7913 C   0  0  0  0  0  0  0  0  0  0  0  0
   13.6545   -5.8705   -8.3122 C   0  0  0  0  0  0  0  0  0  0  0  0
   15.0154   -6.3532   -8.6687 C   0  0  2  0  0  0  0  0  0  0  0  0
   15.5859   -5.7505   -9.8929 N   0  0  0  0  0  0  0  0  0  0  0  0
   16.3796   -6.7238  -10.6586 C   0  0  0  0  0  0  0  0  0  0  0  0
   16.5153   -4.6149   -9.6382 O   0  0  0  0  0  0  0  0  0  0  0  0
   17.7436   -4.8003   -9.8601 O   0  0  0  0  0  0  0  0  0  0  0  0
  2  3  1  1
  2  1  1  0
  4  2  1  0
  4  5  1  1
  6  4  1  0
  6  7  2  0
  9  8  1  0
 10  9  2  0
 11  9  1  0
 12 11  1  0
 13 14  1  0
 13 12  1  0
 15 16  1  0
 15 14  1  6
 16  6  1  0
 17 15  1  0
 18 17  2  0
 19 20  1  0
 20 21  1  0
 23 22  1  6
 22 21  1  0
 23 24  1  0
 24 17  1  0
 25 23  1  0
 25 27  1  0
 26 25  2  0
M  END
$$$$
