VRM.pdb
     RDKit          3D

 27 26  0  0  1  0  0  0  0  0999 V2000
   28.9641  -19.0805  -16.7972 C   0  0  0  0  0  0  0  0  0  0  0  0
   28.1215  -18.7425  -15.5982 C   0  0  1  0  0  0  0  0  0  0  0  0
   26.6983  -18.4957  -16.1013 C   0  0  0  0  0  0  0  0  0  0  0  0
   28.0470  -19.8822  -14.6288 C   0  0  2  0  0  0  0  0  0  0  0  0
   27.5755  -21.0900  -15.3492 N   0  0  0  0  0  0  0  0  0  0  0  0
   27.1244  -19.6926  -13.4939 C   0  0  0  0  0  0  0  0  0  0  0  0
   27.4077  -18.7501  -12.6937 O   0  0  0  0  0  0  0  0  0  0  0  0
   21.5990  -20.3809  -16.4282 N   0  0  0  0  0  0  0  0  0  0  0  0
   21.2823  -21.5326  -15.6653 C   0  0  0  0  0  0  0  0  0  0  0  0
   21.0074  -22.6759  -16.2705 N   0  0  0  0  0  0  0  0  0  0  0  0
   21.2336  -21.5541  -14.2573 N   0  0  0  0  0  0  0  0  0  0  0  0
   21.5018  -20.4316  -13.4402 C   0  0  0  0  0  0  0  0  0  0  0  0
   22.9490  -20.0003  -13.4056 C   0  0  0  0  0  0  0  0  0  0  0  0
   23.6648  -20.7436  -12.3003 C   0  0  0  0  0  0  0  0  0  0  0  0
   25.0952  -20.3130  -12.0996 C   0  0  2  0  0  0  0  0  0  0  0  0
   25.9734  -20.4307  -13.2003 N   0  0  0  0  0  0  0  0  0  0  0  0
   25.6369  -20.9306  -10.8903 C   0  0  0  0  0  0  0  0  0  0  0  0
   26.1076  -22.1197  -10.8889 O   0  0  0  0  0  0  0  0  0  0  0  0
   20.7925  -23.4647  -15.6261 C   0  0  0  0  0  0  0  0  0  0  0  0
   29.5195  -18.7002   -5.9803 S   0  0  0  0  0  0  0  0  0  0  0  0
   28.1140  -19.4479   -5.1816 C   0  0  0  0  0  0  0  0  0  0  0  0
   27.1063  -20.4689   -6.2183 C   0  0  0  0  0  0  0  0  0  0  0  0
   26.7808  -19.9137   -7.5591 C   0  0  1  0  0  0  0  0  0  0  0  0
   25.9698  -20.8033   -8.4182 N   0  0  0  0  0  0  0  0  0  0  0  0
   25.6247  -20.1594   -9.6948 C   0  0  0  0  0  0  0  0  0  0  0  0
   24.6628  -21.2002   -7.8243 O   0  0  0  0  0  0  0  0  0  0  0  0
   23.6158  -20.7048   -8.3249 O   0  0  0  0  0  0  0  0  0  0  0  0
  2  3  1  6
  2  1  1  0
  4  2  1  0
  4  5  1  6
  6  4  1  0
  6  7  2  0
  9  8  1  0
 10  9  2  0
 11  9  1  0
 12 11  1  0
 13 14  1  0
 13 12  1  0
 15 16  1  0
 15 14  1  6
 16  6  1  0
 17 15  1  0
 18 17  2  0
 19 20  1  0
 20 21  1  0
 23 22  1  6
 22 21  1  0
 23 24  1  0
 24 17  1  0
 25 23  1  0
 25 27  1  0
 26 25  2  0
M  END
$$$$
