VRM.pdb
     RDKit          3D

 27 26  0  0  1  0  0  0  0  0999 V2000
   27.9246  -15.8717  -17.0175 C   0  0  0  0  0  0  0  0  0  0  0  0
   26.9423  -16.7847  -16.3369 C   0  0  1  0  0  0  0  0  0  0  0  0
   26.4383  -17.7721  -17.3908 C   0  0  0  0  0  0  0  0  0  0  0  0
   27.5899  -17.5964  -15.2571 C   0  0  2  0  0  0  0  0  0  0  0  0
   28.7559  -18.3101  -15.8323 N   0  0  0  0  0  0  0  0  0  0  0  0
   26.7374  -18.6296  -14.6400 C   0  0  0  0  0  0  0  0  0  0  0  0
   25.6639  -18.2213  -14.1017 O   0  0  0  0  0  0  0  0  0  0  0  0
   23.7529  -26.0509  -13.7838 N   0  0  0  0  0  0  0  0  0  0  0  0
   22.7245  -25.1628  -14.1866 C   0  0  0  0  0  0  0  0  0  0  0  0
   21.6020  -25.6355  -14.7019 N   0  0  0  0  0  0  0  0  0  0  0  0
   22.8094  -23.7605  -14.0783 N   0  0  0  0  0  0  0  0  0  0  0  0
   23.8986  -22.9957  -14.5563 C   0  0  0  0  0  0  0  0  0  0  0  0
   25.2357  -23.3391  -13.9432 C   0  0  0  0  0  0  0  0  0  0  0  0
   26.2912  -22.4067  -14.4937 C   0  0  0  0  0  0  0  0  0  0  0  0
   26.2343  -21.0128  -13.9231 C   0  0  2  0  0  0  0  0  0  0  0  0
   26.9756  -20.0065  -14.5823 N   0  0  0  0  0  0  0  0  0  0  0  0
   26.5061  -21.0502  -12.4871 C   0  0  0  0  0  0  0  0  0  0  0  0
   27.6682  -21.3160  -12.0239 O   0  0  0  0  0  0  0  0  0  0  0  0
   20.9150  -24.9057  -14.9831 C   0  0  0  0  0  0  0  0  0  0  0  0
   29.4623  -19.4067   -7.2224 S   0  0  0  0  0  0  0  0  0  0  0  0
   27.7895  -18.8262   -7.4157 C   0  0  0  0  0  0  0  0  0  0  0  0
   26.6574  -19.9927   -8.1156 C   0  0  0  0  0  0  0  0  0  0  0  0
   26.6029  -20.0352   -9.6013 C   0  0  1  0  0  0  0  0  0  0  0  0
   25.6063  -20.9752  -10.1585 N   0  0  0  0  0  0  0  0  0  0  0  0
   25.4236  -20.7792  -11.6047 C   0  0  0  0  0  0  0  0  0  0  0  0
   24.2422  -20.8335   -9.5777 O   0  0  0  0  0  0  0  0  0  0  0  0
   23.3119  -20.4658  -10.3469 O   0  0  0  0  0  0  0  0  0  0  0  0
  2  3  1  6
  2  1  1  0
  4  2  1  0
  4  5  1  6
  6  4  1  0
  6  7  2  0
  9  8  1  0
 10  9  2  0
 11  9  1  0
 12 11  1  0
 13 14  1  0
 13 12  1  0
 15 16  1  0
 15 14  1  6
 16  6  1  0
 17 15  1  0
 18 17  2  0
 19 20  1  0
 20 21  1  0
 23 22  1  6
 22 21  1  0
 23 24  1  0
 24 17  1  0
 25 23  1  0
 25 27  1  0
 26 25  2  0
M  END
$$$$
