VRM.pdb
     RDKit          3D

 27 26  0  0  1  0  0  0  0  0999 V2000
   28.9375  -25.1620  -18.6707 C   0  0  0  0  0  0  0  0  0  0  0  0
   27.5289  -24.6349  -18.6662 C   0  0  1  0  0  0  0  0  0  0  0  0
   26.5941  -25.8446  -18.6176 C   0  0  0  0  0  0  0  0  0  0  0  0
   27.2427  -23.8167  -17.4444 C   0  0  2  0  0  0  0  0  0  0  0  0
   27.6763  -24.5793  -16.2484 N   0  0  0  0  0  0  0  0  0  0  0  0
   25.8246  -23.4763  -17.2246 C   0  0  0  0  0  0  0  0  0  0  0  0
   25.2811  -22.7457  -18.1076 O   0  0  0  0  0  0  0  0  0  0  0  0
   21.6003  -26.8308  -12.5605 N   0  0  0  0  0  0  0  0  0  0  0  0
   20.2880  -26.3409  -12.7763 C   0  0  0  0  0  0  0  0  0  0  0  0
   19.3778  -26.4353  -11.8216 N   0  0  0  0  0  0  0  0  0  0  0  0
   19.8608  -25.7395  -13.9768 N   0  0  0  0  0  0  0  0  0  0  0  0
   20.7352  -25.3273  -15.0089 C   0  0  0  0  0  0  0  0  0  0  0  0
   21.4678  -24.0332  -14.7440 C   0  0  0  0  0  0  0  0  0  0  0  0
   22.9581  -24.2838  -14.7966 C   0  0  0  0  0  0  0  0  0  0  0  0
   23.6696  -23.5186  -15.8828 C   0  0  2  0  0  0  0  0  0  0  0  0
   25.0111  -23.8680  -16.1567 N   0  0  0  0  0  0  0  0  0  0  0  0
   23.5036  -22.0815  -15.6711 C   0  0  0  0  0  0  0  0  0  0  0  0
   24.1953  -21.4391  -14.8082 O   0  0  0  0  0  0  0  0  0  0  0  0
   18.4312  -26.0976  -12.0926 C   0  0  0  0  0  0  0  0  0  0  0  0
   20.8832  -17.4140  -19.9973 S   0  0  0  0  0  0  0  0  0  0  0  0
   21.9936  -16.7741  -18.7603 C   0  0  0  0  0  0  0  0  0  0  0  0
   22.1126  -17.7337  -17.2779 C   0  0  0  0  0  0  0  0  0  0  0  0
   22.1675  -19.2088  -17.4606 C   0  0  2  0  0  0  0  0  0  0  0  0
   22.2540  -19.9861  -16.2054 N   0  0  0  0  0  0  0  0  0  0  0  0
   22.5344  -21.4066  -16.4642 C   0  0  0  0  0  0  0  0  0  0  0  0
   21.0021  -19.9839  -15.3986 O   0  0  0  0  0  0  0  0  0  0  0  0
   20.3289  -21.0504  -15.3566 O   0  0  0  0  0  0  0  0  0  0  0  0
  2  3  1  1
  2  1  1  0
  4  2  1  0
  4  5  1  1
  6  4  1  0
  6  7  2  0
  9  8  1  0
 10  9  2  0
 11  9  1  0
 12 11  1  0
 13 14  1  0
 13 12  1  0
 15 16  1  0
 15 14  1  1
 16  6  1  0
 17 15  1  0
 18 17  2  0
 19 20  1  0
 20 21  1  0
 23 22  1  1
 22 21  1  0
 23 24  1  0
 24 17  1  0
 25 23  1  0
 25 27  1  0
 26 25  2  0
M  END
$$$$
