VRM.pdb
     RDKit          3D

 27 26  0  0  1  0  0  0  0  0999 V2000
   23.9861  -18.9912  -16.8603 C   0  0  0  0  0  0  0  0  0  0  0  0
   24.3658  -17.7065  -16.1768 C   0  0  1  0  0  0  0  0  0  0  0  0
   23.0851  -17.1123  -15.5882 C   0  0  0  0  0  0  0  0  0  0  0  0
   25.3021  -17.9391  -15.0308 C   0  0  2  0  0  0  0  0  0  0  0  0
   26.6149  -18.3717  -15.5689 N   0  0  0  0  0  0  0  0  0  0  0  0
   24.8869  -18.9793  -14.0712 C   0  0  0  0  0  0  0  0  0  0  0  0
   23.8682  -18.7135  -13.3638 O   0  0  0  0  0  0  0  0  0  0  0  0
   23.6366  -23.9298  -17.1053 N   0  0  0  0  0  0  0  0  0  0  0  0
   24.9037  -24.4624  -16.7596 C   0  0  0  0  0  0  0  0  0  0  0  0
   25.8276  -24.6369  -17.6895 N   0  0  0  0  0  0  0  0  0  0  0  0
   25.2687  -24.8368  -15.4512 N   0  0  0  0  0  0  0  0  0  0  0  0
   24.4324  -24.6792  -14.3219 C   0  0  0  0  0  0  0  0  0  0  0  0
   24.1361  -23.2471  -13.9437 C   0  0  0  0  0  0  0  0  0  0  0  0
   25.3492  -22.6483  -13.2682 C   0  0  0  0  0  0  0  0  0  0  0  0
   25.1817  -21.2018  -12.8795 C   0  0  2  0  0  0  0  0  0  0  0  0
   25.4856  -20.2243  -13.8535 N   0  0  0  0  0  0  0  0  0  0  0  0
   25.8569  -20.9456  -11.6082 C   0  0  0  0  0  0  0  0  0  0  0  0
   27.0790  -20.5729  -11.5528 O   0  0  0  0  0  0  0  0  0  0  0  0
   26.7224  -25.0373  -17.3393 C   0  0  0  0  0  0  0  0  0  0  0  0
   28.8163  -18.2138   -5.5915 S   0  0  0  0  0  0  0  0  0  0  0  0
   27.9954  -18.2867   -7.1706 C   0  0  0  0  0  0  0  0  0  0  0  0
   27.1542  -19.8044   -7.5193 C   0  0  0  0  0  0  0  0  0  0  0  0
   26.5959  -19.9382   -8.8914 C   0  0  1  0  0  0  0  0  0  0  0  0
   25.8028  -21.1652   -9.1209 N   0  0  0  0  0  0  0  0  0  0  0  0
   25.1041  -21.1265  -10.4146 C   0  0  0  0  0  0  0  0  0  0  0  0
   24.7303  -21.3962   -8.1136 O   0  0  0  0  0  0  0  0  0  0  0  0
   23.5401  -21.1574   -8.4580 O   0  0  0  0  0  0  0  0  0  0  0  0
  2  3  1  1
  2  1  1  0
  4  2  1  0
  4  5  1  6
  6  4  1  0
  6  7  2  0
  9  8  1  0
 10  9  2  0
 11  9  1  0
 12 11  1  0
 13 14  1  0
 13 12  1  0
 15 16  1  0
 15 14  1  6
 16  6  1  0
 17 15  1  0
 18 17  2  0
 19 20  1  0
 20 21  1  0
 23 22  1  6
 22 21  1  0
 23 24  1  0
 24 17  1  0
 25 23  1  0
 25 27  1  0
 26 25  2  0
M  END
$$$$
