MCK.pdb
     RDKit          3D

 24 23  0  0  1  0  0  0  0  0999 V2000
   26.5816  -14.6476  -20.0475 C   0  0  0  0  0  0  0  0  0  0  0  0
   24.9362  -14.0075  -19.6210 S   0  0  0  0  0  0  0  0  0  0  0  0
   25.1237  -12.4699  -18.7168 C   0  0  0  0  0  0  0  0  0  0  0  0
   23.8342  -11.7730  -18.4203 C   0  0  0  0  0  0  0  0  0  0  0  0
   23.7797  -11.1787  -17.0438 C   0  0  2  0  0  0  0  0  0  0  0  0
   23.7070  -12.1878  -16.0208 N   0  0  0  0  0  0  0  0  0  0  0  0
   22.6974  -10.1679  -16.8935 C   0  0  0  0  0  0  0  0  0  0  0  0
   21.9237   -9.8576  -17.8308 O   0  0  0  0  0  0  0  0  0  0  0  0
   22.5274   -9.5270  -15.6481 N   0  0  0  0  0  0  0  0  0  0  0  0
   21.4230   -8.6052  -15.4863 C   0  0  1  0  0  0  0  0  0  0  0  0
   21.0906   -8.5877  -13.9880 C   0  0  0  0  0  0  0  0  0  0  0  0
   20.2736  -10.1334  -13.5649 S   0  0  0  0  0  0  0  0  0  0  0  0
   21.8498   -7.2029  -15.8247 C   0  0  0  0  0  0  0  0  0  0  0  0
   22.9085   -6.7938  -15.3403 O   0  0  0  0  0  0  0  0  0  0  0  0
   21.0496   -6.4049  -16.6684 N   0  0  0  0  0  0  0  0  0  0  0  0
   21.3892   -5.0305  -17.0641 C   0  0  1  0  0  0  0  0  0  0  0  0
   21.0940   -4.9073  -18.5017 C   0  0  0  0  0  0  0  0  0  0  0  0
   21.2676   -3.6229  -19.1988 C   0  0  0  0  0  0  0  0  0  0  0  0
   20.9930   -3.4737  -20.6194 C   0  0  0  0  0  0  0  0  0  0  0  0
   21.2305   -2.2386  -21.3691 C   0  0  0  0  0  0  0  0  0  0  0  0
   21.0931   -2.2716  -22.7734 N   0  0  0  0  0  0  0  0  0  0  0  0
   20.5338   -4.1358  -16.2246 C   0  0  0  0  0  0  0  0  0  0  0  0
   19.4387   -4.6627  -15.5860 O   0  0  0  0  0  0  0  0  0  0  0  0
   20.7547   -2.9107  -16.0591 O   0  0  0  0  0  0  0  0  0  0  0  0
  1  2  1  0
  2  3  1  0
  4  3  1  0
  5  4  1  0
  5  6  1  1
  7  8  2  0
  7  5  1  0
  9  7  1  0
 10  9  1  0
 10 11  1  1
 12 11  1  0
 13 15  1  0
 13 10  1  0
 14 13  2  0
 16 15  1  0
 16 22  1  0
 16 17  1  6
 17 18  1  0
 19 18  1  0
 20 19  1  0
 20 21  1  0
 22 23  1  0
 24 22  2  0
M  END
$$$$
