MCK.pdb
     RDKit          3D

 24 23  0  0  1  0  0  0  0  0999 V2000
   19.4503  -14.5806  -23.0411 C   0  0  0  0  0  0  0  0  0  0  0  0
   18.9929  -13.4843  -21.6671 S   0  0  0  0  0  0  0  0  0  0  0  0
   20.1332  -13.7449  -20.3074 C   0  0  0  0  0  0  0  0  0  0  0  0
   19.8473  -12.9097  -19.1002 C   0  0  0  0  0  0  0  0  0  0  0  0
   20.8127  -13.1376  -17.9745 C   0  0  2  0  0  0  0  0  0  0  0  0
   20.8018  -14.5026  -17.5198 N   0  0  0  0  0  0  0  0  0  0  0  0
   20.6216  -12.1838  -16.8478 C   0  0  0  0  0  0  0  0  0  0  0  0
   19.7054  -12.3094  -16.0003 O   0  0  0  0  0  0  0  0  0  0  0  0
   21.5033  -11.0898  -16.7201 N   0  0  0  0  0  0  0  0  0  0  0  0
   21.2629  -10.1228  -15.6699 C   0  0  1  0  0  0  0  0  0  0  0  0
   22.6425   -9.7059  -15.1422 C   0  0  0  0  0  0  0  0  0  0  0  0
   22.4104   -8.5511  -13.7828 S   0  0  0  0  0  0  0  0  0  0  0  0
   20.6477   -8.8711  -16.2335 C   0  0  0  0  0  0  0  0  0  0  0  0
   21.1624   -8.3848  -17.2442 O   0  0  0  0  0  0  0  0  0  0  0  0
   19.5224   -8.2939  -15.6093 N   0  0  0  0  0  0  0  0  0  0  0  0
   18.8860   -7.0458  -16.0541 C   0  0  1  0  0  0  0  0  0  0  0  0
   17.4434   -7.1749  -15.7868 C   0  0  0  0  0  0  0  0  0  0  0  0
   16.5326   -6.0394  -16.0036 C   0  0  0  0  0  0  0  0  0  0  0  0
   15.1030   -6.1396  -15.7548 C   0  0  0  0  0  0  0  0  0  0  0  0
   14.1641   -5.0324  -15.9450 C   0  0  0  0  0  0  0  0  0  0  0  0
   12.7825   -5.3016  -15.8410 N   0  0  0  0  0  0  0  0  0  0  0  0
   19.5210   -5.9514  -15.2566 C   0  0  0  0  0  0  0  0  0  0  0  0
   20.0042   -6.2307  -14.0023 O   0  0  0  0  0  0  0  0  0  0  0  0
   19.6466   -4.7705  -15.6653 O   0  0  0  0  0  0  0  0  0  0  0  0
  1  2  1  0
  2  3  1  0
  4  3  1  0
  5  4  1  0
  5  6  1  1
  7  8  2  0
  7  5  1  0
  9  7  1  0
 10  9  1  0
 10 11  1  6
 12 11  1  0
 13 15  1  0
 13 10  1  0
 14 13  2  0
 16 15  1  0
 16 22  1  0
 16 17  1  1
 17 18  1  0
 19 18  1  0
 20 19  1  0
 20 21  1  0
 22 23  1  0
 24 22  2  0
M  END
$$$$
