MCK.pdb
     RDKit          3D

 24 23  0  0  1  0  0  0  0  0999 V2000
   26.0104  -20.2507   -3.2965 C   0  0  0  0  0  0  0  0  0  0  0  0
   27.6082  -21.0212   -3.6868 S   0  0  0  0  0  0  0  0  0  0  0  0
   28.2459  -20.3077   -5.2038 C   0  0  0  0  0  0  0  0  0  0  0  0
   27.3030  -20.3882   -6.3617 C   0  0  0  0  0  0  0  0  0  0  0  0
   27.8128  -19.7031   -7.5954 C   0  0  2  0  0  0  0  0  0  0  0  0
   28.0857  -18.3090   -7.3669 N   0  0  0  0  0  0  0  0  0  0  0  0
   26.9261  -19.9013   -8.7744 C   0  0  0  0  0  0  0  0  0  0  0  0
   25.8612  -19.2589   -8.9382 O   0  0  0  0  0  0  0  0  0  0  0  0
   27.2908  -20.8492   -9.7536 N   0  0  0  0  0  0  0  0  0  0  0  0
   26.8484  -20.6451  -11.1168 C   0  0  1  0  0  0  0  0  0  0  0  0
   27.9209  -21.2725  -12.0178 C   0  0  0  0  0  0  0  0  0  0  0  0
   27.3594  -21.1821  -13.7243 S   0  0  0  0  0  0  0  0  0  0  0  0
   25.5872  -21.4198  -11.3857 C   0  0  0  0  0  0  0  0  0  0  0  0
   25.3406  -22.3838  -10.6559 O   0  0  0  0  0  0  0  0  0  0  0  0
   24.7340  -21.0365  -12.4413 N   0  0  0  0  0  0  0  0  0  0  0  0
   23.3219  -21.4321  -12.5414 C   0  0  1  0  0  0  0  0  0  0  0  0
   22.5653  -20.5801  -11.6081 C   0  0  0  0  0  0  0  0  0  0  0  0
   21.1212  -20.7803  -11.4074 C   0  0  0  0  0  0  0  0  0  0  0  0
   20.6003  -21.8478  -10.5679 C   0  0  0  0  0  0  0  0  0  0  0  0
   19.1727  -22.0905  -10.3518 C   0  0  0  0  0  0  0  0  0  0  0  0
   18.7961  -23.1233   -9.4666 N   0  0  0  0  0  0  0  0  0  0  0  0
   22.9304  -21.2084  -13.9674 C   0  0  0  0  0  0  0  0  0  0  0  0
   22.1124  -22.1197  -14.5880 O   0  0  0  0  0  0  0  0  0  0  0  0
   23.3051  -20.2226  -14.6493 O   0  0  0  0  0  0  0  0  0  0  0  0
  1  2  1  0
  2  3  1  0
  4  3  1  0
  5  4  1  0
  5  6  1  1
  7  8  2  0
  7  5  1  0
  9  7  1  0
 10  9  1  0
 10 11  1  6
 12 11  1  0
 13 15  1  0
 13 10  1  0
 14 13  2  0
 16 15  1  0
 16 22  1  0
 16 17  1  1
 17 18  1  0
 19 18  1  0
 20 19  1  0
 20 21  1  0
 22 23  1  0
 24 22  2  0
M  END
$$$$
