MCK.pdb
     RDKit          3D

 24 23  0  0  1  0  0  0  0  0999 V2000
   26.2205  -20.4084  -18.2072 C   0  0  0  0  0  0  0  0  0  0  0  0
   27.7882  -19.4916  -18.2337 S   0  0  0  0  0  0  0  0  0  0  0  0
   28.9067  -20.2119  -17.0306 C   0  0  0  0  0  0  0  0  0  0  0  0
   28.2265  -21.0043  -15.9602 C   0  0  0  0  0  0  0  0  0  0  0  0
   27.4744  -20.1568  -14.9768 C   0  0  2  0  0  0  0  0  0  0  0  0
   28.3403  -19.2529  -14.2674 N   0  0  0  0  0  0  0  0  0  0  0  0
   26.6382  -20.9598  -14.0431 C   0  0  0  0  0  0  0  0  0  0  0  0
   25.9172  -21.9121  -14.4260 O   0  0  0  0  0  0  0  0  0  0  0  0
   26.6508  -20.6433  -12.6683 N   0  0  0  0  0  0  0  0  0  0  0  0
   25.6176  -21.1966  -11.8185 C   0  0  1  0  0  0  0  0  0  0  0  0
   26.0050  -20.8375  -10.3775 C   0  0  0  0  0  0  0  0  0  0  0  0
   24.6538  -21.3083   -9.2874 S   0  0  0  0  0  0  0  0  0  0  0  0
   24.3025  -20.5107  -12.0692 C   0  0  0  0  0  0  0  0  0  0  0  0
   24.2706  -19.2808  -11.9740 O   0  0  0  0  0  0  0  0  0  0  0  0
   23.1611  -21.2704  -12.3998 N   0  0  0  0  0  0  0  0  0  0  0  0
   21.8536  -20.6867  -12.7323 C   0  0  1  0  0  0  0  0  0  0  0  0
   21.6316  -20.9106  -14.1710 C   0  0  0  0  0  0  0  0  0  0  0  0
   21.4517  -19.7759  -15.0908 C   0  0  0  0  0  0  0  0  0  0  0  0
   21.2971  -19.9633  -16.5249 C   0  0  0  0  0  0  0  0  0  0  0  0
   21.2339  -18.8620  -17.4877 C   0  0  0  0  0  0  0  0  0  0  0  0
   21.2198  -19.1763  -18.8636 N   0  0  0  0  0  0  0  0  0  0  0  0
   20.8536  -21.4012  -11.8800 C   0  0  0  0  0  0  0  0  0  0  0  0
   20.0329  -20.6715  -11.0562 O   0  0  0  0  0  0  0  0  0  0  0  0
   20.7093  -22.6487  -11.8677 O   0  0  0  0  0  0  0  0  0  0  0  0
  1  2  1  0
  2  3  1  0
  4  3  1  0
  5  4  1  0
  5  6  1  1
  7  8  2  0
  7  5  1  0
  9  7  1  0
 10  9  1  0
 10 11  1  1
 12 11  1  0
 13 15  1  0
 13 10  1  0
 14 13  2  0
 16 15  1  0
 16 22  1  0
 16 17  1  6
 17 18  1  0
 19 18  1  0
 20 19  1  0
 20 21  1  0
 22 23  1  0
 24 22  2  0
M  END
$$$$
