MCK.pdb
     RDKit          3D

 24 23  0  0  1  0  0  0  0  0999 V2000
   27.8769  -17.9575   -4.6205 C   0  0  0  0  0  0  0  0  0  0  0  0
   28.8374  -19.4815   -4.3880 S   0  0  0  0  0  0  0  0  0  0  0  0
   28.5998  -20.5449   -5.8127 C   0  0  0  0  0  0  0  0  0  0  0  0
   27.9250  -19.8779   -6.9686 C   0  0  0  0  0  0  0  0  0  0  0  0
   27.6605  -20.8027   -8.1201 C   0  0  2  0  0  0  0  0  0  0  0  0
   28.8534  -21.4779   -8.5573 N   0  0  0  0  0  0  0  0  0  0  0  0
   26.9654  -20.1314   -9.2522 C   0  0  0  0  0  0  0  0  0  0  0  0
   27.3525  -19.0403   -9.7352 O   0  0  0  0  0  0  0  0  0  0  0  0
   25.8224  -20.7406   -9.8117 N   0  0  0  0  0  0  0  0  0  0  0  0
   25.5564  -20.5547  -11.2225 C   0  0  1  0  0  0  0  0  0  0  0  0
   26.6639  -21.3061  -11.9738 C   0  0  0  0  0  0  0  0  0  0  0  0
   26.4186  -21.0709  -13.7401 S   0  0  0  0  0  0  0  0  0  0  0  0
   24.2700  -21.2302  -11.6122 C   0  0  0  0  0  0  0  0  0  0  0  0
   24.1694  -22.4405  -11.3933 O   0  0  0  0  0  0  0  0  0  0  0  0
   23.2311  -20.4833  -12.2055 N   0  0  0  0  0  0  0  0  0  0  0  0
   21.9036  -21.0294  -12.5218 C   0  0  1  0  0  0  0  0  0  0  0  0
   21.0483  -19.8944  -12.9084 C   0  0  0  0  0  0  0  0  0  0  0  0
   19.6592  -20.1119  -13.3432 C   0  0  0  0  0  0  0  0  0  0  0  0
   18.7716  -19.0067  -13.6693 C   0  0  0  0  0  0  0  0  0  0  0  0
   17.4059  -19.1794  -14.1683 C   0  0  0  0  0  0  0  0  0  0  0  0
   16.5807  -18.0386  -14.2674 N   0  0  0  0  0  0  0  0  0  0  0  0
   22.1118  -21.9979  -13.6423 C   0  0  0  0  0  0  0  0  0  0  0  0
   23.1544  -21.8001  -14.5133 O   0  0  0  0  0  0  0  0  0  0  0  0
   21.3841  -23.0014  -13.8438 O   0  0  0  0  0  0  0  0  0  0  0  0
  1  2  1  0
  2  3  1  0
  4  3  1  0
  5  4  1  0
  5  6  1  6
  7  8  2  0
  7  5  1  0
  9  7  1  0
 10  9  1  0
 10 11  1  6
 12 11  1  0
 13 15  1  0
 13 10  1  0
 14 13  2  0
 16 15  1  0
 16 22  1  0
 16 17  1  6
 17 18  1  0
 19 18  1  0
 20 19  1  0
 20 21  1  0
 22 23  1  0
 24 22  2  0
M  END
$$$$
