MCK.pdb
     RDKit          3D

 24 23  0  0  1  0  0  0  0  0999 V2000
   26.6355  -22.7434  -20.7237 C   0  0  0  0  0  0  0  0  0  0  0  0
   26.1329  -20.9980  -20.7147 S   0  0  0  0  0  0  0  0  0  0  0  0
   27.0573  -20.1303  -19.4460 C   0  0  0  0  0  0  0  0  0  0  0  0
   26.8312  -20.6485  -18.0615 C   0  0  0  0  0  0  0  0  0  0  0  0
   27.5992  -19.9010  -17.0116 C   0  0  2  0  0  0  0  0  0  0  0  0
   28.9726  -19.6960  -17.3884 N   0  0  0  0  0  0  0  0  0  0  0  0
   27.4884  -20.5217  -15.6632 C   0  0  0  0  0  0  0  0  0  0  0  0
   26.6371  -21.4012  -15.3889 O   0  0  0  0  0  0  0  0  0  0  0  0
   28.3739  -20.1096  -14.6450 N   0  0  0  0  0  0  0  0  0  0  0  0
   28.2014  -20.6507  -13.3134 C   0  0  1  0  0  0  0  0  0  0  0  0
   29.3661  -20.1099  -12.4729 C   0  0  0  0  0  0  0  0  0  0  0  0
   30.6370  -21.3789  -12.3723 S   0  0  0  0  0  0  0  0  0  0  0  0
   26.9525  -20.1039  -12.6775 C   0  0  0  0  0  0  0  0  0  0  0  0
   26.7484  -18.8902  -12.7669 O   0  0  0  0  0  0  0  0  0  0  0  0
   26.0628  -20.9699  -12.0085 N   0  0  0  0  0  0  0  0  0  0  0  0
   24.8518  -20.5216  -11.3064 C   0  0  1  0  0  0  0  0  0  0  0  0
   23.6966  -20.9997  -12.0849 C   0  0  0  0  0  0  0  0  0  0  0  0
   22.3218  -20.7548  -11.6203 C   0  0  0  0  0  0  0  0  0  0  0  0
   21.1617  -21.1791  -12.3883 C   0  0  0  0  0  0  0  0  0  0  0  0
   19.7786  -20.9733  -11.9542 C   0  0  0  0  0  0  0  0  0  0  0  0
   18.7392  -21.4265  -12.7947 N   0  0  0  0  0  0  0  0  0  0  0  0
   24.9156  -21.1314   -9.9422 C   0  0  0  0  0  0  0  0  0  0  0  0
   25.6852  -22.2509   -9.7446 O   0  0  0  0  0  0  0  0  0  0  0  0
   24.3021  -20.6787   -8.9443 O   0  0  0  0  0  0  0  0  0  0  0  0
  1  2  1  0
  2  3  1  0
  4  3  1  0
  5  4  1  0
  5  6  1  6
  7  8  2  0
  7  5  1  0
  9  7  1  0
 10  9  1  0
 10 11  1  1
 12 11  1  0
 13 15  1  0
 13 10  1  0
 14 13  2  0
 16 15  1  0
 16 22  1  0
 16 17  1  6
 17 18  1  0
 19 18  1  0
 20 19  1  0
 20 21  1  0
 22 23  1  0
 24 22  2  0
M  END
$$$$
