MCK.pdb
     RDKit          3D

 24 23  0  0  1  0  0  0  0  0999 V2000
   27.3265  -18.6165   -5.9086 C   0  0  0  0  0  0  0  0  0  0  0  0
   26.6407  -20.2944   -5.7946 S   0  0  0  0  0  0  0  0  0  0  0  0
   25.7536  -20.6671   -7.3083 C   0  0  0  0  0  0  0  0  0  0  0  0
   26.1666  -19.8353   -8.4804 C   0  0  0  0  0  0  0  0  0  0  0  0
   25.6005  -20.3174   -9.7835 C   0  0  2  0  0  0  0  0  0  0  0  0
   25.2971  -21.7235   -9.7550 N   0  0  0  0  0  0  0  0  0  0  0  0
   26.4553  -19.9654  -10.9502 C   0  0  0  0  0  0  0  0  0  0  0  0
   26.6822  -18.7800  -11.2921 O   0  0  0  0  0  0  0  0  0  0  0  0
   27.0388  -21.0020  -11.7088 N   0  0  0  0  0  0  0  0  0  0  0  0
   27.9122  -20.6509  -12.8087 C   0  0  1  0  0  0  0  0  0  0  0  0
   29.1510  -21.5478  -12.6801 C   0  0  0  0  0  0  0  0  0  0  0  0
   30.0356  -21.0907  -11.1821 S   0  0  0  0  0  0  0  0  0  0  0  0
   27.2801  -21.0163  -14.1239 C   0  0  0  0  0  0  0  0  0  0  0  0
   26.8805  -22.1752  -14.2651 O   0  0  0  0  0  0  0  0  0  0  0  0
   27.1609  -20.0491  -15.1435 N   0  0  0  0  0  0  0  0  0  0  0  0
   26.1071  -20.0610  -16.1682 C   0  0  1  0  0  0  0  0  0  0  0  0
   24.9998  -19.2325  -15.6617 C   0  0  0  0  0  0  0  0  0  0  0  0
   23.6099  -19.5080  -16.0596 C   0  0  0  0  0  0  0  0  0  0  0  0
   22.8214  -20.5560  -15.4305 C   0  0  0  0  0  0  0  0  0  0  0  0
   21.5189  -21.0039  -15.9271 C   0  0  0  0  0  0  0  0  0  0  0  0
   20.9555  -22.1712  -15.3686 N   0  0  0  0  0  0  0  0  0  0  0  0
   26.7277  -19.4942  -17.4054 C   0  0  0  0  0  0  0  0  0  0  0  0
   26.4040  -20.0350  -18.6250 O   0  0  0  0  0  0  0  0  0  0  0  0
   27.5399  -18.5364  -17.4047 O   0  0  0  0  0  0  0  0  0  0  0  0
  1  2  1  0
  2  3  1  0
  4  3  1  0
  5  4  1  0
  5  6  1  1
  7  8  2  0
  7  5  1  0
  9  7  1  0
 10  9  1  0
 10 11  1  1
 12 11  1  0
 13 15  1  0
 13 10  1  0
 14 13  2  0
 16 15  1  0
 16 22  1  0
 16 17  1  1
 17 18  1  0
 19 18  1  0
 20 19  1  0
 20 21  1  0
 22 23  1  0
 24 22  2  0
M  END
$$$$
