MCK.pdb
     RDKit          3D

 24 23  0  0  1  0  0  0  0  0999 V2000
   24.4353  -22.5506  -19.2355 C   0  0  0  0  0  0  0  0  0  0  0  0
   25.8688  -21.6667  -18.5553 S   0  0  0  0  0  0  0  0  0  0  0  0
   25.3877  -19.9823  -18.1701 C   0  0  0  0  0  0  0  0  0  0  0  0
   24.8493  -19.8006  -16.7868 C   0  0  0  0  0  0  0  0  0  0  0  0
   23.6970  -20.7080  -16.4709 C   0  0  2  0  0  0  0  0  0  0  0  0
   22.6364  -20.5926  -17.4362 N   0  0  0  0  0  0  0  0  0  0  0  0
   23.1926  -20.5385  -15.0807 C   0  0  0  0  0  0  0  0  0  0  0  0
   23.9414  -20.5922  -14.0758 O   0  0  0  0  0  0  0  0  0  0  0  0
   21.8160  -20.3074  -14.8754 N   0  0  0  0  0  0  0  0  0  0  0  0
   21.3271  -20.1846  -13.5183 C   0  0  1  0  0  0  0  0  0  0  0  0
   20.5578  -18.8581  -13.4544 C   0  0  0  0  0  0  0  0  0  0  0  0
   19.9177  -18.6473  -11.7867 S   0  0  0  0  0  0  0  0  0  0  0  0
   20.3145  -21.2568  -13.2214 C   0  0  0  0  0  0  0  0  0  0  0  0
   19.5036  -21.5400  -14.1074 O   0  0  0  0  0  0  0  0  0  0  0  0
   20.3139  -21.9001  -11.9663 N   0  0  0  0  0  0  0  0  0  0  0  0
   19.3669  -22.9579  -11.5855 C   0  0  1  0  0  0  0  0  0  0  0  0
   19.7001  -23.3640  -10.2096 C   0  0  0  0  0  0  0  0  0  0  0  0
   18.8516  -24.3199   -9.4801 C   0  0  0  0  0  0  0  0  0  0  0  0
   19.2158  -24.8274   -8.1665 C   0  0  0  0  0  0  0  0  0  0  0  0
   18.3085  -25.5927   -7.3092 C   0  0  0  0  0  0  0  0  0  0  0  0
   18.7915  -26.0512   -6.0648 N   0  0  0  0  0  0  0  0  0  0  0  0
   18.0046  -22.3496  -11.6897 C   0  0  0  0  0  0  0  0  0  0  0  0
   17.7799  -21.1122  -11.1390 O   0  0  0  0  0  0  0  0  0  0  0  0
   17.0326  -22.9041  -12.2598 O   0  0  0  0  0  0  0  0  0  0  0  0
  1  2  1  0
  2  3  1  0
  4  3  1  0
  5  4  1  0
  5  6  1  6
  7  8  2  0
  7  5  1  0
  9  7  1  0
 10  9  1  0
 10 11  1  6
 12 11  1  0
 13 15  1  0
 13 10  1  0
 14 13  2  0
 16 15  1  0
 16 22  1  0
 16 17  1  1
 17 18  1  0
 19 18  1  0
 20 19  1  0
 20 21  1  0
 22 23  1  0
 24 22  2  0
M  END
$$$$
