MCK.pdb
     RDKit          3D

 24 23  0  0  1  0  0  0  0  0999 V2000
   31.0941  -25.7051  -15.4428 C   0  0  0  0  0  0  0  0  0  0  0  0
   31.2530  -25.7091  -17.2521 S   0  0  0  0  0  0  0  0  0  0  0  0
   30.1290  -24.4924  -17.9400 C   0  0  0  0  0  0  0  0  0  0  0  0
   29.4166  -23.6688  -16.9151 C   0  0  0  0  0  0  0  0  0  0  0  0
   28.4759  -22.6613  -17.5077 C   0  0  2  0  0  0  0  0  0  0  0  0
   29.1486  -21.7464  -18.3911 N   0  0  0  0  0  0  0  0  0  0  0  0
   27.6775  -21.9411  -16.4783 C   0  0  0  0  0  0  0  0  0  0  0  0
   26.9588  -22.5348  -15.6391 O   0  0  0  0  0  0  0  0  0  0  0  0
   27.7252  -20.5316  -16.4376 N   0  0  0  0  0  0  0  0  0  0  0  0
   26.9210  -19.8375  -15.4542 C   0  0  1  0  0  0  0  0  0  0  0  0
   27.4150  -18.3845  -15.4396 C   0  0  0  0  0  0  0  0  0  0  0  0
   26.4137  -17.4511  -14.2727 S   0  0  0  0  0  0  0  0  0  0  0  0
   25.4840  -19.7742  -15.8947 C   0  0  0  0  0  0  0  0  0  0  0  0
   25.2459  -19.2904  -17.0047 O   0  0  0  0  0  0  0  0  0  0  0  0
   24.4638  -20.2577  -15.0493 N   0  0  0  0  0  0  0  0  0  0  0  0
   23.0288  -20.1513  -15.3494 C   0  0  1  0  0  0  0  0  0  0  0  0
   22.4031  -21.4176  -14.9321 C   0  0  0  0  0  0  0  0  0  0  0  0
   22.4673  -22.6092  -15.7935 C   0  0  0  0  0  0  0  0  0  0  0  0
   21.9396  -23.8965  -15.3690 C   0  0  0  0  0  0  0  0  0  0  0  0
   22.1322  -25.1413  -16.1153 C   0  0  0  0  0  0  0  0  0  0  0  0
   21.6230  -26.3370  -15.5647 N   0  0  0  0  0  0  0  0  0  0  0  0
   22.5288  -18.9795  -14.5659 C   0  0  0  0  0  0  0  0  0  0  0  0
   21.5059  -18.2197  -15.0769 O   0  0  0  0  0  0  0  0  0  0  0  0
   22.9892  -18.6372  -13.4488 O   0  0  0  0  0  0  0  0  0  0  0  0
  1  2  1  0
  2  3  1  0
  4  3  1  0
  5  4  1  0
  5  6  1  1
  7  8  2  0
  7  5  1  0
  9  7  1  0
 10  9  1  0
 10 11  1  6
 12 11  1  0
 13 15  1  0
 13 10  1  0
 14 13  2  0
 16 15  1  0
 16 22  1  0
 16 17  1  1
 17 18  1  0
 19 18  1  0
 20 19  1  0
 20 21  1  0
 22 23  1  0
 24 22  2  0
M  END
$$$$
