MCK.pdb
     RDKit          3D

 24 23  0  0  1  0  0  0  0  0999 V2000
   18.1716  -14.9719  -17.5893 C   0  0  0  0  0  0  0  0  0  0  0  0
   18.1688  -14.4759  -19.3366 S   0  0  0  0  0  0  0  0  0  0  0  0
   19.1794  -13.0066  -19.5284 C   0  0  0  0  0  0  0  0  0  0  0  0
   19.4987  -12.3112  -18.2436 C   0  0  0  0  0  0  0  0  0  0  0  0
   20.3871  -11.1147  -18.4171 C   0  0  2  0  0  0  0  0  0  0  0  0
   21.5708  -11.4245  -19.1740 N   0  0  0  0  0  0  0  0  0  0  0  0
   20.7204  -10.4508  -17.1272 C   0  0  0  0  0  0  0  0  0  0  0  0
   19.8451  -10.0814  -16.3081 O   0  0  0  0  0  0  0  0  0  0  0  0
   22.0748  -10.2234  -16.8042 N   0  0  0  0  0  0  0  0  0  0  0  0
   22.3884   -9.5314  -15.5720 C   0  0  1  0  0  0  0  0  0  0  0  0
   23.8451   -9.8812  -15.2384 C   0  0  0  0  0  0  0  0  0  0  0  0
   23.8973  -11.5592  -14.5926 S   0  0  0  0  0  0  0  0  0  0  0  0
   22.3653   -8.0418  -15.7807 C   0  0  0  0  0  0  0  0  0  0  0  0
   22.9194   -7.5961  -16.7892 O   0  0  0  0  0  0  0  0  0  0  0  0
   21.7258   -7.2065  -14.8413 N   0  0  0  0  0  0  0  0  0  0  0  0
   21.6739   -5.7412  -14.9459 C   0  0  1  0  0  0  0  0  0  0  0  0
   20.2732   -5.3747  -15.2161 C   0  0  0  0  0  0  0  0  0  0  0  0
   19.8484   -3.9657  -15.2084 C   0  0  0  0  0  0  0  0  0  0  0  0
   18.4648   -3.5766  -15.4319 C   0  0  0  0  0  0  0  0  0  0  0  0
   18.0149   -2.1864  -15.5242 C   0  0  0  0  0  0  0  0  0  0  0  0
   16.6400   -1.9402  -15.7267 N   0  0  0  0  0  0  0  0  0  0  0  0
   22.1608   -5.2159  -13.6329 C   0  0  0  0  0  0  0  0  0  0  0  0
   22.0463   -6.0020  -12.5133 O   0  0  0  0  0  0  0  0  0  0  0  0
   22.6796   -4.0822  -13.4821 O   0  0  0  0  0  0  0  0  0  0  0  0
  1  2  1  0
  2  3  1  0
  4  3  1  0
  5  4  1  0
  5  6  1  1
  7  8  2  0
  7  5  1  0
  9  7  1  0
 10  9  1  0
 10 11  1  6
 12 11  1  0
 13 15  1  0
 13 10  1  0
 14 13  2  0
 16 15  1  0
 16 22  1  0
 16 17  1  1
 17 18  1  0
 19 18  1  0
 20 19  1  0
 20 21  1  0
 22 23  1  0
 24 22  2  0
M  END
$$$$
