MCK.pdb
     RDKit          3D

 24 23  0  0  1  0  0  0  0  0999 V2000
   27.3354  -16.6360  -15.0873 C   0  0  0  0  0  0  0  0  0  0  0  0
   27.4752  -17.4271  -16.7162 S   0  0  0  0  0  0  0  0  0  0  0  0
   28.1617  -19.0713  -16.5102 C   0  0  0  0  0  0  0  0  0  0  0  0
   27.2762  -20.0148  -15.7605 C   0  0  0  0  0  0  0  0  0  0  0  0
   27.2928  -19.7969  -14.2762 C   0  0  2  0  0  0  0  0  0  0  0  0
   28.5944  -20.0304  -13.7091 N   0  0  0  0  0  0  0  0  0  0  0  0
   26.2394  -20.5731  -13.5666 C   0  0  0  0  0  0  0  0  0  0  0  0
   25.3596  -21.2325  -14.1705 O   0  0  0  0  0  0  0  0  0  0  0  0
   26.2220  -20.5728  -12.1558 N   0  0  0  0  0  0  0  0  0  0  0  0
   25.0442  -21.0681  -11.4754 C   0  0  1  0  0  0  0  0  0  0  0  0
   25.2789  -20.8315   -9.9773 C   0  0  0  0  0  0  0  0  0  0  0  0
   27.0192  -21.1120   -9.6193 S   0  0  0  0  0  0  0  0  0  0  0  0
   23.8391  -20.2420  -11.8339 C   0  0  0  0  0  0  0  0  0  0  0  0
   23.9994  -19.0267  -11.9757 O   0  0  0  0  0  0  0  0  0  0  0  0
   22.5817  -20.8599  -11.9962 N   0  0  0  0  0  0  0  0  0  0  0  0
   21.4524  -20.2492  -12.7120 C   0  0  1  0  0  0  0  0  0  0  0  0
   21.7506  -20.3403  -14.1514 C   0  0  0  0  0  0  0  0  0  0  0  0
   20.7857  -19.8579  -15.1525 C   0  0  0  0  0  0  0  0  0  0  0  0
   21.0538  -19.9330  -16.5802 C   0  0  0  0  0  0  0  0  0  0  0  0
   20.1725  -19.3696  -17.6046 C   0  0  0  0  0  0  0  0  0  0  0  0
   20.5963  -19.4148  -18.9501 N   0  0  0  0  0  0  0  0  0  0  0  0
   20.2428  -21.0397  -12.3261 C   0  0  0  0  0  0  0  0  0  0  0  0
   19.1010  -20.3762  -11.9509 O   0  0  0  0  0  0  0  0  0  0  0  0
   20.1989  -22.2948  -12.3237 O   0  0  0  0  0  0  0  0  0  0  0  0
  1  2  1  0
  2  3  1  0
  4  3  1  0
  5  4  1  0
  5  6  1  1
  7  8  2  0
  7  5  1  0
  9  7  1  0
 10  9  1  0
 10 11  1  1
 12 11  1  0
 13 15  1  0
 13 10  1  0
 14 13  2  0
 16 15  1  0
 16 22  1  0
 16 17  1  6
 17 18  1  0
 19 18  1  0
 20 19  1  0
 20 21  1  0
 22 23  1  0
 24 22  2  0
M  END
$$$$
