MCK.pdb
     RDKit          3D

 24 23  0  0  1  0  0  0  0  0999 V2000
   29.2656  -16.0557  -16.8487 C   0  0  0  0  0  0  0  0  0  0  0  0
   28.5390  -17.2825  -15.7235 S   0  0  0  0  0  0  0  0  0  0  0  0
   27.2174  -18.1458  -16.5751 C   0  0  0  0  0  0  0  0  0  0  0  0
   26.4805  -19.1296  -15.7233 C   0  0  0  0  0  0  0  0  0  0  0  0
   27.3625  -20.1962  -15.1443 C   0  0  2  0  0  0  0  0  0  0  0  0
   27.9653  -21.0130  -16.1639 N   0  0  0  0  0  0  0  0  0  0  0  0
   26.6709  -21.0235  -14.1181 C   0  0  0  0  0  0  0  0  0  0  0  0
   26.0444  -22.0726  -14.4017 O   0  0  0  0  0  0  0  0  0  0  0  0
   26.7167  -20.6182  -12.7675 N   0  0  0  0  0  0  0  0  0  0  0  0
   25.6647  -21.0564  -11.8747 C   0  0  1  0  0  0  0  0  0  0  0  0
   26.0909  -20.6309  -10.4630 C   0  0  0  0  0  0  0  0  0  0  0  0
   24.7284  -20.9506   -9.3330 S   0  0  0  0  0  0  0  0  0  0  0  0
   24.3878  -20.3125  -12.1557 C   0  0  0  0  0  0  0  0  0  0  0  0
   24.4106  -19.0818  -12.0679 O   0  0  0  0  0  0  0  0  0  0  0  0
   23.2195  -21.0210  -12.5052 N   0  0  0  0  0  0  0  0  0  0  0  0
   21.9549  -20.3800  -12.8933 C   0  0  1  0  0  0  0  0  0  0  0  0
   22.0238  -20.1263  -14.3425 C   0  0  0  0  0  0  0  0  0  0  0  0
   20.9025  -19.4867  -15.0492 C   0  0  0  0  0  0  0  0  0  0  0  0
   20.9130  -19.2867  -16.4899 C   0  0  0  0  0  0  0  0  0  0  0  0
   19.8633  -18.5740  -17.2205 C   0  0  0  0  0  0  0  0  0  0  0  0
   20.0277  -18.3808  -18.6089 N   0  0  0  0  0  0  0  0  0  0  0  0
   20.8734  -21.3477  -12.5316 C   0  0  0  0  0  0  0  0  0  0  0  0
   19.7018  -20.8729  -11.9962 O   0  0  0  0  0  0  0  0  0  0  0  0
   20.9651  -22.5902  -12.6892 O   0  0  0  0  0  0  0  0  0  0  0  0
  1  2  1  0
  2  3  1  0
  4  3  1  0
  5  4  1  0
  5  6  1  6
  7  8  2  0
  7  5  1  0
  9  7  1  0
 10  9  1  0
 10 11  1  1
 12 11  1  0
 13 15  1  0
 13 10  1  0
 14 13  2  0
 16 15  1  0
 16 22  1  0
 16 17  1  6
 17 18  1  0
 19 18  1  0
 20 19  1  0
 20 21  1  0
 22 23  1  0
 24 22  2  0
M  END
$$$$
