MCK.pdb
     RDKit          3D

 24 23  0  0  1  0  0  0  0  0999 V2000
   24.2467  -18.3435  -16.5196 C   0  0  0  0  0  0  0  0  0  0  0  0
   22.4911  -17.8929  -16.6371 S   0  0  0  0  0  0  0  0  0  0  0  0
   22.3593  -16.2079  -17.2373 C   0  0  0  0  0  0  0  0  0  0  0  0
   23.2158  -15.2273  -16.5016 C   0  0  0  0  0  0  0  0  0  0  0  0
   23.4273  -13.9425  -17.2470 C   0  0  2  0  0  0  0  0  0  0  0  0
   24.4562  -14.0589  -18.2458 N   0  0  0  0  0  0  0  0  0  0  0  0
   23.6694  -12.7840  -16.3441 C   0  0  0  0  0  0  0  0  0  0  0  0
   22.9016  -12.4898  -15.3969 O   0  0  0  0  0  0  0  0  0  0  0  0
   24.8079  -11.9778  -16.5553 N   0  0  0  0  0  0  0  0  0  0  0  0
   24.9825  -10.7950  -15.7392 C   0  0  1  0  0  0  0  0  0  0  0  0
   26.4882  -10.4983  -15.7247 C   0  0  0  0  0  0  0  0  0  0  0  0
   27.3357  -11.8768  -14.9392 S   0  0  0  0  0  0  0  0  0  0  0  0
   24.3390   -9.6020  -16.3916 C   0  0  0  0  0  0  0  0  0  0  0  0
   24.5599   -9.4168  -17.5915 O   0  0  0  0  0  0  0  0  0  0  0  0
   23.5165   -8.7411  -15.6356 N   0  0  0  0  0  0  0  0  0  0  0  0
   22.6371   -7.7199  -16.2224 C   0  0  1  0  0  0  0  0  0  0  0  0
   21.6369   -8.4266  -17.0405 C   0  0  0  0  0  0  0  0  0  0  0  0
   20.5662   -7.6862  -17.7271 C   0  0  0  0  0  0  0  0  0  0  0  0
   19.1743   -7.7867  -17.3170 C   0  0  0  0  0  0  0  0  0  0  0  0
   18.0651   -7.1640  -18.0420 C   0  0  0  0  0  0  0  0  0  0  0  0
   16.7565   -7.3421  -17.5439 N   0  0  0  0  0  0  0  0  0  0  0  0
   22.0233   -6.9915  -15.0693 C   0  0  0  0  0  0  0  0  0  0  0  0
   21.7085   -7.6876  -13.9286 O   0  0  0  0  0  0  0  0  0  0  0  0
   21.7728   -5.7609  -15.0727 O   0  0  0  0  0  0  0  0  0  0  0  0
  1  2  1  0
  2  3  1  0
  4  3  1  0
  5  4  1  0
  5  6  1  6
  7  8  2  0
  7  5  1  0
  9  7  1  0
 10  9  1  0
 10 11  1  6
 12 11  1  0
 13 15  1  0
 13 10  1  0
 14 13  2  0
 16 15  1  0
 16 22  1  0
 16 17  1  1
 17 18  1  0
 19 18  1  0
 20 19  1  0
 20 21  1  0
 22 23  1  0
 24 22  2  0
M  END
$$$$
