MCK.pdb
     RDKit          3D

 24 23  0  0  1  0  0  0  0  0999 V2000
   14.9637  -14.4965  -16.2399 C   0  0  0  0  0  0  0  0  0  0  0  0
   16.7247  -14.9352  -16.1660 S   0  0  0  0  0  0  0  0  0  0  0  0
   17.6824  -13.6438  -16.9609 C   0  0  0  0  0  0  0  0  0  0  0  0
   17.9057  -12.4351  -16.1091 C   0  0  0  0  0  0  0  0  0  0  0  0
   18.6659  -11.3456  -16.8064 C   0  0  2  0  0  0  0  0  0  0  0  0
   19.9656  -11.7845  -17.2402 N   0  0  0  0  0  0  0  0  0  0  0  0
   18.7503  -10.0951  -16.0035 C   0  0  0  0  0  0  0  0  0  0  0  0
   17.7434   -9.5447  -15.4969 O   0  0  0  0  0  0  0  0  0  0  0  0
   20.0115   -9.4969  -15.7986 N   0  0  0  0  0  0  0  0  0  0  0  0
   20.0812   -8.2640  -15.0430 C   0  0  1  0  0  0  0  0  0  0  0  0
   21.5515   -8.0863  -14.6404 C   0  0  0  0  0  0  0  0  0  0  0  0
   21.7090   -6.5555  -13.7091 S   0  0  0  0  0  0  0  0  0  0  0  0
   19.7543   -7.0864  -15.9200 C   0  0  0  0  0  0  0  0  0  0  0  0
   20.3810   -6.9676  -16.9764 O   0  0  0  0  0  0  0  0  0  0  0  0
   18.7620   -6.1652  -15.5253 N   0  0  0  0  0  0  0  0  0  0  0  0
   18.3392   -5.0149  -16.3368 C   0  0  1  0  0  0  0  0  0  0  0  0
   16.8667   -4.9905  -16.3212 C   0  0  0  0  0  0  0  0  0  0  0  0
   16.0896   -5.8436  -17.2346 C   0  0  0  0  0  0  0  0  0  0  0  0
   14.6984   -6.1814  -16.9773 C   0  0  0  0  0  0  0  0  0  0  0  0
   13.9287   -7.1308  -17.7836 C   0  0  0  0  0  0  0  0  0  0  0  0
   12.5563   -7.2932  -17.4970 N   0  0  0  0  0  0  0  0  0  0  0  0
   18.9393   -3.8085  -15.6876 C   0  0  0  0  0  0  0  0  0  0  0  0
   19.6022   -3.9506  -14.4938 O   0  0  0  0  0  0  0  0  0  0  0  0
   18.8786   -2.6510  -16.1710 O   0  0  0  0  0  0  0  0  0  0  0  0
  1  2  1  0
  2  3  1  0
  4  3  1  0
  5  4  1  0
  5  6  1  1
  7  8  2  0
  7  5  1  0
  9  7  1  0
 10  9  1  0
 10 11  1  6
 12 11  1  0
 13 15  1  0
 13 10  1  0
 14 13  2  0
 16 15  1  0
 16 22  1  0
 16 17  1  1
 17 18  1  0
 19 18  1  0
 20 19  1  0
 20 21  1  0
 22 23  1  0
 24 22  2  0
M  END
$$$$
