CMK.pdb
     RDKit          3D

 24 23  0  0  1  0  0  0  0  0999 V2000
    8.9326  -15.8950   19.0834 N   0  0  0  0  0  0  0  0  0  0  0  0
    8.2424  -16.4624   20.1968 C   0  0  1  0  0  0  0  0  0  0  0  0
    8.4711  -17.9607   20.3201 C   0  0  0  0  0  0  0  0  0  0  0  0
    7.2496  -18.8754   19.3435 S   0  0  0  0  0  0  0  0  0  0  0  0
    8.6228  -15.8616   21.4932 C   0  0  0  0  0  0  0  0  0  0  0  0
    9.8713  -15.7643   21.7171 O   0  0  0  0  0  0  0  0  0  0  0  0
    6.8842  -11.6210   27.8648 C   0  0  0  0  0  0  0  0  0  0  0  0
    6.1920  -12.4973   26.4199 S   0  0  0  0  0  0  0  0  0  0  0  0
    7.5525  -13.4544   25.6766 C   0  0  0  0  0  0  0  0  0  0  0  0
    7.0268  -14.0353   24.3721 C   0  0  0  0  0  0  0  0  0  0  0  0
    8.1183  -14.7684   23.6280 C   0  0  2  0  0  0  0  0  0  0  0  0
    7.6670  -15.4157   22.4408 N   0  0  0  0  0  0  0  0  0  0  0  0
    8.6041  -15.8354   24.5748 C   0  0  0  0  0  0  0  0  0  0  0  0
    7.8930  -16.8756   24.7928 O   0  0  0  0  0  0  0  0  0  0  0  0
    9.8226  -15.7409   25.2419 N   0  0  0  0  0  0  0  0  0  0  0  0
   10.3548  -16.9853   25.9429 C   0  0  1  0  0  0  0  0  0  0  0  0
   11.7361  -17.0422   25.4031 C   0  0  0  0  0  0  0  0  0  0  0  0
   12.2186  -18.2620   24.7921 C   0  0  0  0  0  0  0  0  0  0  0  0
   13.5861  -18.2475   24.2239 C   0  0  0  0  0  0  0  0  0  0  0  0
   13.8131  -19.5774   23.4386 C   0  0  0  0  0  0  0  0  0  0  0  0
   15.1545  -19.6023   22.9356 N   0  0  0  0  0  0  0  0  0  0  0  0
   10.1951  -16.6213   27.3672 C   0  0  0  0  0  0  0  0  0  0  0  0
    9.9376  -15.3878   27.6401 O   0  0  0  0  0  0  0  0  0  0  0  0
   10.2741  -17.4159   28.4773 O   0  0  0  0  0  0  0  0  0  0  0  0
  2  1  1  6
  2  3  1  0
  3  4  1  0
  5  2  1  0
  5  6  2  0
  7  8  1  0
  8  9  1  0
  9 10  1  0
 11 10  1  1
 11 12  1  0
 11 13  1  0
 12  5  1  0
 13 15  1  0
 13 14  2  0
 15 16  1  0
 16 22  1  0
 16 17  1  1
 18 17  1  0
 18 19  1  0
 19 20  1  0
 21 20  1  0
 22 23  2  0
 22 24  1  0
M  END
$$$$
