CMK.pdb
     RDKit          3D

 24 23  0  0  1  0  0  0  0  0999 V2000
    8.2745  -12.7364   19.4406 N   0  0  0  0  0  0  0  0  0  0  0  0
    7.8254  -13.9058   20.1255 C   0  0  1  0  0  0  0  0  0  0  0  0
    8.1692  -15.1848   19.3783 C   0  0  0  0  0  0  0  0  0  0  0  0
    7.1350  -15.3586   17.9008 S   0  0  0  0  0  0  0  0  0  0  0  0
    8.3839  -14.0407   21.4879 C   0  0  0  0  0  0  0  0  0  0  0  0
    9.6392  -13.8642   21.5953 O   0  0  0  0  0  0  0  0  0  0  0  0
    6.0057  -10.5186   26.8684 C   0  0  0  0  0  0  0  0  0  0  0  0
    6.2523  -12.3239   26.7474 S   0  0  0  0  0  0  0  0  0  0  0  0
    6.9879  -12.6517   25.1130 C   0  0  0  0  0  0  0  0  0  0  0  0
    7.2817  -14.1433   25.0487 C   0  0  0  0  0  0  0  0  0  0  0  0
    8.2037  -14.4634   23.8953 C   0  0  2  0  0  0  0  0  0  0  0  0
    7.5834  -14.3479   22.6171 N   0  0  0  0  0  0  0  0  0  0  0  0
    8.5985  -15.9054   24.0840 C   0  0  0  0  0  0  0  0  0  0  0  0
    7.7598  -16.8400   23.8423 O   0  0  0  0  0  0  0  0  0  0  0  0
    9.8667  -16.2797   24.5206 N   0  0  0  0  0  0  0  0  0  0  0  0
   10.1425  -17.7634   24.7344 C   0  0  1  0  0  0  0  0  0  0  0  0
   11.3884  -17.9336   23.9460 C   0  0  0  0  0  0  0  0  0  0  0  0
   11.3672  -17.7207   22.5149 C   0  0  0  0  0  0  0  0  0  0  0  0
   12.6431  -17.8821   21.7808 C   0  0  0  0  0  0  0  0  0  0  0  0
   12.3945  -17.5603   20.2736 C   0  0  0  0  0  0  0  0  0  0  0  0
   13.6340  -17.6600   19.5619 N   0  0  0  0  0  0  0  0  0  0  0  0
   10.2530  -17.8408   26.2071 C   0  0  0  0  0  0  0  0  0  0  0  0
   10.2888  -16.7295   26.8596 O   0  0  0  0  0  0  0  0  0  0  0  0
   10.3189  -18.9438   27.0128 O   0  0  0  0  0  0  0  0  0  0  0  0
  2  1  1  6
  2  3  1  0
  3  4  1  0
  5  2  1  0
  5  6  2  0
  7  8  1  0
  8  9  1  0
  9 10  1  0
 11 10  1  1
 11 12  1  0
 11 13  1  0
 12  5  1  0
 13 15  1  0
 13 14  2  0
 15 16  1  0
 16 22  1  0
 16 17  1  6
 18 17  1  0
 18 19  1  0
 19 20  1  0
 21 20  1  0
 22 23  2  0
 22 24  1  0
M  END
$$$$
