CMK.pdb
     RDKit          3D

 24 23  0  0  1  0  0  0  0  0999 V2000
    7.5941  -14.0962   19.3217 N   0  0  0  0  0  0  0  0  0  0  0  0
    7.0781  -14.7145   20.5005 C   0  0  1  0  0  0  0  0  0  0  0  0
    6.8050  -16.1978   20.3066 C   0  0  0  0  0  0  0  0  0  0  0  0
    6.2319  -16.9488   21.8527 S   0  0  0  0  0  0  0  0  0  0  0  0
    7.9746  -14.5920   21.6698 C   0  0  0  0  0  0  0  0  0  0  0  0
    9.2144  -14.7639   21.4417 O   0  0  0  0  0  0  0  0  0  0  0  0
    6.8885  -12.5625   28.0814 C   0  0  0  0  0  0  0  0  0  0  0  0
    5.8899  -12.2111   26.5934 S   0  0  0  0  0  0  0  0  0  0  0  0
    6.4157  -13.3918   25.3092 C   0  0  0  0  0  0  0  0  0  0  0  0
    7.9201  -13.2309   25.1463 C   0  0  0  0  0  0  0  0  0  0  0  0
    8.4387  -14.1019   24.0260 C   0  0  2  0  0  0  0  0  0  0  0  0
    7.4984  -14.3011   22.9733 N   0  0  0  0  0  0  0  0  0  0  0  0
    8.7139  -15.4438   24.6540 C   0  0  0  0  0  0  0  0  0  0  0  0
    7.7672  -16.2897   24.8075 O   0  0  0  0  0  0  0  0  0  0  0  0
    9.9834  -15.8174   25.0872 N   0  0  0  0  0  0  0  0  0  0  0  0
   10.1838  -17.2490   25.5703 C   0  0  1  0  0  0  0  0  0  0  0  0
   11.4455  -17.6057   24.8749 C   0  0  0  0  0  0  0  0  0  0  0  0
   11.3959  -18.1901   23.5521 C   0  0  0  0  0  0  0  0  0  0  0  0
   12.6846  -18.5245   22.9037 C   0  0  0  0  0  0  0  0  0  0  0  0
   12.3965  -19.0322   21.4558 C   0  0  0  0  0  0  0  0  0  0  0  0
   13.6362  -19.3690   20.8213 N   0  0  0  0  0  0  0  0  0  0  0  0
   10.2426  -17.0675   27.0367 C   0  0  0  0  0  0  0  0  0  0  0  0
   10.2428  -18.1296   27.7676 O   0  0  0  0  0  0  0  0  0  0  0  0
   10.3054  -15.9107   27.7633 O   0  0  0  0  0  0  0  0  0  0  0  0
  2  1  1  6
  2  3  1  0
  3  4  1  0
  5  2  1  0
  5  6  2  0
  7  8  1  0
  8  9  1  0
  9 10  1  0
 11 10  1  1
 11 12  1  0
 11 13  1  0
 12  5  1  0
 13 15  1  0
 13 14  2  0
 15 16  1  0
 16 22  1  0
 16 17  1  6
 18 17  1  0
 18 19  1  0
 19 20  1  0
 21 20  1  0
 22 23  2  0
 22 24  1  0
M  END
$$$$
