CMK.pdb
     RDKit          3D

 24 23  0  0  1  0  0  0  0  0999 V2000
    8.1583  -15.6494   20.1522 N   0  0  0  0  0  0  0  0  0  0  0  0
    7.4594  -16.2155   21.2609 C   0  0  1  0  0  0  0  0  0  0  0  0
    7.2838  -17.7203   21.1300 C   0  0  0  0  0  0  0  0  0  0  0  0
    6.3823  -18.3840   22.5546 S   0  0  0  0  0  0  0  0  0  0  0  0
    8.1214  -15.9716   22.5603 C   0  0  0  0  0  0  0  0  0  0  0  0
    9.3712  -16.2060   22.6015 O   0  0  0  0  0  0  0  0  0  0  0  0
    6.1647  -10.4086   26.3116 C   0  0  0  0  0  0  0  0  0  0  0  0
    6.4642  -12.1160   26.8857 S   0  0  0  0  0  0  0  0  0  0  0  0
    7.0111  -13.0759   25.4368 C   0  0  0  0  0  0  0  0  0  0  0  0
    7.3519  -14.4737   25.9323 C   0  0  0  0  0  0  0  0  0  0  0  0
    8.1476  -15.2349   24.8977 C   0  0  2  0  0  0  0  0  0  0  0  0
    7.4210  -15.5049   23.7014 N   0  0  0  0  0  0  0  0  0  0  0  0
    8.4809  -16.5570   25.5392 C   0  0  0  0  0  0  0  0  0  0  0  0
    7.5868  -17.4651   25.6460 O   0  0  0  0  0  0  0  0  0  0  0  0
    9.7497  -16.8457   26.0349 N   0  0  0  0  0  0  0  0  0  0  0  0
    9.9605  -18.1863   26.7289 C   0  0  1  0  0  0  0  0  0  0  0  0
   10.7501  -18.9122   25.7031 C   0  0  0  0  0  0  0  0  0  0  0  0
   12.1368  -18.5618   25.4838 C   0  0  0  0  0  0  0  0  0  0  0  0
   12.9162  -19.4072   24.5506 C   0  0  0  0  0  0  0  0  0  0  0  0
   14.3753  -18.8563   24.4801 C   0  0  0  0  0  0  0  0  0  0  0  0
   15.1223  -19.6268   23.5308 N   0  0  0  0  0  0  0  0  0  0  0  0
   10.6618  -17.7793   27.9655 C   0  0  0  0  0  0  0  0  0  0  0  0
   11.0674  -18.7150   28.7543 O   0  0  0  0  0  0  0  0  0  0  0  0
   10.9634  -16.5237   28.4157 O   0  0  0  0  0  0  0  0  0  0  0  0
  2  1  1  6
  2  3  1  0
  3  4  1  0
  5  2  1  0
  5  6  2  0
  7  8  1  0
  8  9  1  0
  9 10  1  0
 11 10  1  1
 11 12  1  0
 11 13  1  0
 12  5  1  0
 13 15  1  0
 13 14  2  0
 15 16  1  0
 16 22  1  0
 16 17  1  6
 18 17  1  0
 18 19  1  0
 19 20  1  0
 21 20  1  0
 22 23  2  0
 22 24  1  0
M  END
$$$$
