CMK.pdb
     RDKit          3D

 24 23  0  0  1  0  0  0  0  0999 V2000
    9.1731  -18.0784   15.7129 N   0  0  0  0  0  0  0  0  0  0  0  0
    8.2929  -17.9073   16.8239 C   0  0  1  0  0  0  0  0  0  0  0  0
    7.6271  -19.2084   17.2435 C   0  0  0  0  0  0  0  0  0  0  0  0
    7.8502  -20.4789   15.9711 S   0  0  0  0  0  0  0  0  0  0  0  0
    8.9602  -17.3596   18.0243 C   0  0  0  0  0  0  0  0  0  0  0  0
   10.1899  -17.0620   17.8911 O   0  0  0  0  0  0  0  0  0  0  0  0
    7.0952  -11.4659   20.4324 C   0  0  0  0  0  0  0  0  0  0  0  0
    7.8316  -12.8990   21.2919 S   0  0  0  0  0  0  0  0  0  0  0  0
    7.3928  -14.3808   20.3268 C   0  0  0  0  0  0  0  0  0  0  0  0
    7.9140  -15.5844   21.0982 C   0  0  0  0  0  0  0  0  0  0  0  0
    8.8985  -16.3739   20.2674 C   0  0  2  0  0  0  0  0  0  0  0  0
    8.2855  -17.1710   19.2570 N   0  0  0  0  0  0  0  0  0  0  0  0
    9.5834  -17.3061   21.2332 C   0  0  0  0  0  0  0  0  0  0  0  0
    8.9835  -18.3551   21.6515 O   0  0  0  0  0  0  0  0  0  0  0  0
   10.8728  -17.0743   21.7050 N   0  0  0  0  0  0  0  0  0  0  0  0
   11.4988  -18.1175   22.6231 C   0  0  1  0  0  0  0  0  0  0  0  0
   12.9030  -18.1077   22.1425 C   0  0  0  0  0  0  0  0  0  0  0  0
   13.8072  -19.1631   22.5455 C   0  0  0  0  0  0  0  0  0  0  0  0
   15.2191  -19.0562   22.1119 C   0  0  0  0  0  0  0  0  0  0  0  0
   16.0343  -20.2066   22.7822 C   0  0  0  0  0  0  0  0  0  0  0  0
   17.3442  -20.2524   22.2034 N   0  0  0  0  0  0  0  0  0  0  0  0
   11.2327  -17.5426   23.9593 C   0  0  0  0  0  0  0  0  0  0  0  0
   11.0107  -16.2744   24.0271 O   0  0  0  0  0  0  0  0  0  0  0  0
   11.1769  -18.1673   25.1744 O   0  0  0  0  0  0  0  0  0  0  0  0
  2  1  1  6
  2  3  1  0
  3  4  1  0
  5  2  1  0
  5  6  2  0
  7  8  1  0
  8  9  1  0
  9 10  1  0
 11 10  1  1
 11 12  1  0
 11 13  1  0
 12  5  1  0
 13 15  1  0
 13 14  2  0
 15 16  1  0
 16 22  1  0
 16 17  1  6
 18 17  1  0
 18 19  1  0
 19 20  1  0
 21 20  1  0
 22 23  2  0
 22 24  1  0
M  END
$$$$
