CMK.pdb
     RDKit          3D

 24 23  0  0  1  0  0  0  0  0999 V2000
    9.0013  -15.7852   19.0893 N   0  0  0  0  0  0  0  0  0  0  0  0
    7.9244  -15.5310   19.9914 C   0  0  1  0  0  0  0  0  0  0  0  0
    6.9775  -16.7146   20.1141 C   0  0  0  0  0  0  0  0  0  0  0  0
    7.8848  -18.2121   20.5801 S   0  0  0  0  0  0  0  0  0  0  0  0
    8.3705  -15.1941   21.3602 C   0  0  0  0  0  0  0  0  0  0  0  0
    9.5844  -15.4608   21.6320 O   0  0  0  0  0  0  0  0  0  0  0  0
    7.3191  -11.6522   28.3011 C   0  0  0  0  0  0  0  0  0  0  0  0
    6.5480  -12.0672   26.6986 S   0  0  0  0  0  0  0  0  0  0  0  0
    7.7110  -13.1566   25.8152 C   0  0  0  0  0  0  0  0  0  0  0  0
    7.1189  -13.4154   24.4376 C   0  0  0  0  0  0  0  0  0  0  0  0
    8.0269  -14.3011   23.6166 C   0  0  2  0  0  0  0  0  0  0  0  0
    7.5108  -14.6089   22.3240 N   0  0  0  0  0  0  0  0  0  0  0  0
    8.1331  -15.5921   24.3865 C   0  0  0  0  0  0  0  0  0  0  0  0
    7.3502  -16.5675   24.1200 O   0  0  0  0  0  0  0  0  0  0  0  0
    9.0677  -15.7796   25.4015 N   0  0  0  0  0  0  0  0  0  0  0  0
    9.5043  -17.2048   25.7200 C   0  0  1  0  0  0  0  0  0  0  0  0
   10.3358  -17.5158   24.5306 C   0  0  0  0  0  0  0  0  0  0  0  0
   11.1182  -18.7326   24.4997 C   0  0  0  0  0  0  0  0  0  0  0  0
   11.9503  -18.9802   23.3000 C   0  0  0  0  0  0  0  0  0  0  0  0
   12.7998  -20.2677   23.5402 C   0  0  0  0  0  0  0  0  0  0  0  0
   13.5037  -20.5968   22.3364 N   0  0  0  0  0  0  0  0  0  0  0  0
   10.2031  -17.0253   27.0109 C   0  0  0  0  0  0  0  0  0  0  0  0
   10.6374  -15.8445   27.2924 O   0  0  0  0  0  0  0  0  0  0  0  0
   10.4640  -17.9451   27.9885 O   0  0  0  0  0  0  0  0  0  0  0  0
  2  1  1  6
  2  3  1  0
  3  4  1  0
  5  2  1  0
  5  6  2  0
  7  8  1  0
  8  9  1  0
  9 10  1  0
 11 10  1  1
 11 12  1  0
 11 13  1  0
 12  5  1  0
 13 15  1  0
 13 14  2  0
 15 16  1  0
 16 22  1  0
 16 17  1  6
 18 17  1  0
 18 19  1  0
 19 20  1  0
 21 20  1  0
 22 23  2  0
 22 24  1  0
M  END
$$$$
