CMK.pdb
     RDKit          3D

 24 23  0  0  1  0  0  0  0  0999 V2000
    9.7274  -17.3752   20.5934 N   0  0  0  0  0  0  0  0  0  0  0  0
    8.5557  -16.7671   21.1369 C   0  0  1  0  0  0  0  0  0  0  0  0
    7.4495  -17.7752   21.4063 C   0  0  0  0  0  0  0  0  0  0  0  0
    7.8562  -18.8002   22.8439 S   0  0  0  0  0  0  0  0  0  0  0  0
    8.8003  -16.0485   22.4057 C   0  0  0  0  0  0  0  0  0  0  0  0
   10.0023  -16.0474   22.8225 O   0  0  0  0  0  0  0  0  0  0  0  0
    6.5338  -10.6534   27.6405 C   0  0  0  0  0  0  0  0  0  0  0  0
    5.9781  -11.8020   26.3342 S   0  0  0  0  0  0  0  0  0  0  0  0
    7.4103  -12.8379   25.8924 C   0  0  0  0  0  0  0  0  0  0  0  0
    7.0535  -13.5637   24.6034 C   0  0  0  0  0  0  0  0  0  0  0  0
    8.1156  -14.5753   24.2409 C   0  0  2  0  0  0  0  0  0  0  0  0
    7.7694  -15.3949   23.1271 N   0  0  0  0  0  0  0  0  0  0  0  0
    8.2461  -15.4711   25.4455 C   0  0  0  0  0  0  0  0  0  0  0  0
    8.5315  -14.9754   26.5893 O   0  0  0  0  0  0  0  0  0  0  0  0
    8.0661  -16.8499   25.3716 N   0  0  0  0  0  0  0  0  0  0  0  0
    8.1428  -17.6534   26.6646 C   0  0  1  0  0  0  0  0  0  0  0  0
    7.4294  -18.8928   26.2674 C   0  0  0  0  0  0  0  0  0  0  0  0
    7.4348  -20.0388   27.1507 C   0  0  0  0  0  0  0  0  0  0  0  0
    6.7878  -21.2792   26.6652 C   0  0  0  0  0  0  0  0  0  0  0  0
    6.8937  -22.3657   27.7812 C   0  0  0  0  0  0  0  0  0  0  0  0
    8.2760  -22.6476   28.0319 N   0  0  0  0  0  0  0  0  0  0  0  0
    9.6034  -17.7468   26.8759 C   0  0  0  0  0  0  0  0  0  0  0  0
   10.0139  -18.0716   28.0541 O   0  0  0  0  0  0  0  0  0  0  0  0
   10.6212  -17.5418   25.9858 O   0  0  0  0  0  0  0  0  0  0  0  0
  2  1  1  1
  2  3  1  0
  3  4  1  0
  5  2  1  0
  5  6  2  0
  7  8  1  0
  8  9  1  0
  9 10  1  0
 11 10  1  1
 11 12  1  0
 11 13  1  0
 12  5  1  0
 13 15  1  0
 13 14  2  0
 15 16  1  0
 16 22  1  0
 16 17  1  6
 18 17  1  0
 18 19  1  0
 19 20  1  0
 21 20  1  0
 22 23  2  0
 22 24  1  0
M  END
$$$$
