CMK.pdb
     RDKit          3D

 24 23  0  0  1  0  0  0  0  0999 V2000
    6.8358  -15.3383   20.4144 N   0  0  0  0  0  0  0  0  0  0  0  0
    8.1057  -14.6886   20.4742 C   0  0  1  0  0  0  0  0  0  0  0  0
    8.0956  -13.3294   19.7924 C   0  0  0  0  0  0  0  0  0  0  0  0
    7.5004  -13.4749   18.0873 S   0  0  0  0  0  0  0  0  0  0  0  0
    8.5923  -14.4737   21.8538 C   0  0  0  0  0  0  0  0  0  0  0  0
    9.7908  -14.0616   21.9639 O   0  0  0  0  0  0  0  0  0  0  0  0
    7.2163  -11.4668   27.6022 C   0  0  0  0  0  0  0  0  0  0  0  0
    5.8902  -12.1670   26.5602 S   0  0  0  0  0  0  0  0  0  0  0  0
    6.6746  -12.7519   25.0232 C   0  0  0  0  0  0  0  0  0  0  0  0
    7.2983  -14.1057   25.3295 C   0  0  0  0  0  0  0  0  0  0  0  0
    8.3326  -14.4718   24.2909 C   0  0  2  0  0  0  0  0  0  0  0  0
    7.7854  -14.7076   22.9959 N   0  0  0  0  0  0  0  0  0  0  0  0
    8.9456  -15.7621   24.7708 C   0  0  0  0  0  0  0  0  0  0  0  0
    8.1995  -16.7507   25.0889 O   0  0  0  0  0  0  0  0  0  0  0  0
   10.3223  -15.9346   24.8879 N   0  0  0  0  0  0  0  0  0  0  0  0
   10.8687  -17.3575   24.8948 C   0  0  1  0  0  0  0  0  0  0  0  0
   10.5073  -17.8033   23.5261 C   0  0  0  0  0  0  0  0  0  0  0  0
   10.9534  -19.0951   23.0505 C   0  0  0  0  0  0  0  0  0  0  0  0
   10.0881  -20.2634   23.3323 C   0  0  0  0  0  0  0  0  0  0  0  0
   10.7125  -21.5213   22.6504 C   0  0  0  0  0  0  0  0  0  0  0  0
    9.8364  -22.6396   22.8370 N   0  0  0  0  0  0  0  0  0  0  0  0
   12.3016  -17.1295   25.1803 C   0  0  0  0  0  0  0  0  0  0  0  0
   12.9958  -18.1393   25.5809 O   0  0  0  0  0  0  0  0  0  0  0  0
   13.0318  -15.9779   25.0765 O   0  0  0  0  0  0  0  0  0  0  0  0
  2  1  1  1
  2  3  1  0
  3  4  1  0
  5  2  1  0
  5  6  2  0
  7  8  1  0
  8  9  1  0
  9 10  1  0
 11 10  1  1
 11 12  1  0
 11 13  1  0
 12  5  1  0
 13 15  1  0
 13 14  2  0
 15 16  1  0
 16 22  1  0
 16 17  1  6
 18 17  1  0
 18 19  1  0
 19 20  1  0
 21 20  1  0
 22 23  2  0
 22 24  1  0
M  END
$$$$
