CMK.pdb
     RDKit          3D

 24 23  0  0  1  0  0  0  0  0999 V2000
    8.2417  -14.9763   19.6368 N   0  0  0  0  0  0  0  0  0  0  0  0
    7.5903  -15.5568   20.7668 C   0  0  1  0  0  0  0  0  0  0  0  0
    7.4655  -17.0680   20.6527 C   0  0  0  0  0  0  0  0  0  0  0  0
    6.5644  -17.7430   22.0722 S   0  0  0  0  0  0  0  0  0  0  0  0
    8.2741  -15.2777   22.0477 C   0  0  0  0  0  0  0  0  0  0  0  0
    9.5439  -15.2163   21.9995 O   0  0  0  0  0  0  0  0  0  0  0  0
    5.4514  -11.6342   27.3169 C   0  0  0  0  0  0  0  0  0  0  0  0
    7.1963  -11.8598   26.8279 S   0  0  0  0  0  0  0  0  0  0  0  0
    7.1926  -12.7632   25.2457 C   0  0  0  0  0  0  0  0  0  0  0  0
    7.4976  -14.2195   25.5643 C   0  0  0  0  0  0  0  0  0  0  0  0
    8.3118  -14.8550   24.4616 C   0  0  2  0  0  0  0  0  0  0  0  0
    7.5726  -15.0874   23.2651 N   0  0  0  0  0  0  0  0  0  0  0  0
    8.7432  -16.1944   25.0007 C   0  0  0  0  0  0  0  0  0  0  0  0
    7.8896  -17.1354   25.1469 O   0  0  0  0  0  0  0  0  0  0  0  0
   10.0618  -16.4644   25.3572 N   0  0  0  0  0  0  0  0  0  0  0  0
   10.3917  -17.8564   25.8833 C   0  0  1  0  0  0  0  0  0  0  0  0
   11.5297  -18.2258   25.0050 C   0  0  0  0  0  0  0  0  0  0  0  0
   11.2837  -18.9553   23.7798 C   0  0  0  0  0  0  0  0  0  0  0  0
   12.4588  -19.3344   22.9622 C   0  0  0  0  0  0  0  0  0  0  0  0
   11.9535  -19.9405   21.6152 C   0  0  0  0  0  0  0  0  0  0  0  0
   13.0810  -20.2412   20.7837 N   0  0  0  0  0  0  0  0  0  0  0  0
   10.6911  -17.5790   27.3046 C   0  0  0  0  0  0  0  0  0  0  0  0
   11.9178  -17.3341   27.6168 O   0  0  0  0  0  0  0  0  0  0  0  0
    9.8411  -17.5336   28.3749 O   0  0  0  0  0  0  0  0  0  0  0  0
  2  1  1  6
  2  3  1  0
  3  4  1  0
  5  2  1  0
  5  6  2  0
  7  8  1  0
  8  9  1  0
  9 10  1  0
 11 10  1  1
 11 12  1  0
 11 13  1  0
 12  5  1  0
 13 15  1  0
 13 14  2  0
 15 16  1  0
 16 22  1  0
 16 17  1  6
 18 17  1  0
 18 19  1  0
 19 20  1  0
 21 20  1  0
 22 23  2  0
 22 24  1  0
M  END
$$$$
