CMK.pdb
     RDKit          3D

 24 23  0  0  1  0  0  0  0  0999 V2000
    6.3453  -16.7214   20.2355 N   0  0  0  0  0  0  0  0  0  0  0  0
    6.0937  -16.9822   21.6163 C   0  0  1  0  0  0  0  0  0  0  0  0
    5.9357  -18.4663   21.9080 C   0  0  0  0  0  0  0  0  0  0  0  0
    5.4718  -18.7307   23.6394 S   0  0  0  0  0  0  0  0  0  0  0  0
    7.1559  -16.4789   22.5133 C   0  0  0  0  0  0  0  0  0  0  0  0
    8.3488  -16.6040   22.0891 O   0  0  0  0  0  0  0  0  0  0  0  0
    6.2941  -10.5821   26.3331 C   0  0  0  0  0  0  0  0  0  0  0  0
    7.0031  -12.1908   26.8272 S   0  0  0  0  0  0  0  0  0  0  0  0
    6.9056  -13.2840   25.3729 C   0  0  0  0  0  0  0  0  0  0  0  0
    7.5213  -14.6159   25.7757 C   0  0  0  0  0  0  0  0  0  0  0  0
    7.9614  -15.3977   24.5600 C   0  0  2  0  0  0  0  0  0  0  0  0
    6.8795  -15.8897   23.7730 N   0  0  0  0  0  0  0  0  0  0  0  0
    8.7146  -16.5871   25.0974 C   0  0  0  0  0  0  0  0  0  0  0  0
    8.0801  -17.5899   25.5739 O   0  0  0  0  0  0  0  0  0  0  0  0
   10.1057  -16.6487   25.1005 N   0  0  0  0  0  0  0  0  0  0  0  0
   10.7633  -17.9909   25.3994 C   0  0  1  0  0  0  0  0  0  0  0  0
   11.4623  -18.2526   24.1166 C   0  0  0  0  0  0  0  0  0  0  0  0
   11.2594  -19.5112   23.4321 C   0  0  0  0  0  0  0  0  0  0  0  0
   12.0135  -19.7365   22.1777 C   0  0  0  0  0  0  0  0  0  0  0  0
   11.7045  -21.1776   21.6630 C   0  0  0  0  0  0  0  0  0  0  0  0
   12.3381  -21.3678   20.3921 N   0  0  0  0  0  0  0  0  0  0  0  0
   11.5984  -17.6628   26.5750 C   0  0  0  0  0  0  0  0  0  0  0  0
   11.8891  -16.4220   26.7699 O   0  0  0  0  0  0  0  0  0  0  0  0
   12.1229  -18.4969   27.5233 O   0  0  0  0  0  0  0  0  0  0  0  0
  2  1  1  6
  2  3  1  0
  3  4  1  0
  5  2  1  0
  5  6  2  0
  7  8  1  0
  8  9  1  0
  9 10  1  0
 11 10  1  1
 11 12  1  0
 11 13  1  0
 12  5  1  0
 13 15  1  0
 13 14  2  0
 15 16  1  0
 16 22  1  0
 16 17  1  6
 18 17  1  0
 18 19  1  0
 19 20  1  0
 21 20  1  0
 22 23  2  0
 22 24  1  0
M  END
$$$$
