CMK.pdb
     RDKit          3D

 24 23  0  0  1  0  0  0  0  0999 V2000
    8.2158  -15.1762   19.4589 N   0  0  0  0  0  0  0  0  0  0  0  0
    7.5474  -15.6463   20.6295 C   0  0  1  0  0  0  0  0  0  0  0  0
    7.2836  -17.1433   20.5864 C   0  0  0  0  0  0  0  0  0  0  0  0
    5.7223  -17.4921   19.7358 S   0  0  0  0  0  0  0  0  0  0  0  0
    8.2900  -15.3768   21.8794 C   0  0  0  0  0  0  0  0  0  0  0  0
    9.5487  -15.5547   21.8289 O   0  0  0  0  0  0  0  0  0  0  0  0
    5.6297  -12.2945   27.2432 C   0  0  0  0  0  0  0  0  0  0  0  0
    7.1398  -11.6013   26.4856 S   0  0  0  0  0  0  0  0  0  0  0  0
    7.4287  -12.5200   24.9390 C   0  0  0  0  0  0  0  0  0  0  0  0
    7.7037  -13.9659   25.3253 C   0  0  0  0  0  0  0  0  0  0  0  0
    8.4480  -14.6870   24.2259 C   0  0  2  0  0  0  0  0  0  0  0  0
    7.6536  -14.9457   23.0708 N   0  0  0  0  0  0  0  0  0  0  0  0
    8.8467  -16.0157   24.8143 C   0  0  0  0  0  0  0  0  0  0  0  0
    7.9593  -16.9016   25.0652 O   0  0  0  0  0  0  0  0  0  0  0  0
   10.1704  -16.3342   25.1061 N   0  0  0  0  0  0  0  0  0  0  0  0
   10.4623  -17.7030   25.7098 C   0  0  1  0  0  0  0  0  0  0  0  0
   11.7624  -18.0210   25.0685 C   0  0  0  0  0  0  0  0  0  0  0  0
   11.8118  -18.3135   23.6522 C   0  0  0  0  0  0  0  0  0  0  0  0
   13.1477  -18.4741   23.0336 C   0  0  0  0  0  0  0  0  0  0  0  0
   12.9634  -18.6782   21.4968 C   0  0  0  0  0  0  0  0  0  0  0  0
   14.2501  -18.8369   20.8869 N   0  0  0  0  0  0  0  0  0  0  0  0
   10.4736  -17.3986   27.1569 C   0  0  0  0  0  0  0  0  0  0  0  0
   10.5889  -18.3907   27.9721 O   0  0  0  0  0  0  0  0  0  0  0  0
   10.3843  -16.1882   27.7870 O   0  0  0  0  0  0  0  0  0  0  0  0
  2  1  1  6
  2  3  1  0
  3  4  1  0
  5  2  1  0
  5  6  2  0
  7  8  1  0
  8  9  1  0
  9 10  1  0
 11 10  1  1
 11 12  1  0
 11 13  1  0
 12  5  1  0
 13 15  1  0
 13 14  2  0
 15 16  1  0
 16 22  1  0
 16 17  1  6
 18 17  1  0
 18 19  1  0
 19 20  1  0
 21 20  1  0
 22 23  2  0
 22 24  1  0
M  END
$$$$
