NQM.pdb
     RDKit          3D

 26 25  0  0  1  0  0  0  0  0999 V2000
   10.3354  -20.7218   20.6619 N   0  0  0  0  0  0  0  0  0  0  0  0
   10.4376  -20.2765   19.3055 C   0  0  0  0  0  0  0  0  0  0  0  0
   10.6616  -21.0787   18.3852 O   0  0  0  0  0  0  0  0  0  0  0  0
   10.2670  -18.8300   19.0431 C   0  0  0  0  0  0  0  0  0  0  0  0
    9.1292  -18.3292   19.9040 C   0  0  2  0  0  0  0  0  0  0  0  0
    8.0007  -18.0984   19.0543 N   0  0  0  0  0  0  0  0  0  0  0  0
    9.5347  -17.1163   20.6588 C   0  0  0  0  0  0  0  0  0  0  0  0
   10.7632  -16.8624   20.7345 O   0  0  0  0  0  0  0  0  0  0  0  0
    8.3488  -12.2597   18.5185 N   0  0  0  0  0  0  0  0  0  0  0  0
    8.0610  -13.5430   17.9800 C   0  0  0  0  0  0  0  0  0  0  0  0
    8.0285  -13.7563   16.7481 O   0  0  0  0  0  0  0  0  0  0  0  0
    7.7914  -14.6571   18.9152 C   0  0  0  0  0  0  0  0  0  0  0  0
    7.7673  -14.2596   20.3397 C   0  0  0  0  0  0  0  0  0  0  0  0
    8.8219  -14.8004   21.2352 C   0  0  2  0  0  0  0  0  0  0  0  0
    8.5804  -16.2723   21.2730 N   0  0  0  0  0  0  0  0  0  0  0  0
    8.7820  -14.3814   22.6333 C   0  0  0  0  0  0  0  0  0  0  0  0
    8.8119  -13.1550   23.0055 O   0  0  0  0  0  0  0  0  0  0  0  0
    6.3113  -11.1921   26.7746 C   0  0  0  0  0  0  0  0  0  0  0  0
    7.5871  -12.4170   27.1474 S   0  0  0  0  0  0  0  0  0  0  0  0
    6.9429  -14.0815   26.7679 C   0  0  0  0  0  0  0  0  0  0  0  0
    7.1842  -14.4479   25.3423 C   0  0  0  0  0  0  0  0  0  0  0  0
    8.5947  -14.8837   25.0719 C   0  0  2  0  0  0  0  0  0  0  0  0
    8.7029  -15.3202   23.6753 N   0  0  0  0  0  0  0  0  0  0  0  0
    8.9157  -16.0420   25.9310 C   0  0  0  0  0  0  0  0  0  0  0  0
    9.0212  -17.2358   25.5042 O   0  0  0  0  0  0  0  0  0  0  0  0
    9.1270  -15.8697   27.3105 O   0  0  0  0  0  0  0  0  0  0  0  0
  2  3  2  0
  2  1  1  0
  4  2  1  0
  5  4  1  0
  5  7  1  0
  5  6  1  6
  7  8  2  0
  9 10  1  0
 10 12  1  0
 11 10  2  0
 13 12  1  0
 14 13  1  6
 15 14  1  0
 15  7  1  0
 16 14  1  0
 16 17  2  0
 18 19  1  0
 19 20  1  0
 20 21  1  0
 22 21  1  1
 22 23  1  0
 22 24  1  0
 23 16  1  0
 24 26  1  0
 25 24  2  0
M  END
$$$$
