NQM.pdb
     RDKit          3D

 26 25  0  0  1  0  0  0  0  0999 V2000
    7.3848  -12.5146   18.2814 N   0  0  0  0  0  0  0  0  0  0  0  0
    8.4905  -13.2329   18.8382 C   0  0  0  0  0  0  0  0  0  0  0  0
    9.5566  -13.3488   18.2132 O   0  0  0  0  0  0  0  0  0  0  0  0
    8.3153  -13.8295   20.1812 C   0  0  0  0  0  0  0  0  0  0  0  0
    8.4584  -15.3291   20.0494 C   0  0  2  0  0  0  0  0  0  0  0  0
    7.3365  -15.8164   19.3061 N   0  0  0  0  0  0  0  0  0  0  0  0
    8.5796  -15.9657   21.3857 C   0  0  0  0  0  0  0  0  0  0  0  0
    7.5216  -16.1576   22.0363 O   0  0  0  0  0  0  0  0  0  0  0  0
   10.7978  -20.4237   24.5096 N   0  0  0  0  0  0  0  0  0  0  0  0
   10.5612  -20.4906   23.1098 C   0  0  0  0  0  0  0  0  0  0  0  0
   10.1949  -21.5451   22.5459 O   0  0  0  0  0  0  0  0  0  0  0  0
   10.7581  -19.2677   22.3010 C   0  0  0  0  0  0  0  0  0  0  0  0
   10.9752  -18.0418   23.0998 C   0  0  0  0  0  0  0  0  0  0  0  0
    9.8539  -17.0745   23.2161 C   0  0  2  0  0  0  0  0  0  0  0  0
    9.8351  -16.3451   21.9145 N   0  0  0  0  0  0  0  0  0  0  0  0
    9.9842  -16.0283   24.2263 C   0  0  0  0  0  0  0  0  0  0  0  0
   10.7097  -14.9826   24.0723 O   0  0  0  0  0  0  0  0  0  0  0  0
    6.0242  -11.7077   26.1811 C   0  0  0  0  0  0  0  0  0  0  0  0
    6.4035  -12.5177   27.7519 S   0  0  0  0  0  0  0  0  0  0  0  0
    8.0453  -13.3050   27.6342 C   0  0  0  0  0  0  0  0  0  0  0  0
    8.0700  -14.3604   26.5805 C   0  0  0  0  0  0  0  0  0  0  0  0
    9.4071  -15.0275   26.4396 C   0  0  2  0  0  0  0  0  0  0  0  0
    9.3030  -16.1077   25.4522 N   0  0  0  0  0  0  0  0  0  0  0  0
    9.7824  -15.6352   27.7329 C   0  0  0  0  0  0  0  0  0  0  0  0
    9.7928  -16.8882   27.9529 O   0  0  0  0  0  0  0  0  0  0  0  0
   10.1594  -14.8251   28.8188 O   0  0  0  0  0  0  0  0  0  0  0  0
  2  3  2  0
  2  1  1  0
  4  2  1  0
  5  4  1  0
  5  7  1  0
  5  6  1  1
  7  8  2  0
  9 10  1  0
 10 12  1  0
 11 10  2  0
 13 12  1  0
 14 13  1  6
 15 14  1  0
 15  7  1  0
 16 14  1  0
 16 17  2  0
 18 19  1  0
 19 20  1  0
 20 21  1  0
 22 21  1  1
 22 23  1  0
 22 24  1  0
 23 16  1  0
 24 26  1  0
 25 24  2  0
M  END
$$$$
