NQM.pdb
     RDKit          3D

 26 25  0  0  1  0  0  0  0  0999 V2000
    7.9043  -12.2530   17.0684 N   0  0  0  0  0  0  0  0  0  0  0  0
    7.9245  -13.6831   17.0146 C   0  0  0  0  0  0  0  0  0  0  0  0
    8.2382  -14.2785   15.9717 O   0  0  0  0  0  0  0  0  0  0  0  0
    7.5588  -14.4216   18.2439 C   0  0  0  0  0  0  0  0  0  0  0  0
    8.7562  -14.4149   19.1675 C   0  0  2  0  0  0  0  0  0  0  0  0
    9.9087  -14.7762   18.3995 N   0  0  0  0  0  0  0  0  0  0  0  0
    8.5333  -15.3186   20.3247 C   0  0  0  0  0  0  0  0  0  0  0  0
    7.4193  -15.2584   20.9032 O   0  0  0  0  0  0  0  0  0  0  0  0
   12.1732  -20.1709   20.4999 N   0  0  0  0  0  0  0  0  0  0  0  0
   10.8512  -20.3644   20.9843 C   0  0  0  0  0  0  0  0  0  0  0  0
   10.4641  -21.4615   21.4435 O   0  0  0  0  0  0  0  0  0  0  0  0
    9.9086  -19.2252   20.9394 C   0  0  0  0  0  0  0  0  0  0  0  0
   10.1931  -18.1643   21.9301 C   0  0  0  0  0  0  0  0  0  0  0  0
    9.2642  -17.0075   22.0031 C   0  0  2  0  0  0  0  0  0  0  0  0
    9.5322  -16.2169   20.7663 N   0  0  0  0  0  0  0  0  0  0  0  0
    9.4671  -16.0637   23.0985 C   0  0  0  0  0  0  0  0  0  0  0  0
   10.5491  -15.3969   23.2665 O   0  0  0  0  0  0  0  0  0  0  0  0
    6.2349  -10.6163   27.5886 C   0  0  0  0  0  0  0  0  0  0  0  0
    5.9867  -11.9655   26.4117 S   0  0  0  0  0  0  0  0  0  0  0  0
    7.5269  -12.9356   26.2851 C   0  0  0  0  0  0  0  0  0  0  0  0
    7.4224  -13.9907   25.2360 C   0  0  0  0  0  0  0  0  0  0  0  0
    8.6597  -14.8316   25.1144 C   0  0  2  0  0  0  0  0  0  0  0  0
    8.4634  -15.8237   24.0514 N   0  0  0  0  0  0  0  0  0  0  0  0
    8.8722  -15.5643   26.3795 C   0  0  0  0  0  0  0  0  0  0  0  0
    8.6085  -16.7986   26.5388 O   0  0  0  0  0  0  0  0  0  0  0  0
    9.3954  -14.9051   27.5061 O   0  0  0  0  0  0  0  0  0  0  0  0
  2  3  2  0
  2  1  1  0
  4  2  1  0
  5  4  1  0
  5  7  1  0
  5  6  1  6
  7  8  2  0
  9 10  1  0
 10 12  1  0
 11 10  2  0
 13 12  1  0
 14 13  1  1
 15 14  1  0
 15  7  1  0
 16 14  1  0
 16 17  2  0
 18 19  1  0
 19 20  1  0
 20 21  1  0
 22 21  1  1
 22 23  1  0
 22 24  1  0
 23 16  1  0
 24 26  1  0
 25 24  2  0
M  END
$$$$
