NQM.pdb
     RDKit          3D

 26 25  0  0  1  0  0  0  0  0999 V2000
   11.3650  -20.3443   19.1657 N   0  0  0  0  0  0  0  0  0  0  0  0
   10.2920  -19.7225   18.4513 C   0  0  0  0  0  0  0  0  0  0  0  0
   10.4989  -19.1182   17.3870 O   0  0  0  0  0  0  0  0  0  0  0  0
    8.9325  -19.8268   19.0270 C   0  0  0  0  0  0  0  0  0  0  0  0
    9.0318  -19.5620   20.5125 C   0  0  2  0  0  0  0  0  0  0  0  0
    7.8001  -19.9693   21.1172 N   0  0  0  0  0  0  0  0  0  0  0  0
    9.3528  -18.1356   20.7726 C   0  0  0  0  0  0  0  0  0  0  0  0
   10.5357  -17.7603   20.5741 O   0  0  0  0  0  0  0  0  0  0  0  0
    7.3536  -11.5846   19.2105 N   0  0  0  0  0  0  0  0  0  0  0  0
    7.9863  -12.8565   19.2513 C   0  0  0  0  0  0  0  0  0  0  0  0
    8.4266  -13.4147   18.2223 O   0  0  0  0  0  0  0  0  0  0  0  0
    8.1236  -13.5354   20.5584 C   0  0  0  0  0  0  0  0  0  0  0  0
    8.0156  -15.0090   20.4896 C   0  0  0  0  0  0  0  0  0  0  0  0
    8.7847  -15.8139   21.4732 C   0  0  2  0  0  0  0  0  0  0  0  0
    8.3699  -17.2259   21.2269 N   0  0  0  0  0  0  0  0  0  0  0  0
    8.4977  -15.5835   22.8861 C   0  0  0  0  0  0  0  0  0  0  0  0
    7.4492  -16.0261   23.4763 O   0  0  0  0  0  0  0  0  0  0  0  0
    6.4012  -11.0998   26.6820 C   0  0  0  0  0  0  0  0  0  0  0  0
    5.8317  -12.8090   26.8278 S   0  0  0  0  0  0  0  0  0  0  0  0
    7.2651  -13.9284   26.6811 C   0  0  0  0  0  0  0  0  0  0  0  0
    7.7045  -14.0692   25.2626 C   0  0  0  0  0  0  0  0  0  0  0  0
    9.0847  -14.6418   25.1227 C   0  0  2  0  0  0  0  0  0  0  0  0
    9.3764  -14.8494   23.6998 N   0  0  0  0  0  0  0  0  0  0  0  0
    9.1307  -15.9601   25.7880 C   0  0  0  0  0  0  0  0  0  0  0  0
    8.9648  -16.1316   27.0376 O   0  0  0  0  0  0  0  0  0  0  0  0
    9.3685  -17.1278   25.0413 O   0  0  0  0  0  0  0  0  0  0  0  0
  2  3  2  0
  2  1  1  0
  4  2  1  0
  5  4  1  0
  5  7  1  0
  5  6  1  1
  7  8  2  0
  9 10  1  0
 10 12  1  0
 11 10  2  0
 13 12  1  0
 14 13  1  6
 15 14  1  0
 15  7  1  0
 16 14  1  0
 16 17  2  0
 18 19  1  0
 19 20  1  0
 20 21  1  0
 22 21  1  6
 22 23  1  0
 22 24  1  0
 23 16  1  0
 24 26  1  0
 25 24  2  0
M  END
$$$$
