NQM.pdb
     RDKit          3D

 26 25  0  0  1  0  0  0  0  0999 V2000
    9.6228  -13.5880   18.5315 N   0  0  0  0  0  0  0  0  0  0  0  0
    8.2616  -13.9077   18.2261 C   0  0  0  0  0  0  0  0  0  0  0  0
    7.8475  -13.8862   17.0562 O   0  0  0  0  0  0  0  0  0  0  0  0
    7.3705  -14.2633   19.3530 C   0  0  0  0  0  0  0  0  0  0  0  0
    7.6237  -15.7105   19.7111 C   0  0  2  0  0  0  0  0  0  0  0  0
    7.1402  -16.5228   18.6363 N   0  0  0  0  0  0  0  0  0  0  0  0
    6.9930  -16.0488   21.0124 C   0  0  0  0  0  0  0  0  0  0  0  0
    5.9558  -15.4178   21.3372 O   0  0  0  0  0  0  0  0  0  0  0  0
    7.7615  -19.8114   26.6045 N   0  0  0  0  0  0  0  0  0  0  0  0
    7.3004  -20.2104   25.3209 C   0  0  0  0  0  0  0  0  0  0  0  0
    7.6687  -21.2778   24.7830 O   0  0  0  0  0  0  0  0  0  0  0  0
    6.3541  -19.3275   24.6044 C   0  0  0  0  0  0  0  0  0  0  0  0
    6.8863  -18.7652   23.3441 C   0  0  0  0  0  0  0  0  0  0  0  0
    6.8546  -17.2907   23.1670 C   0  0  2  0  0  0  0  0  0  0  0  0
    7.5328  -17.0428   21.8612 N   0  0  0  0  0  0  0  0  0  0  0  0
    7.6039  -16.4917   24.1323 C   0  0  0  0  0  0  0  0  0  0  0  0
    8.8845  -16.4644   24.1857 O   0  0  0  0  0  0  0  0  0  0  0  0
    6.9849   -9.8201   27.5383 C   0  0  0  0  0  0  0  0  0  0  0  0
    6.2349  -11.3479   26.9295 S   0  0  0  0  0  0  0  0  0  0  0  0
    7.3664  -12.7400   27.2626 C   0  0  0  0  0  0  0  0  0  0  0  0
    6.7699  -14.0407   26.8414 C   0  0  0  0  0  0  0  0  0  0  0  0
    7.7146  -14.8991   26.0520 C   0  0  2  0  0  0  0  0  0  0  0  0
    6.9492  -15.6851   25.0778 N   0  0  0  0  0  0  0  0  0  0  0  0
    8.3854  -15.8463   26.9661 C   0  0  0  0  0  0  0  0  0  0  0  0
    9.3668  -15.5376   27.7144 O   0  0  0  0  0  0  0  0  0  0  0  0
    7.9522  -17.1813   27.0531 O   0  0  0  0  0  0  0  0  0  0  0  0
  2  3  2  0
  2  1  1  0
  4  2  1  0
  5  4  1  0
  5  7  1  0
  5  6  1  6
  7  8  2  0
  9 10  1  0
 10 12  1  0
 11 10  2  0
 13 12  1  0
 14 13  1  1
 15 14  1  0
 15  7  1  0
 16 14  1  0
 16 17  2  0
 18 19  1  0
 19 20  1  0
 20 21  1  0
 22 21  1  1
 22 23  1  0
 22 24  1  0
 23 16  1  0
 24 26  1  0
 25 24  2  0
M  END
$$$$
