NQM.pdb
     RDKit          3D

 26 25  0  0  1  0  0  0  0  0999 V2000
   58.1897  -55.1965   17.4273 N   0  0  0  0  0  0  0  0  0  0  0  0
   58.1820  -54.1668   18.4214 C   0  0  0  0  0  0  0  0  0  0  0  0
   57.2897  -54.1172   19.2827 O   0  0  0  0  0  0  0  0  0  0  0  0
   59.2734  -53.1678   18.3836 C   0  0  0  0  0  0  0  0  0  0  0  0
   60.5254  -53.8609   17.8946 C   0  0  2  0  0  0  0  0  0  0  0  0
   60.2099  -54.5305   16.6695 N   0  0  0  0  0  0  0  0  0  0  0  0
   61.0552  -54.7833   18.9309 C   0  0  0  0  0  0  0  0  0  0  0  0
   60.2297  -55.3034   19.7231 O   0  0  0  0  0  0  0  0  0  0  0  0
   59.9718  -55.2267   21.6106 N   0  0  0  0  0  0  0  0  0  0  0  0
   60.8071  -56.3703   21.4923 C   0  0  0  0  0  0  0  0  0  0  0  0
   61.7184  -56.6171   22.3126 O   0  0  0  0  0  0  0  0  0  0  0  0
   60.5847  -57.2932   20.3577 C   0  0  0  0  0  0  0  0  0  0  0  0
   61.6651  -57.2825   19.3476 C   0  0  0  0  0  0  0  0  0  0  0  0
   62.8353  -56.3985   19.5836 C   0  0  2  0  0  0  0  0  0  0  0  0
   62.4361  -55.0716   19.0301 N   0  0  0  0  0  0  0  0  0  0  0  0
   64.0717  -56.7360   18.8843 C   0  0  0  0  0  0  0  0  0  0  0  0
   65.0261  -57.4056   19.4177 O   0  0  0  0  0  0  0  0  0  0  0  0
   65.4137  -61.7696   14.9627 C   0  0  0  0  0  0  0  0  0  0  0  0
   65.8653  -61.0301   16.5490 S   0  0  0  0  0  0  0  0  0  0  0  0
   66.2670  -59.2689   16.2916 C   0  0  0  0  0  0  0  0  0  0  0  0
   65.5269  -58.3952   17.2474 C   0  0  0  0  0  0  0  0  0  0  0  0
   65.3091  -57.0025   16.7322 C   0  0  2  0  0  0  0  0  0  0  0  0
   64.2901  -56.3402   17.5543 N   0  0  0  0  0  0  0  0  0  0  0  0
   64.7942  -57.0739   15.3493 C   0  0  0  0  0  0  0  0  0  0  0  0
   63.6041  -56.7705   15.0176 O   0  0  0  0  0  0  0  0  0  0  0  0
   65.6283  -57.4959   14.2988 O   0  0  0  0  0  0  0  0  0  0  0  0
  2  3  2  0
  2  1  1  0
  4  2  1  0
  5  4  1  0
  5  7  1  0
  5  6  1  6
  7  8  2  0
  9 10  1  0
 10 12  1  0
 11 10  2  0
 13 12  1  0
 14 13  1  6
 15 14  1  0
 15  7  1  0
 16 14  1  0
 16 17  2  0
 18 19  1  0
 19 20  1  0
 20 21  1  0
 22 21  1  1
 22 23  1  0
 22 24  1  0
 23 16  1  0
 24 26  1  0
 25 24  2  0
M  END
$$$$
