NQM.pdb
     RDKit          3D

 26 25  0  0  1  0  0  0  0  0999 V2000
    7.7153  -12.4185   16.6708 N   0  0  0  0  0  0  0  0  0  0  0  0
    7.9675  -13.8242   16.5766 C   0  0  0  0  0  0  0  0  0  0  0  0
    8.4504  -14.3187   15.5457 O   0  0  0  0  0  0  0  0  0  0  0  0
    7.6321  -14.6619   17.7497 C   0  0  0  0  0  0  0  0  0  0  0  0
    8.6970  -14.4430   18.8008 C   0  0  2  0  0  0  0  0  0  0  0  0
    9.9665  -14.7466   18.2136 N   0  0  0  0  0  0  0  0  0  0  0  0
    8.4171  -15.2569   20.0111 C   0  0  0  0  0  0  0  0  0  0  0  0
    7.2578  -15.2018   20.4933 O   0  0  0  0  0  0  0  0  0  0  0  0
   11.2829  -20.4297   21.8097 N   0  0  0  0  0  0  0  0  0  0  0  0
   12.0312  -19.2414   21.5912 C   0  0  0  0  0  0  0  0  0  0  0  0
   13.2714  -19.2553   21.4306 O   0  0  0  0  0  0  0  0  0  0  0  0
   11.3108  -17.9498   21.5549 C   0  0  0  0  0  0  0  0  0  0  0  0
    9.8552  -18.0613   21.7929 C   0  0  0  0  0  0  0  0  0  0  0  0
    9.0574  -16.8096   21.8503 C   0  0  2  0  0  0  0  0  0  0  0  0
    9.4122  -16.0669   20.6057 N   0  0  0  0  0  0  0  0  0  0  0  0
    9.3596  -15.8811   22.9358 C   0  0  0  0  0  0  0  0  0  0  0  0
   10.2743  -14.9856   22.8668 O   0  0  0  0  0  0  0  0  0  0  0  0
    6.4135  -10.5802   27.4885 C   0  0  0  0  0  0  0  0  0  0  0  0
    6.2247  -11.8695   26.2359 S   0  0  0  0  0  0  0  0  0  0  0  0
    7.6879  -12.9588   26.2779 C   0  0  0  0  0  0  0  0  0  0  0  0
    7.6229  -14.0011   25.2129 C   0  0  0  0  0  0  0  0  0  0  0  0
    8.8426  -14.8741   25.1612 C   0  0  2  0  0  0  0  0  0  0  0  0
    8.6460  -15.9143   24.1454 N   0  0  0  0  0  0  0  0  0  0  0  0
    9.0114  -15.5462   26.4660 C   0  0  0  0  0  0  0  0  0  0  0  0
    9.2018  -14.9307   27.5630 O   0  0  0  0  0  0  0  0  0  0  0  0
    8.9671  -16.9487   26.5567 O   0  0  0  0  0  0  0  0  0  0  0  0
  2  3  2  0
  2  1  1  0
  4  2  1  0
  5  4  1  0
  5  7  1  0
  5  6  1  6
  7  8  2  0
  9 10  1  0
 10 12  1  0
 11 10  2  0
 13 12  1  0
 14 13  1  1
 15 14  1  0
 15  7  1  0
 16 14  1  0
 16 17  2  0
 18 19  1  0
 19 20  1  0
 20 21  1  0
 22 21  1  1
 22 23  1  0
 22 24  1  0
 23 16  1  0
 24 26  1  0
 25 24  2  0
M  END
$$$$
