NQM.pdb
     RDKit          3D

 26 25  0  0  1  0  0  0  0  0999 V2000
    5.4280  -19.2819   17.1884 N   0  0  0  0  0  0  0  0  0  0  0  0
    5.7998  -19.1376   18.5630 C   0  0  0  0  0  0  0  0  0  0  0  0
    4.9533  -19.2274   19.4663 O   0  0  0  0  0  0  0  0  0  0  0  0
    7.2253  -18.8784   18.8650 C   0  0  0  0  0  0  0  0  0  0  0  0
    7.3501  -18.6240   20.3504 C   0  0  2  0  0  0  0  0  0  0  0  0
    6.2999  -17.7311   20.7356 N   0  0  0  0  0  0  0  0  0  0  0  0
    8.6987  -18.0984   20.6829 C   0  0  0  0  0  0  0  0  0  0  0  0
    9.6439  -18.3911   19.9081 O   0  0  0  0  0  0  0  0  0  0  0  0
    8.1352  -13.4496   19.0201 N   0  0  0  0  0  0  0  0  0  0  0  0
    9.3945  -13.0619   19.5523 C   0  0  0  0  0  0  0  0  0  0  0  0
    9.9344  -11.9723   19.2595 O   0  0  0  0  0  0  0  0  0  0  0  0
   10.0826  -13.9841   20.4821 C   0  0  0  0  0  0  0  0  0  0  0  0
    9.3418  -15.2354   20.7526 C   0  0  0  0  0  0  0  0  0  0  0  0
    9.9220  -16.1959   21.7259 C   0  0  2  0  0  0  0  0  0  0  0  0
    8.9204  -17.2973   21.8270 N   0  0  0  0  0  0  0  0  0  0  0  0
   10.0961  -15.7252   23.0970 C   0  0  0  0  0  0  0  0  0  0  0  0
   11.1980  -15.2489   23.5470 O   0  0  0  0  0  0  0  0  0  0  0  0
    5.9292  -11.1821   26.1744 C   0  0  0  0  0  0  0  0  0  0  0  0
    6.2700  -12.8853   26.6744 S   0  0  0  0  0  0  0  0  0  0  0  0
    7.5895  -13.5644   25.6127 C   0  0  0  0  0  0  0  0  0  0  0  0
    7.9680  -14.9458   26.0292 C   0  0  0  0  0  0  0  0  0  0  0  0
    9.2622  -15.4129   25.4296 C   0  0  2  0  0  0  0  0  0  0  0  0
    9.0402  -15.7648   24.0226 N   0  0  0  0  0  0  0  0  0  0  0  0
    9.7081  -16.6330   26.1332 C   0  0  0  0  0  0  0  0  0  0  0  0
   10.1159  -16.6496   27.3382 O   0  0  0  0  0  0  0  0  0  0  0  0
    9.7010  -17.8771   25.4776 O   0  0  0  0  0  0  0  0  0  0  0  0
  2  3  2  0
  2  1  1  0
  4  2  1  0
  5  4  1  0
  5  7  1  0
  5  6  1  6
  7  8  2  0
  9 10  1  0
 10 12  1  0
 11 10  2  0
 13 12  1  0
 14 13  1  6
 15 14  1  0
 15  7  1  0
 16 14  1  0
 16 17  2  0
 18 19  1  0
 19 20  1  0
 20 21  1  0
 22 21  1  1
 22 23  1  0
 22 24  1  0
 23 16  1  0
 24 26  1  0
 25 24  2  0
M  END
$$$$
