NQM.pdb
     RDKit          3D

 26 25  0  0  1  0  0  0  0  0999 V2000
    6.4426  -19.3666   17.7802 N   0  0  0  0  0  0  0  0  0  0  0  0
    7.0140  -19.7119   19.0463 C   0  0  0  0  0  0  0  0  0  0  0  0
    6.3540  -20.3277   19.8982 O   0  0  0  0  0  0  0  0  0  0  0  0
    8.4152  -19.3085   19.3000 C   0  0  0  0  0  0  0  0  0  0  0  0
    8.5132  -18.8326   20.7320 C   0  0  2  0  0  0  0  0  0  0  0  0
    7.1848  -18.7280   21.2547 N   0  0  0  0  0  0  0  0  0  0  0  0
    9.2617  -17.5524   20.8111 C   0  0  0  0  0  0  0  0  0  0  0  0
   10.4463  -17.5447   20.3913 O   0  0  0  0  0  0  0  0  0  0  0  0
    7.3061  -12.4796   18.8490 N   0  0  0  0  0  0  0  0  0  0  0  0
    7.7991  -13.6568   18.2237 C   0  0  0  0  0  0  0  0  0  0  0  0
    7.5551  -13.9274   17.0272 O   0  0  0  0  0  0  0  0  0  0  0  0
    8.6266  -14.5872   19.0223 C   0  0  0  0  0  0  0  0  0  0  0  0
    8.7790  -14.1969   20.4409 C   0  0  0  0  0  0  0  0  0  0  0  0
    9.4882  -15.1317   21.3518 C   0  0  2  0  0  0  0  0  0  0  0  0
    8.6713  -16.3803   21.3379 N   0  0  0  0  0  0  0  0  0  0  0  0
    9.5646  -14.7535   22.7599 C   0  0  0  0  0  0  0  0  0  0  0  0
    9.8027  -13.5589   23.1598 O   0  0  0  0  0  0  0  0  0  0  0  0
    6.8003  -11.5204   27.4449 C   0  0  0  0  0  0  0  0  0  0  0  0
    6.0866  -12.7900   26.3745 S   0  0  0  0  0  0  0  0  0  0  0  0
    7.1239  -14.2889   26.4559 C   0  0  0  0  0  0  0  0  0  0  0  0
    7.6279  -14.6774   25.1069 C   0  0  0  0  0  0  0  0  0  0  0  0
    9.0047  -15.2742   25.1367 C   0  0  2  0  0  0  0  0  0  0  0  0
    9.3735  -15.6986   23.7815 N   0  0  0  0  0  0  0  0  0  0  0  0
    8.9919  -16.4758   25.9962 C   0  0  0  0  0  0  0  0  0  0  0  0
    8.7327  -16.4560   27.2415 O   0  0  0  0  0  0  0  0  0  0  0  0
    9.2761  -17.7424   25.4554 O   0  0  0  0  0  0  0  0  0  0  0  0
  2  3  2  0
  2  1  1  0
  4  2  1  0
  5  4  1  0
  5  7  1  0
  5  6  1  6
  7  8  2  0
  9 10  1  0
 10 12  1  0
 11 10  2  0
 13 12  1  0
 14 13  1  6
 15 14  1  0
 15  7  1  0
 16 14  1  0
 16 17  2  0
 18 19  1  0
 19 20  1  0
 20 21  1  0
 22 21  1  6
 22 23  1  0
 22 24  1  0
 23 16  1  0
 24 26  1  0
 25 24  2  0
M  END
$$$$
