NQM.pdb
     RDKit          3D

 26 25  0  0  1  0  0  0  0  0999 V2000
    6.7759  -14.3740   16.2491 N   0  0  0  0  0  0  0  0  0  0  0  0
    7.3962  -13.6265   17.3004 C   0  0  0  0  0  0  0  0  0  0  0  0
    8.1277  -12.6560   17.0482 O   0  0  0  0  0  0  0  0  0  0  0  0
    7.1335  -14.0528   18.6931 C   0  0  0  0  0  0  0  0  0  0  0  0
    8.4228  -13.9245   19.4729 C   0  0  2  0  0  0  0  0  0  0  0  0
    9.5103  -14.1289   18.5651 N   0  0  0  0  0  0  0  0  0  0  0  0
    8.4441  -14.8740   20.6145 C   0  0  0  0  0  0  0  0  0  0  0  0
    7.4023  -14.9693   21.3109 O   0  0  0  0  0  0  0  0  0  0  0  0
   12.4087  -19.5611   21.1390 N   0  0  0  0  0  0  0  0  0  0  0  0
   11.7111  -19.7395   22.3643 C   0  0  0  0  0  0  0  0  0  0  0  0
   11.9301  -20.7117   23.1200 O   0  0  0  0  0  0  0  0  0  0  0  0
   10.6934  -18.7374   22.7499 C   0  0  0  0  0  0  0  0  0  0  0  0
   10.5042  -17.6547   21.7602 C   0  0  0  0  0  0  0  0  0  0  0  0
    9.5150  -16.5901   22.0679 C   0  0  2  0  0  0  0  0  0  0  0  0
    9.5900  -15.6466   20.9143 N   0  0  0  0  0  0  0  0  0  0  0  0
    9.7765  -15.7626   23.2420 C   0  0  0  0  0  0  0  0  0  0  0  0
   10.1021  -14.5244   23.1766 O   0  0  0  0  0  0  0  0  0  0  0  0
    7.7969  -11.6427   27.4639 C   0  0  0  0  0  0  0  0  0  0  0  0
    7.0137  -12.5144   26.0878 S   0  0  0  0  0  0  0  0  0  0  0  0
    7.0742  -14.3095   26.4088 C   0  0  0  0  0  0  0  0  0  0  0  0
    7.7531  -15.0396   25.2993 C   0  0  0  0  0  0  0  0  0  0  0  0
    9.1481  -15.4750   25.6412 C   0  0  2  0  0  0  0  0  0  0  0  0
    9.6806  -16.2873   24.5416 N   0  0  0  0  0  0  0  0  0  0  0  0
    9.1066  -16.3251   26.8488 C   0  0  0  0  0  0  0  0  0  0  0  0
    8.7317  -17.5408   26.8496 O   0  0  0  0  0  0  0  0  0  0  0  0
    9.4946  -15.8088   28.0980 O   0  0  0  0  0  0  0  0  0  0  0  0
  2  3  2  0
  2  1  1  0
  4  2  1  0
  5  4  1  0
  5  7  1  0
  5  6  1  6
  7  8  2  0
  9 10  1  0
 10 12  1  0
 11 10  2  0
 13 12  1  0
 14 13  1  6
 15 14  1  0
 15  7  1  0
 16 14  1  0
 16 17  2  0
 18 19  1  0
 19 20  1  0
 20 21  1  0
 22 21  1  6
 22 23  1  0
 22 24  1  0
 23 16  1  0
 24 26  1  0
 25 24  2  0
M  END
$$$$
