NQM.pdb
     RDKit          3D

 26 25  0  0  1  0  0  0  0  0999 V2000
   11.9962  -17.6296   18.3471 N   0  0  0  0  0  0  0  0  0  0  0  0
   11.0512  -18.5883   17.8607 C   0  0  0  0  0  0  0  0  0  0  0  0
   11.2488  -19.1968   16.7971 O   0  0  0  0  0  0  0  0  0  0  0  0
    9.8352  -18.8254   18.6703 C   0  0  0  0  0  0  0  0  0  0  0  0
   10.2182  -18.7267   20.1299 C   0  0  2  0  0  0  0  0  0  0  0  0
   10.2057  -20.0479   20.6802 N   0  0  0  0  0  0  0  0  0  0  0  0
    9.3105  -17.7980   20.8505 C   0  0  0  0  0  0  0  0  0  0  0  0
    9.5610  -16.5685   20.7796 O   0  0  0  0  0  0  0  0  0  0  0  0
    5.6489  -20.7380   23.2158 N   0  0  0  0  0  0  0  0  0  0  0  0
    6.3262  -20.1595   24.3232 C   0  0  0  0  0  0  0  0  0  0  0  0
    6.5632  -20.8031   25.3691 O   0  0  0  0  0  0  0  0  0  0  0  0
    6.7607  -18.7487   24.2269 C   0  0  0  0  0  0  0  0  0  0  0  0
    6.3144  -18.0603   22.9962 C   0  0  0  0  0  0  0  0  0  0  0  0
    7.3130  -17.2630   22.2388 C   0  0  2  0  0  0  0  0  0  0  0  0
    8.2028  -18.2709   21.5916 N   0  0  0  0  0  0  0  0  0  0  0  0
    8.2138  -16.4180   23.0175 C   0  0  0  0  0  0  0  0  0  0  0  0
    8.8753  -15.4402   22.5177 O   0  0  0  0  0  0  0  0  0  0  0  0
    6.7767  -10.7999   27.2116 C   0  0  0  0  0  0  0  0  0  0  0  0
    6.3818  -12.2520   26.2104 S   0  0  0  0  0  0  0  0  0  0  0  0
    7.8203  -13.3745   26.1969 C   0  0  0  0  0  0  0  0  0  0  0  0
    7.5768  -14.5630   25.3291 C   0  0  0  0  0  0  0  0  0  0  0  0
    8.7372  -15.5138   25.2852 C   0  0  2  0  0  0  0  0  0  0  0  0
    8.4091  -16.6308   24.3922 N   0  0  0  0  0  0  0  0  0  0  0  0
    8.9587  -16.0686   26.6364 C   0  0  0  0  0  0  0  0  0  0  0  0
    8.5424  -17.2103   27.0128 O   0  0  0  0  0  0  0  0  0  0  0  0
    9.6662  -15.3316   27.6027 O   0  0  0  0  0  0  0  0  0  0  0  0
  2  3  2  0
  2  1  1  0
  4  2  1  0
  5  4  1  0
  5  7  1  0
  5  6  1  1
  7  8  2  0
  9 10  1  0
 10 12  1  0
 11 10  2  0
 13 12  1  0
 14 13  1  1
 15 14  1  0
 15  7  1  0
 16 14  1  0
 16 17  2  0
 18 19  1  0
 19 20  1  0
 20 21  1  0
 22 21  1  1
 22 23  1  0
 22 24  1  0
 23 16  1  0
 24 26  1  0
 25 24  2  0
M  END
$$$$
