NQM.pdb
     RDKit          3D

 26 25  0  0  1  0  0  0  0  0999 V2000
    8.6826  -14.3578   15.0588 N   0  0  0  0  0  0  0  0  0  0  0  0
    7.9342  -13.9644   16.2136 C   0  0  0  0  0  0  0  0  0  0  0  0
    7.4275  -12.8340   16.2917 O   0  0  0  0  0  0  0  0  0  0  0  0
    7.7881  -14.9520   17.3062 C   0  0  0  0  0  0  0  0  0  0  0  0
    8.3378  -14.3341   18.5722 C   0  0  2  0  0  0  0  0  0  0  0  0
    9.6796  -13.9102   18.3104 N   0  0  0  0  0  0  0  0  0  0  0  0
    8.2505  -15.2901   19.7053 C   0  0  0  0  0  0  0  0  0  0  0  0
    7.1089  -15.7019   20.0318 O   0  0  0  0  0  0  0  0  0  0  0  0
   12.7117  -19.7022   22.7045 N   0  0  0  0  0  0  0  0  0  0  0  0
   11.4324  -19.7734   22.0897 C   0  0  0  0  0  0  0  0  0  0  0  0
   11.1266  -20.6873   21.2925 O   0  0  0  0  0  0  0  0  0  0  0  0
   10.4362  -18.7274   22.4087 C   0  0  0  0  0  0  0  0  0  0  0  0
   10.2624  -17.7127   21.3466 C   0  0  0  0  0  0  0  0  0  0  0  0
    9.2202  -16.6715   21.5371 C   0  0  2  0  0  0  0  0  0  0  0  0
    9.4042  -15.7264   20.3972 N   0  0  0  0  0  0  0  0  0  0  0  0
    9.3271  -15.8383   22.7313 C   0  0  0  0  0  0  0  0  0  0  0  0
   10.3210  -15.0635   22.9667 O   0  0  0  0  0  0  0  0  0  0  0  0
    6.7366  -10.1491   26.3374 C   0  0  0  0  0  0  0  0  0  0  0  0
    6.2992  -11.9005   26.2449 S   0  0  0  0  0  0  0  0  0  0  0  0
    7.6083  -12.7938   25.3407 C   0  0  0  0  0  0  0  0  0  0  0  0
    7.2912  -14.2459   25.2151 C   0  0  0  0  0  0  0  0  0  0  0  0
    8.5013  -15.0987   24.9684 C   0  0  2  0  0  0  0  0  0  0  0  0
    8.3216  -15.8352   23.7122 N   0  0  0  0  0  0  0  0  0  0  0  0
    8.6239  -16.0899   26.0570 C   0  0  0  0  0  0  0  0  0  0  0  0
    8.1470  -17.2680   26.0024 O   0  0  0  0  0  0  0  0  0  0  0  0
    9.2988  -15.7628   27.2466 O   0  0  0  0  0  0  0  0  0  0  0  0
  2  3  2  0
  2  1  1  0
  4  2  1  0
  5  4  1  0
  5  7  1  0
  5  6  1  6
  7  8  2  0
  9 10  1  0
 10 12  1  0
 11 10  2  0
 13 12  1  0
 14 13  1  1
 15 14  1  0
 15  7  1  0
 16 14  1  0
 16 17  2  0
 18 19  1  0
 19 20  1  0
 20 21  1  0
 22 21  1  1
 22 23  1  0
 22 24  1  0
 23 16  1  0
 24 26  1  0
 25 24  2  0
M  END
$$$$
