NQM.pdb
     RDKit          3D

 26 25  0  0  1  0  0  0  0  0999 V2000
    8.3480  -12.3145   17.6427 N   0  0  0  0  0  0  0  0  0  0  0  0
    8.4738  -13.7390   17.5836 C   0  0  0  0  0  0  0  0  0  0  0  0
    9.0356  -14.2912   16.6244 O   0  0  0  0  0  0  0  0  0  0  0  0
    7.9111  -14.5249   18.7043 C   0  0  0  0  0  0  0  0  0  0  0  0
    8.8321  -14.3697   19.8936 C   0  0  2  0  0  0  0  0  0  0  0  0
   10.0683  -15.0210   19.5831 N   0  0  0  0  0  0  0  0  0  0  0  0
    8.1968  -14.9048   21.1246 C   0  0  0  0  0  0  0  0  0  0  0  0
    6.9566  -15.1062   21.0984 O   0  0  0  0  0  0  0  0  0  0  0  0
   12.6699  -19.2239   21.3605 N   0  0  0  0  0  0  0  0  0  0  0  0
   11.3477  -19.1119   20.8517 C   0  0  0  0  0  0  0  0  0  0  0  0
   11.0666  -19.3805   19.6630 O   0  0  0  0  0  0  0  0  0  0  0  0
   10.2750  -18.6615   21.7654 C   0  0  0  0  0  0  0  0  0  0  0  0
    9.9263  -17.2304   21.6309 C   0  0  0  0  0  0  0  0  0  0  0  0
    9.1055  -16.6064   22.7003 C   0  0  2  0  0  0  0  0  0  0  0  0
    8.9518  -15.1806   22.2882 N   0  0  0  0  0  0  0  0  0  0  0  0
    9.6931  -16.5459   24.0355 C   0  0  0  0  0  0  0  0  0  0  0  0
   10.0147  -17.5845   24.7147 O   0  0  0  0  0  0  0  0  0  0  0  0
    5.3636  -12.2997   26.8995 C   0  0  0  0  0  0  0  0  0  0  0  0
    7.1686  -12.3880   26.8674 S   0  0  0  0  0  0  0  0  0  0  0  0
    7.6835  -13.5778   25.5834 C   0  0  0  0  0  0  0  0  0  0  0  0
    8.1190  -14.8725   26.1826 C   0  0  0  0  0  0  0  0  0  0  0  0
    9.5972  -15.1090   26.0751 C   0  0  2  0  0  0  0  0  0  0  0  0
    9.9490  -15.3169   24.6660 N   0  0  0  0  0  0  0  0  0  0  0  0
    9.9441  -16.3417   26.8117 C   0  0  0  0  0  0  0  0  0  0  0  0
    9.9407  -17.5037   26.2938 O   0  0  0  0  0  0  0  0  0  0  0  0
   10.3074  -16.2832   28.1689 O   0  0  0  0  0  0  0  0  0  0  0  0
  2  3  2  0
  2  1  1  0
  4  2  1  0
  5  4  1  0
  5  7  1  0
  5  6  1  6
  7  8  2  0
  9 10  1  0
 10 12  1  0
 11 10  2  0
 13 12  1  0
 14 13  1  6
 15 14  1  0
 15  7  1  0
 16 14  1  0
 16 17  2  0
 18 19  1  0
 19 20  1  0
 20 21  1  0
 22 21  1  6
 22 23  1  0
 22 24  1  0
 23 16  1  0
 24 26  1  0
 25 24  2  0
M  END
$$$$
