YAW.pdb
     RDKit          3D

 32 34  0  0  1  0  0  0  0  0999 V2000
    7.7411  -11.7379   17.1780 O   0  0  0  0  0  0  0  0  0  0  0  0
    7.8065  -12.5232   18.3272 C   0  0  0  0  0  0  0  0  0  0  0  0
    9.0044  -12.9352   18.8488 C   0  0  0  0  0  0  0  0  0  0  0  0
    9.0044  -13.7082   19.9845 C   0  0  0  0  0  0  0  0  0  0  0  0
    7.8366  -14.0870   20.6227 C   0  0  0  0  0  0  0  0  0  0  0  0
    7.8883  -14.9226   21.8479 C   0  0  0  0  0  0  0  0  0  0  0  0
    8.0443  -16.3937   21.4292 C   0  0  2  0  0  0  0  0  0  0  0  0
    6.7701  -16.9018   20.9441 N   0  0  0  0  0  0  0  0  0  0  0  0
    8.4466  -17.1007   22.6856 C   0  0  0  0  0  0  0  0  0  0  0  0
    7.5816  -17.3060   23.5420 O   0  0  0  0  0  0  0  0  0  0  0  0
    6.6497  -13.6765   20.1026 C   0  0  0  0  0  0  0  0  0  0  0  0
    6.6208  -12.8948   18.9562 C   0  0  0  0  0  0  0  0  0  0  0  0
   11.3844  -19.0828   23.8880 C   0  0  0  0  0  0  0  0  0  0  0  0
   10.1648  -18.2223   24.1426 C   0  0  2  0  0  0  0  0  0  0  0  0
    9.7794  -17.5328   22.9107 N   0  0  0  0  0  0  0  0  0  0  0  0
   10.4158  -17.1902   25.1698 C   0  0  0  0  0  0  0  0  0  0  0  0
   10.9659  -16.1182   24.8347 O   0  0  0  0  0  0  0  0  0  0  0  0
   10.0499  -17.3666   26.5574 N   0  0  0  0  0  0  0  0  0  0  0  0
   10.4898  -16.4655   27.5749 C   0  0  1  0  0  0  0  0  0  0  0  0
    9.6727  -15.2840   27.8321 C   0  0  0  0  0  0  0  0  0  0  0  0
    8.4378  -15.0910   27.0664 C   0  0  0  0  0  0  0  0  0  0  0  0
    7.5022  -15.9910   26.6249 C   0  0  0  0  0  0  0  0  0  0  0  0
    6.5554  -15.3136   25.9751 N   0  0  0  0  0  0  0  0  0  0  0  0
    6.8528  -14.0129   25.9859 C   0  0  0  0  0  0  0  0  0  0  0  0
    6.2069  -12.9015   25.4598 C   0  0  0  0  0  0  0  0  0  0  0  0
    6.7606  -11.6557   25.6304 C   0  0  0  0  0  0  0  0  0  0  0  0
    7.9437  -11.4447   26.3072 C   0  0  0  0  0  0  0  0  0  0  0  0
    8.5764  -12.5535   26.8250 C   0  0  0  0  0  0  0  0  0  0  0  0
    8.0320  -13.8348   26.6646 C   0  0  0  0  0  0  0  0  0  0  0  0
   10.7419  -17.1725   28.8747 C   0  0  0  0  0  0  0  0  0  0  0  0
   10.4368  -18.3845   29.0052 O   0  0  0  0  0  0  0  0  0  0  0  0
   11.3102  -16.5408   29.9709 O   0  0  0  0  0  0  0  0  0  0  0  0
  2  1  1  0
  3  2  2  0
  4  3  1  0
  5  4  2  0
  5 11  1  0
  6  5  1  0
  7  6  1  0
  7  8  1  1
  9 10  2  0
  9  7  1  0
 11 12  2  0
 12  2  1  0
 14 13  1  6
 14 16  1  0
 14 15  1  0
 15  9  1  0
 16 18  1  0
 17 16  2  0
 18 19  1  0
 19 30  1  0
 19 20  1  1
 21 20  1  0
 21 29  1  0
 22 23  1  0
 22 21  2  0
 23 24  1  0
 24 25  2  0
 24 29  1  0
 25 26  1  0
 26 27  2  0
 28 27  1  0
 29 28  2  0
 30 31  2  0
 30 32  1  0
M  END
$$$$
