YAW.pdb
     RDKit          3D

 32 34  0  0  1  0  0  0  0  0999 V2000
    7.2828  -25.3153   21.5873 O   0  0  0  0  0  0  0  0  0  0  0  0
    7.5770  -23.9549   21.6550 C   0  0  0  0  0  0  0  0  0  0  0  0
    6.5968  -23.0159   21.8394 C   0  0  0  0  0  0  0  0  0  0  0  0
    6.9492  -21.6894   21.8978 C   0  0  0  0  0  0  0  0  0  0  0  0
    8.2607  -21.2654   21.7769 C   0  0  0  0  0  0  0  0  0  0  0  0
    8.5916  -19.8205   21.8471 C   0  0  0  0  0  0  0  0  0  0  0  0
    8.0533  -19.1343   20.5811 C   0  0  2  0  0  0  0  0  0  0  0  0
    8.7207  -19.6788   19.4084 N   0  0  0  0  0  0  0  0  0  0  0  0
    8.4027  -17.6899   20.7599 C   0  0  0  0  0  0  0  0  0  0  0  0
    9.5440  -17.3248   20.4633 O   0  0  0  0  0  0  0  0  0  0  0  0
    9.2310  -22.1997   21.5939 C   0  0  0  0  0  0  0  0  0  0  0  0
    8.9028  -23.5467   21.5313 C   0  0  0  0  0  0  0  0  0  0  0  0
    6.4666  -14.5266   21.3467 C   0  0  0  0  0  0  0  0  0  0  0  0
    7.7589  -15.3125   21.2761 C   0  0  2  0  0  0  0  0  0  0  0  0
    7.4659  -16.7462   21.2555 N   0  0  0  0  0  0  0  0  0  0  0  0
    8.6324  -15.0540   22.4396 C   0  0  0  0  0  0  0  0  0  0  0  0
    9.1596  -13.9271   22.5672 O   0  0  0  0  0  0  0  0  0  0  0  0
    8.9065  -16.0553   23.4460 N   0  0  0  0  0  0  0  0  0  0  0  0
    9.8111  -15.8137   24.5249 C   0  0  1  0  0  0  0  0  0  0  0  0
    9.5916  -14.6223   25.3385 C   0  0  0  0  0  0  0  0  0  0  0  0
    8.2259  -14.2782   25.7446 C   0  0  0  0  0  0  0  0  0  0  0  0
    7.1349  -15.0699   25.9959 C   0  0  0  0  0  0  0  0  0  0  0  0
    6.1216  -14.2752   26.3408 N   0  0  0  0  0  0  0  0  0  0  0  0
    6.5264  -13.0040   26.3190 C   0  0  0  0  0  0  0  0  0  0  0  0
    5.8723  -11.8093   26.5915 C   0  0  0  0  0  0  0  0  0  0  0  0
    6.5590  -10.6243   26.4837 C   0  0  0  0  0  0  0  0  0  0  0  0
    7.8857  -10.5547   26.1131 C   0  0  0  0  0  0  0  0  0  0  0  0
    8.5252  -11.7451   25.8449 C   0  0  0  0  0  0  0  0  0  0  0  0
    7.8469  -12.9670   25.9477 C   0  0  0  0  0  0  0  0  0  0  0  0
    9.9282  -17.0044   25.4313 C   0  0  0  0  0  0  0  0  0  0  0  0
    9.1389  -17.9742   25.3070 O   0  0  0  0  0  0  0  0  0  0  0  0
   10.8893  -17.0935   26.4273 O   0  0  0  0  0  0  0  0  0  0  0  0
  2  1  1  0
  3  2  2  0
  4  3  1  0
  5  4  2  0
  5 11  1  0
  6  5  1  0
  7  6  1  0
  7  8  1  6
  9 10  2  0
  9  7  1  0
 11 12  2  0
 12  2  1  0
 14 13  1  1
 14 16  1  0
 14 15  1  0
 15  9  1  0
 16 18  1  0
 17 16  2  0
 18 19  1  0
 19 30  1  0
 19 20  1  1
 21 20  1  0
 21 29  1  0
 22 23  1  0
 22 21  2  0
 23 24  1  0
 24 25  2  0
 24 29  1  0
 25 26  1  0
 26 27  2  0
 28 27  1  0
 29 28  2  0
 30 31  2  0
 30 32  1  0
M  END
$$$$
