YAW.pdb
     RDKit          3D

 32 34  0  0  1  0  0  0  0  0999 V2000
    8.6335  -12.3344   19.9738 O   0  0  0  0  0  0  0  0  0  0  0  0
    8.1362  -13.2762   20.8725 C   0  0  0  0  0  0  0  0  0  0  0  0
    7.1323  -14.1411   20.5249 C   0  0  0  0  0  0  0  0  0  0  0  0
    6.6839  -15.0475   21.4547 C   0  0  0  0  0  0  0  0  0  0  0  0
    7.2098  -15.1195   22.7325 C   0  0  0  0  0  0  0  0  0  0  0  0
    6.6922  -16.1168   23.7018 C   0  0  0  0  0  0  0  0  0  0  0  0
    7.0367  -17.5234   23.1859 C   0  0  2  0  0  0  0  0  0  0  0  0
    6.2283  -18.5118   23.8835 N   0  0  0  0  0  0  0  0  0  0  0  0
    8.4851  -17.7008   23.5192 C   0  0  0  0  0  0  0  0  0  0  0  0
    8.7760  -18.3441   24.5318 O   0  0  0  0  0  0  0  0  0  0  0  0
    8.2058  -14.2598   23.0743 C   0  0  0  0  0  0  0  0  0  0  0  0
    8.6777  -13.3340   22.1543 C   0  0  0  0  0  0  0  0  0  0  0  0
   11.7440  -16.9988   21.7406 C   0  0  0  0  0  0  0  0  0  0  0  0
   10.9156  -17.5383   22.8875 C   0  0  2  0  0  0  0  0  0  0  0  0
    9.5147  -17.1543   22.7099 N   0  0  0  0  0  0  0  0  0  0  0  0
   11.3598  -17.0081   24.1932 C   0  0  0  0  0  0  0  0  0  0  0  0
   12.5552  -17.1484   24.5331 O   0  0  0  0  0  0  0  0  0  0  0  0
   10.4654  -16.3278   25.1031 N   0  0  0  0  0  0  0  0  0  0  0  0
   10.9194  -15.7864   26.3447 C   0  0  1  0  0  0  0  0  0  0  0  0
   10.0784  -14.7868   26.9952 C   0  0  0  0  0  0  0  0  0  0  0  0
    8.6311  -14.8143   26.7649 C   0  0  0  0  0  0  0  0  0  0  0  0
    7.7358  -15.8528   26.7845 C   0  0  0  0  0  0  0  0  0  0  0  0
    6.5271  -15.3581   26.5167 N   0  0  0  0  0  0  0  0  0  0  0  0
    6.6182  -14.0405   26.3270 C   0  0  0  0  0  0  0  0  0  0  0  0
    5.6698  -13.0710   26.0270 C   0  0  0  0  0  0  0  0  0  0  0  0
    6.0639  -11.7623   25.8868 C   0  0  0  0  0  0  0  0  0  0  0  0
    7.3726  -11.3513   26.0300 C   0  0  0  0  0  0  0  0  0  0  0  0
    8.3054  -12.3206   26.3274 C   0  0  0  0  0  0  0  0  0  0  0  0
    7.9288  -13.6622   26.4756 C   0  0  0  0  0  0  0  0  0  0  0  0
   11.2460  -16.8645   27.3367 C   0  0  0  0  0  0  0  0  0  0  0  0
   11.7200  -16.5666   28.4617 O   0  0  0  0  0  0  0  0  0  0  0  0
   11.0466  -18.2108   27.0696 O   0  0  0  0  0  0  0  0  0  0  0  0
  2  1  1  0
  3  2  2  0
  4  3  1  0
  5  4  2  0
  5 11  1  0
  6  5  1  0
  7  6  1  0
  7  8  1  1
  9 10  2  0
  9  7  1  0
 11 12  2  0
 12  2  1  0
 14 13  1  6
 14 16  1  0
 14 15  1  0
 15  9  1  0
 16 18  1  0
 17 16  2  0
 18 19  1  0
 19 30  1  0
 19 20  1  1
 21 20  1  0
 21 29  1  0
 22 23  1  0
 22 21  2  0
 23 24  1  0
 24 25  2  0
 24 29  1  0
 25 26  1  0
 26 27  2  0
 28 27  1  0
 29 28  2  0
 30 31  2  0
 30 32  1  0
M  END
$$$$
