YAW.pdb
     RDKit          3D

 32 34  0  0  1  0  0  0  0  0999 V2000
   16.1640  -14.7190   17.4362 O   0  0  0  0  0  0  0  0  0  0  0  0
   14.9459  -14.5583   18.0935 C   0  0  0  0  0  0  0  0  0  0  0  0
   14.8764  -14.0507   19.3640 C   0  0  0  0  0  0  0  0  0  0  0  0
   13.6459  -13.9159   19.9597 C   0  0  0  0  0  0  0  0  0  0  0  0
   12.4712  -14.2748   19.3227 C   0  0  0  0  0  0  0  0  0  0  0  0
   11.1654  -14.1097   20.0081 C   0  0  0  0  0  0  0  0  0  0  0  0
   10.0737  -14.7578   19.1410 C   0  0  2  0  0  0  0  0  0  0  0  0
    9.4076  -13.7354   18.3484 N   0  0  0  0  0  0  0  0  0  0  0  0
    9.1214  -15.3610   20.1257 C   0  0  0  0  0  0  0  0  0  0  0  0
    8.1377  -14.6981   20.4671 O   0  0  0  0  0  0  0  0  0  0  0  0
   12.5436  -14.7782   18.0621 C   0  0  0  0  0  0  0  0  0  0  0  0
   13.7739  -14.9249   17.4366 C   0  0  0  0  0  0  0  0  0  0  0  0
    8.3387  -18.7770   21.3559 C   0  0  0  0  0  0  0  0  0  0  0  0
    8.3401  -17.2765   21.5587 C   0  0  2  0  0  0  0  0  0  0  0  0
    9.3217  -16.6573   20.6672 N   0  0  0  0  0  0  0  0  0  0  0  0
    8.6979  -16.9017   22.9426 C   0  0  0  0  0  0  0  0  0  0  0  0
    7.9313  -17.2211   23.8778 O   0  0  0  0  0  0  0  0  0  0  0  0
    9.9058  -16.1760   23.2659 N   0  0  0  0  0  0  0  0  0  0  0  0
   10.2235  -15.7973   24.6062 C   0  0  1  0  0  0  0  0  0  0  0  0
    9.5887  -14.5960   25.1387 C   0  0  0  0  0  0  0  0  0  0  0  0
    8.2026  -14.6714   25.6094 C   0  0  0  0  0  0  0  0  0  0  0  0
    7.3493  -15.7380   25.7298 C   0  0  0  0  0  0  0  0  0  0  0  0
    6.1927  -15.2860   26.2149 N   0  0  0  0  0  0  0  0  0  0  0  0
    6.2768  -13.9685   26.4090 C   0  0  0  0  0  0  0  0  0  0  0  0
    5.3680  -13.0341   26.8888 C   0  0  0  0  0  0  0  0  0  0  0  0
    5.7418  -11.7152   26.9812 C   0  0  0  0  0  0  0  0  0  0  0  0
    6.9918  -11.2603   26.6169 C   0  0  0  0  0  0  0  0  0  0  0  0
    7.8856  -12.1951   26.1422 C   0  0  0  0  0  0  0  0  0  0  0  0
    7.5287  -13.5463   26.0386 C   0  0  0  0  0  0  0  0  0  0  0  0
   10.0082  -16.9271   25.5705 C   0  0  0  0  0  0  0  0  0  0  0  0
   10.2970  -16.7859   26.7853 O   0  0  0  0  0  0  0  0  0  0  0  0
    9.4923  -18.1541   25.1806 O   0  0  0  0  0  0  0  0  0  0  0  0
  2  1  1  0
  3  2  2  0
  4  3  1  0
  5  4  2  0
  5 11  1  0
  6  5  1  0
  7  6  1  0
  7  8  1  1
  9 10  2  0
  9  7  1  0
 11 12  2  0
 12  2  1  0
 14 13  1  1
 14 16  1  0
 14 15  1  0
 15  9  1  0
 16 18  1  0
 17 16  2  0
 18 19  1  0
 19 30  1  0
 19 20  1  1
 21 20  1  0
 21 29  1  0
 22 23  1  0
 22 21  2  0
 23 24  1  0
 24 25  2  0
 24 29  1  0
 25 26  1  0
 26 27  2  0
 28 27  1  0
 29 28  2  0
 30 31  2  0
 30 32  1  0
M  END
$$$$
