YAW.pdb
     RDKit          3D

 32 34  0  0  1  0  0  0  0  0999 V2000
    8.3063  -15.9268   14.4911 O   0  0  0  0  0  0  0  0  0  0  0  0
    8.0743  -15.3545   15.7403 C   0  0  0  0  0  0  0  0  0  0  0  0
    7.4222  -16.0366   16.7333 C   0  0  0  0  0  0  0  0  0  0  0  0
    7.2232  -15.4188   17.9441 C   0  0  0  0  0  0  0  0  0  0  0  0
    7.6579  -14.1302   18.1986 C   0  0  0  0  0  0  0  0  0  0  0  0
    7.4196  -13.5058   19.5235 C   0  0  0  0  0  0  0  0  0  0  0  0
    8.7325  -13.5403   20.3227 C   0  0  2  0  0  0  0  0  0  0  0  0
    9.8604  -13.6202   19.4070 N   0  0  0  0  0  0  0  0  0  0  0  0
    8.6371  -14.7860   21.1470 C   0  0  0  0  0  0  0  0  0  0  0  0
    7.6403  -14.9397   21.8586 O   0  0  0  0  0  0  0  0  0  0  0  0
    8.3047  -13.4561   17.2111 C   0  0  0  0  0  0  0  0  0  0  0  0
    8.5192  -14.0564   15.9782 C   0  0  0  0  0  0  0  0  0  0  0  0
   10.5619  -17.9974   21.5536 C   0  0  0  0  0  0  0  0  0  0  0  0
    9.6322  -16.9121   22.0541 C   0  0  2  0  0  0  0  0  0  0  0  0
    9.6515  -15.7782   21.1291 N   0  0  0  0  0  0  0  0  0  0  0  0
   10.0304  -16.4073   23.3845 C   0  0  0  0  0  0  0  0  0  0  0  0
   10.7163  -15.3642   23.4601 O   0  0  0  0  0  0  0  0  0  0  0  0
    9.6584  -17.0718   24.6135 N   0  0  0  0  0  0  0  0  0  0  0  0
   10.0485  -16.5684   25.8923 C   0  0  1  0  0  0  0  0  0  0  0  0
    9.6173  -15.2208   26.2494 C   0  0  0  0  0  0  0  0  0  0  0  0
    8.2023  -14.8648   26.1099 C   0  0  0  0  0  0  0  0  0  0  0  0
    7.1021  -15.6369   25.8385 C   0  0  0  0  0  0  0  0  0  0  0  0
    6.0343  -14.8389   25.8219 N   0  0  0  0  0  0  0  0  0  0  0  0
    6.4131  -13.5844   26.0731 C   0  0  0  0  0  0  0  0  0  0  0  0
    5.7032  -12.3942   26.1674 C   0  0  0  0  0  0  0  0  0  0  0  0
    6.3749  -11.2281   26.4443 C   0  0  0  0  0  0  0  0  0  0  0  0
    7.7395  -11.1737   26.6369 C   0  0  0  0  0  0  0  0  0  0  0  0
    8.4342  -12.3594   26.5411 C   0  0  0  0  0  0  0  0  0  0  0  0
    7.7723  -13.5622   26.2598 C   0  0  0  0  0  0  0  0  0  0  0  0
    9.6701  -17.5077   27.0001 C   0  0  0  0  0  0  0  0  0  0  0  0
    8.8812  -18.4607   26.7799 O   0  0  0  0  0  0  0  0  0  0  0  0
   10.1592  -17.3758   28.2913 O   0  0  0  0  0  0  0  0  0  0  0  0
  2  1  1  0
  3  2  2  0
  4  3  1  0
  5  4  2  0
  5 11  1  0
  6  5  1  0
  7  6  1  0
  7  8  1  6
  9 10  2  0
  9  7  1  0
 11 12  2  0
 12  2  1  0
 14 13  1  6
 14 16  1  0
 14 15  1  0
 15  9  1  0
 16 18  1  0
 17 16  2  0
 18 19  1  0
 19 30  1  0
 19 20  1  1
 21 20  1  0
 21 29  1  0
 22 23  1  0
 22 21  2  0
 23 24  1  0
 24 25  2  0
 24 29  1  0
 25 26  1  0
 26 27  2  0
 28 27  1  0
 29 28  2  0
 30 31  2  0
 30 32  1  0
M  END
$$$$
