YAW.pdb
     RDKit          3D

 32 34  0  0  1  0  0  0  0  0999 V2000
    6.9962  -12.2025   18.3858 O   0  0  0  0  0  0  0  0  0  0  0  0
    7.5139  -13.4100   18.8501 C   0  0  0  0  0  0  0  0  0  0  0  0
    6.7111  -14.4972   19.0743 C   0  0  0  0  0  0  0  0  0  0  0  0
    7.2801  -15.6607   19.5323 C   0  0  0  0  0  0  0  0  0  0  0  0
    8.6372  -15.7755   19.7763 C   0  0  0  0  0  0  0  0  0  0  0  0
    9.2051  -17.0544   20.2705 C   0  0  0  0  0  0  0  0  0  0  0  0
    8.8535  -17.2014   21.7599 C   0  0  2  0  0  0  0  0  0  0  0  0
    8.2163  -15.9826   22.2345 N   0  0  0  0  0  0  0  0  0  0  0  0
   10.1724  -17.4021   22.4385 C   0  0  0  0  0  0  0  0  0  0  0  0
   10.7535  -18.4792   22.2773 O   0  0  0  0  0  0  0  0  0  0  0  0
    9.4310  -14.6949   19.5528 C   0  0  0  0  0  0  0  0  0  0  0  0
    8.8823  -13.5071   19.0900 C   0  0  0  0  0  0  0  0  0  0  0  0
   12.9903  -15.4389   23.4507 C   0  0  0  0  0  0  0  0  0  0  0  0
   12.0788  -16.5769   23.8591 C   0  0  2  0  0  0  0  0  0  0  0  0
   10.7600  -16.3976   23.2507 N   0  0  0  0  0  0  0  0  0  0  0  0
   11.8881  -16.6401   25.3230 C   0  0  0  0  0  0  0  0  0  0  0  0
   12.8908  -16.7343   26.0646 O   0  0  0  0  0  0  0  0  0  0  0  0
   10.5818  -16.5970   25.9413 N   0  0  0  0  0  0  0  0  0  0  0  0
   10.4171  -16.6099   27.3603 C   0  0  1  0  0  0  0  0  0  0  0  0
    9.4453  -15.6867   27.9373 C   0  0  0  0  0  0  0  0  0  0  0  0
    8.1899  -15.4356   27.2237 C   0  0  0  0  0  0  0  0  0  0  0  0
    7.1943  -16.2901   26.8250 C   0  0  0  0  0  0  0  0  0  0  0  0
    6.2545  -15.5688   26.2135 N   0  0  0  0  0  0  0  0  0  0  0  0
    6.6142  -14.2839   26.2074 C   0  0  0  0  0  0  0  0  0  0  0  0
    6.0006  -13.1434   25.7053 C   0  0  0  0  0  0  0  0  0  0  0  0
    6.6202  -11.9255   25.8483 C   0  0  0  0  0  0  0  0  0  0  0  0
    7.8396  -11.7707   26.4739 C   0  0  0  0  0  0  0  0  0  0  0  0
    8.4397  -12.9080   26.9682 C   0  0  0  0  0  0  0  0  0  0  0  0
    7.8281  -14.1618   26.8352 C   0  0  0  0  0  0  0  0  0  0  0  0
   10.1386  -17.9916   27.8765 C   0  0  0  0  0  0  0  0  0  0  0  0
   10.1924  -18.2291   29.1092 O   0  0  0  0  0  0  0  0  0  0  0  0
    9.8158  -19.0504   27.0408 O   0  0  0  0  0  0  0  0  0  0  0  0
  2  1  1  0
  3  2  2  0
  4  3  1  0
  5  4  2  0
  5 11  1  0
  6  5  1  0
  7  6  1  0
  7  8  1  1
  9 10  2  0
  9  7  1  0
 11 12  2  0
 12  2  1  0
 14 13  1  1
 14 16  1  0
 14 15  1  0
 15  9  1  0
 16 18  1  0
 17 16  2  0
 18 19  1  0
 19 30  1  0
 19 20  1  6
 21 20  1  0
 21 29  1  0
 22 23  1  0
 22 21  2  0
 23 24  1  0
 24 25  2  0
 24 29  1  0
 25 26  1  0
 26 27  2  0
 28 27  1  0
 29 28  2  0
 30 31  2  0
 30 32  1  0
M  END
$$$$
