YAW.pdb
     RDKit          3D

 32 34  0  0  1  0  0  0  0  0999 V2000
    8.5865  -12.5776   18.9866 O   0  0  0  0  0  0  0  0  0  0  0  0
    8.1877  -13.3815   20.0527 C   0  0  0  0  0  0  0  0  0  0  0  0
    6.9201  -13.8952   20.1304 C   0  0  0  0  0  0  0  0  0  0  0  0
    6.5861  -14.6813   21.2064 C   0  0  0  0  0  0  0  0  0  0  0  0
    7.4846  -14.9741   22.2171 C   0  0  0  0  0  0  0  0  0  0  0  0
    7.0765  -15.8289   23.3594 C   0  0  0  0  0  0  0  0  0  0  0  0
    7.3033  -17.2998   22.9739 C   0  0  2  0  0  0  0  0  0  0  0  0
    6.3128  -18.1367   23.6338 N   0  0  0  0  0  0  0  0  0  0  0  0
    8.6762  -17.6131   23.4812 C   0  0  0  0  0  0  0  0  0  0  0  0
    8.7782  -18.2210   24.5506 O   0  0  0  0  0  0  0  0  0  0  0  0
    8.7416  -14.4628   22.1370 C   0  0  0  0  0  0  0  0  0  0  0  0
    9.1056  -13.6656   21.0608 C   0  0  0  0  0  0  0  0  0  0  0  0
   12.2020  -17.2490   22.1587 C   0  0  0  0  0  0  0  0  0  0  0  0
   11.1731  -17.6925   23.1772 C   0  0  2  0  0  0  0  0  0  0  0  0
    9.8445  -17.2322   22.7714 N   0  0  0  0  0  0  0  0  0  0  0  0
   11.4442  -17.1391   24.5202 C   0  0  0  0  0  0  0  0  0  0  0  0
   12.5157  -17.4322   25.0950 O   0  0  0  0  0  0  0  0  0  0  0  0
   10.5173  -16.2660   25.2049 N   0  0  0  0  0  0  0  0  0  0  0  0
   10.7876  -15.7520   26.5102 C   0  0  1  0  0  0  0  0  0  0  0  0
    9.9639  -14.6452   26.9858 C   0  0  0  0  0  0  0  0  0  0  0  0
    8.5129  -14.6993   26.7856 C   0  0  0  0  0  0  0  0  0  0  0  0
    7.6475  -15.7625   26.7534 C   0  0  0  0  0  0  0  0  0  0  0  0
    6.4196  -15.2862   26.5463 N   0  0  0  0  0  0  0  0  0  0  0  0
    6.4697  -13.9567   26.4451 C   0  0  0  0  0  0  0  0  0  0  0  0
    5.4881  -12.9973   26.2327 C   0  0  0  0  0  0  0  0  0  0  0  0
    5.8423  -11.6711   26.1738 C   0  0  0  0  0  0  0  0  0  0  0  0
    7.1422  -11.2327   26.3164 C   0  0  0  0  0  0  0  0  0  0  0  0
    8.1082  -12.1922   26.5266 C   0  0  0  0  0  0  0  0  0  0  0  0
    7.7725  -13.5513   26.5909 C   0  0  0  0  0  0  0  0  0  0  0  0
   10.7872  -16.8369   27.5474 C   0  0  0  0  0  0  0  0  0  0  0  0
   11.1162  -16.5793   28.7325 O   0  0  0  0  0  0  0  0  0  0  0  0
   10.4326  -18.1463   27.2588 O   0  0  0  0  0  0  0  0  0  0  0  0
  2  1  1  0
  3  2  2  0
  4  3  1  0
  5  4  2  0
  5 11  1  0
  6  5  1  0
  7  6  1  0
  7  8  1  1
  9 10  2  0
  9  7  1  0
 11 12  2  0
 12  2  1  0
 14 13  1  6
 14 16  1  0
 14 15  1  0
 15  9  1  0
 16 18  1  0
 17 16  2  0
 18 19  1  0
 19 30  1  0
 19 20  1  1
 21 20  1  0
 21 29  1  0
 22 23  1  0
 22 21  2  0
 23 24  1  0
 24 25  2  0
 24 29  1  0
 25 26  1  0
 26 27  2  0
 28 27  1  0
 29 28  2  0
 30 31  2  0
 30 32  1  0
M  END
$$$$
