YAW.pdb
     RDKit          3D

 32 34  0  0  1  0  0  0  0  0999 V2000
    8.1113  -12.4075   19.0409 O   0  0  0  0  0  0  0  0  0  0  0  0
    7.7961  -13.2995   20.0641 C   0  0  0  0  0  0  0  0  0  0  0  0
    7.7103  -14.6483   19.8405 C   0  0  0  0  0  0  0  0  0  0  0  0
    7.3957  -15.4774   20.8897 C   0  0  0  0  0  0  0  0  0  0  0  0
    7.1616  -14.9997   22.1670 C   0  0  0  0  0  0  0  0  0  0  0  0
    6.8253  -15.9357   23.2682 C   0  0  0  0  0  0  0  0  0  0  0  0
    7.1077  -17.3703   22.7928 C   0  0  2  0  0  0  0  0  0  0  0  0
    6.2382  -18.2993   23.4984 N   0  0  0  0  0  0  0  0  0  0  0  0
    8.5391  -17.6115   23.1579 C   0  0  0  0  0  0  0  0  0  0  0  0
    8.7880  -18.4784   24.0006 O   0  0  0  0  0  0  0  0  0  0  0  0
    7.2475  -13.6607   22.3854 C   0  0  0  0  0  0  0  0  0  0  0  0
    7.5638  -12.8004   21.3433 C   0  0  0  0  0  0  0  0  0  0  0  0
   11.8739  -16.5067   21.7770 C   0  0  0  0  0  0  0  0  0  0  0  0
   10.9984  -17.2628   22.7540 C   0  0  2  0  0  0  0  0  0  0  0  0
    9.5993  -16.8769   22.5662 N   0  0  0  0  0  0  0  0  0  0  0  0
   11.3542  -16.9747   24.1590 C   0  0  0  0  0  0  0  0  0  0  0  0
   12.5364  -17.1367   24.5337 O   0  0  0  0  0  0  0  0  0  0  0  0
   10.3872  -16.5096   25.1281 N   0  0  0  0  0  0  0  0  0  0  0  0
   10.7026  -16.4003   26.5171 C   0  0  1  0  0  0  0  0  0  0  0  0
    9.8474  -15.5517   27.3407 C   0  0  0  0  0  0  0  0  0  0  0  0
    8.5044  -15.2137   26.8606 C   0  0  0  0  0  0  0  0  0  0  0  0
    7.4711  -16.0113   26.4404 C   0  0  0  0  0  0  0  0  0  0  0  0
    6.4507  -15.2203   26.1082 N   0  0  0  0  0  0  0  0  0  0  0  0
    6.7951  -13.9457   26.3014 C   0  0  0  0  0  0  0  0  0  0  0  0
    6.1091  -12.7528   26.1131 C   0  0  0  0  0  0  0  0  0  0  0  0
    6.7319  -11.5632   26.4040 C   0  0  0  0  0  0  0  0  0  0  0  0
    8.0238  -11.4875   26.8811 C   0  0  0  0  0  0  0  0  0  0  0  0
    8.6954  -12.6762   27.0643 C   0  0  0  0  0  0  0  0  0  0  0  0
    8.0822  -13.9027   26.7751 C   0  0  0  0  0  0  0  0  0  0  0  0
   10.8211  -17.7470   27.1693 C   0  0  0  0  0  0  0  0  0  0  0  0
   10.5612  -18.7902   26.5188 O   0  0  0  0  0  0  0  0  0  0  0  0
   11.2138  -17.9055   28.4901 O   0  0  0  0  0  0  0  0  0  0  0  0
  2  1  1  0
  3  2  2  0
  4  3  1  0
  5  4  2  0
  5 11  1  0
  6  5  1  0
  7  6  1  0
  7  8  1  1
  9 10  2  0
  9  7  1  0
 11 12  2  0
 12  2  1  0
 14 13  1  6
 14 16  1  0
 14 15  1  0
 15  9  1  0
 16 18  1  0
 17 16  2  0
 18 19  1  0
 19 30  1  0
 19 20  1  1
 21 20  1  0
 21 29  1  0
 22 23  1  0
 22 21  2  0
 23 24  1  0
 24 25  2  0
 24 29  1  0
 25 26  1  0
 26 27  2  0
 28 27  1  0
 29 28  2  0
 30 31  2  0
 30 32  1  0
M  END
$$$$
