YAW.pdb
     RDKit          3D

 32 34  0  0  1  0  0  0  0  0999 V2000
    9.2010  -24.8701   21.6872 O   0  0  0  0  0  0  0  0  0  0  0  0
    9.3474  -23.4843   21.6845 C   0  0  0  0  0  0  0  0  0  0  0  0
   10.5008  -22.8843   21.2529 C   0  0  0  0  0  0  0  0  0  0  0  0
   10.5853  -21.5133   21.2741 C   0  0  0  0  0  0  0  0  0  0  0  0
    9.5462  -20.7139   21.7164 C   0  0  0  0  0  0  0  0  0  0  0  0
    9.6852  -19.2365   21.7197 C   0  0  0  0  0  0  0  0  0  0  0  0
    9.0976  -18.6880   20.4092 C   0  0  2  0  0  0  0  0  0  0  0  0
    9.9165  -19.1210   19.2871 N   0  0  0  0  0  0  0  0  0  0  0  0
    9.1628  -17.2005   20.5626 C   0  0  0  0  0  0  0  0  0  0  0  0
   10.2300  -16.6342   20.3097 O   0  0  0  0  0  0  0  0  0  0  0  0
    8.4030  -21.3123   22.1440 C   0  0  0  0  0  0  0  0  0  0  0  0
    8.2908  -22.6956   22.1331 C   0  0  0  0  0  0  0  0  0  0  0  0
    6.7725  -14.3606   20.9758 C   0  0  0  0  0  0  0  0  0  0  0  0
    8.1312  -14.9929   21.1917 C   0  0  2  0  0  0  0  0  0  0  0  0
    8.0426  -16.4391   20.9860 N   0  0  0  0  0  0  0  0  0  0  0  0
    8.6386  -14.7689   22.5613 C   0  0  0  0  0  0  0  0  0  0  0  0
    8.3502  -13.7046   23.1514 O   0  0  0  0  0  0  0  0  0  0  0  0
    9.4608  -15.7347   23.2553 N   0  0  0  0  0  0  0  0  0  0  0  0
    9.9303  -15.5096   24.5856 C   0  0  1  0  0  0  0  0  0  0  0  0
    9.0294  -15.8371   25.6860 C   0  0  0  0  0  0  0  0  0  0  0  0
    7.6924  -15.2371   25.7151 C   0  0  0  0  0  0  0  0  0  0  0  0
    6.4622  -15.7642   25.4167 C   0  0  0  0  0  0  0  0  0  0  0  0
    5.5498  -14.8109   25.6070 N   0  0  0  0  0  0  0  0  0  0  0  0
    6.1533  -13.6936   26.0166 C   0  0  0  0  0  0  0  0  0  0  0  0
    5.6668  -12.4355   26.3480 C   0  0  0  0  0  0  0  0  0  0  0  0
    6.5443  -11.4562   26.7461 C   0  0  0  0  0  0  0  0  0  0  0  0
    7.9058  -11.6574   26.8361 C   0  0  0  0  0  0  0  0  0  0  0  0
    8.3780  -12.9085   26.5051 C   0  0  0  0  0  0  0  0  0  0  0  0
    7.5035  -13.9244   26.0963 C   0  0  0  0  0  0  0  0  0  0  0  0
   11.2541  -16.1737   24.8293 C   0  0  0  0  0  0  0  0  0  0  0  0
   11.7564  -16.9233   23.9548 O   0  0  0  0  0  0  0  0  0  0  0  0
   11.9730  -15.9988   26.0025 O   0  0  0  0  0  0  0  0  0  0  0  0
  2  1  1  0
  3  2  2  0
  4  3  1  0
  5  4  2  0
  5 11  1  0
  6  5  1  0
  7  6  1  0
  7  8  1  6
  9 10  2  0
  9  7  1  0
 11 12  2  0
 12  2  1  0
 14 13  1  1
 14 16  1  0
 14 15  1  0
 15  9  1  0
 16 18  1  0
 17 16  2  0
 18 19  1  0
 19 30  1  0
 19 20  1  1
 21 20  1  0
 21 29  1  0
 22 23  1  0
 22 21  2  0
 23 24  1  0
 24 25  2  0
 24 29  1  0
 25 26  1  0
 26 27  2  0
 28 27  1  0
 29 28  2  0
 30 31  2  0
 30 32  1  0
M  END
$$$$
