YAW.pdb
     RDKit          3D

 32 34  0  0  1  0  0  0  0  0999 V2000
    9.5626  -11.9958   16.3920 O   0  0  0  0  0  0  0  0  0  0  0  0
    9.1481  -12.6367   17.5579 C   0  0  0  0  0  0  0  0  0  0  0  0
    9.9144  -13.5996   18.1599 C   0  0  0  0  0  0  0  0  0  0  0  0
    9.4520  -14.1958   19.3079 C   0  0  0  0  0  0  0  0  0  0  0  0
    8.2381  -13.8592   19.8802 C   0  0  0  0  0  0  0  0  0  0  0  0
    7.7818  -14.5316   21.1219 C   0  0  0  0  0  0  0  0  0  0  0  0
    7.5062  -16.0101   20.8033 C   0  0  2  0  0  0  0  0  0  0  0  0
    6.1245  -16.1688   20.3756 N   0  0  0  0  0  0  0  0  0  0  0  0
    7.7392  -16.7227   22.0987 C   0  0  0  0  0  0  0  0  0  0  0  0
    6.8707  -16.6438   22.9723 O   0  0  0  0  0  0  0  0  0  0  0  0
    7.4801  -12.9033   19.2804 C   0  0  0  0  0  0  0  0  0  0  0  0
    7.9233  -12.2848   18.1197 C   0  0  0  0  0  0  0  0  0  0  0  0
    9.9294  -19.4642   23.3169 C   0  0  0  0  0  0  0  0  0  0  0  0
    9.1109  -18.2191   23.5861 C   0  0  2  0  0  0  0  0  0  0  0  0
    8.9181  -17.4747   22.3410 N   0  0  0  0  0  0  0  0  0  0  0  0
    9.7740  -17.3136   24.5473 C   0  0  0  0  0  0  0  0  0  0  0  0
   10.2666  -16.2410   24.1337 O   0  0  0  0  0  0  0  0  0  0  0  0
    9.8789  -17.6156   25.9573 N   0  0  0  0  0  0  0  0  0  0  0  0
   10.4960  -16.7149   26.8787 C   0  0  1  0  0  0  0  0  0  0  0  0
    9.8600  -15.4180   27.0864 C   0  0  0  0  0  0  0  0  0  0  0  0
    8.3996  -15.3199   27.0091 C   0  0  0  0  0  0  0  0  0  0  0  0
    7.4379  -16.2881   26.8748 C   0  0  0  0  0  0  0  0  0  0  0  0
    6.2484  -15.6863   26.8605 N   0  0  0  0  0  0  0  0  0  0  0  0
    6.4158  -14.3680   26.9812 C   0  0  0  0  0  0  0  0  0  0  0  0
    5.5158  -13.3108   27.0214 C   0  0  0  0  0  0  0  0  0  0  0  0
    5.9879  -12.0276   27.1560 C   0  0  0  0  0  0  0  0  0  0  0  0
    7.3303  -11.7265   27.2549 C   0  0  0  0  0  0  0  0  0  0  0  0
    8.2145  -12.7821   27.2138 C   0  0  0  0  0  0  0  0  0  0  0  0
    7.7581  -14.1000   27.0773 C   0  0  0  0  0  0  0  0  0  0  0  0
   10.7316  -17.3584   28.2141 C   0  0  0  0  0  0  0  0  0  0  0  0
   10.2282  -18.4801   28.4736 O   0  0  0  0  0  0  0  0  0  0  0  0
   11.4976  -16.7632   29.2054 O   0  0  0  0  0  0  0  0  0  0  0  0
  2  1  1  0
  3  2  2  0
  4  3  1  0
  5  4  2  0
  5 11  1  0
  6  5  1  0
  7  6  1  0
  7  8  1  1
  9 10  2  0
  9  7  1  0
 11 12  2  0
 12  2  1  0
 14 13  1  6
 14 16  1  0
 14 15  1  0
 15  9  1  0
 16 18  1  0
 17 16  2  0
 18 19  1  0
 19 30  1  0
 19 20  1  1
 21 20  1  0
 21 29  1  0
 22 23  1  0
 22 21  2  0
 23 24  1  0
 24 25  2  0
 24 29  1  0
 25 26  1  0
 26 27  2  0
 28 27  1  0
 29 28  2  0
 30 31  2  0
 30 32  1  0
M  END
$$$$
