YAW.pdb
     RDKit          3D

 32 34  0  0  1  0  0  0  0  0999 V2000
   11.6766  -23.9091   17.6659 O   0  0  0  0  0  0  0  0  0  0  0  0
   11.5532  -22.5769   18.0555 C   0  0  0  0  0  0  0  0  0  0  0  0
   11.0543  -21.6235   17.2077 C   0  0  0  0  0  0  0  0  0  0  0  0
   10.9570  -20.3263   17.6494 C   0  0  0  0  0  0  0  0  0  0  0  0
   11.3451  -19.9460   18.9219 C   0  0  0  0  0  0  0  0  0  0  0  0
   11.2200  -18.5317   19.3532 C   0  0  0  0  0  0  0  0  0  0  0  0
   10.3165  -18.4783   20.5959 C   0  0  2  0  0  0  0  0  0  0  0  0
    9.0302  -19.0866   20.2917 N   0  0  0  0  0  0  0  0  0  0  0  0
   10.1522  -17.0175   20.8777 C   0  0  0  0  0  0  0  0  0  0  0  0
   11.1557  -16.2998   20.8402 O   0  0  0  0  0  0  0  0  0  0  0  0
   11.8397  -20.8945   19.7607 C   0  0  0  0  0  0  0  0  0  0  0  0
   11.9489  -22.2126   19.3402 C   0  0  0  0  0  0  0  0  0  0  0  0
    7.3016  -14.6073   21.3399 C   0  0  0  0  0  0  0  0  0  0  0  0
    8.7449  -15.0305   21.5138 C   0  0  2  0  0  0  0  0  0  0  0  0
    8.8883  -16.4487   21.1826 N   0  0  0  0  0  0  0  0  0  0  0  0
    9.2154  -14.8486   22.9027 C   0  0  0  0  0  0  0  0  0  0  0  0
    9.3046  -13.6916   23.3691 O   0  0  0  0  0  0  0  0  0  0  0  0
    9.5801  -15.9591   23.7536 N   0  0  0  0  0  0  0  0  0  0  0  0
   10.0601  -15.7645   25.0850 C   0  0  1  0  0  0  0  0  0  0  0  0
    9.1069  -15.9247   26.1784 C   0  0  0  0  0  0  0  0  0  0  0  0
    7.7706  -15.3362   26.0509 C   0  0  0  0  0  0  0  0  0  0  0  0
    6.5608  -15.9063   25.7484 C   0  0  0  0  0  0  0  0  0  0  0  0
    5.6385  -14.9437   25.7613 N   0  0  0  0  0  0  0  0  0  0  0  0
    6.2160  -13.7789   26.0616 C   0  0  0  0  0  0  0  0  0  0  0  0
    5.7102  -12.4928   26.2011 C   0  0  0  0  0  0  0  0  0  0  0  0
    6.5620  -11.4642   26.5239 C   0  0  0  0  0  0  0  0  0  0  0  0
    7.9156  -11.6420   26.7202 C   0  0  0  0  0  0  0  0  0  0  0  0
    8.4071  -12.9212   26.5794 C   0  0  0  0  0  0  0  0  0  0  0  0
    7.5589  -13.9873   26.2508 C   0  0  0  0  0  0  0  0  0  0  0  0
   11.2700  -16.6059   25.3698 C   0  0  0  0  0  0  0  0  0  0  0  0
   11.6589  -17.4586   24.5328 O   0  0  0  0  0  0  0  0  0  0  0  0
   12.0025  -16.4887   26.5417 O   0  0  0  0  0  0  0  0  0  0  0  0
  2  1  1  0
  3  2  2  0
  4  3  1  0
  5  4  2  0
  5 11  1  0
  6  5  1  0
  7  6  1  0
  7  8  1  6
  9 10  2  0
  9  7  1  0
 11 12  2  0
 12  2  1  0
 14 13  1  1
 14 16  1  0
 14 15  1  0
 15  9  1  0
 16 18  1  0
 17 16  2  0
 18 19  1  0
 19 30  1  0
 19 20  1  1
 21 20  1  0
 21 29  1  0
 22 23  1  0
 22 21  2  0
 23 24  1  0
 24 25  2  0
 24 29  1  0
 25 26  1  0
 26 27  2  0
 28 27  1  0
 29 28  2  0
 30 31  2  0
 30 32  1  0
M  END
$$$$
