YAW.pdb
     RDKit          3D

 32 34  0  0  1  0  0  0  0  0999 V2000
    8.3388  -12.3262   16.3500 O   0  0  0  0  0  0  0  0  0  0  0  0
    8.2316  -12.9745   17.5788 C   0  0  0  0  0  0  0  0  0  0  0  0
    7.0723  -12.9450   18.3081 C   0  0  0  0  0  0  0  0  0  0  0  0
    7.0278  -13.6036   19.5129 C   0  0  0  0  0  0  0  0  0  0  0  0
    8.1130  -14.2973   20.0184 C   0  0  0  0  0  0  0  0  0  0  0  0
    8.0157  -14.9937   21.3251 C   0  0  0  0  0  0  0  0  0  0  0  0
    7.9514  -16.5080   21.0676 C   0  0  2  0  0  0  0  0  0  0  0  0
    6.6288  -16.8650   20.5774 N   0  0  0  0  0  0  0  0  0  0  0  0
    8.1987  -17.1272   22.4077 C   0  0  0  0  0  0  0  0  0  0  0  0
    7.2716  -17.1443   23.2224 O   0  0  0  0  0  0  0  0  0  0  0  0
    9.2618  -14.3247   19.2922 C   0  0  0  0  0  0  0  0  0  0  0  0
    9.3342  -13.6679   18.0717 C   0  0  0  0  0  0  0  0  0  0  0  0
   10.5951  -19.5430   23.8458 C   0  0  0  0  0  0  0  0  0  0  0  0
    9.6654  -18.3633   24.0368 C   0  0  2  0  0  0  0  0  0  0  0  0
    9.4557  -17.6858   22.7567 N   0  0  0  0  0  0  0  0  0  0  0  0
   10.2146  -17.3685   24.9815 C   0  0  0  0  0  0  0  0  0  0  0  0
   10.9417  -16.4496   24.5442 O   0  0  0  0  0  0  0  0  0  0  0  0
    9.9458  -17.4110   26.4015 N   0  0  0  0  0  0  0  0  0  0  0  0
   10.5430  -16.4855   27.3112 C   0  0  1  0  0  0  0  0  0  0  0  0
    9.8656  -15.2102   27.5215 C   0  0  0  0  0  0  0  0  0  0  0  0
    8.4540  -15.0829   27.1477 C   0  0  0  0  0  0  0  0  0  0  0  0
    7.4987  -16.0350   26.9002 C   0  0  0  0  0  0  0  0  0  0  0  0
    6.3607  -15.4073   26.6028 N   0  0  0  0  0  0  0  0  0  0  0  0
    6.5549  -14.0881   26.6516 C   0  0  0  0  0  0  0  0  0  0  0  0
    5.7086  -13.0094   26.4297 C   0  0  0  0  0  0  0  0  0  0  0  0
    6.1971  -11.7314   26.5556 C   0  0  0  0  0  0  0  0  0  0  0  0
    7.5050  -11.4563   26.8961 C   0  0  0  0  0  0  0  0  0  0  0  0
    8.3362  -12.5331   27.1139 C   0  0  0  0  0  0  0  0  0  0  0  0
    7.8620  -13.8462   26.9919 C   0  0  0  0  0  0  0  0  0  0  0  0
   10.8172  -17.1144   28.6462 C   0  0  0  0  0  0  0  0  0  0  0  0
   10.4271  -18.2845   28.8865 O   0  0  0  0  0  0  0  0  0  0  0  0
   11.4980  -16.4534   29.6578 O   0  0  0  0  0  0  0  0  0  0  0  0
  2  1  1  0
  3  2  2  0
  4  3  1  0
  5  4  2  0
  5 11  1  0
  6  5  1  0
  7  6  1  0
  7  8  1  1
  9 10  2  0
  9  7  1  0
 11 12  2  0
 12  2  1  0
 14 13  1  6
 14 16  1  0
 14 15  1  0
 15  9  1  0
 16 18  1  0
 17 16  2  0
 18 19  1  0
 19 30  1  0
 19 20  1  1
 21 20  1  0
 21 29  1  0
 22 23  1  0
 22 21  2  0
 23 24  1  0
 24 25  2  0
 24 29  1  0
 25 26  1  0
 26 27  2  0
 28 27  1  0
 29 28  2  0
 30 31  2  0
 30 32  1  0
M  END
$$$$
