SQW.pdb
     RDKit          3D

 30 31  0  0  1  0  0  0  0  0999 V2000
    6.6491  -16.0057   20.0152 O   0  0  0  0  0  0  0  0  0  0  0  0
    7.4401  -15.4566   19.0005 C   0  0  0  0  0  0  0  0  0  0  0  0
    8.4789  -16.4759   18.5445 C   0  0  2  0  0  0  0  0  0  0  0  0
    7.8279  -17.7426   18.2580 N   0  0  0  0  0  0  0  0  0  0  0  0
    9.4815  -16.6086   19.6253 C   0  0  0  0  0  0  0  0  0  0  0  0
    9.3626  -17.5790   20.4173 O   0  0  0  0  0  0  0  0  0  0  0  0
   14.5407  -13.5199   18.7682 N   0  0  0  0  0  0  0  0  0  0  0  0
   14.6876  -14.9127   18.9902 C   0  0  0  0  0  0  0  0  0  0  0  0
   15.7953  -15.4635   18.9000 O   0  0  0  0  0  0  0  0  0  0  0  0
   13.4933  -15.7467   19.3409 C   0  0  0  0  0  0  0  0  0  0  0  0
   12.7961  -15.1039   20.4945 C   0  0  0  0  0  0  0  0  0  0  0  0
   11.5343  -15.7998   20.8441 C   0  0  2  0  0  0  0  0  0  0  0  0
   10.5444  -15.6855   19.7759 N   0  0  0  0  0  0  0  0  0  0  0  0
   10.9560  -15.2821   22.0808 C   0  0  0  0  0  0  0  0  0  0  0  0
   10.5748  -14.1150   22.2299 O   0  0  0  0  0  0  0  0  0  0  0  0
   10.8012  -16.1527   23.2255 N   0  0  0  0  0  0  0  0  0  0  0  0
    9.9693  -15.7495   24.3649 C   0  0  1  0  0  0  0  0  0  0  0  0
    8.5933  -15.4406   23.8172 C   0  0  0  0  0  0  0  0  0  0  0  0
    7.6263  -15.0385   24.8428 C   0  0  0  0  0  0  0  0  0  0  0  0
    6.6740  -15.8501   25.4081 C   0  0  0  0  0  0  0  0  0  0  0  0
    6.0044  -15.0952   26.2951 N   0  0  0  0  0  0  0  0  0  0  0  0
    6.4926  -13.8380   26.3162 C   0  0  0  0  0  0  0  0  0  0  0  0
    6.1312  -12.7191   27.0567 C   0  0  0  0  0  0  0  0  0  0  0  0
    6.7930  -11.5432   26.8888 C   0  0  0  0  0  0  0  0  0  0  0  0
    7.8319  -11.4787   25.9687 C   0  0  0  0  0  0  0  0  0  0  0  0
    8.1901  -12.5886   25.2345 C   0  0  0  0  0  0  0  0  0  0  0  0
    7.5220  -13.7833   25.4012 C   0  0  0  0  0  0  0  0  0  0  0  0
    9.9479  -16.7873   25.3981 C   0  0  0  0  0  0  0  0  0  0  0  0
    9.7220  -16.4858   26.7248 O   0  0  0  0  0  0  0  0  0  0  0  0
   10.1394  -17.9860   25.0743 O   0  0  0  0  0  0  0  0  0  0  0  0
  1  2  1  0
  2  3  1  0
  3  4  1  1
  3  5  1  0
  5  6  2  0
  8  7  1  0
  8  9  2  0
 10 11  1  0
 10  8  1  0
 12 11  1  6
 12 14  1  0
 13  5  1  0
 13 12  1  0
 14 15  2  0
 16 17  1  0
 16 14  1  0
 17 28  1  0
 17 18  1  6
 19 18  1  0
 20 19  2  0
 21 22  1  0
 21 20  1  0
 22 27  2  0
 23 24  2  0
 23 22  1  0
 24 25  1  0
 25 26  2  0
 27 26  1  0
 27 19  1  0
 28 30  2  0
 28 29  1  0
M  END
$$$$
