SQW.pdb
     RDKit          3D

 30 31  0  0  1  0  0  0  0  0999 V2000
    8.1136  -12.2597   19.6201 O   0  0  0  0  0  0  0  0  0  0  0  0
    8.1826  -13.1829   20.6688 C   0  0  0  0  0  0  0  0  0  0  0  0
    8.1154  -14.6022   20.1147 C   0  0  2  0  0  0  0  0  0  0  0  0
    6.7764  -14.8709   19.6197 N   0  0  0  0  0  0  0  0  0  0  0  0
    8.4906  -15.5282   21.2068 C   0  0  0  0  0  0  0  0  0  0  0  0
    7.5639  -16.0153   21.9047 O   0  0  0  0  0  0  0  0  0  0  0  0
   10.9045  -20.2067   22.3956 N   0  0  0  0  0  0  0  0  0  0  0  0
   10.9220  -19.7510   21.0529 C   0  0  0  0  0  0  0  0  0  0  0  0
   10.6458  -20.5122   20.1134 O   0  0  0  0  0  0  0  0  0  0  0  0
   11.2783  -18.3280   20.7482 C   0  0  0  0  0  0  0  0  0  0  0  0
   11.4487  -17.6010   22.0415 C   0  0  0  0  0  0  0  0  0  0  0  0
   10.2157  -16.8843   22.4472 C   0  0  2  0  0  0  0  0  0  0  0  0
    9.8403  -15.8659   21.4694 N   0  0  0  0  0  0  0  0  0  0  0  0
   10.3636  -16.2513   23.7546 C   0  0  0  0  0  0  0  0  0  0  0  0
   11.0729  -15.2606   23.9665 O   0  0  0  0  0  0  0  0  0  0  0  0
    9.6555  -16.7827   24.8985 N   0  0  0  0  0  0  0  0  0  0  0  0
    9.9193  -16.2679   26.2469 C   0  0  1  0  0  0  0  0  0  0  0  0
    8.5846  -16.1832   26.9542 C   0  0  0  0  0  0  0  0  0  0  0  0
    7.6100  -15.3247   26.2748 C   0  0  0  0  0  0  0  0  0  0  0  0
    6.5493  -15.7593   25.5189 C   0  0  0  0  0  0  0  0  0  0  0  0
    5.9130  -14.6593   25.0830 N   0  0  0  0  0  0  0  0  0  0  0  0
    6.5259  -13.5445   25.5311 C   0  0  0  0  0  0  0  0  0  0  0  0
    6.2421  -12.1967   25.3468 C   0  0  0  0  0  0  0  0  0  0  0  0
    7.0306  -11.2464   25.9159 C   0  0  0  0  0  0  0  0  0  0  0  0
    8.1201  -11.6428   26.6814 C   0  0  0  0  0  0  0  0  0  0  0  0
    8.4013  -12.9795   26.8639 C   0  0  0  0  0  0  0  0  0  0  0  0
    7.6047  -13.9470   26.2889 C   0  0  0  0  0  0  0  0  0  0  0  0
   10.8839  -17.1113   26.9562 C   0  0  0  0  0  0  0  0  0  0  0  0
   11.4072  -18.2527   26.3857 O   0  0  0  0  0  0  0  0  0  0  0  0
   11.2490  -16.7924   28.1153 O   0  0  0  0  0  0  0  0  0  0  0  0
  1  2  1  0
  2  3  1  0
  3  4  1  1
  3  5  1  0
  5  6  2  0
  8  7  1  0
  8  9  2  0
 10 11  1  0
 10  8  1  0
 12 11  1  6
 12 14  1  0
 13  5  1  0
 13 12  1  0
 14 15  2  0
 16 17  1  0
 16 14  1  0
 17 28  1  0
 17 18  1  1
 19 18  1  0
 20 19  2  0
 21 22  1  0
 21 20  1  0
 22 27  2  0
 23 24  2  0
 23 22  1  0
 24 25  1  0
 25 26  2  0
 27 26  1  0
 27 19  1  0
 28 30  2  0
 28 29  1  0
M  END
$$$$
