SQW.pdb
     RDKit          3D

 30 31  0  0  1  0  0  0  0  0999 V2000
   10.9985  -13.2126   19.2451 O   0  0  0  0  0  0  0  0  0  0  0  0
   10.2363  -13.8831   18.2826 C   0  0  0  0  0  0  0  0  0  0  0  0
    8.7534  -13.7567   18.6160 C   0  0  2  0  0  0  0  0  0  0  0  0
    8.4150  -12.3583   18.8166 N   0  0  0  0  0  0  0  0  0  0  0  0
    8.4969  -14.5611   19.8317 C   0  0  0  0  0  0  0  0  0  0  0  0
    8.2993  -13.9441   20.9102 O   0  0  0  0  0  0  0  0  0  0  0  0
    8.4630  -21.4324   21.4768 N   0  0  0  0  0  0  0  0  0  0  0  0
    7.4422  -20.4536   21.3741 C   0  0  0  0  0  0  0  0  0  0  0  0
    6.3282  -20.7349   20.9066 O   0  0  0  0  0  0  0  0  0  0  0  0
    7.6986  -19.0509   21.8342 C   0  0  0  0  0  0  0  0  0  0  0  0
    8.0113  -18.2154   20.6366 C   0  0  0  0  0  0  0  0  0  0  0  0
    8.1584  -16.7801   20.9786 C   0  0  2  0  0  0  0  0  0  0  0  0
    8.4699  -15.9764   19.7991 N   0  0  0  0  0  0  0  0  0  0  0  0
    9.1970  -16.5671   21.9825 C   0  0  0  0  0  0  0  0  0  0  0  0
   10.4075  -16.5435   21.7302 O   0  0  0  0  0  0  0  0  0  0  0  0
    8.8322  -16.3673   23.3679 N   0  0  0  0  0  0  0  0  0  0  0  0
    9.8630  -16.1478   24.3887 C   0  0  1  0  0  0  0  0  0  0  0  0
    9.5801  -14.8009   25.0169 C   0  0  0  0  0  0  0  0  0  0  0  0
    8.2192  -14.6703   25.5456 C   0  0  0  0  0  0  0  0  0  0  0  0
    7.3332  -15.7010   25.7405 C   0  0  0  0  0  0  0  0  0  0  0  0
    6.2111  -15.1534   26.2363 N   0  0  0  0  0  0  0  0  0  0  0  0
    6.3483  -13.8177   26.3641 C   0  0  0  0  0  0  0  0  0  0  0  0
    5.4750  -12.8391   26.8233 C   0  0  0  0  0  0  0  0  0  0  0  0
    5.8606  -11.5355   26.8524 C   0  0  0  0  0  0  0  0  0  0  0  0
    7.1365  -11.1991   26.4174 C   0  0  0  0  0  0  0  0  0  0  0  0
    8.0022  -12.1698   25.9621 C   0  0  0  0  0  0  0  0  0  0  0  0
    7.6158  -13.4931   25.9307 C   0  0  0  0  0  0  0  0  0  0  0  0
    9.8791  -17.2372   25.3674 C   0  0  0  0  0  0  0  0  0  0  0  0
   10.8450  -17.3169   26.3487 O   0  0  0  0  0  0  0  0  0  0  0  0
    8.9924  -18.1260   25.3178 O   0  0  0  0  0  0  0  0  0  0  0  0
  1  2  1  0
  2  3  1  0
  3  4  1  1
  3  5  1  0
  5  6  2  0
  8  7  1  0
  8  9  2  0
 10 11  1  0
 10  8  1  0
 12 11  1  6
 12 14  1  0
 13  5  1  0
 13 12  1  0
 14 15  2  0
 16 17  1  0
 16 14  1  0
 17 28  1  0
 17 18  1  1
 19 18  1  0
 20 19  2  0
 21 22  1  0
 21 20  1  0
 22 27  2  0
 23 24  2  0
 23 22  1  0
 24 25  1  0
 25 26  2  0
 27 26  1  0
 27 19  1  0
 28 30  2  0
 28 29  1  0
M  END
$$$$
