SQW.pdb
     RDKit          3D

 30 31  0  0  1  0  0  0  0  0999 V2000
    7.3811  -13.9491   15.3654 O   0  0  0  0  0  0  0  0  0  0  0  0
    7.3793  -14.8438   16.4408 C   0  0  0  0  0  0  0  0  0  0  0  0
    8.0281  -14.1923   17.6577 C   0  0  2  0  0  0  0  0  0  0  0  0
    9.1711  -13.4007   17.2371 N   0  0  0  0  0  0  0  0  0  0  0  0
    8.4243  -15.2737   18.5874 C   0  0  0  0  0  0  0  0  0  0  0  0
    7.5099  -15.9748   19.0927 O   0  0  0  0  0  0  0  0  0  0  0  0
   13.7858  -17.5065   16.7203 N   0  0  0  0  0  0  0  0  0  0  0  0
   13.0236  -18.0323   17.7942 C   0  0  0  0  0  0  0  0  0  0  0  0
   13.4873  -18.9060   18.5427 O   0  0  0  0  0  0  0  0  0  0  0  0
   11.6326  -17.5337   18.0418 C   0  0  0  0  0  0  0  0  0  0  0  0
   11.5325  -17.1172   19.4725 C   0  0  0  0  0  0  0  0  0  0  0  0
   10.1856  -16.5980   19.8113 C   0  0  2  0  0  0  0  0  0  0  0  0
    9.7807  -15.5249   18.9066 N   0  0  0  0  0  0  0  0  0  0  0  0
   10.1256  -16.1054   21.1844 C   0  0  0  0  0  0  0  0  0  0  0  0
   10.8637  -15.2207   21.6341 O   0  0  0  0  0  0  0  0  0  0  0  0
    9.1594  -16.6577   22.1083 N   0  0  0  0  0  0  0  0  0  0  0  0
    8.9533  -16.0496   23.4276 C   0  0  1  0  0  0  0  0  0  0  0  0
    7.5617  -15.4561   23.4257 C   0  0  0  0  0  0  0  0  0  0  0  0
    7.1316  -14.9559   24.7347 C   0  0  0  0  0  0  0  0  0  0  0  0
    6.5197  -15.6984   25.7144 C   0  0  0  0  0  0  0  0  0  0  0  0
    6.2966  -14.8648   26.7441 N   0  0  0  0  0  0  0  0  0  0  0  0
    6.7419  -13.6240   26.4585 C   0  0  0  0  0  0  0  0  0  0  0  0
    6.7323  -12.4465   27.1964 C   0  0  0  0  0  0  0  0  0  0  0  0
    7.2526  -11.3050   26.6721 C   0  0  0  0  0  0  0  0  0  0  0  0
    7.7918  -11.3346   25.3920 C   0  0  0  0  0  0  0  0  0  0  0  0
    7.8012  -12.5025   24.6605 C   0  0  0  0  0  0  0  0  0  0  0  0
    7.2747  -13.6627   25.1878 C   0  0  0  0  0  0  0  0  0  0  0  0
    9.1500  -17.0291   24.4985 C   0  0  0  0  0  0  0  0  0  0  0  0
    9.5890  -16.6560   25.7516 O   0  0  0  0  0  0  0  0  0  0  0  0
    8.9142  -18.2431   24.2768 O   0  0  0  0  0  0  0  0  0  0  0  0
  1  2  1  0
  2  3  1  0
  3  4  1  6
  3  5  1  0
  5  6  2  0
  8  7  1  0
  8  9  2  0
 10 11  1  0
 10  8  1  0
 12 11  1  6
 12 14  1  0
 13  5  1  0
 13 12  1  0
 14 15  2  0
 16 17  1  0
 16 14  1  0
 17 28  1  0
 17 18  1  6
 19 18  1  0
 20 19  2  0
 21 22  1  0
 21 20  1  0
 22 27  2  0
 23 24  2  0
 23 22  1  0
 24 25  1  0
 25 26  2  0
 27 26  1  0
 27 19  1  0
 28 30  2  0
 28 29  1  0
M  END
$$$$
