SQW.pdb
     RDKit          3D

 30 31  0  0  1  0  0  0  0  0999 V2000
    6.7606  -13.6623   19.9283 O   0  0  0  0  0  0  0  0  0  0  0  0
    7.7260  -12.7168   19.5668 C   0  0  0  0  0  0  0  0  0  0  0  0
    8.7054  -13.3309   18.5719 C   0  0  2  0  0  0  0  0  0  0  0  0
    8.0189  -13.6189   17.3245 N   0  0  0  0  0  0  0  0  0  0  0  0
    9.2592  -14.5580   19.1871 C   0  0  0  0  0  0  0  0  0  0  0  0
    9.2285  -15.6172   18.5089 O   0  0  0  0  0  0  0  0  0  0  0  0
   14.9749  -13.9589   19.3277 N   0  0  0  0  0  0  0  0  0  0  0  0
   14.4535  -15.2759   19.2630 C   0  0  0  0  0  0  0  0  0  0  0  0
   14.8658  -16.0886   18.4216 O   0  0  0  0  0  0  0  0  0  0  0  0
   13.3859  -15.7081   20.2213 C   0  0  0  0  0  0  0  0  0  0  0  0
   12.1330  -14.9652   19.8921 C   0  0  0  0  0  0  0  0  0  0  0  0
   11.0285  -15.2887   20.8271 C   0  0  2  0  0  0  0  0  0  0  0  0
    9.8095  -14.5568   20.4917 N   0  0  0  0  0  0  0  0  0  0  0  0
   11.3888  -14.9961   22.2114 C   0  0  0  0  0  0  0  0  0  0  0  0
   11.9508  -13.9559   22.5743 O   0  0  0  0  0  0  0  0  0  0  0  0
   11.0885  -15.9533   23.2535 N   0  0  0  0  0  0  0  0  0  0  0  0
   10.0866  -15.6502   24.2817 C   0  0  1  0  0  0  0  0  0  0  0  0
    8.8156  -15.2651   23.5571 C   0  0  0  0  0  0  0  0  0  0  0  0
    7.6813  -15.0104   24.4499 C   0  0  0  0  0  0  0  0  0  0  0  0
    6.6938  -15.9102   24.7672 C   0  0  0  0  0  0  0  0  0  0  0  0
    5.8569  -15.2801   25.6084 N   0  0  0  0  0  0  0  0  0  0  0  0
    6.2726  -14.0177   25.8382 C   0  0  0  0  0  0  0  0  0  0  0  0
    5.7446  -12.9997   26.6231 C   0  0  0  0  0  0  0  0  0  0  0  0
    6.3651  -11.7916   26.6870 C   0  0  0  0  0  0  0  0  0  0  0  0
    7.5308  -11.5921   25.9578 C   0  0  0  0  0  0  0  0  0  0  0  0
    8.0542  -12.6018   25.1796 C   0  0  0  0  0  0  0  0  0  0  0  0
    7.4285  -13.8287   25.1116 C   0  0  0  0  0  0  0  0  0  0  0  0
    9.8999  -16.7842   25.1894 C   0  0  0  0  0  0  0  0  0  0  0  0
   10.1573  -18.0802   24.7941 O   0  0  0  0  0  0  0  0  0  0  0  0
    9.4952  -16.5782   26.3609 O   0  0  0  0  0  0  0  0  0  0  0  0
  1  2  1  0
  2  3  1  0
  3  4  1  6
  3  5  1  0
  5  6  2  0
  8  7  1  0
  8  9  2  0
 10 11  1  0
 10  8  1  0
 12 11  1  6
 12 14  1  0
 13  5  1  0
 13 12  1  0
 14 15  2  0
 16 17  1  0
 16 14  1  0
 17 28  1  0
 17 18  1  6
 19 18  1  0
 20 19  2  0
 21 22  1  0
 21 20  1  0
 22 27  2  0
 23 24  2  0
 23 22  1  0
 24 25  1  0
 25 26  2  0
 27 26  1  0
 27 19  1  0
 28 30  2  0
 28 29  1  0
M  END
$$$$
