SQW.pdb
     RDKit          3D

 30 31  0  0  1  0  0  0  0  0999 V2000
    6.9367  -19.8022   23.4295 O   0  0  0  0  0  0  0  0  0  0  0  0
    5.7803  -19.0564   23.1781 C   0  0  0  0  0  0  0  0  0  0  0  0
    5.7429  -18.6369   21.7123 C   0  0  2  0  0  0  0  0  0  0  0  0
    5.4211  -19.7855   20.8832 N   0  0  0  0  0  0  0  0  0  0  0  0
    7.0685  -18.0723   21.3734 C   0  0  0  0  0  0  0  0  0  0  0  0
    7.6911  -18.5817   20.4060 O   0  0  0  0  0  0  0  0  0  0  0  0
    7.2440  -12.4708   18.9168 N   0  0  0  0  0  0  0  0  0  0  0  0
    8.2419  -13.4752   18.8402 C   0  0  0  0  0  0  0  0  0  0  0  0
    8.6436  -13.8985   17.7456 O   0  0  0  0  0  0  0  0  0  0  0  0
    8.8312  -14.0447   20.0946 C   0  0  0  0  0  0  0  0  0  0  0  0
    7.8927  -15.0781   20.6252 C   0  0  0  0  0  0  0  0  0  0  0  0
    8.5769  -16.0570   21.5039 C   0  0  2  0  0  0  0  0  0  0  0  0
    7.6302  -16.9956   22.1014 N   0  0  0  0  0  0  0  0  0  0  0  0
    9.3235  -15.3965   22.5708 C   0  0  0  0  0  0  0  0  0  0  0  0
   10.1579  -14.5038   22.3800 O   0  0  0  0  0  0  0  0  0  0  0  0
    9.1052  -15.7788   23.9486 N   0  0  0  0  0  0  0  0  0  0  0  0
   10.2046  -15.7387   24.9194 C   0  0  1  0  0  0  0  0  0  0  0  0
    9.6267  -15.2185   26.2171 C   0  0  0  0  0  0  0  0  0  0  0  0
    8.2209  -14.8153   26.1176 C   0  0  0  0  0  0  0  0  0  0  0  0
    7.1581  -15.6597   25.9104 C   0  0  0  0  0  0  0  0  0  0  0  0
    6.0568  -14.8906   25.8853 N   0  0  0  0  0  0  0  0  0  0  0  0
    6.3767  -13.5931   26.0681 C   0  0  0  0  0  0  0  0  0  0  0  0
    5.5930  -12.4467   26.1187 C   0  0  0  0  0  0  0  0  0  0  0  0
    6.1688  -11.2311   26.3176 C   0  0  0  0  0  0  0  0  0  0  0  0
    7.5478  -11.1540   26.4688 C   0  0  0  0  0  0  0  0  0  0  0  0
    8.3247  -12.2911   26.4187 C   0  0  0  0  0  0  0  0  0  0  0  0
    7.7454  -13.5261   26.2172 C   0  0  0  0  0  0  0  0  0  0  0  0
   10.8304  -17.0548   25.0651 C   0  0  0  0  0  0  0  0  0  0  0  0
   10.3323  -18.1700   24.4246 O   0  0  0  0  0  0  0  0  0  0  0  0
   11.8483  -17.1783   25.7910 O   0  0  0  0  0  0  0  0  0  0  0  0
  1  2  1  0
  2  3  1  0
  3  4  1  6
  3  5  1  0
  5  6  2  0
  8  7  1  0
  8  9  2  0
 10 11  1  0
 10  8  1  0
 12 11  1  1
 12 14  1  0
 13  5  1  0
 13 12  1  0
 14 15  2  0
 16 17  1  0
 16 14  1  0
 17 28  1  0
 17 18  1  1
 19 18  1  0
 20 19  2  0
 21 22  1  0
 21 20  1  0
 22 27  2  0
 23 24  2  0
 23 22  1  0
 24 25  1  0
 25 26  2  0
 27 26  1  0
 27 19  1  0
 28 30  2  0
 28 29  1  0
M  END
$$$$
