SQW.pdb
     RDKit          3D

 30 31  0  0  1  0  0  0  0  0999 V2000
    9.5886  -11.9850   18.2250 O   0  0  0  0  0  0  0  0  0  0  0  0
    9.3190  -12.7966   19.3320 C   0  0  0  0  0  0  0  0  0  0  0  0
    8.4496  -13.9764   18.9098 C   0  0  2  0  0  0  0  0  0  0  0  0
    7.1312  -13.5003   18.5282 N   0  0  0  0  0  0  0  0  0  0  0  0
    8.3822  -14.9153   20.0520 C   0  0  0  0  0  0  0  0  0  0  0  0
    7.4863  -14.7239   20.9143 O   0  0  0  0  0  0  0  0  0  0  0  0
   10.5296  -20.7316   20.1018 N   0  0  0  0  0  0  0  0  0  0  0  0
   11.4440  -19.6628   19.9222 C   0  0  0  0  0  0  0  0  0  0  0  0
   12.5579  -19.8506   19.4098 O   0  0  0  0  0  0  0  0  0  0  0  0
   11.0724  -18.2770   20.3538 C   0  0  0  0  0  0  0  0  0  0  0  0
    9.6670  -18.3049   20.8582 C   0  0  0  0  0  0  0  0  0  0  0  0
    9.1959  -16.9628   21.2767 C   0  0  2  0  0  0  0  0  0  0  0  0
    9.2858  -15.9974   20.1840 N   0  0  0  0  0  0  0  0  0  0  0  0
    9.9524  -16.4556   22.4178 C   0  0  0  0  0  0  0  0  0  0  0  0
   11.0679  -15.9290   22.3285 O   0  0  0  0  0  0  0  0  0  0  0  0
    9.4012  -16.5550   23.7515 N   0  0  0  0  0  0  0  0  0  0  0  0
   10.2033  -16.1824   24.9222 C   0  0  1  0  0  0  0  0  0  0  0  0
    9.8088  -14.7701   25.2942 C   0  0  0  0  0  0  0  0  0  0  0  0
    8.3836  -14.6167   25.6007 C   0  0  0  0  0  0  0  0  0  0  0  0
    7.4333  -15.6034   25.5069 C   0  0  0  0  0  0  0  0  0  0  0  0
    6.2669  -15.0485   25.8762 N   0  0  0  0  0  0  0  0  0  0  0  0
    6.4376  -13.7505   26.2006 C   0  0  0  0  0  0  0  0  0  0  0  0
    5.5410  -12.7807   26.6327 C   0  0  0  0  0  0  0  0  0  0  0  0
    5.9719  -11.5186   26.8979 C   0  0  0  0  0  0  0  0  0  0  0  0
    7.3173  -11.2155   26.7305 C   0  0  0  0  0  0  0  0  0  0  0  0
    8.2062  -12.1774   26.3019 C   0  0  0  0  0  0  0  0  0  0  0  0
    7.7741  -13.4587   26.0318 C   0  0  0  0  0  0  0  0  0  0  0  0
   10.0105  -17.1324   26.0200 C   0  0  0  0  0  0  0  0  0  0  0  0
    9.1377  -18.1951   25.9151 O   0  0  0  0  0  0  0  0  0  0  0  0
   10.6541  -16.9814   27.0884 O   0  0  0  0  0  0  0  0  0  0  0  0
  1  2  1  0
  2  3  1  0
  3  4  1  1
  3  5  1  0
  5  6  2  0
  8  7  1  0
  8  9  2  0
 10 11  1  0
 10  8  1  0
 12 11  1  6
 12 14  1  0
 13  5  1  0
 13 12  1  0
 14 15  2  0
 16 17  1  0
 16 14  1  0
 17 28  1  0
 17 18  1  1
 19 18  1  0
 20 19  2  0
 21 22  1  0
 21 20  1  0
 22 27  2  0
 23 24  2  0
 23 22  1  0
 24 25  1  0
 25 26  2  0
 27 26  1  0
 27 19  1  0
 28 30  2  0
 28 29  1  0
M  END
$$$$
