SQW.pdb
     RDKit          3D

 30 31  0  0  1  0  0  0  0  0999 V2000
    7.4264  -12.9185   19.1944 O   0  0  0  0  0  0  0  0  0  0  0  0
    8.4191  -13.5858   19.9198 C   0  0  0  0  0  0  0  0  0  0  0  0
    8.5296  -15.0292   19.4396 C   0  0  2  0  0  0  0  0  0  0  0  0
    7.2866  -15.4291   18.8031 N   0  0  0  0  0  0  0  0  0  0  0  0
    8.8364  -15.8715   20.6175 C   0  0  0  0  0  0  0  0  0  0  0  0
    7.9347  -16.6431   21.0353 O   0  0  0  0  0  0  0  0  0  0  0  0
   14.4411  -17.9026   22.1570 N   0  0  0  0  0  0  0  0  0  0  0  0
   13.5643  -18.5120   21.2241 C   0  0  0  0  0  0  0  0  0  0  0  0
   13.9718  -19.3700   20.4264 O   0  0  0  0  0  0  0  0  0  0  0  0
   12.1177  -18.1233   21.1893 C   0  0  0  0  0  0  0  0  0  0  0  0
   11.8715  -17.1383   22.2845 C   0  0  0  0  0  0  0  0  0  0  0  0
   10.4492  -16.7253   22.3563 C   0  0  2  0  0  0  0  0  0  0  0  0
   10.0960  -15.8239   21.2623 N   0  0  0  0  0  0  0  0  0  0  0  0
   10.1391  -16.0721   23.6248 C   0  0  0  0  0  0  0  0  0  0  0  0
    9.6725  -14.9305   23.7183 O   0  0  0  0  0  0  0  0  0  0  0  0
   10.3767  -16.7660   24.8715 N   0  0  0  0  0  0  0  0  0  0  0  0
    9.6210  -16.4146   26.0790 C   0  0  1  0  0  0  0  0  0  0  0  0
    8.1560  -16.6015   25.7508 C   0  0  0  0  0  0  0  0  0  0  0  0
    7.4979  -15.3820   25.2730 C   0  0  0  0  0  0  0  0  0  0  0  0
    6.8425  -15.2423   24.0745 C   0  0  0  0  0  0  0  0  0  0  0  0
    6.3885  -13.9786   24.0309 N   0  0  0  0  0  0  0  0  0  0  0  0
    6.7285  -13.3105   25.1522 C   0  0  0  0  0  0  0  0  0  0  0  0
    6.4880  -12.0033   25.5574 C   0  0  0  0  0  0  0  0  0  0  0  0
    6.9474  -11.5627   26.7589 C   0  0  0  0  0  0  0  0  0  0  0  0
    7.6584  -12.4370   27.5715 C   0  0  0  0  0  0  0  0  0  0  0  0
    7.8967  -13.7334   27.1694 C   0  0  0  0  0  0  0  0  0  0  0  0
    7.4328  -14.1848   25.9519 C   0  0  0  0  0  0  0  0  0  0  0  0
   10.0517  -17.2177   27.2255 C   0  0  0  0  0  0  0  0  0  0  0  0
    9.8380  -16.8029   28.5233 O   0  0  0  0  0  0  0  0  0  0  0  0
   10.6315  -18.3148   27.0288 O   0  0  0  0  0  0  0  0  0  0  0  0
  1  2  1  0
  2  3  1  0
  3  4  1  1
  3  5  1  0
  5  6  2  0
  8  7  1  0
  8  9  2  0
 10 11  1  0
 10  8  1  0
 12 11  1  1
 12 14  1  0
 13  5  1  0
 13 12  1  0
 14 15  2  0
 16 17  1  0
 16 14  1  0
 17 28  1  0
 17 18  1  6
 19 18  1  0
 20 19  2  0
 21 22  1  0
 21 20  1  0
 22 27  2  0
 23 24  2  0
 23 22  1  0
 24 25  1  0
 25 26  2  0
 27 26  1  0
 27 19  1  0
 28 30  2  0
 28 29  1  0
M  END
$$$$
