SQW.pdb
     RDKit          3D

 30 31  0  0  1  0  0  0  0  0999 V2000
    8.5888  -12.7723   20.9773 O   0  0  0  0  0  0  0  0  0  0  0  0
    8.7618  -13.5123   19.8029 C   0  0  0  0  0  0  0  0  0  0  0  0
    7.7923  -14.6895   19.7849 C   0  0  2  0  0  0  0  0  0  0  0  0
    6.4382  -14.2110   20.0034 N   0  0  0  0  0  0  0  0  0  0  0  0
    8.2152  -15.6350   20.8423 C   0  0  0  0  0  0  0  0  0  0  0  0
    7.4826  -15.7403   21.8598 O   0  0  0  0  0  0  0  0  0  0  0  0
   12.6264  -20.0543   20.2287 N   0  0  0  0  0  0  0  0  0  0  0  0
   12.1318  -20.3385   21.5269 C   0  0  0  0  0  0  0  0  0  0  0  0
   12.5408  -21.3176   22.1692 O   0  0  0  0  0  0  0  0  0  0  0  0
   11.0972  -19.4496   22.1469 C   0  0  0  0  0  0  0  0  0  0  0  0
   10.7740  -18.3607   21.1772 C   0  0  0  0  0  0  0  0  0  0  0  0
    9.7826  -17.4022   21.7222 C   0  0  2  0  0  0  0  0  0  0  0  0
    9.3992  -16.4030   20.7279 N   0  0  0  0  0  0  0  0  0  0  0  0
   10.2879  -16.7175   22.9086 C   0  0  0  0  0  0  0  0  0  0  0  0
   11.1526  -15.8336   22.8808 O   0  0  0  0  0  0  0  0  0  0  0  0
    9.7737  -17.0630   24.2158 N   0  0  0  0  0  0  0  0  0  0  0  0
   10.3428  -16.4607   25.4266 C   0  0  1  0  0  0  0  0  0  0  0  0
    9.9184  -15.0086   25.4368 C   0  0  0  0  0  0  0  0  0  0  0  0
    8.4861  -14.8140   25.6804 C   0  0  0  0  0  0  0  0  0  0  0  0
    7.5260  -15.7947   25.6396 C   0  0  0  0  0  0  0  0  0  0  0  0
    6.3558  -15.1974   25.9201 N   0  0  0  0  0  0  0  0  0  0  0  0
    6.5335  -13.8782   26.1374 C   0  0  0  0  0  0  0  0  0  0  0  0
    5.6366  -12.8650   26.4539 C   0  0  0  0  0  0  0  0  0  0  0  0
    6.0757  -11.5895   26.6241 C   0  0  0  0  0  0  0  0  0  0  0  0
    7.4300  -11.3166   26.4770 C   0  0  0  0  0  0  0  0  0  0  0  0
    8.3192  -12.3215   26.1631 C   0  0  0  0  0  0  0  0  0  0  0  0
    7.8787  -13.6166   25.9895 C   0  0  0  0  0  0  0  0  0  0  0  0
    9.9177  -17.1836   26.6273 C   0  0  0  0  0  0  0  0  0  0  0  0
   10.3661  -16.8316   27.8831 O   0  0  0  0  0  0  0  0  0  0  0  0
    9.1234  -18.1509   26.5178 O   0  0  0  0  0  0  0  0  0  0  0  0
  1  2  1  0
  2  3  1  0
  3  4  1  1
  3  5  1  0
  5  6  2  0
  8  7  1  0
  8  9  2  0
 10 11  1  0
 10  8  1  0
 12 11  1  6
 12 14  1  0
 13  5  1  0
 13 12  1  0
 14 15  2  0
 16 17  1  0
 16 14  1  0
 17 28  1  0
 17 18  1  1
 19 18  1  0
 20 19  2  0
 21 22  1  0
 21 20  1  0
 22 27  2  0
 23 24  2  0
 23 22  1  0
 24 25  1  0
 25 26  2  0
 27 26  1  0
 27 19  1  0
 28 30  2  0
 28 29  1  0
M  END
$$$$
