SQW.pdb
     RDKit          3D

 30 31  0  0  1  0  0  0  0  0999 V2000
    7.9555  -12.5814   19.1753 O   0  0  0  0  0  0  0  0  0  0  0  0
    7.9468  -13.4864   20.2421 C   0  0  0  0  0  0  0  0  0  0  0  0
    8.0424  -14.9131   19.7117 C   0  0  2  0  0  0  0  0  0  0  0  0
    6.7837  -15.2896   19.0918 N   0  0  0  0  0  0  0  0  0  0  0  0
    8.3748  -15.7946   20.8533 C   0  0  0  0  0  0  0  0  0  0  0  0
    7.4222  -16.3443   21.4644 O   0  0  0  0  0  0  0  0  0  0  0  0
   13.0622  -20.8839   22.3581 N   0  0  0  0  0  0  0  0  0  0  0  0
   12.9349  -19.4724   22.4045 C   0  0  0  0  0  0  0  0  0  0  0  0
   13.8815  -18.7324   22.0964 O   0  0  0  0  0  0  0  0  0  0  0  0
   11.6408  -18.8493   22.8310 C   0  0  0  0  0  0  0  0  0  0  0  0
   11.3033  -17.7629   21.8635 C   0  0  0  0  0  0  0  0  0  0  0  0
   10.0694  -17.0356   22.2470 C   0  0  2  0  0  0  0  0  0  0  0  0
    9.7129  -16.0234   21.2558 N   0  0  0  0  0  0  0  0  0  0  0  0
   10.2039  -16.3923   23.5508 C   0  0  0  0  0  0  0  0  0  0  0  0
   10.7158  -15.2797   23.7230 O   0  0  0  0  0  0  0  0  0  0  0  0
    9.7227  -17.0617   24.7394 N   0  0  0  0  0  0  0  0  0  0  0  0
    9.8966  -16.4530   26.0630 C   0  0  1  0  0  0  0  0  0  0  0  0
    8.5303  -16.4123   26.7113 C   0  0  0  0  0  0  0  0  0  0  0  0
    7.6062  -15.4644   26.0819 C   0  0  0  0  0  0  0  0  0  0  0  0
    6.5544  -15.7945   25.2633 C   0  0  0  0  0  0  0  0  0  0  0  0
    5.9693  -14.6391   24.9061 N   0  0  0  0  0  0  0  0  0  0  0  0
    6.6063  -13.5893   25.4642 C   0  0  0  0  0  0  0  0  0  0  0  0
    6.3742  -12.2213   25.3883 C   0  0  0  0  0  0  0  0  0  0  0  0
    7.1773  -11.3519   26.0575 C   0  0  0  0  0  0  0  0  0  0  0  0
    8.2293  -11.8512   26.8153 C   0  0  0  0  0  0  0  0  0  0  0  0
    8.4591  -13.2079   26.8904 C   0  0  0  0  0  0  0  0  0  0  0  0
    7.6475  -14.0936   26.2135 C   0  0  0  0  0  0  0  0  0  0  0  0
   10.8799  -17.1901   26.8596 C   0  0  0  0  0  0  0  0  0  0  0  0
   11.5283  -18.3021   26.3643 O   0  0  0  0  0  0  0  0  0  0  0  0
   11.1450  -16.8047   28.0256 O   0  0  0  0  0  0  0  0  0  0  0  0
  1  2  1  0
  2  3  1  0
  3  4  1  1
  3  5  1  0
  5  6  2  0
  8  7  1  0
  8  9  2  0
 10 11  1  0
 10  8  1  0
 12 11  1  6
 12 14  1  0
 13  5  1  0
 13 12  1  0
 14 15  2  0
 16 17  1  0
 16 14  1  0
 17 28  1  0
 17 18  1  1
 19 18  1  0
 20 19  2  0
 21 22  1  0
 21 20  1  0
 22 27  2  0
 23 24  2  0
 23 22  1  0
 24 25  1  0
 25 26  2  0
 27 26  1  0
 27 19  1  0
 28 30  2  0
 28 29  1  0
M  END
$$$$
