SQW.pdb
     RDKit          3D

 30 31  0  0  1  0  0  0  0  0999 V2000
    7.7813  -19.7298   18.8852 O   0  0  0  0  0  0  0  0  0  0  0  0
    7.6477  -20.3647   20.1246 C   0  0  0  0  0  0  0  0  0  0  0  0
    7.4571  -19.3231   21.2223 C   0  0  2  0  0  0  0  0  0  0  0  0
    6.6080  -18.2497   20.7355 N   0  0  0  0  0  0  0  0  0  0  0  0
    8.7975  -18.8278   21.6080 C   0  0  0  0  0  0  0  0  0  0  0  0
    9.6547  -19.6772   21.9641 O   0  0  0  0  0  0  0  0  0  0  0  0
   13.2838  -13.1821   20.7074 N   0  0  0  0  0  0  0  0  0  0  0  0
   12.6904  -14.4099   20.3187 C   0  0  0  0  0  0  0  0  0  0  0  0
   12.5036  -14.6821   19.1230 O   0  0  0  0  0  0  0  0  0  0  0  0
   12.2768  -15.4058   21.3589 C   0  0  0  0  0  0  0  0  0  0  0  0
   10.9035  -15.8883   21.0250 C   0  0  0  0  0  0  0  0  0  0  0  0
   10.4420  -16.9487   21.9529 C   0  0  2  0  0  0  0  0  0  0  0  0
    9.1209  -17.4495   21.5813 N   0  0  0  0  0  0  0  0  0  0  0  0
   10.3963  -16.4766   23.3338 C   0  0  0  0  0  0  0  0  0  0  0  0
   10.9661  -15.4544   23.7339 O   0  0  0  0  0  0  0  0  0  0  0  0
    9.6511  -17.2192   24.3266 N   0  0  0  0  0  0  0  0  0  0  0  0
    9.6952  -16.8300   25.7406 C   0  0  1  0  0  0  0  0  0  0  0  0
    8.2652  -16.6020   26.1787 C   0  0  0  0  0  0  0  0  0  0  0  0
    7.6369  -15.4323   25.5577 C   0  0  0  0  0  0  0  0  0  0  0  0
    7.0199  -15.4110   24.3312 C   0  0  0  0  0  0  0  0  0  0  0  0
    6.5831  -14.1544   24.1437 N   0  0  0  0  0  0  0  0  0  0  0  0
    6.8972  -13.3774   25.2005 C   0  0  0  0  0  0  0  0  0  0  0  0
    6.6607  -12.0332   25.4614 C   0  0  0  0  0  0  0  0  0  0  0  0
    7.0890  -11.4753   26.6251 C   0  0  0  0  0  0  0  0  0  0  0  0
    7.7642  -12.2676   27.5452 C   0  0  0  0  0  0  0  0  0  0  0  0
    7.9986  -13.6007   27.2861 C   0  0  0  0  0  0  0  0  0  0  0  0
    7.5662  -14.1710   26.1075 C   0  0  0  0  0  0  0  0  0  0  0  0
   10.3802  -17.8425   26.5471 C   0  0  0  0  0  0  0  0  0  0  0  0
   10.9099  -18.9838   25.9822 O   0  0  0  0  0  0  0  0  0  0  0  0
   10.4922  -17.6733   27.7870 O   0  0  0  0  0  0  0  0  0  0  0  0
  1  2  1  0
  2  3  1  0
  3  4  1  6
  3  5  1  0
  5  6  2  0
  8  7  1  0
  8  9  2  0
 10 11  1  0
 10  8  1  0
 12 11  1  6
 12 14  1  0
 13  5  1  0
 13 12  1  0
 14 15  2  0
 16 17  1  0
 16 14  1  0
 17 28  1  0
 17 18  1  1
 19 18  1  0
 20 19  2  0
 21 22  1  0
 21 20  1  0
 22 27  2  0
 23 24  2  0
 23 22  1  0
 24 25  1  0
 25 26  2  0
 27 26  1  0
 27 19  1  0
 28 30  2  0
 28 29  1  0
M  END
$$$$
