SQW.pdb
     RDKit          3D

 30 31  0  0  1  0  0  0  0  0999 V2000
    6.3980  -15.6774   21.6228 O   0  0  0  0  0  0  0  0  0  0  0  0
    6.5624  -16.1909   20.3320 C   0  0  0  0  0  0  0  0  0  0  0  0
    8.0227  -16.0708   19.9088 C   0  0  2  0  0  0  0  0  0  0  0  0
    8.1822  -16.5724   18.5548 N   0  0  0  0  0  0  0  0  0  0  0  0
    8.8349  -16.8418   20.8767 C   0  0  0  0  0  0  0  0  0  0  0  0
    8.6797  -18.0900   20.9069 O   0  0  0  0  0  0  0  0  0  0  0  0
   14.3111  -19.4465   22.3401 N   0  0  0  0  0  0  0  0  0  0  0  0
   13.7736  -18.4252   21.5162 C   0  0  0  0  0  0  0  0  0  0  0  0
   14.5089  -17.7105   20.8183 O   0  0  0  0  0  0  0  0  0  0  0  0
   12.2938  -18.1937   21.4772 C   0  0  0  0  0  0  0  0  0  0  0  0
   11.9826  -17.0108   22.3340 C   0  0  0  0  0  0  0  0  0  0  0  0
   10.5516  -16.9595   22.7187 C   0  0  2  0  0  0  0  0  0  0  0  0
    9.7601  -16.2124   21.7443 N   0  0  0  0  0  0  0  0  0  0  0  0
   10.3671  -16.3586   24.0366 C   0  0  0  0  0  0  0  0  0  0  0  0
   10.5598  -15.1622   24.2837 O   0  0  0  0  0  0  0  0  0  0  0  0
    9.9338  -17.1758   25.1487 N   0  0  0  0  0  0  0  0  0  0  0  0
    9.9233  -16.6371   26.5134 C   0  0  1  0  0  0  0  0  0  0  0  0
    8.4755  -16.5642   26.9463 C   0  0  0  0  0  0  0  0  0  0  0  0
    7.6746  -15.6128   26.1703 C   0  0  0  0  0  0  0  0  0  0  0  0
    6.8472  -15.9305   25.1215 C   0  0  0  0  0  0  0  0  0  0  0  0
    6.3067  -14.7764   24.6965 N   0  0  0  0  0  0  0  0  0  0  0  0
    6.7567  -13.7393   25.4323 C   0  0  0  0  0  0  0  0  0  0  0  0
    6.4880  -12.3774   25.3704 C   0  0  0  0  0  0  0  0  0  0  0  0
    7.0828  -11.5212   26.2432 C   0  0  0  0  0  0  0  0  0  0  0  0
    7.9601  -12.0278   27.1940 C   0  0  0  0  0  0  0  0  0  0  0  0
    8.2264  -13.3786   27.2550 C   0  0  0  0  0  0  0  0  0  0  0  0
    7.6256  -14.2508   26.3721 C   0  0  0  0  0  0  0  0  0  0  0  0
   10.7426  -17.4541   27.4112 C   0  0  0  0  0  0  0  0  0  0  0  0
   10.9305  -17.1126   28.7342 O   0  0  0  0  0  0  0  0  0  0  0  0
   11.2915  -18.4951   26.9714 O   0  0  0  0  0  0  0  0  0  0  0  0
  1  2  1  0
  2  3  1  0
  3  4  1  6
  3  5  1  0
  5  6  2  0
  8  7  1  0
  8  9  2  0
 10 11  1  0
 10  8  1  0
 12 11  1  6
 12 14  1  0
 13  5  1  0
 13 12  1  0
 14 15  2  0
 16 17  1  0
 16 14  1  0
 17 28  1  0
 17 18  1  1
 19 18  1  0
 20 19  2  0
 21 22  1  0
 21 20  1  0
 22 27  2  0
 23 24  2  0
 23 22  1  0
 24 25  1  0
 25 26  2  0
 27 26  1  0
 27 19  1  0
 28 30  2  0
 28 29  1  0
M  END
$$$$
