SQW.pdb
     RDKit          3D

 30 31  0  0  1  0  0  0  0  0999 V2000
    9.8005  -12.3449   18.3578 O   0  0  0  0  0  0  0  0  0  0  0  0
   10.0838  -13.7094   18.2351 C   0  0  0  0  0  0  0  0  0  0  0  0
    8.8137  -14.4715   17.8715 C   0  0  2  0  0  0  0  0  0  0  0  0
    7.9669  -13.6391   17.0346 N   0  0  0  0  0  0  0  0  0  0  0  0
    8.1373  -14.8441   19.1342 C   0  0  0  0  0  0  0  0  0  0  0  0
    7.0670  -14.2487   19.4221 O   0  0  0  0  0  0  0  0  0  0  0  0
    8.3078  -20.1119   23.3210 N   0  0  0  0  0  0  0  0  0  0  0  0
    7.4260  -19.3858   22.4809 C   0  0  0  0  0  0  0  0  0  0  0  0
    6.2128  -19.3178   22.7300 O   0  0  0  0  0  0  0  0  0  0  0  0
    7.9542  -18.6831   21.2676 C   0  0  0  0  0  0  0  0  0  0  0  0
    7.1687  -17.4277   21.0748 C   0  0  0  0  0  0  0  0  0  0  0  0
    8.0028  -16.2138   21.2460 C   0  0  2  0  0  0  0  0  0  0  0  0
    8.6621  -15.8352   19.9986 N   0  0  0  0  0  0  0  0  0  0  0  0
    9.0177  -16.3965   22.2796 C   0  0  0  0  0  0  0  0  0  0  0  0
   10.0314  -17.0908   22.1378 O   0  0  0  0  0  0  0  0  0  0  0  0
    8.8682  -15.7441   23.5619 N   0  0  0  0  0  0  0  0  0  0  0  0
    9.8872  -15.9032   24.6055 C   0  0  1  0  0  0  0  0  0  0  0  0
    9.6232  -14.8354   25.6443 C   0  0  0  0  0  0  0  0  0  0  0  0
    8.1991  -14.5828   25.8824 C   0  0  0  0  0  0  0  0  0  0  0  0
    7.1988  -15.5216   25.8269 C   0  0  0  0  0  0  0  0  0  0  0  0
    6.0532  -14.8782   26.1072 N   0  0  0  0  0  0  0  0  0  0  0  0
    6.2852  -13.5698   26.3386 C   0  0  0  0  0  0  0  0  0  0  0  0
    5.4301  -12.5229   26.6605 C   0  0  0  0  0  0  0  0  0  0  0  0
    5.9217  -11.2688   26.8457 C   0  0  0  0  0  0  0  0  0  0  0  0
    7.2871  -11.0518   26.7084 C   0  0  0  0  0  0  0  0  0  0  0  0
    8.1348  -12.0903   26.3891 C   0  0  0  0  0  0  0  0  0  0  0  0
    7.6410  -13.3639   26.2003 C   0  0  0  0  0  0  0  0  0  0  0  0
    9.8646  -17.2562   25.1655 C   0  0  0  0  0  0  0  0  0  0  0  0
    8.9019  -18.1752   24.8039 O   0  0  0  0  0  0  0  0  0  0  0  0
   10.7425  -17.5956   25.9977 O   0  0  0  0  0  0  0  0  0  0  0  0
  1  2  1  0
  2  3  1  0
  3  4  1  6
  3  5  1  0
  5  6  2  0
  8  7  1  0
  8  9  2  0
 10 11  1  0
 10  8  1  0
 12 11  1  6
 12 14  1  0
 13  5  1  0
 13 12  1  0
 14 15  2  0
 16 17  1  0
 16 14  1  0
 17 28  1  0
 17 18  1  1
 19 18  1  0
 20 19  2  0
 21 22  1  0
 21 20  1  0
 22 27  2  0
 23 24  2  0
 23 22  1  0
 24 25  1  0
 25 26  2  0
 27 26  1  0
 27 19  1  0
 28 30  2  0
 28 29  1  0
M  END
$$$$
