LPF.pdb
     RDKit          3D

 27 28  0  0  1  0  0  0  0  0999 V2000
    6.8510  -13.2502   18.7688 C   0  0  0  0  0  0  0  0  0  0  0  0
    8.3753  -13.5029   18.6241 C   0  0  1  0  0  0  0  0  0  0  0  0
    8.9136  -12.1740   18.1349 C   0  0  0  0  0  0  0  0  0  0  0  0
    8.8352  -13.9247   19.9624 C   0  0  0  0  0  0  0  0  0  0  0  0
    9.2080  -15.3556   20.1622 C   0  0  2  0  0  0  0  0  0  0  0  0
    8.8252  -16.1689   19.0834 N   0  0  0  0  0  0  0  0  0  0  0  0
    8.9090  -15.8261   21.5218 C   0  0  0  0  0  0  0  0  0  0  0  0
    8.6641  -14.9130   22.3753 O   0  0  0  0  0  0  0  0  0  0  0  0
    8.8752  -17.1680   21.9436 N   0  0  0  0  0  0  0  0  0  0  0  0
    8.8406  -18.2974   21.0406 C   0  0  0  0  0  0  0  0  0  0  0  0
    9.0830  -19.5424   21.8454 C   0  0  0  0  0  0  0  0  0  0  0  0
    9.4060  -19.0827   23.2156 C   0  0  0  0  0  0  0  0  0  0  0  0
    8.8661  -17.6755   23.2786 C   0  0  1  0  0  0  0  0  0  0  0  0
    9.8098  -16.9568   24.2078 C   0  0  0  0  0  0  0  0  0  0  0  0
   10.9655  -16.6618   23.8468 O   0  0  0  0  0  0  0  0  0  0  0  0
    9.3503  -16.6293   25.4909 N   0  0  0  0  0  0  0  0  0  0  0  0
   10.2028  -15.9736   26.4948 C   0  0  1  0  0  0  0  0  0  0  0  0
    9.9755  -14.5095   26.3368 C   0  0  0  0  0  0  0  0  0  0  0  0
    8.6223  -14.0402   26.6385 C   0  0  0  0  0  0  0  0  0  0  0  0
    7.5304  -14.6715   26.0466 C   0  0  0  0  0  0  0  0  0  0  0  0
    6.2633  -14.2216   26.3481 C   0  0  0  0  0  0  0  0  0  0  0  0
    6.0824  -13.1622   27.2228 C   0  0  0  0  0  0  0  0  0  0  0  0
    7.1849  -12.5426   27.8057 C   0  0  0  0  0  0  0  0  0  0  0  0
    8.4571  -12.9864   27.5097 C   0  0  0  0  0  0  0  0  0  0  0  0
    9.7377  -16.4256   27.8210 C   0  0  0  0  0  0  0  0  0  0  0  0
   10.2826  -16.0211   28.8684 O   0  0  0  0  0  0  0  0  0  0  0  0
    8.6811  -17.3132   27.9702 O   0  0  0  0  0  0  0  0  0  0  0  0
  2  1  1  1
  3  2  1  0
  4  2  1  0
  5  4  1  0
  5  6  1  6
  7  8  2  0
  7  5  1  0
  9  7  1  0
 10  9  1  0
 11 10  1  0
 12 11  1  0
 12 13  1  0
 13  9  1  0
 13 14  1  1
 14 15  2  0
 16 14  1  0
 17 16  1  0
 17 18  1  1
 19 18  1  0
 19 20  2  0
 21 20  1  0
 22 21  2  0
 23 24  2  0
 23 22  1  0
 24 19  1  0
 25 17  1  0
 26 25  2  0
 27 25  1  0
M  END
$$$$
