LPF.pdb
     RDKit          3D

 27 28  0  0  1  0  0  0  0  0999 V2000
   10.7862  -20.1917   19.4846 C   0  0  0  0  0  0  0  0  0  0  0  0
   11.3218  -18.7493   19.2828 C   0  0  1  0  0  0  0  0  0  0  0  0
   11.5430  -18.6554   17.7871 C   0  0  0  0  0  0  0  0  0  0  0  0
   10.2788  -17.8596   19.8314 C   0  0  0  0  0  0  0  0  0  0  0  0
   10.6188  -16.4230   20.0481 C   0  0  2  0  0  0  0  0  0  0  0  0
   11.9977  -16.1747   19.9559 N   0  0  0  0  0  0  0  0  0  0  0  0
    9.8866  -15.8405   21.1812 C   0  0  0  0  0  0  0  0  0  0  0  0
   10.5689  -15.6672   22.2426 O   0  0  0  0  0  0  0  0  0  0  0  0
    8.5287  -15.4717   21.1865 N   0  0  0  0  0  0  0  0  0  0  0  0
    7.7261  -15.3301   19.9916 C   0  0  0  0  0  0  0  0  0  0  0  0
    6.2898  -15.1957   20.4107 C   0  0  0  0  0  0  0  0  0  0  0  0
    6.2731  -15.4133   21.8754 C   0  0  0  0  0  0  0  0  0  0  0  0
    7.6978  -15.1726   22.3090 C   0  0  1  0  0  0  0  0  0  0  0  0
    7.8939  -16.1062   23.4754 C   0  0  0  0  0  0  0  0  0  0  0  0
    8.5043  -17.1842   23.3393 O   0  0  0  0  0  0  0  0  0  0  0  0
    7.3697  -15.7274   24.7190 N   0  0  0  0  0  0  0  0  0  0  0  0
    7.5338  -16.5453   25.9308 C   0  0  1  0  0  0  0  0  0  0  0  0
    7.0120  -15.7224   27.0582 C   0  0  0  0  0  0  0  0  0  0  0  0
    7.1630  -14.2740   26.9109 C   0  0  0  0  0  0  0  0  0  0  0  0
    6.0431  -13.4933   26.6329 C   0  0  0  0  0  0  0  0  0  0  0  0
    6.2024  -12.1305   26.5053 C   0  0  0  0  0  0  0  0  0  0  0  0
    7.4529  -11.5515   26.6512 C   0  0  0  0  0  0  0  0  0  0  0  0
    8.5618  -12.3467   26.9291 C   0  0  0  0  0  0  0  0  0  0  0  0
    8.4116  -13.7119   27.0587 C   0  0  0  0  0  0  0  0  0  0  0  0
    6.7075  -17.7556   25.7527 C   0  0  0  0  0  0  0  0  0  0  0  0
    6.7715  -18.7054   26.5599 O   0  0  0  0  0  0  0  0  0  0  0  0
    5.8254  -17.8981   24.6906 O   0  0  0  0  0  0  0  0  0  0  0  0
  2  1  1  6
  3  2  1  0
  4  2  1  0
  5  4  1  0
  5  6  1  1
  7  8  2  0
  7  5  1  0
  9  7  1  0
 10  9  1  0
 11 10  1  0
 12 11  1  0
 12 13  1  0
 13  9  1  0
 13 14  1  1
 14 15  2  0
 16 14  1  0
 17 16  1  0
 17 18  1  1
 19 18  1  0
 19 20  2  0
 21 20  1  0
 22 21  2  0
 23 24  2  0
 23 22  1  0
 24 19  1  0
 25 17  1  0
 26 25  2  0
 27 25  1  0
M  END
$$$$
