LPF.pdb
     RDKit          3D

 27 28  0  0  1  0  0  0  0  0999 V2000
    6.6930  -15.6516   18.4539 C   0  0  0  0  0  0  0  0  0  0  0  0
    7.8918  -14.7180   18.7693 C   0  0  1  0  0  0  0  0  0  0  0  0
    7.3679  -13.3368   18.4335 C   0  0  0  0  0  0  0  0  0  0  0  0
    8.2115  -14.9515   20.1918 C   0  0  0  0  0  0  0  0  0  0  0  0
    9.3254  -14.1688   20.8027 C   0  0  2  0  0  0  0  0  0  0  0  0
   10.4896  -14.1840   20.0178 N   0  0  0  0  0  0  0  0  0  0  0  0
    9.4609  -14.4217   22.2439 C   0  0  0  0  0  0  0  0  0  0  0  0
   10.5572  -14.9605   22.6042 O   0  0  0  0  0  0  0  0  0  0  0  0
    8.5008  -14.1258   23.2291 N   0  0  0  0  0  0  0  0  0  0  0  0
    7.2976  -13.3627   22.9802 C   0  0  0  0  0  0  0  0  0  0  0  0
    6.4103  -13.4894   24.1858 C   0  0  0  0  0  0  0  0  0  0  0  0
    7.0736  -14.4695   25.0759 C   0  0  0  0  0  0  0  0  0  0  0  0
    8.5080  -14.4926   24.6094 C   0  0  1  0  0  0  0  0  0  0  0  0
    8.9569  -15.9093   24.8588 C   0  0  0  0  0  0  0  0  0  0  0  0
    8.7530  -16.8050   24.0167 O   0  0  0  0  0  0  0  0  0  0  0  0
    9.6110  -16.1911   26.0660 N   0  0  0  0  0  0  0  0  0  0  0  0
   10.5736  -17.2948   26.2073 C   0  0  1  0  0  0  0  0  0  0  0  0
   11.7469  -16.7295   26.9310 C   0  0  0  0  0  0  0  0  0  0  0  0
   11.4392  -15.9611   28.1383 C   0  0  0  0  0  0  0  0  0  0  0  0
   11.2588  -16.6288   29.3477 C   0  0  0  0  0  0  0  0  0  0  0  0
   10.9774  -15.8889   30.4757 C   0  0  0  0  0  0  0  0  0  0  0  0
   10.8766  -14.5087   30.4048 C   0  0  0  0  0  0  0  0  0  0  0  0
   11.0600  -13.8573   29.1878 C   0  0  0  0  0  0  0  0  0  0  0  0
   11.3421  -14.5899   28.0534 C   0  0  0  0  0  0  0  0  0  0  0  0
    9.9209  -18.3382   27.0226 C   0  0  0  0  0  0  0  0  0  0  0  0
   10.5096  -19.4033   27.2996 O   0  0  0  0  0  0  0  0  0  0  0  0
    8.6332  -18.1899   27.5190 O   0  0  0  0  0  0  0  0  0  0  0  0
  2  1  1  1
  3  2  1  0
  4  2  1  0
  5  4  1  0
  5  6  1  6
  7  8  2  0
  7  5  1  0
  9  7  1  0
 10  9  1  0
 11 10  1  0
 12 11  1  0
 12 13  1  0
 13  9  1  0
 13 14  1  6
 14 15  2  0
 16 14  1  0
 17 16  1  0
 17 18  1  1
 19 18  1  0
 19 20  2  0
 21 20  1  0
 22 21  2  0
 23 24  2  0
 23 22  1  0
 24 19  1  0
 25 17  1  0
 26 25  2  0
 27 25  1  0
M  END
$$$$
