LPF.pdb
     RDKit          3D

 27 28  0  0  1  0  0  0  0  0999 V2000
    7.6756  -11.8297   20.2982 C   0  0  0  0  0  0  0  0  0  0  0  0
    7.5975  -13.3276   19.9004 C   0  0  1  0  0  0  0  0  0  0  0  0
    8.6131  -13.4549   18.7836 C   0  0  0  0  0  0  0  0  0  0  0  0
    7.9053  -14.0807   21.1326 C   0  0  0  0  0  0  0  0  0  0  0  0
    7.7070  -15.5596   21.1244 C   0  0  2  0  0  0  0  0  0  0  0  0
    6.4302  -15.9304   20.6727 N   0  0  0  0  0  0  0  0  0  0  0  0
    8.2208  -16.1988   22.3436 C   0  0  0  0  0  0  0  0  0  0  0  0
    7.4865  -16.0758   23.3770 O   0  0  0  0  0  0  0  0  0  0  0  0
    9.4272  -16.9141   22.4568 N   0  0  0  0  0  0  0  0  0  0  0  0
   10.2096  -17.3612   21.3254 C   0  0  0  0  0  0  0  0  0  0  0  0
   11.5380  -17.8385   21.8396 C   0  0  0  0  0  0  0  0  0  0  0  0
   11.5533  -17.5145   23.2845 C   0  0  0  0  0  0  0  0  0  0  0  0
   10.1001  -17.3310   23.6455 C   0  0  1  0  0  0  0  0  0  0  0  0
   10.1162  -16.2870   24.7320 C   0  0  0  0  0  0  0  0  0  0  0  0
   10.5239  -15.1314   24.5057 O   0  0  0  0  0  0  0  0  0  0  0  0
    9.6591  -16.6531   26.0055 N   0  0  0  0  0  0  0  0  0  0  0  0
    9.9376  -15.8527   27.2081 C   0  0  1  0  0  0  0  0  0  0  0  0
    8.6104  -15.4524   27.7543 C   0  0  0  0  0  0  0  0  0  0  0  0
    7.9690  -14.3137   27.0951 C   0  0  0  0  0  0  0  0  0  0  0  0
    6.7700  -14.5043   26.4116 C   0  0  0  0  0  0  0  0  0  0  0  0
    6.1761  -13.4196   25.8035 C   0  0  0  0  0  0  0  0  0  0  0  0
    6.7625  -12.1660   25.8724 C   0  0  0  0  0  0  0  0  0  0  0  0
    7.9611  -11.9932   26.5598 C   0  0  0  0  0  0  0  0  0  0  0  0
    8.5627  -13.0734   27.1717 C   0  0  0  0  0  0  0  0  0  0  0  0
   10.6415  -16.7328   28.1618 C   0  0  0  0  0  0  0  0  0  0  0  0
   11.1273  -16.2813   29.2190 O   0  0  0  0  0  0  0  0  0  0  0  0
   10.7967  -18.0933   27.9351 O   0  0  0  0  0  0  0  0  0  0  0  0
  2  1  1  1
  3  2  1  0
  4  2  1  0
  5  4  1  0
  5  6  1  1
  7  8  2  0
  7  5  1  0
  9  7  1  0
 10  9  1  0
 11 10  1  0
 12 11  1  0
 12 13  1  0
 13  9  1  0
 13 14  1  1
 14 15  2  0
 16 14  1  0
 17 16  1  0
 17 18  1  1
 19 18  1  0
 19 20  2  0
 21 20  1  0
 22 21  2  0
 23 24  2  0
 23 22  1  0
 24 19  1  0
 25 17  1  0
 26 25  2  0
 27 25  1  0
M  END
$$$$
