LPF.pdb
     RDKit          3D

 27 28  0  0  1  0  0  0  0  0999 V2000
    7.4510  -12.2145   19.5213 C   0  0  0  0  0  0  0  0  0  0  0  0
    8.0418  -13.6265   19.2657 C   0  0  1  0  0  0  0  0  0  0  0  0
    9.3564  -13.3437   18.5681 C   0  0  0  0  0  0  0  0  0  0  0  0
    8.1476  -14.2580   20.5962 C   0  0  0  0  0  0  0  0  0  0  0  0
    7.7398  -15.6866   20.7342 C   0  0  2  0  0  0  0  0  0  0  0  0
    6.4751  -15.9429   20.1804 N   0  0  0  0  0  0  0  0  0  0  0  0
    8.0300  -16.2238   22.0707 C   0  0  0  0  0  0  0  0  0  0  0  0
    7.2832  -15.7924   23.0079 O   0  0  0  0  0  0  0  0  0  0  0  0
    9.0411  -17.1494   22.3882 N   0  0  0  0  0  0  0  0  0  0  0  0
    9.6986  -17.9924   21.4139 C   0  0  0  0  0  0  0  0  0  0  0  0
   10.8835  -18.6330   22.0790 C   0  0  0  0  0  0  0  0  0  0  0  0
   10.9749  -18.0183   23.4232 C   0  0  0  0  0  0  0  0  0  0  0  0
    9.6028  -17.4413   23.6684 C   0  0  1  0  0  0  0  0  0  0  0  0
    9.8591  -16.2192   24.5119 C   0  0  0  0  0  0  0  0  0  0  0  0
   10.3242  -15.1781   24.0089 O   0  0  0  0  0  0  0  0  0  0  0  0
    9.5592  -16.2867   25.8794 N   0  0  0  0  0  0  0  0  0  0  0  0
   10.3960  -15.6478   26.9070 C   0  0  1  0  0  0  0  0  0  0  0  0
   10.1398  -14.1841   26.7970 C   0  0  0  0  0  0  0  0  0  0  0  0
    8.7316  -13.7852   26.7765 C   0  0  0  0  0  0  0  0  0  0  0  0
    7.7532  -14.7395   26.5058 C   0  0  0  0  0  0  0  0  0  0  0  0
    6.4321  -14.3479   26.4982 C   0  0  0  0  0  0  0  0  0  0  0  0
    6.0871  -13.0306   26.7551 C   0  0  0  0  0  0  0  0  0  0  0  0
    7.0778  -12.0897   27.0239 C   0  0  0  0  0  0  0  0  0  0  0  0
    8.4030  -12.4728   27.0337 C   0  0  0  0  0  0  0  0  0  0  0  0
    9.9371  -16.1528   28.2162 C   0  0  0  0  0  0  0  0  0  0  0  0
   10.4113  -15.7085   29.2817 O   0  0  0  0  0  0  0  0  0  0  0  0
    8.9643  -17.1365   28.3286 O   0  0  0  0  0  0  0  0  0  0  0  0
  2  1  1  1
  3  2  1  0
  4  2  1  0
  5  4  1  0
  5  6  1  1
  7  8  2  0
  7  5  1  0
  9  7  1  0
 10  9  1  0
 11 10  1  0
 12 11  1  0
 12 13  1  0
 13  9  1  0
 13 14  1  1
 14 15  2  0
 16 14  1  0
 17 16  1  0
 17 18  1  1
 19 18  1  0
 19 20  2  0
 21 20  1  0
 22 21  2  0
 23 24  2  0
 23 22  1  0
 24 19  1  0
 25 17  1  0
 26 25  2  0
 27 25  1  0
M  END
$$$$
