LPF.pdb
     RDKit          3D

 27 28  0  0  1  0  0  0  0  0999 V2000
    7.6666  -12.3117   20.0055 C   0  0  0  0  0  0  0  0  0  0  0  0
    7.8755  -13.6740   19.2922 C   0  0  1  0  0  0  0  0  0  0  0  0
    8.8358  -13.3457   18.1675 C   0  0  0  0  0  0  0  0  0  0  0  0
    8.3948  -14.5880   20.3292 C   0  0  0  0  0  0  0  0  0  0  0  0
    7.6897  -15.8853   20.5442 C   0  0  2  0  0  0  0  0  0  0  0  0
    6.3916  -15.8893   20.0087 N   0  0  0  0  0  0  0  0  0  0  0  0
    7.8763  -16.4034   21.9065 C   0  0  0  0  0  0  0  0  0  0  0  0
    7.3577  -15.7020   22.8345 O   0  0  0  0  0  0  0  0  0  0  0  0
    8.5655  -17.5791   22.2568 N   0  0  0  0  0  0  0  0  0  0  0  0
    8.8439  -18.6571   21.3334 C   0  0  0  0  0  0  0  0  0  0  0  0
    9.8149  -19.5941   21.9935 C   0  0  0  0  0  0  0  0  0  0  0  0
   10.2021  -18.9454   23.2672 C   0  0  0  0  0  0  0  0  0  0  0  0
    9.1062  -17.9420   23.5279 C   0  0  1  0  0  0  0  0  0  0  0  0
    9.8011  -16.8090   24.2379 C   0  0  0  0  0  0  0  0  0  0  0  0
   10.5719  -16.0445   23.6259 O   0  0  0  0  0  0  0  0  0  0  0  0
    9.5557  -16.6393   25.6075 N   0  0  0  0  0  0  0  0  0  0  0  0
   10.3871  -15.7761   26.4608 C   0  0  1  0  0  0  0  0  0  0  0  0
   10.1704  -14.3840   25.9758 C   0  0  0  0  0  0  0  0  0  0  0  0
    8.8507  -13.8134   26.2504 C   0  0  0  0  0  0  0  0  0  0  0  0
    8.7322  -12.7725   27.1690 C   0  0  0  0  0  0  0  0  0  0  0  0
    7.4832  -12.2422   27.4094 C   0  0  0  0  0  0  0  0  0  0  0  0
    6.3698  -12.7366   26.7491 C   0  0  0  0  0  0  0  0  0  0  0  0
    6.5062  -13.7773   25.8340 C   0  0  0  0  0  0  0  0  0  0  0  0
    7.7527  -14.3143   25.5869 C   0  0  0  0  0  0  0  0  0  0  0  0
    9.8884  -15.9223   27.8427 C   0  0  0  0  0  0  0  0  0  0  0  0
   10.4026  -15.2858   28.7851 O   0  0  0  0  0  0  0  0  0  0  0  0
    8.8327  -16.7650   28.1617 O   0  0  0  0  0  0  0  0  0  0  0  0
  2  1  1  1
  3  2  1  0
  4  2  1  0
  5  4  1  0
  5  6  1  1
  7  8  2  0
  7  5  1  0
  9  7  1  0
 10  9  1  0
 11 10  1  0
 12 11  1  0
 12 13  1  0
 13  9  1  0
 13 14  1  6
 14 15  2  0
 16 14  1  0
 17 16  1  0
 17 18  1  6
 19 18  1  0
 19 20  2  0
 21 20  1  0
 22 21  2  0
 23 24  2  0
 23 22  1  0
 24 19  1  0
 25 17  1  0
 26 25  2  0
 27 25  1  0
M  END
$$$$
