LPF.pdb
     RDKit          3D

 27 28  0  0  1  0  0  0  0  0999 V2000
    7.0278  -11.5866   27.1608 C   0  0  0  0  0  0  0  0  0  0  0  0
    6.2035  -12.8554   26.8164 C   0  0  1  0  0  0  0  0  0  0  0  0
    4.9603  -12.3045   26.1488 C   0  0  0  0  0  0  0  0  0  0  0  0
    7.0803  -13.6754   25.9565 C   0  0  0  0  0  0  0  0  0  0  0  0
    6.5765  -15.0022   25.4957 C   0  0  2  0  0  0  0  0  0  0  0  0
    5.9688  -15.7366   26.5267 N   0  0  0  0  0  0  0  0  0  0  0  0
    7.5400  -15.6953   24.6294 C   0  0  0  0  0  0  0  0  0  0  0  0
    8.2195  -16.6140   25.1920 O   0  0  0  0  0  0  0  0  0  0  0  0
    7.7663  -15.4299   23.2662 N   0  0  0  0  0  0  0  0  0  0  0  0
    6.8371  -14.7167   22.4176 C   0  0  0  0  0  0  0  0  0  0  0  0
    7.5371  -14.3996   21.1269 C   0  0  0  0  0  0  0  0  0  0  0  0
    8.9443  -14.8210   21.3150 C   0  0  0  0  0  0  0  0  0  0  0  0
    8.8970  -15.7889   22.4711 C   0  0  1  0  0  0  0  0  0  0  0  0
   10.2174  -15.5961   23.1712 C   0  0  0  0  0  0  0  0  0  0  0  0
   10.7731  -14.4810   23.1976 O   0  0  0  0  0  0  0  0  0  0  0  0
   10.8032  -16.7077   23.7924 N   0  0  0  0  0  0  0  0  0  0  0  0
   12.0619  -16.6211   24.5491 C   0  0  1  0  0  0  0  0  0  0  0  0
   11.7396  -17.0546   25.9378 C   0  0  0  0  0  0  0  0  0  0  0  0
   11.1976  -16.0180   26.8176 C   0  0  0  0  0  0  0  0  0  0  0  0
   10.9582  -16.3137   28.1579 C   0  0  0  0  0  0  0  0  0  0  0  0
   10.4551  -15.3234   28.9736 C   0  0  0  0  0  0  0  0  0  0  0  0
   10.1938  -14.0602   28.4676 C   0  0  0  0  0  0  0  0  0  0  0  0
   10.4391  -13.7817   27.1254 C   0  0  0  0  0  0  0  0  0  0  0  0
   10.9428  -14.7669   26.3015 C   0  0  0  0  0  0  0  0  0  0  0  0
   13.0102  -17.5638   23.9235 C   0  0  0  0  0  0  0  0  0  0  0  0
   14.2329  -17.5065   24.1673 O   0  0  0  0  0  0  0  0  0  0  0  0
   12.5956  -18.5528   23.0423 O   0  0  0  0  0  0  0  0  0  0  0  0
  2  1  1  6
  3  2  1  0
  4  2  1  0
  5  4  1  0
  5  6  1  1
  7  8  2  0
  7  5  1  0
  9  7  1  0
 10  9  1  0
 11 10  1  0
 12 11  1  0
 12 13  1  0
 13  9  1  0
 13 14  1  1
 14 15  2  0
 16 14  1  0
 17 16  1  0
 17 18  1  1
 19 18  1  0
 19 20  2  0
 21 20  1  0
 22 21  2  0
 23 24  2  0
 23 22  1  0
 24 19  1  0
 25 17  1  0
 26 25  2  0
 27 25  1  0
M  END
$$$$
