LPF.pdb
     RDKit          3D

 27 28  0  0  1  0  0  0  0  0999 V2000
   10.7008  -21.5037   19.4506 C   0  0  0  0  0  0  0  0  0  0  0  0
   10.1604  -20.2699   18.6799 C   0  0  1  0  0  0  0  0  0  0  0  0
    8.8103  -20.7298   18.1694 C   0  0  0  0  0  0  0  0  0  0  0  0
   10.1302  -19.1703   19.6650 C   0  0  0  0  0  0  0  0  0  0  0  0
   10.0172  -17.7714   19.1583 C   0  0  2  0  0  0  0  0  0  0  0  0
   11.0705  -17.4223   18.2978 N   0  0  0  0  0  0  0  0  0  0  0  0
    9.6469  -16.8221   20.2170 C   0  0  0  0  0  0  0  0  0  0  0  0
   10.6077  -16.4140   20.9467 O   0  0  0  0  0  0  0  0  0  0  0  0
    8.3505  -16.3437   20.4822 N   0  0  0  0  0  0  0  0  0  0  0  0
    7.2201  -16.5455   19.6026 C   0  0  0  0  0  0  0  0  0  0  0  0
    5.9782  -16.1355   20.3418 C   0  0  0  0  0  0  0  0  0  0  0  0
    6.4116  -15.8318   21.7249 C   0  0  0  0  0  0  0  0  0  0  0  0
    7.8973  -15.5964   21.6117 C   0  0  1  0  0  0  0  0  0  0  0  0
    8.4519  -16.0847   22.9250 C   0  0  0  0  0  0  0  0  0  0  0  0
    8.7857  -17.2756   23.0777 O   0  0  0  0  0  0  0  0  0  0  0  0
    8.5818  -15.1605   23.9708 N   0  0  0  0  0  0  0  0  0  0  0  0
    9.1380  -15.5222   25.2839 C   0  0  1  0  0  0  0  0  0  0  0  0
    9.4446  -14.2362   25.9710 C   0  0  0  0  0  0  0  0  0  0  0  0
    8.3290  -13.2958   26.0871 C   0  0  0  0  0  0  0  0  0  0  0  0
    8.1646  -12.3054   25.1209 C   0  0  0  0  0  0  0  0  0  0  0  0
    7.1042  -11.4336   25.2417 C   0  0  0  0  0  0  0  0  0  0  0  0
    6.2212  -11.5426   26.3041 C   0  0  0  0  0  0  0  0  0  0  0  0
    6.4002  -12.5384   27.2608 C   0  0  0  0  0  0  0  0  0  0  0  0
    7.4589  -13.4157   27.1478 C   0  0  0  0  0  0  0  0  0  0  0  0
    8.0855  -16.2565   26.0137 C   0  0  0  0  0  0  0  0  0  0  0  0
    6.8882  -16.1799   25.6698 O   0  0  0  0  0  0  0  0  0  0  0  0
    8.3700  -17.0622   27.1075 O   0  0  0  0  0  0  0  0  0  0  0  0
  2  1  1  1
  3  2  1  0
  4  2  1  0
  5  4  1  0
  5  6  1  1
  7  8  2  0
  7  5  1  0
  9  7  1  0
 10  9  1  0
 11 10  1  0
 12 11  1  0
 12 13  1  0
 13  9  1  0
 13 14  1  1
 14 15  2  0
 16 14  1  0
 17 16  1  0
 17 18  1  1
 19 18  1  0
 19 20  2  0
 21 20  1  0
 22 21  2  0
 23 24  2  0
 23 22  1  0
 24 19  1  0
 25 17  1  0
 26 25  2  0
 27 25  1  0
M  END
$$$$
