LPF.pdb
     RDKit          3D

 27 28  0  0  1  0  0  0  0  0999 V2000
    7.3275  -11.8414   20.4381 C   0  0  0  0  0  0  0  0  0  0  0  0
    7.5166  -13.3195   20.0051 C   0  0  1  0  0  0  0  0  0  0  0  0
    8.7418  -13.2779   19.1151 C   0  0  0  0  0  0  0  0  0  0  0  0
    7.6642  -14.0836   21.2599 C   0  0  0  0  0  0  0  0  0  0  0  0
    7.7641  -15.5699   21.1739 C   0  0  2  0  0  0  0  0  0  0  0  0
    6.6503  -16.1503   20.5460 N   0  0  0  0  0  0  0  0  0  0  0  0
    8.2416  -16.1711   22.4268 C   0  0  0  0  0  0  0  0  0  0  0  0
    7.4891  -15.9960   23.4394 O   0  0  0  0  0  0  0  0  0  0  0  0
    9.4323  -16.9024   22.5919 N   0  0  0  0  0  0  0  0  0  0  0  0
   10.2232  -17.4152   21.4949 C   0  0  0  0  0  0  0  0  0  0  0  0
   11.5342  -17.8927   22.0517 C   0  0  0  0  0  0  0  0  0  0  0  0
   11.5336  -17.5031   23.4804 C   0  0  0  0  0  0  0  0  0  0  0  0
   10.0788  -17.2767   23.8091 C   0  0  1  0  0  0  0  0  0  0  0  0
   10.0982  -16.1844   24.8471 C   0  0  0  0  0  0  0  0  0  0  0  0
   10.4822  -15.0339   24.5610 O   0  0  0  0  0  0  0  0  0  0  0  0
    9.6717  -16.4997   26.1445 N   0  0  0  0  0  0  0  0  0  0  0  0
   10.0314  -15.6867   27.3167 C   0  0  1  0  0  0  0  0  0  0  0  0
    8.7456  -15.2073   27.8972 C   0  0  0  0  0  0  0  0  0  0  0  0
    8.1239  -14.0719   27.2140 C   0  0  0  0  0  0  0  0  0  0  0  0
    8.7397  -12.8230   27.2615 C   0  0  0  0  0  0  0  0  0  0  0  0
    8.1445  -11.7671   26.6060 C   0  0  0  0  0  0  0  0  0  0  0  0
    6.9573  -11.9474   25.9145 C   0  0  0  0  0  0  0  0  0  0  0  0
    6.3553  -13.2025   25.8771 C   0  0  0  0  0  0  0  0  0  0  0  0
    6.9442  -14.2653   26.5303 C   0  0  0  0  0  0  0  0  0  0  0  0
   10.7236  -16.5789   28.2678 C   0  0  0  0  0  0  0  0  0  0  0  0
   11.2386  -16.1328   29.3134 O   0  0  0  0  0  0  0  0  0  0  0  0
   10.8352  -17.9453   28.0513 O   0  0  0  0  0  0  0  0  0  0  0  0
  2  1  1  1
  3  2  1  0
  4  2  1  0
  5  4  1  0
  5  6  1  1
  7  8  2  0
  7  5  1  0
  9  7  1  0
 10  9  1  0
 11 10  1  0
 12 11  1  0
 12 13  1  0
 13  9  1  0
 13 14  1  1
 14 15  2  0
 16 14  1  0
 17 16  1  0
 17 18  1  1
 19 18  1  0
 19 20  2  0
 21 20  1  0
 22 21  2  0
 23 24  2  0
 23 22  1  0
 24 19  1  0
 25 17  1  0
 26 25  2  0
 27 25  1  0
M  END
$$$$
