LPF.pdb
     RDKit          3D

 27 28  0  0  1  0  0  0  0  0999 V2000
    7.6628  -11.7218   20.4608 C   0  0  0  0  0  0  0  0  0  0  0  0
    7.5663  -13.2133   20.0431 C   0  0  1  0  0  0  0  0  0  0  0  0
    8.6732  -13.3710   19.0209 C   0  0  0  0  0  0  0  0  0  0  0  0
    7.7341  -13.9852   21.2906 C   0  0  0  0  0  0  0  0  0  0  0  0
    7.4699  -15.4533   21.2533 C   0  0  2  0  0  0  0  0  0  0  0  0
    6.1458  -15.7546   20.8962 N   0  0  0  0  0  0  0  0  0  0  0  0
    8.0508  -16.1548   22.4064 C   0  0  0  0  0  0  0  0  0  0  0  0
    7.3511  -16.1315   23.4704 O   0  0  0  0  0  0  0  0  0  0  0  0
    9.2855  -16.8292   22.4278 N   0  0  0  0  0  0  0  0  0  0  0  0
   10.0341  -17.1805   21.2410 C   0  0  0  0  0  0  0  0  0  0  0  0
   11.3993  -17.6360   21.6715 C   0  0  0  0  0  0  0  0  0  0  0  0
   11.4651  -17.3956   23.1313 C   0  0  0  0  0  0  0  0  0  0  0  0
   10.0231  -17.2883   23.5614 C   0  0  1  0  0  0  0  0  0  0  0  0
   10.0488  -16.3088   24.7062 C   0  0  0  0  0  0  0  0  0  0  0  0
   10.4387  -15.1369   24.5397 O   0  0  0  0  0  0  0  0  0  0  0  0
    9.6214  -16.7537   25.9648 N   0  0  0  0  0  0  0  0  0  0  0  0
    9.8312  -15.9739   27.1946 C   0  0  1  0  0  0  0  0  0  0  0  0
    8.4786  -15.5400   27.6443 C   0  0  0  0  0  0  0  0  0  0  0  0
    7.9836  -14.2933   27.0584 C   0  0  0  0  0  0  0  0  0  0  0  0
    8.7289  -13.1251   27.2032 C   0  0  0  0  0  0  0  0  0  0  0  0
    8.2517  -11.9622   26.6384 C   0  0  0  0  0  0  0  0  0  0  0  0
    7.0542  -11.9585   25.9411 C   0  0  0  0  0  0  0  0  0  0  0  0
    6.3219  -13.1352   25.8058 C   0  0  0  0  0  0  0  0  0  0  0  0
    6.7921  -14.3040   26.3678 C   0  0  0  0  0  0  0  0  0  0  0  0
   10.4355  -16.8839   28.1877 C   0  0  0  0  0  0  0  0  0  0  0  0
   10.3772  -18.1227   28.0477 O   0  0  0  0  0  0  0  0  0  0  0  0
   11.0935  -16.4140   29.3158 O   0  0  0  0  0  0  0  0  0  0  0  0
  2  1  1  1
  3  2  1  0
  4  2  1  0
  5  4  1  0
  5  6  1  1
  7  8  2  0
  7  5  1  0
  9  7  1  0
 10  9  1  0
 11 10  1  0
 12 11  1  0
 12 13  1  0
 13  9  1  0
 13 14  1  1
 14 15  2  0
 16 14  1  0
 17 16  1  0
 17 18  1  1
 19 18  1  0
 19 20  2  0
 21 20  1  0
 22 21  2  0
 23 24  2  0
 23 22  1  0
 24 19  1  0
 25 17  1  0
 26 25  2  0
 27 25  1  0
M  END
$$$$
