LPF.pdb
     RDKit          3D

 27 28  0  0  1  0  0  0  0  0999 V2000
    6.5954  -20.8168   19.7458 C   0  0  0  0  0  0  0  0  0  0  0  0
    7.4457  -19.8391   18.8918 C   0  0  1  0  0  0  0  0  0  0  0  0
    6.4412  -19.2360   17.9314 C   0  0  0  0  0  0  0  0  0  0  0  0
    8.0533  -18.8986   19.8544 C   0  0  0  0  0  0  0  0  0  0  0  0
    8.8491  -17.7558   19.3186 C   0  0  2  0  0  0  0  0  0  0  0  0
    9.8814  -18.1713   18.4622 N   0  0  0  0  0  0  0  0  0  0  0  0
    9.1684  -16.7634   20.3542 C   0  0  0  0  0  0  0  0  0  0  0  0
   10.2033  -17.0149   21.0526 O   0  0  0  0  0  0  0  0  0  0  0  0
    8.4399  -15.5912   20.6287 N   0  0  0  0  0  0  0  0  0  0  0  0
    7.4535  -15.0259   19.7345 C   0  0  0  0  0  0  0  0  0  0  0  0
    6.7118  -13.9534   20.4805 C   0  0  0  0  0  0  0  0  0  0  0  0
    7.2000  -14.0195   21.8770 C   0  0  0  0  0  0  0  0  0  0  0  0
    8.5148  -14.7533   21.7828 C   0  0  1  0  0  0  0  0  0  0  0  0
    8.6095  -15.5139   23.0802 C   0  0  0  0  0  0  0  0  0  0  0  0
    7.9544  -16.5585   23.2612 O   0  0  0  0  0  0  0  0  0  0  0  0
    9.4561  -15.0125   24.0785 N   0  0  0  0  0  0  0  0  0  0  0  0
    9.2741  -15.3276   25.5040 C   0  0  1  0  0  0  0  0  0  0  0  0
    7.8171  -15.1776   25.7775 C   0  0  0  0  0  0  0  0  0  0  0  0
    7.3519  -13.8096   26.0113 C   0  0  0  0  0  0  0  0  0  0  0  0
    8.2831  -12.7799   26.1279 C   0  0  0  0  0  0  0  0  0  0  0  0
    7.8269  -11.4970   26.3401 C   0  0  0  0  0  0  0  0  0  0  0  0
    6.4686  -11.2399   26.4351 C   0  0  0  0  0  0  0  0  0  0  0  0
    5.5515  -12.2809   26.3161 C   0  0  0  0  0  0  0  0  0  0  0  0
    5.9991  -13.5683   26.1034 C   0  0  0  0  0  0  0  0  0  0  0  0
    9.6910  -16.7309   25.6951 C   0  0  0  0  0  0  0  0  0  0  0  0
    9.6560  -17.2670   26.8215 O   0  0  0  0  0  0  0  0  0  0  0  0
   10.1374  -17.5185   24.6430 O   0  0  0  0  0  0  0  0  0  0  0  0
  2  1  1  1
  3  2  1  0
  4  2  1  0
  5  4  1  0
  5  6  1  1
  7  8  2  0
  7  5  1  0
  9  7  1  0
 10  9  1  0
 11 10  1  0
 12 11  1  0
 12 13  1  0
 13  9  1  0
 13 14  1  1
 14 15  2  0
 16 14  1  0
 17 16  1  0
 17 18  1  6
 19 18  1  0
 19 20  2  0
 21 20  1  0
 22 21  2  0
 23 24  2  0
 23 22  1  0
 24 19  1  0
 25 17  1  0
 26 25  2  0
 27 25  1  0
M  END
$$$$
