FTS.pdb
     RDKit          3D

 25 25  0  0  1  0  0  0  0  0999 V2000
    5.7202  -17.4658   25.6707 N   0  0  0  0  0  0  0  0  0  0  0  0
    6.4111  -16.2683   25.2024 C   0  0  1  0  0  0  0  0  0  0  0  0
    7.1345  -15.6189   26.3511 C   0  0  0  0  0  0  0  0  0  0  0  0
    6.8809  -14.1872   26.4794 C   0  0  0  0  0  0  0  0  0  0  0  0
    7.9344  -13.3060   26.5106 C   0  0  0  0  0  0  0  0  0  0  0  0
    7.7721  -11.9349   26.6301 C   0  0  0  0  0  0  0  0  0  0  0  0
    6.4766  -11.4630   26.7201 C   0  0  0  0  0  0  0  0  0  0  0  0
    5.4027  -12.3272   26.6911 C   0  0  0  0  0  0  0  0  0  0  0  0
    5.6060  -13.6837   26.5712 C   0  0  0  0  0  0  0  0  0  0  0  0
    7.4557  -16.6390   24.1870 C   0  0  0  0  0  0  0  0  0  0  0  0
    8.0193  -17.7639   24.1877 O   0  0  0  0  0  0  0  0  0  0  0  0
    9.4064  -15.3938   19.8719 C   0  0  0  0  0  0  0  0  0  0  0  0
    8.4341  -15.0979   20.9849 C   0  0  1  0  0  0  0  0  0  0  0  0
    7.1199  -15.1155   20.5733 O   0  0  0  0  0  0  0  0  0  0  0  0
    8.7097  -16.0711   22.1116 C   0  0  2  0  0  0  0  0  0  0  0  0
    7.8084  -15.6878   23.2057 N   0  0  0  0  0  0  0  0  0  0  0  0
   10.1153  -15.9886   22.5757 C   0  0  0  0  0  0  0  0  0  0  0  0
   10.5433  -14.9039   23.0383 O   0  0  0  0  0  0  0  0  0  0  0  0
   12.1986  -19.3759   22.4771 O   0  0  0  0  0  0  0  0  0  0  0  0
   12.7697  -18.4787   23.3555 C   0  0  0  0  0  0  0  0  0  0  0  0
   12.3515  -17.0519   22.9817 C   0  0  2  0  0  0  0  0  0  0  0  0
   10.9862  -17.1064   22.5089 N   0  0  0  0  0  0  0  0  0  0  0  0
   13.2563  -16.6182   21.8949 C   0  0  0  0  0  0  0  0  0  0  0  0
   12.8074  -16.5153   20.7287 O   0  0  0  0  0  0  0  0  0  0  0  0
   14.5813  -16.3248   22.1352 O   0  0  0  0  0  0  0  0  0  0  0  0
  2 10  1  0
  2  1  1  1
  3  2  1  0
  4  3  1  0
  5  4  2  0
  6  5  1  0
  7  6  2  0
  7  8  1  0
  8  9  2  0
  9  4  1  0
 10 11  2  0
 13 12  1  6
 13 14  1  0
 15 13  1  0
 15 16  1  1
 16 10  1  0
 17 22  1  0
 17 15  1  0
 18 17  2  0
 20 19  1  0
 21 20  1  6
 21 22  1  0
 23 25  1  0
 23 21  1  0
 24 23  2  0
M  END
$$$$
