FTS.pdb
     RDKit          3D

 25 25  0  0  1  0  0  0  0  0999 V2000
    5.8350  -16.7487   25.7242 N   0  0  0  0  0  0  0  0  0  0  0  0
    6.6651  -15.7421   25.0695 C   0  0  1  0  0  0  0  0  0  0  0  0
    7.5031  -15.0303   26.0970 C   0  0  0  0  0  0  0  0  0  0  0  0
    7.1069  -13.6448   26.3298 C   0  0  0  0  0  0  0  0  0  0  0  0
    5.9292  -13.3705   26.9819 C   0  0  0  0  0  0  0  0  0  0  0  0
    5.4877  -12.0823   27.2389 C   0  0  0  0  0  0  0  0  0  0  0  0
    6.2928  -11.0462   26.8060 C   0  0  0  0  0  0  0  0  0  0  0  0
    7.4792  -11.2957   26.1494 C   0  0  0  0  0  0  0  0  0  0  0  0
    7.8831  -12.5907   25.9131 C   0  0  0  0  0  0  0  0  0  0  0  0
    7.6198  -16.4023   24.1143 C   0  0  0  0  0  0  0  0  0  0  0  0
    8.0476  -17.5713   24.2976 O   0  0  0  0  0  0  0  0  0  0  0  0
    7.2960  -15.1313   20.5456 C   0  0  0  0  0  0  0  0  0  0  0  0
    8.7483  -15.4989   20.7109 C   0  0  1  0  0  0  0  0  0  0  0  0
    9.5852  -14.4050   20.7166 O   0  0  0  0  0  0  0  0  0  0  0  0
    8.8734  -16.3405   21.9633 C   0  0  2  0  0  0  0  0  0  0  0  0
    8.0437  -15.6795   22.9785 N   0  0  0  0  0  0  0  0  0  0  0  0
   10.2759  -16.4106   22.4388 C   0  0  0  0  0  0  0  0  0  0  0  0
   10.6933  -15.5411   23.2409 O   0  0  0  0  0  0  0  0  0  0  0  0
   12.2083  -19.7965   21.9514 O   0  0  0  0  0  0  0  0  0  0  0  0
   12.8689  -18.9286   22.7958 C   0  0  0  0  0  0  0  0  0  0  0  0
   12.5448  -17.4816   22.4063 C   0  0  2  0  0  0  0  0  0  0  0  0
   11.1556  -17.4369   22.0082 N   0  0  0  0  0  0  0  0  0  0  0  0
   13.4199  -17.1468   21.2618 C   0  0  0  0  0  0  0  0  0  0  0  0
   12.9039  -16.9239   20.1410 O   0  0  0  0  0  0  0  0  0  0  0  0
   14.7893  -17.0743   21.3995 O   0  0  0  0  0  0  0  0  0  0  0  0
  2 10  1  0
  2  1  1  1
  3  2  1  0
  4  3  1  0
  5  4  2  0
  6  5  1  0
  7  6  2  0
  7  8  1  0
  8  9  2  0
  9  4  1  0
 10 11  2  0
 13 12  1  1
 13 14  1  0
 15 13  1  0
 15 16  1  1
 16 10  1  0
 17 22  1  0
 17 15  1  0
 18 17  2  0
 20 19  1  0
 21 20  1  6
 21 22  1  0
 23 25  1  0
 23 21  1  0
 24 23  2  0
M  END
$$$$
