FTS.pdb
     RDKit          3D

 25 25  0  0  1  0  0  0  0  0999 V2000
    6.4034  -16.9082   26.0929 N   0  0  0  0  0  0  0  0  0  0  0  0
    6.9674  -15.8696   25.2362 C   0  0  1  0  0  0  0  0  0  0  0  0
    7.8755  -14.9833   26.0451 C   0  0  0  0  0  0  0  0  0  0  0  0
    7.2677  -13.7181   26.4459 C   0  0  0  0  0  0  0  0  0  0  0  0
    7.8942  -12.9220   27.3739 C   0  0  0  0  0  0  0  0  0  0  0  0
    7.3789  -11.7092   27.8030 C   0  0  0  0  0  0  0  0  0  0  0  0
    6.1763  -11.3096   27.2524 C   0  0  0  0  0  0  0  0  0  0  0  0
    5.5282  -12.0910   26.3193 C   0  0  0  0  0  0  0  0  0  0  0  0
    6.0734  -13.2903   25.9189 C   0  0  0  0  0  0  0  0  0  0  0  0
    7.8143  -16.4910   24.1609 C   0  0  0  0  0  0  0  0  0  0  0  0
    8.3164  -17.6380   24.2847 O   0  0  0  0  0  0  0  0  0  0  0  0
    7.0272  -15.2042   20.6352 C   0  0  0  0  0  0  0  0  0  0  0  0
    8.5014  -15.5173   20.6531 C   0  0  1  0  0  0  0  0  0  0  0  0
    9.2935  -14.3915   20.6062 O   0  0  0  0  0  0  0  0  0  0  0  0
    8.7772  -16.3792   21.8670 C   0  0  2  0  0  0  0  0  0  0  0  0
    8.0476  -15.7563   22.9786 N   0  0  0  0  0  0  0  0  0  0  0  0
   10.2237  -16.4266   22.1884 C   0  0  0  0  0  0  0  0  0  0  0  0
   10.7485  -15.4574   22.7876 O   0  0  0  0  0  0  0  0  0  0  0  0
   11.8381  -19.9204   22.3319 O   0  0  0  0  0  0  0  0  0  0  0  0
   12.6679  -18.9597   22.8717 C   0  0  0  0  0  0  0  0  0  0  0  0
   12.4318  -17.6183   22.1680 C   0  0  2  0  0  0  0  0  0  0  0  0
   11.0270  -17.5410   21.8346 N   0  0  0  0  0  0  0  0  0  0  0  0
   13.2531  -17.6368   20.9380 C   0  0  0  0  0  0  0  0  0  0  0  0
   12.6879  -17.5435   19.8227 O   0  0  0  0  0  0  0  0  0  0  0  0
   14.6253  -17.7544   20.9902 O   0  0  0  0  0  0  0  0  0  0  0  0
  2 10  1  0
  2  1  1  1
  3  2  1  0
  4  3  1  0
  5  4  2  0
  6  5  1  0
  7  6  2  0
  7  8  1  0
  8  9  2  0
  9  4  1  0
 10 11  2  0
 13 12  1  1
 13 14  1  0
 15 13  1  0
 15 16  1  1
 16 10  1  0
 17 22  1  0
 17 15  1  0
 18 17  2  0
 20 19  1  0
 21 20  1  6
 21 22  1  0
 23 25  1  0
 23 21  1  0
 24 23  2  0
M  END
$$$$
