FTS.pdb
     RDKit          3D

 25 25  0  0  1  0  0  0  0  0999 V2000
    5.5182  -17.5801   25.5686 N   0  0  0  0  0  0  0  0  0  0  0  0
    6.2771  -16.3815   25.2248 C   0  0  1  0  0  0  0  0  0  0  0  0
    6.9890  -15.8649   26.4458 C   0  0  0  0  0  0  0  0  0  0  0  0
    6.9273  -14.4148   26.6000 C   0  0  0  0  0  0  0  0  0  0  0  0
    8.0837  -13.6737   26.5684 C   0  0  0  0  0  0  0  0  0  0  0  0
    8.1042  -12.2950   26.7075 C   0  0  0  0  0  0  0  0  0  0  0  0
    6.8873  -11.6653   26.8850 C   0  0  0  0  0  0  0  0  0  0  0  0
    5.7129  -12.3869   26.9203 C   0  0  0  0  0  0  0  0  0  0  0  0
    5.7349  -13.7563   26.7782 C   0  0  0  0  0  0  0  0  0  0  0  0
    7.3382  -16.7149   24.2136 C   0  0  0  0  0  0  0  0  0  0  0  0
    7.9298  -17.8253   24.2066 O   0  0  0  0  0  0  0  0  0  0  0  0
    6.8744  -15.1790   20.7576 C   0  0  0  0  0  0  0  0  0  0  0  0
    8.3518  -15.1189   21.0497 C   0  0  1  0  0  0  0  0  0  0  0  0
    8.8017  -13.8413   21.2992 O   0  0  0  0  0  0  0  0  0  0  0  0
    8.6383  -16.0751   22.1881 C   0  0  2  0  0  0  0  0  0  0  0  0
    7.6743  -15.7446   23.2452 N   0  0  0  0  0  0  0  0  0  0  0  0
   10.0175  -15.9124   22.7068 C   0  0  0  0  0  0  0  0  0  0  0  0
   10.2525  -15.0088   23.5447 O   0  0  0  0  0  0  0  0  0  0  0  0
   12.4453  -18.9178   22.4519 O   0  0  0  0  0  0  0  0  0  0  0  0
   12.9832  -17.8913   23.2000 C   0  0  0  0  0  0  0  0  0  0  0  0
   12.4450  -16.5473   22.6957 C   0  0  2  0  0  0  0  0  0  0  0  0
   11.0763  -16.7536   22.2781 N   0  0  0  0  0  0  0  0  0  0  0  0
   13.2843  -16.1639   21.5396 C   0  0  0  0  0  0  0  0  0  0  0  0
   12.7558  -16.0574   20.4076 O   0  0  0  0  0  0  0  0  0  0  0  0
   14.6339  -15.9211   21.6786 O   0  0  0  0  0  0  0  0  0  0  0  0
  2 10  1  0
  2  1  1  1
  3  2  1  0
  4  3  1  0
  5  4  2  0
  6  5  1  0
  7  6  2  0
  7  8  1  0
  8  9  2  0
  9  4  1  0
 10 11  2  0
 13 12  1  1
 13 14  1  0
 15 13  1  0
 15 16  1  1
 16 10  1  0
 17 22  1  0
 17 15  1  0
 18 17  2  0
 20 19  1  0
 21 20  1  6
 21 22  1  0
 23 25  1  0
 23 21  1  0
 24 23  2  0
M  END
$$$$
