FTS.pdb
     RDKit          3D

 25 25  0  0  1  0  0  0  0  0999 V2000
    8.4598  -17.1563   19.9979 N   0  0  0  0  0  0  0  0  0  0  0  0
    9.4945  -16.6187   20.8760 C   0  0  1  0  0  0  0  0  0  0  0  0
    8.9129  -15.5304   21.7373 C   0  0  0  0  0  0  0  0  0  0  0  0
    8.4376  -14.3709   20.9889 C   0  0  0  0  0  0  0  0  0  0  0  0
    7.0885  -14.1428   20.8649 C   0  0  0  0  0  0  0  0  0  0  0  0
    6.5631  -13.0646   20.1707 C   0  0  0  0  0  0  0  0  0  0  0  0
    7.4650  -12.1959   19.5868 C   0  0  0  0  0  0  0  0  0  0  0  0
    8.8236  -12.4032   19.6970 C   0  0  0  0  0  0  0  0  0  0  0  0
    9.3062  -13.4871   20.3958 C   0  0  0  0  0  0  0  0  0  0  0  0
    9.9890  -17.6901   21.8072 C   0  0  0  0  0  0  0  0  0  0  0  0
    9.2083  -18.3542   22.5369 O   0  0  0  0  0  0  0  0  0  0  0  0
   12.0213  -20.4893   20.7081 C   0  0  0  0  0  0  0  0  0  0  0  0
   12.8310  -19.8354   21.7983 C   0  0  1  0  0  0  0  0  0  0  0  0
   13.8622  -19.0610   21.3149 O   0  0  0  0  0  0  0  0  0  0  0  0
   11.8772  -19.0586   22.6811 C   0  0  2  0  0  0  0  0  0  0  0  0
   11.3750  -17.9519   21.8572 N   0  0  0  0  0  0  0  0  0  0  0  0
   12.5596  -18.5142   23.8794 C   0  0  0  0  0  0  0  0  0  0  0  0
   13.1053  -17.3867   23.8123 O   0  0  0  0  0  0  0  0  0  0  0  0
   12.1264  -20.5855   27.2120 O   0  0  0  0  0  0  0  0  0  0  0  0
   12.5973  -19.3217   27.5013 C   0  0  0  0  0  0  0  0  0  0  0  0
   13.2945  -18.7351   26.2684 C   0  0  2  0  0  0  0  0  0  0  0  0
   12.6096  -19.2379   25.0985 N   0  0  0  0  0  0  0  0  0  0  0  0
   14.6896  -19.2256   26.2993 C   0  0  0  0  0  0  0  0  0  0  0  0
   15.0910  -19.9882   25.3886 O   0  0  0  0  0  0  0  0  0  0  0  0
   15.5580  -18.8635   27.3064 O   0  0  0  0  0  0  0  0  0  0  0  0
  2 10  1  0
  2  1  1  6
  3  2  1  0
  4  3  1  0
  5  4  2  0
  6  5  1  0
  7  6  2  0
  7  8  1  0
  8  9  2  0
  9  4  1  0
 10 11  2  0
 13 12  1  6
 13 14  1  0
 15 13  1  0
 15 16  1  6
 16 10  1  0
 17 22  1  0
 17 15  1  0
 18 17  2  0
 20 19  1  0
 21 20  1  1
 21 22  1  0
 23 25  1  0
 23 21  1  0
 24 23  2  0
M  END
$$$$
