FTS.pdb
     RDKit          3D

 25 25  0  0  1  0  0  0  0  0999 V2000
    5.9516  -17.1787   25.3763 N   0  0  0  0  0  0  0  0  0  0  0  0
    6.8988  -16.1409   24.9806 C   0  0  1  0  0  0  0  0  0  0  0  0
    7.4949  -15.5047   26.2072 C   0  0  0  0  0  0  0  0  0  0  0  0
    7.1214  -14.1057   26.3915 C   0  0  0  0  0  0  0  0  0  0  0  0
    8.0385  -13.1141   26.1404 C   0  0  0  0  0  0  0  0  0  0  0  0
    7.7572  -11.7657   26.2925 C   0  0  0  0  0  0  0  0  0  0  0  0
    6.4849  -11.4354   26.7183 C   0  0  0  0  0  0  0  0  0  0  0  0
    5.5468  -12.4123   26.9767 C   0  0  0  0  0  0  0  0  0  0  0  0
    5.8657  -13.7418   26.8134 C   0  0  0  0  0  0  0  0  0  0  0  0
    8.0382  -16.7485   24.2110 C   0  0  0  0  0  0  0  0  0  0  0  0
    8.4937  -17.8900   24.4805 O   0  0  0  0  0  0  0  0  0  0  0  0
   10.7727  -16.4243   20.1733 C   0  0  0  0  0  0  0  0  0  0  0  0
    9.5931  -15.9562   20.9864 C   0  0  1  0  0  0  0  0  0  0  0  0
    8.3839  -16.1974   20.3726 O   0  0  0  0  0  0  0  0  0  0  0  0
    9.6933  -16.5925   22.3567 C   0  0  2  0  0  0  0  0  0  0  0  0
    8.6083  -16.0068   23.1540 N   0  0  0  0  0  0  0  0  0  0  0  0
   10.9956  -16.3011   23.0024 C   0  0  0  0  0  0  0  0  0  0  0  0
   11.4050  -15.1161   23.0446 O   0  0  0  0  0  0  0  0  0  0  0  0
   13.1058  -19.4429   24.2719 O   0  0  0  0  0  0  0  0  0  0  0  0
   13.4463  -18.3237   25.0027 C   0  0  0  0  0  0  0  0  0  0  0  0
   13.0478  -17.0610   24.2300 C   0  0  2  0  0  0  0  0  0  0  0  0
   11.7883  -17.3299   23.5728 N   0  0  0  0  0  0  0  0  0  0  0  0
   14.1113  -16.8256   23.2293 C   0  0  0  0  0  0  0  0  0  0  0  0
   13.8594  -17.0051   22.0141 O   0  0  0  0  0  0  0  0  0  0  0  0
   15.3725  -16.4136   23.6022 O   0  0  0  0  0  0  0  0  0  0  0  0
  2 10  1  0
  2  1  1  1
  3  2  1  0
  4  3  1  0
  5  4  2  0
  6  5  1  0
  7  6  2  0
  7  8  1  0
  8  9  2  0
  9  4  1  0
 10 11  2  0
 13 12  1  6
 13 14  1  0
 15 13  1  0
 15 16  1  1
 16 10  1  0
 17 22  1  0
 17 15  1  0
 18 17  2  0
 20 19  1  0
 21 20  1  6
 21 22  1  0
 23 25  1  0
 23 21  1  0
 24 23  2  0
M  END
$$$$
