FTS.pdb
     RDKit          3D

 25 25  0  0  1  0  0  0  0  0999 V2000
    6.7868  -16.7030   11.5317 N   0  0  0  0  0  0  0  0  0  0  0  0
    7.8001  -17.4544   12.2662 C   0  0  1  0  0  0  0  0  0  0  0  0
    9.1373  -16.7803   12.1181 C   0  0  0  0  0  0  0  0  0  0  0  0
    9.6828  -16.8341   10.7653 C   0  0  0  0  0  0  0  0  0  0  0  0
    9.5652  -15.7447    9.9365 C   0  0  0  0  0  0  0  0  0  0  0  0
   10.0576  -15.7214    8.6413 C   0  0  0  0  0  0  0  0  0  0  0  0
   10.6917  -16.8637    8.1916 C   0  0  0  0  0  0  0  0  0  0  0  0
   10.8222  -17.9699    9.0043 C   0  0  0  0  0  0  0  0  0  0  0  0
   10.3190  -17.9532   10.2858 C   0  0  0  0  0  0  0  0  0  0  0  0
    7.4770  -17.4575   13.7343 C   0  0  0  0  0  0  0  0  0  0  0  0
    6.9002  -16.4894   14.2940 O   0  0  0  0  0  0  0  0  0  0  0  0
    5.5162  -20.0156   15.0481 C   0  0  0  0  0  0  0  0  0  0  0  0
    6.6822  -20.0299   16.0031 C   0  0  1  0  0  0  0  0  0  0  0  0
    7.5292  -21.0978   15.8057 O   0  0  0  0  0  0  0  0  0  0  0  0
    7.3864  -18.6939   15.8942 C   0  0  2  0  0  0  0  0  0  0  0  0
    7.8363  -18.5870   14.5006 N   0  0  0  0  0  0  0  0  0  0  0  0
    8.5573  -18.6160   16.8002 C   0  0  0  0  0  0  0  0  0  0  0  0
    9.5722  -17.9765   16.4333 O   0  0  0  0  0  0  0  0  0  0  0  0
    8.4544  -17.5246   20.2949 O   0  0  0  0  0  0  0  0  0  0  0  0
    9.6176  -17.7002   19.5748 C   0  0  0  0  0  0  0  0  0  0  0  0
    9.6588  -19.1199   18.9977 C   0  0  2  0  0  0  0  0  0  0  0  0
    8.5565  -19.2471   18.0707 N   0  0  0  0  0  0  0  0  0  0  0  0
    9.4819  -20.0444   20.1387 C   0  0  0  0  0  0  0  0  0  0  0  0
   10.3656  -20.0975   21.0266 O   0  0  0  0  0  0  0  0  0  0  0  0
    8.3679  -20.8485   20.2478 O   0  0  0  0  0  0  0  0  0  0  0  0
  2 10  1  0
  2  1  1  6
  3  2  1  0
  4  3  1  0
  5  4  2  0
  6  5  1  0
  7  6  2  0
  7  8  1  0
  8  9  2  0
  9  4  1  0
 10 11  2  0
 13 12  1  6
 13 14  1  0
 15 13  1  0
 15 16  1  6
 16 10  1  0
 17 22  1  0
 17 15  1  0
 18 17  2  0
 20 19  1  0
 21 20  1  1
 21 22  1  0
 23 25  1  0
 23 21  1  0
 24 23  2  0
M  END
$$$$
