FTS.pdb
     RDKit          3D

 25 25  0  0  1  0  0  0  0  0999 V2000
    5.9246  -16.8726   25.8211 N   0  0  0  0  0  0  0  0  0  0  0  0
    6.6193  -15.9431   24.9356 C   0  0  1  0  0  0  0  0  0  0  0  0
    7.6990  -15.2260   25.7002 C   0  0  0  0  0  0  0  0  0  0  0  0
    7.2783  -13.9469   26.2635 C   0  0  0  0  0  0  0  0  0  0  0  0
    6.0563  -13.4187   25.9238 C   0  0  0  0  0  0  0  0  0  0  0  0
    5.5892  -12.2111   26.4176 C   0  0  0  0  0  0  0  0  0  0  0  0
    6.4152  -11.5299   27.2910 C   0  0  0  0  0  0  0  0  0  0  0  0
    7.6459  -12.0392   27.6473 C   0  0  0  0  0  0  0  0  0  0  0  0
    8.0741  -13.2431   27.1344 C   0  0  0  0  0  0  0  0  0  0  0  0
    7.3009  -16.6971   23.8281 C   0  0  0  0  0  0  0  0  0  0  0  0
    6.8686  -17.8006   23.4058 O   0  0  0  0  0  0  0  0  0  0  0  0
    6.7167  -17.4563   21.4746 C   0  0  0  0  0  0  0  0  0  0  0  0
    7.8355  -16.5687   20.9928 C   0  0  1  0  0  0  0  0  0  0  0  0
    7.4387  -15.2673   20.7789 O   0  0  0  0  0  0  0  0  0  0  0  0
    8.9746  -16.6799   21.9840 C   0  0  2  0  0  0  0  0  0  0  0  0
    8.4623  -16.1408   23.2500 N   0  0  0  0  0  0  0  0  0  0  0  0
   10.1553  -15.8940   21.5526 C   0  0  0  0  0  0  0  0  0  0  0  0
   10.1434  -14.6473   21.6914 O   0  0  0  0  0  0  0  0  0  0  0  0
   13.8380  -16.6790   23.5581 O   0  0  0  0  0  0  0  0  0  0  0  0
   12.6004  -16.8636   22.9777 C   0  0  0  0  0  0  0  0  0  0  0  0
   12.6236  -16.3453   21.5351 C   0  0  2  0  0  0  0  0  0  0  0  0
   11.2968  -16.5183   20.9872 N   0  0  0  0  0  0  0  0  0  0  0  0
   13.5973  -17.1829   20.8016 C   0  0  0  0  0  0  0  0  0  0  0  0
   13.3629  -18.4055   20.6514 O   0  0  0  0  0  0  0  0  0  0  0  0
   14.7563  -16.6500   20.2796 O   0  0  0  0  0  0  0  0  0  0  0  0
  2 10  1  0
  2  1  1  1
  3  2  1  0
  4  3  1  0
  5  4  2  0
  6  5  1  0
  7  6  2  0
  7  8  1  0
  8  9  2  0
  9  4  1  0
 10 11  2  0
 13 12  1  1
 13 14  1  0
 15 13  1  0
 15 16  1  1
 16 10  1  0
 17 22  1  0
 17 15  1  0
 18 17  2  0
 20 19  1  0
 21 20  1  1
 21 22  1  0
 23 25  1  0
 23 21  1  0
 24 23  2  0
M  END
$$$$
