FTS.pdb
     RDKit          3D

 25 25  0  0  1  0  0  0  0  0999 V2000
    5.4780  -17.3401   23.4696 N   0  0  0  0  0  0  0  0  0  0  0  0
    6.4360  -16.3648   23.9811 C   0  0  1  0  0  0  0  0  0  0  0  0
    5.9670  -15.8442   25.3129 C   0  0  0  0  0  0  0  0  0  0  0  0
    6.4434  -14.5006   25.6264 C   0  0  0  0  0  0  0  0  0  0  0  0
    7.3834  -13.9031   24.8221 C   0  0  0  0  0  0  0  0  0  0  0  0
    7.8825  -12.6316   25.0558 C   0  0  0  0  0  0  0  0  0  0  0  0
    7.3914  -11.9587   26.1581 C   0  0  0  0  0  0  0  0  0  0  0  0
    6.4477  -12.5369   26.9804 C   0  0  0  0  0  0  0  0  0  0  0  0
    5.9767  -13.8030   26.7140 C   0  0  0  0  0  0  0  0  0  0  0  0
    7.7664  -17.0235   24.2179 C   0  0  0  0  0  0  0  0  0  0  0  0
    7.8617  -18.2036   24.6438 O   0  0  0  0  0  0  0  0  0  0  0  0
   12.5382  -16.7567   23.1965 C   0  0  0  0  0  0  0  0  0  0  0  0
   11.1415  -16.2104   23.0463 C   0  0  1  0  0  0  0  0  0  0  0  0
   10.6780  -16.2611   21.7504 O   0  0  0  0  0  0  0  0  0  0  0  0
   10.2477  -16.9503   24.0190 C   0  0  2  0  0  0  0  0  0  0  0  0
    8.9399  -16.2862   23.9509 N   0  0  0  0  0  0  0  0  0  0  0  0
   10.7683  -16.8785   25.4053 C   0  0  0  0  0  0  0  0  0  0  0  0
   11.1490  -15.7724   25.8584 O   0  0  0  0  0  0  0  0  0  0  0  0
    9.4654  -19.1002   28.3934 O   0  0  0  0  0  0  0  0  0  0  0  0
   10.8410  -19.1874   28.3375 C   0  0  0  0  0  0  0  0  0  0  0  0
   11.4037  -17.9898   27.5634 C   0  0  2  0  0  0  0  0  0  0  0  0
   10.8458  -18.0300   26.2301 N   0  0  0  0  0  0  0  0  0  0  0  0
   12.8709  -18.1714   27.5137 C   0  0  0  0  0  0  0  0  0  0  0  0
   13.5406  -18.0365   28.5651 O   0  0  0  0  0  0  0  0  0  0  0  0
   13.5181  -18.4853   26.3382 O   0  0  0  0  0  0  0  0  0  0  0  0
  2 10  1  0
  2  1  1  1
  3  2  1  0
  4  3  1  0
  5  4  2  0
  6  5  1  0
  7  6  2  0
  7  8  1  0
  8  9  2  0
  9  4  1  0
 10 11  2  0
 13 12  1  6
 13 14  1  0
 15 13  1  0
 15 16  1  1
 16 10  1  0
 17 22  1  0
 17 15  1  0
 18 17  2  0
 20 19  1  0
 21 20  1  1
 21 22  1  0
 23 25  1  0
 23 21  1  0
 24 23  2  0
M  END
$$$$
