FTS.pdb
     RDKit          3D

 25 25  0  0  1  0  0  0  0  0999 V2000
    6.0430  -16.4851   25.5574 N   0  0  0  0  0  0  0  0  0  0  0  0
    7.0018  -15.6558   24.8338 C   0  0  1  0  0  0  0  0  0  0  0  0
    7.7814  -14.8151   25.8085 C   0  0  0  0  0  0  0  0  0  0  0  0
    7.1967  -13.5015   26.0599 C   0  0  0  0  0  0  0  0  0  0  0  0
    6.5546  -13.2549   27.2492 C   0  0  0  0  0  0  0  0  0  0  0  0
    5.9760  -12.0343   27.5589 C   0  0  0  0  0  0  0  0  0  0  0  0
    6.0661  -11.0384   26.6054 C   0  0  0  0  0  0  0  0  0  0  0  0
    6.7052  -11.2614   25.4042 C   0  0  0  0  0  0  0  0  0  0  0  0
    7.2677  -12.4889   25.1343 C   0  0  0  0  0  0  0  0  0  0  0  0
    7.9981  -16.5243   24.1177 C   0  0  0  0  0  0  0  0  0  0  0  0
    8.2951  -17.6770   24.5253 O   0  0  0  0  0  0  0  0  0  0  0  0
   10.6092  -17.1287   20.0265 C   0  0  0  0  0  0  0  0  0  0  0  0
    9.6045  -16.3202   20.8066 C   0  0  1  0  0  0  0  0  0  0  0  0
    8.3570  -16.3004   20.2233 O   0  0  0  0  0  0  0  0  0  0  0  0
    9.5817  -16.8525   22.2238 C   0  0  2  0  0  0  0  0  0  0  0  0
    8.6145  -16.0214   22.9518 N   0  0  0  0  0  0  0  0  0  0  0  0
   10.9115  -16.7467   22.8706 C   0  0  0  0  0  0  0  0  0  0  0  0
   11.3794  -15.6104   23.1232 O   0  0  0  0  0  0  0  0  0  0  0  0
   12.1619  -19.3233   25.5173 O   0  0  0  0  0  0  0  0  0  0  0  0
   13.1843  -19.1276   24.6123 C   0  0  0  0  0  0  0  0  0  0  0  0
   12.9583  -17.8150   23.8531 C   0  0  2  0  0  0  0  0  0  0  0  0
   11.6661  -17.8990   23.2100 N   0  0  0  0  0  0  0  0  0  0  0  0
   14.0328  -17.7229   22.8406 C   0  0  0  0  0  0  0  0  0  0  0  0
   13.7609  -17.9456   21.6371 O   0  0  0  0  0  0  0  0  0  0  0  0
   15.3257  -17.3979   23.1903 O   0  0  0  0  0  0  0  0  0  0  0  0
  2 10  1  0
  2  1  1  1
  3  2  1  0
  4  3  1  0
  5  4  2  0
  6  5  1  0
  7  6  2  0
  7  8  1  0
  8  9  2  0
  9  4  1  0
 10 11  2  0
 13 12  1  6
 13 14  1  0
 15 13  1  0
 15 16  1  1
 16 10  1  0
 17 22  1  0
 17 15  1  0
 18 17  2  0
 20 19  1  0
 21 20  1  6
 21 22  1  0
 23 25  1  0
 23 21  1  0
 24 23  2  0
M  END
$$$$
