FTS.pdb
     RDKit          3D

 25 25  0  0  1  0  0  0  0  0999 V2000
    5.9457  -17.7077   25.9598 N   0  0  0  0  0  0  0  0  0  0  0  0
    6.4193  -16.4117   25.4835 C   0  0  1  0  0  0  0  0  0  0  0  0
    7.1235  -15.6882   26.5995 C   0  0  0  0  0  0  0  0  0  0  0  0
    6.7954  -14.2687   26.6869 C   0  0  0  0  0  0  0  0  0  0  0  0
    7.8022  -13.3381   26.7755 C   0  0  0  0  0  0  0  0  0  0  0  0
    7.5685  -11.9748   26.8614 C   0  0  0  0  0  0  0  0  0  0  0  0
    6.2494  -11.5638   26.8553 C   0  0  0  0  0  0  0  0  0  0  0  0
    5.2213  -12.4783   26.7672 C   0  0  0  0  0  0  0  0  0  0  0  0
    5.4952  -13.8251   26.6835 C   0  0  0  0  0  0  0  0  0  0  0  0
    7.4291  -16.6026   24.3864 C   0  0  0  0  0  0  0  0  0  0  0  0
    8.1629  -17.6227   24.3232 O   0  0  0  0  0  0  0  0  0  0  0  0
    8.0224  -13.4553   21.8633 C   0  0  0  0  0  0  0  0  0  0  0  0
    7.9550  -14.8036   21.1930 C   0  0  1  0  0  0  0  0  0  0  0  0
    8.6909  -14.8664   20.0305 O   0  0  0  0  0  0  0  0  0  0  0  0
    8.3709  -15.8469   22.2084 C   0  0  2  0  0  0  0  0  0  0  0  0
    7.5501  -15.5998   23.4005 N   0  0  0  0  0  0  0  0  0  0  0  0
    9.8058  -15.7269   22.5613 C   0  0  0  0  0  0  0  0  0  0  0  0
   10.1596  -14.8580   23.3941 O   0  0  0  0  0  0  0  0  0  0  0  0
   12.0295  -18.2476   23.9287 O   0  0  0  0  0  0  0  0  0  0  0  0
   12.6456  -17.8880   22.7482 C   0  0  0  0  0  0  0  0  0  0  0  0
   12.1865  -16.4858   22.3319 C   0  0  2  0  0  0  0  0  0  0  0  0
   10.7867  -16.5708   21.9798 N   0  0  0  0  0  0  0  0  0  0  0  0
   12.9933  -16.1113   21.1500 C   0  0  0  0  0  0  0  0  0  0  0  0
   12.4273  -15.9789   20.0390 O   0  0  0  0  0  0  0  0  0  0  0  0
   14.3528  -15.9046   21.2424 O   0  0  0  0  0  0  0  0  0  0  0  0
  2 10  1  0
  2  1  1  1
  3  2  1  0
  4  3  1  0
  5  4  2  0
  6  5  1  0
  7  6  2  0
  7  8  1  0
  8  9  2  0
  9  4  1  0
 10 11  2  0
 13 12  1  1
 13 14  1  0
 15 13  1  0
 15 16  1  1
 16 10  1  0
 17 22  1  0
 17 15  1  0
 18 17  2  0
 20 19  1  0
 21 20  1  6
 21 22  1  0
 23 25  1  0
 23 21  1  0
 24 23  2  0
M  END
$$$$
