FTS.pdb
     RDKit          3D

 25 25  0  0  1  0  0  0  0  0999 V2000
    6.1070  -16.8808   25.9280 N   0  0  0  0  0  0  0  0  0  0  0  0
    6.8060  -15.8690   25.1417 C   0  0  1  0  0  0  0  0  0  0  0  0
    7.6644  -15.0274   26.0470 C   0  0  0  0  0  0  0  0  0  0  0  0
    7.1488  -13.6803   26.2706 C   0  0  0  0  0  0  0  0  0  0  0  0
    6.2115  -13.4606   27.2507 C   0  0  0  0  0  0  0  0  0  0  0  0
    5.6765  -12.2111   27.5211 C   0  0  0  0  0  0  0  0  0  0  0  0
    6.1279  -11.1565   26.7509 C   0  0  0  0  0  0  0  0  0  0  0  0
    7.0680  -11.3514   25.7613 C   0  0  0  0  0  0  0  0  0  0  0  0
    7.5753  -12.6092   25.5236 C   0  0  0  0  0  0  0  0  0  0  0  0
    7.7315  -16.5285   24.1577 C   0  0  0  0  0  0  0  0  0  0  0  0
    8.2837  -17.6335   24.3963 O   0  0  0  0  0  0  0  0  0  0  0  0
    7.0564  -15.5029   20.5215 C   0  0  0  0  0  0  0  0  0  0  0  0
    8.5331  -15.7900   20.6146 C   0  0  1  0  0  0  0  0  0  0  0  0
    9.3110  -14.6579   20.5143 O   0  0  0  0  0  0  0  0  0  0  0  0
    8.7758  -16.5575   21.8970 C   0  0  2  0  0  0  0  0  0  0  0  0
    7.9825  -15.8793   22.9298 N   0  0  0  0  0  0  0  0  0  0  0  0
   10.2073  -16.5425   22.2823 C   0  0  0  0  0  0  0  0  0  0  0  0
   10.6519  -15.5734   22.9434 O   0  0  0  0  0  0  0  0  0  0  0  0
   12.1128  -19.7633   22.9069 O   0  0  0  0  0  0  0  0  0  0  0  0
   12.8563  -18.6325   23.1743 C   0  0  0  0  0  0  0  0  0  0  0  0
   12.5090  -17.5345   22.1624 C   0  0  2  0  0  0  0  0  0  0  0  0
   11.0847  -17.5970   21.9212 N   0  0  0  0  0  0  0  0  0  0  0  0
   13.2555  -17.8497   20.9250 C   0  0  0  0  0  0  0  0  0  0  0  0
   12.6218  -18.0523   19.8622 O   0  0  0  0  0  0  0  0  0  0  0  0
   14.6316  -17.9257   20.9139 O   0  0  0  0  0  0  0  0  0  0  0  0
  2 10  1  0
  2  1  1  1
  3  2  1  0
  4  3  1  0
  5  4  2  0
  6  5  1  0
  7  6  2  0
  7  8  1  0
  8  9  2  0
  9  4  1  0
 10 11  2  0
 13 12  1  1
 13 14  1  0
 15 13  1  0
 15 16  1  1
 16 10  1  0
 17 22  1  0
 17 15  1  0
 18 17  2  0
 20 19  1  0
 21 20  1  1
 21 22  1  0
 23 25  1  0
 23 21  1  0
 24 23  2  0
M  END
$$$$
