FTS.pdb
     RDKit          3D

 25 25  0  0  1  0  0  0  0  0999 V2000
    5.7725  -15.9575   24.2134 N   0  0  0  0  0  0  0  0  0  0  0  0
    7.1264  -15.4195   24.1218 C   0  0  1  0  0  0  0  0  0  0  0  0
    7.6319  -15.0826   25.4986 C   0  0  0  0  0  0  0  0  0  0  0  0
    7.2139  -13.7695   25.9798 C   0  0  0  0  0  0  0  0  0  0  0  0
    5.9843  -13.6181   26.5735 C   0  0  0  0  0  0  0  0  0  0  0  0
    5.5193  -12.4044   27.0543 C   0  0  0  0  0  0  0  0  0  0  0  0
    6.3558  -11.3135   26.9149 C   0  0  0  0  0  0  0  0  0  0  0  0
    7.5944  -11.4398   26.3226 C   0  0  0  0  0  0  0  0  0  0  0  0
    8.0201  -12.6639   25.8574 C   0  0  0  0  0  0  0  0  0  0  0  0
    8.0574  -16.4578   23.5608 C   0  0  0  0  0  0  0  0  0  0  0  0
    7.6371  -17.4605   22.9276 O   0  0  0  0  0  0  0  0  0  0  0  0
    8.6141  -16.9896   21.2435 C   0  0  0  0  0  0  0  0  0  0  0  0
   10.0651  -16.6624   21.4864 C   0  0  1  0  0  0  0  0  0  0  0  0
   10.3805  -15.3542   21.1932 O   0  0  0  0  0  0  0  0  0  0  0  0
   10.3917  -17.0388   22.9162 C   0  0  2  0  0  0  0  0  0  0  0  0
    9.4456  -16.2935   23.7561 N   0  0  0  0  0  0  0  0  0  0  0  0
   11.7791  -16.6625   23.2788 C   0  0  0  0  0  0  0  0  0  0  0  0
   12.0431  -15.4597   23.5184 O   0  0  0  0  0  0  0  0  0  0  0  0
   13.9240  -19.6930   24.3439 O   0  0  0  0  0  0  0  0  0  0  0  0
   14.4481  -18.5331   24.8754 C   0  0  0  0  0  0  0  0  0  0  0  0
   14.0912  -17.3446   23.9751 C   0  0  2  0  0  0  0  0  0  0  0  0
   12.8136  -17.6296   23.3612 N   0  0  0  0  0  0  0  0  0  0  0  0
   15.1504  -17.2621   22.9460 C   0  0  0  0  0  0  0  0  0  0  0  0
   14.8573  -17.4799   21.7465 O   0  0  0  0  0  0  0  0  0  0  0  0
   16.4520  -16.9512   23.2757 O   0  0  0  0  0  0  0  0  0  0  0  0
  2 10  1  0
  2  1  1  1
  3  2  1  0
  4  3  1  0
  5  4  2  0
  6  5  1  0
  7  6  2  0
  7  8  1  0
  8  9  2  0
  9  4  1  0
 10 11  2  0
 13 12  1  1
 13 14  1  0
 15 13  1  0
 15 16  1  1
 16 10  1  0
 17 22  1  0
 17 15  1  0
 18 17  2  0
 20 19  1  0
 21 20  1  1
 21 22  1  0
 23 25  1  0
 23 21  1  0
 24 23  2  0
M  END
$$$$
