FTS.pdb
     RDKit          3D

 25 25  0  0  1  0  0  0  0  0999 V2000
    6.0260  -17.4342   25.7849 N   0  0  0  0  0  0  0  0  0  0  0  0
    6.5202  -16.2383   25.1095 C   0  0  1  0  0  0  0  0  0  0  0  0
    7.5362  -15.5485   25.9792 C   0  0  0  0  0  0  0  0  0  0  0  0
    7.1776  -14.1805   26.3406 C   0  0  0  0  0  0  0  0  0  0  0  0
    7.9604  -13.4792   27.2254 C   0  0  0  0  0  0  0  0  0  0  0  0
    7.6838  -12.1785   27.6156 C   0  0  0  0  0  0  0  0  0  0  0  0
    6.5603  -11.5867   27.0711 C   0  0  0  0  0  0  0  0  0  0  0  0
    5.7588  -12.2697   26.1811 C   0  0  0  0  0  0  0  0  0  0  0  0
    6.0678  -13.5616   25.8185 C   0  0  0  0  0  0  0  0  0  0  0  0
    7.2257  -16.6182   23.8376 C   0  0  0  0  0  0  0  0  0  0  0  0
    6.6763  -17.3257   22.9540 O   0  0  0  0  0  0  0  0  0  0  0  0
    6.9209  -16.0607   21.4325 C   0  0  0  0  0  0  0  0  0  0  0  0
    8.3285  -15.5277   21.3527 C   0  0  1  0  0  0  0  0  0  0  0  0
    8.4043  -14.1686   21.5626 O   0  0  0  0  0  0  0  0  0  0  0  0
    9.1795  -16.3200   22.3225 C   0  0  2  0  0  0  0  0  0  0  0  0
    8.5462  -16.1618   23.6378 N   0  0  0  0  0  0  0  0  0  0  0  0
   10.5696  -15.8075   22.3771 C   0  0  0  0  0  0  0  0  0  0  0  0
   10.7850  -14.5975   22.1259 O   0  0  0  0  0  0  0  0  0  0  0  0
   12.9235  -18.2643   24.1885 O   0  0  0  0  0  0  0  0  0  0  0  0
   13.4277  -16.9854   24.3021 C   0  0  0  0  0  0  0  0  0  0  0  0
   12.9429  -16.1322   23.1243 C   0  0  2  0  0  0  0  0  0  0  0  0
   11.6603  -16.6527   22.7064 N   0  0  0  0  0  0  0  0  0  0  0  0
   13.9417  -16.2958   22.0456 C   0  0  0  0  0  0  0  0  0  0  0  0
   13.5846  -16.7904   20.9502 O   0  0  0  0  0  0  0  0  0  0  0  0
   15.2556  -15.9168   22.2175 O   0  0  0  0  0  0  0  0  0  0  0  0
  2 10  1  0
  2  1  1  1
  3  2  1  0
  4  3  1  0
  5  4  2  0
  6  5  1  0
  7  6  2  0
  7  8  1  0
  8  9  2  0
  9  4  1  0
 10 11  2  0
 13 12  1  1
 13 14  1  0
 15 13  1  0
 15 16  1  1
 16 10  1  0
 17 22  1  0
 17 15  1  0
 18 17  2  0
 20 19  1  0
 21 20  1  1
 21 22  1  0
 23 25  1  0
 23 21  1  0
 24 23  2  0
M  END
$$$$
