FTS.pdb
     RDKit          3D

 25 25  0  0  1  0  0  0  0  0999 V2000
    6.2861  -16.9384   26.0405 N   0  0  0  0  0  0  0  0  0  0  0  0
    6.5053  -15.7879   25.1693 C   0  0  1  0  0  0  0  0  0  0  0  0
    7.6816  -14.9922   25.6671 C   0  0  0  0  0  0  0  0  0  0  0  0
    7.3145  -13.7711   26.3774 C   0  0  0  0  0  0  0  0  0  0  0  0
    8.2135  -13.1805   27.2322 C   0  0  0  0  0  0  0  0  0  0  0  0
    7.9370  -12.0217   27.9401 C   0  0  0  0  0  0  0  0  0  0  0  0
    6.6892  -11.4577   27.7558 C   0  0  0  0  0  0  0  0  0  0  0  0
    5.7697  -12.0314   26.9035 C   0  0  0  0  0  0  0  0  0  0  0  0
    6.0830  -13.1837   26.2178 C   0  0  0  0  0  0  0  0  0  0  0  0
    6.8515  -16.2501   23.7814 C   0  0  0  0  0  0  0  0  0  0  0  0
    5.9808  -16.6892   22.9863 O   0  0  0  0  0  0  0  0  0  0  0  0
    7.8816  -14.0204   21.8542 C   0  0  0  0  0  0  0  0  0  0  0  0
    7.7011  -15.3605   21.1886 C   0  0  1  0  0  0  0  0  0  0  0  0
    7.9874  -15.3377   19.8416 O   0  0  0  0  0  0  0  0  0  0  0  0
    8.5335  -16.3712   21.9489 C   0  0  2  0  0  0  0  0  0  0  0  0
    8.1990  -16.1852   23.3665 N   0  0  0  0  0  0  0  0  0  0  0  0
    9.9853  -16.1470   21.7490 C   0  0  0  0  0  0  0  0  0  0  0  0
   10.4521  -14.9927   21.9024 O   0  0  0  0  0  0  0  0  0  0  0  0
   11.7627  -19.5471   21.3257 O   0  0  0  0  0  0  0  0  0  0  0  0
   12.5610  -18.7415   22.1107 C   0  0  0  0  0  0  0  0  0  0  0  0
   12.2277  -17.2687   21.8463 C   0  0  2  0  0  0  0  0  0  0  0  0
   10.8577  -17.2060   21.3886 N   0  0  0  0  0  0  0  0  0  0  0  0
   13.1480  -16.8124   20.7820 C   0  0  0  0  0  0  0  0  0  0  0  0
   12.6760  -16.4470   19.6793 O   0  0  0  0  0  0  0  0  0  0  0  0
   14.5123  -16.7798   20.9750 O   0  0  0  0  0  0  0  0  0  0  0  0
  2 10  1  0
  2  1  1  1
  3  2  1  0
  4  3  1  0
  5  4  2  0
  6  5  1  0
  7  6  2  0
  7  8  1  0
  8  9  2  0
  9  4  1  0
 10 11  2  0
 13 12  1  1
 13 14  1  0
 15 13  1  0
 15 16  1  1
 16 10  1  0
 17 22  1  0
 17 15  1  0
 18 17  2  0
 20 19  1  0
 21 20  1  6
 21 22  1  0
 23 25  1  0
 23 21  1  0
 24 23  2  0
M  END
$$$$
