FTS.pdb
     RDKit          3D

 25 25  0  0  1  0  0  0  0  0999 V2000
    6.5207  -16.7222   26.1338 N   0  0  0  0  0  0  0  0  0  0  0  0
    6.9498  -15.7063   25.1773 C   0  0  1  0  0  0  0  0  0  0  0  0
    7.9160  -14.7622   25.8403 C   0  0  0  0  0  0  0  0  0  0  0  0
    7.2844  -13.5917   26.4416 C   0  0  0  0  0  0  0  0  0  0  0  0
    7.8251  -13.0274   27.5715 C   0  0  0  0  0  0  0  0  0  0  0  0
    7.2822  -11.9167   28.1979 C   0  0  0  0  0  0  0  0  0  0  0  0
    6.1430  -11.3744   27.6348 C   0  0  0  0  0  0  0  0  0  0  0  0
    5.5814  -11.9225   26.5011 C   0  0  0  0  0  0  0  0  0  0  0  0
    6.1513  -13.0269   25.9082 C   0  0  0  0  0  0  0  0  0  0  0  0
    7.6874  -16.3502   24.0367 C   0  0  0  0  0  0  0  0  0  0  0  0
    8.1189  -17.5304   24.1008 O   0  0  0  0  0  0  0  0  0  0  0  0
    8.9285  -15.9068   19.3163 C   0  0  0  0  0  0  0  0  0  0  0  0
    8.1121  -15.4403   20.4943 C   0  0  1  0  0  0  0  0  0  0  0  0
    6.7545  -15.5295   20.2800 O   0  0  0  0  0  0  0  0  0  0  0  0
    8.5669  -16.2190   21.7105 C   0  0  2  0  0  0  0  0  0  0  0  0
    7.8975  -15.5985   22.8607 N   0  0  0  0  0  0  0  0  0  0  0  0
   10.0363  -16.1427   21.8921 C   0  0  0  0  0  0  0  0  0  0  0  0
   10.5911  -15.0179   21.9187 O   0  0  0  0  0  0  0  0  0  0  0  0
   11.8836  -19.5712   22.6931 O   0  0  0  0  0  0  0  0  0  0  0  0
   12.6322  -18.4881   23.1045 C   0  0  0  0  0  0  0  0  0  0  0  0
   12.2528  -17.2538   22.2782 C   0  0  2  0  0  0  0  0  0  0  0  0
   10.8284  -17.3107   22.0364 N   0  0  0  0  0  0  0  0  0  0  0  0
   12.9963  -17.3546   21.0035 C   0  0  0  0  0  0  0  0  0  0  0  0
   12.3699  -17.6088   19.9475 O   0  0  0  0  0  0  0  0  0  0  0  0
   14.3618  -17.1754   20.9504 O   0  0  0  0  0  0  0  0  0  0  0  0
  2 10  1  0
  2  1  1  1
  3  2  1  0
  4  3  1  0
  5  4  2  0
  6  5  1  0
  7  6  2  0
  7  8  1  0
  8  9  2  0
  9  4  1  0
 10 11  2  0
 13 12  1  6
 13 14  1  0
 15 13  1  0
 15 16  1  1
 16 10  1  0
 17 22  1  0
 17 15  1  0
 18 17  2  0
 20 19  1  0
 21 20  1  1
 21 22  1  0
 23 25  1  0
 23 21  1  0
 24 23  2  0
M  END
$$$$
