AAI.pdb
     RDKit          3D

 19 18  0  0  1  0  0  0  0  0999 V2000
   17.7439  -10.7803  -19.3508 C   0  0  0  0  0  0  0  0  0  0  0  0
   18.5949  -10.6667  -18.1051 C   0  0  2  0  0  0  0  0  0  0  0  0
   17.8545  -11.2473  -17.0038 N   0  0  0  0  0  0  0  0  0  0  0  0
   18.8536   -9.2312  -17.8014 C   0  0  0  0  0  0  0  0  0  0  0  0
   19.8228   -8.6036  -18.3006 O   0  0  0  0  0  0  0  0  0  0  0  0
   16.8787   -6.4666  -16.4335 C   0  0  0  0  0  0  0  0  0  0  0  0
   18.2616   -7.0936  -16.6627 C   0  0  2  0  0  0  0  0  0  0  0  0
   18.0030   -8.5053  -16.9231 N   0  0  0  0  0  0  0  0  0  0  0  0
   19.0012   -6.9087  -15.3893 C   0  0  0  0  0  0  0  0  0  0  0  0
   18.3272   -6.8494  -14.3332 O   0  0  0  0  0  0  0  0  0  0  0  0
   23.8861   -9.2850  -15.0888 C   0  0  0  0  0  0  0  0  0  0  0  0
   22.9959   -8.0877  -15.1167 C   0  0  0  0  0  0  0  0  0  0  0  0
   22.0203   -8.0571  -13.9570 C   0  0  2  0  0  0  0  0  0  0  0  0
   21.1419   -9.2808  -14.0631 C   0  0  0  0  0  0  0  0  0  0  0  0
   21.1479   -6.8266  -14.0572 C   0  0  2  0  0  0  0  0  0  0  0  0
   20.4010   -6.7970  -15.2967 N   0  0  0  0  0  0  0  0  0  0  0  0
   22.0104   -5.6322  -14.0098 C   0  0  0  0  0  0  0  0  0  0  0  0
   22.6764   -5.3152  -12.8454 O   0  0  0  0  0  0  0  0  0  0  0  0
   22.1596   -4.8866  -15.0062 O   0  0  0  0  0  0  0  0  0  0  0  0
  2  3  1  0
  2  1  1  6
  4  2  1  0
  5  4  2  0
  7  6  1  1
  7  8  1  0
  8  4  1  0
  9  7  1  0
  9 16  1  0
 10  9  2  0
 12 11  1  0
 12 13  1  0
 13 14  1  6
 15 13  1  0
 15 16  1  6
 15 17  1  0
 17 18  1  0
 19 17  2  0
M  END
$$$$
