AAI.pdb
     RDKit          3D

 19 18  0  0  1  0  0  0  0  0999 V2000
   15.4851  -12.0620  -19.3950 C   0  0  0  0  0  0  0  0  0  0  0  0
   16.5564  -12.6184  -18.4830 C   0  0  2  0  0  0  0  0  0  0  0  0
   16.0448  -13.8331  -17.8823 N   0  0  0  0  0  0  0  0  0  0  0  0
   16.8537  -11.6396  -17.4000 C   0  0  0  0  0  0  0  0  0  0  0  0
   15.9482  -11.1153  -16.7017 O   0  0  0  0  0  0  0  0  0  0  0  0
   19.9744  -10.2523  -15.8947 C   0  0  0  0  0  0  0  0  0  0  0  0
   18.4521  -10.2390  -16.0960 C   0  0  2  0  0  0  0  0  0  0  0  0
   18.1915  -11.2549  -17.1098 N   0  0  0  0  0  0  0  0  0  0  0  0
   18.1266   -8.8814  -16.5995 C   0  0  0  0  0  0  0  0  0  0  0  0
   18.3176   -8.6562  -17.8185 O   0  0  0  0  0  0  0  0  0  0  0  0
   13.5303   -6.5581  -16.1155 C   0  0  0  0  0  0  0  0  0  0  0  0
   14.9063   -6.7583  -16.6568 C   0  0  0  0  0  0  0  0  0  0  0  0
   15.9643   -6.0359  -15.8465 C   0  0  2  0  0  0  0  0  0  0  0  0
   15.8429   -4.5603  -16.1439 C   0  0  0  0  0  0  0  0  0  0  0  0
   17.3382   -6.5023  -16.2709 C   0  0  2  0  0  0  0  0  0  0  0  0
   17.6209   -7.8408  -15.7981 N   0  0  0  0  0  0  0  0  0  0  0  0
   18.3436   -5.5891  -15.6984 C   0  0  0  0  0  0  0  0  0  0  0  0
   18.7711   -4.4993  -16.4262 O   0  0  0  0  0  0  0  0  0  0  0  0
   18.8284   -5.7735  -14.5574 O   0  0  0  0  0  0  0  0  0  0  0  0
  2  3  1  0
  2  1  1  6
  4  2  1  0
  5  4  2  0
  7  6  1  6
  7  8  1  0
  8  4  1  0
  9  7  1  0
  9 16  1  0
 10  9  2  0
 12 11  1  0
 12 13  1  0
 13 14  1  6
 15 13  1  0
 15 16  1  1
 15 17  1  0
 17 18  1  0
 19 17  2  0
M  END
$$$$
