AAI.pdb
     RDKit          3D

 19 18  0  0  1  0  0  0  0  0999 V2000
   17.0136  -11.1149  -14.1218 C   0  0  0  0  0  0  0  0  0  0  0  0
   16.5436  -11.1679  -15.5589 C   0  0  2  0  0  0  0  0  0  0  0  0
   16.7145  -12.5252  -16.0350 N   0  0  0  0  0  0  0  0  0  0  0  0
   17.3783  -10.2606  -16.3953 C   0  0  0  0  0  0  0  0  0  0  0  0
   18.4519  -10.6394  -16.9305 O   0  0  0  0  0  0  0  0  0  0  0  0
   17.0095   -6.7405  -17.5945 C   0  0  0  0  0  0  0  0  0  0  0  0
   17.7734   -8.0705  -17.5196 C   0  0  2  0  0  0  0  0  0  0  0  0
   16.9881   -8.9126  -16.6241 N   0  0  0  0  0  0  0  0  0  0  0  0
   19.0938   -7.7412  -16.9274 C   0  0  0  0  0  0  0  0  0  0  0  0
   20.0464   -7.5368  -17.7173 O   0  0  0  0  0  0  0  0  0  0  0  0
   22.0256   -3.7896  -13.9944 C   0  0  0  0  0  0  0  0  0  0  0  0
   21.9074   -5.2707  -14.1324 C   0  0  0  0  0  0  0  0  0  0  0  0
   20.5752   -5.6994  -14.7148 C   0  0  2  0  0  0  0  0  0  0  0  0
   19.5056   -5.3832  -13.6968 C   0  0  0  0  0  0  0  0  0  0  0  0
   20.5824   -7.1910  -14.9599 C   0  0  2  0  0  0  0  0  0  0  0  0
   19.3388   -7.6453  -15.5449 N   0  0  0  0  0  0  0  0  0  0  0  0
   20.7638   -7.8799  -13.6695 C   0  0  0  0  0  0  0  0  0  0  0  0
   22.0281   -8.0130  -13.1369 O   0  0  0  0  0  0  0  0  0  0  0  0
   19.7938   -8.3543  -13.0330 O   0  0  0  0  0  0  0  0  0  0  0  0
  2  3  1  0
  2  1  1  1
  4  2  1  0
  5  4  2  0
  7  6  1  1
  7  8  1  0
  8  4  1  0
  9  7  1  0
  9 16  1  0
 10  9  2  0
 12 11  1  0
 12 13  1  0
 13 14  1  1
 15 13  1  0
 15 16  1  1
 15 17  1  0
 17 18  1  0
 19 17  2  0
M  END
$$$$
