AAI.pdb
     RDKit          3D

 19 18  0  0  1  0  0  0  0  0999 V2000
   24.5643  -13.4356  -19.9877 C   0  0  0  0  0  0  0  0  0  0  0  0
   25.4912  -13.7525  -18.8347 C   0  0  2  0  0  0  0  0  0  0  0  0
   25.4133  -15.1757  -18.5772 N   0  0  0  0  0  0  0  0  0  0  0  0
   25.0454  -13.0222  -17.6151 C   0  0  0  0  0  0  0  0  0  0  0  0
   23.9844  -13.3165  -17.0066 O   0  0  0  0  0  0  0  0  0  0  0  0
   26.5183  -10.3332  -15.4872 C   0  0  0  0  0  0  0  0  0  0  0  0
   25.3511  -11.2445  -15.8937 C   0  0  2  0  0  0  0  0  0  0  0  0
   25.8129  -11.9492  -17.0844 N   0  0  0  0  0  0  0  0  0  0  0  0
   24.2237  -10.3333  -16.2120 C   0  0  0  0  0  0  0  0  0  0  0  0
   24.2097   -9.8073  -17.3506 O   0  0  0  0  0  0  0  0  0  0  0  0
   19.4483  -11.8968  -16.1756 C   0  0  0  0  0  0  0  0  0  0  0  0
   20.5425  -10.9354  -16.4998 C   0  0  0  0  0  0  0  0  0  0  0  0
   20.7346   -9.8839  -15.4251 C   0  0  2  0  0  0  0  0  0  0  0  0
   19.6174   -8.8773  -15.5622 C   0  0  0  0  0  0  0  0  0  0  0  0
   22.0524   -9.1740  -15.6363 C   0  0  2  0  0  0  0  0  0  0  0  0
   23.1786  -10.0267  -15.3207 N   0  0  0  0  0  0  0  0  0  0  0  0
   22.1017   -7.9978  -14.7494 C   0  0  0  0  0  0  0  0  0  0  0  0
   21.6587   -6.7759  -15.2084 O   0  0  0  0  0  0  0  0  0  0  0  0
   22.5385   -8.0737  -13.5770 O   0  0  0  0  0  0  0  0  0  0  0  0
  2  3  1  0
  2  1  1  6
  4  2  1  0
  5  4  2  0
  7  6  1  6
  7  8  1  0
  8  4  1  0
  9  7  1  0
  9 16  1  0
 10  9  2  0
 12 11  1  0
 12 13  1  0
 13 14  1  6
 15 13  1  0
 15 16  1  1
 15 17  1  0
 17 18  1  0
 19 17  2  0
M  END
$$$$
