AAI.pdb
     RDKit          3D

 19 18  0  0  1  0  0  0  0  0999 V2000
   26.5148  -36.6817   -9.7408 C   0  0  0  0  0  0  0  0  0  0  0  0
   26.9633  -37.2443   -8.4100 C   0  0  2  0  0  0  0  0  0  0  0  0
   25.7941  -37.3810   -7.5659 N   0  0  0  0  0  0  0  0  0  0  0  0
   27.9138  -36.2999   -7.7587 C   0  0  0  0  0  0  0  0  0  0  0  0
   29.0489  -36.0510   -8.2405 O   0  0  0  0  0  0  0  0  0  0  0  0
   27.7379  -33.9927   -4.8363 C   0  0  0  0  0  0  0  0  0  0  0  0
   28.5366  -34.7533   -5.9048 C   0  0  2  0  0  0  0  0  0  0  0  0
   27.5695  -35.6340   -6.5504 N   0  0  0  0  0  0  0  0  0  0  0  0
   29.5595  -35.5310   -5.1622 C   0  0  0  0  0  0  0  0  0  0  0  0
   29.3150  -36.7405   -4.9375 O   0  0  0  0  0  0  0  0  0  0  0  0
   35.6582  -35.8096   -4.5433 C   0  0  0  0  0  0  0  0  0  0  0  0
   34.3064  -36.1274   -3.9973 C   0  0  0  0  0  0  0  0  0  0  0  0
   33.2055  -35.3178   -4.6533 C   0  0  2  0  0  0  0  0  0  0  0  0
   33.3996  -33.8734   -4.2581 C   0  0  0  0  0  0  0  0  0  0  0  0
   31.8596  -35.7809   -4.1440 C   0  0  2  0  0  0  0  0  0  0  0  0
   30.7766  -34.9973   -4.6990 N   0  0  0  0  0  0  0  0  0  0  0  0
   31.8333  -35.6307   -2.6779 C   0  0  0  0  0  0  0  0  0  0  0  0
   31.1076  -34.6067   -2.1081 O   0  0  0  0  0  0  0  0  0  0  0  0
   32.4571  -36.4134   -1.9235 O   0  0  0  0  0  0  0  0  0  0  0  0
  2  3  1  0
  2  1  1  6
  4  2  1  0
  5  4  2  0
  7  6  1  1
  7  8  1  0
  8  4  1  0
  9  7  1  0
  9 16  1  0
 10  9  2  0
 12 11  1  0
 12 13  1  0
 13 14  1  1
 15 13  1  0
 15 16  1  6
 15 17  1  0
 17 18  1  0
 19 17  2  0
M  END
$$$$
