AAI.pdb
     RDKit          3D

 19 18  0  0  1  0  0  0  0  0999 V2000
   16.2326  -12.6719  -14.7859 C   0  0  0  0  0  0  0  0  0  0  0  0
   15.4210  -11.4335  -14.4752 C   0  0  2  0  0  0  0  0  0  0  0  0
   15.1918  -10.7262  -15.7183 N   0  0  0  0  0  0  0  0  0  0  0  0
   16.1880  -10.5464  -13.5563 C   0  0  0  0  0  0  0  0  0  0  0  0
   16.5232  -10.9078  -12.3989 O   0  0  0  0  0  0  0  0  0  0  0  0
   17.9579   -7.3040  -13.8712 C   0  0  0  0  0  0  0  0  0  0  0  0
   17.2440   -8.3552  -13.0088 C   0  0  2  0  0  0  0  0  0  0  0  0
   16.5760   -9.2387  -13.9578 N   0  0  0  0  0  0  0  0  0  0  0  0
   16.2603   -7.6018  -12.1918 C   0  0  0  0  0  0  0  0  0  0  0  0
   15.2808   -7.0949  -12.7891 O   0  0  0  0  0  0  0  0  0  0  0  0
   12.3094   -7.8711   -7.9896 C   0  0  0  0  0  0  0  0  0  0  0  0
   13.4031   -6.9919   -8.4968 C   0  0  0  0  0  0  0  0  0  0  0  0
   14.3926   -7.7352   -9.3721 C   0  0  2  0  0  0  0  0  0  0  0  0
   15.1581   -8.6921   -8.4898 C   0  0  0  0  0  0  0  0  0  0  0  0
   15.3688   -6.7558   -9.9829 C   0  0  2  0  0  0  0  0  0  0  0  0
   16.3600   -7.4237  -10.7993 N   0  0  0  0  0  0  0  0  0  0  0  0
   16.0681   -6.0474   -8.8958 C   0  0  0  0  0  0  0  0  0  0  0  0
   15.4151   -5.0573   -8.1935 O   0  0  0  0  0  0  0  0  0  0  0  0
   17.2516   -6.3194   -8.5856 O   0  0  0  0  0  0  0  0  0  0  0  0
  2  3  1  0
  2  1  1  6
  4  2  1  0
  5  4  2  0
  7  6  1  6
  7  8  1  0
  8  4  1  0
  9  7  1  0
  9 16  1  0
 10  9  2  0
 12 11  1  0
 12 13  1  0
 13 14  1  1
 15 13  1  0
 15 16  1  1
 15 17  1  0
 17 18  1  0
 19 17  2  0
M  END
$$$$
