AAI.pdb
     RDKit          3D

 19 18  0  0  1  0  0  0  0  0999 V2000
   16.5019  -13.0001  -16.7444 C   0  0  0  0  0  0  0  0  0  0  0  0
   16.6268  -12.0118  -15.6058 C   0  0  2  0  0  0  0  0  0  0  0  0
   15.3077  -11.4823  -15.3272 N   0  0  0  0  0  0  0  0  0  0  0  0
   17.5162  -10.8872  -16.0106 C   0  0  0  0  0  0  0  0  0  0  0  0
   18.7494  -11.0430  -16.2043 O   0  0  0  0  0  0  0  0  0  0  0  0
   16.9121   -7.4321  -17.2237 C   0  0  0  0  0  0  0  0  0  0  0  0
   17.8648   -8.5166  -16.7001 C   0  0  2  0  0  0  0  0  0  0  0  0
   16.9981   -9.5762  -16.1961 N   0  0  0  0  0  0  0  0  0  0  0  0
   18.6304   -7.8798  -15.5997 C   0  0  0  0  0  0  0  0  0  0  0  0
   18.1073   -7.8742  -14.4597 O   0  0  0  0  0  0  0  0  0  0  0  0
   23.1272   -9.4918  -13.8749 C   0  0  0  0  0  0  0  0  0  0  0  0
   21.8400   -8.7425  -13.9651 C   0  0  0  0  0  0  0  0  0  0  0  0
   22.0148   -7.3451  -14.5258 C   0  0  2  0  0  0  0  0  0  0  0  0
   22.8240   -6.5484  -13.5304 C   0  0  0  0  0  0  0  0  0  0  0  0
   20.6632   -6.6872  -14.6857 C   0  0  2  0  0  0  0  0  0  0  0  0
   19.8971   -7.2870  -15.7573 N   0  0  0  0  0  0  0  0  0  0  0  0
   20.8672   -5.2629  -15.0058 C   0  0  0  0  0  0  0  0  0  0  0  0
   20.6925   -4.8208  -16.2997 O   0  0  0  0  0  0  0  0  0  0  0  0
   21.1983   -4.4307  -14.1290 O   0  0  0  0  0  0  0  0  0  0  0  0
  2  3  1  0
  2  1  1  6
  4  2  1  0
  5  4  2  0
  7  6  1  1
  7  8  1  0
  8  4  1  0
  9  7  1  0
  9 16  1  0
 10  9  2  0
 12 11  1  0
 12 13  1  0
 13 14  1  1
 15 13  1  0
 15 16  1  6
 15 17  1  0
 17 18  1  0
 19 17  2  0
M  END
$$$$
