AAI.pdb
     RDKit          3D

 19 18  0  0  1  0  0  0  0  0999 V2000
   18.2482  -32.7894   -2.2465 C   0  0  0  0  0  0  0  0  0  0  0  0
   17.1969  -32.0248   -3.0204 C   0  0  2  0  0  0  0  0  0  0  0  0
   17.6651  -31.8767   -4.3831 N   0  0  0  0  0  0  0  0  0  0  0  0
   17.0210  -30.6697   -2.4268 C   0  0  0  0  0  0  0  0  0  0  0  0
   17.7871  -29.7110   -2.7035 O   0  0  0  0  0  0  0  0  0  0  0  0
   14.3932  -29.0827   -0.3110 C   0  0  0  0  0  0  0  0  0  0  0  0
   15.7566  -29.0481   -1.0167 C   0  0  2  0  0  0  0  0  0  0  0  0
   15.9655  -30.4041   -1.5118 N   0  0  0  0  0  0  0  0  0  0  0  0
   16.7438  -28.7025    0.0363 C   0  0  0  0  0  0  0  0  0  0  0  0
   17.1979  -29.6413    0.7330 O   0  0  0  0  0  0  0  0  0  0  0  0
   21.2023  -26.7579   -1.1983 C   0  0  0  0  0  0  0  0  0  0  0  0
   20.1008  -27.3781   -0.4055 C   0  0  0  0  0  0  0  0  0  0  0  0
   19.4205  -26.3910    0.5222 C   0  0  2  0  0  0  0  0  0  0  0  0
   20.4298  -25.9672    1.5624 C   0  0  0  0  0  0  0  0  0  0  0  0
   18.2610  -27.0639    1.2207 C   0  0  2  0  0  0  0  0  0  0  0  0
   17.1969  -27.3958    0.2974 N   0  0  0  0  0  0  0  0  0  0  0  0
   17.7207  -26.1398    2.2341 C   0  0  0  0  0  0  0  0  0  0  0  0
   18.1383  -26.2407    3.5438 O   0  0  0  0  0  0  0  0  0  0  0  0
   16.8838  -25.2544    1.9397 O   0  0  0  0  0  0  0  0  0  0  0  0
  2  3  1  0
  2  1  1  1
  4  2  1  0
  5  4  2  0
  7  6  1  1
  7  8  1  0
  8  4  1  0
  9  7  1  0
  9 16  1  0
 10  9  2  0
 12 11  1  0
 12 13  1  0
 13 14  1  1
 15 13  1  0
 15 16  1  6
 15 17  1  0
 17 18  1  0
 19 17  2  0
M  END
$$$$
