AAI.pdb
     RDKit          3D

 19 18  0  0  1  0  0  0  0  0999 V2000
   28.0065  -19.1950  -14.7544 C   0  0  0  0  0  0  0  0  0  0  0  0
   28.1517  -20.6034  -14.2211 C   0  0  2  0  0  0  0  0  0  0  0  0
   28.4693  -21.4724  -15.3355 N   0  0  0  0  0  0  0  0  0  0  0  0
   26.8634  -21.0496  -13.6206 C   0  0  0  0  0  0  0  0  0  0  0  0
   25.9635  -21.6070  -14.3001 O   0  0  0  0  0  0  0  0  0  0  0  0
   25.3655  -20.8558  -10.2015 C   0  0  0  0  0  0  0  0  0  0  0  0
   25.3056  -21.2508  -11.6842 C   0  0  2  0  0  0  0  0  0  0  0  0
   26.5978  -20.8599  -12.2366 N   0  0  0  0  0  0  0  0  0  0  0  0
   24.2052  -20.4448  -12.2692 C   0  0  0  0  0  0  0  0  0  0  0  0
   24.3578  -19.2005  -12.3075 O   0  0  0  0  0  0  0  0  0  0  0  0
   22.8801  -20.4853  -17.0505 C   0  0  0  0  0  0  0  0  0  0  0  0
   22.9900  -20.1665  -15.5969 C   0  0  0  0  0  0  0  0  0  0  0  0
   21.7388  -20.5300  -14.8223 C   0  0  2  0  0  0  0  0  0  0  0  0
   20.6076  -19.6816  -15.3522 C   0  0  0  0  0  0  0  0  0  0  0  0
   21.9357  -20.2118  -13.3576 C   0  0  2  0  0  0  0  0  0  0  0  0
   23.0113  -20.9884  -12.7790 N   0  0  0  0  0  0  0  0  0  0  0  0
   20.6928  -20.5346  -12.6340 C   0  0  0  0  0  0  0  0  0  0  0  0
   19.8009  -19.5302  -12.3245 O   0  0  0  0  0  0  0  0  0  0  0  0
   20.4172  -21.7070  -12.2868 O   0  0  0  0  0  0  0  0  0  0  0  0
  2  3  1  0
  2  1  1  6
  4  2  1  0
  5  4  2  0
  7  6  1  1
  7  8  1  0
  8  4  1  0
  9  7  1  0
  9 16  1  0
 10  9  2  0
 12 11  1  0
 12 13  1  0
 13 14  1  6
 15 13  1  0
 15 16  1  1
 15 17  1  0
 17 18  1  0
 19 17  2  0
M  END
$$$$
