AAI.pdb
     RDKit          3D

 19 18  0  0  1  0  0  0  0  0999 V2000
   24.5112  -18.5863  -13.4696 C   0  0  0  0  0  0  0  0  0  0  0  0
   25.9152  -18.7054  -14.0207 C   0  0  2  0  0  0  0  0  0  0  0  0
   25.8210  -18.8258  -15.4611 N   0  0  0  0  0  0  0  0  0  0  0  0
   26.5653  -19.9326  -13.4812 C   0  0  0  0  0  0  0  0  0  0  0  0
   26.1456  -21.0877  -13.7493 O   0  0  0  0  0  0  0  0  0  0  0  0
   29.8165  -20.6751  -11.9270 C   0  0  0  0  0  0  0  0  0  0  0  0
   28.3472  -21.0608  -12.1513 C   0  0  2  0  0  0  0  0  0  0  0  0
   27.7012  -19.8439  -12.6305 N   0  0  0  0  0  0  0  0  0  0  0  0
   27.8286  -21.4550  -10.8177 C   0  0  0  0  0  0  0  0  0  0  0  0
   28.1187  -22.6019  -10.4010 O   0  0  0  0  0  0  0  0  0  0  0  0
   27.3738  -19.8898   -5.1189 C   0  0  0  0  0  0  0  0  0  0  0  0
   26.6979  -20.6005   -6.2434 C   0  0  0  0  0  0  0  0  0  0  0  0
   27.1823  -20.1377   -7.6032 C   0  0  2  0  0  0  0  0  0  0  0  0
   26.7293  -18.7094   -7.7906 C   0  0  0  0  0  0  0  0  0  0  0  0
   26.5557  -20.9885   -8.6842 C   0  0  2  0  0  0  0  0  0  0  0  0
   27.0378  -20.6263  -10.0000 N   0  0  0  0  0  0  0  0  0  0  0  0
   25.0958  -20.7865   -8.6562 C   0  0  0  0  0  0  0  0  0  0  0  0
   24.3544  -21.2977   -7.6127 O   0  0  0  0  0  0  0  0  0  0  0  0
   24.4997  -20.1572   -9.5615 O   0  0  0  0  0  0  0  0  0  0  0  0
  2  3  1  0
  2  1  1  1
  4  2  1  0
  5  4  2  0
  7  6  1  1
  7  8  1  0
  8  4  1  0
  9  7  1  0
  9 16  1  0
 10  9  2  0
 12 11  1  0
 12 13  1  0
 13 14  1  6
 15 13  1  0
 15 16  1  6
 15 17  1  0
 17 18  1  0
 19 17  2  0
M  END
$$$$
