AAI.pdb
     RDKit          3D

 19 18  0  0  1  0  0  0  0  0999 V2000
   14.6679   -9.8903  -15.5955 C   0  0  0  0  0  0  0  0  0  0  0  0
   16.1333  -10.1974  -15.3779 C   0  0  2  0  0  0  0  0  0  0  0  0
   16.2515  -11.6044  -15.0545 N   0  0  0  0  0  0  0  0  0  0  0  0
   16.6499   -9.3995  -14.2307 C   0  0  0  0  0  0  0  0  0  0  0  0
   16.4362   -9.7268  -13.0350 O   0  0  0  0  0  0  0  0  0  0  0  0
   18.9204   -6.4616  -13.8983 C   0  0  0  0  0  0  0  0  0  0  0  0
   17.9141   -7.4593  -13.3066 C   0  0  2  0  0  0  0  0  0  0  0  0
   17.4153   -8.2207  -14.4464 N   0  0  0  0  0  0  0  0  0  0  0  0
   16.8402   -6.6331  -12.7008 C   0  0  0  0  0  0  0  0  0  0  0  0
   15.8741   -6.3134  -13.4340 O   0  0  0  0  0  0  0  0  0  0  0  0
   15.3806   -7.3938   -7.5002 C   0  0  0  0  0  0  0  0  0  0  0  0
   15.2419   -7.0409   -8.9434 C   0  0  0  0  0  0  0  0  0  0  0  0
   15.7289   -5.6391   -9.2521 C   0  0  2  0  0  0  0  0  0  0  0  0
   14.7363   -4.6670   -8.6604 C   0  0  0  0  0  0  0  0  0  0  0  0
   15.7728   -5.4328  -10.7490 C   0  0  2  0  0  0  0  0  0  0  0  0
   16.8411   -6.1909  -11.3647 N   0  0  0  0  0  0  0  0  0  0  0  0
   16.0058   -4.0030  -11.0211 C   0  0  0  0  0  0  0  0  0  0  0  0
   17.2923   -3.5082  -11.0254 O   0  0  0  0  0  0  0  0  0  0  0  0
   15.0605   -3.2129  -11.2516 O   0  0  0  0  0  0  0  0  0  0  0  0
  2  3  1  0
  2  1  1  1
  4  2  1  0
  5  4  2  0
  7  6  1  6
  7  8  1  0
  8  4  1  0
  9  7  1  0
  9 16  1  0
 10  9  2  0
 12 11  1  0
 12 13  1  0
 13 14  1  1
 15 13  1  0
 15 16  1  1
 15 17  1  0
 17 18  1  0
 19 17  2  0
M  END
$$$$
