AAI.pdb
     RDKit          3D

 19 18  0  0  1  0  0  0  0  0999 V2000
   15.1927  -12.3843  -15.5360 C   0  0  0  0  0  0  0  0  0  0  0  0
   15.3967  -11.9607  -16.9740 C   0  0  2  0  0  0  0  0  0  0  0  0
   15.6617  -13.1503  -17.7567 N   0  0  0  0  0  0  0  0  0  0  0  0
   16.5755  -11.0547  -17.0695 C   0  0  0  0  0  0  0  0  0  0  0  0
   17.7570  -11.4809  -17.0004 O   0  0  0  0  0  0  0  0  0  0  0  0
   17.0070   -7.4013  -17.7230 C   0  0  0  0  0  0  0  0  0  0  0  0
   17.5742   -8.8026  -17.4532 C   0  0  2  0  0  0  0  0  0  0  0  0
   16.4080   -9.6536  -17.2450 N   0  0  0  0  0  0  0  0  0  0  0  0
   18.3766   -8.6774  -16.2109 C   0  0  0  0  0  0  0  0  0  0  0  0
   17.7799   -8.8366  -15.1192 O   0  0  0  0  0  0  0  0  0  0  0  0
   23.3686  -10.5833  -13.6049 C   0  0  0  0  0  0  0  0  0  0  0  0
   22.4536   -9.4143  -13.7560 C   0  0  0  0  0  0  0  0  0  0  0  0
   21.5712   -9.5172  -14.9842 C   0  0  2  0  0  0  0  0  0  0  0  0
   22.4575   -9.3820  -16.1993 C   0  0  0  0  0  0  0  0  0  0  0  0
   20.5699   -8.3847  -14.9888 C   0  0  2  0  0  0  0  0  0  0  0  0
   19.7548   -8.3932  -16.1848 N   0  0  0  0  0  0  0  0  0  0  0  0
   21.3031   -7.1070  -14.9395 C   0  0  0  0  0  0  0  0  0  0  0  0
   21.3753   -6.3158  -16.0659 O   0  0  0  0  0  0  0  0  0  0  0  0
   21.8700   -6.7119  -13.8938 O   0  0  0  0  0  0  0  0  0  0  0  0
  2  3  1  0
  2  1  1  1
  4  2  1  0
  5  4  2  0
  7  6  1  1
  7  8  1  0
  8  4  1  0
  9  7  1  0
  9 16  1  0
 10  9  2  0
 12 11  1  0
 12 13  1  0
 13 14  1  6
 15 13  1  0
 15 16  1  6
 15 17  1  0
 17 18  1  0
 19 17  2  0
M  END
$$$$
