AAI.pdb
     RDKit          3D

 19 18  0  0  1  0  0  0  0  0999 V2000
   28.8665  -18.4469  -14.5861 C   0  0  0  0  0  0  0  0  0  0  0  0
   27.5727  -18.6846  -15.3334 C   0  0  2  0  0  0  0  0  0  0  0  0
   27.1480  -17.4227  -15.9038 N   0  0  0  0  0  0  0  0  0  0  0  0
   26.5238  -19.1567  -14.3866 C   0  0  0  0  0  0  0  0  0  0  0  0
   25.9147  -18.3727  -13.6141 O   0  0  0  0  0  0  0  0  0  0  0  0
   24.7156  -22.3574  -13.8478 C   0  0  0  0  0  0  0  0  0  0  0  0
   25.1667  -20.9753  -13.3533 C   0  0  2  0  0  0  0  0  0  0  0  0
   26.1660  -20.5312  -14.3186 N   0  0  0  0  0  0  0  0  0  0  0  0
   25.7740  -21.2060  -12.0189 C   0  0  0  0  0  0  0  0  0  0  0  0
   26.8594  -21.8333  -11.9787 O   0  0  0  0  0  0  0  0  0  0  0  0
   27.9196  -19.2532   -6.9485 C   0  0  0  0  0  0  0  0  0  0  0  0
   27.0525  -20.3098   -7.5470 C   0  0  0  0  0  0  0  0  0  0  0  0
   26.5807  -19.9574   -8.9438 C   0  0  2  0  0  0  0  0  0  0  0  0
   25.7268  -18.7163   -8.8409 C   0  0  0  0  0  0  0  0  0  0  0  0
   25.7335  -21.0818   -9.4945 C   0  0  2  0  0  0  0  0  0  0  0  0
   25.2099  -20.7669  -10.8066 N   0  0  0  0  0  0  0  0  0  0  0  0
   24.5952  -21.3035   -8.5846 C   0  0  0  0  0  0  0  0  0  0  0  0
   23.3240  -20.9459   -8.9798 O   0  0  0  0  0  0  0  0  0  0  0  0
   24.7476  -21.8127   -7.4495 O   0  0  0  0  0  0  0  0  0  0  0  0
  2  3  1  0
  2  1  1  1
  4  2  1  0
  5  4  2  0
  7  6  1  6
  7  8  1  0
  8  4  1  0
  9  7  1  0
  9 16  1  0
 10  9  2  0
 12 11  1  0
 12 13  1  0
 13 14  1  1
 15 13  1  0
 15 16  1  6
 15 17  1  0
 17 18  1  0
 19 17  2  0
M  END
$$$$
