AAI.pdb
     RDKit          3D

 19 18  0  0  1  0  0  0  0  0999 V2000
   15.7739  -11.9233  -14.5118 C   0  0  0  0  0  0  0  0  0  0  0  0
   16.0773  -12.0267  -15.9903 C   0  0  2  0  0  0  0  0  0  0  0  0
   16.5135  -13.3807  -16.2632 N   0  0  0  0  0  0  0  0  0  0  0  0
   17.1802  -11.0899  -16.3447 C   0  0  0  0  0  0  0  0  0  0  0  0
   18.3889  -11.3635  -16.1282 O   0  0  0  0  0  0  0  0  0  0  0  0
   17.3615   -7.8240  -18.1399 C   0  0  0  0  0  0  0  0  0  0  0  0
   18.0037   -8.9413  -17.3049 C   0  0  2  0  0  0  0  0  0  0  0  0
   16.9053   -9.8329  -16.9497 N   0  0  0  0  0  0  0  0  0  0  0  0
   18.5629   -8.2726  -16.1038 C   0  0  0  0  0  0  0  0  0  0  0  0
   17.8010   -8.1224  -15.1188 O   0  0  0  0  0  0  0  0  0  0  0  0
   23.2387   -9.7001  -14.1482 C   0  0  0  0  0  0  0  0  0  0  0  0
   21.8679   -9.1115  -14.1817 C   0  0  0  0  0  0  0  0  0  0  0  0
   21.8695   -7.6476  -14.5750 C   0  0  2  0  0  0  0  0  0  0  0  0
   22.4370   -6.8613  -13.4174 C   0  0  0  0  0  0  0  0  0  0  0  0
   20.4520   -7.1850  -14.8238 C   0  0  2  0  0  0  0  0  0  0  0  0
   19.8853   -7.8012  -16.0046 N   0  0  0  0  0  0  0  0  0  0  0  0
   20.4611   -5.7248  -15.0249 C   0  0  0  0  0  0  0  0  0  0  0  0
   20.6334   -5.2098  -16.2917 O   0  0  0  0  0  0  0  0  0  0  0  0
   20.3156   -4.9267  -14.0695 O   0  0  0  0  0  0  0  0  0  0  0  0
  2  3  1  0
  2  1  1  1
  4  2  1  0
  5  4  2  0
  7  6  1  6
  7  8  1  0
  8  4  1  0
  9  7  1  0
  9 16  1  0
 10  9  2  0
 12 11  1  0
 12 13  1  0
 13 14  1  1
 15 13  1  0
 15 16  1  6
 15 17  1  0
 17 18  1  0
 19 17  2  0
M  END
$$$$
