AAI.pdb
     RDKit          3D

 19 18  0  0  1  0  0  0  0  0999 V2000
   20.6920  -19.4389  -10.2309 C   0  0  0  0  0  0  0  0  0  0  0  0
   19.9877  -20.1706  -11.3522 C   0  0  2  0  0  0  0  0  0  0  0  0
   19.3437  -21.3389  -10.7879 N   0  0  0  0  0  0  0  0  0  0  0  0
   20.9843  -20.6182  -12.3652 C   0  0  0  0  0  0  0  0  0  0  0  0
   21.7138  -21.6277  -12.1888 O   0  0  0  0  0  0  0  0  0  0  0  0
   21.7548  -19.6973  -15.8791 C   0  0  0  0  0  0  0  0  0  0  0  0
   22.1583  -20.3487  -14.5483 C   0  0  2  0  0  0  0  0  0  0  0  0
   21.1515  -19.9114  -13.5877 N   0  0  0  0  0  0  0  0  0  0  0  0
   23.4936  -19.7913  -14.2183 C   0  0  0  0  0  0  0  0  0  0  0  0
   23.5356  -18.6240  -13.7615 O   0  0  0  0  0  0  0  0  0  0  0  0
   26.4864  -21.2338  -10.4991 C   0  0  0  0  0  0  0  0  0  0  0  0
   25.9024  -20.4921  -11.6546 C   0  0  0  0  0  0  0  0  0  0  0  0
   26.6714  -20.7152  -12.9417 C   0  0  2  0  0  0  0  0  0  0  0  0
   28.0662  -20.1715  -12.7437 C   0  0  0  0  0  0  0  0  0  0  0  0
   26.0118  -19.9531  -14.0683 C   0  0  2  0  0  0  0  0  0  0  0  0
   24.7049  -20.4881  -14.3859 N   0  0  0  0  0  0  0  0  0  0  0  0
   26.8588  -20.0611  -15.2698 C   0  0  0  0  0  0  0  0  0  0  0  0
   27.6090  -18.9790  -15.6775 O   0  0  0  0  0  0  0  0  0  0  0  0
   26.9198  -21.1180  -15.9408 O   0  0  0  0  0  0  0  0  0  0  0  0
  2  3  1  0
  2  1  1  1
  4  2  1  0
  5  4  2  0
  7  6  1  6
  7  8  1  0
  8  4  1  0
  9  7  1  0
  9 16  1  0
 10  9  2  0
 12 11  1  0
 12 13  1  0
 13 14  1  1
 15 13  1  0
 15 16  1  6
 15 17  1  0
 17 18  1  0
 19 17  2  0
M  END
$$$$
