RST.pdb
     RDKit          3D

 25 24  0  0  1  0  0  0  0  0999 V2000
    8.2629  -13.1654   17.5082 N   0  0  0  0  0  0  0  0  0  0  0  0
    8.9216  -12.9858   18.7661 C   0  0  0  0  0  0  0  0  0  0  0  0
    9.6632  -11.9619   18.8932 N   0  0  0  0  0  0  0  0  0  0  0  0
    8.7613  -13.8969   19.8197 N   0  0  0  0  0  0  0  0  0  0  0  0
    7.6065  -14.8151   19.8405 C   0  0  0  0  0  0  0  0  0  0  0  0
    6.7932  -14.4601   21.0325 C   0  0  0  0  0  0  0  0  0  0  0  0
    6.2577  -15.5767   21.8495 C   0  0  0  0  0  0  0  0  0  0  0  0
    7.1234  -16.7967   21.9266 C   0  0  2  0  0  0  0  0  0  0  0  0
    6.4736  -17.9860   21.3917 N   0  0  0  0  0  0  0  0  0  0  0  0
    7.5386  -17.0640   23.3461 C   0  0  0  0  0  0  0  0  0  0  0  0
    6.6646  -17.1752   24.2393 O   0  0  0  0  0  0  0  0  0  0  0  0
   10.1689  -11.6637   19.7437 O   0  0  0  0  0  0  0  0  0  0  0  0
   11.4679  -18.0442   24.3848 C   0  0  0  0  0  0  0  0  0  0  0  0
   10.4009  -18.4822   25.1294 C   0  0  1  0  0  0  0  0  0  0  0  0
    9.2229  -17.4936   25.0934 N   0  0  0  0  0  0  0  0  0  0  0  0
    8.8990  -17.1965   23.7128 C   0  0  0  0  0  0  0  0  0  0  0  0
    9.6903  -16.2770   25.8048 O   0  0  0  0  0  0  0  0  0  0  0  0
   10.3103  -15.4140   25.1350 C   0  0  0  0  0  0  0  0  0  0  0  0
    8.5640  -13.0227   26.9302 C   0  0  2  0  0  0  0  0  0  0  0  0
    9.0653  -13.7571   28.1283 O   0  0  0  0  0  0  0  0  0  0  0  0
    7.9178  -14.3381   28.7093 C   0  0  2  0  0  0  0  0  0  0  0  0
   10.0159  -14.8523   27.8550 N   0  0  0  0  0  0  0  0  0  0  0  0
    9.5044  -15.9953   27.1640 C   0  0  0  0  0  0  0  0  0  0  0  0
   10.6902  -15.2863   29.0954 O   0  0  0  0  0  0  0  0  0  0  0  0
   11.3749  -14.4348   29.9520 O   0  0  0  0  0  0  0  0  0  0  0  0
  2  1  1  0
  3  2  2  0
  4  2  1  0
  5  4  1  0
  6  5  1  0
  6  7  1  0
  7  8  1  0
  8 10  1  0
  8  9  1  1
 10 15  1  0
 11 10  2  0
 13 12  1  0
 14 13  1  6
 15 14  1  0
 16 17  2  0
 16 14  1  0
 19 18  1  1
 19 21  1  0
 20 19  1  0
 21 22  1  1
 22 16  1  0
 23 21  1  0
 23 24  1  0
 25 23  2  0
M  END
$$$$
