RST.pdb
     RDKit          3D

 25 24  0  0  1  0  0  0  0  0999 V2000
    3.1180  -18.7895   19.6224 N   0  0  0  0  0  0  0  0  0  0  0  0
    3.5927  -19.8777   20.4218 C   0  0  0  0  0  0  0  0  0  0  0  0
    2.7304  -20.7132   20.8376 N   0  0  0  0  0  0  0  0  0  0  0  0
    4.9509  -20.0232   20.7383 N   0  0  0  0  0  0  0  0  0  0  0  0
    5.9638  -20.0720   19.6666 C   0  0  0  0  0  0  0  0  0  0  0  0
    6.5492  -18.7101   19.5625 C   0  0  0  0  0  0  0  0  0  0  0  0
    7.5496  -18.3182   20.5855 C   0  0  0  0  0  0  0  0  0  0  0  0
    8.0639  -16.9149   20.4852 C   0  0  2  0  0  0  0  0  0  0  0  0
    8.9545  -16.7189   19.3488 N   0  0  0  0  0  0  0  0  0  0  0  0
    8.7851  -16.5226   21.7440 C   0  0  0  0  0  0  0  0  0  0  0  0
   10.0378  -16.5786   21.7863 O   0  0  0  0  0  0  0  0  0  0  0  0
    2.9051  -21.5431   21.4282 O   0  0  0  0  0  0  0  0  0  0  0  0
    6.7976  -15.0087   25.1064 C   0  0  0  0  0  0  0  0  0  0  0  0
    8.1277  -14.7283   24.9142 C   0  0  1  0  0  0  0  0  0  0  0  0
    8.8419  -15.8263   24.1075 N   0  0  0  0  0  0  0  0  0  0  0  0
    8.0898  -16.0865   22.8968 C   0  0  0  0  0  0  0  0  0  0  0  0
    8.8695  -17.0236   24.9853 O   0  0  0  0  0  0  0  0  0  0  0  0
    7.8063  -17.6816   25.1046 C   0  0  0  0  0  0  0  0  0  0  0  0
    9.9355  -20.3563   24.5873 C   0  0  2  0  0  0  0  0  0  0  0  0
   10.6156  -19.8849   25.8286 O   0  0  0  0  0  0  0  0  0  0  0  0
   11.9179  -19.5259   25.4200 C   0  0  2  0  0  0  0  0  0  0  0  0
   10.0196  -18.6982   26.4726 N   0  0  0  0  0  0  0  0  0  0  0  0
    9.9778  -17.4956   25.6997 C   0  0  0  0  0  0  0  0  0  0  0  0
   10.6627  -18.4265   27.7742 O   0  0  0  0  0  0  0  0  0  0  0  0
   10.7015  -19.3270   28.8301 O   0  0  0  0  0  0  0  0  0  0  0  0
  2  1  1  0
  3  2  2  0
  4  2  1  0
  5  4  1  0
  6  5  1  0
  6  7  1  0
  7  8  1  0
  8 10  1  0
  8  9  1  6
 10 15  1  0
 11 10  2  0
 13 12  1  0
 14 13  1  6
 15 14  1  0
 16 17  2  0
 16 14  1  0
 19 18  1  1
 19 21  1  0
 20 19  1  0
 21 22  1  1
 22 16  1  0
 23 21  1  0
 23 24  1  0
 25 23  2  0
M  END
$$$$
