RST.pdb
     RDKit          3D

 25 24  0  0  1  0  0  0  0  0999 V2000
    8.1018  -12.6007   15.0044 N   0  0  0  0  0  0  0  0  0  0  0  0
    8.5605  -13.9550   15.0670 C   0  0  0  0  0  0  0  0  0  0  0  0
    8.9789  -14.4778   13.9871 N   0  0  0  0  0  0  0  0  0  0  0  0
    8.5517  -14.6823   16.2657 N   0  0  0  0  0  0  0  0  0  0  0  0
    7.4601  -14.4968   17.2409 C   0  0  0  0  0  0  0  0  0  0  0  0
    7.9481  -13.5286   18.2573 C   0  0  0  0  0  0  0  0  0  0  0  0
    8.8050  -14.0579   19.3466 C   0  0  0  0  0  0  0  0  0  0  0  0
    8.1290  -14.9829   20.3117 C   0  0  2  0  0  0  0  0  0  0  0  0
    6.6907  -14.7643   20.3916 N   0  0  0  0  0  0  0  0  0  0  0  0
    8.7212  -14.8416   21.6858 C   0  0  0  0  0  0  0  0  0  0  0  0
    9.9678  -14.8248   21.8271 O   0  0  0  0  0  0  0  0  0  0  0  0
    9.2689  -15.4594   13.8446 O   0  0  0  0  0  0  0  0  0  0  0  0
    6.3668  -14.5743   25.1731 C   0  0  0  0  0  0  0  0  0  0  0  0
    7.5916  -13.9560   25.1247 C   0  0  1  0  0  0  0  0  0  0  0  0
    8.5499  -14.6424   24.1364 N   0  0  0  0  0  0  0  0  0  0  0  0
    7.9097  -14.7251   22.8392 C   0  0  0  0  0  0  0  0  0  0  0  0
    8.8064  -15.9957   24.6912 O   0  0  0  0  0  0  0  0  0  0  0  0
    7.9578  -16.8912   24.4551 C   0  0  0  0  0  0  0  0  0  0  0  0
   10.8905  -18.8135   23.8987 C   0  0  2  0  0  0  0  0  0  0  0  0
   11.1508  -18.5165   25.3374 O   0  0  0  0  0  0  0  0  0  0  0  0
   12.3655  -17.7980   25.3500 C   0  0  2  0  0  0  0  0  0  0  0  0
   10.1413  -17.6751   26.0090 N   0  0  0  0  0  0  0  0  0  0  0  0
    9.9145  -16.3743   25.4595 C   0  0  0  0  0  0  0  0  0  0  0  0
   10.4298  -17.5576   27.4528 O   0  0  0  0  0  0  0  0  0  0  0  0
   10.5243  -18.6364   28.3215 O   0  0  0  0  0  0  0  0  0  0  0  0
  2  1  1  0
  3  2  2  0
  4  2  1  0
  5  4  1  0
  6  5  1  0
  6  7  1  0
  7  8  1  0
  8 10  1  0
  8  9  1  1
 10 15  1  0
 11 10  2  0
 13 12  1  0
 14 13  1  6
 15 14  1  0
 16 17  2  0
 16 14  1  0
 19 18  1  1
 19 21  1  0
 20 19  1  0
 21 22  1  1
 22 16  1  0
 23 21  1  0
 23 24  1  0
 25 23  2  0
M  END
$$$$
