RST.pdb
     RDKit          3D

 25 24  0  0  1  0  0  0  0  0999 V2000
    1.7195  -24.9435   20.9095 N   0  0  0  0  0  0  0  0  0  0  0  0
    1.6913  -24.5267   22.2785 C   0  0  0  0  0  0  0  0  0  0  0  0
    2.1695  -25.3284   23.1404 N   0  0  0  0  0  0  0  0  0  0  0  0
    1.1595  -23.2871   22.6615 N   0  0  0  0  0  0  0  0  0  0  0  0
    0.5851  -22.3790   21.6503 C   0  0  0  0  0  0  0  0  0  0  0  0
   -0.4825  -21.5978   22.3272 C   0  0  0  0  0  0  0  0  0  0  0  0
   -1.5800  -22.3599   22.9721 C   0  0  0  0  0  0  0  0  0  0  0  0
   -2.5837  -21.5404   23.7236 C   0  0  2  0  0  0  0  0  0  0  0  0
   -1.9687  -20.5015   24.5393 N   0  0  0  0  0  0  0  0  0  0  0  0
   -3.4305  -22.4154   24.6046 C   0  0  0  0  0  0  0  0  0  0  0  0
   -4.0984  -23.3484   24.0970 O   0  0  0  0  0  0  0  0  0  0  0  0
    2.2596  -25.1652   24.1569 O   0  0  0  0  0  0  0  0  0  0  0  0
   -2.7617  -22.7798   28.6364 C   0  0  0  0  0  0  0  0  0  0  0  0
   -3.4009  -23.7440   27.8971 C   0  0  1  0  0  0  0  0  0  0  0  0
   -4.2908  -23.1383   26.7981 N   0  0  0  0  0  0  0  0  0  0  0  0
   -3.5000  -22.2196   26.0044 C   0  0  0  0  0  0  0  0  0  0  0  0
   -5.3842  -22.4258   27.5063 O   0  0  0  0  0  0  0  0  0  0  0  0
   -5.1967  -21.2191   27.8006 C   0  0  0  0  0  0  0  0  0  0  0  0
   -9.3169  -22.5086   26.5420 C   0  0  2  0  0  0  0  0  0  0  0  0
   -9.0655  -22.6250   28.0079 O   0  0  0  0  0  0  0  0  0  0  0  0
   -9.2378  -23.9946   28.3023 C   0  0  2  0  0  0  0  0  0  0  0  0
   -7.7097  -22.2516   28.4555 N   0  0  0  0  0  0  0  0  0  0  0  0
   -6.6172  -22.9741   27.8810 C   0  0  0  0  0  0  0  0  0  0  0  0
   -7.6104  -22.2956   29.9285 O   0  0  0  0  0  0  0  0  0  0  0  0
   -8.3596  -21.5020   30.7866 O   0  0  0  0  0  0  0  0  0  0  0  0
  2  1  1  0
  3  2  2  0
  4  2  1  0
  5  4  1  0
  6  5  1  0
  6  7  1  0
  7  8  1  0
  8 10  1  0
  8  9  1  1
 10 15  1  0
 11 10  2  0
 13 12  1  0
 14 13  1  6
 15 14  1  0
 16 17  2  0
 16 14  1  0
 19 18  1  1
 19 21  1  0
 20 19  1  0
 21 22  1  1
 22 16  1  0
 23 21  1  0
 23 24  1  0
 25 23  2  0
M  END
$$$$
