RST.pdb
     RDKit          3D

 25 24  0  0  1  0  0  0  0  0999 V2000
   16.1176  -13.7267   19.0164 N   0  0  0  0  0  0  0  0  0  0  0  0
   16.0619  -13.6699   17.5873 C   0  0  0  0  0  0  0  0  0  0  0  0
   16.8154  -12.8260   17.0090 N   0  0  0  0  0  0  0  0  0  0  0  0
   15.2136  -14.5067   16.8482 N   0  0  0  0  0  0  0  0  0  0  0  0
   14.4283  -15.5562   17.5256 C   0  0  0  0  0  0  0  0  0  0  0  0
   13.1822  -14.9137   18.0184 C   0  0  0  0  0  0  0  0  0  0  0  0
   12.1982  -15.7792   18.7140 C   0  0  0  0  0  0  0  0  0  0  0  0
   10.9056  -15.1208   19.0873 C   0  0  2  0  0  0  0  0  0  0  0  0
   10.9186  -13.6813   18.8624 N   0  0  0  0  0  0  0  0  0  0  0  0
   10.5711  -15.3867   20.5282 C   0  0  0  0  0  0  0  0  0  0  0  0
   10.9760  -14.5986   21.4164 O   0  0  0  0  0  0  0  0  0  0  0  0
   16.8668  -12.6325   15.9951 O   0  0  0  0  0  0  0  0  0  0  0  0
    7.7905  -18.2396   21.6372 C   0  0  0  0  0  0  0  0  0  0  0  0
    8.0792  -17.2021   22.4887 C   0  0  1  0  0  0  0  0  0  0  0  0
    9.5264  -16.7055   22.3292 N   0  0  0  0  0  0  0  0  0  0  0  0
    9.8050  -16.5099   20.9208 C   0  0  0  0  0  0  0  0  0  0  0  0
   10.3880  -17.7718   22.8997 O   0  0  0  0  0  0  0  0  0  0  0  0
   10.9103  -18.5874   22.0999 C   0  0  0  0  0  0  0  0  0  0  0  0
   13.5615  -19.7338   26.0049 C   0  0  2  0  0  0  0  0  0  0  0  0
   12.7911  -18.6315   25.3591 O   0  0  0  0  0  0  0  0  0  0  0  0
   13.5944  -18.2058   24.2795 C   0  0  1  0  0  0  0  0  0  0  0  0
   11.4786  -19.0109   24.8009 N   0  0  0  0  0  0  0  0  0  0  0  0
   10.6782  -17.9576   24.2572 C   0  0  0  0  0  0  0  0  0  0  0  0
   10.6871  -19.7734   25.7876 O   0  0  0  0  0  0  0  0  0  0  0  0
   11.0583  -21.0088   26.3008 O   0  0  0  0  0  0  0  0  0  0  0  0
  2  1  1  0
  3  2  2  0
  4  2  1  0
  5  4  1  0
  6  5  1  0
  6  7  1  0
  7  8  1  0
  8 10  1  0
  8  9  1  1
 10 15  1  0
 11 10  2  0
 13 12  1  0
 14 13  1  1
 15 14  1  0
 16 17  2  0
 16 14  1  0
 19 18  1  1
 19 21  1  0
 20 19  1  0
 21 22  1  1
 22 16  1  0
 23 21  1  0
 23 24  1  0
 25 23  2  0
M  END
$$$$
