RST.pdb
     RDKit          3D

 25 24  0  0  1  0  0  0  0  0999 V2000
    7.1825  -12.9484   17.8267 N   0  0  0  0  0  0  0  0  0  0  0  0
    7.7106  -13.5568   16.6437 C   0  0  0  0  0  0  0  0  0  0  0  0
    7.5425  -12.9380   15.5468 N   0  0  0  0  0  0  0  0  0  0  0  0
    8.3864  -14.7847   16.6843 N   0  0  0  0  0  0  0  0  0  0  0  0
    8.9668  -15.2735   17.9497 C   0  0  0  0  0  0  0  0  0  0  0  0
    8.5449  -14.3256   19.0136 C   0  0  0  0  0  0  0  0  0  0  0  0
    9.0215  -14.5929   20.3929 C   0  0  0  0  0  0  0  0  0  0  0  0
    9.0478  -16.0338   20.8017 C   0  0  2  0  0  0  0  0  0  0  0  0
    8.1140  -16.8544   20.0418 N   0  0  0  0  0  0  0  0  0  0  0  0
    8.7422  -16.1756   22.2664 C   0  0  0  0  0  0  0  0  0  0  0  0
    7.6463  -15.7619   22.7160 O   0  0  0  0  0  0  0  0  0  0  0  0
    7.8471  -13.2451   14.6082 O   0  0  0  0  0  0  0  0  0  0  0  0
   10.8105  -18.8232   24.7918 C   0  0  0  0  0  0  0  0  0  0  0  0
    9.4854  -18.4770   24.8873 C   0  0  1  0  0  0  0  0  0  0  0  0
    9.2444  -16.9993   24.5343 N   0  0  0  0  0  0  0  0  0  0  0  0
    9.6603  -16.7677   23.1658 C   0  0  0  0  0  0  0  0  0  0  0  0
   10.0732  -16.2136   25.4833 O   0  0  0  0  0  0  0  0  0  0  0  0
   11.1936  -15.8119   25.0819 C   0  0  0  0  0  0  0  0  0  0  0  0
    9.7990  -12.8000   27.1198 C   0  0  2  0  0  0  0  0  0  0  0  0
   10.0001  -13.8351   28.1752 O   0  0  0  0  0  0  0  0  0  0  0  0
    8.7122  -14.0821   28.6972 C   0  0  2  0  0  0  0  0  0  0  0  0
   10.5350  -15.1287   27.7079 N   0  0  0  0  0  0  0  0  0  0  0  0
    9.7227  -15.8728   26.7957 C   0  0  0  0  0  0  0  0  0  0  0  0
   10.9086  -15.9877   28.8500 O   0  0  0  0  0  0  0  0  0  0  0  0
   11.7909  -15.6129   29.8542 O   0  0  0  0  0  0  0  0  0  0  0  0
  2  1  1  0
  3  2  2  0
  4  2  1  0
  5  4  1  0
  6  5  1  0
  6  7  1  0
  7  8  1  0
  8 10  1  0
  8  9  1  6
 10 15  1  0
 11 10  2  0
 13 12  1  0
 14 13  1  6
 15 14  1  0
 16 17  2  0
 16 14  1  0
 19 18  1  1
 19 21  1  0
 20 19  1  0
 21 22  1  1
 22 16  1  0
 23 21  1  0
 23 24  1  0
 25 23  2  0
M  END
$$$$
