RST.pdb
     RDKit          3D

 25 24  0  0  1  0  0  0  0  0999 V2000
    7.8226  -13.2045   16.2154 N   0  0  0  0  0  0  0  0  0  0  0  0
    8.5191  -14.3760   16.6524 C   0  0  0  0  0  0  0  0  0  0  0  0
    8.4302  -15.4119   15.9220 N   0  0  0  0  0  0  0  0  0  0  0  0
    9.2703  -14.3892   17.8363 N   0  0  0  0  0  0  0  0  0  0  0  0
    9.0217  -13.3834   18.8869 C   0  0  0  0  0  0  0  0  0  0  0  0
    7.6152  -13.5618   19.3321 C   0  0  0  0  0  0  0  0  0  0  0  0
    7.3953  -14.1398   20.6807 C   0  0  0  0  0  0  0  0  0  0  0  0
    7.8333  -15.5616   20.8558 C   0  0  2  0  0  0  0  0  0  0  0  0
    6.9173  -16.5150   20.2435 N   0  0  0  0  0  0  0  0  0  0  0  0
    7.9826  -15.8952   22.3136 C   0  0  0  0  0  0  0  0  0  0  0  0
    6.9665  -15.9430   23.0480 O   0  0  0  0  0  0  0  0  0  0  0  0
    8.9150  -16.3136   16.0625 O   0  0  0  0  0  0  0  0  0  0  0  0
   11.6516  -17.1788   23.9661 C   0  0  0  0  0  0  0  0  0  0  0  0
   10.4423  -17.7200   24.3257 C   0  0  1  0  0  0  0  0  0  0  0  0
    9.2984  -16.6952   24.2379 N   0  0  0  0  0  0  0  0  0  0  0  0
    9.2464  -16.1609   22.8921 C   0  0  0  0  0  0  0  0  0  0  0  0
    9.6277  -15.6322   25.2209 O   0  0  0  0  0  0  0  0  0  0  0  0
   10.3677  -14.6931   24.8356 C   0  0  0  0  0  0  0  0  0  0  0  0
    7.8320  -12.7821   26.8244 C   0  0  2  0  0  0  0  0  0  0  0  0
    8.3943  -13.6539   27.8966 O   0  0  0  0  0  0  0  0  0  0  0  0
    7.3240  -14.4839   28.2937 C   0  0  2  0  0  0  0  0  0  0  0  0
    9.5013  -14.5392   27.4855 N   0  0  0  0  0  0  0  0  0  0  0  0
    9.1881  -15.5741   26.5493 C   0  0  0  0  0  0  0  0  0  0  0  0
   10.1721  -15.1255   28.6635 O   0  0  0  0  0  0  0  0  0  0  0  0
   10.7590  -14.3829   29.6792 O   0  0  0  0  0  0  0  0  0  0  0  0
  2  1  1  0
  3  2  2  0
  4  2  1  0
  5  4  1  0
  6  5  1  0
  6  7  1  0
  7  8  1  0
  8 10  1  0
  8  9  1  1
 10 15  1  0
 11 10  2  0
 13 12  1  0
 14 13  1  6
 15 14  1  0
 16 17  2  0
 16 14  1  0
 19 18  1  1
 19 21  1  0
 20 19  1  0
 21 22  1  1
 22 16  1  0
 23 21  1  0
 23 24  1  0
 25 23  2  0
M  END
$$$$
