RST.pdb
     RDKit          3D

 25 24  0  0  1  0  0  0  0  0999 V2000
    8.3086  -12.5048   17.7825 N   0  0  0  0  0  0  0  0  0  0  0  0
    8.0044  -13.5066   16.8066 C   0  0  0  0  0  0  0  0  0  0  0  0
    7.8678  -13.1233   15.6029 N   0  0  0  0  0  0  0  0  0  0  0  0
    7.8608  -14.8570   17.1555 N   0  0  0  0  0  0  0  0  0  0  0  0
    8.5647  -15.4006   18.3328 C   0  0  0  0  0  0  0  0  0  0  0  0
    8.4817  -14.3699   19.4002 C   0  0  0  0  0  0  0  0  0  0  0  0
    7.8086  -14.7520   20.6659 C   0  0  0  0  0  0  0  0  0  0  0  0
    8.1902  -16.0882   21.2252 C   0  0  2  0  0  0  0  0  0  0  0  0
    7.1505  -17.0933   21.0476 N   0  0  0  0  0  0  0  0  0  0  0  0
    8.5174  -15.9775   22.6879 C   0  0  0  0  0  0  0  0  0  0  0  0
    9.4307  -15.2039   23.0641 O   0  0  0  0  0  0  0  0  0  0  0  0
    7.7001  -13.7210   14.7766 O   0  0  0  0  0  0  0  0  0  0  0  0
    6.0391  -17.3639   25.7327 C   0  0  0  0  0  0  0  0  0  0  0  0
    6.9938  -16.3973   25.9301 C   0  0  1  0  0  0  0  0  0  0  0  0
    8.2361  -16.6198   25.0506 N   0  0  0  0  0  0  0  0  0  0  0  0
    7.8209  -16.7257   23.6665 C   0  0  0  0  0  0  0  0  0  0  0  0
    8.8469  -17.8884   25.5222 O   0  0  0  0  0  0  0  0  0  0  0  0
    8.3850  -18.9622   25.0625 C   0  0  0  0  0  0  0  0  0  0  0  0
   11.6920  -19.8097   24.7570 C   0  0  2  0  0  0  0  0  0  0  0  0
   11.7481  -19.6401   26.2382 O   0  0  0  0  0  0  0  0  0  0  0  0
   12.6793  -18.6017   26.4538 C   0  0  2  0  0  0  0  0  0  0  0  0
   10.4849  -19.2317   26.8829 N   0  0  0  0  0  0  0  0  0  0  0  0
    9.8994  -18.0047   26.4388 C   0  0  0  0  0  0  0  0  0  0  0  0
   10.6277  -19.2070   28.3528 O   0  0  0  0  0  0  0  0  0  0  0  0
   11.0155  -20.2979   29.1190 O   0  0  0  0  0  0  0  0  0  0  0  0
  2  1  1  0
  3  2  2  0
  4  2  1  0
  5  4  1  0
  6  5  1  0
  6  7  1  0
  7  8  1  0
  8 10  1  0
  8  9  1  1
 10 15  1  0
 11 10  2  0
 13 12  1  0
 14 13  1  6
 15 14  1  0
 16 17  2  0
 16 14  1  0
 19 18  1  1
 19 21  1  0
 20 19  1  0
 21 22  1  1
 22 16  1  0
 23 21  1  0
 23 24  1  0
 25 23  2  0
M  END
$$$$
