RST.pdb
     RDKit          3D

 25 24  0  0  1  0  0  0  0  0999 V2000
   11.4922  -24.1163   11.1368 N   0  0  0  0  0  0  0  0  0  0  0  0
   10.3550  -24.7140   11.7679 C   0  0  0  0  0  0  0  0  0  0  0  0
    9.5421  -25.3460   11.0233 N   0  0  0  0  0  0  0  0  0  0  0  0
   10.1389  -24.6110   13.1494 N   0  0  0  0  0  0  0  0  0  0  0  0
   10.9564  -23.6919   13.9643 C   0  0  0  0  0  0  0  0  0  0  0  0
   10.2691  -22.3745   13.9510 C   0  0  0  0  0  0  0  0  0  0  0  0
   10.9301  -21.2536   14.6636 C   0  0  0  0  0  0  0  0  0  0  0  0
   10.1360  -20.6312   15.7708 C   0  0  2  0  0  0  0  0  0  0  0  0
    9.6288  -19.3089   15.4288 N   0  0  0  0  0  0  0  0  0  0  0  0
   10.9610  -20.5287   17.0229 C   0  0  0  0  0  0  0  0  0  0  0  0
   12.1643  -20.1815   16.9482 O   0  0  0  0  0  0  0  0  0  0  0  0
    8.6707  -25.8179   11.3165 O   0  0  0  0  0  0  0  0  0  0  0  0
    9.1781  -20.2762   20.6635 C   0  0  0  0  0  0  0  0  0  0  0  0
   10.4635  -19.8169   20.5166 C   0  0  1  0  0  0  0  0  0  0  0  0
   11.2515  -20.6213   19.4686 N   0  0  0  0  0  0  0  0  0  0  0  0
   10.4188  -20.8139   18.2986 C   0  0  0  0  0  0  0  0  0  0  0  0
   11.5757  -21.9199   20.1115 O   0  0  0  0  0  0  0  0  0  0  0  0
   10.7023  -22.8218   20.0730 C   0  0  0  0  0  0  0  0  0  0  0  0
   13.8848  -24.7592   19.3282 C   0  0  2  0  0  0  0  0  0  0  0  0
   14.1635  -24.2891   20.7164 O   0  0  0  0  0  0  0  0  0  0  0  0
   15.2841  -23.4392   20.5981 C   0  0  2  0  0  0  0  0  0  0  0  0
   13.0882  -23.5041   21.3533 N   0  0  0  0  0  0  0  0  0  0  0  0
   12.7736  -22.2401   20.7627 C   0  0  0  0  0  0  0  0  0  0  0  0
   13.3512  -23.3234   22.7954 O   0  0  0  0  0  0  0  0  0  0  0  0
   13.5461  -24.3661   23.6911 O   0  0  0  0  0  0  0  0  0  0  0  0
  2  1  1  0
  3  2  2  0
  4  2  1  0
  5  4  1  0
  6  5  1  0
  6  7  1  0
  7  8  1  0
  8 10  1  0
  8  9  1  6
 10 15  1  0
 11 10  2  0
 13 12  1  0
 14 13  1  6
 15 14  1  0
 16 17  2  0
 16 14  1  0
 19 18  1  1
 19 21  1  0
 20 19  1  0
 21 22  1  1
 22 16  1  0
 23 21  1  0
 23 24  1  0
 25 23  2  0
M  END
$$$$
