RST.pdb
     RDKit          3D

 25 24  0  0  1  0  0  0  0  0999 V2000
    8.1589  -12.4281   17.2815 N   0  0  0  0  0  0  0  0  0  0  0  0
    8.1527  -13.8113   16.9139 C   0  0  0  0  0  0  0  0  0  0  0  0
    8.3616  -14.0892   15.6917 N   0  0  0  0  0  0  0  0  0  0  0  0
    7.9258  -14.8243   17.8565 N   0  0  0  0  0  0  0  0  0  0  0  0
    8.5505  -14.7524   19.1913 C   0  0  0  0  0  0  0  0  0  0  0  0
    7.6437  -13.9473   20.0503 C   0  0  0  0  0  0  0  0  0  0  0  0
    7.4220  -14.4205   21.4389 C   0  0  0  0  0  0  0  0  0  0  0  0
    7.3611  -15.9068   21.6153 C   0  0  2  0  0  0  0  0  0  0  0  0
    6.0892  -16.4752   21.1887 N   0  0  0  0  0  0  0  0  0  0  0  0
    7.6067  -16.2815   23.0499 C   0  0  0  0  0  0  0  0  0  0  0  0
    6.7398  -16.0196   23.9182 O   0  0  0  0  0  0  0  0  0  0  0  0
    8.4587  -15.0309   15.2773 O   0  0  0  0  0  0  0  0  0  0  0  0
   10.9283  -18.5722   24.3219 C   0  0  0  0  0  0  0  0  0  0  0  0
    9.7087  -18.6187   24.9507 C   0  0  1  0  0  0  0  0  0  0  0  0
    8.9545  -17.2814   24.8548 N   0  0  0  0  0  0  0  0  0  0  0  0
    8.7973  -16.9281   23.4584 C   0  0  0  0  0  0  0  0  0  0  0  0
    9.7979  -16.2865   25.5645 O   0  0  0  0  0  0  0  0  0  0  0  0
   10.7072  -15.7211   24.9077 C   0  0  0  0  0  0  0  0  0  0  0  0
    9.5375  -12.8083   27.0835 C   0  0  2  0  0  0  0  0  0  0  0  0
    9.9907  -13.7778   28.1229 O   0  0  0  0  0  0  0  0  0  0  0  0
    8.8258  -14.1114   28.8466 C   0  0  2  0  0  0  0  0  0  0  0  0
   10.5623  -15.0397   27.6140 N   0  0  0  0  0  0  0  0  0  0  0  0
    9.6759  -15.9130   26.9087 C   0  0  0  0  0  0  0  0  0  0  0  0
   11.2349  -15.7874   28.6957 O   0  0  0  0  0  0  0  0  0  0  0  0
   12.2383  -15.2649   29.5003 O   0  0  0  0  0  0  0  0  0  0  0  0
  2  1  1  0
  3  2  2  0
  4  2  1  0
  5  4  1  0
  6  5  1  0
  6  7  1  0
  7  8  1  0
  8 10  1  0
  8  9  1  1
 10 15  1  0
 11 10  2  0
 13 12  1  0
 14 13  1  6
 15 14  1  0
 16 17  2  0
 16 14  1  0
 19 18  1  1
 19 21  1  0
 20 19  1  0
 21 22  1  1
 22 16  1  0
 23 21  1  0
 23 24  1  0
 25 23  2  0
M  END
$$$$
