RST.pdb
     RDKit          3D

 25 24  0  0  1  0  0  0  0  0999 V2000
    8.6636  -11.9945   18.7924 N   0  0  0  0  0  0  0  0  0  0  0  0
    9.3616  -13.1008   19.3732 C   0  0  0  0  0  0  0  0  0  0  0  0
   10.6303  -13.0893   19.3035 N   0  0  0  0  0  0  0  0  0  0  0  0
    8.6818  -14.1580   19.9947 N   0  0  0  0  0  0  0  0  0  0  0  0
    7.2164  -14.1064   20.1589 C   0  0  0  0  0  0  0  0  0  0  0  0
    6.7203  -15.5034   20.0564 C   0  0  0  0  0  0  0  0  0  0  0  0
    7.6920  -16.5929   20.3206 C   0  0  0  0  0  0  0  0  0  0  0  0
    7.1715  -17.7451   21.1240 C   0  0  2  0  0  0  0  0  0  0  0  0
    6.0779  -18.4462   20.4644 N   0  0  0  0  0  0  0  0  0  0  0  0
    6.7091  -17.2826   22.4772 C   0  0  0  0  0  0  0  0  0  0  0  0
    5.5767  -16.7569   22.6014 O   0  0  0  0  0  0  0  0  0  0  0  0
   11.2791  -13.7971   19.6856 O   0  0  0  0  0  0  0  0  0  0  0  0
    8.6904  -18.2040   26.1069 C   0  0  0  0  0  0  0  0  0  0  0  0
    7.3386  -17.9972   25.9862 C   0  0  1  0  0  0  0  0  0  0  0  0
    7.0045  -16.9580   24.9024 N   0  0  0  0  0  0  0  0  0  0  0  0
    7.5182  -17.4224   23.6297 C   0  0  0  0  0  0  0  0  0  0  0  0
    7.6763  -15.7020   25.3218 O   0  0  0  0  0  0  0  0  0  0  0  0
    8.8011  -15.4496   24.8228 C   0  0  0  0  0  0  0  0  0  0  0  0
    6.3352  -11.7979   25.8473 C   0  0  2  0  0  0  0  0  0  0  0  0
    7.0445  -12.4138   27.0064 O   0  0  0  0  0  0  0  0  0  0  0  0
    6.0205  -12.8335   27.8824 C   0  0  2  0  0  0  0  0  0  0  0  0
    7.8647  -13.6009   26.6963 N   0  0  0  0  0  0  0  0  0  0  0  0
    7.1718  -14.7614   26.2286 C   0  0  0  0  0  0  0  0  0  0  0  0
    8.7191  -13.9654   27.8446 O   0  0  0  0  0  0  0  0  0  0  0  0
    9.6479  -13.1149   28.4290 O   0  0  0  0  0  0  0  0  0  0  0  0
  2  1  1  0
  3  2  2  0
  4  2  1  0
  5  4  1  0
  6  5  1  0
  6  7  1  0
  7  8  1  0
  8 10  1  0
  8  9  1  6
 10 15  1  0
 11 10  2  0
 13 12  1  0
 14 13  1  6
 15 14  1  0
 16 17  2  0
 16 14  1  0
 19 18  1  1
 19 21  1  0
 20 19  1  0
 21 22  1  1
 22 16  1  0
 23 21  1  0
 23 24  1  0
 25 23  2  0
M  END
$$$$
