RST.pdb
     RDKit          3D

 25 24  0  0  1  0  0  0  0  0999 V2000
    8.3443  -14.3328   14.2245 N   0  0  0  0  0  0  0  0  0  0  0  0
    8.6654  -14.0952   15.5990 C   0  0  0  0  0  0  0  0  0  0  0  0
    9.7933  -14.5091   16.0126 N   0  0  0  0  0  0  0  0  0  0  0  0
    7.7781  -13.4344   16.4604 N   0  0  0  0  0  0  0  0  0  0  0  0
    8.1857  -13.1059   17.8399 C   0  0  0  0  0  0  0  0  0  0  0  0
    8.0636  -14.3548   18.6359 C   0  0  0  0  0  0  0  0  0  0  0  0
    8.4593  -14.2940   20.0644 C   0  0  0  0  0  0  0  0  0  0  0  0
    8.3226  -15.5742   20.8301 C   0  0  2  0  0  0  0  0  0  0  0  0
    6.9466  -16.0481   20.8983 N   0  0  0  0  0  0  0  0  0  0  0  0
    8.8545  -15.4167   22.2269 C   0  0  0  0  0  0  0  0  0  0  0  0
   10.0874  -15.2733   22.4104 O   0  0  0  0  0  0  0  0  0  0  0  0
   10.1687  -14.4317   16.9723 O   0  0  0  0  0  0  0  0  0  0  0  0
    6.3306  -15.2962   25.5398 C   0  0  0  0  0  0  0  0  0  0  0  0
    7.5565  -14.6845   25.6292 C   0  0  1  0  0  0  0  0  0  0  0  0
    8.5882  -15.3095   24.6747 N   0  0  0  0  0  0  0  0  0  0  0  0
    8.0006  -15.4246   23.3553 C   0  0  0  0  0  0  0  0  0  0  0  0
    8.9040  -16.6475   25.2359 O   0  0  0  0  0  0  0  0  0  0  0  0
    8.1279  -17.5940   24.9541 C   0  0  0  0  0  0  0  0  0  0  0  0
   10.8646  -19.3539   24.3822 C   0  0  2  0  0  0  0  0  0  0  0  0
   11.2567  -19.0742   25.7942 O   0  0  0  0  0  0  0  0  0  0  0  0
   12.4577  -18.3385   25.7028 C   0  0  2  0  0  0  0  0  0  0  0  0
   10.3049  -18.2573   26.5719 N   0  0  0  0  0  0  0  0  0  0  0  0
    9.9950  -16.9596   26.0567 C   0  0  0  0  0  0  0  0  0  0  0  0
   10.7391  -18.1392   27.9787 O   0  0  0  0  0  0  0  0  0  0  0  0
   10.9267  -19.2180   28.8322 O   0  0  0  0  0  0  0  0  0  0  0  0
  2  1  1  0
  3  2  2  0
  4  2  1  0
  5  4  1  0
  6  5  1  0
  6  7  1  0
  7  8  1  0
  8 10  1  0
  8  9  1  1
 10 15  1  0
 11 10  2  0
 13 12  1  0
 14 13  1  6
 15 14  1  0
 16 17  2  0
 16 14  1  0
 19 18  1  1
 19 21  1  0
 20 19  1  0
 21 22  1  1
 22 16  1  0
 23 21  1  0
 23 24  1  0
 25 23  2  0
M  END
$$$$
