RST.pdb
     RDKit          3D

 25 24  0  0  1  0  0  0  0  0999 V2000
   15.1109  -15.0745   21.2248 N   0  0  0  0  0  0  0  0  0  0  0  0
   14.6334  -14.4824   20.0124 C   0  0  0  0  0  0  0  0  0  0  0  0
   15.2561  -14.7665   18.9419 N   0  0  0  0  0  0  0  0  0  0  0  0
   13.5255  -13.6231   19.9975 N   0  0  0  0  0  0  0  0  0  0  0  0
   12.4260  -13.8426   19.0383 C   0  0  0  0  0  0  0  0  0  0  0  0
   11.3686  -14.5987   19.7583 C   0  0  0  0  0  0  0  0  0  0  0  0
   10.0454  -13.9447   19.9086 C   0  0  0  0  0  0  0  0  0  0  0  0
    8.8588  -14.8547   19.8209 C   0  0  2  0  0  0  0  0  0  0  0  0
    7.9249  -14.4665   18.7721 N   0  0  0  0  0  0  0  0  0  0  0  0
    8.1274  -14.9013   21.1330 C   0  0  0  0  0  0  0  0  0  0  0  0
    7.2233  -14.0647   21.3712 O   0  0  0  0  0  0  0  0  0  0  0  0
   15.0063  -14.4742   17.9827 O   0  0  0  0  0  0  0  0  0  0  0  0
    8.9303  -17.7708   24.1461 C   0  0  0  0  0  0  0  0  0  0  0  0
    7.6511  -17.3405   23.8946 C   0  0  1  0  0  0  0  0  0  0  0  0
    7.6207  -15.9128   23.3226 N   0  0  0  0  0  0  0  0  0  0  0  0
    8.4282  -15.8694   22.1203 C   0  0  0  0  0  0  0  0  0  0  0  0
    8.1904  -15.0387   24.3790 O   0  0  0  0  0  0  0  0  0  0  0  0
    9.3862  -14.6760   24.2511 C   0  0  0  0  0  0  0  0  0  0  0  0
    6.8012  -11.6430   26.2298 C   0  0  2  0  0  0  0  0  0  0  0  0
    7.2259  -12.7373   27.1507 O   0  0  0  0  0  0  0  0  0  0  0  0
    6.0279  -13.3699   27.5462 C   0  0  2  0  0  0  0  0  0  0  0  0
    8.0891  -13.7753   26.5545 N   0  0  0  0  0  0  0  0  0  0  0  0
    7.5165  -14.5740   25.5154 C   0  0  0  0  0  0  0  0  0  0  0  0
    8.6537  -14.6544   27.5986 O   0  0  0  0  0  0  0  0  0  0  0  0
    9.3656  -14.2013   28.7010 O   0  0  0  0  0  0  0  0  0  0  0  0
  2  1  1  0
  3  2  2  0
  4  2  1  0
  5  4  1  0
  6  5  1  0
  6  7  1  0
  7  8  1  0
  8 10  1  0
  8  9  1  6
 10 15  1  0
 11 10  2  0
 13 12  1  0
 14 13  1  6
 15 14  1  0
 16 17  2  0
 16 14  1  0
 19 18  1  1
 19 21  1  0
 20 19  1  0
 21 22  1  1
 22 16  1  0
 23 21  1  0
 23 24  1  0
 25 23  2  0
M  END
$$$$
