HCN.pdb
     RDKit          3D

 25 25  0  0  1  0  0  0  0  0999 V2000
   17.4214  -13.7872  -17.1297 N   0  0  0  0  0  0  0  0  0  0  0  0
   18.6719  -13.0436  -17.2834 C   0  0  1  0  0  0  0  0  0  0  0  0
   19.4286  -13.5933  -18.4454 C   0  0  0  0  0  0  0  0  0  0  0  0
   19.8353  -15.0060  -18.2445 C   0  0  0  0  0  0  0  0  0  0  0  0
   20.7899  -15.5033  -17.3643 C   0  0  0  0  0  0  0  0  0  0  0  0
   20.8599  -16.8495  -17.4861 N   0  0  0  0  0  0  0  0  0  0  0  0
   19.9685  -17.1844  -18.4217 C   0  0  0  0  0  0  0  0  0  0  0  0
   19.3490  -16.0896  -18.8835 N   0  0  0  0  0  0  0  0  0  0  0  0
   18.3904  -11.5995  -17.4141 C   0  0  0  0  0  0  0  0  0  0  0  0
   17.5633  -11.2243  -18.2753 O   0  0  0  0  0  0  0  0  0  0  0  0
   19.0433  -10.6665  -16.5844 N   0  0  0  0  0  0  0  0  0  0  0  0
   18.7044   -9.2763  -16.6276 C   0  0  1  0  0  0  0  0  0  0  0  0
   17.2714   -9.0941  -16.2198 C   0  0  0  0  0  0  0  0  0  0  0  0
   16.9323   -9.6702  -14.5569 S   0  0  0  0  0  0  0  0  0  0  0  0
   19.6335   -8.4434  -15.8223 C   0  0  0  0  0  0  0  0  0  0  0  0
   20.0494   -8.7546  -14.6931 O   0  0  0  0  0  0  0  0  0  0  0  0
   22.6307   -4.3626  -14.5995 N   0  0  0  0  0  0  0  0  0  0  0  0
   22.3587   -4.3046  -15.9805 C   0  0  0  0  0  0  0  0  0  0  0  0
   22.8557   -3.4339  -16.7194 O   0  0  0  0  0  0  0  0  0  0  0  0
   21.4565   -5.3008  -16.5918 C   0  0  0  0  0  0  0  0  0  0  0  0
   20.9698   -6.3402  -15.6022 C   0  0  2  0  0  0  0  0  0  0  0  0
   20.0737   -7.2199  -16.3722 N   0  0  0  0  0  0  0  0  0  0  0  0
   20.2338   -5.7670  -14.4647 C   0  0  0  0  0  0  0  0  0  0  0  0
   20.8352   -5.4278  -13.4157 O   0  0  0  0  0  0  0  0  0  0  0  0
   18.8645   -5.5832  -14.5112 O   0  0  0  0  0  0  0  0  0  0  0  0
  2  1  1  6
  3  2  1  0
  4  3  1  0
  4  8  1  0
  5  4  2  0
  6  5  1  0
  6  7  1  0
  7  8  2  0
  9  2  1  0
  9 11  1  0
 10  9  2  0
 11 12  1  0
 12 15  1  0
 12 13  1  1
 14 13  1  0
 15 16  2  0
 15 22  1  0
 18 17  1  0
 18 19  2  0
 20 18  1  0
 21 20  1  6
 21 23  1  0
 22 21  1  0
 23 25  1  0
 24 23  2  0
M  END
$$$$
