HCN.pdb
     RDKit          3D

 25 25  0  0  1  0  0  0  0  0999 V2000
   19.4509  -10.5572  -14.7401 N   0  0  0  0  0  0  0  0  0  0  0  0
   18.8522   -9.2771  -15.1187 C   0  0  1  0  0  0  0  0  0  0  0  0
   17.4143   -9.2729  -14.7222 C   0  0  0  0  0  0  0  0  0  0  0  0
   16.6079  -10.2532  -15.4904 C   0  0  0  0  0  0  0  0  0  0  0  0
   16.7655  -11.6337  -15.5444 C   0  0  0  0  0  0  0  0  0  0  0  0
   15.8238  -12.1650  -16.3586 N   0  0  0  0  0  0  0  0  0  0  0  0
   15.0949  -11.1386  -16.8026 C   0  0  0  0  0  0  0  0  0  0  0  0
   15.5545   -9.9889  -16.2902 N   0  0  0  0  0  0  0  0  0  0  0  0
   19.6154   -8.1635  -14.5192 C   0  0  0  0  0  0  0  0  0  0  0  0
   20.2754   -8.3796  -13.4781 O   0  0  0  0  0  0  0  0  0  0  0  0
   19.5966   -6.8848  -15.1107 N   0  0  0  0  0  0  0  0  0  0  0  0
   20.4469   -5.8375  -14.6317 C   0  0  1  0  0  0  0  0  0  0  0  0
   21.8821   -6.2613  -14.7468 C   0  0  0  0  0  0  0  0  0  0  0  0
   23.0375   -4.9766  -14.2708 S   0  0  0  0  0  0  0  0  0  0  0  0
   20.1821   -4.5418  -15.3075 C   0  0  0  0  0  0  0  0  0  0  0  0
   20.0797   -4.4048  -16.5386 O   0  0  0  0  0  0  0  0  0  0  0  0
   17.6628   -0.1412  -15.7795 N   0  0  0  0  0  0  0  0  0  0  0  0
   17.0506   -1.3358  -15.3523 C   0  0  0  0  0  0  0  0  0  0  0  0
   15.8131   -1.4704  -15.3118 O   0  0  0  0  0  0  0  0  0  0  0  0
   17.8868   -2.4786  -14.9342 C   0  0  0  0  0  0  0  0  0  0  0  0
   19.3711   -2.1909  -15.0369 C   0  0  2  0  0  0  0  0  0  0  0  0
   20.0372   -3.3912  -14.5025 N   0  0  0  0  0  0  0  0  0  0  0  0
   19.7944   -1.0121  -14.2653 C   0  0  0  0  0  0  0  0  0  0  0  0
   20.0832   -1.1114  -13.0471 O   0  0  0  0  0  0  0  0  0  0  0  0
   19.8883    0.2368  -14.8506 O   0  0  0  0  0  0  0  0  0  0  0  0
  2  1  1  1
  3  2  1  0
  4  3  1  0
  4  8  1  0
  5  4  2  0
  6  5  1  0
  6  7  1  0
  7  8  2  0
  9  2  1  0
  9 11  1  0
 10  9  2  0
 11 12  1  0
 12 15  1  0
 12 13  1  6
 14 13  1  0
 15 16  2  0
 15 22  1  0
 18 17  1  0
 18 19  2  0
 20 18  1  0
 21 20  1  1
 21 23  1  0
 22 21  1  0
 23 25  1  0
 24 23  2  0
M  END
$$$$
