HCN.pdb
     RDKit          3D

 25 25  0  0  1  0  0  0  0  0999 V2000
   19.2921  -11.5980  -16.4417 N   0  0  0  0  0  0  0  0  0  0  0  0
   18.8275  -10.3549  -17.0576 C   0  0  1  0  0  0  0  0  0  0  0  0
   17.3521  -10.4322  -17.2636 C   0  0  0  0  0  0  0  0  0  0  0  0
   16.9643  -11.5029  -18.2148 C   0  0  0  0  0  0  0  0  0  0  0  0
   17.3706  -11.6610  -19.5351 C   0  0  0  0  0  0  0  0  0  0  0  0
   16.7919  -12.7677  -20.0570 N   0  0  0  0  0  0  0  0  0  0  0  0
   16.0412  -13.2883  -19.0837 C   0  0  0  0  0  0  0  0  0  0  0  0
   16.1359  -12.5401  -17.9760 N   0  0  0  0  0  0  0  0  0  0  0  0
   19.2312   -9.1983  -16.2323 C   0  0  0  0  0  0  0  0  0  0  0  0
   18.4685   -8.8196  -15.3151 O   0  0  0  0  0  0  0  0  0  0  0  0
   20.4510   -8.5370  -16.4773 N   0  0  0  0  0  0  0  0  0  0  0  0
   20.8162   -7.3652  -15.7406 C   0  0  1  0  0  0  0  0  0  0  0  0
   22.2570   -7.4567  -15.3302 C   0  0  0  0  0  0  0  0  0  0  0  0
   22.5377   -8.6173  -13.9938 S   0  0  0  0  0  0  0  0  0  0  0  0
   20.5164   -6.1149  -16.4838 C   0  0  0  0  0  0  0  0  0  0  0  0
   20.6685   -5.9781  -17.7098 O   0  0  0  0  0  0  0  0  0  0  0  0
   18.6578   -1.4718  -17.6114 N   0  0  0  0  0  0  0  0  0  0  0  0
   17.7343   -2.4417  -17.1745 C   0  0  0  0  0  0  0  0  0  0  0  0
   16.5054   -2.3030  -17.3224 O   0  0  0  0  0  0  0  0  0  0  0  0
   18.2195   -3.6713  -16.5168 C   0  0  0  0  0  0  0  0  0  0  0  0
   19.7313   -3.7401  -16.4387 C   0  0  2  0  0  0  0  0  0  0  0  0
   20.0275   -5.0100  -15.7535 N   0  0  0  0  0  0  0  0  0  0  0  0
   20.3305   -2.6270  -15.6863 C   0  0  0  0  0  0  0  0  0  0  0  0
   20.0096   -2.4130  -14.4912 O   0  0  0  0  0  0  0  0  0  0  0  0
   21.2613   -1.7844  -16.2649 O   0  0  0  0  0  0  0  0  0  0  0  0
  2  1  1  1
  3  2  1  0
  4  3  1  0
  4  8  1  0
  5  4  2  0
  6  5  1  0
  6  7  1  0
  7  8  2  0
  9  2  1  0
  9 11  1  0
 10  9  2  0
 11 12  1  0
 12 15  1  0
 12 13  1  6
 14 13  1  0
 15 16  2  0
 15 22  1  0
 18 17  1  0
 18 19  2  0
 20 18  1  0
 21 20  1  1
 21 23  1  0
 22 21  1  0
 23 25  1  0
 24 23  2  0
M  END
$$$$
