HCN.pdb
     RDKit          3D

 25 25  0  0  1  0  0  0  0  0999 V2000
   18.7804  -10.8738  -16.7585 N   0  0  0  0  0  0  0  0  0  0  0  0
   18.2182   -9.5627  -16.4343 C   0  0  1  0  0  0  0  0  0  0  0  0
   16.7456   -9.5895  -16.6703 C   0  0  0  0  0  0  0  0  0  0  0  0
   16.4000   -9.6515  -18.1119 C   0  0  0  0  0  0  0  0  0  0  0  0
   16.1817   -8.5911  -18.9845 C   0  0  0  0  0  0  0  0  0  0  0  0
   15.8925   -9.0713  -20.2165 N   0  0  0  0  0  0  0  0  0  0  0  0
   15.9297  -10.4018  -20.1145 C   0  0  0  0  0  0  0  0  0  0  0  0
   16.2322  -10.7614  -18.8596 N   0  0  0  0  0  0  0  0  0  0  0  0
   18.5701   -9.1885  -15.0494 C   0  0  0  0  0  0  0  0  0  0  0  0
   18.2902   -9.9823  -14.1232 O   0  0  0  0  0  0  0  0  0  0  0  0
   19.2070   -7.9606  -14.7811 N   0  0  0  0  0  0  0  0  0  0  0  0
   19.5525   -7.5851  -13.4436 C   0  0  1  0  0  0  0  0  0  0  0  0
   20.8696   -6.8654  -13.4466 C   0  0  0  0  0  0  0  0  0  0  0  0
   22.2576   -7.9355  -13.8214 S   0  0  0  0  0  0  0  0  0  0  0  0
   18.4789   -6.8005  -12.7823 C   0  0  0  0  0  0  0  0  0  0  0  0
   17.5293   -6.2711  -13.3847 O   0  0  0  0  0  0  0  0  0  0  0  0
   14.3818   -6.7903   -9.1933 N   0  0  0  0  0  0  0  0  0  0  0  0
   15.0899   -6.0114  -10.1294 C   0  0  0  0  0  0  0  0  0  0  0  0
   14.7994   -4.8224  -10.3595 O   0  0  0  0  0  0  0  0  0  0  0  0
   16.2181   -6.6064  -10.8732 C   0  0  0  0  0  0  0  0  0  0  0  0
   17.5165   -5.8498  -10.6781 C   0  0  2  0  0  0  0  0  0  0  0  0
   18.5386   -6.6448  -11.3804 N   0  0  0  0  0  0  0  0  0  0  0  0
   17.8999   -5.6980   -9.2660 C   0  0  0  0  0  0  0  0  0  0  0  0
   18.7193   -6.4873   -8.7344 O   0  0  0  0  0  0  0  0  0  0  0  0
   17.3751   -4.6881   -8.4812 O   0  0  0  0  0  0  0  0  0  0  0  0
  2  1  1  1
  3  2  1  0
  4  3  1  0
  4  8  1  0
  5  4  2  0
  6  5  1  0
  6  7  1  0
  7  8  2  0
  9  2  1  0
  9 11  1  0
 10  9  2  0
 11 12  1  0
 12 15  1  0
 12 13  1  6
 14 13  1  0
 15 16  2  0
 15 22  1  0
 18 17  1  0
 18 19  2  0
 20 18  1  0
 21 20  1  1
 21 23  1  0
 22 21  1  0
 23 25  1  0
 24 23  2  0
M  END
$$$$
