HCN.pdb
     RDKit          3D

 25 25  0  0  1  0  0  0  0  0999 V2000
   23.4725  -10.9187  -17.6196 N   0  0  0  0  0  0  0  0  0  0  0  0
   23.2068   -9.7791  -16.7415 C   0  0  1  0  0  0  0  0  0  0  0  0
   24.4315   -8.9319  -16.6549 C   0  0  0  0  0  0  0  0  0  0  0  0
   25.6160   -9.6884  -16.1793 C   0  0  0  0  0  0  0  0  0  0  0  0
   25.7705  -10.3645  -14.9741 C   0  0  0  0  0  0  0  0  0  0  0  0
   27.0001  -10.9279  -14.9259 N   0  0  0  0  0  0  0  0  0  0  0  0
   27.5994  -10.6103  -16.0758 C   0  0  0  0  0  0  0  0  0  0  0  0
   26.7811   -9.8683  -16.8344 N   0  0  0  0  0  0  0  0  0  0  0  0
   22.0264   -9.0327  -17.2226 C   0  0  0  0  0  0  0  0  0  0  0  0
   21.8906   -8.8523  -18.4536 O   0  0  0  0  0  0  0  0  0  0  0  0
   21.0755   -8.5346  -16.3099 N   0  0  0  0  0  0  0  0  0  0  0  0
   19.8892   -7.8760  -16.7659 C   0  0  1  0  0  0  0  0  0  0  0  0
   18.7697   -8.8703  -16.8713 C   0  0  0  0  0  0  0  0  0  0  0  0
   17.1605   -8.1037  -17.0583 S   0  0  0  0  0  0  0  0  0  0  0  0
   19.5323   -6.7074  -15.9219 C   0  0  0  0  0  0  0  0  0  0  0  0
   19.4677   -6.7364  -14.6810 O   0  0  0  0  0  0  0  0  0  0  0  0
   18.0297   -1.8701  -14.7494 N   0  0  0  0  0  0  0  0  0  0  0  0
   18.4646   -1.8747  -16.0892 C   0  0  0  0  0  0  0  0  0  0  0  0
   18.4809   -0.8424  -16.7858 O   0  0  0  0  0  0  0  0  0  0  0  0
   18.9206   -3.1359  -16.7069 C   0  0  0  0  0  0  0  0  0  0  0  0
   18.7558   -4.3329  -15.7924 C   0  0  2  0  0  0  0  0  0  0  0  0
   19.2478   -5.4847  -16.5678 N   0  0  0  0  0  0  0  0  0  0  0  0
   17.3620   -4.5744  -15.3887 C   0  0  0  0  0  0  0  0  0  0  0  0
   16.5000   -4.9235  -16.2326 O   0  0  0  0  0  0  0  0  0  0  0  0
   16.9561   -4.4268  -14.0754 O   0  0  0  0  0  0  0  0  0  0  0  0
  2  1  1  6
  3  2  1  0
  4  3  1  0
  4  8  1  0
  5  4  2  0
  6  5  1  0
  6  7  1  0
  7  8  2  0
  9  2  1  0
  9 11  1  0
 10  9  2  0
 11 12  1  0
 12 15  1  0
 12 13  1  1
 14 13  1  0
 15 16  2  0
 15 22  1  0
 18 17  1  0
 18 19  2  0
 20 18  1  0
 21 20  1  6
 21 23  1  0
 22 21  1  0
 23 25  1  0
 24 23  2  0
M  END
$$$$
