HCN.pdb
     RDKit          3D

 25 25  0  0  1  0  0  0  0  0999 V2000
   24.4576  -33.6712  -12.0419 N   0  0  0  0  0  0  0  0  0  0  0  0
   25.9160  -33.7351  -11.9443 C   0  0  1  0  0  0  0  0  0  0  0  0
   26.5158  -32.8777  -13.0073 C   0  0  0  0  0  0  0  0  0  0  0  0
   26.2563  -33.3969  -14.3728 C   0  0  0  0  0  0  0  0  0  0  0  0
   25.8087  -32.6914  -15.4843 C   0  0  0  0  0  0  0  0  0  0  0  0
   25.7026  -33.5313  -16.5405 N   0  0  0  0  0  0  0  0  0  0  0  0
   26.0758  -34.7340  -16.0975 C   0  0  0  0  0  0  0  0  0  0  0  0
   26.4094  -34.6665  -14.8013 N   0  0  0  0  0  0  0  0  0  0  0  0
   26.3504  -33.3516  -10.5855 C   0  0  0  0  0  0  0  0  0  0  0  0
   27.5680  -33.1491  -10.3791 O   0  0  0  0  0  0  0  0  0  0  0  0
   25.4091  -33.2187   -9.5455 N   0  0  0  0  0  0  0  0  0  0  0  0
   25.8202  -32.8798   -8.2168 C   0  0  1  0  0  0  0  0  0  0  0  0
   24.9617  -31.7658   -7.6925 C   0  0  0  0  0  0  0  0  0  0  0  0
   23.2235  -32.1943   -7.6085 S   0  0  0  0  0  0  0  0  0  0  0  0
   25.8353  -34.0579   -7.3128 C   0  0  0  0  0  0  0  0  0  0  0  0
   25.4844  -35.2014   -7.6505 O   0  0  0  0  0  0  0  0  0  0  0  0
   28.2430  -38.0982   -6.2887 N   0  0  0  0  0  0  0  0  0  0  0  0
   27.2338  -37.2208   -5.8460 C   0  0  0  0  0  0  0  0  0  0  0  0
   26.0531  -37.5879   -5.6963 O   0  0  0  0  0  0  0  0  0  0  0  0
   27.5667  -35.8144   -5.5438 C   0  0  0  0  0  0  0  0  0  0  0  0
   26.3711  -35.0160   -5.0649 C   0  0  2  0  0  0  0  0  0  0  0  0
   26.2760  -33.8694   -5.9848 N   0  0  0  0  0  0  0  0  0  0  0  0
   26.5085  -34.5257   -3.6847 C   0  0  0  0  0  0  0  0  0  0  0  0
   26.0256  -35.1719   -2.7223 O   0  0  0  0  0  0  0  0  0  0  0  0
   27.1698  -33.3451   -3.4018 O   0  0  0  0  0  0  0  0  0  0  0  0
  2  1  1  1
  3  2  1  0
  4  3  1  0
  4  8  1  0
  5  4  2  0
  6  5  1  0
  6  7  1  0
  7  8  2  0
  9  2  1  0
  9 11  1  0
 10  9  2  0
 11 12  1  0
 12 15  1  0
 12 13  1  1
 14 13  1  0
 15 16  2  0
 15 22  1  0
 18 17  1  0
 18 19  2  0
 20 18  1  0
 21 20  1  6
 21 23  1  0
 22 21  1  0
 23 25  1  0
 24 23  2  0
M  END
$$$$
