HCN.pdb
     RDKit          3D

 25 25  0  0  1  0  0  0  0  0999 V2000
   20.3817  -16.5947  -16.8758 N   0  0  0  0  0  0  0  0  0  0  0  0
   20.3168  -15.2492  -17.4465 C   0  0  1  0  0  0  0  0  0  0  0  0
   18.9118  -14.9574  -17.8537 C   0  0  0  0  0  0  0  0  0  0  0  0
   18.4380  -15.8450  -18.9443 C   0  0  0  0  0  0  0  0  0  0  0  0
   18.8483  -15.8599  -20.2728 C   0  0  0  0  0  0  0  0  0  0  0  0
   18.1742  -16.8230  -20.9436 N   0  0  0  0  0  0  0  0  0  0  0  0
   17.3614  -17.3962  -20.0532 C   0  0  0  0  0  0  0  0  0  0  0  0
   17.5100  -16.8193  -18.8528 N   0  0  0  0  0  0  0  0  0  0  0  0
   20.8509  -14.2640  -16.4842 C   0  0  0  0  0  0  0  0  0  0  0  0
   20.4575  -14.3097  -15.2970 O   0  0  0  0  0  0  0  0  0  0  0  0
   21.7838  -13.2932  -16.8995 N   0  0  0  0  0  0  0  0  0  0  0  0
   22.2444  -12.2796  -15.9997 C   0  0  1  0  0  0  0  0  0  0  0  0
   23.7433  -12.3121  -15.9286 C   0  0  0  0  0  0  0  0  0  0  0  0
   24.4350  -10.9487  -14.9934 S   0  0  0  0  0  0  0  0  0  0  0  0
   21.7222  -10.9341  -16.3498 C   0  0  0  0  0  0  0  0  0  0  0  0
   21.7581  -10.4472  -17.4928 O   0  0  0  0  0  0  0  0  0  0  0  0
   19.4372   -6.3229  -15.8267 N   0  0  0  0  0  0  0  0  0  0  0  0
   18.8503   -7.2499  -14.9433 C   0  0  0  0  0  0  0  0  0  0  0  0
   17.8598   -6.9657  -14.2438 O   0  0  0  0  0  0  0  0  0  0  0  0
   19.4136   -8.6100  -14.8283 C   0  0  0  0  0  0  0  0  0  0  0  0
   20.7141   -8.7750  -15.5885 C   0  0  2  0  0  0  0  0  0  0  0  0
   21.1479  -10.1570  -15.3206 N   0  0  0  0  0  0  0  0  0  0  0  0
   21.7661   -7.8402  -15.1600 C   0  0  0  0  0  0  0  0  0  0  0  0
   22.4667   -8.0824  -14.1463 O   0  0  0  0  0  0  0  0  0  0  0  0
   22.0180   -6.6713  -15.8539 O   0  0  0  0  0  0  0  0  0  0  0  0
  2  1  1  1
  3  2  1  0
  4  3  1  0
  4  8  1  0
  5  4  2  0
  6  5  1  0
  6  7  1  0
  7  8  2  0
  9  2  1  0
  9 11  1  0
 10  9  2  0
 11 12  1  0
 12 15  1  0
 12 13  1  6
 14 13  1  0
 15 16  2  0
 15 22  1  0
 18 17  1  0
 18 19  2  0
 20 18  1  0
 21 20  1  1
 21 23  1  0
 22 21  1  0
 23 25  1  0
 24 23  2  0
M  END
$$$$
