HCN.pdb
     RDKit          3D

 25 25  0  0  1  0  0  0  0  0999 V2000
   21.3405  -12.6482  -18.0564 N   0  0  0  0  0  0  0  0  0  0  0  0
   21.4615  -11.2339  -18.4109 C   0  0  1  0  0  0  0  0  0  0  0  0
   20.4756  -10.9119  -19.4830 C   0  0  0  0  0  0  0  0  0  0  0  0
   20.7066  -11.6923  -20.7236 C   0  0  0  0  0  0  0  0  0  0  0  0
   19.8395  -12.5831  -21.3465 C   0  0  0  0  0  0  0  0  0  0  0  0
   20.4278  -13.0850  -22.4574 N   0  0  0  0  0  0  0  0  0  0  0  0
   21.6353  -12.5197  -22.5258 C   0  0  0  0  0  0  0  0  0  0  0  0
   21.8140  -11.6843  -21.4934 N   0  0  0  0  0  0  0  0  0  0  0  0
   21.2948  -10.3935  -17.2077 C   0  0  0  0  0  0  0  0  0  0  0  0
   20.2397  -10.4989  -16.5429 O   0  0  0  0  0  0  0  0  0  0  0  0
   22.3058   -9.4916  -16.8207 N   0  0  0  0  0  0  0  0  0  0  0  0
   22.1881   -8.7221  -15.6194 C   0  0  1  0  0  0  0  0  0  0  0  0
   23.0252   -9.3429  -14.5393 C   0  0  0  0  0  0  0  0  0  0  0  0
   22.0736   -9.8278  -13.1000 S   0  0  0  0  0  0  0  0  0  0  0  0
   22.5107   -7.2883  -15.8335 C   0  0  0  0  0  0  0  0  0  0  0  0
   23.6036   -6.8744  -16.2564 O   0  0  0  0  0  0  0  0  0  0  0  0
   21.8044   -2.1411  -15.9819 N   0  0  0  0  0  0  0  0  0  0  0  0
   20.5418   -2.7658  -15.9900 C   0  0  0  0  0  0  0  0  0  0  0  0
   19.4819   -2.1203  -16.0952 O   0  0  0  0  0  0  0  0  0  0  0  0
   20.4507   -4.2347  -15.8709 C   0  0  0  0  0  0  0  0  0  0  0  0
   21.8010   -4.8947  -15.6765 C   0  0  2  0  0  0  0  0  0  0  0  0
   21.5140   -6.3329  -15.5386 N   0  0  0  0  0  0  0  0  0  0  0  0
   22.5177   -4.4221  -14.4819 C   0  0  0  0  0  0  0  0  0  0  0  0
   22.1479   -4.7673  -13.3324 O   0  0  0  0  0  0  0  0  0  0  0  0
   23.6155   -3.5880  -14.5829 O   0  0  0  0  0  0  0  0  0  0  0  0
  2  1  1  1
  3  2  1  0
  4  3  1  0
  4  8  1  0
  5  4  2  0
  6  5  1  0
  6  7  1  0
  7  8  2  0
  9  2  1  0
  9 11  1  0
 10  9  2  0
 11 12  1  0
 12 15  1  0
 12 13  1  1
 14 13  1  0
 15 16  2  0
 15 22  1  0
 18 17  1  0
 18 19  2  0
 20 18  1  0
 21 20  1  1
 21 23  1  0
 22 21  1  0
 23 25  1  0
 24 23  2  0
M  END
$$$$
