HCN.pdb
     RDKit          3D

 25 25  0  0  1  0  0  0  0  0999 V2000
   25.1581  -16.0251  -17.8355 N   0  0  0  0  0  0  0  0  0  0  0  0
   24.4562  -15.7234  -16.5878 C   0  0  1  0  0  0  0  0  0  0  0  0
   24.5911  -16.8818  -15.6578 C   0  0  0  0  0  0  0  0  0  0  0  0
   23.9196  -18.1031  -16.1667 C   0  0  0  0  0  0  0  0  0  0  0  0
   24.4665  -19.3698  -16.3394 C   0  0  0  0  0  0  0  0  0  0  0  0
   23.5212  -20.2084  -16.8243 N   0  0  0  0  0  0  0  0  0  0  0  0
   22.4092  -19.4807  -16.9514 C   0  0  0  0  0  0  0  0  0  0  0  0
   22.6350  -18.2188  -16.5611 N   0  0  0  0  0  0  0  0  0  0  0  0
   24.9662  -14.4628  -16.0111 C   0  0  0  0  0  0  0  0  0  0  0  0
   25.9194  -14.5150  -15.2018 O   0  0  0  0  0  0  0  0  0  0  0  0
   24.3870  -13.2287  -16.3670 N   0  0  0  0  0  0  0  0  0  0  0  0
   24.9389  -11.9927  -15.9011 C   0  0  1  0  0  0  0  0  0  0  0  0
   26.3673  -11.8785  -16.3478 C   0  0  0  0  0  0  0  0  0  0  0  0
   27.0877  -10.2737  -16.0047 S   0  0  0  0  0  0  0  0  0  0  0  0
   24.1221  -10.8209  -16.3075 C   0  0  0  0  0  0  0  0  0  0  0  0
   23.8283  -10.5493  -17.4842 O   0  0  0  0  0  0  0  0  0  0  0  0
   21.8629   -5.8264  -13.9458 N   0  0  0  0  0  0  0  0  0  0  0  0
   21.4498   -7.0688  -14.4655 C   0  0  0  0  0  0  0  0  0  0  0  0
   20.3640   -7.2131  -15.0582 O   0  0  0  0  0  0  0  0  0  0  0  0
   22.3195   -8.2522  -14.3127 C   0  0  0  0  0  0  0  0  0  0  0  0
   22.8005   -8.8048  -15.6392 C   0  0  2  0  0  0  0  0  0  0  0  0
   23.6482   -9.9593  -15.2946 N   0  0  0  0  0  0  0  0  0  0  0  0
   23.5841   -7.8402  -16.4264 C   0  0  0  0  0  0  0  0  0  0  0  0
   23.0478   -7.1772  -17.3483 O   0  0  0  0  0  0  0  0  0  0  0  0
   24.9283   -7.6318  -16.1798 O   0  0  0  0  0  0  0  0  0  0  0  0
  2  1  1  6
  3  2  1  0
  4  3  1  0
  4  8  1  0
  5  4  2  0
  6  5  1  0
  6  7  1  0
  7  8  2  0
  9  2  1  0
  9 11  1  0
 10  9  2  0
 11 12  1  0
 12 15  1  0
 12 13  1  6
 14 13  1  0
 15 16  2  0
 15 22  1  0
 18 17  1  0
 18 19  2  0
 20 18  1  0
 21 20  1  1
 21 23  1  0
 22 21  1  0
 23 25  1  0
 24 23  2  0
M  END
$$$$
