HCN.pdb
     RDKit          3D

 25 25  0  0  1  0  0  0  0  0999 V2000
   23.7214  -13.0743  -16.8489 N   0  0  0  0  0  0  0  0  0  0  0  0
   24.0880  -11.8505  -16.1359 C   0  0  1  0  0  0  0  0  0  0  0  0
   25.4519  -11.4245  -16.5639 C   0  0  0  0  0  0  0  0  0  0  0  0
   26.5021  -12.3972  -16.1733 C   0  0  0  0  0  0  0  0  0  0  0  0
   26.3448  -13.5912  -15.4783 C   0  0  0  0  0  0  0  0  0  0  0  0
   27.5500  -14.1878  -15.3255 N   0  0  0  0  0  0  0  0  0  0  0  0
   28.4395  -13.3837  -15.9123 C   0  0  0  0  0  0  0  0  0  0  0  0
   27.8244  -12.3084  -16.4233 N   0  0  0  0  0  0  0  0  0  0  0  0
   23.0655  -10.8080  -16.3591 C   0  0  0  0  0  0  0  0  0  0  0  0
   22.6721  -10.5931  -17.5276 O   0  0  0  0  0  0  0  0  0  0  0  0
   22.5474  -10.0721  -15.2751 N   0  0  0  0  0  0  0  0  0  0  0  0
   21.5275   -9.0870  -15.4721 C   0  0  1  0  0  0  0  0  0  0  0  0
   20.2175   -9.6081  -14.9572 C   0  0  0  0  0  0  0  0  0  0  0  0
   18.9409   -8.3526  -14.8780 S   0  0  0  0  0  0  0  0  0  0  0  0
   21.8884   -7.7743  -14.8789 C   0  0  0  0  0  0  0  0  0  0  0  0
   22.3276   -7.6266  -13.7255 O   0  0  0  0  0  0  0  0  0  0  0  0
   22.5443   -2.0153  -17.0354 N   0  0  0  0  0  0  0  0  0  0  0  0
   22.5541   -3.0073  -16.0353 C   0  0  0  0  0  0  0  0  0  0  0  0
   22.9384   -2.7755  -14.8735 O   0  0  0  0  0  0  0  0  0  0  0  0
   22.0972   -4.3745  -16.3552 C   0  0  0  0  0  0  0  0  0  0  0  0
   22.1185   -5.2986  -15.1544 C   0  0  2  0  0  0  0  0  0  0  0  0
   21.7231   -6.6192  -15.6736 N   0  0  0  0  0  0  0  0  0  0  0  0
   21.1900   -4.8944  -14.0873 C   0  0  0  0  0  0  0  0  0  0  0  0
   19.9534   -5.0766  -14.2086 O   0  0  0  0  0  0  0  0  0  0  0  0
   21.6438   -4.3046  -12.9222 O   0  0  0  0  0  0  0  0  0  0  0  0
  2  1  1  6
  3  2  1  0
  4  3  1  0
  4  8  1  0
  5  4  2  0
  6  5  1  0
  6  7  1  0
  7  8  2  0
  9  2  1  0
  9 11  1  0
 10  9  2  0
 11 12  1  0
 12 15  1  0
 12 13  1  1
 14 13  1  0
 15 16  2  0
 15 22  1  0
 18 17  1  0
 18 19  2  0
 20 18  1  0
 21 20  1  6
 21 23  1  0
 22 21  1  0
 23 25  1  0
 24 23  2  0
M  END
$$$$
