HCN.pdb
     RDKit          3D

 25 25  0  0  1  0  0  0  0  0999 V2000
   24.3223  -12.8468  -17.0898 N   0  0  0  0  0  0  0  0  0  0  0  0
   24.8145  -11.5835  -16.5400 C   0  0  1  0  0  0  0  0  0  0  0  0
   26.2361  -11.3924  -16.9493 C   0  0  0  0  0  0  0  0  0  0  0  0
   27.1218  -12.4767  -16.4579 C   0  0  0  0  0  0  0  0  0  0  0  0
   27.8874  -12.4946  -15.2973 C   0  0  0  0  0  0  0  0  0  0  0  0
   28.5526  -13.6703  -15.2123 N   0  0  0  0  0  0  0  0  0  0  0  0
   28.2096  -14.3702  -16.2960 C   0  0  0  0  0  0  0  0  0  0  0  0
   27.3537  -13.6664  -17.0495 N   0  0  0  0  0  0  0  0  0  0  0  0
   23.9411  -10.4709  -16.9654 C   0  0  0  0  0  0  0  0  0  0  0  0
   23.4460  -10.5014  -18.1144 O   0  0  0  0  0  0  0  0  0  0  0  0
   23.6744   -9.3980  -16.0918 N   0  0  0  0  0  0  0  0  0  0  0  0
   22.7668   -8.3542  -16.4605 C   0  0  1  0  0  0  0  0  0  0  0  0
   21.5842   -8.3650  -15.5362 C   0  0  0  0  0  0  0  0  0  0  0  0
   20.4241   -7.0377  -15.8593 S   0  0  0  0  0  0  0  0  0  0  0  0
   23.4282   -7.0258  -16.5198 C   0  0  0  0  0  0  0  0  0  0  0  0
   24.4563   -6.7291  -15.8874 O   0  0  0  0  0  0  0  0  0  0  0  0
   24.9108   -2.3854  -17.8867 N   0  0  0  0  0  0  0  0  0  0  0  0
   25.4290   -3.5743  -18.4364 C   0  0  0  0  0  0  0  0  0  0  0  0
   26.4844   -3.5958  -19.0974 O   0  0  0  0  0  0  0  0  0  0  0  0
   24.7115   -4.8488  -18.2332 C   0  0  0  0  0  0  0  0  0  0  0  0
   23.4481   -4.6888  -17.4119 C   0  0  2  0  0  0  0  0  0  0  0  0
   22.8545   -6.0354  -17.3463 N   0  0  0  0  0  0  0  0  0  0  0  0
   22.4781   -3.7550  -18.0047 C   0  0  0  0  0  0  0  0  0  0  0  0
   22.6179   -2.5140  -17.8729 O   0  0  0  0  0  0  0  0  0  0  0  0
   21.3871   -4.2085  -18.7225 O   0  0  0  0  0  0  0  0  0  0  0  0
  2  1  1  6
  3  2  1  0
  4  3  1  0
  4  8  1  0
  5  4  2  0
  6  5  1  0
  6  7  1  0
  7  8  2  0
  9  2  1  0
  9 11  1  0
 10  9  2  0
 11 12  1  0
 12 15  1  0
 12 13  1  1
 14 13  1  0
 15 16  2  0
 15 22  1  0
 18 17  1  0
 18 19  2  0
 20 18  1  0
 21 20  1  6
 21 23  1  0
 22 21  1  0
 23 25  1  0
 24 23  2  0
M  END
$$$$
