HCN.pdb
     RDKit          3D

 25 25  0  0  1  0  0  0  0  0999 V2000
   18.9412  -13.1707  -18.2363 N   0  0  0  0  0  0  0  0  0  0  0  0
   19.8019  -12.1298  -17.6741 C   0  0  1  0  0  0  0  0  0  0  0  0
   20.9956  -11.9551  -18.5513 C   0  0  0  0  0  0  0  0  0  0  0  0
   21.8168  -13.1871  -18.6489 C   0  0  0  0  0  0  0  0  0  0  0  0
   21.8311  -14.1252  -19.6751 C   0  0  0  0  0  0  0  0  0  0  0  0
   22.7223  -15.1013  -19.3833 N   0  0  0  0  0  0  0  0  0  0  0  0
   23.2521  -14.7790  -18.2012 C   0  0  0  0  0  0  0  0  0  0  0  0
   22.7180  -13.6354  -17.7512 N   0  0  0  0  0  0  0  0  0  0  0  0
   19.0350  -10.8802  -17.4943 C   0  0  0  0  0  0  0  0  0  0  0  0
   18.1148  -10.6188  -18.3013 O   0  0  0  0  0  0  0  0  0  0  0  0
   19.3379  -10.0025  -16.4345 N   0  0  0  0  0  0  0  0  0  0  0  0
   18.5898   -8.7981  -16.2370 C   0  0  1  0  0  0  0  0  0  0  0  0
   17.1290   -9.1247  -16.1263 C   0  0  0  0  0  0  0  0  0  0  0  0
   16.8030  -10.5641  -15.1096 S   0  0  0  0  0  0  0  0  0  0  0  0
   19.0841   -8.0099  -15.0794 C   0  0  0  0  0  0  0  0  0  0  0  0
   19.5821   -8.5099  -14.0562 O   0  0  0  0  0  0  0  0  0  0  0  0
   22.0827   -4.3049  -13.4296 N   0  0  0  0  0  0  0  0  0  0  0  0
   22.3929   -5.3617  -14.3077 C   0  0  0  0  0  0  0  0  0  0  0  0
   23.5653   -5.6456  -14.6176 O   0  0  0  0  0  0  0  0  0  0  0  0
   21.3053   -6.1724  -14.8910 C   0  0  0  0  0  0  0  0  0  0  0  0
   19.9330   -5.7568  -14.4008 C   0  0  2  0  0  0  0  0  0  0  0  0
   18.9828   -6.6032  -15.1428 N   0  0  0  0  0  0  0  0  0  0  0  0
   19.6253   -4.3402  -14.6516 C   0  0  0  0  0  0  0  0  0  0  0  0
   19.1603   -3.9699  -15.7578 O   0  0  0  0  0  0  0  0  0  0  0  0
   19.8358   -3.3748  -13.6847 O   0  0  0  0  0  0  0  0  0  0  0  0
  2  1  1  6
  3  2  1  0
  4  3  1  0
  4  8  1  0
  5  4  2  0
  6  5  1  0
  6  7  1  0
  7  8  2  0
  9  2  1  0
  9 11  1  0
 10  9  2  0
 11 12  1  0
 12 15  1  0
 12 13  1  1
 14 13  1  0
 15 16  2  0
 15 22  1  0
 18 17  1  0
 18 19  2  0
 20 18  1  0
 21 20  1  6
 21 23  1  0
 22 21  1  0
 23 25  1  0
 24 23  2  0
M  END
$$$$
