HCN.pdb
     RDKit          3D

 25 25  0  0  1  0  0  0  0  0999 V2000
   18.9345  -10.9245  -15.8163 N   0  0  0  0  0  0  0  0  0  0  0  0
   18.6127   -9.5573  -16.2258 C   0  0  1  0  0  0  0  0  0  0  0  0
   17.1403   -9.3465  -16.1139 C   0  0  0  0  0  0  0  0  0  0  0  0
   16.3679  -10.2160  -17.0354 C   0  0  0  0  0  0  0  0  0  0  0  0
   16.4316  -10.2591  -18.4237 C   0  0  0  0  0  0  0  0  0  0  0  0
   15.5670  -11.1916  -18.8874 N   0  0  0  0  0  0  0  0  0  0  0  0
   14.9771  -11.7184  -17.8120 C   0  0  0  0  0  0  0  0  0  0  0  0
   15.4480  -11.1425  -16.6974 N   0  0  0  0  0  0  0  0  0  0  0  0
   19.3925   -8.5914  -15.4254 C   0  0  0  0  0  0  0  0  0  0  0  0
   19.1326   -8.4728  -14.2069 O   0  0  0  0  0  0  0  0  0  0  0  0
   20.4070   -7.8201  -16.0264 N   0  0  0  0  0  0  0  0  0  0  0  0
   21.2089   -6.9226  -15.2513 C   0  0  1  0  0  0  0  0  0  0  0  0
   22.6247   -7.4193  -15.2104 C   0  0  0  0  0  0  0  0  0  0  0  0
   22.8189   -8.9189  -14.2484 S   0  0  0  0  0  0  0  0  0  0  0  0
   21.1132   -5.5210  -15.7325 C   0  0  0  0  0  0  0  0  0  0  0  0
   20.8409   -5.2017  -16.9025 O   0  0  0  0  0  0  0  0  0  0  0  0
   20.5368   -0.5143  -16.0097 N   0  0  0  0  0  0  0  0  0  0  0  0
   19.5128   -1.4815  -16.0207 C   0  0  0  0  0  0  0  0  0  0  0  0
   18.3329   -1.1968  -16.2999 O   0  0  0  0  0  0  0  0  0  0  0  0
   19.8285   -2.8862  -15.6928 C   0  0  0  0  0  0  0  0  0  0  0  0
   21.2582   -3.0752  -15.2274 C   0  0  2  0  0  0  0  0  0  0  0  0
   21.3458   -4.4834  -14.8038 N   0  0  0  0  0  0  0  0  0  0  0  0
   21.6287   -2.2022  -14.1028 C   0  0  0  0  0  0  0  0  0  0  0  0
   21.3484   -2.5227  -12.9213 O   0  0  0  0  0  0  0  0  0  0  0  0
   22.2939   -1.0075  -14.3065 O   0  0  0  0  0  0  0  0  0  0  0  0
  2  1  1  1
  3  2  1  0
  4  3  1  0
  4  8  1  0
  5  4  2  0
  6  5  1  0
  6  7  1  0
  7  8  2  0
  9  2  1  0
  9 11  1  0
 10  9  2  0
 11 12  1  0
 12 15  1  0
 12 13  1  6
 14 13  1  0
 15 16  2  0
 15 22  1  0
 18 17  1  0
 18 19  2  0
 20 18  1  0
 21 20  1  1
 21 23  1  0
 22 21  1  0
 23 25  1  0
 24 23  2  0
M  END
$$$$
