HCN.pdb
     RDKit          3D

 25 25  0  0  1  0  0  0  0  0999 V2000
   23.0841  -12.8432  -18.7185 N   0  0  0  0  0  0  0  0  0  0  0  0
   23.7227  -11.5935  -19.1316 C   0  0  1  0  0  0  0  0  0  0  0  0
   22.9218  -10.9731  -20.2265 C   0  0  0  0  0  0  0  0  0  0  0  0
   22.8425  -11.8333  -21.4329 C   0  0  0  0  0  0  0  0  0  0  0  0
   23.8923  -12.3624  -22.1755 C   0  0  0  0  0  0  0  0  0  0  0  0
   23.3973  -13.0959  -23.1997 N   0  0  0  0  0  0  0  0  0  0  0  0
   22.0681  -13.0259  -23.0981 C   0  0  0  0  0  0  0  0  0  0  0  0
   21.7237  -12.2727  -22.0446 N   0  0  0  0  0  0  0  0  0  0  0  0
   23.8899  -10.7004  -17.9670 C   0  0  0  0  0  0  0  0  0  0  0  0
   22.9143  -10.5187  -17.2045 O   0  0  0  0  0  0  0  0  0  0  0  0
   25.1248  -10.0668  -17.7242 N   0  0  0  0  0  0  0  0  0  0  0  0
   25.2805   -9.1441  -16.6409 C   0  0  1  0  0  0  0  0  0  0  0  0
   26.6728   -9.2450  -16.0893 C   0  0  0  0  0  0  0  0  0  0  0  0
   26.9818  -10.7881  -15.2318 S   0  0  0  0  0  0  0  0  0  0  0  0
   24.9224   -7.7554  -17.0263 C   0  0  0  0  0  0  0  0  0  0  0  0
   25.4163   -7.1498  -17.9928 O   0  0  0  0  0  0  0  0  0  0  0  0
   22.4887   -3.2832  -17.3837 N   0  0  0  0  0  0  0  0  0  0  0  0
   21.7801   -4.4493  -17.7335 C   0  0  0  0  0  0  0  0  0  0  0  0
   20.6940   -4.4094  -18.3416 O   0  0  0  0  0  0  0  0  0  0  0  0
   22.3269   -5.7735  -17.3760 C   0  0  0  0  0  0  0  0  0  0  0  0
   23.5999   -5.6840  -16.5589 C   0  0  2  0  0  0  0  0  0  0  0  0
   23.9599   -7.0779  -16.2467 N   0  0  0  0  0  0  0  0  0  0  0  0
   23.4409   -4.9278  -15.3071 C   0  0  0  0  0  0  0  0  0  0  0  0
   23.1850   -5.5175  -14.2283 O   0  0  0  0  0  0  0  0  0  0  0  0
   23.5671   -3.5515  -15.2755 O   0  0  0  0  0  0  0  0  0  0  0  0
  2  1  1  1
  3  2  1  0
  4  3  1  0
  4  8  1  0
  5  4  2  0
  6  5  1  0
  6  7  1  0
  7  8  2  0
  9  2  1  0
  9 11  1  0
 10  9  2  0
 11 12  1  0
 12 15  1  0
 12 13  1  6
 14 13  1  0
 15 16  2  0
 15 22  1  0
 18 17  1  0
 18 19  2  0
 20 18  1  0
 21 20  1  1
 21 23  1  0
 22 21  1  0
 23 25  1  0
 24 23  2  0
M  END
$$$$
