HCN.pdb
     RDKit          3D

 25 25  0  0  1  0  0  0  0  0999 V2000
   17.8756  -15.1340  -15.8572 N   0  0  0  0  0  0  0  0  0  0  0  0
   18.8326  -14.3975  -16.6831 C   0  0  1  0  0  0  0  0  0  0  0  0
   18.9808  -15.0897  -17.9960 C   0  0  0  0  0  0  0  0  0  0  0  0
   19.5632  -16.4478  -17.8622 C   0  0  0  0  0  0  0  0  0  0  0  0
   18.9482  -17.6696  -18.1123 C   0  0  0  0  0  0  0  0  0  0  0  0
   19.8231  -18.6740  -17.8717 N   0  0  0  0  0  0  0  0  0  0  0  0
   20.9586  -18.0915  -17.4801 C   0  0  0  0  0  0  0  0  0  0  0  0
   20.8156  -16.7591  -17.4702 N   0  0  0  0  0  0  0  0  0  0  0  0
   18.4050  -12.9904  -16.8220 C   0  0  0  0  0  0  0  0  0  0  0  0
   17.6132  -12.6916  -17.7440 O   0  0  0  0  0  0  0  0  0  0  0  0
   18.8827  -12.0076  -15.9326 N   0  0  0  0  0  0  0  0  0  0  0  0
   18.4179  -10.6557  -16.0076 C   0  0  1  0  0  0  0  0  0  0  0  0
   17.2984  -10.4527  -15.0286 C   0  0  0  0  0  0  0  0  0  0  0  0
   15.9687  -11.6387  -15.2215 S   0  0  0  0  0  0  0  0  0  0  0  0
   19.5146   -9.6707  -15.8274 C   0  0  0  0  0  0  0  0  0  0  0  0
   20.4886   -9.8407  -15.0742 O   0  0  0  0  0  0  0  0  0  0  0  0
   22.1333   -5.2060  -16.4215 N   0  0  0  0  0  0  0  0  0  0  0  0
   21.3285   -5.4089  -17.5598 C   0  0  0  0  0  0  0  0  0  0  0  0
   21.3740   -4.6531  -18.5487 O   0  0  0  0  0  0  0  0  0  0  0  0
   20.3931   -6.5505  -17.6014 C   0  0  0  0  0  0  0  0  0  0  0  0
   20.4760   -7.4251  -16.3667 C   0  0  2  0  0  0  0  0  0  0  0  0
   19.4489   -8.4638  -16.5569 N   0  0  0  0  0  0  0  0  0  0  0  0
   20.2111   -6.6987  -15.1151 C   0  0  0  0  0  0  0  0  0  0  0  0
   19.0485   -6.3245  -14.8232 O   0  0  0  0  0  0  0  0  0  0  0  0
   21.2260   -6.4054  -14.2235 O   0  0  0  0  0  0  0  0  0  0  0  0
  2  1  1  1
  3  2  1  0
  4  3  1  0
  4  8  1  0
  5  4  2  0
  6  5  1  0
  6  7  1  0
  7  8  2  0
  9  2  1  0
  9 11  1  0
 10  9  2  0
 11 12  1  0
 12 15  1  0
 12 13  1  1
 14 13  1  0
 15 16  2  0
 15 22  1  0
 18 17  1  0
 18 19  2  0
 20 18  1  0
 21 20  1  6
 21 23  1  0
 22 21  1  0
 23 25  1  0
 24 23  2  0
M  END
$$$$
