FFL.pdb
     RDKit          3D

 31 32  0  0  1  0  0  0  0  0999 V2000
   10.3183  -18.0599   19.6057 N   0  0  0  0  0  0  0  0  0  0  0  0
    9.7982  -18.3645   20.9415 C   0  0  1  0  0  0  0  0  0  0  0  0
   10.7870  -19.3180   21.5733 C   0  0  0  0  0  0  0  0  0  0  0  0
   10.2315  -20.6783   21.4772 C   0  0  0  0  0  0  0  0  0  0  0  0
   10.5438  -21.4622   20.3954 C   0  0  0  0  0  0  0  0  0  0  0  0
   10.0411  -22.7526   20.2647 C   0  0  0  0  0  0  0  0  0  0  0  0
    9.2178  -23.2191   21.2589 C   0  0  0  0  0  0  0  0  0  0  0  0
    8.8885  -22.4605   22.3497 C   0  0  0  0  0  0  0  0  0  0  0  0
    9.4071  -21.1810   22.4466 C   0  0  0  0  0  0  0  0  0  0  0  0
    9.7332  -17.0921   21.7369 C   0  0  0  0  0  0  0  0  0  0  0  0
   10.6706  -16.2526   21.7318 O   0  0  0  0  0  0  0  0  0  0  0  0
    8.5945  -16.7944   22.5302 N   0  0  0  0  0  0  0  0  0  0  0  0
    8.4142  -15.5316   23.2335 C   0  0  1  0  0  0  0  0  0  0  0  0
    7.0802  -15.4393   23.8812 C   0  0  0  0  0  0  0  0  0  0  0  0
    6.8693  -14.2077   24.6568 C   0  0  0  0  0  0  0  0  0  0  0  0
    5.9795  -14.0539   25.6957 C   0  0  0  0  0  0  0  0  0  0  0  0
    5.8352  -12.8576   26.3892 C   0  0  0  0  0  0  0  0  0  0  0  0
    6.5976  -11.7713   26.0447 C   0  0  0  0  0  0  0  0  0  0  0  0
    7.5028  -11.8879   25.0055 C   0  0  0  0  0  0  0  0  0  0  0  0
    7.6249  -13.0853   24.3359 C   0  0  0  0  0  0  0  0  0  0  0  0
    9.4865  -15.2989   24.2173 C   0  0  0  0  0  0  0  0  0  0  0  0
   10.0779  -14.1979   24.2177 O   0  0  0  0  0  0  0  0  0  0  0  0
    9.4120  -14.1233   29.5534 C   0  0  0  0  0  0  0  0  0  0  0  0
   10.3971  -14.6023   28.5340 C   0  0  2  0  0  0  0  0  0  0  0  0
   11.4548  -13.5159   28.2913 C   0  0  0  0  0  0  0  0  0  0  0  0
    9.7135  -14.9651   27.2551 C   0  0  0  0  0  0  0  0  0  0  0  0
   10.4271  -15.9416   26.4025 C   0  0  2  0  0  0  0  0  0  0  0  0
    9.8544  -16.3218   25.1697 N   0  0  0  0  0  0  0  0  0  0  0  0
   10.8014  -17.1869   27.1629 C   0  0  0  0  0  0  0  0  0  0  0  0
   10.2380  -18.3626   26.7386 O   0  0  0  0  0  0  0  0  0  0  0  0
   11.5951  -17.1332   28.1391 O   0  0  0  0  0  0  0  0  0  0  0  0
  2  1  1  6
  2 10  1  0
  3  2  1  0
  3  4  1  0
  4  5  2  0
  5  6  1  0
  7  6  2  0
  8  7  1  0
  9  4  1  0
  9  8  2  0
 10 11  2  0
 12 13  1  0
 12 10  1  0
 13 21  1  0
 13 14  1  1
 15 14  1  0
 16 15  2  0
 17 16  1  0
 18 19  1  0
 18 17  2  0
 19 20  2  0
 20 15  1  0
 21 22  2  0
 21 28  1  0
 24 23  1  1
 24 26  1  0
 25 24  1  0
 27 26  1  1
 27 29  1  0
 28 27  1  0
 29 31  2  0
 29 30  1  0
M  END
$$$$
