FFL.pdb
     RDKit          3D

 31 32  0  0  1  0  0  0  0  0999 V2000
    6.0598  -17.0550   23.0153 N   0  0  0  0  0  0  0  0  0  0  0  0
    7.2238  -16.1989   22.7708 C   0  0  1  0  0  0  0  0  0  0  0  0
    6.7038  -14.7798   22.7277 C   0  0  0  0  0  0  0  0  0  0  0  0
    7.2578  -14.1291   21.5285 C   0  0  0  0  0  0  0  0  0  0  0  0
    6.9157  -12.8315   21.2434 C   0  0  0  0  0  0  0  0  0  0  0  0
    7.4158  -12.1787   20.1215 C   0  0  0  0  0  0  0  0  0  0  0  0
    8.2676  -12.8789   19.3041 C   0  0  0  0  0  0  0  0  0  0  0  0
    8.6269  -14.1742   19.5627 C   0  0  0  0  0  0  0  0  0  0  0  0
    8.1100  -14.7921   20.6880 C   0  0  0  0  0  0  0  0  0  0  0  0
    8.1884  -16.3569   23.9112 C   0  0  0  0  0  0  0  0  0  0  0  0
    7.8100  -16.3548   25.1113 O   0  0  0  0  0  0  0  0  0  0  0  0
    9.5772  -16.5157   23.6648 N   0  0  0  0  0  0  0  0  0  0  0  0
   10.6134  -15.9359   24.5085 C   0  0  1  0  0  0  0  0  0  0  0  0
   10.5621  -16.4628   25.8967 C   0  0  0  0  0  0  0  0  0  0  0  0
   10.1083  -15.4853   26.8973 C   0  0  0  0  0  0  0  0  0  0  0  0
   10.8296  -15.0577   27.9889 C   0  0  0  0  0  0  0  0  0  0  0  0
   10.3378  -14.1247   28.8949 C   0  0  0  0  0  0  0  0  0  0  0  0
    9.0863  -13.5933   28.7173 C   0  0  0  0  0  0  0  0  0  0  0  0
    8.3317  -13.9990   27.6316 C   0  0  0  0  0  0  0  0  0  0  0  0
    8.8443  -14.9247   26.7500 C   0  0  0  0  0  0  0  0  0  0  0  0
   11.9555  -16.1260   23.9300 C   0  0  0  0  0  0  0  0  0  0  0  0
   12.9538  -15.7582   24.5857 O   0  0  0  0  0  0  0  0  0  0  0  0
   12.3004  -16.3394   19.1290 C   0  0  0  0  0  0  0  0  0  0  0  0
   12.7847  -15.3965   20.1852 C   0  0  2  0  0  0  0  0  0  0  0  0
   13.2752  -14.0977   19.5291 C   0  0  0  0  0  0  0  0  0  0  0  0
   13.8730  -16.0165   21.0010 C   0  0  0  0  0  0  0  0  0  0  0  0
   13.4249  -16.8925   22.1062 C   0  0  2  0  0  0  0  0  0  0  0  0
   12.1232  -16.7272   22.6266 N   0  0  0  0  0  0  0  0  0  0  0  0
   14.4030  -16.9006   23.2518 C   0  0  0  0  0  0  0  0  0  0  0  0
   15.6982  -17.2389   22.9559 O   0  0  0  0  0  0  0  0  0  0  0  0
   14.0323  -16.6080   24.4192 O   0  0  0  0  0  0  0  0  0  0  0  0
  2  1  1  1
  2 10  1  0
  3  2  1  0
  3  4  1  0
  4  5  2  0
  5  6  1  0
  7  6  2  0
  8  7  1  0
  9  4  1  0
  9  8  2  0
 10 11  2  0
 12 13  1  0
 12 10  1  0
 13 21  1  0
 13 14  1  1
 15 14  1  0
 16 15  2  0
 17 16  1  0
 18 19  1  0
 18 17  2  0
 19 20  2  0
 20 15  1  0
 21 22  2  0
 21 28  1  0
 24 23  1  6
 24 26  1  0
 25 24  1  0
 27 26  1  6
 27 29  1  0
 28 27  1  0
 29 31  2  0
 29 30  1  0
M  END
$$$$
