FFL.pdb
     RDKit          3D

 31 32  0  0  1  0  0  0  0  0999 V2000
   11.9164  -16.8844   20.9440 N   0  0  0  0  0  0  0  0  0  0  0  0
   10.8586  -15.8711   20.9866 C   0  0  1  0  0  0  0  0  0  0  0  0
    9.7827  -16.3422   20.0345 C   0  0  0  0  0  0  0  0  0  0  0  0
    8.7545  -15.2912   19.9548 C   0  0  0  0  0  0  0  0  0  0  0  0
    9.0963  -14.0429   19.4997 C   0  0  0  0  0  0  0  0  0  0  0  0
    8.1568  -13.0211   19.4085 C   0  0  0  0  0  0  0  0  0  0  0  0
    6.8692  -13.3038   19.7907 C   0  0  0  0  0  0  0  0  0  0  0  0
    6.4985  -14.5394   20.2486 C   0  0  0  0  0  0  0  0  0  0  0  0
    7.4597  -15.5321   20.3261 C   0  0  0  0  0  0  0  0  0  0  0  0
   10.3119  -15.8011   22.3838 C   0  0  0  0  0  0  0  0  0  0  0  0
   10.7355  -16.5467   23.3049 O   0  0  0  0  0  0  0  0  0  0  0  0
    9.2853  -14.8775   22.7116 N   0  0  0  0  0  0  0  0  0  0  0  0
    8.9102  -14.5466   24.0796 C   0  0  1  0  0  0  0  0  0  0  0  0
    7.8630  -13.4938   24.1318 C   0  0  0  0  0  0  0  0  0  0  0  0
    7.4414  -13.1283   25.4924 C   0  0  0  0  0  0  0  0  0  0  0  0
    8.2189  -12.4881   26.4307 C   0  0  0  0  0  0  0  0  0  0  0  0
    7.7520  -12.1690   27.7008 C   0  0  0  0  0  0  0  0  0  0  0  0
    6.4690  -12.4939   28.0592 C   0  0  0  0  0  0  0  0  0  0  0  0
    5.6579  -13.1380   27.1427 C   0  0  0  0  0  0  0  0  0  0  0  0
    6.1468  -13.4418   25.8914 C   0  0  0  0  0  0  0  0  0  0  0  0
    8.4841  -15.7407   24.8309 C   0  0  0  0  0  0  0  0  0  0  0  0
    7.9660  -15.5924   25.9584 O   0  0  0  0  0  0  0  0  0  0  0  0
    6.8945  -19.2004   22.4302 C   0  0  0  0  0  0  0  0  0  0  0  0
    8.2603  -19.5276   22.9464 C   0  0  2  0  0  0  0  0  0  0  0  0
    8.7015  -20.8943   22.4028 C   0  0  0  0  0  0  0  0  0  0  0  0
    8.2852  -19.5237   24.4409 C   0  0  0  0  0  0  0  0  0  0  0  0
    8.3515  -18.1892   25.0767 C   0  0  2  0  0  0  0  0  0  0  0  0
    8.6588  -17.0653   24.2799 N   0  0  0  0  0  0  0  0  0  0  0  0
    9.2528  -18.1834   26.2837 C   0  0  0  0  0  0  0  0  0  0  0  0
    9.0561  -19.1782   27.2063 O   0  0  0  0  0  0  0  0  0  0  0  0
   10.1394  -17.3000   26.4231 O   0  0  0  0  0  0  0  0  0  0  0  0
  2  1  1  1
  2 10  1  0
  3  2  1  0
  3  4  1  0
  4  5  2  0
  5  6  1  0
  7  6  2  0
  8  7  1  0
  9  4  1  0
  9  8  2  0
 10 11  2  0
 12 13  1  0
 12 10  1  0
 13 21  1  0
 13 14  1  6
 15 14  1  0
 16 15  2  0
 17 16  1  0
 18 19  1  0
 18 17  2  0
 19 20  2  0
 20 15  1  0
 21 22  2  0
 21 28  1  0
 24 23  1  1
 24 26  1  0
 25 24  1  0
 27 26  1  6
 27 29  1  0
 28 27  1  0
 29 31  2  0
 29 30  1  0
M  END
$$$$
