FFL.pdb
     RDKit          3D

 31 32  0  0  1  0  0  0  0  0999 V2000
    8.8787  -18.3396   20.3895 N   0  0  0  0  0  0  0  0  0  0  0  0
    8.7598  -16.8827   20.4939 C   0  0  1  0  0  0  0  0  0  0  0  0
    7.9423  -16.4383   19.3022 C   0  0  0  0  0  0  0  0  0  0  0  0
    7.7372  -14.9840   19.4087 C   0  0  0  0  0  0  0  0  0  0  0  0
    8.7099  -14.1284   18.9571 C   0  0  0  0  0  0  0  0  0  0  0  0
    8.5573  -12.7481   19.0385 C   0  0  0  0  0  0  0  0  0  0  0  0
    7.3953  -12.2671   19.5883 C   0  0  0  0  0  0  0  0  0  0  0  0
    6.4074  -13.0960   20.0473 C   0  0  0  0  0  0  0  0  0  0  0  0
    6.5933  -14.4640   19.9503 C   0  0  0  0  0  0  0  0  0  0  0  0
    8.0358  -16.5466   21.7663 C   0  0  0  0  0  0  0  0  0  0  0  0
    6.7952  -16.3375   21.7935 O   0  0  0  0  0  0  0  0  0  0  0  0
    8.7407  -16.4533   22.9946 N   0  0  0  0  0  0  0  0  0  0  0  0
    8.6619  -15.2990   23.8796 C   0  0  1  0  0  0  0  0  0  0  0  0
    7.2570  -14.8990   24.1509 C   0  0  0  0  0  0  0  0  0  0  0  0
    7.1217  -13.7226   25.0230 C   0  0  0  0  0  0  0  0  0  0  0  0
    7.6011  -12.4611   24.7521 C   0  0  0  0  0  0  0  0  0  0  0  0
    7.4328  -11.3911   25.6238 C   0  0  0  0  0  0  0  0  0  0  0  0
    6.7662  -11.5725   26.8082 C   0  0  0  0  0  0  0  0  0  0  0  0
    6.2702  -12.8265   27.1151 C   0  0  0  0  0  0  0  0  0  0  0  0
    6.4515  -13.8684   26.2326 C   0  0  0  0  0  0  0  0  0  0  0  0
    9.3892  -15.5296   25.1405 C   0  0  0  0  0  0  0  0  0  0  0  0
    9.7628  -14.5438   25.8116 O   0  0  0  0  0  0  0  0  0  0  0  0
   11.1367  -14.2363   27.5570 C   0  0  0  0  0  0  0  0  0  0  0  0
    9.9011  -14.9638   27.9849 C   0  0  2  0  0  0  0  0  0  0  0  0
    9.4610  -14.4605   29.3674 C   0  0  0  0  0  0  0  0  0  0  0  0
   10.1294  -16.4408   28.0118 C   0  0  0  0  0  0  0  0  0  0  0  0
   10.5102  -17.0534   26.7198 C   0  0  2  0  0  0  0  0  0  0  0  0
    9.6696  -16.8705   25.6007 N   0  0  0  0  0  0  0  0  0  0  0  0
   10.8121  -18.5225   26.8591 C   0  0  0  0  0  0  0  0  0  0  0  0
   10.0663  -19.3818   26.0942 O   0  0  0  0  0  0  0  0  0  0  0  0
   11.7098  -18.9254   27.6451 O   0  0  0  0  0  0  0  0  0  0  0  0
  2  1  1  6
  2 10  1  0
  3  2  1  0
  3  4  1  0
  4  5  2  0
  5  6  1  0
  7  6  2  0
  8  7  1  0
  9  4  1  0
  9  8  2  0
 10 11  2  0
 12 13  1  0
 12 10  1  0
 13 21  1  0
 13 14  1  1
 15 14  1  0
 16 15  2  0
 17 16  1  0
 18 19  1  0
 18 17  2  0
 19 20  2  0
 20 15  1  0
 21 22  2  0
 21 28  1  0
 24 23  1  1
 24 26  1  0
 25 24  1  0
 27 26  1  1
 27 29  1  0
 28 27  1  0
 29 31  2  0
 29 30  1  0
M  END
$$$$
