FFL.pdb
     RDKit          3D

 31 32  0  0  1  0  0  0  0  0999 V2000
    7.4751  -20.8970   24.7095 N   0  0  0  0  0  0  0  0  0  0  0  0
    7.4268  -19.4776   25.0710 C   0  0  1  0  0  0  0  0  0  0  0  0
    8.6502  -19.2152   25.9197 C   0  0  0  0  0  0  0  0  0  0  0  0
    8.3500  -19.6464   27.2953 C   0  0  0  0  0  0  0  0  0  0  0  0
    9.1051  -20.6342   27.8751 C   0  0  0  0  0  0  0  0  0  0  0  0
    8.8560  -21.0717   29.1718 C   0  0  0  0  0  0  0  0  0  0  0  0
    7.8242  -20.4798   29.8566 C   0  0  0  0  0  0  0  0  0  0  0  0
    7.0537  -19.4922   29.3045 C   0  0  0  0  0  0  0  0  0  0  0  0
    7.3302  -19.0819   28.0120 C   0  0  0  0  0  0  0  0  0  0  0  0
    7.4885  -18.6563   23.8149 C   0  0  0  0  0  0  0  0  0  0  0  0
    8.0443  -19.0782   22.7677 O   0  0  0  0  0  0  0  0  0  0  0  0
    6.9126  -17.3598   23.7715 N   0  0  0  0  0  0  0  0  0  0  0  0
    7.4133  -16.2872   22.9226 C   0  0  1  0  0  0  0  0  0  0  0  0
    6.4534  -15.1573   22.8269 C   0  0  0  0  0  0  0  0  0  0  0  0
    6.9094  -14.0478   21.9760 C   0  0  0  0  0  0  0  0  0  0  0  0
    7.3781  -12.8327   22.4215 C   0  0  0  0  0  0  0  0  0  0  0  0
    7.7976  -11.8276   21.5573 C   0  0  0  0  0  0  0  0  0  0  0  0
    7.7529  -12.0288   20.2017 C   0  0  0  0  0  0  0  0  0  0  0  0
    7.2875  -13.2375   19.7166 C   0  0  0  0  0  0  0  0  0  0  0  0
    6.8785  -14.2155   20.5960 C   0  0  0  0  0  0  0  0  0  0  0  0
    8.7340  -15.8104   23.3704 C   0  0  0  0  0  0  0  0  0  0  0  0
    9.4764  -15.2288   22.5505 O   0  0  0  0  0  0  0  0  0  0  0  0
    9.2648  -12.9494   26.3022 C   0  0  0  0  0  0  0  0  0  0  0  0
    9.4561  -14.2271   27.0571 C   0  0  2  0  0  0  0  0  0  0  0  0
    9.6751  -13.9172   28.5451 C   0  0  0  0  0  0  0  0  0  0  0  0
   10.6063  -15.0084   26.5084 C   0  0  0  0  0  0  0  0  0  0  0  0
   10.4342  -15.5188   25.1302 C   0  0  2  0  0  0  0  0  0  0  0  0
    9.1709  -16.0080   24.7337 N   0  0  0  0  0  0  0  0  0  0  0  0
   11.4798  -16.5425   24.7730 C   0  0  0  0  0  0  0  0  0  0  0  0
   11.0310  -17.7264   24.2471 O   0  0  0  0  0  0  0  0  0  0  0  0
   12.7033  -16.3062   24.9551 O   0  0  0  0  0  0  0  0  0  0  0  0
  2  1  1  6
  2 10  1  0
  3  2  1  0
  3  4  1  0
  4  5  2  0
  5  6  1  0
  7  6  2  0
  8  7  1  0
  9  4  1  0
  9  8  2  0
 10 11  2  0
 12 13  1  0
 12 10  1  0
 13 21  1  0
 13 14  1  1
 15 14  1  0
 16 15  2  0
 17 16  1  0
 18 19  1  0
 18 17  2  0
 19 20  2  0
 20 15  1  0
 21 22  2  0
 21 28  1  0
 24 23  1  6
 24 26  1  0
 25 24  1  0
 27 26  1  1
 27 29  1  0
 28 27  1  0
 29 31  2  0
 29 30  1  0
M  END
$$$$
