FFL.pdb
     RDKit          3D

 31 32  0  0  1  0  0  0  0  0999 V2000
    5.8191  -18.3503   23.5219 N   0  0  0  0  0  0  0  0  0  0  0  0
    6.3676  -17.0641   23.9603 C   0  0  1  0  0  0  0  0  0  0  0  0
    6.1852  -17.0154   25.4604 C   0  0  0  0  0  0  0  0  0  0  0  0
    6.5689  -15.6706   25.9214 C   0  0  0  0  0  0  0  0  0  0  0  0
    7.6825  -15.5166   26.7078 C   0  0  0  0  0  0  0  0  0  0  0  0
    8.0807  -14.2647   27.1652 C   0  0  0  0  0  0  0  0  0  0  0  0
    7.3191  -13.1821   26.8021 C   0  0  0  0  0  0  0  0  0  0  0  0
    6.2032  -13.3046   26.0188 C   0  0  0  0  0  0  0  0  0  0  0  0
    5.8367  -14.5656   25.5819 C   0  0  0  0  0  0  0  0  0  0  0  0
    7.8299  -17.0207   23.6200 C   0  0  0  0  0  0  0  0  0  0  0  0
    8.5381  -18.0603   23.5827 O   0  0  0  0  0  0  0  0  0  0  0  0
    8.4660  -15.7865   23.3258 N   0  0  0  0  0  0  0  0  0  0  0  0
    9.8407  -15.6842   22.8552 C   0  0  1  0  0  0  0  0  0  0  0  0
   10.1231  -14.3611   22.2411 C   0  0  0  0  0  0  0  0  0  0  0  0
    9.0537  -13.8617   21.3639 C   0  0  0  0  0  0  0  0  0  0  0  0
    8.7525  -12.5380   21.1363 C   0  0  0  0  0  0  0  0  0  0  0  0
    7.7264  -12.1368   20.2882 C   0  0  0  0  0  0  0  0  0  0  0  0
    6.9683  -13.0775   19.6398 C   0  0  0  0  0  0  0  0  0  0  0  0
    7.2413  -14.4179   19.8439 C   0  0  0  0  0  0  0  0  0  0  0  0
    8.2640  -14.7865   20.6896 C   0  0  0  0  0  0  0  0  0  0  0  0
   10.8066  -15.9751   23.9296 C   0  0  0  0  0  0  0  0  0  0  0  0
   12.0220  -16.0446   23.6471 O   0  0  0  0  0  0  0  0  0  0  0  0
   10.8145  -13.1270   26.7938 C   0  0  0  0  0  0  0  0  0  0  0  0
   10.4548  -14.3962   27.5000 C   0  0  2  0  0  0  0  0  0  0  0  0
   10.1881  -14.1013   28.9832 C   0  0  0  0  0  0  0  0  0  0  0  0
   11.5362  -15.4177   27.3536 C   0  0  0  0  0  0  0  0  0  0  0  0
   11.3215  -16.4303   26.2961 C   0  0  2  0  0  0  0  0  0  0  0  0
   10.3639  -16.1779   25.2903 N   0  0  0  0  0  0  0  0  0  0  0  0
   11.0666  -17.7996   26.8697 C   0  0  0  0  0  0  0  0  0  0  0  0
    9.9931  -18.4895   26.3681 O   0  0  0  0  0  0  0  0  0  0  0  0
   11.8134  -18.2732   27.7663 O   0  0  0  0  0  0  0  0  0  0  0  0
  2  1  1  1
  2 10  1  0
  3  2  1  0
  3  4  1  0
  4  5  2  0
  5  6  1  0
  7  6  2  0
  8  7  1  0
  9  4  1  0
  9  8  2  0
 10 11  2  0
 12 13  1  0
 12 10  1  0
 13 21  1  0
 13 14  1  1
 15 14  1  0
 16 15  2  0
 17 16  1  0
 18 19  1  0
 18 17  2  0
 19 20  2  0
 20 15  1  0
 21 22  2  0
 21 28  1  0
 24 23  1  6
 24 26  1  0
 25 24  1  0
 27 26  1  1
 27 29  1  0
 28 27  1  0
 29 31  2  0
 29 30  1  0
M  END
$$$$
