FFL.pdb
     RDKit          3D

 31 32  0  0  1  0  0  0  0  0999 V2000
    8.7806  -16.9650   20.5438 N   0  0  0  0  0  0  0  0  0  0  0  0
   10.0907  -16.4184   20.9077 C   0  0  1  0  0  0  0  0  0  0  0  0
   10.4302  -15.3931   19.8496 C   0  0  0  0  0  0  0  0  0  0  0  0
    9.2285  -14.5782   19.6043 C   0  0  0  0  0  0  0  0  0  0  0  0
    9.1970  -13.2739   20.0283 C   0  0  0  0  0  0  0  0  0  0  0  0
    8.0824  -12.4687   19.8174 C   0  0  0  0  0  0  0  0  0  0  0  0
    7.0089  -13.0247   19.1674 C   0  0  0  0  0  0  0  0  0  0  0  0
    7.0113  -14.3228   18.7329 C   0  0  0  0  0  0  0  0  0  0  0  0
    8.1374  -15.0945   18.9600 C   0  0  0  0  0  0  0  0  0  0  0  0
    9.9811  -15.7529   22.2498 C   0  0  0  0  0  0  0  0  0  0  0  0
   10.9926  -15.3445   22.8774 O   0  0  0  0  0  0  0  0  0  0  0  0
    8.7136  -15.5621   22.8594 N   0  0  0  0  0  0  0  0  0  0  0  0
    8.5314  -14.8906   24.1390 C   0  0  1  0  0  0  0  0  0  0  0  0
    7.2753  -14.0980   24.1792 C   0  0  0  0  0  0  0  0  0  0  0  0
    7.0889  -13.3238   25.4156 C   0  0  0  0  0  0  0  0  0  0  0  0
    6.1047  -13.5330   26.3549 C   0  0  0  0  0  0  0  0  0  0  0  0
    5.9903  -12.7623   27.5064 C   0  0  0  0  0  0  0  0  0  0  0  0
    6.8808  -11.7462   27.7402 C   0  0  0  0  0  0  0  0  0  0  0  0
    7.8836  -11.5059   26.8185 C   0  0  0  0  0  0  0  0  0  0  0  0
    7.9731  -12.2854   25.6865 C   0  0  0  0  0  0  0  0  0  0  0  0
    8.5821  -15.8410   25.2643 C   0  0  0  0  0  0  0  0  0  0  0  0
    8.3995  -15.4141   26.4245 O   0  0  0  0  0  0  0  0  0  0  0  0
    5.6847  -19.5368   24.6968 C   0  0  0  0  0  0  0  0  0  0  0  0
    7.1565  -19.4848   24.4320 C   0  0  2  0  0  0  0  0  0  0  0  0
    7.5661  -20.6866   23.5683 C   0  0  0  0  0  0  0  0  0  0  0  0
    7.9322  -19.4673   25.7096 C   0  0  0  0  0  0  0  0  0  0  0  0
    8.5526  -18.1716   26.0643 C   0  0  2  0  0  0  0  0  0  0  0  0
    8.8382  -17.2452   25.0383 N   0  0  0  0  0  0  0  0  0  0  0  0
    9.7873  -18.3496   26.9086 C   0  0  0  0  0  0  0  0  0  0  0  0
   10.9027  -17.6495   26.5272 O   0  0  0  0  0  0  0  0  0  0  0  0
    9.7784  -19.1088   27.9133 O   0  0  0  0  0  0  0  0  0  0  0  0
  2  1  1  6
  2 10  1  0
  3  2  1  0
  3  4  1  0
  4  5  2  0
  5  6  1  0
  7  6  2  0
  8  7  1  0
  9  4  1  0
  9  8  2  0
 10 11  2  0
 12 13  1  0
 12 10  1  0
 13 21  1  0
 13 14  1  6
 15 14  1  0
 16 15  2  0
 17 16  1  0
 18 19  1  0
 18 17  2  0
 19 20  2  0
 20 15  1  0
 21 22  2  0
 21 28  1  0
 24 23  1  1
 24 26  1  0
 25 24  1  0
 27 26  1  6
 27 29  1  0
 28 27  1  0
 29 31  2  0
 29 30  1  0
M  END
$$$$
