FFL.pdb
     RDKit          3D

 31 32  0  0  1  0  0  0  0  0999 V2000
    9.1269  -18.8638   21.2606 N   0  0  0  0  0  0  0  0  0  0  0  0
   10.3958  -18.1421   21.3895 C   0  0  1  0  0  0  0  0  0  0  0  0
   10.8521  -17.8335   19.9814 C   0  0  0  0  0  0  0  0  0  0  0  0
   11.1633  -19.1090   19.3148 C   0  0  0  0  0  0  0  0  0  0  0  0
   11.1198  -20.2768   20.0336 C   0  0  0  0  0  0  0  0  0  0  0  0
   11.4065  -21.5035   19.4437 C   0  0  0  0  0  0  0  0  0  0  0  0
   11.7362  -21.5079   18.1113 C   0  0  0  0  0  0  0  0  0  0  0  0
   11.7878  -20.3592   17.3685 C   0  0  0  0  0  0  0  0  0  0  0  0
   11.4964  -19.1567   17.9885 C   0  0  0  0  0  0  0  0  0  0  0  0
   10.1514  -16.8646   22.1407 C   0  0  0  0  0  0  0  0  0  0  0  0
   11.0479  -15.9936   22.2866 O   0  0  0  0  0  0  0  0  0  0  0  0
    8.8821  -16.5980   22.7172 N   0  0  0  0  0  0  0  0  0  0  0  0
    8.5927  -15.4079   23.5056 C   0  0  1  0  0  0  0  0  0  0  0  0
    7.1350  -15.2285   23.7304 C   0  0  0  0  0  0  0  0  0  0  0  0
    6.7875  -14.0352   24.5166 C   0  0  0  0  0  0  0  0  0  0  0  0
    6.0456  -14.0238   25.6760 C   0  0  0  0  0  0  0  0  0  0  0  0
    5.7579  -12.8548   26.3714 C   0  0  0  0  0  0  0  0  0  0  0  0
    6.2195  -11.6508   25.9052 C   0  0  0  0  0  0  0  0  0  0  0  0
    6.9685  -11.6226   24.7428 C   0  0  0  0  0  0  0  0  0  0  0  0
    7.2384  -12.7963   24.0745 C   0  0  0  0  0  0  0  0  0  0  0  0
    9.3191  -15.4149   24.7879 C   0  0  0  0  0  0  0  0  0  0  0  0
    9.8336  -14.3519   25.1968 O   0  0  0  0  0  0  0  0  0  0  0  0
   11.3904  -13.9188   27.6880 C   0  0  0  0  0  0  0  0  0  0  0  0
    9.9370  -14.2745   27.6752 C   0  0  2  0  0  0  0  0  0  0  0  0
    9.2034  -13.4783   28.7642 C   0  0  0  0  0  0  0  0  0  0  0  0
    9.7414  -15.7428   27.8761 C   0  0  0  0  0  0  0  0  0  0  0  0
   10.1893  -16.6067   26.7614 C   0  0  2  0  0  0  0  0  0  0  0  0
    9.4390  -16.6268   25.5660 N   0  0  0  0  0  0  0  0  0  0  0  0
   10.4219  -18.0269   27.2067 C   0  0  0  0  0  0  0  0  0  0  0  0
    9.8229  -19.0126   26.4657 O   0  0  0  0  0  0  0  0  0  0  0  0
   11.1352  -18.2791   28.2135 O   0  0  0  0  0  0  0  0  0  0  0  0
  2  1  1  6
  2 10  1  0
  3  2  1  0
  3  4  1  0
  4  5  2  0
  5  6  1  0
  7  6  2  0
  8  7  1  0
  9  4  1  0
  9  8  2  0
 10 11  2  0
 12 13  1  0
 12 10  1  0
 13 21  1  0
 13 14  1  1
 15 14  1  0
 16 15  2  0
 17 16  1  0
 18 19  1  0
 18 17  2  0
 19 20  2  0
 20 15  1  0
 21 22  2  0
 21 28  1  0
 24 23  1  1
 24 26  1  0
 25 24  1  0
 27 26  1  1
 27 29  1  0
 28 27  1  0
 29 31  2  0
 29 30  1  0
M  END
$$$$
