FFL.pdb
     RDKit          3D

 31 32  0  0  1  0  0  0  0  0999 V2000
    8.9096  -18.2743   20.6294 N   0  0  0  0  0  0  0  0  0  0  0  0
    9.0336  -16.9033   20.1268 C   0  0  1  0  0  0  0  0  0  0  0  0
    7.7567  -16.6124   19.3713 C   0  0  0  0  0  0  0  0  0  0  0  0
    7.7253  -15.1714   19.0698 C   0  0  0  0  0  0  0  0  0  0  0  0
    6.9520  -14.3363   19.8356 C   0  0  0  0  0  0  0  0  0  0  0  0
    6.8931  -12.9691   19.5857 C   0  0  0  0  0  0  0  0  0  0  0  0
    7.6382  -12.4798   18.5420 C   0  0  0  0  0  0  0  0  0  0  0  0
    8.4189  -13.2884   17.7607 C   0  0  0  0  0  0  0  0  0  0  0  0
    8.4532  -14.6438   18.0383 C   0  0  0  0  0  0  0  0  0  0  0  0
    9.1614  -15.9693   21.2962 C   0  0  0  0  0  0  0  0  0  0  0  0
   10.0404  -15.0698   21.3395 O   0  0  0  0  0  0  0  0  0  0  0  0
    8.2808  -16.0755   22.4042 N   0  0  0  0  0  0  0  0  0  0  0  0
    8.2523  -15.1179   23.5014 C   0  0  1  0  0  0  0  0  0  0  0  0
    6.9512  -15.1300   24.2187 C   0  0  0  0  0  0  0  0  0  0  0  0
    6.8349  -14.1143   25.2758 C   0  0  0  0  0  0  0  0  0  0  0  0
    6.1840  -14.2754   26.4780 C   0  0  0  0  0  0  0  0  0  0  0  0
    6.1170  -13.2698   27.4358 C   0  0  0  0  0  0  0  0  0  0  0  0
    6.7147  -12.0588   27.1985 C   0  0  0  0  0  0  0  0  0  0  0  0
    7.3781  -11.8597   26.0014 C   0  0  0  0  0  0  0  0  0  0  0  0
    7.4287  -12.8738   25.0707 C   0  0  0  0  0  0  0  0  0  0  0  0
    9.3660  -15.3349   24.4419 C   0  0  0  0  0  0  0  0  0  0  0  0
   10.2857  -14.4904   24.4947 O   0  0  0  0  0  0  0  0  0  0  0  0
    9.8866  -14.3629   29.7366 C   0  0  0  0  0  0  0  0  0  0  0  0
   10.4705  -15.3436   28.7690 C   0  0  2  0  0  0  0  0  0  0  0  0
   11.9368  -14.9813   28.4918 C   0  0  0  0  0  0  0  0  0  0  0  0
    9.6872  -15.3741   27.4963 C   0  0  0  0  0  0  0  0  0  0  0  0
   10.0706  -16.4306   26.5337 C   0  0  2  0  0  0  0  0  0  0  0  0
    9.4016  -16.5024   25.2929 N   0  0  0  0  0  0  0  0  0  0  0  0
   10.0618  -17.7985   27.1644 C   0  0  0  0  0  0  0  0  0  0  0  0
    9.1495  -18.6980   26.6762 O   0  0  0  0  0  0  0  0  0  0  0  0
   10.8607  -18.0858   28.0945 O   0  0  0  0  0  0  0  0  0  0  0  0
  2  1  1  1
  2 10  1  0
  3  2  1  0
  3  4  1  0
  4  5  2  0
  5  6  1  0
  7  6  2  0
  8  7  1  0
  9  4  1  0
  9  8  2  0
 10 11  2  0
 12 13  1  0
 12 10  1  0
 13 21  1  0
 13 14  1  1
 15 14  1  0
 16 15  2  0
 17 16  1  0
 18 19  1  0
 18 17  2  0
 19 20  2  0
 20 15  1  0
 21 22  2  0
 21 28  1  0
 24 23  1  1
 24 26  1  0
 25 24  1  0
 27 26  1  1
 27 29  1  0
 28 27  1  0
 29 31  2  0
 29 30  1  0
M  END
$$$$
