FFL.pdb
     RDKit          3D

 31 32  0  0  1  0  0  0  0  0999 V2000
    9.5098  -18.0961   20.1833 N   0  0  0  0  0  0  0  0  0  0  0  0
    9.5108  -16.6535   19.9261 C   0  0  1  0  0  0  0  0  0  0  0  0
    8.2671  -16.3673   19.1153 C   0  0  0  0  0  0  0  0  0  0  0  0
    8.0901  -14.9067   19.0550 C   0  0  0  0  0  0  0  0  0  0  0  0
    8.8987  -14.1600   18.2360 C   0  0  0  0  0  0  0  0  0  0  0  0
    8.7658  -12.7781   18.1487 C   0  0  0  0  0  0  0  0  0  0  0  0
    7.7938  -12.1822   18.9129 C   0  0  0  0  0  0  0  0  0  0  0  0
    6.9724  -12.9008   19.7391 C   0  0  0  0  0  0  0  0  0  0  0  0
    7.1330  -14.2740   19.8007 C   0  0  0  0  0  0  0  0  0  0  0  0
    9.4445  -15.9280   21.2396 C   0  0  0  0  0  0  0  0  0  0  0  0
   10.0410  -14.8365   21.4306 O   0  0  0  0  0  0  0  0  0  0  0  0
    8.6954  -16.4607   22.3211 N   0  0  0  0  0  0  0  0  0  0  0  0
    8.5048  -15.7635   23.5858 C   0  0  1  0  0  0  0  0  0  0  0  0
    7.0799  -15.4145   23.8212 C   0  0  0  0  0  0  0  0  0  0  0  0
    6.8659  -14.4544   24.9143 C   0  0  0  0  0  0  0  0  0  0  0  0
    7.2034  -13.1201   24.8906 C   0  0  0  0  0  0  0  0  0  0  0  0
    6.9673  -12.2670   25.9627 C   0  0  0  0  0  0  0  0  0  0  0  0
    6.3756  -12.7486   27.1020 C   0  0  0  0  0  0  0  0  0  0  0  0
    6.0224  -14.0844   27.1629 C   0  0  0  0  0  0  0  0  0  0  0  0
    6.2682  -14.9065   26.0856 C   0  0  0  0  0  0  0  0  0  0  0  0
    9.0447  -16.5353   24.7193 C   0  0  0  0  0  0  0  0  0  0  0  0
    9.3487  -17.7346   24.5436 O   0  0  0  0  0  0  0  0  0  0  0  0
   11.3803  -13.8983   27.2420 C   0  0  0  0  0  0  0  0  0  0  0  0
   10.3130  -14.4010   28.1624 C   0  0  2  0  0  0  0  0  0  0  0  0
   10.5000  -13.7797   29.5542 C   0  0  0  0  0  0  0  0  0  0  0  0
   10.3346  -15.8933   28.2460 C   0  0  0  0  0  0  0  0  0  0  0  0
    9.9560  -16.6095   27.0077 C   0  0  2  0  0  0  0  0  0  0  0  0
    9.2229  -15.9227   26.0160 N   0  0  0  0  0  0  0  0  0  0  0  0
    9.2631  -17.9146   27.3001 C   0  0  0  0  0  0  0  0  0  0  0  0
    9.9520  -18.8226   28.0621 O   0  0  0  0  0  0  0  0  0  0  0  0
    8.1064  -18.1446   26.8583 O   0  0  0  0  0  0  0  0  0  0  0  0
  2  1  1  1
  2 10  1  0
  3  2  1  0
  3  4  1  0
  4  5  2  0
  5  6  1  0
  7  6  2  0
  8  7  1  0
  9  4  1  0
  9  8  2  0
 10 11  2  0
 12 13  1  0
 12 10  1  0
 13 21  1  0
 13 14  1  1
 15 14  1  0
 16 15  2  0
 17 16  1  0
 18 19  1  0
 18 17  2  0
 19 20  2  0
 20 15  1  0
 21 22  2  0
 21 28  1  0
 24 23  1  6
 24 26  1  0
 25 24  1  0
 27 26  1  1
 27 29  1  0
 28 27  1  0
 29 31  2  0
 29 30  1  0
M  END
$$$$
