FFL.pdb
     RDKit          3D

 31 32  0  0  1  0  0  0  0  0999 V2000
   11.2704  -17.1413   19.0985 N   0  0  0  0  0  0  0  0  0  0  0  0
   10.3423  -17.6884   20.0919 C   0  0  1  0  0  0  0  0  0  0  0  0
   10.9886  -18.9460   20.6274 C   0  0  0  0  0  0  0  0  0  0  0  0
   10.7209  -20.0358   19.6741 C   0  0  0  0  0  0  0  0  0  0  0  0
   11.6489  -20.3339   18.7087 C   0  0  0  0  0  0  0  0  0  0  0  0
   11.4366  -21.3550   17.7882 C   0  0  0  0  0  0  0  0  0  0  0  0
   10.2617  -22.0589   17.8777 C   0  0  0  0  0  0  0  0  0  0  0  0
    9.3173  -21.7845   18.8298 C   0  0  0  0  0  0  0  0  0  0  0  0
    9.5622  -20.7615   19.7292 C   0  0  0  0  0  0  0  0  0  0  0  0
   10.1736  -16.6874   21.1990 C   0  0  0  0  0  0  0  0  0  0  0  0
   11.1036  -15.9152   21.5486 O   0  0  0  0  0  0  0  0  0  0  0  0
    8.9408  -16.5814   21.8943 N   0  0  0  0  0  0  0  0  0  0  0  0
    8.7409  -15.7118   23.0456 C   0  0  1  0  0  0  0  0  0  0  0  0
    7.3321  -15.2543   23.1613 C   0  0  0  0  0  0  0  0  0  0  0  0
    7.0507  -14.4648   24.3697 C   0  0  0  0  0  0  0  0  0  0  0  0
    6.4215  -14.9263   25.5036 C   0  0  0  0  0  0  0  0  0  0  0  0
    6.1913  -14.1221   26.6142 C   0  0  0  0  0  0  0  0  0  0  0  0
    6.5972  -12.8125   26.6059 C   0  0  0  0  0  0  0  0  0  0  0  0
    7.2329  -12.3129   25.4837 C   0  0  0  0  0  0  0  0  0  0  0  0
    7.4479  -13.1325   24.3978 C   0  0  0  0  0  0  0  0  0  0  0  0
    9.1826  -16.3546   24.2961 C   0  0  0  0  0  0  0  0  0  0  0  0
    9.0762  -17.5947   24.4085 O   0  0  0  0  0  0  0  0  0  0  0  0
    9.1041  -13.9314   27.7608 C   0  0  0  0  0  0  0  0  0  0  0  0
   10.1368  -14.7548   28.4641 C   0  0  2  0  0  0  0  0  0  0  0  0
   10.9318  -13.8656   29.4312 C   0  0  0  0  0  0  0  0  0  0  0  0
   11.0528  -15.4177   27.4864 C   0  0  0  0  0  0  0  0  0  0  0  0
   10.3929  -16.2283   26.4390 C   0  0  2  0  0  0  0  0  0  0  0  0
    9.7313  -15.5711   25.3794 N   0  0  0  0  0  0  0  0  0  0  0  0
    9.4597  -17.2555   27.0248 C   0  0  0  0  0  0  0  0  0  0  0  0
   10.0206  -18.2097   27.8338 O   0  0  0  0  0  0  0  0  0  0  0  0
    8.2261  -17.2248   26.7735 O   0  0  0  0  0  0  0  0  0  0  0  0
  2  1  1  6
  2 10  1  0
  3  2  1  0
  3  4  1  0
  4  5  2  0
  5  6  1  0
  7  6  2  0
  8  7  1  0
  9  4  1  0
  9  8  2  0
 10 11  2  0
 12 13  1  0
 12 10  1  0
 13 21  1  0
 13 14  1  1
 15 14  1  0
 16 15  2  0
 17 16  1  0
 18 19  1  0
 18 17  2  0
 19 20  2  0
 20 15  1  0
 21 22  2  0
 21 28  1  0
 24 23  1  6
 24 26  1  0
 25 24  1  0
 27 26  1  1
 27 29  1  0
 28 27  1  0
 29 31  2  0
 29 30  1  0
M  END
$$$$
