FFL.pdb
     RDKit          3D

 31 32  0  0  1  0  0  0  0  0999 V2000
    5.7111  -18.7200   22.9999 N   0  0  0  0  0  0  0  0  0  0  0  0
    6.1681  -17.4603   23.5931 C   0  0  1  0  0  0  0  0  0  0  0  0
    5.8816  -17.5617   25.0742 C   0  0  0  0  0  0  0  0  0  0  0  0
    6.2868  -16.2934   25.7032 C   0  0  0  0  0  0  0  0  0  0  0  0
    7.1966  -16.3073   26.7300 C   0  0  0  0  0  0  0  0  0  0  0  0
    7.6069  -15.1329   27.3523 C   0  0  0  0  0  0  0  0  0  0  0  0
    7.0690  -13.9526   26.9032 C   0  0  0  0  0  0  0  0  0  0  0  0
    6.1596  -13.9074   25.8811 C   0  0  0  0  0  0  0  0  0  0  0  0
    5.7742  -15.0956   25.2852 C   0  0  0  0  0  0  0  0  0  0  0  0
    7.6466  -17.3266   23.3650 C   0  0  0  0  0  0  0  0  0  0  0  0
    8.3987  -18.3294   23.2541 O   0  0  0  0  0  0  0  0  0  0  0  0
    8.2485  -16.0450   23.2661 N   0  0  0  0  0  0  0  0  0  0  0  0
    9.6545  -15.8412   22.9447 C   0  0  1  0  0  0  0  0  0  0  0  0
    9.9104  -14.4844   22.3962 C   0  0  0  0  0  0  0  0  0  0  0  0
    8.9961  -14.0877   21.3148 C   0  0  0  0  0  0  0  0  0  0  0  0
    8.5291  -14.9097   20.3143 C   0  0  0  0  0  0  0  0  0  0  0  0
    7.6606  -14.4666   19.3232 C   0  0  0  0  0  0  0  0  0  0  0  0
    7.2366  -13.1626   19.3187 C   0  0  0  0  0  0  0  0  0  0  0  0
    7.6848  -12.3067   20.3083 C   0  0  0  0  0  0  0  0  0  0  0  0
    8.5449  -12.7729   21.2778 C   0  0  0  0  0  0  0  0  0  0  0  0
   10.5218  -16.1038   24.1070 C   0  0  0  0  0  0  0  0  0  0  0  0
   11.7603  -16.0070   23.9710 O   0  0  0  0  0  0  0  0  0  0  0  0
    9.6044  -13.7844   27.3776 C   0  0  0  0  0  0  0  0  0  0  0  0
    9.1413  -15.1459   27.7911 C   0  0  2  0  0  0  0  0  0  0  0  0
    8.4566  -15.0611   29.1630 C   0  0  0  0  0  0  0  0  0  0  0  0
   10.2813  -16.1119   27.8317 C   0  0  0  0  0  0  0  0  0  0  0  0
   10.8014  -16.5440   26.5155 C   0  0  2  0  0  0  0  0  0  0  0  0
    9.9573  -16.4675   25.3867 N   0  0  0  0  0  0  0  0  0  0  0  0
   11.4042  -17.9232   26.5723 C   0  0  0  0  0  0  0  0  0  0  0  0
   11.3827  -18.6551   25.4132 O   0  0  0  0  0  0  0  0  0  0  0  0
   11.9001  -18.3675   27.6412 O   0  0  0  0  0  0  0  0  0  0  0  0
  2  1  1  6
  2 10  1  0
  3  2  1  0
  3  4  1  0
  4  5  2  0
  5  6  1  0
  7  6  2  0
  8  7  1  0
  9  4  1  0
  9  8  2  0
 10 11  2  0
 12 13  1  0
 12 10  1  0
 13 21  1  0
 13 14  1  1
 15 14  1  0
 16 15  2  0
 17 16  1  0
 18 19  1  0
 18 17  2  0
 19 20  2  0
 20 15  1  0
 21 22  2  0
 21 28  1  0
 24 23  1  1
 24 26  1  0
 25 24  1  0
 27 26  1  1
 27 29  1  0
 28 27  1  0
 29 31  2  0
 29 30  1  0
M  END
$$$$
