FFL.pdb
     RDKit          3D

 31 32  0  0  1  0  0  0  0  0999 V2000
   10.6899  -16.2324   21.4470 N   0  0  0  0  0  0  0  0  0  0  0  0
    9.7686  -15.4985   22.3188 C   0  0  1  0  0  0  0  0  0  0  0  0
    8.4267  -15.5105   21.6222 C   0  0  0  0  0  0  0  0  0  0  0  0
    8.2329  -14.1965   20.9865 C   0  0  0  0  0  0  0  0  0  0  0  0
    7.9761  -13.0981   21.7674 C   0  0  0  0  0  0  0  0  0  0  0  0
    7.7867  -11.8384   21.2085 C   0  0  0  0  0  0  0  0  0  0  0  0
    7.8654  -11.7293   19.8425 C   0  0  0  0  0  0  0  0  0  0  0  0
    8.1201  -12.8070   19.0379 C   0  0  0  0  0  0  0  0  0  0  0  0
    8.3033  -14.0451   19.6285 C   0  0  0  0  0  0  0  0  0  0  0  0
    9.6702  -16.2181   23.6335 C   0  0  0  0  0  0  0  0  0  0  0  0
   10.5479  -16.0991   24.5274 O   0  0  0  0  0  0  0  0  0  0  0  0
    8.5669  -17.0669   23.9107 N   0  0  0  0  0  0  0  0  0  0  0  0
    7.7183  -16.9222   25.0858 C   0  0  1  0  0  0  0  0  0  0  0  0
    7.1958  -15.5389   25.2297 C   0  0  0  0  0  0  0  0  0  0  0  0
    7.9029  -14.7273   26.2317 C   0  0  0  0  0  0  0  0  0  0  0  0
    7.6500  -13.4053   26.5198 C   0  0  0  0  0  0  0  0  0  0  0  0
    8.3578  -12.6991   27.4860 C   0  0  0  0  0  0  0  0  0  0  0  0
    9.3532  -13.3207   28.1949 C   0  0  0  0  0  0  0  0  0  0  0  0
    9.6361  -14.6490   27.9329 C   0  0  0  0  0  0  0  0  0  0  0  0
    8.9188  -15.3240   26.9703 C   0  0  0  0  0  0  0  0  0  0  0  0
    6.6132  -17.8972   25.0822 C   0  0  0  0  0  0  0  0  0  0  0  0
    5.8818  -17.9855   26.0917 O   0  0  0  0  0  0  0  0  0  0  0  0
    3.9849  -17.8613   22.0746 C   0  0  0  0  0  0  0  0  0  0  0  0
    4.6704  -19.1409   21.7112 C   0  0  2  0  0  0  0  0  0  0  0  0
    4.0241  -19.7295   20.4487 C   0  0  0  0  0  0  0  0  0  0  0  0
    4.6106  -20.1213   22.8379 C   0  0  0  0  0  0  0  0  0  0  0  0
    5.4190  -19.7779   24.0288 C   0  0  2  0  0  0  0  0  0  0  0  0
    6.3723  -18.7413   23.9341 N   0  0  0  0  0  0  0  0  0  0  0  0
    6.0845  -20.9895   24.6274 C   0  0  0  0  0  0  0  0  0  0  0  0
    5.2872  -22.0801   24.8612 O   0  0  0  0  0  0  0  0  0  0  0  0
    7.3152  -20.9843   24.8943 O   0  0  0  0  0  0  0  0  0  0  0  0
  2  1  1  6
  2 10  1  0
  3  2  1  0
  3  4  1  0
  4  5  2  0
  5  6  1  0
  7  6  2  0
  8  7  1  0
  9  4  1  0
  9  8  2  0
 10 11  2  0
 12 13  1  0
 12 10  1  0
 13 21  1  0
 13 14  1  6
 15 14  1  0
 16 15  2  0
 17 16  1  0
 18 19  1  0
 18 17  2  0
 19 20  2  0
 20 15  1  0
 21 22  2  0
 21 28  1  0
 24 23  1  1
 24 26  1  0
 25 24  1  0
 27 26  1  6
 27 29  1  0
 28 27  1  0
 29 31  2  0
 29 30  1  0
M  END
$$$$
