FFL.pdb
     RDKit          3D

 31 32  0  0  1  0  0  0  0  0999 V2000
   12.0141  -17.3514   19.4790 N   0  0  0  0  0  0  0  0  0  0  0  0
   11.1703  -17.9642   20.5085 C   0  0  1  0  0  0  0  0  0  0  0  0
   11.9876  -19.0822   21.1152 C   0  0  0  0  0  0  0  0  0  0  0  0
   11.9847  -20.2116   20.1704 C   0  0  0  0  0  0  0  0  0  0  0  0
   13.0613  -20.4041   19.3421 C   0  0  0  0  0  0  0  0  0  0  0  0
   13.1000  -21.4578   18.4348 C   0  0  0  0  0  0  0  0  0  0  0  0
   12.0198  -22.3038   18.3948 C   0  0  0  0  0  0  0  0  0  0  0  0
   10.9318  -22.1371   19.2085 C   0  0  0  0  0  0  0  0  0  0  0  0
   10.9277  -21.0777   20.0991 C   0  0  0  0  0  0  0  0  0  0  0  0
   10.8570  -16.9326   21.5542 C   0  0  0  0  0  0  0  0  0  0  0  0
   11.7041  -16.0791   21.9254 O   0  0  0  0  0  0  0  0  0  0  0  0
    9.5762  -16.8892   22.1642 N   0  0  0  0  0  0  0  0  0  0  0  0
    9.2205  -15.9487   23.2181 C   0  0  1  0  0  0  0  0  0  0  0  0
    7.7964  -15.5330   23.1375 C   0  0  0  0  0  0  0  0  0  0  0  0
    7.3987  -14.5409   24.1477 C   0  0  0  0  0  0  0  0  0  0  0  0
    7.6413  -13.1874   24.0849 C   0  0  0  0  0  0  0  0  0  0  0  0
    7.2316  -12.3047   25.0779 C   0  0  0  0  0  0  0  0  0  0  0  0
    6.5569  -12.7752   26.1749 C   0  0  0  0  0  0  0  0  0  0  0  0
    6.2950  -14.1297   26.2731 C   0  0  0  0  0  0  0  0  0  0  0  0
    6.7126  -14.9811   25.2742 C   0  0  0  0  0  0  0  0  0  0  0  0
    9.5297  -16.4871   24.5547 C   0  0  0  0  0  0  0  0  0  0  0  0
    9.3779  -17.7098   24.7637 O   0  0  0  0  0  0  0  0  0  0  0  0
    9.4337  -13.4280   27.3529 C   0  0  0  0  0  0  0  0  0  0  0  0
    9.7608  -14.4689   28.3770 C   0  0  2  0  0  0  0  0  0  0  0  0
   10.1049  -13.7884   29.7098 C   0  0  0  0  0  0  0  0  0  0  0  0
   10.8915  -15.3341   27.9216 C   0  0  0  0  0  0  0  0  0  0  0  0
   10.6085  -16.1937   26.7508 C   0  0  2  0  0  0  0  0  0  0  0  0
   10.0012  -15.6220   25.6121 N   0  0  0  0  0  0  0  0  0  0  0  0
    9.8424  -17.4331   27.1329 C   0  0  0  0  0  0  0  0  0  0  0  0
   10.4304  -18.2643   28.0511 O   0  0  0  0  0  0  0  0  0  0  0  0
    8.7171  -17.6791   26.6239 O   0  0  0  0  0  0  0  0  0  0  0  0
  2  1  1  6
  2 10  1  0
  3  2  1  0
  3  4  1  0
  4  5  2  0
  5  6  1  0
  7  6  2  0
  8  7  1  0
  9  4  1  0
  9  8  2  0
 10 11  2  0
 12 13  1  0
 12 10  1  0
 13 21  1  0
 13 14  1  1
 15 14  1  0
 16 15  2  0
 17 16  1  0
 18 19  1  0
 18 17  2  0
 19 20  2  0
 20 15  1  0
 21 22  2  0
 21 28  1  0
 24 23  1  6
 24 26  1  0
 25 24  1  0
 27 26  1  1
 27 29  1  0
 28 27  1  0
 29 31  2  0
 29 30  1  0
M  END
$$$$
