FFL.pdb
     RDKit          3D

 31 32  0  0  1  0  0  0  0  0999 V2000
    6.2434  -16.7916   19.5964 N   0  0  0  0  0  0  0  0  0  0  0  0
    7.4369  -17.3314   20.2535 C   0  0  1  0  0  0  0  0  0  0  0  0
    8.6035  -16.5097   19.7534 C   0  0  0  0  0  0  0  0  0  0  0  0
    8.3291  -15.0962   20.0620 C   0  0  0  0  0  0  0  0  0  0  0  0
    8.8260  -14.5467   21.2167 C   0  0  0  0  0  0  0  0  0  0  0  0
    8.5910  -13.2160   21.5470 C   0  0  0  0  0  0  0  0  0  0  0  0
    7.8414  -12.4662   20.6753 C   0  0  0  0  0  0  0  0  0  0  0  0
    7.3325  -12.9868   19.5161 C   0  0  0  0  0  0  0  0  0  0  0  0
    7.5864  -14.3146   19.2196 C   0  0  0  0  0  0  0  0  0  0  0  0
    7.2898  -17.1618   21.7387 C   0  0  0  0  0  0  0  0  0  0  0  0
    6.4251  -16.3980   22.2413 O   0  0  0  0  0  0  0  0  0  0  0  0
    8.1350  -17.8691   22.6330 N   0  0  0  0  0  0  0  0  0  0  0  0
    7.9308  -17.9006   24.0749 C   0  0  1  0  0  0  0  0  0  0  0  0
    8.3339  -19.2022   24.6671 C   0  0  0  0  0  0  0  0  0  0  0  0
    8.1242  -19.2956   26.1197 C   0  0  0  0  0  0  0  0  0  0  0  0
    9.0911  -19.1259   27.0846 C   0  0  0  0  0  0  0  0  0  0  0  0
    8.8198  -19.2251   28.4446 C   0  0  0  0  0  0  0  0  0  0  0  0
    7.5458  -19.5024   28.8690 C   0  0  0  0  0  0  0  0  0  0  0  0
    6.5475  -19.6795   27.9284 C   0  0  0  0  0  0  0  0  0  0  0  0
    6.8450  -19.5755   26.5876 C   0  0  0  0  0  0  0  0  0  0  0  0
    8.6240  -16.7871   24.7470 C   0  0  0  0  0  0  0  0  0  0  0  0
    9.7627  -16.4574   24.3515 O   0  0  0  0  0  0  0  0  0  0  0  0
    6.7913  -12.7132   25.4457 C   0  0  0  0  0  0  0  0  0  0  0  0
    6.5807  -13.5752   26.6505 C   0  0  2  0  0  0  0  0  0  0  0  0
    5.7567  -12.8072   27.6942 C   0  0  0  0  0  0  0  0  0  0  0  0
    7.8858  -14.0148   27.2316 C   0  0  0  0  0  0  0  0  0  0  0  0
    8.6632  -14.9692   26.4102 C   0  0  2  0  0  0  0  0  0  0  0  0
    8.0041  -16.0827   25.8461 N   0  0  0  0  0  0  0  0  0  0  0  0
    9.8981  -15.4528   27.1245 C   0  0  0  0  0  0  0  0  0  0  0  0
   10.0669  -16.8103   27.2165 O   0  0  0  0  0  0  0  0  0  0  0  0
   10.7257  -14.6360   27.6080 O   0  0  0  0  0  0  0  0  0  0  0  0
  2  1  1  6
  2 10  1  0
  3  2  1  0
  3  4  1  0
  4  5  2  0
  5  6  1  0
  7  6  2  0
  8  7  1  0
  9  4  1  0
  9  8  2  0
 10 11  2  0
 12 13  1  0
 12 10  1  0
 13 21  1  0
 13 14  1  1
 15 14  1  0
 16 15  2  0
 17 16  1  0
 18 19  1  0
 18 17  2  0
 19 20  2  0
 20 15  1  0
 21 22  2  0
 21 28  1  0
 24 23  1  6
 24 26  1  0
 25 24  1  0
 27 26  1  1
 27 29  1  0
 28 27  1  0
 29 31  2  0
 29 30  1  0
M  END
$$$$
