DTR.pdb
     RDKit          3D

 27 26  0  0  1  0  0  0  0  0999 V2000
    5.8435  -18.2956   16.3489 N   0  0  0  0  0  0  0  0  0  0  0  0
    5.7576  -19.6491   16.8614 C   0  0  1  0  0  0  0  0  0  0  0  0
    5.4701  -20.5463   15.6498 C   0  0  0  0  0  0  0  0  0  0  0  0
    4.2505  -20.0569   14.9984 C   0  0  0  0  0  0  0  0  0  0  0  0
    3.7350  -18.9649   15.3711 O   0  0  0  0  0  0  0  0  0  0  0  0
    7.1091  -20.0290   17.4192 C   0  0  0  0  0  0  0  0  0  0  0  0
    7.3744  -21.2355   17.5984 O   0  0  0  0  0  0  0  0  0  0  0  0
    3.6347  -20.7654   13.9697 O   0  0  0  0  0  0  0  0  0  0  0  0
   10.4262  -18.6850   16.0924 C   0  0  0  0  0  0  0  0  0  0  0  0
   10.4530  -18.5955   17.5973 C   0  0  1  0  0  0  0  0  0  0  0  0
   10.5563  -17.2507   17.8949 O   0  0  0  0  0  0  0  0  0  0  0  0
    9.3562  -19.3371   18.2664 C   0  0  2  0  0  0  0  0  0  0  0  0
    8.0624  -19.0453   17.7353 N   0  0  0  0  0  0  0  0  0  0  0  0
    9.4255  -19.4093   19.7496 C   0  0  0  0  0  0  0  0  0  0  0  0
    8.5285  -18.9616   20.5309 O   0  0  0  0  0  0  0  0  0  0  0  0
    9.6574  -25.3527   25.5050 N   0  0  0  0  0  0  0  0  0  0  0  0
    9.9253  -24.2345   26.3494 C   0  0  0  0  0  0  0  0  0  0  0  0
   10.2335  -24.3546   27.5879 N   0  0  0  0  0  0  0  0  0  0  0  0
    9.8471  -22.9471   25.7818 N   0  0  0  0  0  0  0  0  0  0  0  0
    9.8149  -22.8226   24.3140 C   0  0  0  0  0  0  0  0  0  0  0  0
    9.7308  -21.3916   23.9074 C   0  0  0  0  0  0  0  0  0  0  0  0
    9.6803  -21.1233   22.4545 C   0  0  0  0  0  0  0  0  0  0  0  0
   10.5878  -20.0795   21.9035 C   0  0  2  0  0  0  0  0  0  0  0  0
   10.5173  -19.9976   20.4446 N   0  0  0  0  0  0  0  0  0  0  0  0
   11.9983  -20.1884   22.2859 C   0  0  0  0  0  0  0  0  0  0  0  0
   12.4942  -19.7562   23.5121 O   0  0  0  0  0  0  0  0  0  0  0  0
   12.8304  -20.6933   21.4900 O   0  0  0  0  0  0  0  0  0  0  0  0
  2  1  1  6
  3  4  1  0
  3  2  1  0
  4  5  2  0
  6  7  2  0
  6  2  1  0
  8  4  1  0
 10  9  1  6
 10 12  1  0
 11 10  1  0
 12 13  1  1
 13  6  1  0
 14 12  1  0
 15 14  2  0
 16 17  1  0
 17 18  2  0
 19 17  1  0
 19 20  1  0
 21 20  1  0
 23 22  1  6
 22 21  1  0
 23 24  1  0
 24 14  1  0
 25 23  1  0
 26 25  1  0
 27 25  2  0
M  END
$$$$
