DTR.pdb
     RDKit          3D

 27 26  0  0  1  0  0  0  0  0999 V2000
    9.2116  -14.9524   14.7308 N   0  0  0  0  0  0  0  0  0  0  0  0
    9.2223  -15.9271   15.8039 C   0  0  1  0  0  0  0  0  0  0  0  0
   10.4164  -16.8512   15.5287 C   0  0  0  0  0  0  0  0  0  0  0  0
   10.0672  -17.7258   14.4042 C   0  0  0  0  0  0  0  0  0  0  0  0
    8.9470  -17.5971   13.8335 O   0  0  0  0  0  0  0  0  0  0  0  0
    9.4800  -15.1976   17.1014 C   0  0  0  0  0  0  0  0  0  0  0  0
   10.4129  -14.3702   17.1575 O   0  0  0  0  0  0  0  0  0  0  0  0
   10.9410  -18.7053   13.9392 O   0  0  0  0  0  0  0  0  0  0  0  0
    7.2425  -13.0227   19.0369 C   0  0  0  0  0  0  0  0  0  0  0  0
    7.7588  -14.0515   20.0108 C   0  0  1  0  0  0  0  0  0  0  0  0
    6.6557  -14.7783   20.4141 O   0  0  0  0  0  0  0  0  0  0  0  0
    8.9158  -14.8322   19.5085 C   0  0  2  0  0  0  0  0  0  0  0  0
    8.6857  -15.4394   18.2359 N   0  0  0  0  0  0  0  0  0  0  0  0
    9.6022  -15.6976   20.5034 C   0  0  0  0  0  0  0  0  0  0  0  0
    9.7932  -16.9454   20.3559 O   0  0  0  0  0  0  0  0  0  0  0  0
   16.1064  -18.5265   23.9349 N   0  0  0  0  0  0  0  0  0  0  0  0
   16.0746  -17.7185   22.7596 C   0  0  0  0  0  0  0  0  0  0  0  0
   16.8361  -17.9270   21.7498 N   0  0  0  0  0  0  0  0  0  0  0  0
   15.1576  -16.6492   22.7204 N   0  0  0  0  0  0  0  0  0  0  0  0
   14.4300  -16.2965   23.9521 C   0  0  0  0  0  0  0  0  0  0  0  0
   12.9816  -16.6206   23.8209 C   0  0  0  0  0  0  0  0  0  0  0  0
   12.2178  -15.8284   22.8340 C   0  0  0  0  0  0  0  0  0  0  0  0
   10.7498  -16.0574   22.7379 C   0  0  2  0  0  0  0  0  0  0  0  0
   10.1201  -15.2027   21.7314 N   0  0  0  0  0  0  0  0  0  0  0  0
    9.9959  -15.9213   23.9871 C   0  0  0  0  0  0  0  0  0  0  0  0
   10.1796  -16.7546   25.0863 O   0  0  0  0  0  0  0  0  0  0  0  0
    9.1313  -15.0163   24.1066 O   0  0  0  0  0  0  0  0  0  0  0  0
  2  1  1  6
  3  4  1  0
  3  2  1  0
  4  5  2  0
  6  7  2  0
  6  2  1  0
  8  4  1  0
 10  9  1  6
 10 12  1  0
 11 10  1  0
 12 13  1  6
 13  6  1  0
 14 12  1  0
 15 14  2  0
 16 17  1  0
 17 18  2  0
 19 17  1  0
 19 20  1  0
 21 20  1  0
 23 22  1  1
 22 21  1  0
 23 24  1  0
 24 14  1  0
 25 23  1  0
 26 25  1  0
 27 25  2  0
M  END
$$$$
