DTR.pdb
     RDKit          3D

 27 26  0  0  1  0  0  0  0  0999 V2000
   11.6639  -15.7427   17.3321 N   0  0  0  0  0  0  0  0  0  0  0  0
   12.5119  -15.2015   18.3760 C   0  0  1  0  0  0  0  0  0  0  0  0
   13.2921  -14.0457   17.7350 C   0  0  0  0  0  0  0  0  0  0  0  0
   14.5108  -14.5962   17.1324 C   0  0  0  0  0  0  0  0  0  0  0  0
   14.7232  -15.8413   17.1724 O   0  0  0  0  0  0  0  0  0  0  0  0
   11.6240  -14.6292   19.4559 C   0  0  0  0  0  0  0  0  0  0  0  0
   12.1491  -14.0645   20.4374 O   0  0  0  0  0  0  0  0  0  0  0  0
   15.4529  -13.7810   16.5100 O   0  0  0  0  0  0  0  0  0  0  0  0
    8.2879  -12.5427   18.9273 C   0  0  0  0  0  0  0  0  0  0  0  0
    8.0762  -13.6951   19.8763 C   0  0  1  0  0  0  0  0  0  0  0  0
    7.2058  -14.5566   19.2375 O   0  0  0  0  0  0  0  0  0  0  0  0
    9.3325  -14.2902   20.3940 C   0  0  2  0  0  0  0  0  0  0  0  0
   10.2243  -14.7256   19.3662 N   0  0  0  0  0  0  0  0  0  0  0  0
    9.1889  -15.2262   21.5400 C   0  0  0  0  0  0  0  0  0  0  0  0
    9.5077  -16.4560   21.5043 O   0  0  0  0  0  0  0  0  0  0  0  0
    9.8027  -19.9309   26.7718 N   0  0  0  0  0  0  0  0  0  0  0  0
   11.2168  -19.8896   26.5873 C   0  0  0  0  0  0  0  0  0  0  0  0
   11.9949  -20.8414   26.9501 N   0  0  0  0  0  0  0  0  0  0  0  0
   11.7677  -18.7464   25.9746 N   0  0  0  0  0  0  0  0  0  0  0  0
   11.0924  -17.4501   26.1602 C   0  0  0  0  0  0  0  0  0  0  0  0
    9.8245  -17.3988   25.3791 C   0  0  0  0  0  0  0  0  0  0  0  0
    9.8024  -16.4790   24.2221 C   0  0  0  0  0  0  0  0  0  0  0  0
    8.5409  -15.7405   23.9390 C   0  0  2  0  0  0  0  0  0  0  0  0
    8.6760  -14.8270   22.8045 N   0  0  0  0  0  0  0  0  0  0  0  0
    7.9701  -14.9912   25.0616 C   0  0  0  0  0  0  0  0  0  0  0  0
    7.7165  -13.6237   25.0186 O   0  0  0  0  0  0  0  0  0  0  0  0
    7.6825  -15.5824   26.1333 O   0  0  0  0  0  0  0  0  0  0  0  0
  2  1  1  6
  3  4  1  0
  3  2  1  0
  4  5  2  0
  6  7  2  0
  6  2  1  0
  8  4  1  0
 10  9  1  6
 10 12  1  0
 11 10  1  0
 12 13  1  6
 13  6  1  0
 14 12  1  0
 15 14  2  0
 16 17  1  0
 17 18  2  0
 19 17  1  0
 19 20  1  0
 21 20  1  0
 23 22  1  1
 22 21  1  0
 23 24  1  0
 24 14  1  0
 25 23  1  0
 26 25  1  0
 27 25  2  0
M  END
$$$$
