DTR.pdb
     RDKit          3D

 27 26  0  0  1  0  0  0  0  0999 V2000
   14.5874  -17.5496   17.8700 N   0  0  0  0  0  0  0  0  0  0  0  0
   13.3861  -17.0342   17.2431 C   0  0  1  0  0  0  0  0  0  0  0  0
   13.1675  -17.8796   15.9810 C   0  0  0  0  0  0  0  0  0  0  0  0
   14.2465  -17.5754   15.0351 C   0  0  0  0  0  0  0  0  0  0  0  0
   14.8168  -16.4484   15.0753 O   0  0  0  0  0  0  0  0  0  0  0  0
   12.2249  -17.2753   18.1790 C   0  0  0  0  0  0  0  0  0  0  0  0
   11.0744  -16.9595   17.8123 O   0  0  0  0  0  0  0  0  0  0  0  0
   14.6679  -18.4997   14.0826 O   0  0  0  0  0  0  0  0  0  0  0  0
   11.1710  -20.4967   19.5404 C   0  0  0  0  0  0  0  0  0  0  0  0
   11.2716  -19.5701   20.7256 C   0  0  1  0  0  0  0  0  0  0  0  0
   12.2857  -20.0749   21.5159 O   0  0  0  0  0  0  0  0  0  0  0  0
   11.3690  -18.1347   20.3640 C   0  0  2  0  0  0  0  0  0  0  0  0
   12.4264  -17.8472   19.4473 N   0  0  0  0  0  0  0  0  0  0  0  0
   11.2269  -17.1672   21.4837 C   0  0  0  0  0  0  0  0  0  0  0  0
   12.1930  -16.5225   21.9998 O   0  0  0  0  0  0  0  0  0  0  0  0
    8.4934  -11.7575   19.1988 N   0  0  0  0  0  0  0  0  0  0  0  0
    8.1784  -13.1115   18.8784 C   0  0  0  0  0  0  0  0  0  0  0  0
    8.4399  -13.6368   17.7388 N   0  0  0  0  0  0  0  0  0  0  0  0
    7.5554  -13.8949   19.8702 N   0  0  0  0  0  0  0  0  0  0  0  0
    7.5323  -13.3940   21.2557 C   0  0  0  0  0  0  0  0  0  0  0  0
    8.7566  -13.8190   21.9911 C   0  0  0  0  0  0  0  0  0  0  0  0
    8.6141  -14.9889   22.8834 C   0  0  0  0  0  0  0  0  0  0  0  0
    9.8133  -15.8389   23.1199 C   0  0  2  0  0  0  0  0  0  0  0  0
    9.9771  -16.8653   22.0904 N   0  0  0  0  0  0  0  0  0  0  0  0
    9.8893  -16.4916   24.4297 C   0  0  0  0  0  0  0  0  0  0  0  0
   10.2441  -15.8238   25.5979 O   0  0  0  0  0  0  0  0  0  0  0  0
    9.6267  -17.7162   24.5405 O   0  0  0  0  0  0  0  0  0  0  0  0
  2  1  1  1
  3  4  1  0
  3  2  1  0
  4  5  2  0
  6  7  2  0
  6  2  1  0
  8  4  1  0
 10  9  1  6
 10 12  1  0
 11 10  1  0
 12 13  1  1
 13  6  1  0
 14 12  1  0
 15 14  2  0
 16 17  1  0
 17 18  2  0
 19 17  1  0
 19 20  1  0
 21 20  1  0
 23 22  1  6
 22 21  1  0
 23 24  1  0
 24 14  1  0
 25 23  1  0
 26 25  1  0
 27 25  2  0
M  END
$$$$
