DTR.pdb
     RDKit          3D

 27 26  0  0  1  0  0  0  0  0999 V2000
    8.2247  -16.2521   15.1923 N   0  0  0  0  0  0  0  0  0  0  0  0
    9.5349  -15.6340   15.1387 C   0  0  1  0  0  0  0  0  0  0  0  0
    9.4484  -14.5438   14.0619 C   0  0  0  0  0  0  0  0  0  0  0  0
    9.4011  -15.1998   12.7509 C   0  0  0  0  0  0  0  0  0  0  0  0
    8.6611  -16.2101   12.5811 O   0  0  0  0  0  0  0  0  0  0  0  0
    9.7955  -14.9644   16.4676 C   0  0  0  0  0  0  0  0  0  0  0  0
   10.8703  -14.3534   16.6389 O   0  0  0  0  0  0  0  0  0  0  0  0
   10.1544  -14.7394   11.6739 O   0  0  0  0  0  0  0  0  0  0  0  0
    7.2772  -12.8388   18.5526 C   0  0  0  0  0  0  0  0  0  0  0  0
    7.9239  -13.8704   19.4420 C   0  0  1  0  0  0  0  0  0  0  0  0
    6.8999  -14.6861   19.8823 O   0  0  0  0  0  0  0  0  0  0  0  0
    9.0918  -14.5497   18.8295 C   0  0  2  0  0  0  0  0  0  0  0  0
    8.8470  -15.0223   17.5036 N   0  0  0  0  0  0  0  0  0  0  0  0
    9.8334  -15.4934   19.7066 C   0  0  0  0  0  0  0  0  0  0  0  0
   10.2858  -16.6187   19.3267 O   0  0  0  0  0  0  0  0  0  0  0  0
   16.5228  -16.2958   22.1297 N   0  0  0  0  0  0  0  0  0  0  0  0
   16.5041  -14.9722   21.5977 C   0  0  0  0  0  0  0  0  0  0  0  0
   17.3716  -14.0824   21.9122 N   0  0  0  0  0  0  0  0  0  0  0  0
   15.4823  -14.6441   20.6844 N   0  0  0  0  0  0  0  0  0  0  0  0
   14.4446  -15.6489   20.3938 C   0  0  0  0  0  0  0  0  0  0  0  0
   13.1707  -15.3079   21.0874 C   0  0  0  0  0  0  0  0  0  0  0  0
   12.2327  -16.4254   21.3254 C   0  0  0  0  0  0  0  0  0  0  0  0
   10.9057  -16.1103   21.9223 C   0  0  2  0  0  0  0  0  0  0  0  0
   10.1132  -15.2205   21.0735 N   0  0  0  0  0  0  0  0  0  0  0  0
   10.9276  -15.5486   23.2756 C   0  0  0  0  0  0  0  0  0  0  0  0
   11.5749  -16.1576   24.3464 O   0  0  0  0  0  0  0  0  0  0  0  0
   10.3423  -14.4624   23.5173 O   0  0  0  0  0  0  0  0  0  0  0  0
  2  1  1  1
  3  4  1  0
  3  2  1  0
  4  5  2  0
  6  7  2  0
  6  2  1  0
  8  4  1  0
 10  9  1  6
 10 12  1  0
 11 10  1  0
 12 13  1  6
 13  6  1  0
 14 12  1  0
 15 14  2  0
 16 17  1  0
 17 18  2  0
 19 17  1  0
 19 20  1  0
 21 20  1  0
 23 22  1  6
 22 21  1  0
 23 24  1  0
 24 14  1  0
 25 23  1  0
 26 25  1  0
 27 25  2  0
M  END
$$$$
