DTR.pdb
     RDKit          3D

 27 26  0  0  1  0  0  0  0  0999 V2000
   14.9259  -15.9486   17.2199 N   0  0  0  0  0  0  0  0  0  0  0  0
   15.3099  -14.9884   18.2358 C   0  0  1  0  0  0  0  0  0  0  0  0
   15.5918  -13.6739   17.4953 C   0  0  0  0  0  0  0  0  0  0  0  0
   16.8235  -13.8433   16.7172 C   0  0  0  0  0  0  0  0  0  0  0  0
   16.9200  -14.7984   15.8952 O   0  0  0  0  0  0  0  0  0  0  0  0
   14.1271  -14.7702   19.1500 C   0  0  0  0  0  0  0  0  0  0  0  0
   14.2058  -13.9078   20.0488 O   0  0  0  0  0  0  0  0  0  0  0  0
   17.9032  -12.9749   16.8565 O   0  0  0  0  0  0  0  0  0  0  0  0
   10.2720  -15.2061   17.9690 C   0  0  0  0  0  0  0  0  0  0  0  0
   10.5550  -15.8611   19.2973 C   0  0  1  0  0  0  0  0  0  0  0  0
   10.3619  -17.2145   19.1009 O   0  0  0  0  0  0  0  0  0  0  0  0
   11.8471  -15.4602   19.9057 C   0  0  2  0  0  0  0  0  0  0  0  0
   12.9492  -15.5225   18.9987 N   0  0  0  0  0  0  0  0  0  0  0  0
   12.1218  -15.9916   21.2666 C   0  0  0  0  0  0  0  0  0  0  0  0
   13.0577  -16.8064   21.5416 O   0  0  0  0  0  0  0  0  0  0  0  0
    9.3484  -13.8400   29.7049 N   0  0  0  0  0  0  0  0  0  0  0  0
    9.7775  -15.1971   29.6079 C   0  0  0  0  0  0  0  0  0  0  0  0
   10.0290  -15.9234   30.6338 N   0  0  0  0  0  0  0  0  0  0  0  0
    9.9237  -15.7510   28.3205 N   0  0  0  0  0  0  0  0  0  0  0  0
   10.3759  -14.8784   27.2227 C   0  0  0  0  0  0  0  0  0  0  0  0
   11.1557  -15.6549   26.2182 C   0  0  0  0  0  0  0  0  0  0  0  0
   10.9127  -15.3229   24.7983 C   0  0  0  0  0  0  0  0  0  0  0  0
   11.6760  -16.0732   23.7635 C   0  0  2  0  0  0  0  0  0  0  0  0
   11.3533  -15.6307   22.4070 N   0  0  0  0  0  0  0  0  0  0  0  0
   11.5532  -17.5328   23.8076 C   0  0  0  0  0  0  0  0  0  0  0  0
   10.5897  -18.2414   23.0963 O   0  0  0  0  0  0  0  0  0  0  0  0
   12.3421  -18.2111   24.5135 O   0  0  0  0  0  0  0  0  0  0  0  0
  2  1  1  6
  3  4  1  0
  3  2  1  0
  4  5  2  0
  6  7  2  0
  6  2  1  0
  8  4  1  0
 10  9  1  6
 10 12  1  0
 11 10  1  0
 12 13  1  6
 13  6  1  0
 14 12  1  0
 15 14  2  0
 16 17  1  0
 17 18  2  0
 19 17  1  0
 19 20  1  0
 21 20  1  0
 23 22  1  1
 22 21  1  0
 23 24  1  0
 24 14  1  0
 25 23  1  0
 26 25  1  0
 27 25  2  0
M  END
$$$$
