DTR.pdb
     RDKit          3D

 27 26  0  0  1  0  0  0  0  0999 V2000
    9.4621  -17.4222   17.4275 N   0  0  0  0  0  0  0  0  0  0  0  0
   10.6042  -17.2638   18.3063 C   0  0  1  0  0  0  0  0  0  0  0  0
   11.7145  -16.6351   17.4534 C   0  0  0  0  0  0  0  0  0  0  0  0
   12.1840  -17.6448   16.4987 C   0  0  0  0  0  0  0  0  0  0  0  0
   12.3533  -18.8378   16.8797 O   0  0  0  0  0  0  0  0  0  0  0  0
   10.2312  -16.2823   19.3925 C   0  0  0  0  0  0  0  0  0  0  0  0
   11.1229  -15.8480   20.1502 O   0  0  0  0  0  0  0  0  0  0  0  0
   12.4524  -17.3274   15.1696 O   0  0  0  0  0  0  0  0  0  0  0  0
    7.7500  -13.1856   19.0422 C   0  0  0  0  0  0  0  0  0  0  0  0
    7.3930  -14.0614   20.2164 C   0  0  1  0  0  0  0  0  0  0  0  0
    6.1667  -14.6199   19.9132 O   0  0  0  0  0  0  0  0  0  0  0  0
    8.4667  -15.0037   20.6161 C   0  0  2  0  0  0  0  0  0  0  0  0
    8.9012  -15.8573   19.5560 N   0  0  0  0  0  0  0  0  0  0  0  0
    8.2924  -15.6737   21.9317 C   0  0  0  0  0  0  0  0  0  0  0  0
    7.8151  -16.8419   22.0825 O   0  0  0  0  0  0  0  0  0  0  0  0
    9.8534  -20.6502   26.0275 N   0  0  0  0  0  0  0  0  0  0  0  0
   10.8663  -19.8819   26.6747 C   0  0  0  0  0  0  0  0  0  0  0  0
   11.8863  -20.4111   27.2428 N   0  0  0  0  0  0  0  0  0  0  0  0
   10.7274  -18.4796   26.6786 N   0  0  0  0  0  0  0  0  0  0  0  0
    9.3745  -17.9036   26.7718 C   0  0  0  0  0  0  0  0  0  0  0  0
    9.4226  -16.4197   26.6459 C   0  0  0  0  0  0  0  0  0  0  0  0
    9.5818  -15.8811   25.2785 C   0  0  0  0  0  0  0  0  0  0  0  0
    8.3535  -15.6535   24.4685 C   0  0  2  0  0  0  0  0  0  0  0  0
    8.6513  -15.0622   23.1640 N   0  0  0  0  0  0  0  0  0  0  0  0
    7.3053  -14.8504   25.1039 C   0  0  0  0  0  0  0  0  0  0  0  0
    6.3541  -15.3809   25.9699 O   0  0  0  0  0  0  0  0  0  0  0  0
    7.2323  -13.6157   24.8777 O   0  0  0  0  0  0  0  0  0  0  0  0
  2  1  1  6
  3  4  1  0
  3  2  1  0
  4  5  2  0
  6  7  2  0
  6  2  1  0
  8  4  1  0
 10  9  1  6
 10 12  1  0
 11 10  1  0
 12 13  1  6
 13  6  1  0
 14 12  1  0
 15 14  2  0
 16 17  1  0
 17 18  2  0
 19 17  1  0
 19 20  1  0
 21 20  1  0
 23 22  1  1
 22 21  1  0
 23 24  1  0
 24 14  1  0
 25 23  1  0
 26 25  1  0
 27 25  2  0
M  END
$$$$
