DTR.pdb
     RDKit          3D

 27 26  0  0  1  0  0  0  0  0999 V2000
    9.7133  -16.4632   16.4258 N   0  0  0  0  0  0  0  0  0  0  0  0
   10.9446  -16.4561   17.1910 C   0  0  1  0  0  0  0  0  0  0  0  0
   11.9199  -15.5551   16.4213 C   0  0  0  0  0  0  0  0  0  0  0  0
   12.3576  -16.2762   15.2214 C   0  0  0  0  0  0  0  0  0  0  0  0
   11.5394  -17.0091   14.5964 O   0  0  0  0  0  0  0  0  0  0  0  0
   10.6648  -15.8131   18.5291 C   0  0  0  0  0  0  0  0  0  0  0  0
   11.5321  -15.8738   19.4248 O   0  0  0  0  0  0  0  0  0  0  0  0
   13.6616  -16.1780   14.7426 O   0  0  0  0  0  0  0  0  0  0  0  0
    7.9968  -12.6382   18.9235 C   0  0  0  0  0  0  0  0  0  0  0  0
    7.9033  -13.7079   19.9821 C   0  0  1  0  0  0  0  0  0  0  0  0
    6.6772  -14.3166   19.7981 O   0  0  0  0  0  0  0  0  0  0  0  0
    9.0833  -14.6049   20.0407 C   0  0  2  0  0  0  0  0  0  0  0  0
    9.4479  -15.1527   18.7726 N   0  0  0  0  0  0  0  0  0  0  0  0
    9.1185  -15.5659   21.1744 C   0  0  0  0  0  0  0  0  0  0  0  0
    9.1481  -16.8295   21.0412 O   0  0  0  0  0  0  0  0  0  0  0  0
   14.5719  -20.0816   24.8394 N   0  0  0  0  0  0  0  0  0  0  0  0
   13.3983  -20.4316   25.5712 C   0  0  0  0  0  0  0  0  0  0  0  0
   13.2620  -21.5546   26.1740 N   0  0  0  0  0  0  0  0  0  0  0  0
   12.3522  -19.4892   25.6278 N   0  0  0  0  0  0  0  0  0  0  0  0
   12.1524  -18.5852   24.4815 C   0  0  0  0  0  0  0  0  0  0  0  0
   10.9039  -17.7892   24.6483 C   0  0  0  0  0  0  0  0  0  0  0  0
   10.5779  -16.8427   23.5605 C   0  0  0  0  0  0  0  0  0  0  0  0
    9.2997  -16.0848   23.6518 C   0  0  2  0  0  0  0  0  0  0  0  0
    9.1253  -15.1555   22.5356 N   0  0  0  0  0  0  0  0  0  0  0  0
    9.0790  -15.3462   24.8981 C   0  0  0  0  0  0  0  0  0  0  0  0
    8.8346  -15.9641   26.1207 O   0  0  0  0  0  0  0  0  0  0  0  0
    9.1054  -14.0892   24.8994 O   0  0  0  0  0  0  0  0  0  0  0  0
  2  1  1  6
  3  4  1  0
  3  2  1  0
  4  5  2  0
  6  7  2  0
  6  2  1  0
  8  4  1  0
 10  9  1  6
 10 12  1  0
 11 10  1  0
 12 13  1  6
 13  6  1  0
 14 12  1  0
 15 14  2  0
 16 17  1  0
 17 18  2  0
 19 17  1  0
 19 20  1  0
 21 20  1  0
 23 22  1  1
 22 21  1  0
 23 24  1  0
 24 14  1  0
 25 23  1  0
 26 25  1  0
 27 25  2  0
M  END
$$$$
