DTR.pdb
     RDKit          3D

 27 26  0  0  1  0  0  0  0  0999 V2000
    7.9080  -16.0392   15.6783 N   0  0  0  0  0  0  0  0  0  0  0  0
    9.0592  -15.1653   15.5663 C   0  0  1  0  0  0  0  0  0  0  0  0
    8.6698  -14.0741   14.5597 C   0  0  0  0  0  0  0  0  0  0  0  0
    8.4632  -14.7099   13.2542 C   0  0  0  0  0  0  0  0  0  0  0  0
    9.2893  -14.5068   12.3196 O   0  0  0  0  0  0  0  0  0  0  0  0
    9.2862  -14.5095   16.9082 C   0  0  0  0  0  0  0  0  0  0  0  0
   10.2478  -13.7258   17.0457 O   0  0  0  0  0  0  0  0  0  0  0  0
    7.3728  -15.5405   13.0083 O   0  0  0  0  0  0  0  0  0  0  0  0
    7.0583  -12.6742   19.3609 C   0  0  0  0  0  0  0  0  0  0  0  0
    7.7035  -13.8117   20.1113 C   0  0  1  0  0  0  0  0  0  0  0  0
    6.6659  -14.6004   20.5686 O   0  0  0  0  0  0  0  0  0  0  0  0
    8.7749  -14.5043   19.3545 C   0  0  2  0  0  0  0  0  0  0  0  0
    8.4318  -14.7712   17.9935 N   0  0  0  0  0  0  0  0  0  0  0  0
    9.4584  -15.6196   20.0609 C   0  0  0  0  0  0  0  0  0  0  0  0
    9.6754  -16.7636   19.5516 O   0  0  0  0  0  0  0  0  0  0  0  0
   16.1225  -15.8306   17.6990 N   0  0  0  0  0  0  0  0  0  0  0  0
   15.9718  -14.6422   18.4737 C   0  0  0  0  0  0  0  0  0  0  0  0
   16.5963  -13.5544   18.2098 N   0  0  0  0  0  0  0  0  0  0  0  0
   15.0910  -14.6803   19.5731 N   0  0  0  0  0  0  0  0  0  0  0  0
   14.6764  -15.9917   20.1016 C   0  0  0  0  0  0  0  0  0  0  0  0
   13.7438  -15.8264   21.2518 C   0  0  0  0  0  0  0  0  0  0  0  0
   12.3482  -15.4692   20.9201 C   0  0  0  0  0  0  0  0  0  0  0  0
   11.2656  -15.9797   21.8055 C   0  0  2  0  0  0  0  0  0  0  0  0
    9.9435  -15.5089   21.3927 N   0  0  0  0  0  0  0  0  0  0  0  0
   11.4218  -15.7019   23.2359 C   0  0  0  0  0  0  0  0  0  0  0  0
   12.3911  -16.3056   24.0312 O   0  0  0  0  0  0  0  0  0  0  0  0
   10.6586  -14.8815   23.8061 O   0  0  0  0  0  0  0  0  0  0  0  0
  2  1  1  1
  3  4  1  0
  3  2  1  0
  4  5  2  0
  6  7  2  0
  6  2  1  0
  8  4  1  0
 10  9  1  6
 10 12  1  0
 11 10  1  0
 12 13  1  6
 13  6  1  0
 14 12  1  0
 15 14  2  0
 16 17  1  0
 17 18  2  0
 19 17  1  0
 19 20  1  0
 21 20  1  0
 23 22  1  6
 22 21  1  0
 23 24  1  0
 24 14  1  0
 25 23  1  0
 26 25  1  0
 27 25  2  0
M  END
$$$$
