FGW.pdb
     RDKit          3D

 30 32  0  0  1  0  0  0  0  0999 V2000
    8.0523  -14.9968   22.9346 N   0  0  0  0  0  0  0  0  0  0  0  0
    7.4843  -16.1360   22.2639 C   0  0  1  0  0  0  0  0  0  0  0  0
    6.8803  -15.8384   20.9422 C   0  0  0  0  0  0  0  0  0  0  0  0
    7.2226  -14.5535   20.3446 C   0  0  0  0  0  0  0  0  0  0  0  0
    7.0749  -13.4277   21.1728 C   0  0  0  0  0  0  0  0  0  0  0  0
    7.3686  -12.1874   20.7044 C   0  0  0  0  0  0  0  0  0  0  0  0
    7.8210  -11.9794   19.4064 C   0  0  0  0  0  0  0  0  0  0  0  0
    7.9618  -13.1093   18.5977 C   0  0  0  0  0  0  0  0  0  0  0  0
    7.6694  -14.3685   19.0559 C   0  0  0  0  0  0  0  0  0  0  0  0
    8.3815  -17.3090   22.2271 C   0  0  0  0  0  0  0  0  0  0  0  0
    7.8742  -18.4459   22.0882 O   0  0  0  0  0  0  0  0  0  0  0  0
    9.7767  -17.1228   22.3484 N   0  0  0  0  0  0  0  0  0  0  0  0
   10.5675  -17.8124   23.3641 C   0  0  0  0  0  0  0  0  0  0  0  0
   10.6167  -17.0096   24.6243 C   0  0  0  0  0  0  0  0  0  0  0  0
   10.8969  -15.7984   24.5684 O   0  0  0  0  0  0  0  0  0  0  0  0
   10.3466  -17.6232   25.8639 N   0  0  0  0  0  0  0  0  0  0  0  0
   10.4323  -17.0306   27.1488 C   0  0  1  0  0  0  0  0  0  0  0  0
    9.1594  -16.7849   27.8719 C   0  0  0  0  0  0  0  0  0  0  0  0
    8.1924  -15.9407   27.1534 C   0  0  0  0  0  0  0  0  0  0  0  0
    7.1304  -16.3501   26.4082 C   0  0  0  0  0  0  0  0  0  0  0  0
    6.4711  -15.2815   25.9072 N   0  0  0  0  0  0  0  0  0  0  0  0
    7.1216  -14.1739   26.3389 C   0  0  0  0  0  0  0  0  0  0  0  0
    6.8523  -12.8271   26.1083 C   0  0  0  0  0  0  0  0  0  0  0  0
    7.6853  -11.8868   26.6752 C   0  0  0  0  0  0  0  0  0  0  0  0
    8.7616  -12.2573   27.4532 C   0  0  0  0  0  0  0  0  0  0  0  0
    9.0127  -13.5850   27.6703 C   0  0  0  0  0  0  0  0  0  0  0  0
    8.1911  -14.5457   27.1121 C   0  0  0  0  0  0  0  0  0  0  0  0
   11.3451  -17.8202   28.0402 C   0  0  0  0  0  0  0  0  0  0  0  0
   11.7318  -17.2179   29.2433 O   0  0  0  0  0  0  0  0  0  0  0  0
   11.7775  -18.9549   27.7941 O   0  0  0  0  0  0  0  0  0  0  0  0
  2  1  1  6
  2  3  1  0
  3  4  1  0
  4  5  2  0
  5  6  1  0
  7  6  2  0
  8  7  1  0
  9  4  1  0
  9  8  2  0
 10  2  1  0
 10 12  1  0
 11 10  2  0
 13 12  1  0
 13 14  1  0
 14 15  2  0
 16 14  1  0
 16 17  1  0
 17 18  1  1
 19 18  1  0
 20 19  2  0
 21 22  1  0
 21 20  1  0
 22 27  2  0
 23 24  2  0
 23 22  1  0
 24 25  1  0
 25 26  2  0
 27 19  1  0
 27 26  1  0
 28 17  1  0
 28 29  1  0
 30 28  2  0
M  END
$$$$
