FGW.pdb
     RDKit          3D

 30 32  0  0  1  0  0  0  0  0999 V2000
    7.7815  -16.9984   19.0933 N   0  0  0  0  0  0  0  0  0  0  0  0
    8.3004  -16.7221   20.4065 C   0  0  1  0  0  0  0  0  0  0  0  0
    7.5482  -15.6931   21.1653 C   0  0  0  0  0  0  0  0  0  0  0  0
    7.4263  -14.3822   20.5391 C   0  0  0  0  0  0  0  0  0  0  0  0
    8.4514  -13.4637   20.8232 C   0  0  0  0  0  0  0  0  0  0  0  0
    8.4242  -12.2167   20.2863 C   0  0  0  0  0  0  0  0  0  0  0  0
    7.3983  -11.8000   19.4457 C   0  0  0  0  0  0  0  0  0  0  0  0
    6.3883  -12.7257   19.1745 C   0  0  0  0  0  0  0  0  0  0  0  0
    6.4013  -13.9887   19.7088 C   0  0  0  0  0  0  0  0  0  0  0  0
    8.5656  -17.9359   21.2055 C   0  0  0  0  0  0  0  0  0  0  0  0
    8.0803  -19.0242   20.8191 O   0  0  0  0  0  0  0  0  0  0  0  0
    9.3525  -17.8418   22.3751 N   0  0  0  0  0  0  0  0  0  0  0  0
    9.5979  -18.9915   23.2414 C   0  0  0  0  0  0  0  0  0  0  0  0
   10.3419  -18.5734   24.4689 C   0  0  0  0  0  0  0  0  0  0  0  0
   11.4975  -18.9947   24.6580 O   0  0  0  0  0  0  0  0  0  0  0  0
    9.7361  -17.7082   25.4019 N   0  0  0  0  0  0  0  0  0  0  0  0
   10.3877  -16.8879   26.3570 C   0  0  1  0  0  0  0  0  0  0  0  0
   10.0513  -15.4421   26.3556 C   0  0  0  0  0  0  0  0  0  0  0  0
    8.6276  -15.1379   26.1448 C   0  0  0  0  0  0  0  0  0  0  0  0
    7.6286  -16.0147   25.8550 C   0  0  0  0  0  0  0  0  0  0  0  0
    6.4515  -15.3601   25.7374 N   0  0  0  0  0  0  0  0  0  0  0  0
    6.7029  -14.0465   25.9552 C   0  0  0  0  0  0  0  0  0  0  0  0
    5.8392  -12.9540   25.9505 C   0  0  0  0  0  0  0  0  0  0  0  0
    6.3623  -11.7050   26.2073 C   0  0  0  0  0  0  0  0  0  0  0  0
    7.7054  -11.5283   26.4639 C   0  0  0  0  0  0  0  0  0  0  0  0
    8.5410  -12.6122   26.4650 C   0  0  0  0  0  0  0  0  0  0  0  0
    8.0390  -13.8742   26.2102 C   0  0  0  0  0  0  0  0  0  0  0  0
   10.1901  -17.4246   27.7441 C   0  0  0  0  0  0  0  0  0  0  0  0
    9.2383  -18.4391   27.9007 O   0  0  0  0  0  0  0  0  0  0  0  0
   10.8010  -17.0415   28.7516 O   0  0  0  0  0  0  0  0  0  0  0  0
  2  1  1  6
  2  3  1  0
  3  4  1  0
  4  5  2  0
  5  6  1  0
  7  6  2  0
  8  7  1  0
  9  4  1  0
  9  8  2  0
 10  2  1  0
 10 12  1  0
 11 10  2  0
 13 12  1  0
 13 14  1  0
 14 15  2  0
 16 14  1  0
 16 17  1  0
 17 18  1  1
 19 18  1  0
 20 19  2  0
 21 22  1  0
 21 20  1  0
 22 27  2  0
 23 24  2  0
 23 22  1  0
 24 25  1  0
 25 26  2  0
 27 19  1  0
 27 26  1  0
 28 17  1  0
 28 29  1  0
 30 28  2  0
M  END
$$$$
