FGW.pdb
     RDKit          3D

 30 32  0  0  1  0  0  0  0  0999 V2000
    6.8364  -17.4090   21.5198 N   0  0  0  0  0  0  0  0  0  0  0  0
    7.9458  -17.1148   20.6520 C   0  0  1  0  0  0  0  0  0  0  0  0
    7.7316  -15.9626   19.7427 C   0  0  0  0  0  0  0  0  0  0  0  0
    7.5763  -14.6568   20.3722 C   0  0  0  0  0  0  0  0  0  0  0  0
    6.7578  -14.6144   21.5138 C   0  0  0  0  0  0  0  0  0  0  0  0
    6.5526  -13.4424   22.1684 C   0  0  0  0  0  0  0  0  0  0  0  0
    7.1332  -12.2522   21.7454 C   0  0  0  0  0  0  0  0  0  0  0  0
    7.9433  -12.3132   20.6093 C   0  0  0  0  0  0  0  0  0  0  0  0
    8.1605  -13.4888   19.9373 C   0  0  0  0  0  0  0  0  0  0  0  0
    9.2446  -17.0513   21.3528 C   0  0  0  0  0  0  0  0  0  0  0  0
   10.1059  -16.2389   20.9437 O   0  0  0  0  0  0  0  0  0  0  0  0
    9.4826  -17.9002   22.4568 N   0  0  0  0  0  0  0  0  0  0  0  0
   10.6994  -17.8092   23.2590 C   0  0  0  0  0  0  0  0  0  0  0  0
   10.5622  -16.7454   24.3006 C   0  0  0  0  0  0  0  0  0  0  0  0
   10.9057  -15.5794   24.0341 O   0  0  0  0  0  0  0  0  0  0  0  0
   10.0468  -17.0645   25.5728 N   0  0  0  0  0  0  0  0  0  0  0  0
   10.3849  -16.4597   26.8095 C   0  0  1  0  0  0  0  0  0  0  0  0
    9.2823  -15.8469   27.5919 C   0  0  0  0  0  0  0  0  0  0  0  0
    8.1535  -15.3526   26.7886 C   0  0  0  0  0  0  0  0  0  0  0  0
    7.1994  -16.0911   26.1601 C   0  0  0  0  0  0  0  0  0  0  0  0
    6.3244  -15.2805   25.5237 N   0  0  0  0  0  0  0  0  0  0  0  0
    6.7257  -14.0061   25.7492 C   0  0  0  0  0  0  0  0  0  0  0  0
    6.1739  -12.8014   25.3203 C   0  0  0  0  0  0  0  0  0  0  0  0
    6.7899  -11.6280   25.6984 C   0  0  0  0  0  0  0  0  0  0  0  0
    7.9247  -11.6330   26.4815 C   0  0  0  0  0  0  0  0  0  0  0  0
    8.4546  -12.8252   26.8948 C   0  0  0  0  0  0  0  0  0  0  0  0
    7.8541  -14.0145   26.5281 C   0  0  0  0  0  0  0  0  0  0  0  0
   11.1198  -17.4253   27.6919 C   0  0  0  0  0  0  0  0  0  0  0  0
   11.6882  -16.9073   28.8616 O   0  0  0  0  0  0  0  0  0  0  0  0
   11.2592  -18.6354   27.4656 O   0  0  0  0  0  0  0  0  0  0  0  0
  2  1  1  1
  2  3  1  0
  3  4  1  0
  4  5  2  0
  5  6  1  0
  7  6  2  0
  8  7  1  0
  9  4  1  0
  9  8  2  0
 10  2  1  0
 10 12  1  0
 11 10  2  0
 13 12  1  0
 13 14  1  0
 14 15  2  0
 16 14  1  0
 16 17  1  0
 17 18  1  1
 19 18  1  0
 20 19  2  0
 21 22  1  0
 21 20  1  0
 22 27  2  0
 23 24  2  0
 23 22  1  0
 24 25  1  0
 25 26  2  0
 27 19  1  0
 27 26  1  0
 28 17  1  0
 28 29  1  0
 30 28  2  0
M  END
$$$$
