FGW.pdb
     RDKit          3D

 30 32  0  0  1  0  0  0  0  0999 V2000
    7.6591  -16.0516   23.1419 N   0  0  0  0  0  0  0  0  0  0  0  0
    8.4457  -15.4692   22.0873 C   0  0  1  0  0  0  0  0  0  0  0  0
    8.6417  -14.0030   22.1988 C   0  0  0  0  0  0  0  0  0  0  0  0
    8.0323  -13.3508   23.3515 C   0  0  0  0  0  0  0  0  0  0  0  0
    8.9105  -12.6713   24.2130 C   0  0  0  0  0  0  0  0  0  0  0  0
    8.4357  -12.0337   25.3140 C   0  0  0  0  0  0  0  0  0  0  0  0
    7.0826  -12.0248   25.6327 C   0  0  0  0  0  0  0  0  0  0  0  0
    6.2248  -12.7050   24.7654 C   0  0  0  0  0  0  0  0  0  0  0  0
    6.6885  -13.3537   23.6496 C   0  0  0  0  0  0  0  0  0  0  0  0
    9.7062  -16.1919   21.8210 C   0  0  0  0  0  0  0  0  0  0  0  0
   10.5024  -15.7157   20.9792 O   0  0  0  0  0  0  0  0  0  0  0  0
    9.9813  -17.3914   22.5148 N   0  0  0  0  0  0  0  0  0  0  0  0
   11.2236  -18.1341   22.3210 C   0  0  0  0  0  0  0  0  0  0  0  0
   12.0994  -18.0142   23.5268 C   0  0  0  0  0  0  0  0  0  0  0  0
   13.2891  -18.3726   23.4578 O   0  0  0  0  0  0  0  0  0  0  0  0
   11.5781  -17.4983   24.7302 N   0  0  0  0  0  0  0  0  0  0  0  0
   12.2682  -17.3219   25.9558 C   0  0  1  0  0  0  0  0  0  0  0  0
   11.7609  -16.2759   26.8788 C   0  0  0  0  0  0  0  0  0  0  0  0
   10.2958  -16.2095   26.9938 C   0  0  0  0  0  0  0  0  0  0  0  0
    9.3968  -17.1818   26.6822 C   0  0  0  0  0  0  0  0  0  0  0  0
    8.1388  -16.7510   26.9263 N   0  0  0  0  0  0  0  0  0  0  0  0
    8.2362  -15.4854   27.4005 C   0  0  0  0  0  0  0  0  0  0  0  0
    7.2411  -14.5974   27.8017 C   0  0  0  0  0  0  0  0  0  0  0  0
    7.6189  -13.3506   28.2511 C   0  0  0  0  0  0  0  0  0  0  0  0
    8.9456  -12.9793   28.3070 C   0  0  0  0  0  0  0  0  0  0  0  0
    9.9116  -13.8635   27.9092 C   0  0  0  0  0  0  0  0  0  0  0  0
    9.5564  -15.1193   27.4549 C   0  0  0  0  0  0  0  0  0  0  0  0
   12.3627  -18.6180   26.7058 C   0  0  0  0  0  0  0  0  0  0  0  0
   11.6230  -19.6952   26.2036 O   0  0  0  0  0  0  0  0  0  0  0  0
   13.0405  -18.8047   27.7260 O   0  0  0  0  0  0  0  0  0  0  0  0
  2  1  1  1
  2  3  1  0
  3  4  1  0
  4  5  2  0
  5  6  1  0
  7  6  2  0
  8  7  1  0
  9  4  1  0
  9  8  2  0
 10  2  1  0
 10 12  1  0
 11 10  2  0
 13 12  1  0
 13 14  1  0
 14 15  2  0
 16 14  1  0
 16 17  1  0
 17 18  1  1
 19 18  1  0
 20 19  2  0
 21 22  1  0
 21 20  1  0
 22 27  2  0
 23 24  2  0
 23 22  1  0
 24 25  1  0
 25 26  2  0
 27 19  1  0
 27 26  1  0
 28 17  1  0
 28 29  1  0
 30 28  2  0
M  END
$$$$
