FGW.pdb
     RDKit          3D

 30 32  0  0  1  0  0  0  0  0999 V2000
    6.6422  -17.6063   22.0518 N   0  0  0  0  0  0  0  0  0  0  0  0
    7.1352  -17.2290   20.7539 C   0  0  1  0  0  0  0  0  0  0  0  0
    6.4551  -16.0571   20.1502 C   0  0  0  0  0  0  0  0  0  0  0  0
    6.8625  -14.7453   20.6385 C   0  0  0  0  0  0  0  0  0  0  0  0
    7.5425  -13.9276   19.7197 C   0  0  0  0  0  0  0  0  0  0  0  0
    7.9623  -12.6883   20.0831 C   0  0  0  0  0  0  0  0  0  0  0  0
    7.7420  -12.1817   21.3588 C   0  0  0  0  0  0  0  0  0  0  0  0
    7.0650  -13.0080   22.2586 C   0  0  0  0  0  0  0  0  0  0  0  0
    6.6345  -14.2618   21.9069 C   0  0  0  0  0  0  0  0  0  0  0  0
    8.6074  -17.1280   20.6864 C   0  0  0  0  0  0  0  0  0  0  0  0
    9.1564  -17.1330   19.5605 O   0  0  0  0  0  0  0  0  0  0  0  0
    9.3543  -17.0293   21.8817 N   0  0  0  0  0  0  0  0  0  0  0  0
   10.7965  -16.7999   21.8803 C   0  0  0  0  0  0  0  0  0  0  0  0
   11.2674  -16.4162   23.2464 C   0  0  0  0  0  0  0  0  0  0  0  0
   12.4754  -16.1849   23.4353 O   0  0  0  0  0  0  0  0  0  0  0  0
   10.3471  -16.3176   24.3091 N   0  0  0  0  0  0  0  0  0  0  0  0
   10.6378  -16.3269   25.6966 C   0  0  1  0  0  0  0  0  0  0  0  0
    9.9888  -15.2883   26.5354 C   0  0  0  0  0  0  0  0  0  0  0  0
    8.5535  -15.0935   26.2791 C   0  0  0  0  0  0  0  0  0  0  0  0
    7.6378  -16.0406   25.9396 C   0  0  0  0  0  0  0  0  0  0  0  0
    6.4172  -15.4788   25.7909 N   0  0  0  0  0  0  0  0  0  0  0  0
    6.5557  -14.1539   26.0391 C   0  0  0  0  0  0  0  0  0  0  0  0
    5.6085  -13.1330   26.0215 C   0  0  0  0  0  0  0  0  0  0  0  0
    6.0216  -11.8518   26.3172 C   0  0  0  0  0  0  0  0  0  0  0  0
    7.3368  -11.5747   26.6243 C   0  0  0  0  0  0  0  0  0  0  0  0
    8.2554  -12.5891   26.6374 C   0  0  0  0  0  0  0  0  0  0  0  0
    7.8644  -13.8816   26.3442 C   0  0  0  0  0  0  0  0  0  0  0  0
   10.3498  -17.6734   26.2926 C   0  0  0  0  0  0  0  0  0  0  0  0
   10.9333  -17.9541   27.5337 O   0  0  0  0  0  0  0  0  0  0  0  0
    9.6403  -18.5467   25.7740 O   0  0  0  0  0  0  0  0  0  0  0  0
  2  1  1  1
  2  3  1  0
  3  4  1  0
  4  5  2  0
  5  6  1  0
  7  6  2  0
  8  7  1  0
  9  4  1  0
  9  8  2  0
 10  2  1  0
 10 12  1  0
 11 10  2  0
 13 12  1  0
 13 14  1  0
 14 15  2  0
 16 14  1  0
 16 17  1  0
 17 18  1  1
 19 18  1  0
 20 19  2  0
 21 22  1  0
 21 20  1  0
 22 27  2  0
 23 24  2  0
 23 22  1  0
 24 25  1  0
 25 26  2  0
 27 19  1  0
 27 26  1  0
 28 17  1  0
 28 29  1  0
 30 28  2  0
M  END
$$$$
