FGW.pdb
     RDKit          3D

 30 32  0  0  1  0  0  0  0  0999 V2000
    7.5570  -16.8322   21.7610 N   0  0  0  0  0  0  0  0  0  0  0  0
    8.6146  -17.0334   20.8064 C   0  0  1  0  0  0  0  0  0  0  0  0
    9.0070  -15.8179   20.0521 C   0  0  0  0  0  0  0  0  0  0  0  0
    8.3261  -14.5802   20.4124 C   0  0  0  0  0  0  0  0  0  0  0  0
    7.0670  -14.7219   21.0206 C   0  0  0  0  0  0  0  0  0  0  0  0
    6.3563  -13.6257   21.3912 C   0  0  0  0  0  0  0  0  0  0  0  0
    6.8345  -12.3361   21.1890 C   0  0  0  0  0  0  0  0  0  0  0  0
    8.0872  -12.2144   20.5835 C   0  0  0  0  0  0  0  0  0  0  0  0
    8.8172  -13.3114   20.2035 C   0  0  0  0  0  0  0  0  0  0  0  0
    9.7771  -17.7607   21.3557 C   0  0  0  0  0  0  0  0  0  0  0  0
   10.3409  -18.6176   20.6366 O   0  0  0  0  0  0  0  0  0  0  0  0
   10.2212  -17.4757   22.6663 N   0  0  0  0  0  0  0  0  0  0  0  0
   11.6252  -17.5861   23.0524 C   0  0  0  0  0  0  0  0  0  0  0  0
   11.7915  -17.3024   24.5109 C   0  0  0  0  0  0  0  0  0  0  0  0
   12.9319  -17.3029   25.0088 O   0  0  0  0  0  0  0  0  0  0  0  0
   10.6630  -17.0365   25.3120 N   0  0  0  0  0  0  0  0  0  0  0  0
   10.6431  -16.7918   26.7082 C   0  0  1  0  0  0  0  0  0  0  0  0
    9.9193  -15.5840   27.1778 C   0  0  0  0  0  0  0  0  0  0  0  0
    8.5660  -15.4194   26.6253 C   0  0  0  0  0  0  0  0  0  0  0  0
    7.6996  -16.4000   26.2531 C   0  0  0  0  0  0  0  0  0  0  0  0
    6.5490  -15.8581   25.7946 N   0  0  0  0  0  0  0  0  0  0  0  0
    6.6829  -14.5121   25.8753 C   0  0  0  0  0  0  0  0  0  0  0  0
    5.7914  -13.4986   25.5320 C   0  0  0  0  0  0  0  0  0  0  0  0
    6.1843  -12.1907   25.7178 C   0  0  0  0  0  0  0  0  0  0  0  0
    7.4261  -11.8801   26.2300 C   0  0  0  0  0  0  0  0  0  0  0  0
    8.2907  -12.8877   26.5625 C   0  0  0  0  0  0  0  0  0  0  0  0
    7.9185  -14.2066   26.3849 C   0  0  0  0  0  0  0  0  0  0  0  0
   10.1173  -17.9848   27.4510 C   0  0  0  0  0  0  0  0  0  0  0  0
   10.3564  -18.0279   28.8296 O   0  0  0  0  0  0  0  0  0  0  0  0
    9.4926  -18.9252   26.9407 O   0  0  0  0  0  0  0  0  0  0  0  0
  2  1  1  1
  2  3  1  0
  3  4  1  0
  4  5  2  0
  5  6  1  0
  7  6  2  0
  8  7  1  0
  9  4  1  0
  9  8  2  0
 10  2  1  0
 10 12  1  0
 11 10  2  0
 13 12  1  0
 13 14  1  0
 14 15  2  0
 16 14  1  0
 16 17  1  0
 17 18  1  6
 19 18  1  0
 20 19  2  0
 21 22  1  0
 21 20  1  0
 22 27  2  0
 23 24  2  0
 23 22  1  0
 24 25  1  0
 25 26  2  0
 27 19  1  0
 27 26  1  0
 28 17  1  0
 28 29  1  0
 30 28  2  0
M  END
$$$$
