FGW.pdb
     RDKit          3D

 30 32  0  0  1  0  0  0  0  0999 V2000
    8.6916  -16.9571   20.7378 N   0  0  0  0  0  0  0  0  0  0  0  0
    9.6840  -16.0023   21.1544 C   0  0  1  0  0  0  0  0  0  0  0  0
    9.1413  -14.6829   21.5605 C   0  0  0  0  0  0  0  0  0  0  0  0
    8.2227  -14.0418   20.6275 C   0  0  0  0  0  0  0  0  0  0  0  0
    8.8031  -13.1739   19.6867 C   0  0  0  0  0  0  0  0  0  0  0  0
    8.0277  -12.5300   18.7766 C   0  0  0  0  0  0  0  0  0  0  0  0
    6.6482  -12.6977   18.7358 C   0  0  0  0  0  0  0  0  0  0  0  0
    6.0888  -13.5636   19.6780 C   0  0  0  0  0  0  0  0  0  0  0  0
    6.8582  -14.2214   20.6034 C   0  0  0  0  0  0  0  0  0  0  0  0
   10.6522  -16.5428   22.1304 C   0  0  0  0  0  0  0  0  0  0  0  0
   11.5658  -15.7927   22.5449 O   0  0  0  0  0  0  0  0  0  0  0  0
   10.5264  -17.8800   22.5689 N   0  0  0  0  0  0  0  0  0  0  0  0
    9.8884  -18.2255   23.8362 C   0  0  0  0  0  0  0  0  0  0  0  0
   10.5349  -17.4902   24.9661 C   0  0  0  0  0  0  0  0  0  0  0  0
   11.5959  -16.8714   24.7667 O   0  0  0  0  0  0  0  0  0  0  0  0
    9.9439  -17.4998   26.2454 N   0  0  0  0  0  0  0  0  0  0  0  0
   10.3996  -16.8216   27.4038 C   0  0  1  0  0  0  0  0  0  0  0  0
    9.5065  -15.7871   27.9830 C   0  0  0  0  0  0  0  0  0  0  0  0
    8.3599  -15.4164   27.1394 C   0  0  0  0  0  0  0  0  0  0  0  0
    7.4289  -16.2472   26.5974 C   0  0  0  0  0  0  0  0  0  0  0  0
    6.5260  -15.5365   25.8852 N   0  0  0  0  0  0  0  0  0  0  0  0
    6.8858  -14.2331   25.9738 C   0  0  0  0  0  0  0  0  0  0  0  0
    6.2935  -13.0985   25.4248 C   0  0  0  0  0  0  0  0  0  0  0  0
    6.8716  -11.8726   25.6744 C   0  0  0  0  0  0  0  0  0  0  0  0
    8.0081  -11.7588   26.4467 C   0  0  0  0  0  0  0  0  0  0  0  0
    8.5781  -12.8834   26.9791 C   0  0  0  0  0  0  0  0  0  0  0  0
    8.0159  -14.1234   26.7423 C   0  0  0  0  0  0  0  0  0  0  0  0
   10.7662  -17.7973   28.4832 C   0  0  0  0  0  0  0  0  0  0  0  0
   11.5015  -17.2980   29.5647 O   0  0  0  0  0  0  0  0  0  0  0  0
   10.4690  -19.0001   28.4893 O   0  0  0  0  0  0  0  0  0  0  0  0
  2  1  1  1
  2  3  1  0
  3  4  1  0
  4  5  2  0
  5  6  1  0
  7  6  2  0
  8  7  1  0
  9  4  1  0
  9  8  2  0
 10  2  1  0
 10 12  1  0
 11 10  2  0
 13 12  1  0
 13 14  1  0
 14 15  2  0
 16 14  1  0
 16 17  1  0
 17 18  1  1
 19 18  1  0
 20 19  2  0
 21 22  1  0
 21 20  1  0
 22 27  2  0
 23 24  2  0
 23 22  1  0
 24 25  1  0
 25 26  2  0
 27 19  1  0
 27 26  1  0
 28 17  1  0
 28 29  1  0
 30 28  2  0
M  END
$$$$
