FGW.pdb
     RDKit          3D

 30 32  0  0  1  0  0  0  0  0999 V2000
    7.9581  -17.4174   17.5369 N   0  0  0  0  0  0  0  0  0  0  0  0
    8.1508  -16.4906   18.6204 C   0  0  1  0  0  0  0  0  0  0  0  0
    6.8980  -15.9969   19.2427 C   0  0  0  0  0  0  0  0  0  0  0  0
    7.0145  -14.8197   20.0947 C   0  0  0  0  0  0  0  0  0  0  0  0
    6.4836  -14.9395   21.3905 C   0  0  0  0  0  0  0  0  0  0  0  0
    6.5446  -13.8955   22.2567 C   0  0  0  0  0  0  0  0  0  0  0  0
    7.1251  -12.6819   21.9063 C   0  0  0  0  0  0  0  0  0  0  0  0
    7.6474  -12.5808   20.6149 C   0  0  0  0  0  0  0  0  0  0  0  0
    7.5937  -13.6259   19.7285 C   0  0  0  0  0  0  0  0  0  0  0  0
    9.1400  -16.9449   19.6190 C   0  0  0  0  0  0  0  0  0  0  0  0
   10.3538  -16.7236   19.4021 O   0  0  0  0  0  0  0  0  0  0  0  0
    8.6983  -17.6119   20.7834 N   0  0  0  0  0  0  0  0  0  0  0  0
    9.6289  -18.2092   21.7373 C   0  0  0  0  0  0  0  0  0  0  0  0
   10.1748  -17.1668   22.6597 C   0  0  0  0  0  0  0  0  0  0  0  0
   11.0996  -16.4299   22.2722 O   0  0  0  0  0  0  0  0  0  0  0  0
    9.6431  -17.0228   23.9568 N   0  0  0  0  0  0  0  0  0  0  0  0
   10.2940  -16.4802   25.0932 C   0  0  1  0  0  0  0  0  0  0  0  0
   10.0160  -15.0601   25.4241 C   0  0  0  0  0  0  0  0  0  0  0  0
    8.5917  -14.7297   25.5864 C   0  0  0  0  0  0  0  0  0  0  0  0
    7.5269  -15.5626   25.4344 C   0  0  0  0  0  0  0  0  0  0  0  0
    6.3746  -14.8963   25.6709 N   0  0  0  0  0  0  0  0  0  0  0  0
    6.7088  -13.6195   25.9782 C   0  0  0  0  0  0  0  0  0  0  0  0
    5.9004  -12.5329   26.3028 C   0  0  0  0  0  0  0  0  0  0  0  0
    6.5060  -11.3256   26.5771 C   0  0  0  0  0  0  0  0  0  0  0  0
    7.8768  -11.1841   26.5346 C   0  0  0  0  0  0  0  0  0  0  0  0
    8.6572  -12.2617   26.2140 C   0  0  0  0  0  0  0  0  0  0  0  0
    8.0723  -13.4822   25.9352 C   0  0  0  0  0  0  0  0  0  0  0  0
   10.0281  -17.3168   26.3100 C   0  0  0  0  0  0  0  0  0  0  0  0
    9.0626  -18.3231   26.1876 O   0  0  0  0  0  0  0  0  0  0  0  0
   10.5942  -17.1857   27.4042 O   0  0  0  0  0  0  0  0  0  0  0  0
  2  1  1  6
  2  3  1  0
  3  4  1  0
  4  5  2  0
  5  6  1  0
  7  6  2  0
  8  7  1  0
  9  4  1  0
  9  8  2  0
 10  2  1  0
 10 12  1  0
 11 10  2  0
 13 12  1  0
 13 14  1  0
 14 15  2  0
 16 14  1  0
 16 17  1  0
 17 18  1  1
 19 18  1  0
 20 19  2  0
 21 22  1  0
 21 20  1  0
 22 27  2  0
 23 24  2  0
 23 22  1  0
 24 25  1  0
 25 26  2  0
 27 19  1  0
 27 26  1  0
 28 17  1  0
 28 29  1  0
 30 28  2  0
M  END
$$$$
