FGW.pdb
     RDKit          3D

 30 32  0  0  1  0  0  0  0  0999 V2000
  -34.4894  -91.8399   -8.4212 N   0  0  0  0  0  0  0  0  0  0  0  0
  -35.0728  -92.5046   -7.2863 C   0  0  1  0  0  0  0  0  0  0  0  0
  -35.2366  -93.9704   -7.4443 C   0  0  0  0  0  0  0  0  0  0  0  0
  -35.6355  -94.4421   -8.7649 C   0  0  0  0  0  0  0  0  0  0  0  0
  -34.7665  -94.1251   -9.8230 C   0  0  0  0  0  0  0  0  0  0  0  0
  -35.0541  -94.5211  -11.0897 C   0  0  0  0  0  0  0  0  0  0  0  0
  -36.2016  -95.2455  -11.3913 C   0  0  0  0  0  0  0  0  0  0  0  0
  -37.0535  -95.5514  -10.3277 C   0  0  0  0  0  0  0  0  0  0  0  0
  -36.7772  -95.1589   -9.0429 C   0  0  0  0  0  0  0  0  0  0  0  0
  -34.4459  -92.1389   -5.9996 C   0  0  0  0  0  0  0  0  0  0  0  0
  -34.9092  -92.6340   -4.9464 O   0  0  0  0  0  0  0  0  0  0  0  0
  -33.3496  -91.2477   -5.9874 N   0  0  0  0  0  0  0  0  0  0  0  0
  -32.5154  -91.0580   -4.8040 C   0  0  0  0  0  0  0  0  0  0  0  0
  -32.8776  -89.7864   -4.1058 C   0  0  0  0  0  0  0  0  0  0  0  0
  -33.7886  -89.7912   -3.2582 O   0  0  0  0  0  0  0  0  0  0  0  0
  -32.1899  -88.5941   -4.4077 N   0  0  0  0  0  0  0  0  0  0  0  0
  -31.2320  -88.3948   -5.4335 C   0  0  1  0  0  0  0  0  0  0  0  0
  -31.6484  -87.5863   -6.6067 C   0  0  0  0  0  0  0  0  0  0  0  0
  -31.6868  -86.1341   -6.3755 C   0  0  0  0  0  0  0  0  0  0  0  0
  -31.9343  -85.1572   -7.2893 C   0  0  0  0  0  0  0  0  0  0  0  0
  -31.8884  -83.9420   -6.6989 N   0  0  0  0  0  0  0  0  0  0  0  0
  -31.6074  -84.1460   -5.3890 C   0  0  0  0  0  0  0  0  0  0  0  0
  -31.4515  -83.2309   -4.3508 C   0  0  0  0  0  0  0  0  0  0  0  0
  -31.1641  -83.7124   -3.0918 C   0  0  0  0  0  0  0  0  0  0  0  0
  -31.0317  -85.0639   -2.8531 C   0  0  0  0  0  0  0  0  0  0  0  0
  -31.1879  -85.9502   -3.8841 C   0  0  0  0  0  0  0  0  0  0  0  0
  -31.4765  -85.4906   -5.1550 C   0  0  0  0  0  0  0  0  0  0  0  0
  -29.9664  -87.8133   -4.8754 C   0  0  0  0  0  0  0  0  0  0  0  0
  -28.8050  -88.5842   -5.0040 O   0  0  0  0  0  0  0  0  0  0  0  0
  -29.8729  -86.7120   -4.3155 O   0  0  0  0  0  0  0  0  0  0  0  0
  2  1  1  6
  2  3  1  0
  3  4  1  0
  4  5  2  0
  5  6  1  0
  7  6  2  0
  8  7  1  0
  9  4  1  0
  9  8  2  0
 10  2  1  0
 10 12  1  0
 11 10  2  0
 13 12  1  0
 13 14  1  0
 14 15  2  0
 16 14  1  0
 16 17  1  0
 17 18  1  6
 19 18  1  0
 20 19  2  0
 21 22  1  0
 21 20  1  0
 22 27  2  0
 23 24  2  0
 23 22  1  0
 24 25  1  0
 25 26  2  0
 27 19  1  0
 27 26  1  0
 28 17  1  0
 28 29  1  0
 30 28  2  0
M  END
$$$$
