FGW.pdb
     RDKit          3D

 30 32  0  0  1  0  0  0  0  0999 V2000
    6.4618  -17.7814   19.3524 N   0  0  0  0  0  0  0  0  0  0  0  0
    7.1817  -17.0084   20.3294 C   0  0  1  0  0  0  0  0  0  0  0  0
    6.3482  -16.0523   21.0985 C   0  0  0  0  0  0  0  0  0  0  0  0
    6.8820  -14.7050   21.2574 C   0  0  0  0  0  0  0  0  0  0  0  0
    7.2135  -14.0277   20.0714 C   0  0  0  0  0  0  0  0  0  0  0  0
    7.7185  -12.7680   20.1184 C   0  0  0  0  0  0  0  0  0  0  0  0
    7.9266  -12.1033   21.3215 C   0  0  0  0  0  0  0  0  0  0  0  0
    7.5916  -12.7915   22.4897 C   0  0  0  0  0  0  0  0  0  0  0  0
    7.0807  -14.0639   22.4592 C   0  0  0  0  0  0  0  0  0  0  0  0
    8.0604  -17.8203   21.1959 C   0  0  0  0  0  0  0  0  0  0  0  0
    7.9451  -19.0673   21.1641 O   0  0  0  0  0  0  0  0  0  0  0  0
    9.0007  -17.1777   22.0319 N   0  0  0  0  0  0  0  0  0  0  0  0
   10.0152  -17.9201   22.7749 C   0  0  0  0  0  0  0  0  0  0  0  0
   10.8622  -16.9877   23.5802 C   0  0  0  0  0  0  0  0  0  0  0  0
   12.0810  -16.9074   23.3425 O   0  0  0  0  0  0  0  0  0  0  0  0
   10.2809  -16.2069   24.5992 N   0  0  0  0  0  0  0  0  0  0  0  0
   10.7327  -16.0704   25.9359 C   0  0  1  0  0  0  0  0  0  0  0  0
    9.9874  -15.1346   26.8147 C   0  0  0  0  0  0  0  0  0  0  0  0
    8.5539  -15.0079   26.5097 C   0  0  0  0  0  0  0  0  0  0  0  0
    7.6551  -16.0127   26.3275 C   0  0  0  0  0  0  0  0  0  0  0  0
    6.4302  -15.5030   26.0678 N   0  0  0  0  0  0  0  0  0  0  0  0
    6.5489  -14.1532   26.0844 C   0  0  0  0  0  0  0  0  0  0  0  0
    5.5898  -13.1647   25.8777 C   0  0  0  0  0  0  0  0  0  0  0  0
    5.9828  -11.8458   25.9523 C   0  0  0  0  0  0  0  0  0  0  0  0
    7.2897  -11.5005   26.2239 C   0  0  0  0  0  0  0  0  0  0  0  0
    8.2202  -12.4839   26.4246 C   0  0  0  0  0  0  0  0  0  0  0  0
    7.8493  -13.8132   26.3548 C   0  0  0  0  0  0  0  0  0  0  0  0
   10.8065  -17.4075   26.6129 C   0  0  0  0  0  0  0  0  0  0  0  0
   11.5879  -17.4880   27.7716 O   0  0  0  0  0  0  0  0  0  0  0  0
   10.2326  -18.4356   26.2273 O   0  0  0  0  0  0  0  0  0  0  0  0
  2  1  1  1
  2  3  1  0
  3  4  1  0
  4  5  2  0
  5  6  1  0
  7  6  2  0
  8  7  1  0
  9  4  1  0
  9  8  2  0
 10  2  1  0
 10 12  1  0
 11 10  2  0
 13 12  1  0
 13 14  1  0
 14 15  2  0
 16 14  1  0
 16 17  1  0
 17 18  1  1
 19 18  1  0
 20 19  2  0
 21 22  1  0
 21 20  1  0
 22 27  2  0
 23 24  2  0
 23 22  1  0
 24 25  1  0
 25 26  2  0
 27 19  1  0
 27 26  1  0
 28 17  1  0
 28 29  1  0
 30 28  2  0
M  END
$$$$
