FGW.pdb
     RDKit          3D

 30 32  0  0  1  0  0  0  0  0999 V2000
    6.1611  -16.9230   24.5560 N   0  0  0  0  0  0  0  0  0  0  0  0
    7.1817  -16.1105   23.9490 C   0  0  1  0  0  0  0  0  0  0  0  0
    7.8265  -15.1392   24.8661 C   0  0  0  0  0  0  0  0  0  0  0  0
    7.0790  -13.9212   25.1544 C   0  0  0  0  0  0  0  0  0  0  0  0
    7.3892  -12.8033   24.3613 C   0  0  0  0  0  0  0  0  0  0  0  0
    6.7457  -11.6234   24.5560 C   0  0  0  0  0  0  0  0  0  0  0  0
    5.7678  -11.4713   25.5324 C   0  0  0  0  0  0  0  0  0  0  0  0
    5.4726  -12.5926   26.3110 C   0  0  0  0  0  0  0  0  0  0  0  0
    6.1134  -13.7910   26.1267 C   0  0  0  0  0  0  0  0  0  0  0  0
    8.1624  -16.8838   23.1601 C   0  0  0  0  0  0  0  0  0  0  0  0
    8.2301  -18.1220   23.3379 O   0  0  0  0  0  0  0  0  0  0  0  0
    8.9928  -16.2153   22.2330 N   0  0  0  0  0  0  0  0  0  0  0  0
   10.1221  -16.8757   21.5839 C   0  0  0  0  0  0  0  0  0  0  0  0
   11.3090  -16.8982   22.4928 C   0  0  0  0  0  0  0  0  0  0  0  0
   12.3856  -16.4081   22.1064 O   0  0  0  0  0  0  0  0  0  0  0  0
   11.2051  -17.4702   23.7765 N   0  0  0  0  0  0  0  0  0  0  0  0
   12.2235  -17.5595   24.7586 C   0  0  1  0  0  0  0  0  0  0  0  0
   11.8102  -17.9224   26.1374 C   0  0  0  0  0  0  0  0  0  0  0  0
   10.6334  -17.1981   26.6417 C   0  0  0  0  0  0  0  0  0  0  0  0
    9.3237  -17.5129   26.4505 C   0  0  0  0  0  0  0  0  0  0  0  0
    8.5306  -16.6118   27.0724 N   0  0  0  0  0  0  0  0  0  0  0  0
    9.3458  -15.7087   27.6692 C   0  0  0  0  0  0  0  0  0  0  0  0
    9.0359  -14.5863   28.4332 C   0  0  0  0  0  0  0  0  0  0  0  0
   10.0728  -13.8262   28.9300 C   0  0  0  0  0  0  0  0  0  0  0  0
   11.3882  -14.1582   28.6840 C   0  0  0  0  0  0  0  0  0  0  0  0
   11.6760  -15.2644   27.9314 C   0  0  0  0  0  0  0  0  0  0  0  0
   10.6528  -16.0416   27.4228 C   0  0  0  0  0  0  0  0  0  0  0  0
   13.3065  -18.5007   24.3195 C   0  0  0  0  0  0  0  0  0  0  0  0
   14.4684  -18.5366   25.0995 O   0  0  0  0  0  0  0  0  0  0  0  0
   13.2497  -19.2419   23.3283 O   0  0  0  0  0  0  0  0  0  0  0  0
  2  1  1  1
  2  3  1  0
  3  4  1  0
  4  5  2  0
  5  6  1  0
  7  6  2  0
  8  7  1  0
  9  4  1  0
  9  8  2  0
 10  2  1  0
 10 12  1  0
 11 10  2  0
 13 12  1  0
 13 14  1  0
 14 15  2  0
 16 14  1  0
 16 17  1  0
 17 18  1  1
 19 18  1  0
 20 19  2  0
 21 22  1  0
 21 20  1  0
 22 27  2  0
 23 24  2  0
 23 22  1  0
 24 25  1  0
 25 26  2  0
 27 19  1  0
 27 26  1  0
 28 17  1  0
 28 29  1  0
 30 28  2  0
M  END
$$$$
