FGW.pdb
     RDKit          3D

 30 32  0  0  1  0  0  0  0  0999 V2000
    7.7030  -16.3044   23.3355 N   0  0  0  0  0  0  0  0  0  0  0  0
    8.1693  -16.8995   22.1113 C   0  0  1  0  0  0  0  0  0  0  0  0
    8.9451  -15.9873   21.2359 C   0  0  0  0  0  0  0  0  0  0  0  0
    8.4481  -14.6221   21.1153 C   0  0  0  0  0  0  0  0  0  0  0  0
    9.2583  -13.6179   21.6723 C   0  0  0  0  0  0  0  0  0  0  0  0
    8.8782  -12.3157   21.6097 C   0  0  0  0  0  0  0  0  0  0  0  0
    7.6907  -11.9243   21.0021 C   0  0  0  0  0  0  0  0  0  0  0  0
    6.8983  -12.9355   20.4541 C   0  0  0  0  0  0  0  0  0  0  0  0
    7.2681  -14.2550   20.5090 C   0  0  0  0  0  0  0  0  0  0  0  0
    8.8347  -18.2043   22.3036 C   0  0  0  0  0  0  0  0  0  0  0  0
    9.1876  -18.8508   21.2904 O   0  0  0  0  0  0  0  0  0  0  0  0
    9.0552  -18.6875   23.6128 N   0  0  0  0  0  0  0  0  0  0  0  0
   10.2728  -19.4040   23.9820 C   0  0  0  0  0  0  0  0  0  0  0  0
   10.9883  -18.6889   25.0830 C   0  0  0  0  0  0  0  0  0  0  0  0
   12.1950  -18.9197   25.2804 O   0  0  0  0  0  0  0  0  0  0  0  0
   10.2980  -17.7611   25.8883 N   0  0  0  0  0  0  0  0  0  0  0  0
   10.8208  -17.0149   26.9743 C   0  0  1  0  0  0  0  0  0  0  0  0
   10.2250  -15.6801   27.2331 C   0  0  0  0  0  0  0  0  0  0  0  0
    8.7606  -15.6209   27.1070 C   0  0  0  0  0  0  0  0  0  0  0  0
    7.8930  -16.6667   27.0415 C   0  0  0  0  0  0  0  0  0  0  0  0
    6.6235  -16.2150   26.9328 N   0  0  0  0  0  0  0  0  0  0  0  0
    6.6815  -14.8612   26.9289 C   0  0  0  0  0  0  0  0  0  0  0  0
    5.6601  -13.9187   26.8381 C   0  0  0  0  0  0  0  0  0  0  0  0
    5.9986  -12.5829   26.8580 C   0  0  0  0  0  0  0  0  0  0  0  0
    7.3119  -12.1767   26.9647 C   0  0  0  0  0  0  0  0  0  0  0  0
    8.3039  -13.1153   27.0530 C   0  0  0  0  0  0  0  0  0  0  0  0
    7.9884  -14.4605   27.0352 C   0  0  0  0  0  0  0  0  0  0  0  0
   10.7735  -17.8150   28.2427 C   0  0  0  0  0  0  0  0  0  0  0  0
   11.5544  -17.3561   29.3100 O   0  0  0  0  0  0  0  0  0  0  0  0
   10.1008  -18.8411   28.4148 O   0  0  0  0  0  0  0  0  0  0  0  0
  2  1  1  1
  2  3  1  0
  3  4  1  0
  4  5  2  0
  5  6  1  0
  7  6  2  0
  8  7  1  0
  9  4  1  0
  9  8  2  0
 10  2  1  0
 10 12  1  0
 11 10  2  0
 13 12  1  0
 13 14  1  0
 14 15  2  0
 16 14  1  0
 16 17  1  0
 17 18  1  1
 19 18  1  0
 20 19  2  0
 21 22  1  0
 21 20  1  0
 22 27  2  0
 23 24  2  0
 23 22  1  0
 24 25  1  0
 25 26  2  0
 27 19  1  0
 27 26  1  0
 28 17  1  0
 28 29  1  0
 30 28  2  0
M  END
$$$$
