FGW.pdb
     RDKit          3D

 30 32  0  0  1  0  0  0  0  0999 V2000
    6.8875  -17.7913   20.4288 N   0  0  0  0  0  0  0  0  0  0  0  0
    7.9578  -17.0624   19.8017 C   0  0  1  0  0  0  0  0  0  0  0  0
    7.5789  -15.7210   19.2942 C   0  0  0  0  0  0  0  0  0  0  0  0
    7.2012  -14.7296   20.2942 C   0  0  0  0  0  0  0  0  0  0  0  0
    8.0511  -13.6168   20.4131 C   0  0  0  0  0  0  0  0  0  0  0  0
    7.7818  -12.6407   21.3179 C   0  0  0  0  0  0  0  0  0  0  0  0
    6.6718  -12.6977   22.1530 C   0  0  0  0  0  0  0  0  0  0  0  0
    5.8384  -13.8107   22.0211 C   0  0  0  0  0  0  0  0  0  0  0  0
    6.0966  -14.8048   21.1122 C   0  0  0  0  0  0  0  0  0  0  0  0
    9.2025  -17.0379   20.5970 C   0  0  0  0  0  0  0  0  0  0  0  0
   10.2288  -16.5330   20.0862 O   0  0  0  0  0  0  0  0  0  0  0  0
    9.2060  -17.5792   21.9020 N   0  0  0  0  0  0  0  0  0  0  0  0
   10.4248  -17.6741   22.7007 C   0  0  0  0  0  0  0  0  0  0  0  0
   10.4274  -16.6374   23.7781 C   0  0  0  0  0  0  0  0  0  0  0  0
   10.6989  -15.4573   23.4918 O   0  0  0  0  0  0  0  0  0  0  0  0
   10.1235  -16.9979   25.1061 N   0  0  0  0  0  0  0  0  0  0  0  0
   10.5402  -16.3371   26.2890 C   0  0  1  0  0  0  0  0  0  0  0  0
    9.4806  -15.7899   27.1729 C   0  0  0  0  0  0  0  0  0  0  0  0
    8.3138  -15.2346   26.4700 C   0  0  0  0  0  0  0  0  0  0  0  0
    7.3140  -15.9224   25.8551 C   0  0  0  0  0  0  0  0  0  0  0  0
    6.4149  -15.0645   25.3229 N   0  0  0  0  0  0  0  0  0  0  0  0
    6.8470  -13.8109   25.6021 C   0  0  0  0  0  0  0  0  0  0  0  0
    6.2882  -12.5761   25.2816 C   0  0  0  0  0  0  0  0  0  0  0  0
    6.9421  -11.4351   25.6938 C   0  0  0  0  0  0  0  0  0  0  0  0
    8.1207  -11.5009   26.4063 C   0  0  0  0  0  0  0  0  0  0  0  0
    8.6569  -12.7221   26.7133 C   0  0  0  0  0  0  0  0  0  0  0  0
    8.0189  -13.8798   26.3105 C   0  0  0  0  0  0  0  0  0  0  0  0
   11.4367  -17.2206   27.1057 C   0  0  0  0  0  0  0  0  0  0  0  0
   11.5747  -18.5476   26.6815 O   0  0  0  0  0  0  0  0  0  0  0  0
   12.0587  -16.8670   28.1171 O   0  0  0  0  0  0  0  0  0  0  0  0
  2  1  1  1
  2  3  1  0
  3  4  1  0
  4  5  2  0
  5  6  1  0
  7  6  2  0
  8  7  1  0
  9  4  1  0
  9  8  2  0
 10  2  1  0
 10 12  1  0
 11 10  2  0
 13 12  1  0
 13 14  1  0
 14 15  2  0
 16 14  1  0
 16 17  1  0
 17 18  1  1
 19 18  1  0
 20 19  2  0
 21 22  1  0
 21 20  1  0
 22 27  2  0
 23 24  2  0
 23 22  1  0
 24 25  1  0
 25 26  2  0
 27 19  1  0
 27 26  1  0
 28 17  1  0
 28 29  1  0
 30 28  2  0
M  END
$$$$
