FGW.pdb
     RDKit          3D

 30 32  0  0  1  0  0  0  0  0999 V2000
    6.5545  -16.9685   22.4798 N   0  0  0  0  0  0  0  0  0  0  0  0
    7.0480  -16.7839   21.1409 C   0  0  1  0  0  0  0  0  0  0  0  0
    6.4635  -15.6269   20.4199 C   0  0  0  0  0  0  0  0  0  0  0  0
    7.1944  -14.3685   20.5076 C   0  0  0  0  0  0  0  0  0  0  0  0
    7.0678  -13.6632   21.7165 C   0  0  0  0  0  0  0  0  0  0  0  0
    7.7111  -12.4802   21.8919 C   0  0  0  0  0  0  0  0  0  0  0  0
    8.5102  -11.9234   20.8999 C   0  0  0  0  0  0  0  0  0  0  0  0
    8.6244  -12.6380   19.7053 C   0  0  0  0  0  0  0  0  0  0  0  0
    7.9813  -13.8339   19.5128 C   0  0  0  0  0  0  0  0  0  0  0  0
    8.5212  -16.8294   21.0418 C   0  0  0  0  0  0  0  0  0  0  0  0
    9.0537  -16.5925   19.9329 O   0  0  0  0  0  0  0  0  0  0  0  0
    9.2873  -17.1361   22.1885 N   0  0  0  0  0  0  0  0  0  0  0  0
   10.7457  -17.0606   22.1919 C   0  0  0  0  0  0  0  0  0  0  0  0
   11.2401  -16.5346   23.5012 C   0  0  0  0  0  0  0  0  0  0  0  0
   12.4138  -16.1320   23.5955 O   0  0  0  0  0  0  0  0  0  0  0  0
   10.3805  -16.4960   24.6172 N   0  0  0  0  0  0  0  0  0  0  0  0
   10.7504  -16.3490   25.9777 C   0  0  1  0  0  0  0  0  0  0  0  0
    9.9940  -15.3602   26.7862 C   0  0  0  0  0  0  0  0  0  0  0  0
    8.5425  -15.3461   26.5476 C   0  0  0  0  0  0  0  0  0  0  0  0
    7.7267  -16.4162   26.3473 C   0  0  0  0  0  0  0  0  0  0  0  0
    6.4517  -16.0048   26.1663 N   0  0  0  0  0  0  0  0  0  0  0  0
    6.4537  -14.6524   26.2521 C   0  0  0  0  0  0  0  0  0  0  0  0
    5.4042  -13.7438   26.1395 C   0  0  0  0  0  0  0  0  0  0  0  0
    5.6845  -12.4007   26.2703 C   0  0  0  0  0  0  0  0  0  0  0  0
    6.9676  -11.9550   26.5068 C   0  0  0  0  0  0  0  0  0  0  0  0
    7.9879  -12.8607   26.6149 C   0  0  0  0  0  0  0  0  0  0  0  0
    7.7308  -14.2124   26.4874 C   0  0  0  0  0  0  0  0  0  0  0  0
   10.7178  -17.6719   26.6850 C   0  0  0  0  0  0  0  0  0  0  0  0
   10.1218  -18.7395   26.0034 O   0  0  0  0  0  0  0  0  0  0  0  0
   11.1752  -17.8882   27.8159 O   0  0  0  0  0  0  0  0  0  0  0  0
  2  1  1  1
  2  3  1  0
  3  4  1  0
  4  5  2  0
  5  6  1  0
  7  6  2  0
  8  7  1  0
  9  4  1  0
  9  8  2  0
 10  2  1  0
 10 12  1  0
 11 10  2  0
 13 12  1  0
 13 14  1  0
 14 15  2  0
 16 14  1  0
 16 17  1  0
 17 18  1  1
 19 18  1  0
 20 19  2  0
 21 22  1  0
 21 20  1  0
 22 27  2  0
 23 24  2  0
 23 22  1  0
 24 25  1  0
 25 26  2  0
 27 19  1  0
 27 26  1  0
 28 17  1  0
 28 29  1  0
 30 28  2  0
M  END
$$$$
