FGW.pdb
     RDKit          3D

 30 32  0  0  1  0  0  0  0  0999 V2000
    6.5151  -17.3662   21.6419 N   0  0  0  0  0  0  0  0  0  0  0  0
    7.3992  -17.0654   20.5473 C   0  0  1  0  0  0  0  0  0  0  0  0
    7.0160  -15.8735   19.7517 C   0  0  0  0  0  0  0  0  0  0  0  0
    7.2176  -14.5760   20.3850 C   0  0  0  0  0  0  0  0  0  0  0  0
    7.9177  -13.6209   19.6282 C   0  0  0  0  0  0  0  0  0  0  0  0
    8.1550  -12.3834   20.1344 C   0  0  0  0  0  0  0  0  0  0  0  0
    7.7233  -12.0122   21.4026 C   0  0  0  0  0  0  0  0  0  0  0  0
    7.0293  -12.9738   22.1404 C   0  0  0  0  0  0  0  0  0  0  0  0
    6.7816  -14.2278   21.6434 C   0  0  0  0  0  0  0  0  0  0  0  0
    8.8275  -17.0612   20.9243 C   0  0  0  0  0  0  0  0  0  0  0  0
    9.6807  -16.8427   20.0334 O   0  0  0  0  0  0  0  0  0  0  0  0
    9.1941  -17.3014   22.2674 N   0  0  0  0  0  0  0  0  0  0  0  0
   10.5865  -17.2887   22.7072 C   0  0  0  0  0  0  0  0  0  0  0  0
   10.7411  -16.4478   23.9337 C   0  0  0  0  0  0  0  0  0  0  0  0
   11.3894  -15.3874   23.8715 O   0  0  0  0  0  0  0  0  0  0  0  0
   10.1552  -16.8559   25.1486 N   0  0  0  0  0  0  0  0  0  0  0  0
   10.5874  -16.5309   26.4590 C   0  0  1  0  0  0  0  0  0  0  0  0
    9.6008  -15.8862   27.3615 C   0  0  0  0  0  0  0  0  0  0  0  0
    8.3290  -15.5135   26.7231 C   0  0  0  0  0  0  0  0  0  0  0  0
    7.3949  -16.3473   26.1911 C   0  0  0  0  0  0  0  0  0  0  0  0
    6.3577  -15.6338   25.6983 N   0  0  0  0  0  0  0  0  0  0  0  0
    6.6337  -14.3256   25.9190 C   0  0  0  0  0  0  0  0  0  0  0  0
    5.8955  -13.1868   25.6063 C   0  0  0  0  0  0  0  0  0  0  0  0
    6.4141  -11.9565   25.9478 C   0  0  0  0  0  0  0  0  0  0  0  0
    7.6324  -11.8424   26.5834 C   0  0  0  0  0  0  0  0  0  0  0  0
    8.3456  -12.9712   26.8838 C   0  0  0  0  0  0  0  0  0  0  0  0
    7.8455  -14.2157   26.5510 C   0  0  0  0  0  0  0  0  0  0  0  0
   11.1512  -17.7380   27.1491 C   0  0  0  0  0  0  0  0  0  0  0  0
   10.9228  -18.9785   26.5420 O   0  0  0  0  0  0  0  0  0  0  0  0
   11.7982  -17.7192   28.2056 O   0  0  0  0  0  0  0  0  0  0  0  0
  2  1  1  1
  2  3  1  0
  3  4  1  0
  4  5  2  0
  5  6  1  0
  7  6  2  0
  8  7  1  0
  9  4  1  0
  9  8  2  0
 10  2  1  0
 10 12  1  0
 11 10  2  0
 13 12  1  0
 13 14  1  0
 14 15  2  0
 16 14  1  0
 16 17  1  0
 17 18  1  1
 19 18  1  0
 20 19  2  0
 21 22  1  0
 21 20  1  0
 22 27  2  0
 23 24  2  0
 23 22  1  0
 24 25  1  0
 25 26  2  0
 27 19  1  0
 27 26  1  0
 28 17  1  0
 28 29  1  0
 30 28  2  0
M  END
$$$$
