FGW.pdb
     RDKit          3D

 30 32  0  0  1  0  0  0  0  0999 V2000
    7.4043  -16.0203   23.4466 N   0  0  0  0  0  0  0  0  0  0  0  0
    8.1186  -14.9312   22.8351 C   0  0  1  0  0  0  0  0  0  0  0  0
    8.5018  -13.8420   23.7663 C   0  0  0  0  0  0  0  0  0  0  0  0
    7.5505  -13.5258   24.8247 C   0  0  0  0  0  0  0  0  0  0  0  0
    6.7829  -14.5998   25.3069 C   0  0  0  0  0  0  0  0  0  0  0  0
    5.8694  -14.4030   26.2923 C   0  0  0  0  0  0  0  0  0  0  0  0
    5.6563  -13.1514   26.8585 C   0  0  0  0  0  0  0  0  0  0  0  0
    6.4278  -12.0959   26.3670 C   0  0  0  0  0  0  0  0  0  0  0  0
    7.3544  -12.2784   25.3725 C   0  0  0  0  0  0  0  0  0  0  0  0
    9.2403  -15.3664   21.9780 C   0  0  0  0  0  0  0  0  0  0  0  0
    9.8351  -14.5060   21.2887 O   0  0  0  0  0  0  0  0  0  0  0  0
    9.6120  -16.7292   21.9559 N   0  0  0  0  0  0  0  0  0  0  0  0
   10.9296  -17.1683   21.5048 C   0  0  0  0  0  0  0  0  0  0  0  0
   11.8616  -17.3071   22.6656 C   0  0  0  0  0  0  0  0  0  0  0  0
   13.0902  -17.3115   22.4675 O   0  0  0  0  0  0  0  0  0  0  0  0
   11.3490  -17.4310   23.9724 N   0  0  0  0  0  0  0  0  0  0  0  0
   12.0585  -17.8180   25.1370 C   0  0  1  0  0  0  0  0  0  0  0  0
   11.2723  -18.0101   26.3813 C   0  0  0  0  0  0  0  0  0  0  0  0
   10.2319  -16.9975   26.6187 C   0  0  0  0  0  0  0  0  0  0  0  0
    8.9073  -17.0873   26.3222 C   0  0  0  0  0  0  0  0  0  0  0  0
    8.2672  -15.9559   26.6935 N   0  0  0  0  0  0  0  0  0  0  0  0
    9.1968  -15.1319   27.2350 C   0  0  0  0  0  0  0  0  0  0  0  0
    9.0612  -13.8529   27.7693 C   0  0  0  0  0  0  0  0  0  0  0  0
   10.1858  -13.2270   28.2622 C   0  0  0  0  0  0  0  0  0  0  0  0
   11.4200  -13.8408   28.2329 C   0  0  0  0  0  0  0  0  0  0  0  0
   11.5365  -15.0979   27.7045 C   0  0  0  0  0  0  0  0  0  0  0  0
   10.4227  -15.7451   27.2044 C   0  0  0  0  0  0  0  0  0  0  0  0
   12.8643  -19.0580   24.8829 C   0  0  0  0  0  0  0  0  0  0  0  0
   12.3600  -19.9576   23.9363 O   0  0  0  0  0  0  0  0  0  0  0  0
   13.9326  -19.3422   25.4422 O   0  0  0  0  0  0  0  0  0  0  0  0
  2  1  1  1
  2  3  1  0
  3  4  1  0
  4  5  2  0
  5  6  1  0
  7  6  2  0
  8  7  1  0
  9  4  1  0
  9  8  2  0
 10  2  1  0
 10 12  1  0
 11 10  2  0
 13 12  1  0
 13 14  1  0
 14 15  2  0
 16 14  1  0
 16 17  1  0
 17 18  1  1
 19 18  1  0
 20 19  2  0
 21 22  1  0
 21 20  1  0
 22 27  2  0
 23 24  2  0
 23 22  1  0
 24 25  1  0
 25 26  2  0
 27 19  1  0
 27 26  1  0
 28 17  1  0
 28 29  1  0
 30 28  2  0
M  END
$$$$
