EWW.pdb
     RDKit          3D

 38 41  0  0  1  0  0  0  0  0999 V2000
    8.8445  -19.3426   19.8882 N   0  0  0  0  0  0  0  0  0  0  0  0
    9.4713  -18.1367   19.4622 C   0  0  1  0  0  0  0  0  0  0  0  0
    8.9858  -17.5938   18.1662 C   0  0  0  0  0  0  0  0  0  0  0  0
    9.7152  -16.4508   17.5789 C   0  0  0  0  0  0  0  0  0  0  0  0
   10.2202  -16.6647   16.2255 C   0  0  0  0  0  0  0  0  0  0  0  0
   11.2198  -17.3083   15.8674 O   0  0  0  0  0  0  0  0  0  0  0  0
    9.3693  -17.1230   20.5641 C   0  0  0  0  0  0  0  0  0  0  0  0
   10.0069  -16.0300   20.5056 O   0  0  0  0  0  0  0  0  0  0  0  0
    9.5029  -16.0749   15.1464 O   0  0  0  0  0  0  0  0  0  0  0  0
    8.5739  -17.3061   21.7196 N   0  0  0  0  0  0  0  0  0  0  0  0
    8.5553  -16.3475   22.8448 C   0  0  1  0  0  0  0  0  0  0  0  0
    7.5197  -16.7526   23.8207 C   0  0  0  0  0  0  0  0  0  0  0  0
    6.9659  -15.6911   24.6521 C   0  0  0  0  0  0  0  0  0  0  0  0
    5.9614  -15.8038   25.6225 C   0  0  0  0  0  0  0  0  0  0  0  0
    5.7153  -14.6178   26.1725 N   0  0  0  0  0  0  0  0  0  0  0  0
    6.5131  -13.6771   25.6211 C   0  0  0  0  0  0  0  0  0  0  0  0
    6.6200  -12.3204   25.8894 C   0  0  0  0  0  0  0  0  0  0  0  0
    7.5560  -11.5797   25.1763 C   0  0  0  0  0  0  0  0  0  0  0  0
    8.3389  -12.2152   24.2340 C   0  0  0  0  0  0  0  0  0  0  0  0
    8.2061  -13.5628   23.9928 C   0  0  0  0  0  0  0  0  0  0  0  0
    7.2868  -14.3265   24.6837 C   0  0  0  0  0  0  0  0  0  0  0  0
    9.8957  -16.2117   23.4231 C   0  0  0  0  0  0  0  0  0  0  0  0
   10.4873  -15.0650   23.3837 O   0  0  0  0  0  0  0  0  0  0  0  0
   10.6475  -17.2250   24.0546 N   0  0  0  0  0  0  0  0  0  0  0  0
   12.0386  -16.9541   24.5065 C   0  0  1  0  0  0  0  0  0  0  0  0
   12.1180  -17.4341   25.9295 C   0  0  0  0  0  0  0  0  0  0  0  0
   11.1661  -16.8631   26.8804 C   0  0  0  0  0  0  0  0  0  0  0  0
   10.1636  -17.5413   27.5897 C   0  0  0  0  0  0  0  0  0  0  0  0
    9.4801  -16.6802   28.3365 N   0  0  0  0  0  0  0  0  0  0  0  0
    9.9594  -15.4336   28.1815 C   0  0  0  0  0  0  0  0  0  0  0  0
    9.5928  -14.2347   28.7512 C   0  0  0  0  0  0  0  0  0  0  0  0
   10.2716  -13.0617   28.4375 C   0  0  0  0  0  0  0  0  0  0  0  0
   11.3100  -13.1625   27.5455 C   0  0  0  0  0  0  0  0  0  0  0  0
   11.6660  -14.3649   26.9838 C   0  0  0  0  0  0  0  0  0  0  0  0
   11.0042  -15.5408   27.2810 C   0  0  0  0  0  0  0  0  0  0  0  0
   12.9460  -17.6893   23.6471 C   0  0  0  0  0  0  0  0  0  0  0  0
   12.5439  -18.4629   22.7499 O   0  0  0  0  0  0  0  0  0  0  0  0
   14.3201  -17.5386   23.8065 O   0  0  0  0  0  0  0  0  0  0  0  0
  2  1  1  1
  2  3  1  0
  3  4  1  0
  4  5  1  0
  5  9  1  0
  6  5  2  0
  7  8  2  0
  7  2  1  0
 10  7  1  0
 11 10  1  0
 11 22  1  0
 11 12  1  1
 13 12  1  0
 14 13  2  0
 15 16  1  0
 15 14  1  0
 16 21  2  0
 17 18  2  0
 17 16  1  0
 18 19  1  0
 19 20  2  0
 21 20  1  0
 21 13  1  0
 22 24  1  0
 23 22  2  0
 24 25  1  0
 25 26  1  1
 27 26  1  0
 27 28  2  0
 29 28  1  0
 30 35  2  0
 30 29  1  0
 31 30  1  0
 32 33  1  0
 32 31  2  0
 33 34  2  0
 34 35  1  0
 35 27  1  0
 36 25  1  0
 36 38  1  0
 37 36  2  0
M  END
$$$$
