EWW.pdb
     RDKit          3D

 38 41  0  0  1  0  0  0  0  0999 V2000
    9.3417  -19.0284   19.8102 N   0  0  0  0  0  0  0  0  0  0  0  0
   10.4592  -18.7338   20.6426 C   0  0  1  0  0  0  0  0  0  0  0  0
   11.7874  -18.8504   19.9850 C   0  0  0  0  0  0  0  0  0  0  0  0
   12.9884  -18.5677   20.7979 C   0  0  0  0  0  0  0  0  0  0  0  0
   14.2490  -18.5539   20.0609 C   0  0  0  0  0  0  0  0  0  0  0  0
   15.0132  -19.5025   19.8208 O   0  0  0  0  0  0  0  0  0  0  0  0
   10.2597  -17.3802   21.2591 C   0  0  0  0  0  0  0  0  0  0  0  0
   10.8887  -16.3685   20.8285 O   0  0  0  0  0  0  0  0  0  0  0  0
   14.6974  -17.3102   19.5325 O   0  0  0  0  0  0  0  0  0  0  0  0
    9.3771  -17.1382   22.3379 N   0  0  0  0  0  0  0  0  0  0  0  0
    9.1767  -15.7984   22.9296 C   0  0  1  0  0  0  0  0  0  0  0  0
    7.7766  -15.3700   22.7178 C   0  0  0  0  0  0  0  0  0  0  0  0
    7.3612  -15.1830   21.3332 C   0  0  0  0  0  0  0  0  0  0  0  0
    6.5092  -16.0017   20.5801 C   0  0  0  0  0  0  0  0  0  0  0  0
    6.3667  -15.5134   19.3508 N   0  0  0  0  0  0  0  0  0  0  0  0
    7.0896  -14.3799   19.2162 C   0  0  0  0  0  0  0  0  0  0  0  0
    7.2295  -13.5274   18.1309 C   0  0  0  0  0  0  0  0  0  0  0  0
    8.0320  -12.4014   18.2771 C   0  0  0  0  0  0  0  0  0  0  0  0
    8.6564  -12.1738   19.4867 C   0  0  0  0  0  0  0  0  0  0  0  0
    8.4963  -13.0408   20.5424 C   0  0  0  0  0  0  0  0  0  0  0  0
    7.7063  -14.1673   20.4301 C   0  0  0  0  0  0  0  0  0  0  0  0
    9.5933  -15.7926   24.3354 C   0  0  0  0  0  0  0  0  0  0  0  0
    9.7139  -14.6659   24.9538 O   0  0  0  0  0  0  0  0  0  0  0  0
    9.8820  -16.9200   25.1332 N   0  0  0  0  0  0  0  0  0  0  0  0
   10.3200  -16.7466   26.5442 C   0  0  1  0  0  0  0  0  0  0  0  0
    9.0642  -16.7016   27.3703 C   0  0  0  0  0  0  0  0  0  0  0  0
    8.0421  -15.7329   26.9784 C   0  0  0  0  0  0  0  0  0  0  0  0
    6.7510  -16.0061   26.5022 C   0  0  0  0  0  0  0  0  0  0  0  0
    6.1241  -14.8678   26.2239 N   0  0  0  0  0  0  0  0  0  0  0  0
    6.9173  -13.8137   26.4843 C   0  0  0  0  0  0  0  0  0  0  0  0
    6.7040  -12.4580   26.3720 C   0  0  0  0  0  0  0  0  0  0  0  0
    7.6950  -11.5503   26.7317 C   0  0  0  0  0  0  0  0  0  0  0  0
    8.8765  -12.0706   27.1980 C   0  0  0  0  0  0  0  0  0  0  0  0
    9.0771  -13.4257   27.3052 C   0  0  0  0  0  0  0  0  0  0  0  0
    8.1065  -14.3436   26.9523 C   0  0  0  0  0  0  0  0  0  0  0  0
   11.1511  -17.8791   26.9036 C   0  0  0  0  0  0  0  0  0  0  0  0
   11.3944  -18.8139   26.1084 O   0  0  0  0  0  0  0  0  0  0  0  0
   11.7136  -17.9452   28.1746 O   0  0  0  0  0  0  0  0  0  0  0  0
  2  1  1  6
  2  3  1  0
  3  4  1  0
  4  5  1  0
  5  9  1  0
  6  5  2  0
  7  8  2  0
  7  2  1  0
 10  7  1  0
 11 10  1  0
 11 22  1  0
 11 12  1  1
 13 12  1  0
 14 13  2  0
 15 16  1  0
 15 14  1  0
 16 21  2  0
 17 18  2  0
 17 16  1  0
 18 19  1  0
 19 20  2  0
 21 20  1  0
 21 13  1  0
 22 24  1  0
 23 22  2  0
 24 25  1  0
 25 26  1  1
 27 26  1  0
 27 28  2  0
 29 28  1  0
 30 35  2  0
 30 29  1  0
 31 30  1  0
 32 33  1  0
 32 31  2  0
 33 34  2  0
 34 35  1  0
 35 27  1  0
 36 25  1  0
 36 38  1  0
 37 36  2  0
M  END
$$$$
