EWW.pdb
     RDKit          3D

 38 41  0  0  1  0  0  0  0  0999 V2000
   12.1372  -17.3011   20.1626 N   0  0  0  0  0  0  0  0  0  0  0  0
   10.7861  -17.5069   20.5634 C   0  0  1  0  0  0  0  0  0  0  0  0
   10.4098  -18.9222   20.8196 C   0  0  0  0  0  0  0  0  0  0  0  0
   11.4964  -19.9177   20.9272 C   0  0  0  0  0  0  0  0  0  0  0  0
   11.6393  -20.5429   22.2392 C   0  0  0  0  0  0  0  0  0  0  0  0
   10.7480  -20.8726   23.0382 O   0  0  0  0  0  0  0  0  0  0  0  0
   10.4932  -16.6299   21.7454 C   0  0  0  0  0  0  0  0  0  0  0  0
   11.4310  -16.1215   22.4284 O   0  0  0  0  0  0  0  0  0  0  0  0
   12.9556  -20.8278   22.7008 O   0  0  0  0  0  0  0  0  0  0  0  0
    9.1828  -16.3123   22.1737 N   0  0  0  0  0  0  0  0  0  0  0  0
    8.9037  -15.4871   23.3681 C   0  0  1  0  0  0  0  0  0  0  0  0
    7.4705  -15.1204   23.3903 C   0  0  0  0  0  0  0  0  0  0  0  0
    6.9897  -14.4687   24.6021 C   0  0  0  0  0  0  0  0  0  0  0  0
    6.2328  -15.0387   25.6345 C   0  0  0  0  0  0  0  0  0  0  0  0
    5.9770  -14.1325   26.5743 N   0  0  0  0  0  0  0  0  0  0  0  0
    6.5289  -12.9464   26.2363 C   0  0  0  0  0  0  0  0  0  0  0  0
    6.5368  -11.7346   26.9113 C   0  0  0  0  0  0  0  0  0  0  0  0
    7.2110  -10.6640   26.3348 C   0  0  0  0  0  0  0  0  0  0  0  0
    7.8429  -10.8431   25.1210 C   0  0  0  0  0  0  0  0  0  0  0  0
    7.8144  -12.0589   24.4784 C   0  0  0  0  0  0  0  0  0  0  0  0
    7.1543  -13.1416   25.0241 C   0  0  0  0  0  0  0  0  0  0  0  0
    9.3602  -16.1723   24.5812 C   0  0  0  0  0  0  0  0  0  0  0  0
    9.7956  -15.4735   25.5754 O   0  0  0  0  0  0  0  0  0  0  0  0
    9.3730  -17.5649   24.8081 N   0  0  0  0  0  0  0  0  0  0  0  0
    9.4473  -18.0970   26.1952 C   0  0  1  0  0  0  0  0  0  0  0  0
    8.0907  -18.6714   26.4971 C   0  0  0  0  0  0  0  0  0  0  0  0
    7.4900  -19.5333   25.4808 C   0  0  0  0  0  0  0  0  0  0  0  0
    7.5937  -20.9289   25.3814 C   0  0  0  0  0  0  0  0  0  0  0  0
    6.9348  -21.3535   24.3082 N   0  0  0  0  0  0  0  0  0  0  0  0
    6.3761  -20.3196   23.6549 C   0  0  0  0  0  0  0  0  0  0  0  0
    5.5979  -20.2668   22.5202 C   0  0  0  0  0  0  0  0  0  0  0  0
    5.1138  -19.0518   22.0460 C   0  0  0  0  0  0  0  0  0  0  0  0
    5.4472  -17.9275   22.7594 C   0  0  0  0  0  0  0  0  0  0  0  0
    6.2248  -17.9934   23.8903 C   0  0  0  0  0  0  0  0  0  0  0  0
    6.7163  -19.1895   24.3770 C   0  0  0  0  0  0  0  0  0  0  0  0
   10.4764  -19.1177   26.2350 C   0  0  0  0  0  0  0  0  0  0  0  0
   10.7764  -19.7297   27.2841 O   0  0  0  0  0  0  0  0  0  0  0  0
   11.1647  -19.4479   25.0715 O   0  0  0  0  0  0  0  0  0  0  0  0
  2  1  1  1
  2  3  1  0
  3  4  1  0
  4  5  1  0
  5  9  1  0
  6  5  2  0
  7  8  2  0
  7  2  1  0
 10  7  1  0
 11 10  1  0
 11 22  1  0
 11 12  1  1
 13 12  1  0
 14 13  2  0
 15 16  1  0
 15 14  1  0
 16 21  2  0
 17 18  2  0
 17 16  1  0
 18 19  1  0
 19 20  2  0
 21 20  1  0
 21 13  1  0
 22 24  1  0
 23 22  2  0
 24 25  1  0
 25 26  1  6
 27 26  1  0
 27 28  2  0
 29 28  1  0
 30 35  2  0
 30 29  1  0
 31 30  1  0
 32 33  1  0
 32 31  2  0
 33 34  2  0
 34 35  1  0
 35 27  1  0
 36 25  1  0
 36 38  1  0
 37 36  2  0
M  END
$$$$
