EWW.pdb
     RDKit          3D

 38 41  0  0  1  0  0  0  0  0999 V2000
   10.7259  -19.1626   19.5812 N   0  0  0  0  0  0  0  0  0  0  0  0
   11.6443  -18.0805   19.6994 C   0  0  1  0  0  0  0  0  0  0  0  0
   11.8517  -17.2871   18.4593 C   0  0  0  0  0  0  0  0  0  0  0  0
   12.4401  -17.9729   17.2903 C   0  0  0  0  0  0  0  0  0  0  0  0
   12.5329  -17.1652   16.0772 C   0  0  0  0  0  0  0  0  0  0  0  0
   12.2498  -15.9659   15.9249 O   0  0  0  0  0  0  0  0  0  0  0  0
   11.2259  -17.2144   20.8513 C   0  0  0  0  0  0  0  0  0  0  0  0
   11.9125  -16.2057   21.1918 O   0  0  0  0  0  0  0  0  0  0  0  0
   13.0040  -17.7969   14.8914 O   0  0  0  0  0  0  0  0  0  0  0  0
   10.0638  -17.4518   21.6223 N   0  0  0  0  0  0  0  0  0  0  0  0
    9.5929  -16.5272   22.6752 C   0  0  1  0  0  0  0  0  0  0  0  0
    8.1164  -16.4421   22.6327 C   0  0  0  0  0  0  0  0  0  0  0  0
    7.5396  -15.8177   21.4486 C   0  0  0  0  0  0  0  0  0  0  0  0
    6.6253  -16.3795   20.5475 C   0  0  0  0  0  0  0  0  0  0  0  0
    6.3306  -15.5091   19.5856 N   0  0  0  0  0  0  0  0  0  0  0  0
    7.0067  -14.3559   19.7815 C   0  0  0  0  0  0  0  0  0  0  0  0
    7.0005  -13.1760   19.0521 C   0  0  0  0  0  0  0  0  0  0  0  0
    7.7883  -12.1211   19.4991 C   0  0  0  0  0  0  0  0  0  0  0  0
    8.5429  -12.2841   20.6432 C   0  0  0  0  0  0  0  0  0  0  0  0
    8.5259  -13.4686   21.3421 C   0  0  0  0  0  0  0  0  0  0  0  0
    7.7544  -14.5347   20.9251 C   0  0  0  0  0  0  0  0  0  0  0  0
   10.1275  -16.9244   23.9813 C   0  0  0  0  0  0  0  0  0  0  0  0
   11.2624  -17.5368   24.0396 O   0  0  0  0  0  0  0  0  0  0  0  0
    9.5302  -16.6999   25.2398 N   0  0  0  0  0  0  0  0  0  0  0  0
   10.3745  -16.5769   26.4583 C   0  0  1  0  0  0  0  0  0  0  0  0
    9.9810  -15.2809   27.1118 C   0  0  0  0  0  0  0  0  0  0  0  0
    8.6188  -14.8038   26.8807 C   0  0  0  0  0  0  0  0  0  0  0  0
    7.4932  -15.5743   26.5526 C   0  0  0  0  0  0  0  0  0  0  0  0
    6.4374  -14.7830   26.3932 N   0  0  0  0  0  0  0  0  0  0  0  0
    6.7740  -13.4969   26.5953 C   0  0  0  0  0  0  0  0  0  0  0  0
    6.0291  -12.3394   26.5592 C   0  0  0  0  0  0  0  0  0  0  0  0
    6.6159  -11.1077   26.8308 C   0  0  0  0  0  0  0  0  0  0  0  0
    7.9549  -11.1089   27.1331 C   0  0  0  0  0  0  0  0  0  0  0  0
    8.6873  -12.2710   27.1658 C   0  0  0  0  0  0  0  0  0  0  0  0
    8.1240  -13.5039   26.8981 C   0  0  0  0  0  0  0  0  0  0  0  0
   10.0972  -17.7106   27.3187 C   0  0  0  0  0  0  0  0  0  0  0  0
   10.6895  -17.8904   28.4059 O   0  0  0  0  0  0  0  0  0  0  0  0
    9.1353  -18.6427   26.9417 O   0  0  0  0  0  0  0  0  0  0  0  0
  2  1  1  6
  2  3  1  0
  3  4  1  0
  4  5  1  0
  5  9  1  0
  6  5  2  0
  7  8  2  0
  7  2  1  0
 10  7  1  0
 11 10  1  0
 11 22  1  0
 11 12  1  1
 13 12  1  0
 14 13  2  0
 15 16  1  0
 15 14  1  0
 16 21  2  0
 17 18  2  0
 17 16  1  0
 18 19  1  0
 19 20  2  0
 21 20  1  0
 21 13  1  0
 22 24  1  0
 23 22  2  0
 24 25  1  0
 25 26  1  1
 27 26  1  0
 27 28  2  0
 29 28  1  0
 30 35  2  0
 30 29  1  0
 31 30  1  0
 32 33  1  0
 32 31  2  0
 33 34  2  0
 34 35  1  0
 35 27  1  0
 36 25  1  0
 36 38  1  0
 37 36  2  0
M  END
$$$$
