EWW.pdb
     RDKit          3D

 38 41  0  0  1  0  0  0  0  0999 V2000
    9.7080  -17.9959   17.7442 N   0  0  0  0  0  0  0  0  0  0  0  0
   10.6028  -18.4876   18.7372 C   0  0  1  0  0  0  0  0  0  0  0  0
   11.9961  -18.7219   18.2745 C   0  0  0  0  0  0  0  0  0  0  0  0
   12.6326  -17.6798   17.4425 C   0  0  0  0  0  0  0  0  0  0  0  0
   13.9749  -17.9997   16.9644 C   0  0  0  0  0  0  0  0  0  0  0  0
   14.6314  -19.0379   17.1449 O   0  0  0  0  0  0  0  0  0  0  0  0
   10.5570  -17.5723   19.9256 C   0  0  0  0  0  0  0  0  0  0  0  0
   11.1499  -16.4530   19.9097 O   0  0  0  0  0  0  0  0  0  0  0  0
   14.6552  -17.0205   16.1866 O   0  0  0  0  0  0  0  0  0  0  0  0
    9.8658  -17.8815   21.1206 N   0  0  0  0  0  0  0  0  0  0  0  0
    9.7497  -16.9366   22.2515 C   0  0  1  0  0  0  0  0  0  0  0  0
    8.3291  -16.5717   22.4455 C   0  0  0  0  0  0  0  0  0  0  0  0
    7.6881  -15.8643   21.3440 C   0  0  0  0  0  0  0  0  0  0  0  0
    6.6086  -16.2995   20.5638 C   0  0  0  0  0  0  0  0  0  0  0  0
    6.3023  -15.3848   19.6478 N   0  0  0  0  0  0  0  0  0  0  0  0
    7.1300  -14.3227   19.7590 C   0  0  0  0  0  0  0  0  0  0  0  0
    7.1737  -13.1386   19.0378 C   0  0  0  0  0  0  0  0  0  0  0  0
    8.1310  -12.1915   19.3841 C   0  0  0  0  0  0  0  0  0  0  0  0
    8.9971  -12.4610   20.4242 C   0  0  0  0  0  0  0  0  0  0  0  0
    8.9262  -13.6465   21.1180 C   0  0  0  0  0  0  0  0  0  0  0  0
    7.9874  -14.6072   20.7996 C   0  0  0  0  0  0  0  0  0  0  0  0
   10.3895  -17.4906   23.4487 C   0  0  0  0  0  0  0  0  0  0  0  0
   10.4617  -18.7717   23.5908 O   0  0  0  0  0  0  0  0  0  0  0  0
   10.9706  -16.7612   24.5075 N   0  0  0  0  0  0  0  0  0  0  0  0
   10.1091  -16.1253   25.5402 C   0  0  1  0  0  0  0  0  0  0  0  0
    9.1072  -15.2889   24.7931 C   0  0  0  0  0  0  0  0  0  0  0  0
    7.9856  -14.7488   25.5591 C   0  0  0  0  0  0  0  0  0  0  0  0
    6.9441  -15.4693   26.1630 C   0  0  0  0  0  0  0  0  0  0  0  0
    6.0952  -14.6292   26.7460 N   0  0  0  0  0  0  0  0  0  0  0  0
    6.4961  -13.3569   26.5774 C   0  0  0  0  0  0  0  0  0  0  0  0
    5.9602  -12.1638   27.0078 C   0  0  0  0  0  0  0  0  0  0  0  0
    6.5867  -10.9566   26.7157 C   0  0  0  0  0  0  0  0  0  0  0  0
    7.7494  -11.0183   25.9887 C   0  0  0  0  0  0  0  0  0  0  0  0
    8.2740  -12.2154   25.5648 C   0  0  0  0  0  0  0  0  0  0  0  0
    7.6668  -13.4249   25.8433 C   0  0  0  0  0  0  0  0  0  0  0  0
    9.4611  -17.1765   26.3003 C   0  0  0  0  0  0  0  0  0  0  0  0
    9.4433  -17.1886   27.5511 O   0  0  0  0  0  0  0  0  0  0  0  0
    8.8244  -18.2177   25.6319 O   0  0  0  0  0  0  0  0  0  0  0  0
  2  1  1  6
  2  3  1  0
  3  4  1  0
  4  5  1  0
  5  9  1  0
  6  5  2  0
  7  8  2  0
  7  2  1  0
 10  7  1  0
 11 10  1  0
 11 22  1  0
 11 12  1  1
 13 12  1  0
 14 13  2  0
 15 16  1  0
 15 14  1  0
 16 21  2  0
 17 18  2  0
 17 16  1  0
 18 19  1  0
 19 20  2  0
 21 20  1  0
 21 13  1  0
 22 24  1  0
 23 22  2  0
 24 25  1  0
 25 26  1  6
 27 26  1  0
 27 28  2  0
 29 28  1  0
 30 35  2  0
 30 29  1  0
 31 30  1  0
 32 33  1  0
 32 31  2  0
 33 34  2  0
 34 35  1  0
 35 27  1  0
 36 25  1  0
 36 38  1  0
 37 36  2  0
M  END
$$$$
