EWW.pdb
     RDKit          3D

 38 41  0  0  1  0  0  0  0  0999 V2000
    8.2182  -13.9008   17.6451 N   0  0  0  0  0  0  0  0  0  0  0  0
    8.3148  -15.2232   18.1651 C   0  0  1  0  0  0  0  0  0  0  0  0
    9.2200  -16.1341   17.4159 C   0  0  0  0  0  0  0  0  0  0  0  0
   10.0033  -15.5655   16.2995 C   0  0  0  0  0  0  0  0  0  0  0  0
   10.7888  -16.5312   15.5359 C   0  0  0  0  0  0  0  0  0  0  0  0
   10.8637  -17.7607   15.6918 O   0  0  0  0  0  0  0  0  0  0  0  0
    8.6805  -15.1461   19.6185 C   0  0  0  0  0  0  0  0  0  0  0  0
    9.3492  -14.1704   20.0717 O   0  0  0  0  0  0  0  0  0  0  0  0
   11.5877  -16.0406   14.4644 O   0  0  0  0  0  0  0  0  0  0  0  0
    8.3148  -16.1300   20.5669 N   0  0  0  0  0  0  0  0  0  0  0  0
    8.3258  -15.8868   22.0249 C   0  0  1  0  0  0  0  0  0  0  0  0
    6.9348  -15.8221   22.5247 C   0  0  0  0  0  0  0  0  0  0  0  0
    6.7706  -15.4982   23.9364 C   0  0  0  0  0  0  0  0  0  0  0  0
    6.4311  -16.3717   24.9782 C   0  0  0  0  0  0  0  0  0  0  0  0
    6.3685  -15.7124   26.1319 N   0  0  0  0  0  0  0  0  0  0  0  0
    6.6528  -14.4063   25.9349 C   0  0  0  0  0  0  0  0  0  0  0  0
    6.7250  -13.3566   26.8387 C   0  0  0  0  0  0  0  0  0  0  0  0
    7.0664  -12.0969   26.3592 C   0  0  0  0  0  0  0  0  0  0  0  0
    7.3187  -11.9367   25.0119 C   0  0  0  0  0  0  0  0  0  0  0  0
    7.2374  -12.9998   24.1431 C   0  0  0  0  0  0  0  0  0  0  0  0
    6.9014  -14.2631   24.5871 C   0  0  0  0  0  0  0  0  0  0  0  0
    9.1549  -16.8873   22.7041 C   0  0  0  0  0  0  0  0  0  0  0  0
    9.1102  -18.1164   22.3118 O   0  0  0  0  0  0  0  0  0  0  0  0
   10.0430  -16.6581   23.7763 N   0  0  0  0  0  0  0  0  0  0  0  0
   10.8858  -17.7661   24.3005 C   0  0  1  0  0  0  0  0  0  0  0  0
   11.9221  -17.1240   25.1811 C   0  0  0  0  0  0  0  0  0  0  0  0
   11.4710  -16.5992   26.4686 C   0  0  0  0  0  0  0  0  0  0  0  0
   11.0920  -17.3362   27.6006 C   0  0  0  0  0  0  0  0  0  0  0  0
   10.7152  -16.5092   28.5703 N   0  0  0  0  0  0  0  0  0  0  0  0
   10.8141  -15.2301   28.1677 C   0  0  0  0  0  0  0  0  0  0  0  0
   10.5570  -14.0436   28.8174 C   0  0  0  0  0  0  0  0  0  0  0  0
   10.7618  -12.8247   28.1790 C   0  0  0  0  0  0  0  0  0  0  0  0
   11.2275  -12.8680   26.8885 C   0  0  0  0  0  0  0  0  0  0  0  0
   11.4800  -14.0587   26.2510 C   0  0  0  0  0  0  0  0  0  0  0  0
   11.2822  -15.2797   26.8667 C   0  0  0  0  0  0  0  0  0  0  0  0
   10.0343  -18.6666   25.0532 C   0  0  0  0  0  0  0  0  0  0  0  0
    8.8681  -18.3646   25.3907 O   0  0  0  0  0  0  0  0  0  0  0  0
   10.5116  -19.9214   25.4192 O   0  0  0  0  0  0  0  0  0  0  0  0
  2  1  1  6
  2  3  1  0
  3  4  1  0
  4  5  1  0
  5  9  1  0
  6  5  2  0
  7  8  2  0
  7  2  1  0
 10  7  1  0
 11 10  1  0
 11 22  1  0
 11 12  1  1
 13 12  1  0
 14 13  2  0
 15 16  1  0
 15 14  1  0
 16 21  2  0
 17 18  2  0
 17 16  1  0
 18 19  1  0
 19 20  2  0
 21 20  1  0
 21 13  1  0
 22 24  1  0
 23 22  2  0
 24 25  1  0
 25 26  1  1
 27 26  1  0
 27 28  2  0
 29 28  1  0
 30 35  2  0
 30 29  1  0
 31 30  1  0
 32 33  1  0
 32 31  2  0
 33 34  2  0
 34 35  1  0
 35 27  1  0
 36 25  1  0
 36 38  1  0
 37 36  2  0
M  END
$$$$
