EWW.pdb
     RDKit          3D

 38 41  0  0  1  0  0  0  0  0999 V2000
   11.7030  -18.5371   19.3572 N   0  0  0  0  0  0  0  0  0  0  0  0
   12.3372  -17.4536   20.0298 C   0  0  1  0  0  0  0  0  0  0  0  0
   12.8109  -16.3523   19.1507 C   0  0  0  0  0  0  0  0  0  0  0  0
   13.6552  -15.3006   19.7543 C   0  0  0  0  0  0  0  0  0  0  0  0
   14.0609  -14.2314   18.8461 C   0  0  0  0  0  0  0  0  0  0  0  0
   13.8847  -13.0083   18.9663 O   0  0  0  0  0  0  0  0  0  0  0  0
   11.4220  -16.9513   21.1078 C   0  0  0  0  0  0  0  0  0  0  0  0
   11.8616  -16.2329   22.0540 O   0  0  0  0  0  0  0  0  0  0  0  0
   14.7506  -14.5958   17.6551 O   0  0  0  0  0  0  0  0  0  0  0  0
   10.0363  -17.2335   21.1471 N   0  0  0  0  0  0  0  0  0  0  0  0
    9.1610  -16.8180   22.2635 C   0  0  1  0  0  0  0  0  0  0  0  0
    7.7991  -16.5522   21.7501 C   0  0  0  0  0  0  0  0  0  0  0  0
    7.7156  -15.8694   20.4650 C   0  0  0  0  0  0  0  0  0  0  0  0
    7.5019  -16.4448   19.2054 C   0  0  0  0  0  0  0  0  0  0  0  0
    7.4929  -15.5052   18.2638 N   0  0  0  0  0  0  0  0  0  0  0  0
    7.6926  -14.2902   18.8201 C   0  0  0  0  0  0  0  0  0  0  0  0
    7.7433  -13.0326   18.2369 C   0  0  0  0  0  0  0  0  0  0  0  0
    7.9434  -11.9315   19.0620 C   0  0  0  0  0  0  0  0  0  0  0  0
    8.0840  -12.1271   20.4209 C   0  0  0  0  0  0  0  0  0  0  0  0
    8.0291  -13.3887   20.9659 C   0  0  0  0  0  0  0  0  0  0  0  0
    7.8315  -14.5024   20.1745 C   0  0  0  0  0  0  0  0  0  0  0  0
    9.2056  -17.8078   23.3442 C   0  0  0  0  0  0  0  0  0  0  0  0
   10.1399  -18.6986   23.3467 O   0  0  0  0  0  0  0  0  0  0  0  0
    8.3172  -17.9036   24.4362 N   0  0  0  0  0  0  0  0  0  0  0  0
    8.5729  -17.1284   25.6798 C   0  0  1  0  0  0  0  0  0  0  0  0
    8.7021  -15.6906   25.2584 C   0  0  0  0  0  0  0  0  0  0  0  0
    8.8858  -14.6991   26.3166 C   0  0  0  0  0  0  0  0  0  0  0  0
    9.7385  -14.7900   27.4270 C   0  0  0  0  0  0  0  0  0  0  0  0
    9.6098  -13.7045   28.1828 N   0  0  0  0  0  0  0  0  0  0  0  0
    8.7079  -12.8608   27.6513 C   0  0  0  0  0  0  0  0  0  0  0  0
    8.2598  -11.6243   28.0591 C   0  0  0  0  0  0  0  0  0  0  0  0
    7.3173  -10.9271   27.3101 C   0  0  0  0  0  0  0  0  0  0  0  0
    6.8669  -11.5279   26.1611 C   0  0  0  0  0  0  0  0  0  0  0  0
    7.3218  -12.7624   25.7649 C   0  0  0  0  0  0  0  0  0  0  0  0
    8.2563  -13.4715   26.4949 C   0  0  0  0  0  0  0  0  0  0  0  0
    7.4471  -17.3202   26.5734 C   0  0  0  0  0  0  0  0  0  0  0  0
    6.2624  -17.3235   26.1713 O   0  0  0  0  0  0  0  0  0  0  0  0
    7.6718  -17.5151   27.9327 O   0  0  0  0  0  0  0  0  0  0  0  0
  2  1  1  6
  2  3  1  0
  3  4  1  0
  4  5  1  0
  5  9  1  0
  6  5  2  0
  7  8  2  0
  7  2  1  0
 10  7  1  0
 11 10  1  0
 11 22  1  0
 11 12  1  6
 13 12  1  0
 14 13  2  0
 15 16  1  0
 15 14  1  0
 16 21  2  0
 17 18  2  0
 17 16  1  0
 18 19  1  0
 19 20  2  0
 21 20  1  0
 21 13  1  0
 22 24  1  0
 23 22  2  0
 24 25  1  0
 25 26  1  6
 27 26  1  0
 27 28  2  0
 29 28  1  0
 30 35  2  0
 30 29  1  0
 31 30  1  0
 32 33  1  0
 32 31  2  0
 33 34  2  0
 34 35  1  0
 35 27  1  0
 36 25  1  0
 36 38  1  0
 37 36  2  0
M  END
$$$$
