EWW.pdb
     RDKit          3D

 38 41  0  0  1  0  0  0  0  0999 V2000
   10.0117  -17.0699   18.1105 N   0  0  0  0  0  0  0  0  0  0  0  0
   10.4682  -18.0085   19.0795 C   0  0  1  0  0  0  0  0  0  0  0  0
   11.7535  -18.6810   18.7539 C   0  0  0  0  0  0  0  0  0  0  0  0
   12.4429  -18.2879   17.5076 C   0  0  0  0  0  0  0  0  0  0  0  0
   13.8996  -18.3846   17.5456 C   0  0  0  0  0  0  0  0  0  0  0  0
   14.7014  -17.7030   18.2045 O   0  0  0  0  0  0  0  0  0  0  0  0
   10.5156  -17.3356   20.4200 C   0  0  0  0  0  0  0  0  0  0  0  0
   11.3360  -16.3983   20.6505 O   0  0  0  0  0  0  0  0  0  0  0  0
   14.5221  -19.3763   16.7357 O   0  0  0  0  0  0  0  0  0  0  0  0
    9.6696  -17.6869   21.4982 N   0  0  0  0  0  0  0  0  0  0  0  0
    9.6708  -16.9684   22.7901 C   0  0  1  0  0  0  0  0  0  0  0  0
    8.2765  -16.7108   23.2125 C   0  0  0  0  0  0  0  0  0  0  0  0
    7.8715  -15.3124   23.2839 C   0  0  0  0  0  0  0  0  0  0  0  0
    7.8633  -14.3724   22.2448 C   0  0  0  0  0  0  0  0  0  0  0  0
    7.4345  -13.1946   22.6906 N   0  0  0  0  0  0  0  0  0  0  0  0
    7.1415  -13.2766   24.0070 C   0  0  0  0  0  0  0  0  0  0  0  0
    6.6511  -12.3162   24.8795 C   0  0  0  0  0  0  0  0  0  0  0  0
    6.4153  -12.6844   26.1994 C   0  0  0  0  0  0  0  0  0  0  0  0
    6.6760  -13.9817   26.5918 C   0  0  0  0  0  0  0  0  0  0  0  0
    7.1628  -14.9088   25.7000 C   0  0  0  0  0  0  0  0  0  0  0  0
    7.4072  -14.5755   24.3828 C   0  0  0  0  0  0  0  0  0  0  0  0
   10.4661  -17.6996   23.7813 C   0  0  0  0  0  0  0  0  0  0  0  0
   10.5306  -18.9871   23.7141 O   0  0  0  0  0  0  0  0  0  0  0  0
   11.2111  -17.1413   24.8416 N   0  0  0  0  0  0  0  0  0  0  0  0
   11.9888  -18.0209   25.7548 C   0  0  1  0  0  0  0  0  0  0  0  0
   12.5514  -17.1237   26.8226 C   0  0  0  0  0  0  0  0  0  0  0  0
   11.6041  -16.5379   27.7691 C   0  0  0  0  0  0  0  0  0  0  0  0
   11.0781  -17.1356   28.9243 C   0  0  0  0  0  0  0  0  0  0  0  0
   10.2259  -16.3031   29.5132 N   0  0  0  0  0  0  0  0  0  0  0  0
   10.1334  -15.1528   28.8232 C   0  0  0  0  0  0  0  0  0  0  0  0
    9.4048  -14.0063   29.0486 C   0  0  0  0  0  0  0  0  0  0  0  0
    9.4984  -12.9225   28.1815 C   0  0  0  0  0  0  0  0  0  0  0  0
   10.3432  -13.0551   27.1079 C   0  0  0  0  0  0  0  0  0  0  0  0
   11.0648  -14.2047   26.8938 C   0  0  0  0  0  0  0  0  0  0  0  0
   10.9853  -15.2924   27.7420 C   0  0  0  0  0  0  0  0  0  0  0  0
   11.0848  -19.0077   26.3131 C   0  0  0  0  0  0  0  0  0  0  0  0
   11.4864  -20.0859   26.8041 O   0  0  0  0  0  0  0  0  0  0  0  0
    9.7150  -18.7627   26.3175 O   0  0  0  0  0  0  0  0  0  0  0  0
  2  1  1  6
  2  3  1  0
  3  4  1  0
  4  5  1  0
  5  9  1  0
  6  5  2  0
  7  8  2  0
  7  2  1  0
 10  7  1  0
 11 10  1  0
 11 22  1  0
 11 12  1  1
 13 12  1  0
 14 13  2  0
 15 16  1  0
 15 14  1  0
 16 21  2  0
 17 18  2  0
 17 16  1  0
 18 19  1  0
 19 20  2  0
 21 20  1  0
 21 13  1  0
 22 24  1  0
 23 22  2  0
 24 25  1  0
 25 26  1  1
 27 26  1  0
 27 28  2  0
 29 28  1  0
 30 35  2  0
 30 29  1  0
 31 30  1  0
 32 33  1  0
 32 31  2  0
 33 34  2  0
 34 35  1  0
 35 27  1  0
 36 25  1  0
 36 38  1  0
 37 36  2  0
M  END
$$$$
