EWW.pdb
     RDKit          3D

 38 41  0  0  1  0  0  0  0  0999 V2000
    8.3948  -19.1607   21.0597 N   0  0  0  0  0  0  0  0  0  0  0  0
    9.5500  -18.7931   20.3123 C   0  0  1  0  0  0  0  0  0  0  0  0
    9.4162  -18.9172   18.8368 C   0  0  0  0  0  0  0  0  0  0  0  0
   10.6129  -18.6576   18.0100 C   0  0  0  0  0  0  0  0  0  0  0  0
   10.3505  -18.4234   16.5926 C   0  0  0  0  0  0  0  0  0  0  0  0
    9.2573  -18.3929   16.0048 O   0  0  0  0  0  0  0  0  0  0  0  0
    9.9699  -17.4110   20.7191 C   0  0  0  0  0  0  0  0  0  0  0  0
   11.0456  -16.9020   20.2851 O   0  0  0  0  0  0  0  0  0  0  0  0
   11.4662  -18.1967   15.7378 O   0  0  0  0  0  0  0  0  0  0  0  0
    9.2157  -16.5936   21.5935 N   0  0  0  0  0  0  0  0  0  0  0  0
    9.6554  -15.2475   22.0177 C   0  0  1  0  0  0  0  0  0  0  0  0
    8.4848  -14.3455   22.0877 C   0  0  0  0  0  0  0  0  0  0  0  0
    7.6566  -14.4542   23.2823 C   0  0  0  0  0  0  0  0  0  0  0  0
    6.9292  -15.5700   23.7174 C   0  0  0  0  0  0  0  0  0  0  0  0
    6.2885  -15.2910   24.8494 N   0  0  0  0  0  0  0  0  0  0  0  0
    6.5420  -14.0176   25.2232 C   0  0  0  0  0  0  0  0  0  0  0  0
    6.1104  -13.3041   26.3316 C   0  0  0  0  0  0  0  0  0  0  0  0
    6.5496  -11.9936   26.4834 C   0  0  0  0  0  0  0  0  0  0  0  0
    7.3922  -11.4533   25.5332 C   0  0  0  0  0  0  0  0  0  0  0  0
    7.8003  -12.1894   24.4453 C   0  0  0  0  0  0  0  0  0  0  0  0
    7.3826  -13.4929   24.2657 C   0  0  0  0  0  0  0  0  0  0  0  0
   10.4181  -15.3288   23.2673 C   0  0  0  0  0  0  0  0  0  0  0  0
   10.1726  -14.4853   24.2131 O   0  0  0  0  0  0  0  0  0  0  0  0
   11.4264  -16.2651   23.5794 N   0  0  0  0  0  0  0  0  0  0  0  0
   11.6169  -16.7206   24.9826 C   0  0  1  0  0  0  0  0  0  0  0  0
   10.3240  -17.3709   25.3914 C   0  0  0  0  0  0  0  0  0  0  0  0
    9.4343  -16.6002   26.2579 C   0  0  0  0  0  0  0  0  0  0  0  0
    8.0313  -16.6081   26.2573 C   0  0  0  0  0  0  0  0  0  0  0  0
    7.5764  -15.7553   27.1694 N   0  0  0  0  0  0  0  0  0  0  0  0
    8.5962  -15.1535   27.8063 C   0  0  0  0  0  0  0  0  0  0  0  0
    8.6202  -14.2243   28.8222 C   0  0  0  0  0  0  0  0  0  0  0  0
    9.8281  -13.7627   29.3351 C   0  0  0  0  0  0  0  0  0  0  0  0
   10.9755  -14.2761   28.7839 C   0  0  0  0  0  0  0  0  0  0  0  0
   10.9383  -15.2030   27.7702 C   0  0  0  0  0  0  0  0  0  0  0  0
    9.7495  -15.6733   27.2461 C   0  0  0  0  0  0  0  0  0  0  0  0
   12.7169  -17.6651   25.0075 C   0  0  0  0  0  0  0  0  0  0  0  0
   13.2387  -18.1172   23.9643 O   0  0  0  0  0  0  0  0  0  0  0  0
   13.2298  -18.0934   26.2281 O   0  0  0  0  0  0  0  0  0  0  0  0
  2  1  1  1
  2  3  1  0
  3  4  1  0
  4  5  1  0
  5  9  1  0
  6  5  2  0
  7  8  2  0
  7  2  1  0
 10  7  1  0
 11 10  1  0
 11 22  1  0
 11 12  1  1
 13 12  1  0
 14 13  2  0
 15 16  1  0
 15 14  1  0
 16 21  2  0
 17 18  2  0
 17 16  1  0
 18 19  1  0
 19 20  2  0
 21 20  1  0
 21 13  1  0
 22 24  1  0
 23 22  2  0
 24 25  1  0
 25 26  1  6
 27 26  1  0
 27 28  2  0
 29 28  1  0
 30 35  2  0
 30 29  1  0
 31 30  1  0
 32 33  1  0
 32 31  2  0
 33 34  2  0
 34 35  1  0
 35 27  1  0
 36 25  1  0
 36 38  1  0
 37 36  2  0
M  END
$$$$
