EWW.pdb
     RDKit          3D

 38 41  0  0  1  0  0  0  0  0999 V2000
    9.6568  -18.8534   20.8811 N   0  0  0  0  0  0  0  0  0  0  0  0
   10.6863  -17.9540   20.4815 C   0  0  1  0  0  0  0  0  0  0  0  0
   10.7469  -17.6675   19.0240 C   0  0  0  0  0  0  0  0  0  0  0  0
   10.8283  -18.8151   18.0968 C   0  0  0  0  0  0  0  0  0  0  0  0
   10.7890  -18.4721   16.6778 C   0  0  0  0  0  0  0  0  0  0  0  0
   10.7884  -17.3455   16.1559 O   0  0  0  0  0  0  0  0  0  0  0  0
   10.5715  -16.6964   21.2921 C   0  0  0  0  0  0  0  0  0  0  0  0
   11.3858  -15.7396   21.1303 O   0  0  0  0  0  0  0  0  0  0  0  0
   10.7442  -19.5390   15.7362 O   0  0  0  0  0  0  0  0  0  0  0  0
    9.5713  -16.4893   22.2710 N   0  0  0  0  0  0  0  0  0  0  0  0
    9.4498  -15.2362   23.0458 C   0  0  1  0  0  0  0  0  0  0  0  0
    8.0854  -14.6872   22.8850 C   0  0  0  0  0  0  0  0  0  0  0  0
    7.6181  -14.5099   21.5157 C   0  0  0  0  0  0  0  0  0  0  0  0
    6.6725  -15.2839   20.8300 C   0  0  0  0  0  0  0  0  0  0  0  0
    6.5069  -14.8223   19.5934 N   0  0  0  0  0  0  0  0  0  0  0  0
    7.3038  -13.7507   19.3885 C   0  0  0  0  0  0  0  0  0  0  0  0
    7.4532  -12.9430   18.2707 C   0  0  0  0  0  0  0  0  0  0  0  0
    8.3426  -11.8767   18.3427 C   0  0  0  0  0  0  0  0  0  0  0  0
    9.0401  -11.6616   19.5140 C   0  0  0  0  0  0  0  0  0  0  0  0
    8.8680  -12.4829   20.6038 C   0  0  0  0  0  0  0  0  0  0  0  0
    7.9927  -13.5497   20.5650 C   0  0  0  0  0  0  0  0  0  0  0  0
    9.8399  -15.4581   24.4416 C   0  0  0  0  0  0  0  0  0  0  0  0
   10.0876  -14.4414   25.1975 O   0  0  0  0  0  0  0  0  0  0  0  0
    9.9743  -16.7035   25.0910 N   0  0  0  0  0  0  0  0  0  0  0  0
   10.3198  -16.7607   26.5368 C   0  0  1  0  0  0  0  0  0  0  0  0
    9.0224  -16.9620   27.2702 C   0  0  0  0  0  0  0  0  0  0  0  0
    7.8954  -16.1191   26.8757 C   0  0  0  0  0  0  0  0  0  0  0  0
    6.8070  -16.4798   26.0671 C   0  0  0  0  0  0  0  0  0  0  0  0
    5.9993  -15.4364   25.9085 N   0  0  0  0  0  0  0  0  0  0  0  0
    6.4731  -14.3653   26.5688 C   0  0  0  0  0  0  0  0  0  0  0  0
    5.9823  -13.0866   26.7104 C   0  0  0  0  0  0  0  0  0  0  0  0
    6.6606  -12.1457   27.4784 C   0  0  0  0  0  0  0  0  0  0  0  0
    7.8255  -12.5546   28.0784 C   0  0  0  0  0  0  0  0  0  0  0  0
    8.3049  -13.8336   27.9293 C   0  0  0  0  0  0  0  0  0  0  0  0
    7.6472  -14.7824   27.1702 C   0  0  0  0  0  0  0  0  0  0  0  0
   11.2243  -17.8752   26.7432 C   0  0  0  0  0  0  0  0  0  0  0  0
   11.5232  -18.6766   25.8302 O   0  0  0  0  0  0  0  0  0  0  0  0
   11.7965  -18.0752   27.9957 O   0  0  0  0  0  0  0  0  0  0  0  0
  2  1  1  6
  2  3  1  0
  3  4  1  0
  4  5  1  0
  5  9  1  0
  6  5  2  0
  7  8  2  0
  7  2  1  0
 10  7  1  0
 11 10  1  0
 11 22  1  0
 11 12  1  1
 13 12  1  0
 14 13  2  0
 15 16  1  0
 15 14  1  0
 16 21  2  0
 17 18  2  0
 17 16  1  0
 18 19  1  0
 19 20  2  0
 21 20  1  0
 21 13  1  0
 22 24  1  0
 23 22  2  0
 24 25  1  0
 25 26  1  1
 27 26  1  0
 27 28  2  0
 29 28  1  0
 30 35  2  0
 30 29  1  0
 31 30  1  0
 32 33  1  0
 32 31  2  0
 33 34  2  0
 34 35  1  0
 35 27  1  0
 36 25  1  0
 36 38  1  0
 37 36  2  0
M  END
$$$$
