EWW.pdb
     RDKit          3D

 38 41  0  0  1  0  0  0  0  0999 V2000
   10.3938  -19.3597   18.9198 N   0  0  0  0  0  0  0  0  0  0  0  0
   11.5465  -18.6052   19.2809 C   0  0  1  0  0  0  0  0  0  0  0  0
   12.2303  -17.9153   18.1555 C   0  0  0  0  0  0  0  0  0  0  0  0
   11.3925  -17.1907   17.1776 C   0  0  0  0  0  0  0  0  0  0  0  0
   12.1280  -16.4686   16.1430 C   0  0  0  0  0  0  0  0  0  0  0  0
   13.3568  -16.3788   15.9897 O   0  0  0  0  0  0  0  0  0  0  0  0
   11.1754  -17.6498   20.3771 C   0  0  0  0  0  0  0  0  0  0  0  0
   12.0635  -16.9964   21.0008 O   0  0  0  0  0  0  0  0  0  0  0  0
   11.3760  -15.7610   15.1628 O   0  0  0  0  0  0  0  0  0  0  0  0
    9.8417  -17.4122   20.7848 N   0  0  0  0  0  0  0  0  0  0  0  0
    9.4919  -16.8433   22.1035 C   0  0  1  0  0  0  0  0  0  0  0  0
    8.0422  -16.5504   22.1455 C   0  0  0  0  0  0  0  0  0  0  0  0
    7.5010  -15.8068   21.0147 C   0  0  0  0  0  0  0  0  0  0  0  0
    6.5653  -16.2509   20.0709 C   0  0  0  0  0  0  0  0  0  0  0  0
    6.3163  -15.2935   19.1814 N   0  0  0  0  0  0  0  0  0  0  0  0
    7.0453  -14.1929   19.4694 C   0  0  0  0  0  0  0  0  0  0  0  0
    7.0981  -12.9597   18.8366 C   0  0  0  0  0  0  0  0  0  0  0  0
    7.9328  -11.9824   19.3671 C   0  0  0  0  0  0  0  0  0  0  0  0
    8.6737  -12.2717   20.4950 C   0  0  0  0  0  0  0  0  0  0  0  0
    8.5976  -13.5061   21.0970 C   0  0  0  0  0  0  0  0  0  0  0  0
    7.7785  -14.4978   20.5956 C   0  0  0  0  0  0  0  0  0  0  0  0
    9.9506  -17.7270   23.1798 C   0  0  0  0  0  0  0  0  0  0  0  0
   11.1208  -18.2659   23.0990 O   0  0  0  0  0  0  0  0  0  0  0  0
    9.2404  -18.0676   24.3505 N   0  0  0  0  0  0  0  0  0  0  0  0
    9.4105  -17.2634   25.5902 C   0  0  1  0  0  0  0  0  0  0  0  0
    8.9786  -15.8648   25.2452 C   0  0  0  0  0  0  0  0  0  0  0  0
    8.9528  -14.8874   26.3316 C   0  0  0  0  0  0  0  0  0  0  0  0
    9.8738  -14.7607   27.3824 C   0  0  0  0  0  0  0  0  0  0  0  0
    9.5011  -13.7738   28.1906 N   0  0  0  0  0  0  0  0  0  0  0  0
    8.3637  -13.2061   27.7525 C   0  0  0  0  0  0  0  0  0  0  0  0
    7.6180  -12.1561   28.2400 C   0  0  0  0  0  0  0  0  0  0  0  0
    6.4674  -11.7351   27.5812 C   0  0  0  0  0  0  0  0  0  0  0  0
    6.1221  -12.4109   26.4374 C   0  0  0  0  0  0  0  0  0  0  0  0
    6.8746  -13.4573   25.9612 C   0  0  0  0  0  0  0  0  0  0  0  0
    8.0196  -13.8916   26.6010 C   0  0  0  0  0  0  0  0  0  0  0  0
    8.5705  -17.8385   26.6228 C   0  0  0  0  0  0  0  0  0  0  0  0
    7.4150  -18.2592   26.3927 O   0  0  0  0  0  0  0  0  0  0  0  0
    9.0511  -17.9405   27.9246 O   0  0  0  0  0  0  0  0  0  0  0  0
  2  1  1  6
  2  3  1  0
  3  4  1  0
  4  5  1  0
  5  9  1  0
  6  5  2  0
  7  8  2  0
  7  2  1  0
 10  7  1  0
 11 10  1  0
 11 22  1  0
 11 12  1  6
 13 12  1  0
 14 13  2  0
 15 16  1  0
 15 14  1  0
 16 21  2  0
 17 18  2  0
 17 16  1  0
 18 19  1  0
 19 20  2  0
 21 20  1  0
 21 13  1  0
 22 24  1  0
 23 22  2  0
 24 25  1  0
 25 26  1  6
 27 26  1  0
 27 28  2  0
 29 28  1  0
 30 35  2  0
 30 29  1  0
 31 30  1  0
 32 33  1  0
 32 31  2  0
 33 34  2  0
 34 35  1  0
 35 27  1  0
 36 25  1  0
 36 38  1  0
 37 36  2  0
M  END
$$$$
