EWW.pdb
     RDKit          3D

 38 41  0  0  1  0  0  0  0  0999 V2000
   12.1462  -20.0659   21.0504 N   0  0  0  0  0  0  0  0  0  0  0  0
   12.9739  -18.9387   20.7806 C   0  0  1  0  0  0  0  0  0  0  0  0
   13.5314  -18.8770   19.4038 C   0  0  0  0  0  0  0  0  0  0  0  0
   14.4578  -19.9491   18.9845 C   0  0  0  0  0  0  0  0  0  0  0  0
   15.7549  -19.4929   18.4925 C   0  0  0  0  0  0  0  0  0  0  0  0
   16.8594  -19.5547   19.0563 O   0  0  0  0  0  0  0  0  0  0  0  0
   12.2202  -17.6897   21.1328 C   0  0  0  0  0  0  0  0  0  0  0  0
   12.7511  -16.5476   20.9971 O   0  0  0  0  0  0  0  0  0  0  0  0
   15.8037  -18.8923   17.2027 O   0  0  0  0  0  0  0  0  0  0  0  0
   10.8952  -17.6933   21.6285 N   0  0  0  0  0  0  0  0  0  0  0  0
   10.1388  -16.4558   21.9144 C   0  0  1  0  0  0  0  0  0  0  0  0
    8.7361  -16.6222   21.4743 C   0  0  0  0  0  0  0  0  0  0  0  0
    7.8954  -15.4330   21.5341 C   0  0  0  0  0  0  0  0  0  0  0  0
    6.6952  -15.2712   22.2390 C   0  0  0  0  0  0  0  0  0  0  0  0
    6.2098  -14.0471   22.0498 N   0  0  0  0  0  0  0  0  0  0  0  0
    7.0288  -13.3447   21.2366 C   0  0  0  0  0  0  0  0  0  0  0  0
    6.9381  -12.0373   20.7821 C   0  0  0  0  0  0  0  0  0  0  0  0
    7.9493  -11.5544   19.9590 C   0  0  0  0  0  0  0  0  0  0  0  0
    8.9988  -12.3864   19.6255 C   0  0  0  0  0  0  0  0  0  0  0  0
    9.0569  -13.6784   20.0936 C   0  0  0  0  0  0  0  0  0  0  0  0
    8.0694  -14.1881   20.9126 C   0  0  0  0  0  0  0  0  0  0  0  0
   10.2784  -16.0857   23.3262 C   0  0  0  0  0  0  0  0  0  0  0  0
   10.4714  -14.8482   23.6387 O   0  0  0  0  0  0  0  0  0  0  0  0
   10.2148  -16.9555   24.4354 N   0  0  0  0  0  0  0  0  0  0  0  0
   10.4633  -16.4383   25.8078 C   0  0  1  0  0  0  0  0  0  0  0  0
    9.2429  -16.7871   26.6145 C   0  0  0  0  0  0  0  0  0  0  0  0
    7.9765  -16.1845   26.2028 C   0  0  0  0  0  0  0  0  0  0  0  0
    6.8588  -16.8403   25.6653 C   0  0  0  0  0  0  0  0  0  0  0  0
    5.9077  -15.9544   25.3881 N   0  0  0  0  0  0  0  0  0  0  0  0
    6.3095  -14.7117   25.7077 C   0  0  0  0  0  0  0  0  0  0  0  0
    5.6742  -13.4932   25.6194 C   0  0  0  0  0  0  0  0  0  0  0  0
    6.3071  -12.3291   26.0431 C   0  0  0  0  0  0  0  0  0  0  0  0
    7.5774  -12.4589   26.5468 C   0  0  0  0  0  0  0  0  0  0  0  0
    8.2007  -13.6807   26.6295 C   0  0  0  0  0  0  0  0  0  0  0  0
    7.5902  -14.8482   26.2133 C   0  0  0  0  0  0  0  0  0  0  0  0
   11.6486  -17.0899   26.3304 C   0  0  0  0  0  0  0  0  0  0  0  0
   12.2726  -17.9649   25.6900 O   0  0  0  0  0  0  0  0  0  0  0  0
   12.1300  -16.7389   27.5879 O   0  0  0  0  0  0  0  0  0  0  0  0
  2  1  1  6
  2  3  1  0
  3  4  1  0
  4  5  1  0
  5  9  1  0
  6  5  2  0
  7  8  2  0
  7  2  1  0
 10  7  1  0
 11 10  1  0
 11 22  1  0
 11 12  1  1
 13 12  1  0
 14 13  2  0
 15 16  1  0
 15 14  1  0
 16 21  2  0
 17 18  2  0
 17 16  1  0
 18 19  1  0
 19 20  2  0
 21 20  1  0
 21 13  1  0
 22 24  1  0
 23 22  2  0
 24 25  1  0
 25 26  1  1
 27 26  1  0
 27 28  2  0
 29 28  1  0
 30 35  2  0
 30 29  1  0
 31 30  1  0
 32 33  1  0
 32 31  2  0
 33 34  2  0
 34 35  1  0
 35 27  1  0
 36 25  1  0
 36 38  1  0
 37 36  2  0
M  END
$$$$
