PHD.pdb
     RDKit          3D

 26 27  0  0  1  0  0  0  0  0999 V2000
   23.3885  -13.0129  -15.4644 N   0  0  0  0  0  0  0  0  0  0  0  0
   24.2653  -14.1624  -15.6196 C   0  0  0  0  0  0  0  0  0  0  0  0
   25.1345  -13.9228  -16.8173 C   0  0  0  0  0  0  0  0  0  0  0  0
   24.4881  -12.7504  -17.5133 C   0  0  0  0  0  0  0  0  0  0  0  0
   23.9450  -11.9900  -16.3177 C   0  0  1  0  0  0  0  0  0  0  0  0
   23.0304  -10.9079  -16.6407 C   0  0  0  0  0  0  0  0  0  0  0  0
   23.3536   -9.9356  -17.4089 O   0  0  0  0  0  0  0  0  0  0  0  0
   21.7261  -10.8733  -16.1183 N   0  0  0  0  0  0  0  0  0  0  0  0
   20.8199   -9.7915  -16.4639 C   0  0  1  0  0  0  0  0  0  0  0  0
   19.4225  -10.3948  -16.6306 C   0  0  0  0  0  0  0  0  0  0  0  0
   19.4523  -11.2167  -17.8814 C   0  0  0  0  0  0  0  0  0  0  0  0
   19.3118  -10.8154  -19.1745 C   0  0  0  0  0  0  0  0  0  0  0  0
   19.4015  -11.8801  -19.9696 N   0  0  0  0  0  0  0  0  0  0  0  0
   19.5981  -12.9425  -19.1604 C   0  0  0  0  0  0  0  0  0  0  0  0
   19.6321  -12.5603  -17.8856 N   0  0  0  0  0  0  0  0  0  0  0  0
   20.7210   -8.7761  -15.3983 C   0  0  0  0  0  0  0  0  0  0  0  0
   20.8786   -9.0455  -14.1780 O   0  0  0  0  0  0  0  0  0  0  0  0
   20.4394   -7.4419  -15.7346 N   0  0  0  0  0  0  0  0  0  0  0  0
   20.6572   -6.3020  -14.9158 C   0  0  1  0  0  0  0  0  0  0  0  0
   22.0432   -6.2029  -14.3350 C   0  0  0  0  0  0  0  0  0  0  0  0
   22.1978   -5.0175  -13.4804 C   0  0  0  0  0  0  0  0  0  0  0  0
   21.7762   -5.0336  -12.3093 O   0  0  0  0  0  0  0  0  0  0  0  0
   20.3263   -5.0160  -15.5581 C   0  0  0  0  0  0  0  0  0  0  0  0
   20.1477   -3.8803  -14.7835 O   0  0  0  0  0  0  0  0  0  0  0  0
   22.8077   -3.8861  -13.9674 O   0  0  0  0  0  0  0  0  0  0  0  0
   20.1911   -4.8789  -16.8028 O   0  0  0  0  0  0  0  0  0  0  0  0
  1  2  1  0
  2  3  1  0
  4  3  1  0
  5  6  1  6
  5  1  1  0
  5  4  1  0
  6  8  1  0
  7  6  2  0
  8  9  1  0
  9 10  1  1
 10 11  1  0
 11 12  2  0
 11 15  1  0
 12 13  1  0
 13 14  1  0
 15 14  2  0
 16 18  1  0
 16  9  1  0
 17 16  2  0
 19 18  1  0
 19 23  1  0
 20 21  1  0
 19 20  1  6
 21 22  2  0
 23 24  1  0
 25 21  1  0
 26 23  2  0
M  END
$$$$
