PHD.pdb
     RDKit          3D

 26 27  0  0  1  0  0  0  0  0999 V2000
   25.5296  -22.0158  -14.5779 N   0  0  0  0  0  0  0  0  0  0  0  0
   25.9873  -23.2686  -13.9988 C   0  0  0  0  0  0  0  0  0  0  0  0
   25.5655  -23.2948  -12.5605 C   0  0  0  0  0  0  0  0  0  0  0  0
   25.1435  -21.8747  -12.2741 C   0  0  0  0  0  0  0  0  0  0  0  0
   24.5842  -21.4788  -13.6280 C   0  0  1  0  0  0  0  0  0  0  0  0
   24.3047  -20.0617  -13.7876 C   0  0  0  0  0  0  0  0  0  0  0  0
   23.5195  -19.4196  -13.0059 O   0  0  0  0  0  0  0  0  0  0  0  0
   24.8904  -19.3137  -14.8233 N   0  0  0  0  0  0  0  0  0  0  0  0
   24.5304  -17.9204  -15.0237 C   0  0  1  0  0  0  0  0  0  0  0  0
   25.6404  -17.2713  -15.8550 C   0  0  0  0  0  0  0  0  0  0  0  0
   25.4057  -15.7935  -15.8120 C   0  0  0  0  0  0  0  0  0  0  0  0
   24.4471  -15.0969  -15.1422 C   0  0  0  0  0  0  0  0  0  0  0  0
   24.6056  -13.7977  -15.3882 N   0  0  0  0  0  0  0  0  0  0  0  0
   25.6681  -13.6948  -16.2144 C   0  0  0  0  0  0  0  0  0  0  0  0
   26.1695  -14.8981  -16.4846 N   0  0  0  0  0  0  0  0  0  0  0  0
   23.2789  -17.7655  -15.7894 C   0  0  0  0  0  0  0  0  0  0  0  0
   23.0146  -18.4463  -16.8157 O   0  0  0  0  0  0  0  0  0  0  0  0
   22.3237  -16.8231  -15.3751 N   0  0  0  0  0  0  0  0  0  0  0  0
   21.0175  -16.6566  -15.9075 C   0  0  1  0  0  0  0  0  0  0  0  0
   19.9216  -16.6060  -14.8757 C   0  0  0  0  0  0  0  0  0  0  0  0
   19.5089  -17.9492  -14.4457 C   0  0  0  0  0  0  0  0  0  0  0  0
   19.5811  -18.9073  -15.2372 O   0  0  0  0  0  0  0  0  0  0  0  0
   20.8673  -15.4968  -16.8064 C   0  0  0  0  0  0  0  0  0  0  0  0
   19.8888  -15.5033  -17.7885 O   0  0  0  0  0  0  0  0  0  0  0  0
   19.0416  -18.1559  -13.1697 O   0  0  0  0  0  0  0  0  0  0  0  0
   21.5930  -14.4697  -16.7377 O   0  0  0  0  0  0  0  0  0  0  0  0
  1  2  1  0
  2  3  1  0
  4  3  1  0
  5  6  1  1
  5  1  1  0
  5  4  1  0
  6  8  1  0
  7  6  2  0
  8  9  1  0
  9 10  1  6
 10 11  1  0
 11 12  2  0
 11 15  1  0
 12 13  1  0
 13 14  1  0
 15 14  2  0
 16 18  1  0
 16  9  1  0
 17 16  2  0
 19 18  1  0
 19 23  1  0
 20 21  1  0
 19 20  1  1
 21 22  2  0
 23 24  1  0
 25 21  1  0
 26 23  2  0
M  END
$$$$
