PHD.pdb
     RDKit          3D

 26 27  0  0  1  0  0  0  0  0999 V2000
   27.6519  -19.5139  -18.0185 N   0  0  0  0  0  0  0  0  0  0  0  0
   28.8818  -19.3651  -18.7797 C   0  0  0  0  0  0  0  0  0  0  0  0
   29.5048  -18.0553  -18.4007 C   0  0  0  0  0  0  0  0  0  0  0  0
   28.4151  -17.3332  -17.6469 C   0  0  0  0  0  0  0  0  0  0  0  0
   27.7177  -18.5075  -16.9856 C   0  0  1  0  0  0  0  0  0  0  0  0
   26.4424  -18.1945  -16.3634 C   0  0  0  0  0  0  0  0  0  0  0  0
   26.3134  -17.2864  -15.4698 O   0  0  0  0  0  0  0  0  0  0  0  0
   25.2690  -18.8831  -16.7161 N   0  0  0  0  0  0  0  0  0  0  0  0
   23.9799  -18.4626  -16.1941 C   0  0  1  0  0  0  0  0  0  0  0  0
   22.9664  -18.5530  -17.3383 C   0  0  0  0  0  0  0  0  0  0  0  0
   23.4510  -17.6377  -18.4192 C   0  0  0  0  0  0  0  0  0  0  0  0
   23.5934  -17.8832  -19.7505 C   0  0  0  0  0  0  0  0  0  0  0  0
   24.0601  -16.7864  -20.3447 N   0  0  0  0  0  0  0  0  0  0  0  0
   24.2057  -15.8610  -19.3728 C   0  0  0  0  0  0  0  0  0  0  0  0
   23.8405  -16.3591  -18.1934 N   0  0  0  0  0  0  0  0  0  0  0  0
   23.4900  -19.3477  -15.1204 C   0  0  0  0  0  0  0  0  0  0  0  0
   22.3558  -19.2171  -14.5884 O   0  0  0  0  0  0  0  0  0  0  0  0
   24.3070  -20.3902  -14.6533 N   0  0  0  0  0  0  0  0  0  0  0  0
   24.0229  -21.2629  -13.5693 C   0  0  1  0  0  0  0  0  0  0  0  0
   25.1914  -22.0960  -13.1123 C   0  0  0  0  0  0  0  0  0  0  0  0
   24.8342  -22.9757  -11.9907 C   0  0  0  0  0  0  0  0  0  0  0  0
   24.3208  -22.4980  -10.9622 O   0  0  0  0  0  0  0  0  0  0  0  0
   23.4309  -20.6016  -12.3913 C   0  0  0  0  0  0  0  0  0  0  0  0
   22.2354  -21.0653  -11.8641 O   0  0  0  0  0  0  0  0  0  0  0  0
   25.0640  -24.3285  -12.0698 O   0  0  0  0  0  0  0  0  0  0  0  0
   23.9570  -19.6124  -11.8159 O   0  0  0  0  0  0  0  0  0  0  0  0
  1  2  1  0
  2  3  1  0
  4  3  1  0
  5  6  1  6
  5  1  1  0
  5  4  1  0
  6  8  1  0
  7  6  2  0
  8  9  1  0
  9 10  1  6
 10 11  1  0
 11 12  2  0
 11 15  1  0
 12 13  1  0
 13 14  1  0
 15 14  2  0
 16 18  1  0
 16  9  1  0
 17 16  2  0
 19 18  1  0
 19 23  1  0
 20 21  1  0
 19 20  1  1
 21 22  2  0
 23 24  1  0
 25 21  1  0
 26 23  2  0
M  END
$$$$
