PHD.pdb
     RDKit          3D

 26 27  0  0  1  0  0  0  0  0999 V2000
   24.0956  -14.5615  -17.4694 N   0  0  0  0  0  0  0  0  0  0  0  0
   24.9210  -13.6098  -18.1956 C   0  0  0  0  0  0  0  0  0  0  0  0
   25.2087  -14.1857  -19.5495 C   0  0  0  0  0  0  0  0  0  0  0  0
   24.7885  -15.6302  -19.4326 C   0  0  0  0  0  0  0  0  0  0  0  0
   23.6283  -15.4984  -18.4634 C   0  0  1  0  0  0  0  0  0  0  0  0
   23.1306  -16.7532  -17.9255 C   0  0  0  0  0  0  0  0  0  0  0  0
   22.6403  -17.6764  -18.6652 O   0  0  0  0  0  0  0  0  0  0  0  0
   23.1624  -17.0205  -16.5461 N   0  0  0  0  0  0  0  0  0  0  0  0
   22.7284  -18.3085  -16.0325 C   0  0  1  0  0  0  0  0  0  0  0  0
   23.8812  -18.8900  -15.2094 C   0  0  0  0  0  0  0  0  0  0  0  0
   25.0136  -19.1286  -16.1588 C   0  0  0  0  0  0  0  0  0  0  0  0
   26.1570  -18.4094  -16.3275 C   0  0  0  0  0  0  0  0  0  0  0  0
   26.8874  -18.9773  -17.2855 N   0  0  0  0  0  0  0  0  0  0  0  0
   26.1889  -20.0521  -17.7085 C   0  0  0  0  0  0  0  0  0  0  0  0
   25.0455  -20.1620  -17.0355 N   0  0  0  0  0  0  0  0  0  0  0  0
   21.5720  -18.1930  -15.1237 C   0  0  0  0  0  0  0  0  0  0  0  0
   21.5873  -17.4859  -14.0815 O   0  0  0  0  0  0  0  0  0  0  0  0
   20.3895  -18.8936  -15.4123 N   0  0  0  0  0  0  0  0  0  0  0  0
   19.1818  -18.8526  -14.6661 C   0  0  1  0  0  0  0  0  0  0  0  0
   18.0289  -18.1917  -15.3748 C   0  0  0  0  0  0  0  0  0  0  0  0
   17.2924  -17.2766  -14.4919 C   0  0  0  0  0  0  0  0  0  0  0  0
   17.6478  -17.1313  -13.3078 O   0  0  0  0  0  0  0  0  0  0  0  0
   18.7308  -20.1630  -14.1609 C   0  0  0  0  0  0  0  0  0  0  0  0
   18.2118  -20.2706  -12.8798 O   0  0  0  0  0  0  0  0  0  0  0  0
   16.2090  -16.5766  -14.9668 O   0  0  0  0  0  0  0  0  0  0  0  0
   18.7888  -21.2230  -14.8386 O   0  0  0  0  0  0  0  0  0  0  0  0
  1  2  1  0
  2  3  1  0
  4  3  1  0
  5  6  1  1
  5  1  1  0
  5  4  1  0
  6  8  1  0
  7  6  2  0
  8  9  1  0
  9 10  1  1
 10 11  1  0
 11 12  2  0
 11 15  1  0
 12 13  1  0
 13 14  1  0
 15 14  2  0
 16 18  1  0
 16  9  1  0
 17 16  2  0
 19 18  1  0
 19 23  1  0
 20 21  1  0
 19 20  1  6
 21 22  2  0
 23 24  1  0
 25 21  1  0
 26 23  2  0
M  END
$$$$
