PHD.pdb
     RDKit          3D

 26 27  0  0  1  0  0  0  0  0999 V2000
   38.2495  -29.8444  -16.0694 N   0  0  0  0  0  0  0  0  0  0  0  0
   39.5940  -29.2920  -16.1084 C   0  0  0  0  0  0  0  0  0  0  0  0
   40.5320  -30.3865  -16.5199 C   0  0  0  0  0  0  0  0  0  0  0  0
   39.7092  -31.6448  -16.3919 C   0  0  0  0  0  0  0  0  0  0  0  0
   38.3367  -31.1106  -16.7573 C   0  0  1  0  0  0  0  0  0  0  0  0
   37.2332  -32.0190  -16.4950 C   0  0  0  0  0  0  0  0  0  0  0  0
   37.0852  -33.1261  -17.1214 O   0  0  0  0  0  0  0  0  0  0  0  0
   36.2584  -31.7238  -15.5266 N   0  0  0  0  0  0  0  0  0  0  0  0
   35.1356  -32.6203  -15.3107 C   0  0  1  0  0  0  0  0  0  0  0  0
   34.6115  -32.3716  -13.8937 C   0  0  0  0  0  0  0  0  0  0  0  0
   35.4933  -33.1454  -12.9640 C   0  0  0  0  0  0  0  0  0  0  0  0
   36.4997  -34.0127  -13.2602 C   0  0  0  0  0  0  0  0  0  0  0  0
   37.0172  -34.4783  -12.1247 N   0  0  0  0  0  0  0  0  0  0  0  0
   36.3247  -33.8938  -11.1243 C   0  0  0  0  0  0  0  0  0  0  0  0
   35.3926  -33.0789  -11.6138 N   0  0  0  0  0  0  0  0  0  0  0  0
   34.0150  -32.3532  -16.2323 C   0  0  0  0  0  0  0  0  0  0  0  0
   33.6541  -31.1900  -16.5536 O   0  0  0  0  0  0  0  0  0  0  0  0
   33.3030  -33.4280  -16.7894 N   0  0  0  0  0  0  0  0  0  0  0  0
   32.1859  -33.3374  -17.6618 C   0  0  1  0  0  0  0  0  0  0  0  0
   32.4062  -33.9348  -19.0267 C   0  0  0  0  0  0  0  0  0  0  0  0
   31.2498  -33.7295  -19.9099 C   0  0  0  0  0  0  0  0  0  0  0  0
   30.3886  -34.6206  -20.0273 O   0  0  0  0  0  0  0  0  0  0  0  0
   30.9327  -33.8844  -17.1087 C   0  0  0  0  0  0  0  0  0  0  0  0
   30.8786  -35.2044  -16.6885 O   0  0  0  0  0  0  0  0  0  0  0  0
   31.1119  -32.5550  -20.6104 O   0  0  0  0  0  0  0  0  0  0  0  0
   29.8761  -33.2092  -16.9901 O   0  0  0  0  0  0  0  0  0  0  0  0
  1  2  1  0
  2  3  1  0
  4  3  1  0
  5  6  1  1
  5  1  1  0
  5  4  1  0
  6  8  1  0
  7  6  2  0
  8  9  1  0
  9 10  1  1
 10 11  1  0
 11 12  2  0
 11 15  1  0
 12 13  1  0
 13 14  1  0
 15 14  2  0
 16 18  1  0
 16  9  1  0
 17 16  2  0
 19 18  1  0
 19 23  1  0
 20 21  1  0
 19 20  1  6
 21 22  2  0
 23 24  1  0
 25 21  1  0
 26 23  2  0
M  END
$$$$
