PHD.pdb
     RDKit          3D

 26 27  0  0  1  0  0  0  0  0999 V2000
   24.0822  -12.2028  -15.8328 N   0  0  0  0  0  0  0  0  0  0  0  0
   24.8198  -13.3569  -16.3210 C   0  0  0  0  0  0  0  0  0  0  0  0
   24.4040  -13.6054  -17.7397 C   0  0  0  0  0  0  0  0  0  0  0  0
   23.1724  -12.7520  -17.9178 C   0  0  0  0  0  0  0  0  0  0  0  0
   23.5154  -11.5863  -17.0088 C   0  0  1  0  0  0  0  0  0  0  0  0
   22.4192  -10.6702  -16.7431 C   0  0  0  0  0  0  0  0  0  0  0  0
   21.9835   -9.8415  -17.6168 O   0  0  0  0  0  0  0  0  0  0  0  0
   21.7726  -10.6470  -15.4954 N   0  0  0  0  0  0  0  0  0  0  0  0
   20.6574   -9.7466  -15.2574 C   0  0  1  0  0  0  0  0  0  0  0  0
   19.7106  -10.4347  -14.2702 C   0  0  0  0  0  0  0  0  0  0  0  0
   18.8896  -11.4042  -15.0619 C   0  0  0  0  0  0  0  0  0  0  0  0
   18.9189  -11.6612  -16.3983 C   0  0  0  0  0  0  0  0  0  0  0  0
   18.0143  -12.5979  -16.6782 N   0  0  0  0  0  0  0  0  0  0  0  0
   17.4253  -12.9186  -15.5068 C   0  0  0  0  0  0  0  0  0  0  0  0
   17.9436  -12.2034  -14.5107 N   0  0  0  0  0  0  0  0  0  0  0  0
   21.0792   -8.4796  -14.6303 C   0  0  0  0  0  0  0  0  0  0  0  0
   22.0105   -8.4098  -13.7851 O   0  0  0  0  0  0  0  0  0  0  0  0
   20.4281   -7.2839  -14.9750 N   0  0  0  0  0  0  0  0  0  0  0  0
   20.7513   -5.9826  -14.5068 C   0  0  1  0  0  0  0  0  0  0  0  0
   22.0716   -5.4496  -14.9978 C   0  0  0  0  0  0  0  0  0  0  0  0
   22.3890   -4.1407  -14.4101 C   0  0  0  0  0  0  0  0  0  0  0  0
   22.0674   -3.8905  -13.2338 O   0  0  0  0  0  0  0  0  0  0  0  0
   19.7131   -4.9662  -14.7610 C   0  0  0  0  0  0  0  0  0  0  0  0
   18.9323   -5.0440  -15.9040 O   0  0  0  0  0  0  0  0  0  0  0  0
   23.0416   -3.1865  -15.1535 O   0  0  0  0  0  0  0  0  0  0  0  0
   19.4830   -4.0026  -13.9833 O   0  0  0  0  0  0  0  0  0  0  0  0
  1  2  1  0
  2  3  1  0
  4  3  1  0
  5  6  1  1
  5  1  1  0
  5  4  1  0
  6  8  1  0
  7  6  2  0
  8  9  1  0
  9 10  1  1
 10 11  1  0
 11 12  2  0
 11 15  1  0
 12 13  1  0
 13 14  1  0
 15 14  2  0
 16 18  1  0
 16  9  1  0
 17 16  2  0
 19 18  1  0
 19 23  1  0
 20 21  1  0
 19 20  1  6
 21 22  2  0
 23 24  1  0
 25 21  1  0
 26 23  2  0
M  END
$$$$
