PHD.pdb
     RDKit          3D

 26 27  0  0  1  0  0  0  0  0999 V2000
   41.3775  -11.4749   -9.3426 N   0  0  0  0  0  0  0  0  0  0  0  0
   41.7283  -12.8531   -9.6456 C   0  0  0  0  0  0  0  0  0  0  0  0
   41.4283  -13.6839   -8.4343 C   0  0  0  0  0  0  0  0  0  0  0  0
   41.2054  -12.6709   -7.3385 C   0  0  0  0  0  0  0  0  0  0  0  0
   40.5864  -11.5385   -8.1367 C   0  0  1  0  0  0  0  0  0  0  0  0
   40.4667  -10.2776   -7.4243 C   0  0  0  0  0  0  0  0  0  0  0  0
   39.8055  -10.1595   -6.3340 O   0  0  0  0  0  0  0  0  0  0  0  0
   41.0793   -9.1068   -7.9034 N   0  0  0  0  0  0  0  0  0  0  0  0
   40.9010   -7.8425   -7.2101 C   0  0  1  0  0  0  0  0  0  0  0  0
   42.2909   -7.2448   -6.9746 C   0  0  0  0  0  0  0  0  0  0  0  0
   42.9730   -8.1185   -5.9686 C   0  0  0  0  0  0  0  0  0  0  0  0
   42.4950   -9.2177   -5.3235 C   0  0  0  0  0  0  0  0  0  0  0  0
   43.4397   -9.6865   -4.5101 N   0  0  0  0  0  0  0  0  0  0  0  0
   44.5051   -8.8704   -4.6559 C   0  0  0  0  0  0  0  0  0  0  0  0
   44.2417   -7.9096   -5.5390 N   0  0  0  0  0  0  0  0  0  0  0  0
   40.1457   -6.8611   -8.0118 C   0  0  0  0  0  0  0  0  0  0  0  0
   39.6469   -7.1329   -9.1360 O   0  0  0  0  0  0  0  0  0  0  0  0
   39.9610   -5.5584   -7.5205 N   0  0  0  0  0  0  0  0  0  0  0  0
   39.2072   -4.5241   -8.1364 C   0  0  1  0  0  0  0  0  0  0  0  0
   37.7660   -4.8715   -8.4019 C   0  0  0  0  0  0  0  0  0  0  0  0
   37.0681   -3.8032   -9.1305 C   0  0  0  0  0  0  0  0  0  0  0  0
   37.2793   -3.6360  -10.3459 O   0  0  0  0  0  0  0  0  0  0  0  0
   39.2537   -3.2302   -7.4296 C   0  0  0  0  0  0  0  0  0  0  0  0
   39.2920   -2.0472   -8.1515 O   0  0  0  0  0  0  0  0  0  0  0  0
   36.1795   -2.9835   -8.4765 O   0  0  0  0  0  0  0  0  0  0  0  0
   39.2615   -3.1274   -6.1744 O   0  0  0  0  0  0  0  0  0  0  0  0
  1  2  1  0
  2  3  1  0
  4  3  1  0
  5  6  1  1
  5  1  1  0
  5  4  1  0
  6  8  1  0
  7  6  2  0
  8  9  1  0
  9 10  1  6
 10 11  1  0
 11 12  2  0
 11 15  1  0
 12 13  1  0
 13 14  1  0
 15 14  2  0
 16 18  1  0
 16  9  1  0
 17 16  2  0
 19 18  1  0
 19 23  1  0
 20 21  1  0
 19 20  1  1
 21 22  2  0
 23 24  1  0
 25 21  1  0
 26 23  2  0
M  END
$$$$
