PHD.pdb
     RDKit          3D

 26 27  0  0  1  0  0  0  0  0999 V2000
   39.9194   -9.9525  -12.4855 N   0  0  0  0  0  0  0  0  0  0  0  0
   39.9317  -11.1247  -13.3457 C   0  0  0  0  0  0  0  0  0  0  0  0
   38.5180  -11.5985  -13.5022 C   0  0  0  0  0  0  0  0  0  0  0  0
   37.7571  -10.8462  -12.4383 C   0  0  0  0  0  0  0  0  0  0  0  0
   38.5364   -9.5443  -12.4158 C   0  0  1  0  0  0  0  0  0  0  0  0
   38.2220   -8.6583  -11.3077 C   0  0  0  0  0  0  0  0  0  0  0  0
   37.0270   -8.2851  -11.0385 O   0  0  0  0  0  0  0  0  0  0  0  0
   39.2286   -8.1589  -10.4634 N   0  0  0  0  0  0  0  0  0  0  0  0
   38.9043   -7.2249   -9.3988 C   0  0  1  0  0  0  0  0  0  0  0  0
   39.7322   -7.6172   -8.1719 C   0  0  0  0  0  0  0  0  0  0  0  0
   39.1020   -8.8489   -7.6004 C   0  0  0  0  0  0  0  0  0  0  0  0
   37.9624   -9.4863   -7.9851 C   0  0  0  0  0  0  0  0  0  0  0  0
   37.7711  -10.5428   -7.1971 N   0  0  0  0  0  0  0  0  0  0  0  0
   38.7992  -10.5550   -6.3225 C   0  0  0  0  0  0  0  0  0  0  0  0
   39.6205   -9.5324   -6.5508 N   0  0  0  0  0  0  0  0  0  0  0  0
   39.2727   -5.8364   -9.7348 C   0  0  0  0  0  0  0  0  0  0  0  0
   40.0590   -5.5441  -10.6744 O   0  0  0  0  0  0  0  0  0  0  0  0
   38.7353   -4.7755   -8.9878 N   0  0  0  0  0  0  0  0  0  0  0  0
   38.5399   -3.4422   -9.4368 C   0  0  1  0  0  0  0  0  0  0  0  0
   37.7224   -3.3180  -10.6955 C   0  0  0  0  0  0  0  0  0  0  0  0
   37.7172   -1.9431  -11.2143 C   0  0  0  0  0  0  0  0  0  0  0  0
   38.7453   -1.2450  -11.1414 O   0  0  0  0  0  0  0  0  0  0  0  0
   37.9771   -2.5319   -8.4218 C   0  0  0  0  0  0  0  0  0  0  0  0
   38.0000   -1.1616   -8.6309 O   0  0  0  0  0  0  0  0  0  0  0  0
   36.5800   -1.4204  -11.7824 O   0  0  0  0  0  0  0  0  0  0  0  0
   37.4615   -2.9311   -7.3443 O   0  0  0  0  0  0  0  0  0  0  0  0
  1  2  1  0
  2  3  1  0
  4  3  1  0
  5  6  1  1
  5  1  1  0
  5  4  1  0
  6  8  1  0
  7  6  2  0
  8  9  1  0
  9 10  1  1
 10 11  1  0
 11 12  2  0
 11 15  1  0
 12 13  1  0
 13 14  1  0
 15 14  2  0
 16 18  1  0
 16  9  1  0
 17 16  2  0
 19 18  1  0
 19 23  1  0
 20 21  1  0
 19 20  1  6
 21 22  2  0
 23 24  1  0
 25 21  1  0
 26 23  2  0
M  END
$$$$
