PHD.pdb
     RDKit          3D

 26 27  0  0  1  0  0  0  0  0999 V2000
   25.8631  -17.7834  -17.3988 N   0  0  0  0  0  0  0  0  0  0  0  0
   27.2733  -18.0811  -17.5911 C   0  0  0  0  0  0  0  0  0  0  0  0
   27.5490  -18.0826  -19.0647 C   0  0  0  0  0  0  0  0  0  0  0  0
   26.1787  -18.0980  -19.6962 C   0  0  0  0  0  0  0  0  0  0  0  0
   25.3992  -17.2913  -18.6743 C   0  0  1  0  0  0  0  0  0  0  0  0
   23.9561  -17.3146  -18.8433 C   0  0  0  0  0  0  0  0  0  0  0  0
   23.3852  -17.0271  -19.9529 O   0  0  0  0  0  0  0  0  0  0  0  0
   23.1017  -17.6585  -17.7817 N   0  0  0  0  0  0  0  0  0  0  0  0
   21.6606  -17.6714  -17.9670 C   0  0  1  0  0  0  0  0  0  0  0  0
   21.1418  -19.0203  -17.4610 C   0  0  0  0  0  0  0  0  0  0  0  0
   21.4028  -20.0187  -18.5453 C   0  0  0  0  0  0  0  0  0  0  0  0
   20.7576  -20.1833  -19.7325 C   0  0  0  0  0  0  0  0  0  0  0  0
   21.3173  -21.1961  -20.3919 N   0  0  0  0  0  0  0  0  0  0  0  0
   22.3127  -21.6572  -19.6052 C   0  0  0  0  0  0  0  0  0  0  0  0
   22.3814  -20.9543  -18.4767 N   0  0  0  0  0  0  0  0  0  0  0  0
   20.9805  -16.6292  -17.1748 C   0  0  0  0  0  0  0  0  0  0  0  0
   21.2139  -16.4360  -15.9522 O   0  0  0  0  0  0  0  0  0  0  0  0
   20.0259  -15.8025  -17.7893 N   0  0  0  0  0  0  0  0  0  0  0  0
   19.2720  -14.7748  -17.1625 C   0  0  1  0  0  0  0  0  0  0  0  0
   18.8049  -13.6847  -18.0907 C   0  0  0  0  0  0  0  0  0  0  0  0
   18.4447  -12.4598  -17.3632 C   0  0  0  0  0  0  0  0  0  0  0  0
   18.5432  -12.4191  -16.1229 O   0  0  0  0  0  0  0  0  0  0  0  0
   18.1144  -15.2542  -16.3842 C   0  0  0  0  0  0  0  0  0  0  0  0
   17.8176  -14.6791  -15.1581 O   0  0  0  0  0  0  0  0  0  0  0  0
   17.9979  -11.3536  -18.0458 O   0  0  0  0  0  0  0  0  0  0  0  0
   17.3550  -16.1807  -16.7731 O   0  0  0  0  0  0  0  0  0  0  0  0
  1  2  1  0
  2  3  1  0
  4  3  1  0
  5  6  1  6
  5  1  1  0
  5  4  1  0
  6  8  1  0
  7  6  2  0
  8  9  1  0
  9 10  1  1
 10 11  1  0
 11 12  2  0
 11 15  1  0
 12 13  1  0
 13 14  1  0
 15 14  2  0
 16 18  1  0
 16  9  1  0
 17 16  2  0
 19 18  1  0
 19 23  1  0
 20 21  1  0
 19 20  1  6
 21 22  2  0
 23 24  1  0
 25 21  1  0
 26 23  2  0
M  END
$$$$
