PHD.pdb
     RDKit          3D

 26 27  0  0  1  0  0  0  0  0999 V2000
   19.0411  -13.2898  -16.3352 N   0  0  0  0  0  0  0  0  0  0  0  0
   18.6956  -14.6922  -16.5039 C   0  0  0  0  0  0  0  0  0  0  0  0
   19.8814  -15.3927  -17.0959 C   0  0  0  0  0  0  0  0  0  0  0  0
   20.7820  -14.2715  -17.5526 C   0  0  0  0  0  0  0  0  0  0  0  0
   20.4746  -13.2277  -16.4949 C   0  0  1  0  0  0  0  0  0  0  0  0
   20.9956  -11.8997  -16.7716 C   0  0  0  0  0  0  0  0  0  0  0  0
   22.2461  -11.6633  -16.9133 O   0  0  0  0  0  0  0  0  0  0  0  0
   20.1406  -10.7914  -16.8992 N   0  0  0  0  0  0  0  0  0  0  0  0
   20.6807   -9.4663  -17.1508 C   0  0  1  0  0  0  0  0  0  0  0  0
   19.8954   -8.8612  -18.3177 C   0  0  0  0  0  0  0  0  0  0  0  0
   20.2346   -9.6679  -19.5322 C   0  0  0  0  0  0  0  0  0  0  0  0
   19.5072  -10.6413  -20.1454 C   0  0  0  0  0  0  0  0  0  0  0  0
   20.1911  -11.0963  -21.1938 N   0  0  0  0  0  0  0  0  0  0  0  0
   21.3461  -10.3984  -21.2252 C   0  0  0  0  0  0  0  0  0  0  0  0
   21.3923   -9.5239  -20.2225 N   0  0  0  0  0  0  0  0  0  0  0  0
   20.5042   -8.5576  -16.0020 C   0  0  0  0  0  0  0  0  0  0  0  0
   19.5578   -8.6697  -15.1784 O   0  0  0  0  0  0  0  0  0  0  0  0
   21.4198   -7.5128  -15.7963 N   0  0  0  0  0  0  0  0  0  0  0  0
   21.3785   -6.5485  -14.7543 C   0  0  1  0  0  0  0  0  0  0  0  0
   22.5586   -5.6134  -14.7182 C   0  0  0  0  0  0  0  0  0  0  0  0
   22.4307   -4.6075  -13.6546 C   0  0  0  0  0  0  0  0  0  0  0  0
   22.3668   -4.9636  -12.4636 O   0  0  0  0  0  0  0  0  0  0  0  0
   20.1429   -5.7438  -14.7151 C   0  0  0  0  0  0  0  0  0  0  0  0
   19.4803   -5.5495  -13.5129 O   0  0  0  0  0  0  0  0  0  0  0  0
   22.3811   -3.2699  -13.9673 O   0  0  0  0  0  0  0  0  0  0  0  0
   19.6351   -5.2056  -15.7343 O   0  0  0  0  0  0  0  0  0  0  0  0
  1  2  1  0
  2  3  1  0
  4  3  1  0
  5  6  1  6
  5  1  1  0
  5  4  1  0
  6  8  1  0
  7  6  2  0
  8  9  1  0
  9 10  1  6
 10 11  1  0
 11 12  2  0
 11 15  1  0
 12 13  1  0
 13 14  1  0
 15 14  2  0
 16 18  1  0
 16  9  1  0
 17 16  2  0
 19 18  1  0
 19 23  1  0
 20 21  1  0
 19 20  1  6
 21 22  2  0
 23 24  1  0
 25 21  1  0
 26 23  2  0
M  END
$$$$
