PHD.pdb
     RDKit          3D

 26 27  0  0  1  0  0  0  0  0999 V2000
   18.2228  -12.6401  -15.9834 N   0  0  0  0  0  0  0  0  0  0  0  0
   17.8404  -14.0317  -16.1608 C   0  0  0  0  0  0  0  0  0  0  0  0
   18.8924  -14.6978  -16.9956 C   0  0  0  0  0  0  0  0  0  0  0  0
   19.7043  -13.5524  -17.5484 C   0  0  0  0  0  0  0  0  0  0  0  0
   19.6037  -12.5676  -16.3983 C   0  0  1  0  0  0  0  0  0  0  0  0
   20.0770  -11.2259  -16.6941 C   0  0  0  0  0  0  0  0  0  0  0  0
   21.3074  -10.9640  -16.9338 O   0  0  0  0  0  0  0  0  0  0  0  0
   19.1953  -10.1321  -16.7324 N   0  0  0  0  0  0  0  0  0  0  0  0
   19.6699   -8.8131  -17.1147 C   0  0  1  0  0  0  0  0  0  0  0  0
   18.6442   -8.2155  -18.0818 C   0  0  0  0  0  0  0  0  0  0  0  0
   18.7814   -8.9603  -19.3730 C   0  0  0  0  0  0  0  0  0  0  0  0
   19.6090   -8.7088  -20.4240 C   0  0  0  0  0  0  0  0  0  0  0  0
   19.3970   -9.6226  -21.3695 N   0  0  0  0  0  0  0  0  0  0  0  0
   18.4331  -10.4409  -20.8969 C   0  0  0  0  0  0  0  0  0  0  0  0
   18.0447  -10.0551  -19.6833 N   0  0  0  0  0  0  0  0  0  0  0  0
   19.7603   -7.8912  -15.9666 C   0  0  0  0  0  0  0  0  0  0  0  0
   19.1874   -8.1087  -14.8661 O   0  0  0  0  0  0  0  0  0  0  0  0
   20.5133   -6.7113  -16.0813 N   0  0  0  0  0  0  0  0  0  0  0  0
   20.8247   -5.8046  -15.0333 C   0  0  1  0  0  0  0  0  0  0  0  0
   22.2748   -5.7902  -14.6269 C   0  0  0  0  0  0  0  0  0  0  0  0
   22.5269   -4.8550  -13.5218 C   0  0  0  0  0  0  0  0  0  0  0  0
   22.5160   -5.2619  -12.3454 O   0  0  0  0  0  0  0  0  0  0  0  0
   20.3941   -4.4154  -15.2790 C   0  0  0  0  0  0  0  0  0  0  0  0
   19.9706   -3.6240  -14.2225 O   0  0  0  0  0  0  0  0  0  0  0  0
   22.7758   -3.5280  -13.7793 O   0  0  0  0  0  0  0  0  0  0  0  0
   20.3856   -3.8856  -16.4216 O   0  0  0  0  0  0  0  0  0  0  0  0
  1  2  1  0
  2  3  1  0
  4  3  1  0
  5  6  1  6
  5  1  1  0
  5  4  1  0
  6  8  1  0
  7  6  2  0
  8  9  1  0
  9 10  1  6
 10 11  1  0
 11 12  2  0
 11 15  1  0
 12 13  1  0
 13 14  1  0
 15 14  2  0
 16 18  1  0
 16  9  1  0
 17 16  2  0
 19 18  1  0
 19 23  1  0
 20 21  1  0
 19 20  1  6
 21 22  2  0
 23 24  1  0
 25 21  1  0
 26 23  2  0
M  END
$$$$
