PHD.pdb
     RDKit          3D

 26 27  0  0  1  0  0  0  0  0999 V2000
   16.9309  -23.6576    2.9671 N   0  0  0  0  0  0  0  0  0  0  0  0
   17.3250  -25.0487    2.8122 C   0  0  0  0  0  0  0  0  0  0  0  0
   17.7699  -25.5552    4.1512 C   0  0  0  0  0  0  0  0  0  0  0  0
   17.9185  -24.3075    4.9867 C   0  0  0  0  0  0  0  0  0  0  0  0
   16.8182  -23.4488    4.3911 C   0  0  1  0  0  0  0  0  0  0  0  0
   16.8357  -22.0549    4.8016 C   0  0  0  0  0  0  0  0  0  0  0  0
   17.5730  -21.1759    4.2328 O   0  0  0  0  0  0  0  0  0  0  0  0
   16.0326  -21.5947    5.8592 N   0  0  0  0  0  0  0  0  0  0  0  0
   16.0939  -20.2066    6.2840 C   0  0  1  0  0  0  0  0  0  0  0  0
   14.7056  -19.5966    6.0712 C   0  0  0  0  0  0  0  0  0  0  0  0
   14.4855  -19.5270    4.5922 C   0  0  0  0  0  0  0  0  0  0  0  0
   13.7564  -20.3542    3.7941 C   0  0  0  0  0  0  0  0  0  0  0  0
   13.8364  -19.9227    2.5366 N   0  0  0  0  0  0  0  0  0  0  0  0
   14.6196  -18.8235    2.5617 C   0  0  0  0  0  0  0  0  0  0  0  0
   15.0250  -18.5657    3.8033 N   0  0  0  0  0  0  0  0  0  0  0  0
   16.4039  -20.0690    7.7197 C   0  0  0  0  0  0  0  0  0  0  0  0
   16.4624  -21.0517    8.5056 O   0  0  0  0  0  0  0  0  0  0  0  0
   16.6489  -18.7952    8.2581 N   0  0  0  0  0  0  0  0  0  0  0  0
   17.0573  -18.5060    9.5873 C   0  0  1  0  0  0  0  0  0  0  0  0
   18.3909  -19.0889    9.9744 C   0  0  0  0  0  0  0  0  0  0  0  0
   18.7035  -18.8538   11.3908 C   0  0  0  0  0  0  0  0  0  0  0  0
   17.8594  -19.1148   12.2677 O   0  0  0  0  0  0  0  0  0  0  0  0
   17.0576  -17.0709    9.9279 C   0  0  0  0  0  0  0  0  0  0  0  0
   17.2917  -16.6686   11.2338 O   0  0  0  0  0  0  0  0  0  0  0  0
   19.9273  -18.3455   11.7559 O   0  0  0  0  0  0  0  0  0  0  0  0
   16.8524  -16.1593    9.0834 O   0  0  0  0  0  0  0  0  0  0  0  0
  1  2  1  0
  2  3  1  0
  4  3  1  0
  5  6  1  6
  5  1  1  0
  5  4  1  0
  6  8  1  0
  7  6  2  0
  8  9  1  0
  9 10  1  1
 10 11  1  0
 11 12  2  0
 11 15  1  0
 12 13  1  0
 13 14  1  0
 15 14  2  0
 16 18  1  0
 16  9  1  0
 17 16  2  0
 19 18  1  0
 19 23  1  0
 20 21  1  0
 19 20  1  6
 21 22  2  0
 23 24  1  0
 25 21  1  0
 26 23  2  0
M  END
$$$$
