PHD.pdb
     RDKit          3D

 26 27  0  0  1  0  0  0  0  0999 V2000
   24.0619  -34.8297  -13.5523 N   0  0  0  0  0  0  0  0  0  0  0  0
   24.5258  -35.1739  -14.8867 C   0  0  0  0  0  0  0  0  0  0  0  0
   25.7735  -34.3889  -15.1595 C   0  0  0  0  0  0  0  0  0  0  0  0
   25.8060  -33.3547  -14.0612 C   0  0  0  0  0  0  0  0  0  0  0  0
   25.1664  -34.1388  -12.9303 C   0  0  1  0  0  0  0  0  0  0  0  0
   24.8075  -33.3520  -11.7625 C   0  0  0  0  0  0  0  0  0  0  0  0
   25.6090  -32.5126  -11.2214 O   0  0  0  0  0  0  0  0  0  0  0  0
   23.5441  -33.4748  -11.1590 N   0  0  0  0  0  0  0  0  0  0  0  0
   23.1907  -32.6573  -10.0110 C   0  0  1  0  0  0  0  0  0  0  0  0
   21.6959  -32.3410  -10.1118 C   0  0  0  0  0  0  0  0  0  0  0  0
   21.5419  -31.3173  -11.1930 C   0  0  0  0  0  0  0  0  0  0  0  0
   21.6740  -31.4661  -12.5396 C   0  0  0  0  0  0  0  0  0  0  0  0
   21.4534  -30.2918  -13.1279 N   0  0  0  0  0  0  0  0  0  0  0  0
   21.1841  -29.4156  -12.1370 C   0  0  0  0  0  0  0  0  0  0  0  0
   21.2330  -30.0197  -10.9516 N   0  0  0  0  0  0  0  0  0  0  0  0
   23.3912  -33.3642   -8.7318 C   0  0  0  0  0  0  0  0  0  0  0  0
   22.7850  -34.4273   -8.4337 O   0  0  0  0  0  0  0  0  0  0  0  0
   24.2935  -32.8480   -7.7874 N   0  0  0  0  0  0  0  0  0  0  0  0
   24.6412  -33.4381   -6.5432 C   0  0  1  0  0  0  0  0  0  0  0  0
   25.5827  -32.6177   -5.7014 C   0  0  0  0  0  0  0  0  0  0  0  0
   26.1223  -33.3868   -4.5715 C   0  0  0  0  0  0  0  0  0  0  0  0
   25.7688  -34.5672   -4.3949 O   0  0  0  0  0  0  0  0  0  0  0  0
   23.4892  -33.8300   -5.7095 C   0  0  0  0  0  0  0  0  0  0  0  0
   22.6701  -32.8570   -5.1579 O   0  0  0  0  0  0  0  0  0  0  0  0
   27.0187  -32.8091   -3.7043 O   0  0  0  0  0  0  0  0  0  0  0  0
   23.1926  -35.0280   -5.4585 O   0  0  0  0  0  0  0  0  0  0  0  0
  1  2  1  0
  2  3  1  0
  4  3  1  0
  5  6  1  1
  5  1  1  0
  5  4  1  0
  6  8  1  0
  7  6  2  0
  8  9  1  0
  9 10  1  6
 10 11  1  0
 11 12  2  0
 11 15  1  0
 12 13  1  0
 13 14  1  0
 15 14  2  0
 16 18  1  0
 16  9  1  0
 17 16  2  0
 19 18  1  0
 19 23  1  0
 20 21  1  0
 19 20  1  1
 21 22  2  0
 23 24  1  0
 25 21  1  0
 26 23  2  0
M  END
$$$$
