PHD.pdb
     RDKit          3D

 26 27  0  0  1  0  0  0  0  0999 V2000
   22.7719  -12.1774  -18.9478 N   0  0  0  0  0  0  0  0  0  0  0  0
   22.3754  -13.5088  -19.3774 C   0  0  0  0  0  0  0  0  0  0  0  0
   21.6164  -14.1502  -18.2550 C   0  0  0  0  0  0  0  0  0  0  0  0
   21.8852  -13.2558  -17.0697 C   0  0  0  0  0  0  0  0  0  0  0  0
   21.9916  -11.9102  -17.7629 C   0  0  1  0  0  0  0  0  0  0  0  0
   22.4999  -10.8300  -16.9345 C   0  0  0  0  0  0  0  0  0  0  0  0
   21.9474  -10.4857  -15.8317 O   0  0  0  0  0  0  0  0  0  0  0  0
   23.6401  -10.0977  -17.3075 N   0  0  0  0  0  0  0  0  0  0  0  0
   24.1445   -9.0318  -16.4587 C   0  0  1  0  0  0  0  0  0  0  0  0
   25.6303   -8.8491  -16.7801 C   0  0  0  0  0  0  0  0  0  0  0  0
   26.3049  -10.1468  -16.4611 C   0  0  0  0  0  0  0  0  0  0  0  0
   25.7702  -11.2863  -15.9429 C   0  0  0  0  0  0  0  0  0  0  0  0
   26.7333  -12.1978  -15.8183 N   0  0  0  0  0  0  0  0  0  0  0  0
   27.8670  -11.6151  -16.2624 C   0  0  0  0  0  0  0  0  0  0  0  0
   27.6280  -10.3667  -16.6581 N   0  0  0  0  0  0  0  0  0  0  0  0
   23.4884   -7.7381  -16.7275 C   0  0  0  0  0  0  0  0  0  0  0  0
   23.2726   -7.3077  -17.8914 O   0  0  0  0  0  0  0  0  0  0  0  0
   23.0767   -6.9321  -15.6536 N   0  0  0  0  0  0  0  0  0  0  0  0
   22.2514   -5.7789  -15.7329 C   0  0  1  0  0  0  0  0  0  0  0  0
   20.9088   -6.0116  -16.3744 C   0  0  0  0  0  0  0  0  0  0  0  0
   20.1362   -4.7679  -16.4994 C   0  0  0  0  0  0  0  0  0  0  0  0
   20.6887   -3.7282  -16.9035 O   0  0  0  0  0  0  0  0  0  0  0  0
   22.0417   -5.0879  -14.4468 C   0  0  0  0  0  0  0  0  0  0  0  0
   21.4673   -3.8263  -14.4235 O   0  0  0  0  0  0  0  0  0  0  0  0
   18.8014   -4.7446  -16.1719 O   0  0  0  0  0  0  0  0  0  0  0  0
   22.3608   -5.5848  -13.3343 O   0  0  0  0  0  0  0  0  0  0  0  0
  1  2  1  0
  2  3  1  0
  4  3  1  0
  5  6  1  1
  5  1  1  0
  5  4  1  0
  6  8  1  0
  7  6  2  0
  8  9  1  0
  9 10  1  6
 10 11  1  0
 11 12  2  0
 11 15  1  0
 12 13  1  0
 13 14  1  0
 15 14  2  0
 16 18  1  0
 16  9  1  0
 17 16  2  0
 19 18  1  0
 19 23  1  0
 20 21  1  0
 19 20  1  1
 21 22  2  0
 23 24  1  0
 25 21  1  0
 26 23  2  0
M  END
$$$$
