SYD.pdb
     RDKit          3D

 27 27  0  0  1  0  0  0  0  0999 V2000
   18.2824  -12.3874  -16.8893 O   0  0  0  0  0  0  0  0  0  0  0  0
   18.8989  -11.3759  -16.1302 C   0  0  0  0  0  0  0  0  0  0  0  0
   20.4048  -11.4283  -16.2901 C   0  0  2  0  0  0  0  0  0  0  0  0
   20.9374  -12.5670  -15.6027 N   0  0  0  0  0  0  0  0  0  0  0  0
   21.0612  -10.2086  -15.8024 C   0  0  0  0  0  0  0  0  0  0  0  0
   21.3049  -10.0447  -14.5854 O   0  0  0  0  0  0  0  0  0  0  0  0
   26.9890  -12.0471  -15.2058 O   0  0  0  0  0  0  0  0  0  0  0  0
   26.1322  -11.0200  -15.5886 C   0  0  0  0  0  0  0  0  0  0  0  0
   26.1203   -9.7973  -14.9424 C   0  0  0  0  0  0  0  0  0  0  0  0
   25.2595   -8.7984  -15.3448 C   0  0  0  0  0  0  0  0  0  0  0  0
   24.3721   -8.9496  -16.3964 C   0  0  0  0  0  0  0  0  0  0  0  0
   23.4645   -7.8493  -16.7810 C   0  0  0  0  0  0  0  0  0  0  0  0
   22.0939   -7.9385  -16.2048 C   0  0  2  0  0  0  0  0  0  0  0  0
   21.4573   -9.1433  -16.6870 N   0  0  0  0  0  0  0  0  0  0  0  0
   21.2711   -6.7368  -16.4247 C   0  0  0  0  0  0  0  0  0  0  0  0
   20.7880   -6.5634  -17.5761 O   0  0  0  0  0  0  0  0  0  0  0  0
   24.3979  -10.1862  -17.0349 C   0  0  0  0  0  0  0  0  0  0  0  0
   25.2560  -11.1906  -16.6384 C   0  0  0  0  0  0  0  0  0  0  0  0
   20.9875   -5.7741  -15.4479 N   0  0  0  0  0  0  0  0  0  0  0  0
   20.1206   -4.6106  -15.7524 C   0  0  1  0  0  0  0  0  0  0  0  0
   19.3355   -4.3270  -14.5135 C   0  0  0  0  0  0  0  0  0  0  0  0
   18.4538   -3.1652  -14.6536 C   0  0  0  0  0  0  0  0  0  0  0  0
   18.3740   -2.5436  -15.7356 O   0  0  0  0  0  0  0  0  0  0  0  0
   21.0692   -3.4940  -16.0347 C   0  0  0  0  0  0  0  0  0  0  0  0
   20.8182   -2.5313  -16.9718 O   0  0  0  0  0  0  0  0  0  0  0  0
   17.6684   -2.7041  -13.5908 O   0  0  0  0  0  0  0  0  0  0  0  0
   22.1639   -3.3953  -15.4045 O   0  0  0  0  0  0  0  0  0  0  0  0
  2  1  1  0
  3  2  1  0
  3  5  1  0
  3  4  1  1
  5 14  1  0
  5  6  2  0
  8  7  1  0
  8 18  2  0
  9  8  1  0
 10  9  2  0
 10 11  1  0
 11 17  2  0
 12 11  1  0
 13 12  1  6
 14 13  1  0
 15 13  1  0
 15 16  2  0
 17 18  1  0
 19 15  1  0
 20 19  1  0
 20 21  1  1
 22 21  1  0
 22 26  1  0
 23 22  2  0
 24 20  1  0
 25 24  1  0
 27 24  2  0
M  END
$$$$
