SYD.pdb
     RDKit          3D

 27 27  0  0  1  0  0  0  0  0999 V2000
   17.0167  -28.7358    1.2616 O   0  0  0  0  0  0  0  0  0  0  0  0
   17.3649  -27.9306    2.3615 C   0  0  0  0  0  0  0  0  0  0  0  0
   16.8480  -26.5183    2.1765 C   0  0  2  0  0  0  0  0  0  0  0  0
   17.1055  -26.0665    0.8414 N   0  0  0  0  0  0  0  0  0  0  0  0
   17.4389  -25.5769    3.1363 C   0  0  0  0  0  0  0  0  0  0  0  0
   18.5094  -24.9790    2.8841 O   0  0  0  0  0  0  0  0  0  0  0  0
   16.2286  -19.1461    1.4521 O   0  0  0  0  0  0  0  0  0  0  0  0
   16.2376  -20.1410    2.4244 C   0  0  0  0  0  0  0  0  0  0  0  0
   15.2694  -21.1275    2.4716 C   0  0  0  0  0  0  0  0  0  0  0  0
   15.3049  -22.1005    3.4477 C   0  0  0  0  0  0  0  0  0  0  0  0
   16.2877  -22.1529    4.4211 C   0  0  0  0  0  0  0  0  0  0  0  0
   16.2738  -23.2128    5.4501 C   0  0  0  0  0  0  0  0  0  0  0  0
   17.3235  -24.2568    5.2871 C   0  0  2  0  0  0  0  0  0  0  0  0
   16.8268  -25.2916    4.4084 N   0  0  0  0  0  0  0  0  0  0  0  0
   17.8389  -24.7932    6.5583 C   0  0  0  0  0  0  0  0  0  0  0  0
   17.2445  -25.7874    7.0556 O   0  0  0  0  0  0  0  0  0  0  0  0
   17.2535  -21.1525    4.3583 C   0  0  0  0  0  0  0  0  0  0  0  0
   17.2251  -20.1755    3.3849 C   0  0  0  0  0  0  0  0  0  0  0  0
   18.9403  -24.2784    7.2536 N   0  0  0  0  0  0  0  0  0  0  0  0
   19.3817  -24.8784    8.5354 C   0  0  1  0  0  0  0  0  0  0  0  0
   20.7175  -24.2864    8.8466 C   0  0  0  0  0  0  0  0  0  0  0  0
   21.3354  -24.8741   10.0380 C   0  0  0  0  0  0  0  0  0  0  0  0
   20.7670  -25.7881   10.6743 O   0  0  0  0  0  0  0  0  0  0  0  0
   18.3679  -24.4294    9.5338 C   0  0  0  0  0  0  0  0  0  0  0  0
   17.9469  -25.2208   10.5654 O   0  0  0  0  0  0  0  0  0  0  0  0
   22.5793  -24.4416   10.5121 O   0  0  0  0  0  0  0  0  0  0  0  0
   17.8491  -23.2758    9.4604 O   0  0  0  0  0  0  0  0  0  0  0  0
  2  1  1  0
  3  2  1  0
  3  5  1  0
  3  4  1  6
  5 14  1  0
  5  6  2  0
  8  7  1  0
  8 18  2  0
  9  8  1  0
 10  9  2  0
 10 11  1  0
 11 17  2  0
 12 11  1  0
 13 12  1  1
 14 13  1  0
 15 13  1  0
 15 16  2  0
 17 18  1  0
 19 15  1  0
 20 19  1  0
 20 21  1  1
 22 21  1  0
 22 26  1  0
 23 22  2  0
 24 20  1  0
 25 24  1  0
 27 24  2  0
M  END
$$$$
