SYD.pdb
     RDKit          3D

 27 27  0  0  1  0  0  0  0  0999 V2000
   27.4950  -25.4205  -16.8919 O   0  0  0  0  0  0  0  0  0  0  0  0
   26.5111  -24.4158  -16.9346 C   0  0  0  0  0  0  0  0  0  0  0  0
   25.7298  -24.3755  -15.6369 C   0  0  2  0  0  0  0  0  0  0  0  0
   24.8554  -25.5071  -15.5489 N   0  0  0  0  0  0  0  0  0  0  0  0
   24.9500  -23.1396  -15.4925 C   0  0  0  0  0  0  0  0  0  0  0  0
   23.7051  -23.1383  -15.6243 O   0  0  0  0  0  0  0  0  0  0  0  0
   23.7398  -21.4738   -8.8572 O   0  0  0  0  0  0  0  0  0  0  0  0
   24.1236  -21.0570  -10.1278 C   0  0  0  0  0  0  0  0  0  0  0  0
   23.2459  -20.4194  -10.9856 C   0  0  0  0  0  0  0  0  0  0  0  0
   23.6557  -20.0179  -12.2392 C   0  0  0  0  0  0  0  0  0  0  0  0
   24.9412  -20.2216  -12.7106 C   0  0  0  0  0  0  0  0  0  0  0  0
   25.3258  -19.7792  -14.0666 C   0  0  0  0  0  0  0  0  0  0  0  0
   24.8166  -20.6373  -15.1725 C   0  0  2  0  0  0  0  0  0  0  0  0
   25.5667  -21.8727  -15.1942 N   0  0  0  0  0  0  0  0  0  0  0  0
   24.7874  -19.9698  -16.4851 C   0  0  0  0  0  0  0  0  0  0  0  0
   25.8924  -19.7334  -17.0439 O   0  0  0  0  0  0  0  0  0  0  0  0
   25.8107  -20.8646  -11.8341 C   0  0  0  0  0  0  0  0  0  0  0  0
   25.4085  -21.2693  -10.5784 C   0  0  0  0  0  0  0  0  0  0  0  0
   23.6218  -19.5792  -17.1560 N   0  0  0  0  0  0  0  0  0  0  0  0
   23.6884  -18.9374  -18.4908 C   0  0  1  0  0  0  0  0  0  0  0  0
   23.3834  -20.0027  -19.4927 C   0  0  0  0  0  0  0  0  0  0  0  0
   23.3471  -19.4960  -20.8670 C   0  0  0  0  0  0  0  0  0  0  0  0
   23.5855  -18.2944  -21.1172 O   0  0  0  0  0  0  0  0  0  0  0  0
   22.6040  -17.9127  -18.4740 C   0  0  0  0  0  0  0  0  0  0  0  0
   22.6819  -16.7439  -19.1780 O   0  0  0  0  0  0  0  0  0  0  0  0
   23.0464  -20.3285  -21.9512 O   0  0  0  0  0  0  0  0  0  0  0  0
   21.5508  -18.0912  -17.7926 O   0  0  0  0  0  0  0  0  0  0  0  0
  2  1  1  0
  3  2  1  0
  3  5  1  0
  3  4  1  6
  5 14  1  0
  5  6  2  0
  8  7  1  0
  8 18  2  0
  9  8  1  0
 10  9  2  0
 10 11  1  0
 11 17  2  0
 12 11  1  0
 13 12  1  1
 14 13  1  0
 15 13  1  0
 15 16  2  0
 17 18  1  0
 19 15  1  0
 20 19  1  0
 20 21  1  6
 22 21  1  0
 22 26  1  0
 23 22  2  0
 24 20  1  0
 25 24  1  0
 27 24  2  0
M  END
$$$$
