SYD.pdb
     RDKit          3D

 27 27  0  0  1  0  0  0  0  0999 V2000
   18.9766  -13.2368  -16.4243 O   0  0  0  0  0  0  0  0  0  0  0  0
   19.6931  -12.1539  -15.8824 C   0  0  0  0  0  0  0  0  0  0  0  0
   21.1364  -12.1822  -16.3428 C   0  0  2  0  0  0  0  0  0  0  0  0
   21.7576  -13.4130  -15.9526 N   0  0  0  0  0  0  0  0  0  0  0  0
   21.9126  -11.0518  -15.8174 C   0  0  0  0  0  0  0  0  0  0  0  0
   22.2529  -11.0015  -14.6137 O   0  0  0  0  0  0  0  0  0  0  0  0
   28.0722  -12.8711  -15.9547 O   0  0  0  0  0  0  0  0  0  0  0  0
   27.1558  -11.8471  -16.1716 C   0  0  0  0  0  0  0  0  0  0  0  0
   26.3191  -11.8342  -17.2729 C   0  0  0  0  0  0  0  0  0  0  0  0
   25.4210  -10.8053  -17.4608 C   0  0  0  0  0  0  0  0  0  0  0  0
   25.3002   -9.7432  -16.5813 C   0  0  0  0  0  0  0  0  0  0  0  0
   24.3268   -8.6613  -16.8350 C   0  0  0  0  0  0  0  0  0  0  0  0
   23.0297   -8.8059  -16.1173 C   0  0  2  0  0  0  0  0  0  0  0  0
   22.3220   -9.9489  -16.6484 N   0  0  0  0  0  0  0  0  0  0  0  0
   22.2076   -7.5838  -16.1117 C   0  0  0  0  0  0  0  0  0  0  0  0
   21.4043   -7.4169  -17.0686 O   0  0  0  0  0  0  0  0  0  0  0  0
   26.1499   -9.7726  -15.4791 C   0  0  0  0  0  0  0  0  0  0  0  0
   27.0511  -10.7983  -15.2839 C   0  0  0  0  0  0  0  0  0  0  0  0
   22.2543   -6.5951  -15.1208 N   0  0  0  0  0  0  0  0  0  0  0  0
   21.4669   -5.3459  -15.2518 C   0  0  1  0  0  0  0  0  0  0  0  0
   21.5364   -4.6564  -13.9284 C   0  0  0  0  0  0  0  0  0  0  0  0
   20.8559   -3.3588  -13.9278 C   0  0  0  0  0  0  0  0  0  0  0  0
   19.8665   -3.1497  -14.6630 O   0  0  0  0  0  0  0  0  0  0  0  0
   22.1849   -4.5516  -16.2910 C   0  0  0  0  0  0  0  0  0  0  0  0
   21.5319   -3.8220  -17.2444 O   0  0  0  0  0  0  0  0  0  0  0  0
   21.2805   -2.3048  -13.1105 O   0  0  0  0  0  0  0  0  0  0  0  0
   23.4511   -4.5242  -16.3292 O   0  0  0  0  0  0  0  0  0  0  0  0
  2  1  1  0
  3  2  1  0
  3  5  1  0
  3  4  1  1
  5 14  1  0
  5  6  2  0
  8  7  1  0
  8 18  2  0
  9  8  1  0
 10  9  2  0
 10 11  1  0
 11 17  2  0
 12 11  1  0
 13 12  1  6
 14 13  1  0
 15 13  1  0
 15 16  2  0
 17 18  1  0
 19 15  1  0
 20 19  1  0
 20 21  1  1
 22 21  1  0
 22 26  1  0
 23 22  2  0
 24 20  1  0
 25 24  1  0
 27 24  2  0
M  END
$$$$
