SYD.pdb
     RDKit          3D

 27 27  0  0  1  0  0  0  0  0999 V2000
   21.4191  -11.0959  -19.2861 O   0  0  0  0  0  0  0  0  0  0  0  0
   20.5654  -10.2139  -18.5986 C   0  0  0  0  0  0  0  0  0  0  0  0
   20.2388  -10.7502  -17.2196 C   0  0  2  0  0  0  0  0  0  0  0  0
   19.1378  -11.6643  -17.2906 N   0  0  0  0  0  0  0  0  0  0  0  0
   19.9280   -9.6800  -16.2632 C   0  0  0  0  0  0  0  0  0  0  0  0
   18.8124   -9.1120  -16.2645 O   0  0  0  0  0  0  0  0  0  0  0  0
   19.7145   -4.8150   -8.8893 O   0  0  0  0  0  0  0  0  0  0  0  0
   20.0727   -5.6945   -9.9060 C   0  0  0  0  0  0  0  0  0  0  0  0
   19.4367   -6.9102  -10.0804 C   0  0  0  0  0  0  0  0  0  0  0  0
   19.8141   -7.7610  -11.0975 C   0  0  0  0  0  0  0  0  0  0  0  0
   20.8297   -7.4619  -11.9893 C   0  0  0  0  0  0  0  0  0  0  0  0
   21.2004   -8.4139  -13.0564 C   0  0  0  0  0  0  0  0  0  0  0  0
   20.5994   -8.1256  -14.3884 C   0  0  2  0  0  0  0  0  0  0  0  0
   20.8788   -9.2284  -15.2802 N   0  0  0  0  0  0  0  0  0  0  0  0
   20.9939   -6.8250  -14.9558 C   0  0  0  0  0  0  0  0  0  0  0  0
   22.0651   -6.7786  -15.6188 O   0  0  0  0  0  0  0  0  0  0  0  0
   21.4585   -6.2348  -11.7988 C   0  0  0  0  0  0  0  0  0  0  0  0
   21.0868   -5.3780  -10.7837 C   0  0  0  0  0  0  0  0  0  0  0  0
   20.2655   -5.6375  -14.8118 N   0  0  0  0  0  0  0  0  0  0  0  0
   20.7354   -4.3745  -15.4298 C   0  0  1  0  0  0  0  0  0  0  0  0
   20.3281   -4.4245  -16.8662 C   0  0  0  0  0  0  0  0  0  0  0  0
   20.6043   -3.1742  -17.5785 C   0  0  0  0  0  0  0  0  0  0  0  0
   21.2350   -2.2451  -17.0287 O   0  0  0  0  0  0  0  0  0  0  0  0
   19.9875   -3.3002  -14.7137 C   0  0  0  0  0  0  0  0  0  0  0  0
   20.5389   -2.0833  -14.4254 O   0  0  0  0  0  0  0  0  0  0  0  0
   20.1775   -2.9669  -18.8953 O   0  0  0  0  0  0  0  0  0  0  0  0
   18.7908   -3.4799  -14.3384 O   0  0  0  0  0  0  0  0  0  0  0  0
  2  1  1  0
  3  2  1  0
  3  5  1  0
  3  4  1  6
  5 14  1  0
  5  6  2  0
  8  7  1  0
  8 18  2  0
  9  8  1  0
 10  9  2  0
 10 11  1  0
 11 17  2  0
 12 11  1  0
 13 12  1  1
 14 13  1  0
 15 13  1  0
 15 16  2  0
 17 18  1  0
 19 15  1  0
 20 19  1  0
 20 21  1  6
 22 21  1  0
 22 26  1  0
 23 22  2  0
 24 20  1  0
 25 24  1  0
 27 24  2  0
M  END
$$$$
