SYD.pdb
     RDKit          3D

 27 27  0  0  1  0  0  0  0  0999 V2000
   42.0241  -10.4604   -7.3439 O   0  0  0  0  0  0  0  0  0  0  0  0
   41.3601   -9.2799   -7.7244 C   0  0  0  0  0  0  0  0  0  0  0  0
   39.9555   -9.5857   -8.2033 C   0  0  2  0  0  0  0  0  0  0  0  0
   39.9981  -10.4413   -9.3518 N   0  0  0  0  0  0  0  0  0  0  0  0
   39.1975   -8.3696   -8.5245 C   0  0  0  0  0  0  0  0  0  0  0  0
   39.1917   -7.8952   -9.6830 O   0  0  0  0  0  0  0  0  0  0  0  0
   34.1765   -1.0655   -7.1980 O   0  0  0  0  0  0  0  0  0  0  0  0
   34.8001   -2.3049   -7.0960 C   0  0  0  0  0  0  0  0  0  0  0  0
   35.8620   -2.5218   -6.2369 C   0  0  0  0  0  0  0  0  0  0  0  0
   36.4598   -3.7616   -6.1579 C   0  0  0  0  0  0  0  0  0  0  0  0
   36.0467   -4.8446   -6.9146 C   0  0  0  0  0  0  0  0  0  0  0  0
   36.7285   -6.1499   -6.7975 C   0  0  0  0  0  0  0  0  0  0  0  0
   37.7828   -6.3989   -7.8198 C   0  0  2  0  0  0  0  0  0  0  0  0
   38.4263   -7.6616   -7.5354 N   0  0  0  0  0  0  0  0  0  0  0  0
   38.7455   -5.2944   -7.9702 C   0  0  0  0  0  0  0  0  0  0  0  0
   39.7704   -5.3100   -7.2365 O   0  0  0  0  0  0  0  0  0  0  0  0
   34.9771   -4.6081   -7.7734 C   0  0  0  0  0  0  0  0  0  0  0  0
   34.3736   -3.3707   -7.8583 C   0  0  0  0  0  0  0  0  0  0  0  0
   38.6041   -4.2293   -8.8686 N   0  0  0  0  0  0  0  0  0  0  0  0
   39.6622   -3.1998   -9.0041 C   0  0  1  0  0  0  0  0  0  0  0  0
   40.6669   -3.7439   -9.9664 C   0  0  0  0  0  0  0  0  0  0  0  0
   41.9742   -3.9810   -9.3487 C   0  0  0  0  0  0  0  0  0  0  0  0
   42.1656   -3.7471   -8.1355 O   0  0  0  0  0  0  0  0  0  0  0  0
   38.9677   -2.0163   -9.5900 C   0  0  0  0  0  0  0  0  0  0  0  0
   39.3784   -0.7326   -9.3637 O   0  0  0  0  0  0  0  0  0  0  0  0
   43.0574   -4.4760  -10.0841 O   0  0  0  0  0  0  0  0  0  0  0  0
   37.9515   -2.1603  -10.3330 O   0  0  0  0  0  0  0  0  0  0  0  0
  2  1  1  0
  3  2  1  0
  3  5  1  0
  3  4  1  6
  5 14  1  0
  5  6  2  0
  8  7  1  0
  8 18  2  0
  9  8  1  0
 10  9  2  0
 10 11  1  0
 11 17  2  0
 12 11  1  0
 13 12  1  1
 14 13  1  0
 15 13  1  0
 15 16  2  0
 17 18  1  0
 19 15  1  0
 20 19  1  0
 20 21  1  6
 22 21  1  0
 22 26  1  0
 23 22  2  0
 24 20  1  0
 25 24  1  0
 27 24  2  0
M  END
$$$$
