SYD.pdb
     RDKit          3D

 27 27  0  0  1  0  0  0  0  0999 V2000
   20.0741  -14.5236  -20.5637 O   0  0  0  0  0  0  0  0  0  0  0  0
   19.8336  -13.7407  -19.4198 C   0  0  0  0  0  0  0  0  0  0  0  0
   21.0720  -13.6687  -18.5496 C   0  0  2  0  0  0  0  0  0  0  0  0
   21.3828  -14.9636  -18.0209 N   0  0  0  0  0  0  0  0  0  0  0  0
   20.9250  -12.7101  -17.4470 C   0  0  0  0  0  0  0  0  0  0  0  0
   20.0672  -12.8779  -16.5508 O   0  0  0  0  0  0  0  0  0  0  0  0
   22.3275   -5.3146  -12.5784 O   0  0  0  0  0  0  0  0  0  0  0  0
   22.4354   -6.4438  -13.3839 C   0  0  0  0  0  0  0  0  0  0  0  0
   22.2537   -7.7203  -12.8836 C   0  0  0  0  0  0  0  0  0  0  0  0
   22.3672   -8.8203  -13.7069 C   0  0  0  0  0  0  0  0  0  0  0  0
   22.6633   -8.7222  -15.0555 C   0  0  0  0  0  0  0  0  0  0  0  0
   22.7823   -9.9344  -15.8913 C   0  0  0  0  0  0  0  0  0  0  0  0
   21.4870  -10.4982  -16.3636 C   0  0  2  0  0  0  0  0  0  0  0  0
   21.7507  -11.5353  -17.3354 N   0  0  0  0  0  0  0  0  0  0  0  0
   20.5373   -9.4871  -16.8585 C   0  0  0  0  0  0  0  0  0  0  0  0
   20.7367   -9.0136  -18.0096 O   0  0  0  0  0  0  0  0  0  0  0  0
   22.8429   -7.4302  -15.5417 C   0  0  0  0  0  0  0  0  0  0  0  0
   22.7311   -6.3246  -14.7246 C   0  0  0  0  0  0  0  0  0  0  0  0
   19.4301   -9.0144  -16.1429 N   0  0  0  0  0  0  0  0  0  0  0  0
   18.5336   -7.9831  -16.7179 C   0  0  1  0  0  0  0  0  0  0  0  0
   17.2068   -8.1512  -16.0523 C   0  0  0  0  0  0  0  0  0  0  0  0
   16.0834   -7.8291  -16.9360 C   0  0  0  0  0  0  0  0  0  0  0  0
   16.2771   -7.4232  -18.1027 O   0  0  0  0  0  0  0  0  0  0  0  0
   19.1512   -6.6823  -16.3270 C   0  0  0  0  0  0  0  0  0  0  0  0
   19.3924   -5.6803  -17.2246 O   0  0  0  0  0  0  0  0  0  0  0  0
   14.7547   -7.9609  -16.5162 O   0  0  0  0  0  0  0  0  0  0  0  0
   19.4819   -6.4544  -15.1253 O   0  0  0  0  0  0  0  0  0  0  0  0
  2  1  1  0
  3  2  1  0
  3  5  1  0
  3  4  1  1
  5 14  1  0
  5  6  2  0
  8  7  1  0
  8 18  2  0
  9  8  1  0
 10  9  2  0
 10 11  1  0
 11 17  2  0
 12 11  1  0
 13 12  1  6
 14 13  1  0
 15 13  1  0
 15 16  2  0
 17 18  1  0
 19 15  1  0
 20 19  1  0
 20 21  1  1
 22 21  1  0
 22 26  1  0
 23 22  2  0
 24 20  1  0
 25 24  1  0
 27 24  2  0
M  END
$$$$
