SYD.pdb
     RDKit          3D

 27 27  0  0  1  0  0  0  0  0999 V2000
   44.0939   -9.8970   -4.3217 O   0  0  0  0  0  0  0  0  0  0  0  0
   45.4312  -10.2078   -4.6288 C   0  0  0  0  0  0  0  0  0  0  0  0
   45.5090  -11.4621   -5.4754 C   0  0  2  0  0  0  0  0  0  0  0  0
   46.8765  -11.7982   -5.7398 N   0  0  0  0  0  0  0  0  0  0  0  0
   44.7824  -11.3256   -6.7442 C   0  0  0  0  0  0  0  0  0  0  0  0
   45.3536  -10.9112   -7.7782 O   0  0  0  0  0  0  0  0  0  0  0  0
   43.7563  -17.2504  -10.9267 O   0  0  0  0  0  0  0  0  0  0  0  0
   43.2532  -16.1285  -10.2758 C   0  0  0  0  0  0  0  0  0  0  0  0
   42.7969  -15.0226  -10.9698 C   0  0  0  0  0  0  0  0  0  0  0  0
   42.3038  -13.9251  -10.2967 C   0  0  0  0  0  0  0  0  0  0  0  0
   42.2345  -13.8593   -8.9157 C   0  0  0  0  0  0  0  0  0  0  0  0
   41.7050  -12.6547   -8.2441 C   0  0  0  0  0  0  0  0  0  0  0  0
   42.6740  -11.5303   -8.1207 C   0  0  2  0  0  0  0  0  0  0  0  0
   43.3865  -11.6572   -6.8693 N   0  0  0  0  0  0  0  0  0  0  0  0
   42.0723  -10.1976   -8.2967 C   0  0  0  0  0  0  0  0  0  0  0  0
   41.1473   -9.8663   -7.5069 O   0  0  0  0  0  0  0  0  0  0  0  0
   42.6979  -14.9808   -8.2339 C   0  0  0  0  0  0  0  0  0  0  0  0
   43.1928  -16.0827   -8.8999 C   0  0  0  0  0  0  0  0  0  0  0  0
   42.4534   -9.2731   -9.2773 N   0  0  0  0  0  0  0  0  0  0  0  0
   41.7618   -7.9680   -9.4054 C   0  0  1  0  0  0  0  0  0  0  0  0
   42.7897   -6.9134   -9.1543 C   0  0  0  0  0  0  0  0  0  0  0  0
   43.1341   -6.7824   -7.7362 C   0  0  0  0  0  0  0  0  0  0  0  0
   42.2517   -6.5725   -6.8756 O   0  0  0  0  0  0  0  0  0  0  0  0
   41.3019   -7.9196  -10.8240 C   0  0  0  0  0  0  0  0  0  0  0  0
   40.6483   -6.8416  -11.3517 O   0  0  0  0  0  0  0  0  0  0  0  0
   44.4555   -6.8857   -7.2866 O   0  0  0  0  0  0  0  0  0  0  0  0
   41.5036   -8.8952  -11.6069 O   0  0  0  0  0  0  0  0  0  0  0  0
  2  1  1  0
  3  2  1  0
  3  5  1  0
  3  4  1  6
  5 14  1  0
  5  6  2  0
  8  7  1  0
  8 18  2  0
  9  8  1  0
 10  9  2  0
 10 11  1  0
 11 17  2  0
 12 11  1  0
 13 12  1  1
 14 13  1  0
 15 13  1  0
 15 16  2  0
 17 18  1  0
 19 15  1  0
 20 19  1  0
 20 21  1  6
 22 21  1  0
 22 26  1  0
 23 22  2  0
 24 20  1  0
 25 24  1  0
 27 24  2  0
M  END
$$$$
