SYD.pdb
     RDKit          3D

 27 27  0  0  1  0  0  0  0  0999 V2000
   23.6697  -10.8234  -20.3019 O   0  0  0  0  0  0  0  0  0  0  0  0
   22.6312  -10.2627  -19.5360 C   0  0  0  0  0  0  0  0  0  0  0  0
   23.1880   -9.5364  -18.3285 C   0  0  2  0  0  0  0  0  0  0  0  0
   23.7318  -10.4748  -17.3922 N   0  0  0  0  0  0  0  0  0  0  0  0
   22.1775   -8.7058  -17.6611 C   0  0  0  0  0  0  0  0  0  0  0  0
   21.1407   -8.3390  -18.2591 O   0  0  0  0  0  0  0  0  0  0  0  0
   16.8067  -12.0685  -15.8473 O   0  0  0  0  0  0  0  0  0  0  0  0
   17.7709  -11.1236  -15.5115 C   0  0  0  0  0  0  0  0  0  0  0  0
   17.5391   -9.7656  -15.6332 C   0  0  0  0  0  0  0  0  0  0  0  0
   18.5146   -8.8530  -15.2924 C   0  0  0  0  0  0  0  0  0  0  0  0
   19.7601   -9.2265  -14.8176 C   0  0  0  0  0  0  0  0  0  0  0  0
   20.7730   -8.2072  -14.4752 C   0  0  0  0  0  0  0  0  0  0  0  0
   21.3234   -7.4568  -15.6381 C   0  0  2  0  0  0  0  0  0  0  0  0
   22.3205   -8.2711  -16.2955 N   0  0  0  0  0  0  0  0  0  0  0  0
   21.8222   -6.1121  -15.3029 C   0  0  0  0  0  0  0  0  0  0  0  0
   22.8978   -6.0350  -14.6502 O   0  0  0  0  0  0  0  0  0  0  0  0
   19.9758  -10.5968  -14.7016 C   0  0  0  0  0  0  0  0  0  0  0  0
   19.0050  -11.5162  -15.0404 C   0  0  0  0  0  0  0  0  0  0  0  0
   21.1880   -4.9146  -15.6567 N   0  0  0  0  0  0  0  0  0  0  0  0
   21.7810   -3.6032  -15.3011 C   0  0  1  0  0  0  0  0  0  0  0  0
   21.8303   -2.8011  -16.5604 C   0  0  0  0  0  0  0  0  0  0  0  0
   22.2970   -1.4295  -16.3420 C   0  0  0  0  0  0  0  0  0  0  0  0
   22.7487   -1.0715  -15.2325 O   0  0  0  0  0  0  0  0  0  0  0  0
   20.8160   -2.9992  -14.3366 C   0  0  0  0  0  0  0  0  0  0  0  0
   21.2077   -2.1758  -13.3185 O   0  0  0  0  0  0  0  0  0  0  0  0
   22.2579   -0.4676  -17.3580 O   0  0  0  0  0  0  0  0  0  0  0  0
   19.5739   -3.2322  -14.4270 O   0  0  0  0  0  0  0  0  0  0  0  0
  2  1  1  0
  3  2  1  0
  3  5  1  0
  3  4  1  1
  5 14  1  0
  5  6  2  0
  8  7  1  0
  8 18  2  0
  9  8  1  0
 10  9  2  0
 10 11  1  0
 11 17  2  0
 12 11  1  0
 13 12  1  1
 14 13  1  0
 15 13  1  0
 15 16  2  0
 17 18  1  0
 19 15  1  0
 20 19  1  0
 20 21  1  6
 22 21  1  0
 22 26  1  0
 23 22  2  0
 24 20  1  0
 25 24  1  0
 27 24  2  0
M  END
$$$$
