SYD.pdb
     RDKit          3D

 27 27  0  0  1  0  0  0  0  0999 V2000
   26.7480   -9.7903  -16.0395 O   0  0  0  0  0  0  0  0  0  0  0  0
   25.5228   -9.2260  -16.4393 C   0  0  0  0  0  0  0  0  0  0  0  0
   24.3825  -10.1938  -16.1961 C   0  0  2  0  0  0  0  0  0  0  0  0
   24.5172  -11.3420  -17.0426 N   0  0  0  0  0  0  0  0  0  0  0  0
   23.0686   -9.5749  -16.4131 C   0  0  0  0  0  0  0  0  0  0  0  0
   22.5343   -9.5656  -17.5452 O   0  0  0  0  0  0  0  0  0  0  0  0
   17.9298  -14.0705  -16.4361 O   0  0  0  0  0  0  0  0  0  0  0  0
   18.4543  -12.8629  -15.9866 C   0  0  0  0  0  0  0  0  0  0  0  0
   19.3490  -12.7997  -14.9339 C   0  0  0  0  0  0  0  0  0  0  0  0
   19.8516  -11.5876  -14.5109 C   0  0  0  0  0  0  0  0  0  0  0  0
   19.5025  -10.3834  -15.0975 C   0  0  0  0  0  0  0  0  0  0  0  0
   20.0641   -9.1112  -14.5990 C   0  0  0  0  0  0  0  0  0  0  0  0
   20.9947   -8.4271  -15.5395 C   0  0  2  0  0  0  0  0  0  0  0  0
   22.3283   -8.9504  -15.3472 N   0  0  0  0  0  0  0  0  0  0  0  0
   20.9478   -6.9568  -15.4667 C   0  0  0  0  0  0  0  0  0  0  0  0
   21.5012   -6.4038  -14.4783 O   0  0  0  0  0  0  0  0  0  0  0  0
   18.6013  -10.4660  -16.1551 C   0  0  0  0  0  0  0  0  0  0  0  0
   18.0939  -11.6747  -16.5843 C   0  0  0  0  0  0  0  0  0  0  0  0
   20.3330   -6.1300  -16.4154 N   0  0  0  0  0  0  0  0  0  0  0  0
   20.2544   -4.6635  -16.2128 C   0  0  1  0  0  0  0  0  0  0  0  0
   20.2397   -4.0446  -17.5723 C   0  0  0  0  0  0  0  0  0  0  0  0
   20.1187   -2.5850  -17.5305 C   0  0  0  0  0  0  0  0  0  0  0  0
   20.1404   -1.9676  -16.4435 O   0  0  0  0  0  0  0  0  0  0  0  0
   18.9476   -4.4445  -15.5268 C   0  0  0  0  0  0  0  0  0  0  0  0
   18.7184   -3.3832  -14.6968 O   0  0  0  0  0  0  0  0  0  0  0  0
   19.9746   -1.8241  -18.6964 O   0  0  0  0  0  0  0  0  0  0  0  0
   17.9837   -5.2502  -15.6909 O   0  0  0  0  0  0  0  0  0  0  0  0
  2  1  1  0
  3  2  1  0
  3  5  1  0
  3  4  1  6
  5 14  1  0
  5  6  2  0
  8  7  1  0
  8 18  2  0
  9  8  1  0
 10  9  2  0
 10 11  1  0
 11 17  2  0
 12 11  1  0
 13 12  1  1
 14 13  1  0
 15 13  1  0
 15 16  2  0
 17 18  1  0
 19 15  1  0
 20 19  1  0
 20 21  1  6
 22 21  1  0
 22 26  1  0
 23 22  2  0
 24 20  1  0
 25 24  1  0
 27 24  2  0
M  END
$$$$
