SYD.pdb
     RDKit          3D

 27 27  0  0  1  0  0  0  0  0999 V2000
   26.7581  -19.3437  -17.7813 O   0  0  0  0  0  0  0  0  0  0  0  0
   28.1001  -19.7570  -17.6933 C   0  0  0  0  0  0  0  0  0  0  0  0
   28.1906  -21.1749  -17.1668 C   0  0  2  0  0  0  0  0  0  0  0  0
   27.8355  -22.1091  -18.1935 N   0  0  0  0  0  0  0  0  0  0  0  0
   27.3378  -21.3897  -15.9907 C   0  0  0  0  0  0  0  0  0  0  0  0
   26.3017  -22.0888  -16.0591 O   0  0  0  0  0  0  0  0  0  0  0  0
   24.3331  -20.4799   -7.6144 O   0  0  0  0  0  0  0  0  0  0  0  0
   25.1128  -20.5156   -8.7660 C   0  0  0  0  0  0  0  0  0  0  0  0
   24.5827  -20.8492   -9.9991 C   0  0  0  0  0  0  0  0  0  0  0  0
   25.3809  -20.8760  -11.1229 C   0  0  0  0  0  0  0  0  0  0  0  0
   26.7324  -20.5782  -11.0920 C   0  0  0  0  0  0  0  0  0  0  0  0
   27.5443  -20.6308  -12.3250 C   0  0  0  0  0  0  0  0  0  0  0  0
   26.7925  -21.0113  -13.5533 C   0  0  2  0  0  0  0  0  0  0  0  0
   27.6421  -20.8142  -14.7060 N   0  0  0  0  0  0  0  0  0  0  0  0
   25.4882  -20.3409  -13.6903 C   0  0  0  0  0  0  0  0  0  0  0  0
   25.4815  -19.1659  -14.1468 O   0  0  0  0  0  0  0  0  0  0  0  0
   27.2486  -20.2449   -9.8430 C   0  0  0  0  0  0  0  0  0  0  0  0
   26.4568  -20.2157   -8.7140 C   0  0  0  0  0  0  0  0  0  0  0  0
   24.2566  -20.9143  -13.3501 N   0  0  0  0  0  0  0  0  0  0  0  0
   22.9828  -20.2123  -13.6375 C   0  0  1  0  0  0  0  0  0  0  0  0
   22.7210  -20.3833  -15.0983 C   0  0  0  0  0  0  0  0  0  0  0  0
   22.4544  -19.1139  -15.7797 C   0  0  0  0  0  0  0  0  0  0  0  0
   22.5086  -18.0277  -15.1629 O   0  0  0  0  0  0  0  0  0  0  0  0
   21.9577  -20.9423  -12.8360 C   0  0  0  0  0  0  0  0  0  0  0  0
   20.9484  -20.3040  -12.1713 O   0  0  0  0  0  0  0  0  0  0  0  0
   22.1301  -19.0622  -17.1403 O   0  0  0  0  0  0  0  0  0  0  0  0
   21.9859  -22.2053  -12.7392 O   0  0  0  0  0  0  0  0  0  0  0  0
  2  1  1  0
  3  2  1  0
  3  5  1  0
  3  4  1  6
  5 14  1  0
  5  6  2  0
  8  7  1  0
  8 18  2  0
  9  8  1  0
 10  9  2  0
 10 11  1  0
 11 17  2  0
 12 11  1  0
 13 12  1  1
 14 13  1  0
 15 13  1  0
 15 16  2  0
 17 18  1  0
 19 15  1  0
 20 19  1  0
 20 21  1  6
 22 21  1  0
 22 26  1  0
 23 22  2  0
 24 20  1  0
 25 24  1  0
 27 24  2  0
M  END
$$$$
