SYD.pdb
     RDKit          3D

 27 27  0  0  1  0  0  0  0  0999 V2000
   27.8744  -21.3661  -19.9038 O   0  0  0  0  0  0  0  0  0  0  0  0
   28.1017  -20.5666  -18.7687 C   0  0  0  0  0  0  0  0  0  0  0  0
   28.8643  -21.3401  -17.7123 C   0  0  2  0  0  0  0  0  0  0  0  0
   29.3748  -22.5605  -18.2628 N   0  0  0  0  0  0  0  0  0  0  0  0
   28.0396  -21.6393  -16.5347 C   0  0  0  0  0  0  0  0  0  0  0  0
   27.4256  -22.7254  -16.4310 O   0  0  0  0  0  0  0  0  0  0  0  0
   24.0198  -20.6294   -8.5973 O   0  0  0  0  0  0  0  0  0  0  0  0
   24.8481  -20.5263   -9.7103 C   0  0  0  0  0  0  0  0  0  0  0  0
   26.0013  -21.2793   -9.8371 C   0  0  0  0  0  0  0  0  0  0  0  0
   26.8023  -21.1551  -10.9522 C   0  0  0  0  0  0  0  0  0  0  0  0
   26.5125  -20.2898  -11.9931 C   0  0  0  0  0  0  0  0  0  0  0  0
   27.4102  -20.1891  -13.1619 C   0  0  0  0  0  0  0  0  0  0  0  0
   26.9481  -20.9261  -14.3709 C   0  0  2  0  0  0  0  0  0  0  0  0
   27.8922  -20.7103  -15.4441 N   0  0  0  0  0  0  0  0  0  0  0  0
   25.5625  -20.6213  -14.7663 C   0  0  0  0  0  0  0  0  0  0  0  0
   25.3608  -19.5580  -15.4127 O   0  0  0  0  0  0  0  0  0  0  0  0
   25.3485  -19.5401  -11.8485 C   0  0  0  0  0  0  0  0  0  0  0  0
   24.5418  -19.6586  -10.7360 C   0  0  0  0  0  0  0  0  0  0  0  0
   24.4542  -21.4268  -14.4761 N   0  0  0  0  0  0  0  0  0  0  0  0
   23.0867  -21.0156  -14.8746 C   0  0  1  0  0  0  0  0  0  0  0  0
   22.6063  -22.0291  -15.8613 C   0  0  0  0  0  0  0  0  0  0  0  0
   21.2195  -21.8039  -16.2770 C   0  0  0  0  0  0  0  0  0  0  0  0
   20.6742  -20.6890  -16.1250 O   0  0  0  0  0  0  0  0  0  0  0  0
   22.2859  -21.0920  -13.6180 C   0  0  0  0  0  0  0  0  0  0  0  0
   21.2354  -20.2566  -13.3602 O   0  0  0  0  0  0  0  0  0  0  0  0
   20.4506  -22.8189  -16.8579 O   0  0  0  0  0  0  0  0  0  0  0  0
   22.5557  -21.9502  -12.7257 O   0  0  0  0  0  0  0  0  0  0  0  0
  2  1  1  0
  3  2  1  0
  3  5  1  0
  3  4  1  6
  5 14  1  0
  5  6  2  0
  8  7  1  0
  8 18  2  0
  9  8  1  0
 10  9  2  0
 10 11  1  0
 11 17  2  0
 12 11  1  0
 13 12  1  1
 14 13  1  0
 15 13  1  0
 15 16  2  0
 17 18  1  0
 19 15  1  0
 20 19  1  0
 20 21  1  6
 22 21  1  0
 22 26  1  0
 23 22  2  0
 24 20  1  0
 25 24  1  0
 27 24  2  0
M  END
$$$$
