SYD.pdb
     RDKit          3D

 27 27  0  0  1  0  0  0  0  0999 V2000
   27.8580  -19.3975  -18.7893 O   0  0  0  0  0  0  0  0  0  0  0  0
   27.0322  -20.0269  -17.8399 C   0  0  0  0  0  0  0  0  0  0  0  0
   27.8380  -20.4601  -16.6321 C   0  0  2  0  0  0  0  0  0  0  0  0
   28.7075  -21.5448  -16.9788 N   0  0  0  0  0  0  0  0  0  0  0  0
   26.9849  -20.8554  -15.5040 C   0  0  0  0  0  0  0  0  0  0  0  0
   26.6377  -22.0468  -15.3389 O   0  0  0  0  0  0  0  0  0  0  0  0
   31.0200  -22.0570  -10.2336 O   0  0  0  0  0  0  0  0  0  0  0  0
   29.8450  -21.4785  -10.7027 C   0  0  0  0  0  0  0  0  0  0  0  0
   28.5994  -21.9002  -10.2745 C   0  0  0  0  0  0  0  0  0  0  0  0
   27.4524  -21.3073  -10.7577 C   0  0  0  0  0  0  0  0  0  0  0  0
   27.4713  -20.2759  -11.6808 C   0  0  0  0  0  0  0  0  0  0  0  0
   26.2116  -19.6814  -12.1728 C   0  0  0  0  0  0  0  0  0  0  0  0
   25.6740  -20.2968  -13.4181 C   0  0  2  0  0  0  0  0  0  0  0  0
   26.5048  -19.9051  -14.5342 N   0  0  0  0  0  0  0  0  0  0  0  0
   24.2456  -20.0254  -13.6532 C   0  0  0  0  0  0  0  0  0  0  0  0
   23.9267  -18.8660  -14.0316 O   0  0  0  0  0  0  0  0  0  0  0  0
   28.7332  -19.8645  -12.1005 C   0  0  0  0  0  0  0  0  0  0  0  0
   29.8854  -20.4526  -11.6219 C   0  0  0  0  0  0  0  0  0  0  0  0
   23.2174  -20.9616  -13.4866 N   0  0  0  0  0  0  0  0  0  0  0  0
   21.7992  -20.5824  -13.6940 C   0  0  1  0  0  0  0  0  0  0  0  0
   21.2136  -21.6049  -14.6122 C   0  0  0  0  0  0  0  0  0  0  0  0
   19.7699  -21.4393  -14.7996 C   0  0  0  0  0  0  0  0  0  0  0  0
   18.9680  -22.3323  -14.4492 O   0  0  0  0  0  0  0  0  0  0  0  0
   21.1780  -20.6810  -12.3410 C   0  0  0  0  0  0  0  0  0  0  0  0
   20.0184  -20.0367  -12.0124 O   0  0  0  0  0  0  0  0  0  0  0  0
   19.2296  -20.2831  -15.3745 O   0  0  0  0  0  0  0  0  0  0  0  0
   21.7132  -21.3786  -11.4287 O   0  0  0  0  0  0  0  0  0  0  0  0
  2  1  1  0
  3  2  1  0
  3  5  1  0
  3  4  1  6
  5 14  1  0
  5  6  2  0
  8  7  1  0
  8 18  2  0
  9  8  1  0
 10  9  2  0
 10 11  1  0
 11 17  2  0
 12 11  1  0
 13 12  1  1
 14 13  1  0
 15 13  1  0
 15 16  2  0
 17 18  1  0
 19 15  1  0
 20 19  1  0
 20 21  1  6
 22 21  1  0
 22 26  1  0
 23 22  2  0
 24 20  1  0
 25 24  1  0
 27 24  2  0
M  END
$$$$
