SYD.pdb
     RDKit          3D

 27 27  0  0  1  0  0  0  0  0999 V2000
   22.0357  -10.9187  -19.5943 O   0  0  0  0  0  0  0  0  0  0  0  0
   21.2744  -10.1588  -18.6874 C   0  0  0  0  0  0  0  0  0  0  0  0
   21.4947  -10.6402  -17.2677 C   0  0  2  0  0  0  0  0  0  0  0  0
   21.0275  -11.9869  -17.1223 N   0  0  0  0  0  0  0  0  0  0  0  0
   20.8332   -9.7810  -16.2774 C   0  0  0  0  0  0  0  0  0  0  0  0
   19.6235   -9.9312  -15.9925 O   0  0  0  0  0  0  0  0  0  0  0  0
   19.2875   -4.8289   -9.1538 O   0  0  0  0  0  0  0  0  0  0  0  0
   19.8837   -5.5306  -10.1966 C   0  0  0  0  0  0  0  0  0  0  0  0
   20.5736   -4.8904  -11.2099 C   0  0  0  0  0  0  0  0  0  0  0  0
   21.1539   -5.6132  -12.2304 C   0  0  0  0  0  0  0  0  0  0  0  0
   21.0860   -6.9938  -12.3063 C   0  0  0  0  0  0  0  0  0  0  0  0
   21.7185   -7.7191  -13.4271 C   0  0  0  0  0  0  0  0  0  0  0  0
   20.8690   -7.8551  -14.6430 C   0  0  2  0  0  0  0  0  0  0  0  0
   21.5313   -8.7283  -15.5856 N   0  0  0  0  0  0  0  0  0  0  0  0
   20.4718   -6.5705  -15.2443 C   0  0  0  0  0  0  0  0  0  0  0  0
   21.3481   -5.9317  -15.8869 O   0  0  0  0  0  0  0  0  0  0  0  0
   20.3880   -7.6212  -11.2784 C   0  0  0  0  0  0  0  0  0  0  0  0
   19.8046   -6.9052  -10.2539 C   0  0  0  0  0  0  0  0  0  0  0  0
   19.1922   -6.0085  -15.1532 N   0  0  0  0  0  0  0  0  0  0  0  0
   18.8810   -4.7111  -15.7995 C   0  0  1  0  0  0  0  0  0  0  0  0
   17.4833   -4.8156  -16.3161 C   0  0  0  0  0  0  0  0  0  0  0  0
   17.0101   -3.5718  -16.9294 C   0  0  0  0  0  0  0  0  0  0  0  0
   17.7367   -2.5550  -16.9672 O   0  0  0  0  0  0  0  0  0  0  0  0
   18.9546   -3.7098  -14.6957 C   0  0  0  0  0  0  0  0  0  0  0  0
   18.7700   -4.0431  -13.3832 O   0  0  0  0  0  0  0  0  0  0  0  0
   15.7341   -3.4685  -17.4952 O   0  0  0  0  0  0  0  0  0  0  0  0
   19.1949   -2.4898  -14.9390 O   0  0  0  0  0  0  0  0  0  0  0  0
  2  1  1  0
  3  2  1  0
  3  5  1  0
  3  4  1  6
  5 14  1  0
  5  6  2  0
  8  7  1  0
  8 18  2  0
  9  8  1  0
 10  9  2  0
 10 11  1  0
 11 17  2  0
 12 11  1  0
 13 12  1  1
 14 13  1  0
 15 13  1  0
 15 16  2  0
 17 18  1  0
 19 15  1  0
 20 19  1  0
 20 21  1  1
 22 21  1  0
 22 26  1  0
 23 22  2  0
 24 20  1  0
 25 24  1  0
 27 24  2  0
M  END
$$$$
