FNG.pdb
     RDKit          3D

 24 24  0  0  1  0  0  0  0  0999 V2000
    6.5865  -16.2643   25.9210 N   0  0  0  0  0  0  0  0  0  0  0  0
    7.0917  -15.4763   24.8393 C   0  0  1  0  0  0  0  0  0  0  0  0
    7.9734  -14.3398   25.2687 C   0  0  0  0  0  0  0  0  0  0  0  0
    7.2928  -13.3492   26.1217 C   0  0  0  0  0  0  0  0  0  0  0  0
    6.0798  -12.8003   25.8414 C   0  0  0  0  0  0  0  0  0  0  0  0
    5.5161  -11.8905   26.6789 C   0  0  0  0  0  0  0  0  0  0  0  0
    6.1324  -11.4785   27.8425 C   0  0  0  0  0  0  0  0  0  0  0  0
    7.3599  -12.0320   28.1290 C   0  0  0  0  0  0  0  0  0  0  0  0
    7.9430  -12.9546   27.2901 C   0  0  0  0  0  0  0  0  0  0  0  0
    7.8339  -16.3589   23.9004 C   0  0  0  0  0  0  0  0  0  0  0  0
    7.9894  -17.5880   24.1182 O   0  0  0  0  0  0  0  0  0  0  0  0
    7.3234  -14.2415   19.9036 N   0  0  0  0  0  0  0  0  0  0  0  0
    7.5159  -15.6349   20.0969 C   0  0  0  0  0  0  0  0  0  0  0  0
    6.5069  -16.3774   20.0827 O   0  0  0  0  0  0  0  0  0  0  0  0
    8.8806  -16.1806   20.3084 C   0  0  0  0  0  0  0  0  0  0  0  0
    9.0608  -16.6887   21.7199 C   0  0  2  0  0  0  0  0  0  0  0  0
    8.4139  -15.8570   22.6934 N   0  0  0  0  0  0  0  0  0  0  0  0
   10.4644  -17.0058   22.0503 C   0  0  0  0  0  0  0  0  0  0  0  0
   11.1374  -17.8756   21.4576 O   0  0  0  0  0  0  0  0  0  0  0  0
   11.0787  -16.2757   23.1039 N   0  0  0  0  0  0  0  0  0  0  0  0
   12.3944  -16.5838   23.6044 C   0  0  0  0  0  0  0  0  0  0  0  0
   13.3993  -15.9734   22.6991 C   0  0  0  0  0  0  0  0  0  0  0  0
   14.7411  -15.9865   23.0395 O   0  0  0  0  0  0  0  0  0  0  0  0
   13.0650  -15.4392   21.6208 O   0  0  0  0  0  0  0  0  0  0  0  0
  2  1  1  1
  2 10  1  0
  3  2  1  0
  4  9  2  0
  4  3  1  0
  5  4  1  0
  6  7  1  0
  6  5  2  0
  7  8  2  0
  8  9  1  0
 10 11  2  0
 13 12  1  0
 13 15  1  0
 14 13  2  0
 16 15  1  6
 16 18  1  0
 17 10  1  0
 17 16  1  0
 18 20  1  0
 19 18  2  0
 20 21  1  0
 22 23  1  0
 22 21  1  0
 24 22  2  0
M  END
$$$$
