FNG.pdb
     RDKit          3D

 24 24  0  0  1  0  0  0  0  0999 V2000
    5.8413  -17.0481   23.7317 N   0  0  0  0  0  0  0  0  0  0  0  0
    6.9327  -16.2951   24.2687 C   0  0  1  0  0  0  0  0  0  0  0  0
    6.6687  -15.7189   25.6295 C   0  0  0  0  0  0  0  0  0  0  0  0
    6.7402  -14.2477   25.6759 C   0  0  0  0  0  0  0  0  0  0  0  0
    7.1962  -13.4695   24.6571 C   0  0  0  0  0  0  0  0  0  0  0  0
    7.2322  -12.1162   24.7760 C   0  0  0  0  0  0  0  0  0  0  0  0
    6.8150  -11.4650   25.9185 C   0  0  0  0  0  0  0  0  0  0  0  0
    6.3531  -12.2495   26.9512 C   0  0  0  0  0  0  0  0  0  0  0  0
    6.3108  -13.6213   26.8451 C   0  0  0  0  0  0  0  0  0  0  0  0
    8.1420  -17.1591   24.3166 C   0  0  0  0  0  0  0  0  0  0  0  0
    8.1175  -18.3190   24.8025 O   0  0  0  0  0  0  0  0  0  0  0  0
   10.9577  -15.4985   21.2974 N   0  0  0  0  0  0  0  0  0  0  0  0
   11.7990  -16.1388   22.2451 C   0  0  0  0  0  0  0  0  0  0  0  0
   12.8163  -15.5240   22.6412 O   0  0  0  0  0  0  0  0  0  0  0  0
   11.4686  -17.4982   22.7428 C   0  0  0  0  0  0  0  0  0  0  0  0
   10.6298  -17.4391   23.9982 C   0  0  2  0  0  0  0  0  0  0  0  0
    9.4045  -16.7170   23.8107 N   0  0  0  0  0  0  0  0  0  0  0  0
   11.3922  -17.0137   25.1889 C   0  0  0  0  0  0  0  0  0  0  0  0
   11.8760  -15.8707   25.3312 O   0  0  0  0  0  0  0  0  0  0  0  0
   11.5823  -17.9640   26.2288 N   0  0  0  0  0  0  0  0  0  0  0  0
   11.3213  -17.6682   27.6147 C   0  0  0  0  0  0  0  0  0  0  0  0
   11.5559  -18.8971   28.4126 C   0  0  0  0  0  0  0  0  0  0  0  0
   12.6495  -18.9799   29.2574 O   0  0  0  0  0  0  0  0  0  0  0  0
   10.7828  -19.8757   28.3438 O   0  0  0  0  0  0  0  0  0  0  0  0
  2  1  1  1
  2 10  1  0
  3  2  1  0
  4  9  2  0
  4  3  1  0
  5  4  1  0
  6  7  1  0
  6  5  2  0
  7  8  2  0
  8  9  1  0
 10 11  2  0
 13 12  1  0
 13 15  1  0
 14 13  2  0
 16 15  1  6
 16 18  1  0
 17 10  1  0
 17 16  1  0
 18 20  1  0
 19 18  2  0
 20 21  1  0
 22 23  1  0
 22 21  1  0
 24 22  2  0
M  END
$$$$
