FNG.pdb
     RDKit          3D

 24 24  0  0  1  0  0  0  0  0999 V2000
    8.7823  -17.0098   20.1299 N   0  0  0  0  0  0  0  0  0  0  0  0
    9.7308  -16.3752   20.9923 C   0  0  1  0  0  0  0  0  0  0  0  0
    9.1604  -15.2533   21.8105 C   0  0  0  0  0  0  0  0  0  0  0  0
    8.4890  -14.2149   21.0087 C   0  0  0  0  0  0  0  0  0  0  0  0
    9.1329  -13.1899   20.3873 C   0  0  0  0  0  0  0  0  0  0  0  0
    8.4425  -12.2690   19.6646 C   0  0  0  0  0  0  0  0  0  0  0  0
    7.0711  -12.3205   19.5225 C   0  0  0  0  0  0  0  0  0  0  0  0
    6.4166  -13.3564   20.1501 C   0  0  0  0  0  0  0  0  0  0  0  0
    7.1027  -14.2965   20.8852 C   0  0  0  0  0  0  0  0  0  0  0  0
   10.3295  -17.3969   21.8917 C   0  0  0  0  0  0  0  0  0  0  0  0
    9.7291  -18.4616   22.1889 O   0  0  0  0  0  0  0  0  0  0  0  0
   14.7517  -20.4105   21.1376 N   0  0  0  0  0  0  0  0  0  0  0  0
   13.4320  -20.4156   21.6616 C   0  0  0  0  0  0  0  0  0  0  0  0
   13.0588  -21.4204   22.3103 O   0  0  0  0  0  0  0  0  0  0  0  0
   12.5326  -19.2554   21.4385 C   0  0  0  0  0  0  0  0  0  0  0  0
   12.5848  -18.2844   22.5950 C   0  0  2  0  0  0  0  0  0  0  0  0
   11.6258  -17.2247   22.4705 N   0  0  0  0  0  0  0  0  0  0  0  0
   13.9508  -17.8145   22.9003 C   0  0  0  0  0  0  0  0  0  0  0  0
   14.8873  -18.5720   23.2317 O   0  0  0  0  0  0  0  0  0  0  0  0
   14.2077  -16.4194   22.8095 N   0  0  0  0  0  0  0  0  0  0  0  0
   14.7602  -15.6543   23.8985 C   0  0  0  0  0  0  0  0  0  0  0  0
   16.2055  -15.9706   24.0128 C   0  0  0  0  0  0  0  0  0  0  0  0
   17.0859  -15.0289   24.5174 O   0  0  0  0  0  0  0  0  0  0  0  0
   16.6591  -17.0801   23.6616 O   0  0  0  0  0  0  0  0  0  0  0  0
  2  1  1  1
  2 10  1  0
  3  2  1  0
  4  9  2  0
  4  3  1  0
  5  4  1  0
  6  7  1  0
  6  5  2  0
  7  8  2  0
  8  9  1  0
 10 11  2  0
 13 12  1  0
 13 15  1  0
 14 13  2  0
 16 15  1  6
 16 18  1  0
 17 10  1  0
 17 16  1  0
 18 20  1  0
 19 18  2  0
 20 21  1  0
 22 23  1  0
 22 21  1  0
 24 22  2  0
M  END
$$$$
