FNG.pdb
     RDKit          3D

 24 24  0  0  1  0  0  0  0  0999 V2000
   10.8170  -15.5307   19.0720 N   0  0  0  0  0  0  0  0  0  0  0  0
   10.4528  -15.9864   20.3782 C   0  0  1  0  0  0  0  0  0  0  0  0
    8.9716  -16.0607   20.6103 C   0  0  0  0  0  0  0  0  0  0  0  0
    8.2805  -14.7681   20.4564 C   0  0  0  0  0  0  0  0  0  0  0  0
    8.1456  -13.8476   21.4491 C   0  0  0  0  0  0  0  0  0  0  0  0
    7.4925  -12.6762   21.2295 C   0  0  0  0  0  0  0  0  0  0  0  0
    6.9380  -12.3592   20.0066 C   0  0  0  0  0  0  0  0  0  0  0  0
    7.0728  -13.2886   18.9999 C   0  0  0  0  0  0  0  0  0  0  0  0
    7.7317  -14.4792   19.2077 C   0  0  0  0  0  0  0  0  0  0  0  0
   11.0646  -17.3208   20.6154 C   0  0  0  0  0  0  0  0  0  0  0  0
   10.8086  -18.0020   21.6414 O   0  0  0  0  0  0  0  0  0  0  0  0
   12.3232  -19.1030   16.3542 N   0  0  0  0  0  0  0  0  0  0  0  0
   12.1078  -19.7882   17.5789 C   0  0  0  0  0  0  0  0  0  0  0  0
   11.0191  -20.3881   17.7357 O   0  0  0  0  0  0  0  0  0  0  0  0
   13.1530  -19.7843   18.6336 C   0  0  0  0  0  0  0  0  0  0  0  0
   12.6475  -19.1559   19.9114 C   0  0  2  0  0  0  0  0  0  0  0  0
   11.9811  -17.9056   19.6863 N   0  0  0  0  0  0  0  0  0  0  0  0
   13.6681  -19.1000   20.9767 C   0  0  0  0  0  0  0  0  0  0  0  0
   14.6375  -18.3119   20.9685 O   0  0  0  0  0  0  0  0  0  0  0  0
   13.5336  -19.9968   22.0714 N   0  0  0  0  0  0  0  0  0  0  0  0
   14.3953  -19.9555   23.2256 C   0  0  0  0  0  0  0  0  0  0  0  0
   13.9496  -20.9956   24.1857 C   0  0  0  0  0  0  0  0  0  0  0  0
   12.7863  -21.7079   23.9492 O   0  0  0  0  0  0  0  0  0  0  0  0
   14.6039  -21.2520   25.2181 O   0  0  0  0  0  0  0  0  0  0  0  0
  2  1  1  6
  2 10  1  0
  3  2  1  0
  4  9  2  0
  4  3  1  0
  5  4  1  0
  6  7  1  0
  6  5  2  0
  7  8  2  0
  8  9  1  0
 10 11  2  0
 13 12  1  0
 13 15  1  0
 14 13  2  0
 16 15  1  6
 16 18  1  0
 17 10  1  0
 17 16  1  0
 18 20  1  0
 19 18  2  0
 20 21  1  0
 22 23  1  0
 22 21  1  0
 24 22  2  0
M  END
$$$$
