FNG.pdb
     RDKit          3D

 24 24  0  0  1  0  0  0  0  0999 V2000
    7.7643  -15.9342   25.3567 N   0  0  0  0  0  0  0  0  0  0  0  0
    7.0940  -15.5584   24.1502 C   0  0  1  0  0  0  0  0  0  0  0  0
    6.4488  -14.2040   24.2041 C   0  0  0  0  0  0  0  0  0  0  0  0
    6.7246  -13.4636   25.4481 C   0  0  0  0  0  0  0  0  0  0  0  0
    5.8155  -13.2672   26.4413 C   0  0  0  0  0  0  0  0  0  0  0  0
    6.1458  -12.5713   27.5609 C   0  0  0  0  0  0  0  0  0  0  0  0
    7.4018  -12.0331   27.7508 C   0  0  0  0  0  0  0  0  0  0  0  0
    8.3240  -12.2300   26.7477 C   0  0  0  0  0  0  0  0  0  0  0  0
    8.0038  -12.9327   25.6082 C   0  0  0  0  0  0  0  0  0  0  0  0
    8.0610  -15.6080   23.0215 C   0  0  0  0  0  0  0  0  0  0  0  0
    8.7395  -16.6358   22.7658 O   0  0  0  0  0  0  0  0  0  0  0  0
    8.9488  -12.6598   17.8476 N   0  0  0  0  0  0  0  0  0  0  0  0
    8.1959  -13.6759   18.4931 C   0  0  0  0  0  0  0  0  0  0  0  0
    7.8365  -14.6654   17.8138 O   0  0  0  0  0  0  0  0  0  0  0  0
    7.8527  -13.5543   19.9326 C   0  0  0  0  0  0  0  0  0  0  0  0
    8.5575  -14.6039   20.7601 C   0  0  2  0  0  0  0  0  0  0  0  0
    8.2734  -14.4855   22.1613 N   0  0  0  0  0  0  0  0  0  0  0  0
    9.9977  -14.7163   20.4549 C   0  0  0  0  0  0  0  0  0  0  0  0
   10.4580  -14.7860   19.2956 O   0  0  0  0  0  0  0  0  0  0  0  0
   10.9065  -14.7461   21.5475 N   0  0  0  0  0  0  0  0  0  0  0  0
   12.3346  -14.6550   21.3784 C   0  0  0  0  0  0  0  0  0  0  0  0
   12.9253  -15.9953   21.6166 C   0  0  0  0  0  0  0  0  0  0  0  0
   14.2393  -16.1119   22.0363 O   0  0  0  0  0  0  0  0  0  0  0  0
   12.2608  -17.0392   21.4469 O   0  0  0  0  0  0  0  0  0  0  0  0
  2  1  1  1
  2 10  1  0
  3  2  1  0
  4  9  2  0
  4  3  1  0
  5  4  1  0
  6  7  1  0
  6  5  2  0
  7  8  2  0
  8  9  1  0
 10 11  2  0
 13 12  1  0
 13 15  1  0
 14 13  2  0
 16 15  1  6
 16 18  1  0
 17 10  1  0
 17 16  1  0
 18 20  1  0
 19 18  2  0
 20 21  1  0
 22 23  1  0
 22 21  1  0
 24 22  2  0
M  END
$$$$
