FNG.pdb
     RDKit          3D

 24 24  0  0  1  0  0  0  0  0999 V2000
    8.8741  -14.7917   24.6768 N   0  0  0  0  0  0  0  0  0  0  0  0
    7.6538  -15.0529   23.9776 C   0  0  1  0  0  0  0  0  0  0  0  0
    6.6493  -13.9405   24.0618 C   0  0  0  0  0  0  0  0  0  0  0  0
    6.6678  -13.2191   25.3467 C   0  0  0  0  0  0  0  0  0  0  0  0
    6.0160  -13.6319   26.4674 C   0  0  0  0  0  0  0  0  0  0  0  0
    6.0806  -12.9102   27.6172 C   0  0  0  0  0  0  0  0  0  0  0  0
    6.7996  -11.7365   27.7115 C   0  0  0  0  0  0  0  0  0  0  0  0
    7.4604  -11.3160   26.5792 C   0  0  0  0  0  0  0  0  0  0  0  0
    7.4040  -12.0367   25.4077 C   0  0  0  0  0  0  0  0  0  0  0  0
    7.9628  -15.3420   22.5521 C   0  0  0  0  0  0  0  0  0  0  0  0
    7.1308  -15.8906   21.7845 O   0  0  0  0  0  0  0  0  0  0  0  0
    7.8515  -12.4289   19.4075 N   0  0  0  0  0  0  0  0  0  0  0  0
    8.2986  -13.7678   19.2540 C   0  0  0  0  0  0  0  0  0  0  0  0
    7.5187  -14.5931   18.7246 O   0  0  0  0  0  0  0  0  0  0  0  0
    9.6546  -14.1623   19.7127 C   0  0  0  0  0  0  0  0  0  0  0  0
    9.6009  -15.3599   20.6325 C   0  0  2  0  0  0  0  0  0  0  0  0
    9.2277  -15.0108   21.9730 N   0  0  0  0  0  0  0  0  0  0  0  0
   10.8066  -16.2086   20.5551 C   0  0  0  0  0  0  0  0  0  0  0  0
   11.2357  -16.7095   19.4941 O   0  0  0  0  0  0  0  0  0  0  0  0
   11.5147  -16.4659   21.7605 N   0  0  0  0  0  0  0  0  0  0  0  0
   12.6266  -17.3796   21.8335 C   0  0  0  0  0  0  0  0  0  0  0  0
   13.8053  -16.6484   22.3609 C   0  0  0  0  0  0  0  0  0  0  0  0
   15.0493  -16.8221   21.7788 O   0  0  0  0  0  0  0  0  0  0  0  0
   13.7068  -15.8677   23.3308 O   0  0  0  0  0  0  0  0  0  0  0  0
  2  1  1  1
  2 10  1  0
  3  2  1  0
  4  9  2  0
  4  3  1  0
  5  4  1  0
  6  7  1  0
  6  5  2  0
  7  8  2  0
  8  9  1  0
 10 11  2  0
 13 12  1  0
 13 15  1  0
 14 13  2  0
 16 15  1  6
 16 18  1  0
 17 10  1  0
 17 16  1  0
 18 20  1  0
 19 18  2  0
 20 21  1  0
 22 23  1  0
 22 21  1  0
 24 22  2  0
M  END
$$$$
