FNG.pdb
     RDKit          3D

 24 24  0  0  1  0  0  0  0  0999 V2000
    8.8134  -15.2713   25.6373 N   0  0  0  0  0  0  0  0  0  0  0  0
    7.6027  -15.7752   25.0656 C   0  0  1  0  0  0  0  0  0  0  0  0
    6.3943  -14.9300   25.3466 C   0  0  0  0  0  0  0  0  0  0  0  0
    6.6951  -13.6895   26.0831 C   0  0  0  0  0  0  0  0  0  0  0  0
    7.8946  -13.4136   26.6631 C   0  0  0  0  0  0  0  0  0  0  0  0
    8.0953  -12.2451   27.3273 C   0  0  0  0  0  0  0  0  0  0  0  0
    7.1097  -11.2875   27.4491 C   0  0  0  0  0  0  0  0  0  0  0  0
    5.8948  -11.5635   26.8633 C   0  0  0  0  0  0  0  0  0  0  0  0
    5.6770  -12.7428   26.1874 C   0  0  0  0  0  0  0  0  0  0  0  0
    7.7824  -15.9197   23.5966 C   0  0  0  0  0  0  0  0  0  0  0  0
    6.9038  -16.4407   22.8625 O   0  0  0  0  0  0  0  0  0  0  0  0
    7.4575  -12.7865   20.5901 N   0  0  0  0  0  0  0  0  0  0  0  0
    7.7944  -14.1609   20.4732 C   0  0  0  0  0  0  0  0  0  0  0  0
    6.8762  -14.9736   20.2165 O   0  0  0  0  0  0  0  0  0  0  0  0
    9.1996  -14.6058   20.6529 C   0  0  0  0  0  0  0  0  0  0  0  0
    9.2884  -15.7995   21.5752 C   0  0  2  0  0  0  0  0  0  0  0  0
    8.9686  -15.4723   22.9348 N   0  0  0  0  0  0  0  0  0  0  0  0
   10.5473  -16.5569   21.4283 C   0  0  0  0  0  0  0  0  0  0  0  0
   11.0255  -16.9013   20.3267 O   0  0  0  0  0  0  0  0  0  0  0  0
   11.2501  -16.9106   22.6121 N   0  0  0  0  0  0  0  0  0  0  0  0
   12.4198  -17.7521   22.6043 C   0  0  0  0  0  0  0  0  0  0  0  0
   13.6250  -16.8864   22.6175 C   0  0  0  0  0  0  0  0  0  0  0  0
   14.8741  -17.4364   22.8493 O   0  0  0  0  0  0  0  0  0  0  0  0
   13.5446  -15.6555   22.4221 O   0  0  0  0  0  0  0  0  0  0  0  0
  2  1  1  6
  2 10  1  0
  3  2  1  0
  4  9  2  0
  4  3  1  0
  5  4  1  0
  6  7  1  0
  6  5  2  0
  7  8  2  0
  8  9  1  0
 10 11  2  0
 13 12  1  0
 13 15  1  0
 14 13  2  0
 16 15  1  6
 16 18  1  0
 17 10  1  0
 17 16  1  0
 18 20  1  0
 19 18  2  0
 20 21  1  0
 22 23  1  0
 22 21  1  0
 24 22  2  0
M  END
$$$$
