FNG.pdb
     RDKit          3D

 24 24  0  0  1  0  0  0  0  0999 V2000
    8.0054  -16.2749   25.5107 N   0  0  0  0  0  0  0  0  0  0  0  0
    9.0156  -15.3723   25.0510 C   0  0  1  0  0  0  0  0  0  0  0  0
    9.1890  -14.1561   25.9136 C   0  0  0  0  0  0  0  0  0  0  0  0
    7.9520  -13.3763   26.0969 C   0  0  0  0  0  0  0  0  0  0  0  0
    7.1037  -13.0358   25.0891 C   0  0  0  0  0  0  0  0  0  0  0  0
    5.9802  -12.3127   25.3381 C   0  0  0  0  0  0  0  0  0  0  0  0
    5.6417  -11.8896   26.6069 C   0  0  0  0  0  0  0  0  0  0  0  0
    6.4980  -12.2325   27.6289 C   0  0  0  0  0  0  0  0  0  0  0  0
    7.6395  -12.9646   27.3917 C   0  0  0  0  0  0  0  0  0  0  0  0
   10.3076  -16.1012   24.9472 C   0  0  0  0  0  0  0  0  0  0  0  0
   11.3886  -15.5137   24.6856 O   0  0  0  0  0  0  0  0  0  0  0  0
   10.0602  -20.3619   27.3836 N   0  0  0  0  0  0  0  0  0  0  0  0
   11.1774  -19.6381   26.8895 C   0  0  0  0  0  0  0  0  0  0  0  0
   11.8598  -18.9767   27.7059 O   0  0  0  0  0  0  0  0  0  0  0  0
   11.5140  -19.6746   25.4438 C   0  0  0  0  0  0  0  0  0  0  0  0
   11.5689  -18.2849   24.8531 C   0  0  2  0  0  0  0  0  0  0  0  0
   10.3925  -17.5157   25.1399 N   0  0  0  0  0  0  0  0  0  0  0  0
   11.9520  -18.2725   23.4273 C   0  0  0  0  0  0  0  0  0  0  0  0
   11.2716  -18.7989   22.5213 O   0  0  0  0  0  0  0  0  0  0  0  0
   13.1653  -17.6226   23.0724 N   0  0  0  0  0  0  0  0  0  0  0  0
   13.6333  -17.5300   21.7127 C   0  0  0  0  0  0  0  0  0  0  0  0
   14.9597  -16.8646   21.7136 C   0  0  0  0  0  0  0  0  0  0  0  0
   15.6072  -16.6022   20.5184 O   0  0  0  0  0  0  0  0  0  0  0  0
   15.5187  -16.5282   22.7786 O   0  0  0  0  0  0  0  0  0  0  0  0
  2  1  1  1
  2 10  1  0
  3  2  1  0
  4  9  2  0
  4  3  1  0
  5  4  1  0
  6  7  1  0
  6  5  2  0
  7  8  2  0
  8  9  1  0
 10 11  2  0
 13 12  1  0
 13 15  1  0
 14 13  2  0
 16 15  1  6
 16 18  1  0
 17 10  1  0
 17 16  1  0
 18 20  1  0
 19 18  2  0
 20 21  1  0
 22 23  1  0
 22 21  1  0
 24 22  2  0
M  END
$$$$
