FNG.pdb
     RDKit          3D

 24 24  0  0  1  0  0  0  0  0999 V2000
    8.2450  -15.2333   23.8670 N   0  0  0  0  0  0  0  0  0  0  0  0
    9.0735  -14.9829   25.0059 C   0  0  1  0  0  0  0  0  0  0  0  0
    8.3143  -14.8045   26.2886 C   0  0  0  0  0  0  0  0  0  0  0  0
    7.3776  -13.6668   26.2713 C   0  0  0  0  0  0  0  0  0  0  0  0
    6.0998  -13.7183   26.7357 C   0  0  0  0  0  0  0  0  0  0  0  0
    5.2949  -12.6244   26.6847 C   0  0  0  0  0  0  0  0  0  0  0  0
    5.7215  -11.4187   26.1671 C   0  0  0  0  0  0  0  0  0  0  0  0
    7.0140  -11.3632   25.6963 C   0  0  0  0  0  0  0  0  0  0  0  0
    7.8406  -12.4631   25.7416 C   0  0  0  0  0  0  0  0  0  0  0  0
   10.0485  -16.0962   25.1517 C   0  0  0  0  0  0  0  0  0  0  0  0
   10.7316  -16.2556   26.1958 O   0  0  0  0  0  0  0  0  0  0  0  0
    9.9967  -19.4832   26.2085 N   0  0  0  0  0  0  0  0  0  0  0  0
   10.0096  -20.0990   24.9292 C   0  0  0  0  0  0  0  0  0  0  0  0
    9.4281  -21.2011   24.7991 O   0  0  0  0  0  0  0  0  0  0  0  0
   10.6969  -19.4426   23.7884 C   0  0  0  0  0  0  0  0  0  0  0  0
   11.2490  -18.0912   24.1784 C   0  0  2  0  0  0  0  0  0  0  0  0
   10.2639  -17.0507   24.1088 N   0  0  0  0  0  0  0  0  0  0  0  0
   12.5127  -17.7577   23.4915 C   0  0  0  0  0  0  0  0  0  0  0  0
   13.4739  -18.5486   23.3841 O   0  0  0  0  0  0  0  0  0  0  0  0
   12.6356  -16.4611   22.9220 N   0  0  0  0  0  0  0  0  0  0  0  0
   13.8313  -16.0105   22.2561 C   0  0  0  0  0  0  0  0  0  0  0  0
   14.8101  -15.5772   23.2839 C   0  0  0  0  0  0  0  0  0  0  0  0
   16.0046  -14.9901   22.9033 O   0  0  0  0  0  0  0  0  0  0  0  0
   14.5843  -15.7287   24.5029 O   0  0  0  0  0  0  0  0  0  0  0  0
  2  1  1  6
  2 10  1  0
  3  2  1  0
  4  9  2  0
  4  3  1  0
  5  4  1  0
  6  7  1  0
  6  5  2  0
  7  8  2  0
  8  9  1  0
 10 11  2  0
 13 12  1  0
 13 15  1  0
 14 13  2  0
 16 15  1  6
 16 18  1  0
 17 10  1  0
 17 16  1  0
 18 20  1  0
 19 18  2  0
 20 21  1  0
 22 23  1  0
 22 21  1  0
 24 22  2  0
M  END
$$$$
