FNG.pdb
     RDKit          3D

 24 24  0  0  1  0  0  0  0  0999 V2000
    6.7066  -16.6589   25.4825 N   0  0  0  0  0  0  0  0  0  0  0  0
    7.6384  -15.8145   24.8005 C   0  0  1  0  0  0  0  0  0  0  0  0
    8.3411  -14.8320   25.6919 C   0  0  0  0  0  0  0  0  0  0  0  0
    7.5563  -13.6162   25.9711 C   0  0  0  0  0  0  0  0  0  0  0  0
    6.6162  -13.5182   26.9499 C   0  0  0  0  0  0  0  0  0  0  0  0
    5.9321  -12.3604   27.1458 C   0  0  0  0  0  0  0  0  0  0  0  0
    6.1487  -11.2366   26.3754 C   0  0  0  0  0  0  0  0  0  0  0  0
    7.0993  -11.3324   25.3842 C   0  0  0  0  0  0  0  0  0  0  0  0
    7.8000  -12.4986   25.1742 C   0  0  0  0  0  0  0  0  0  0  0  0
    8.6404  -16.6619   24.1011 C   0  0  0  0  0  0  0  0  0  0  0  0
    9.1013  -17.7144   24.6129 O   0  0  0  0  0  0  0  0  0  0  0  0
    8.3100  -18.8339   20.7455 N   0  0  0  0  0  0  0  0  0  0  0  0
    8.7708  -17.5722   20.2851 C   0  0  0  0  0  0  0  0  0  0  0  0
    8.0152  -16.9034   19.5425 O   0  0  0  0  0  0  0  0  0  0  0  0
   10.1122  -17.0741   20.6816 C   0  0  0  0  0  0  0  0  0  0  0  0
   10.2488  -16.9880   22.1840 C   0  0  2  0  0  0  0  0  0  0  0  0
    9.1370  -16.3255   22.8028 N   0  0  0  0  0  0  0  0  0  0  0  0
   11.5624  -16.4752   22.6212 C   0  0  0  0  0  0  0  0  0  0  0  0
   11.9224  -15.2862   22.4887 O   0  0  0  0  0  0  0  0  0  0  0  0
   12.4639  -17.3922   23.2271 N   0  0  0  0  0  0  0  0  0  0  0  0
   13.6223  -16.9712   23.9736 C   0  0  0  0  0  0  0  0  0  0  0  0
   14.2472  -18.1674   24.5908 C   0  0  0  0  0  0  0  0  0  0  0  0
   15.6255  -18.2693   24.6702 O   0  0  0  0  0  0  0  0  0  0  0  0
   13.5549  -19.1006   25.0486 O   0  0  0  0  0  0  0  0  0  0  0  0
  2  1  1  1
  2 10  1  0
  3  2  1  0
  4  9  2  0
  4  3  1  0
  5  4  1  0
  6  7  1  0
  6  5  2  0
  7  8  2  0
  8  9  1  0
 10 11  2  0
 13 12  1  0
 13 15  1  0
 14 13  2  0
 16 15  1  6
 16 18  1  0
 17 10  1  0
 17 16  1  0
 18 20  1  0
 19 18  2  0
 20 21  1  0
 22 23  1  0
 22 21  1  0
 24 22  2  0
M  END
$$$$
