FNG.pdb
     RDKit          3D

 24 24  0  0  1  0  0  0  0  0999 V2000
    7.6450  -13.8854   20.6503 N   0  0  0  0  0  0  0  0  0  0  0  0
    7.8369  -13.7308   22.0595 C   0  0  1  0  0  0  0  0  0  0  0  0
    6.6942  -13.0584   22.7634 C   0  0  0  0  0  0  0  0  0  0  0  0
    6.9265  -12.8441   24.2028 C   0  0  0  0  0  0  0  0  0  0  0  0
    7.7729  -11.9085   24.7121 C   0  0  0  0  0  0  0  0  0  0  0  0
    7.9344  -11.7717   26.0546 C   0  0  0  0  0  0  0  0  0  0  0  0
    7.2599  -12.5615   26.9626 C   0  0  0  0  0  0  0  0  0  0  0  0
    6.4026  -13.5092   26.4506 C   0  0  0  0  0  0  0  0  0  0  0  0
    6.2289  -13.6592   25.0932 C   0  0  0  0  0  0  0  0  0  0  0  0
    8.0826  -15.0663   22.6657 C   0  0  0  0  0  0  0  0  0  0  0  0
    7.2554  -16.0087   22.5675 O   0  0  0  0  0  0  0  0  0  0  0  0
    9.6343  -18.0026   21.5197 N   0  0  0  0  0  0  0  0  0  0  0  0
   10.8722  -17.8838   22.2049 C   0  0  0  0  0  0  0  0  0  0  0  0
   11.8835  -18.4173   21.6927 O   0  0  0  0  0  0  0  0  0  0  0  0
   10.9491  -17.1450   23.4906 C   0  0  0  0  0  0  0  0  0  0  0  0
    9.5898  -16.6498   23.9265 C   0  0  2  0  0  0  0  0  0  0  0  0
    9.2778  -15.3537   23.3966 N   0  0  0  0  0  0  0  0  0  0  0  0
    9.3669  -16.7645   25.3815 C   0  0  0  0  0  0  0  0  0  0  0  0
    8.2892  -17.1382   25.8912 O   0  0  0  0  0  0  0  0  0  0  0  0
   10.4445  -16.4292   26.2457 N   0  0  0  0  0  0  0  0  0  0  0  0
   10.3477  -16.5063   27.6814 C   0  0  0  0  0  0  0  0  0  0  0  0
   10.7727  -17.8614   28.1117 C   0  0  0  0  0  0  0  0  0  0  0  0
   10.8283  -18.1782   29.4582 O   0  0  0  0  0  0  0  0  0  0  0  0
   11.0869  -18.7396   27.2811 O   0  0  0  0  0  0  0  0  0  0  0  0
  2  1  1  6
  2 10  1  0
  3  2  1  0
  4  9  2  0
  4  3  1  0
  5  4  1  0
  6  7  1  0
  6  5  2  0
  7  8  2  0
  8  9  1  0
 10 11  2  0
 13 12  1  0
 13 15  1  0
 14 13  2  0
 16 15  1  1
 16 18  1  0
 17 10  1  0
 17 16  1  0
 18 20  1  0
 19 18  2  0
 20 21  1  0
 22 23  1  0
 22 21  1  0
 24 22  2  0
M  END
$$$$
