FNG.pdb
     RDKit          3D

 24 24  0  0  1  0  0  0  0  0999 V2000
    6.8416  -15.9986   25.7638 N   0  0  0  0  0  0  0  0  0  0  0  0
    7.5905  -15.1781   24.8625 C   0  0  1  0  0  0  0  0  0  0  0  0
    8.3892  -14.0997   25.5354 C   0  0  0  0  0  0  0  0  0  0  0  0
    7.5725  -13.1592   26.3230 C   0  0  0  0  0  0  0  0  0  0  0  0
    7.8134  -12.8367   27.6227 C   0  0  0  0  0  0  0  0  0  0  0  0
    7.0127  -11.9593   28.2831 C   0  0  0  0  0  0  0  0  0  0  0  0
    5.9273  -11.3556   27.6824 C   0  0  0  0  0  0  0  0  0  0  0  0
    5.6808  -11.6798   26.3673 C   0  0  0  0  0  0  0  0  0  0  0  0
    6.4832  -12.5667   25.6857 C   0  0  0  0  0  0  0  0  0  0  0  0
    8.4939  -16.0413   24.0561 C   0  0  0  0  0  0  0  0  0  0  0  0
    8.3895  -17.2947   24.0462 O   0  0  0  0  0  0  0  0  0  0  0  0
    7.1394  -15.3272   20.0983 N   0  0  0  0  0  0  0  0  0  0  0  0
    8.1316  -16.1935   20.6283 C   0  0  0  0  0  0  0  0  0  0  0  0
    7.7923  -17.3588   20.9391 O   0  0  0  0  0  0  0  0  0  0  0  0
    9.5269  -15.7167   20.8029 C   0  0  0  0  0  0  0  0  0  0  0  0
   10.1076  -16.1751   22.1205 C   0  0  2  0  0  0  0  0  0  0  0  0
    9.5350  -15.4916   23.2443 N   0  0  0  0  0  0  0  0  0  0  0  0
   11.5838  -16.1981   22.1302 C   0  0  0  0  0  0  0  0  0  0  0  0
   12.2734  -16.8329   21.3043 O   0  0  0  0  0  0  0  0  0  0  0  0
   12.2518  -15.4529   23.1397 N   0  0  0  0  0  0  0  0  0  0  0  0
   13.1656  -16.0533   24.0783 C   0  0  0  0  0  0  0  0  0  0  0  0
   14.3377  -16.5724   23.3308 C   0  0  0  0  0  0  0  0  0  0  0  0
   15.4545  -15.7752   23.1473 O   0  0  0  0  0  0  0  0  0  0  0  0
   14.3469  -17.7269   22.8544 O   0  0  0  0  0  0  0  0  0  0  0  0
  2  1  1  1
  2 10  1  0
  3  2  1  0
  4  9  2  0
  4  3  1  0
  5  4  1  0
  6  7  1  0
  6  5  2  0
  7  8  2  0
  8  9  1  0
 10 11  2  0
 13 12  1  0
 13 15  1  0
 14 13  2  0
 16 15  1  6
 16 18  1  0
 17 10  1  0
 17 16  1  0
 18 20  1  0
 19 18  2  0
 20 21  1  0
 22 23  1  0
 22 21  1  0
 24 22  2  0
M  END
$$$$
