FNG.pdb
     RDKit          3D

 24 24  0  0  1  0  0  0  0  0999 V2000
    6.2116  -16.5770   24.6639 N   0  0  0  0  0  0  0  0  0  0  0  0
    7.4496  -15.8618   24.6177 C   0  0  1  0  0  0  0  0  0  0  0  0
    7.7998  -15.1595   25.8974 C   0  0  0  0  0  0  0  0  0  0  0  0
    7.2157  -13.8115   26.0144 C   0  0  0  0  0  0  0  0  0  0  0  0
    7.2946  -12.8552   25.0499 C   0  0  0  0  0  0  0  0  0  0  0  0
    6.7296  -11.6327   25.2326 C   0  0  0  0  0  0  0  0  0  0  0  0
    6.0548  -11.2976   26.3883 C   0  0  0  0  0  0  0  0  0  0  0  0
    5.9732  -12.2631   27.3663 C   0  0  0  0  0  0  0  0  0  0  0  0
    6.5405  -13.5056   27.1952 C   0  0  0  0  0  0  0  0  0  0  0  0
    8.5405  -16.8022   24.2477 C   0  0  0  0  0  0  0  0  0  0  0  0
    8.3712  -18.0484   24.2248 O   0  0  0  0  0  0  0  0  0  0  0  0
    9.8890  -17.1026   20.6047 N   0  0  0  0  0  0  0  0  0  0  0  0
   10.7957  -16.1858   21.1992 C   0  0  0  0  0  0  0  0  0  0  0  0
   10.8152  -15.0104   20.7658 O   0  0  0  0  0  0  0  0  0  0  0  0
   11.6884  -16.6233   22.3021 C   0  0  0  0  0  0  0  0  0  0  0  0
   10.9014  -17.2059   23.4529 C   0  0  2  0  0  0  0  0  0  0  0  0
    9.8473  -16.3397   23.8962 N   0  0  0  0  0  0  0  0  0  0  0  0
   11.7554  -17.7082   24.5476 C   0  0  0  0  0  0  0  0  0  0  0  0
   12.7031  -18.5045   24.3789 O   0  0  0  0  0  0  0  0  0  0  0  0
   11.4777  -17.2554   25.8661 N   0  0  0  0  0  0  0  0  0  0  0  0
   12.2540  -17.6600   27.0108 C   0  0  0  0  0  0  0  0  0  0  0  0
   11.4353  -18.5836   27.8346 C   0  0  0  0  0  0  0  0  0  0  0  0
   11.2973  -18.3658   29.1947 O   0  0  0  0  0  0  0  0  0  0  0  0
   10.8570  -19.5683   27.3288 O   0  0  0  0  0  0  0  0  0  0  0  0
  2  1  1  1
  2 10  1  0
  3  2  1  0
  4  9  2  0
  4  3  1  0
  5  4  1  0
  6  7  1  0
  6  5  2  0
  7  8  2  0
  8  9  1  0
 10 11  2  0
 13 12  1  0
 13 15  1  0
 14 13  2  0
 16 15  1  6
 16 18  1  0
 17 10  1  0
 17 16  1  0
 18 20  1  0
 19 18  2  0
 20 21  1  0
 22 23  1  0
 22 21  1  0
 24 22  2  0
M  END
$$$$
