LFV.pdb
     RDKit          3D

 27 27  0  0  1  0  0  0  0  0999 V2000
   26.4639  -19.8538  -19.3308 C   0  0  0  0  0  0  0  0  0  0  0  0
   25.3661  -19.8692  -18.2940 C   0  0  1  0  0  0  0  0  0  0  0  0
   24.0074  -19.6987  -18.9411 C   0  0  0  0  0  0  0  0  0  0  0  0
   25.3531  -21.1627  -17.5057 C   0  0  0  0  0  0  0  0  0  0  0  0
   26.5795  -21.1603  -16.6268 C   0  0  2  0  0  0  0  0  0  0  0  0
   27.5027  -22.1279  -17.1308 N   0  0  0  0  0  0  0  0  0  0  0  0
   26.2480  -21.3614  -15.1936 C   0  0  0  0  0  0  0  0  0  0  0  0
   25.6422  -22.3976  -14.8141 O   0  0  0  0  0  0  0  0  0  0  0  0
   26.5835  -20.4226  -14.1810 N   0  0  0  0  0  0  0  0  0  0  0  0
   26.3021  -20.6485  -12.7623 C   0  0  1  0  0  0  0  0  0  0  0  0
   27.3376  -20.0798  -11.8720 C   0  0  0  0  0  0  0  0  0  0  0  0
   27.0912  -20.1288  -10.4368 C   0  0  0  0  0  0  0  0  0  0  0  0
   27.6547  -21.1236   -9.6682 C   0  0  0  0  0  0  0  0  0  0  0  0
   27.4268  -21.1927   -8.2910 C   0  0  0  0  0  0  0  0  0  0  0  0
   26.6281  -20.2551   -7.6868 C   0  0  0  0  0  0  0  0  0  0  0  0
   26.0577  -19.2574   -8.4303 C   0  0  0  0  0  0  0  0  0  0  0  0
   26.2953  -19.2062   -9.7922 C   0  0  0  0  0  0  0  0  0  0  0  0
   24.9109  -20.2132  -12.5147 C   0  0  0  0  0  0  0  0  0  0  0  0
   24.5125  -19.0397  -12.8452 O   0  0  0  0  0  0  0  0  0  0  0  0
   21.4255  -22.6681  -12.4507 C   0  0  0  0  0  0  0  0  0  0  0  0
   21.4965  -21.1552  -12.5059 C   0  0  2  0  0  0  0  0  0  0  0  0
   21.7923  -20.7986  -13.9476 C   0  0  0  0  0  0  0  0  0  0  0  0
   22.5592  -20.5905  -11.6395 C   0  0  2  0  0  0  0  0  0  0  0  0
   23.8989  -21.0120  -11.9106 N   0  0  0  0  0  0  0  0  0  0  0  0
   22.2151  -20.9091  -10.2072 C   0  0  0  0  0  0  0  0  0  0  0  0
   21.0040  -20.4422   -9.7303 O   0  0  0  0  0  0  0  0  0  0  0  0
   22.9960  -21.5761   -9.4655 O   0  0  0  0  0  0  0  0  0  0  0  0
  2  1  1  6
  3  2  1  0
  4  2  1  0
  5  4  1  0
  5  6  1  6
  7  8  2  0
  7  5  1  0
  9  7  1  0
 10  9  1  0
 11 12  1  0
 10 11  1  1
 12 17  2  0
 12 13  1  0
 13 14  2  0
 14 15  1  0
 16 15  2  0
 17 16  1  0
 18 19  2  0
 18 10  1  0
 21 20  1  6
 22 21  1  0
 23 21  1  0
 23 24  1  6
 24 18  1  0
 25 23  1  0
 26 25  1  0
 27 25  2  0
M  END
$$$$
