LFV.pdb
     RDKit          3D

 27 27  0  0  1  0  0  0  0  0999 V2000
   25.6659  -15.8662  -20.7082 C   0  0  0  0  0  0  0  0  0  0  0  0
   26.6284  -16.1708  -19.5853 C   0  0  1  0  0  0  0  0  0  0  0  0
   26.8117  -14.9654  -18.6868 C   0  0  0  0  0  0  0  0  0  0  0  0
   26.1503  -17.3266  -18.7307 C   0  0  0  0  0  0  0  0  0  0  0  0
   27.1528  -17.5005  -17.6166 C   0  0  2  0  0  0  0  0  0  0  0  0
   28.4270  -17.7954  -18.1926 N   0  0  0  0  0  0  0  0  0  0  0  0
   26.7173  -18.5079  -16.6167 C   0  0  0  0  0  0  0  0  0  0  0  0
   26.1749  -19.5832  -16.9832 O   0  0  0  0  0  0  0  0  0  0  0  0
   26.8791  -18.3306  -15.2161 N   0  0  0  0  0  0  0  0  0  0  0  0
   26.4061  -19.3048  -14.2312 C   0  0  1  0  0  0  0  0  0  0  0  0
   27.1266  -19.2170  -12.9423 C   0  0  0  0  0  0  0  0  0  0  0  0
   26.6374  -20.0364  -11.8413 C   0  0  0  0  0  0  0  0  0  0  0  0
   27.0238  -21.3541  -11.7300 C   0  0  0  0  0  0  0  0  0  0  0  0
   26.5619  -22.1594  -10.6853 C   0  0  0  0  0  0  0  0  0  0  0  0
   25.7076  -21.6340   -9.7493 C   0  0  0  0  0  0  0  0  0  0  0  0
   25.3102  -20.3274   -9.8394 C   0  0  0  0  0  0  0  0  0  0  0  0
   25.7783  -19.5465  -10.8809 C   0  0  0  0  0  0  0  0  0  0  0  0
   24.9332  -19.1896  -14.1703 C   0  0  0  0  0  0  0  0  0  0  0  0
   24.3589  -18.0466  -14.0757 O   0  0  0  0  0  0  0  0  0  0  0  0
   20.3039  -20.5185  -15.0074 C   0  0  0  0  0  0  0  0  0  0  0  0
   21.7972  -20.6018  -15.2524 C   0  0  2  0  0  0  0  0  0  0  0  0
   22.0925  -22.0523  -15.5717 C   0  0  0  0  0  0  0  0  0  0  0  0
   22.6034  -20.1907  -14.0777 C   0  0  2  0  0  0  0  0  0  0  0  0
   24.0245  -20.2849  -14.2107 N   0  0  0  0  0  0  0  0  0  0  0  0
   22.1570  -21.0084  -12.8930 C   0  0  0  0  0  0  0  0  0  0  0  0
   20.9663  -20.6472  -12.2896 O   0  0  0  0  0  0  0  0  0  0  0  0
   22.8369  -21.9868  -12.4627 O   0  0  0  0  0  0  0  0  0  0  0  0
  2  1  1  6
  3  2  1  0
  4  2  1  0
  5  4  1  0
  5  6  1  6
  7  8  2  0
  7  5  1  0
  9  7  1  0
 10  9  1  0
 11 12  1  0
 10 11  1  1
 12 17  2  0
 12 13  1  0
 13 14  2  0
 14 15  1  0
 16 15  2  0
 17 16  1  0
 18 19  2  0
 18 10  1  0
 21 20  1  1
 22 21  1  0
 23 21  1  0
 23 24  1  6
 24 18  1  0
 25 23  1  0
 26 25  1  0
 27 25  2  0
M  END
$$$$
