LFV.pdb
     RDKit          3D

 27 27  0  0  1  0  0  0  0  0999 V2000
   19.9112  -23.0340  -12.5660 C   0  0  0  0  0  0  0  0  0  0  0  0
   21.2061  -22.3015  -12.8247 C   0  0  1  0  0  0  0  0  0  0  0  0
   21.6006  -22.3971  -14.2839 C   0  0  0  0  0  0  0  0  0  0  0  0
   21.1071  -20.8348  -12.4590 C   0  0  0  0  0  0  0  0  0  0  0  0
   21.5646  -20.7015  -11.0275 C   0  0  2  0  0  0  0  0  0  0  0  0
   20.6670  -19.8254  -10.3424 N   0  0  0  0  0  0  0  0  0  0  0  0
   22.9843  -20.2787  -10.9251 C   0  0  0  0  0  0  0  0  0  0  0  0
   23.3406  -19.1306  -11.2983 O   0  0  0  0  0  0  0  0  0  0  0  0
   24.0087  -21.1196  -10.4124 N   0  0  0  0  0  0  0  0  0  0  0  0
   25.4058  -20.6962  -10.3053 C   0  0  1  0  0  0  0  0  0  0  0  0
   26.0998  -21.2893   -9.1413 C   0  0  0  0  0  0  0  0  0  0  0  0
   26.6009  -20.3778   -8.1211 C   0  0  0  0  0  0  0  0  0  0  0  0
   27.0980  -20.8686   -6.9337 C   0  0  0  0  0  0  0  0  0  0  0  0
   27.5783  -20.0118   -5.9394 C   0  0  0  0  0  0  0  0  0  0  0  0
   27.5574  -18.6554   -6.1433 C   0  0  0  0  0  0  0  0  0  0  0  0
   27.0684  -18.1448   -7.3153 C   0  0  0  0  0  0  0  0  0  0  0  0
   26.5974  -19.0093   -8.2873 C   0  0  0  0  0  0  0  0  0  0  0  0
   26.0341  -20.9133  -11.6261 C   0  0  0  0  0  0  0  0  0  0  0  0
   26.0378  -22.0708  -12.1786 O   0  0  0  0  0  0  0  0  0  0  0  0
   27.5592  -18.8859  -15.9676 C   0  0  0  0  0  0  0  0  0  0  0  0
   27.2860  -18.7120  -14.4871 C   0  0  2  0  0  0  0  0  0  0  0  0
   28.5600  -18.1579  -13.8847 C   0  0  0  0  0  0  0  0  0  0  0  0
   26.9411  -19.9831  -13.8057 C   0  0  2  0  0  0  0  0  0  0  0  0
   26.6757  -19.9069  -12.4023 N   0  0  0  0  0  0  0  0  0  0  0  0
   28.0584  -20.9646  -14.0506 C   0  0  0  0  0  0  0  0  0  0  0  0
   28.8490  -21.3036  -12.9679 O   0  0  0  0  0  0  0  0  0  0  0  0
   28.2704  -21.4629  -15.1958 O   0  0  0  0  0  0  0  0  0  0  0  0
  2  1  1  6
  3  2  1  0
  4  2  1  0
  5  4  1  0
  5  6  1  1
  7  8  2  0
  7  5  1  0
  9  7  1  0
 10  9  1  0
 11 12  1  0
 10 11  1  1
 12 17  2  0
 12 13  1  0
 13 14  2  0
 14 15  1  0
 16 15  2  0
 17 16  1  0
 18 19  2  0
 18 10  1  0
 21 20  1  6
 22 21  1  0
 23 21  1  0
 23 24  1  1
 24 18  1  0
 25 23  1  0
 26 25  1  0
 27 25  2  0
M  END
$$$$
