LFV.pdb
     RDKit          3D

 27 27  0  0  1  0  0  0  0  0999 V2000
   27.0951  -18.9555  -19.2720 C   0  0  0  0  0  0  0  0  0  0  0  0
   27.8131  -19.7491  -18.2067 C   0  0  1  0  0  0  0  0  0  0  0  0
   28.9239  -18.9327  -17.5793 C   0  0  0  0  0  0  0  0  0  0  0  0
   26.8736  -20.1916  -17.1038 C   0  0  0  0  0  0  0  0  0  0  0  0
   27.6824  -21.0194  -16.1359 C   0  0  2  0  0  0  0  0  0  0  0  0
   28.1066  -22.2115  -16.8003 N   0  0  0  0  0  0  0  0  0  0  0  0
   26.9513  -21.2850  -14.8712 C   0  0  0  0  0  0  0  0  0  0  0  0
   25.9443  -22.0402  -14.8584 O   0  0  0  0  0  0  0  0  0  0  0  0
   27.3293  -20.7194  -13.6236 N   0  0  0  0  0  0  0  0  0  0  0  0
   26.5610  -20.9204  -12.3939 C   0  0  1  0  0  0  0  0  0  0  0  0
   27.3161  -20.5521  -11.1764 C   0  0  0  0  0  0  0  0  0  0  0  0
   26.5781  -20.4860   -9.9218 C   0  0  0  0  0  0  0  0  0  0  0  0
   26.3600  -21.6278   -9.1823 C   0  0  0  0  0  0  0  0  0  0  0  0
   25.6498  -21.5878   -7.9793 C   0  0  0  0  0  0  0  0  0  0  0  0
   25.1581  -20.3923   -7.5202 C   0  0  0  0  0  0  0  0  0  0  0  0
   25.3626  -19.2449   -8.2378 C   0  0  0  0  0  0  0  0  0  0  0  0
   26.0679  -19.3051   -9.4263 C   0  0  0  0  0  0  0  0  0  0  0  0
   25.2512  -20.2601  -12.5802 C   0  0  0  0  0  0  0  0  0  0  0  0
   25.1710  -19.0287  -12.9300 O   0  0  0  0  0  0  0  0  0  0  0  0
   20.6648  -19.8554  -13.9649 C   0  0  0  0  0  0  0  0  0  0  0  0
   22.0136  -20.5391  -13.8646 C   0  0  2  0  0  0  0  0  0  0  0  0
   21.7423  -22.0255  -13.9657 C   0  0  0  0  0  0  0  0  0  0  0  0
   22.7137  -20.2604  -12.5875 C   0  0  2  0  0  0  0  0  0  0  0  0
   23.9858  -20.8881  -12.4033 N   0  0  0  0  0  0  0  0  0  0  0  0
   21.7968  -20.6475  -11.4558 C   0  0  0  0  0  0  0  0  0  0  0  0
   20.6326  -19.9159  -11.3084 O   0  0  0  0  0  0  0  0  0  0  0  0
   22.0728  -21.6014  -10.6693 O   0  0  0  0  0  0  0  0  0  0  0  0
  2  1  1  6
  3  2  1  0
  4  2  1  0
  5  4  1  0
  5  6  1  6
  7  8  2  0
  7  5  1  0
  9  7  1  0
 10  9  1  0
 11 12  1  0
 10 11  1  1
 12 17  2  0
 12 13  1  0
 13 14  2  0
 14 15  1  0
 16 15  2  0
 17 16  1  0
 18 19  2  0
 18 10  1  0
 21 20  1  1
 22 21  1  0
 23 21  1  0
 23 24  1  6
 24 18  1  0
 25 23  1  0
 26 25  1  0
 27 25  2  0
M  END
$$$$
