LFV.pdb
     RDKit          3D

 27 27  0  0  1  0  0  0  0  0999 V2000
   23.1588  -19.4949  -14.0729 C   0  0  0  0  0  0  0  0  0  0  0  0
   24.5444  -20.0118  -13.7677 C   0  0  1  0  0  0  0  0  0  0  0  0
   25.5751  -18.9099  -13.8996 C   0  0  0  0  0  0  0  0  0  0  0  0
   24.6386  -20.5793  -12.3663 C   0  0  0  0  0  0  0  0  0  0  0  0
   26.0724  -20.9964  -12.1508 C   0  0  2  0  0  0  0  0  0  0  0  0
   26.3442  -22.1336  -12.9726 N   0  0  0  0  0  0  0  0  0  0  0  0
   26.3853  -21.2243  -10.7174 C   0  0  0  0  0  0  0  0  0  0  0  0
   25.9606  -22.2493  -10.1227 O   0  0  0  0  0  0  0  0  0  0  0  0
   27.1645  -20.3244   -9.9412 N   0  0  0  0  0  0  0  0  0  0  0  0
   27.4377  -20.5325   -8.5182 C   0  0  1  0  0  0  0  0  0  0  0  0
   28.6142  -19.7737   -8.0406 C   0  0  0  0  0  0  0  0  0  0  0  0
   28.8213  -19.6901   -6.6008 C   0  0  0  0  0  0  0  0  0  0  0  0
   28.4061  -18.5778   -5.9019 C   0  0  0  0  0  0  0  0  0  0  0  0
   28.6000  -18.4745   -4.5217 C   0  0  0  0  0  0  0  0  0  0  0  0
   29.2145  -19.4967   -3.8438 C   0  0  0  0  0  0  0  0  0  0  0  0
   29.6352  -20.6116   -4.5170 C   0  0  0  0  0  0  0  0  0  0  0  0
   29.4343  -20.6949   -5.8832 C   0  0  0  0  0  0  0  0  0  0  0  0
   26.1708  -20.3087   -7.7894 C   0  0  0  0  0  0  0  0  0  0  0  0
   25.4421  -19.2793   -8.0229 O   0  0  0  0  0  0  0  0  0  0  0  0
   22.1381  -21.6792   -5.3656 C   0  0  0  0  0  0  0  0  0  0  0  0
   23.3939  -22.0090   -6.1472 C   0  0  2  0  0  0  0  0  0  0  0  0
   23.9417  -23.2867   -5.5468 C   0  0  0  0  0  0  0  0  0  0  0  0
   24.4286  -20.9503   -6.0597 C   0  0  2  0  0  0  0  0  0  0  0  0
   25.6371  -21.1729   -6.7916 N   0  0  0  0  0  0  0  0  0  0  0  0
   24.7577  -20.7354   -4.6047 C   0  0  0  0  0  0  0  0  0  0  0  0
   23.7551  -20.2269   -3.7994 O   0  0  0  0  0  0  0  0  0  0  0  0
   25.9010  -21.0070   -4.1316 O   0  0  0  0  0  0  0  0  0  0  0  0
  2  1  1  1
  3  2  1  0
  4  2  1  0
  5  4  1  0
  5  6  1  6
  7  8  2  0
  7  5  1  0
  9  7  1  0
 10  9  1  0
 11 12  1  0
 10 11  1  1
 12 17  2  0
 12 13  1  0
 13 14  2  0
 14 15  1  0
 16 15  2  0
 17 16  1  0
 18 19  2  0
 18 10  1  0
 21 20  1  1
 22 21  1  0
 23 21  1  0
 23 24  1  6
 24 18  1  0
 25 23  1  0
 26 25  1  0
 27 25  2  0
M  END
$$$$
