LFV.pdb
     RDKit          3D

 27 27  0  0  1  0  0  0  0  0999 V2000
   27.5640  -25.6717  -18.8902 C   0  0  0  0  0  0  0  0  0  0  0  0
   27.7193  -24.2977  -18.2832 C   0  0  1  0  0  0  0  0  0  0  0  0
   27.5720  -23.2200  -19.3370 C   0  0  0  0  0  0  0  0  0  0  0  0
   26.6920  -24.0404  -17.2000 C   0  0  0  0  0  0  0  0  0  0  0  0
   27.0407  -22.7188  -16.5612 C   0  0  2  0  0  0  0  0  0  0  0  0
   28.4635  -22.6173  -16.4725 N   0  0  0  0  0  0  0  0  0  0  0  0
   26.3594  -22.5246  -15.2564 C   0  0  0  0  0  0  0  0  0  0  0  0
   25.2411  -23.0566  -15.0307 O   0  0  0  0  0  0  0  0  0  0  0  0
   26.9095  -21.7458  -14.2028 N   0  0  0  0  0  0  0  0  0  0  0  0
   26.2080  -21.5070  -12.9403 C   0  0  1  0  0  0  0  0  0  0  0  0
   27.0919  -20.9696  -11.8829 C   0  0  0  0  0  0  0  0  0  0  0  0
   26.4897  -20.6727  -10.5898 C   0  0  0  0  0  0  0  0  0  0  0  0
   26.2469  -19.3683  -10.2188 C   0  0  0  0  0  0  0  0  0  0  0  0
   25.6755  -19.0609   -8.9810 C   0  0  0  0  0  0  0  0  0  0  0  0
   25.3476  -20.0725   -8.1142 C   0  0  0  0  0  0  0  0  0  0  0  0
   25.5794  -21.3760   -8.4613 C   0  0  0  0  0  0  0  0  0  0  0  0
   26.1459  -21.6598   -9.6910 C   0  0  0  0  0  0  0  0  0  0  0  0
   24.9987  -20.7152  -13.2516 C   0  0  0  0  0  0  0  0  0  0  0  0
   25.0823  -19.5718  -13.8268 O   0  0  0  0  0  0  0  0  0  0  0  0
   22.3043  -20.5321  -15.6875 C   0  0  0  0  0  0  0  0  0  0  0  0
   21.6369  -20.7364  -14.3424 C   0  0  2  0  0  0  0  0  0  0  0  0
   20.3881  -19.8800  -14.3560 C   0  0  0  0  0  0  0  0  0  0  0  0
   22.4913  -20.3287  -13.2009 C   0  0  2  0  0  0  0  0  0  0  0  0
   23.6627  -21.1146  -12.9640 N   0  0  0  0  0  0  0  0  0  0  0  0
   21.6387  -20.3152  -11.9583 C   0  0  0  0  0  0  0  0  0  0  0  0
   20.9095  -19.1677  -11.7058 O   0  0  0  0  0  0  0  0  0  0  0  0
   21.5860  -21.3085  -11.1738 O   0  0  0  0  0  0  0  0  0  0  0  0
  2  1  1  6
  3  2  1  0
  4  2  1  0
  5  4  1  0
  5  6  1  1
  7  8  2  0
  7  5  1  0
  9  7  1  0
 10  9  1  0
 11 12  1  0
 10 11  1  1
 12 17  2  0
 12 13  1  0
 13 14  2  0
 14 15  1  0
 16 15  2  0
 17 16  1  0
 18 19  2  0
 18 10  1  0
 21 20  1  6
 22 21  1  0
 23 21  1  0
 23 24  1  1
 24 18  1  0
 25 23  1  0
 26 25  1  0
 27 25  2  0
M  END
$$$$
