LFV.pdb
     RDKit          3D

 27 27  0  0  1  0  0  0  0  0999 V2000
   27.4149  -17.2847  -16.9131 C   0  0  0  0  0  0  0  0  0  0  0  0
   27.9418  -17.9858  -15.6839 C   0  0  1  0  0  0  0  0  0  0  0  0
   27.9769  -17.0456  -14.4970 C   0  0  0  0  0  0  0  0  0  0  0  0
   27.0929  -19.1837  -15.3105 C   0  0  0  0  0  0  0  0  0  0  0  0
   27.7142  -19.8039  -14.0834 C   0  0  2  0  0  0  0  0  0  0  0  0
   28.8281  -20.6013  -14.4906 N   0  0  0  0  0  0  0  0  0  0  0  0
   26.7263  -20.5547  -13.2680 C   0  0  0  0  0  0  0  0  0  0  0  0
   26.4051  -21.7330  -13.5732 O   0  0  0  0  0  0  0  0  0  0  0  0
   26.0938  -20.0080  -12.1189 N   0  0  0  0  0  0  0  0  0  0  0  0
   25.0460  -20.7116  -11.3774 C   0  0  1  0  0  0  0  0  0  0  0  0
   25.0177  -20.3550   -9.9420 C   0  0  0  0  0  0  0  0  0  0  0  0
   26.2707  -20.4396   -9.2033 C   0  0  0  0  0  0  0  0  0  0  0  0
   26.5056  -19.6030   -8.1343 C   0  0  0  0  0  0  0  0  0  0  0  0
   27.7027  -19.6634   -7.4156 C   0  0  0  0  0  0  0  0  0  0  0  0
   28.6663  -20.5708   -7.7762 C   0  0  0  0  0  0  0  0  0  0  0  0
   28.4552  -21.4124   -8.8347 C   0  0  0  0  0  0  0  0  0  0  0  0
   27.2636  -21.3371   -9.5336 C   0  0  0  0  0  0  0  0  0  0  0  0
   23.7824  -20.5329  -12.1243 C   0  0  0  0  0  0  0  0  0  0  0  0
   23.3555  -19.3651  -12.4391 O   0  0  0  0  0  0  0  0  0  0  0  0
   21.3374  -23.8060  -13.9827 C   0  0  0  0  0  0  0  0  0  0  0  0
   21.5045  -22.3683  -14.4318 C   0  0  2  0  0  0  0  0  0  0  0  0
   22.7186  -22.3468  -15.3366 C   0  0  0  0  0  0  0  0  0  0  0  0
   21.7231  -21.4285  -13.3057 C   0  0  2  0  0  0  0  0  0  0  0  0
   22.9345  -21.5894  -12.5623 N   0  0  0  0  0  0  0  0  0  0  0  0
   20.5453  -21.5342  -12.3713 C   0  0  0  0  0  0  0  0  0  0  0  0
   20.7757  -22.0893  -11.1259 O   0  0  0  0  0  0  0  0  0  0  0  0
   19.3908  -21.1333  -12.7044 O   0  0  0  0  0  0  0  0  0  0  0  0
  2  1  1  6
  3  2  1  0
  4  2  1  0
  5  4  1  0
  5  6  1  6
  7  8  2  0
  7  5  1  0
  9  7  1  0
 10  9  1  0
 11 12  1  0
 10 11  1  1
 12 17  2  0
 12 13  1  0
 13 14  2  0
 14 15  1  0
 16 15  2  0
 17 16  1  0
 18 19  2  0
 18 10  1  0
 21 20  1  1
 22 21  1  0
 23 21  1  0
 23 24  1  1
 24 18  1  0
 25 23  1  0
 26 25  1  0
 27 25  2  0
M  END
$$$$
