LFV.pdb
     RDKit          3D

 27 27  0  0  1  0  0  0  0  0999 V2000
   27.1534  -20.2766  -19.7295 C   0  0  0  0  0  0  0  0  0  0  0  0
   27.8238  -20.9581  -18.5606 C   0  0  1  0  0  0  0  0  0  0  0  0
   29.0098  -20.1530  -18.0715 C   0  0  0  0  0  0  0  0  0  0  0  0
   26.8723  -21.1486  -17.3974 C   0  0  0  0  0  0  0  0  0  0  0  0
   27.6347  -21.8680  -16.3123 C   0  0  2  0  0  0  0  0  0  0  0  0
   27.9835  -23.1699  -16.7876 N   0  0  0  0  0  0  0  0  0  0  0  0
   26.8950  -21.8957  -15.0252 C   0  0  0  0  0  0  0  0  0  0  0  0
   25.8561  -22.5949  -14.8968 O   0  0  0  0  0  0  0  0  0  0  0  0
   27.2994  -21.1544  -13.8823 N   0  0  0  0  0  0  0  0  0  0  0  0
   26.5357  -21.1384  -12.6336 C   0  0  1  0  0  0  0  0  0  0  0  0
   27.3251  -20.6500  -11.4819 C   0  0  0  0  0  0  0  0  0  0  0  0
   26.6408  -20.5267  -10.2014 C   0  0  0  0  0  0  0  0  0  0  0  0
   26.3469  -21.6495   -9.4592 C   0  0  0  0  0  0  0  0  0  0  0  0
   25.6861  -21.5544   -8.2314 C   0  0  0  0  0  0  0  0  0  0  0  0
   25.3206  -20.3228   -7.7503 C   0  0  0  0  0  0  0  0  0  0  0  0
   25.6023  -19.1933   -8.4702 C   0  0  0  0  0  0  0  0  0  0  0  0
   26.2570  -19.3082   -9.6834 C   0  0  0  0  0  0  0  0  0  0  0  0
   25.2637  -20.4350  -12.9045 C   0  0  0  0  0  0  0  0  0  0  0  0
   25.2502  -19.2550  -13.4070 O   0  0  0  0  0  0  0  0  0  0  0  0
   21.5139  -21.9595  -14.1265 C   0  0  0  0  0  0  0  0  0  0  0  0
   21.9314  -20.5087  -13.9935 C   0  0  2  0  0  0  0  0  0  0  0  0
   22.7669  -20.1957  -15.2171 C   0  0  0  0  0  0  0  0  0  0  0  0
   22.7366  -20.2441  -12.7767 C   0  0  2  0  0  0  0  0  0  0  0  0
   23.9662  -20.9642  -12.6524 N   0  0  0  0  0  0  0  0  0  0  0  0
   21.8722  -20.5195  -11.5732 C   0  0  0  0  0  0  0  0  0  0  0  0
   20.7545  -19.7232  -11.4036 O   0  0  0  0  0  0  0  0  0  0  0  0
   22.1501  -21.4396  -10.7481 O   0  0  0  0  0  0  0  0  0  0  0  0
  2  1  1  6
  3  2  1  0
  4  2  1  0
  5  4  1  0
  5  6  1  6
  7  8  2  0
  7  5  1  0
  9  7  1  0
 10  9  1  0
 11 12  1  0
 10 11  1  1
 12 17  2  0
 12 13  1  0
 13 14  2  0
 14 15  1  0
 16 15  2  0
 17 16  1  0
 18 19  2  0
 18 10  1  0
 21 20  1  6
 22 21  1  0
 23 21  1  0
 23 24  1  1
 24 18  1  0
 25 23  1  0
 26 25  1  0
 27 25  2  0
M  END
$$$$
