LFV.pdb
     RDKit          3D

 27 27  0  0  1  0  0  0  0  0999 V2000
   21.6870  -21.0187  -15.3508 C   0  0  0  0  0  0  0  0  0  0  0  0
   23.0631  -20.6278  -14.8672 C   0  0  1  0  0  0  0  0  0  0  0  0
   23.3125  -19.1492  -15.0801 C   0  0  0  0  0  0  0  0  0  0  0  0
   23.2499  -20.9294  -13.3944 C   0  0  0  0  0  0  0  0  0  0  0  0
   24.7132  -20.7349  -13.0827 C   0  0  2  0  0  0  0  0  0  0  0  0
   25.4827  -21.4938  -14.0178 N   0  0  0  0  0  0  0  0  0  0  0  0
   25.0366  -21.0509  -11.6685 C   0  0  0  0  0  0  0  0  0  0  0  0
   24.5044  -22.0359  -11.0930 O   0  0  0  0  0  0  0  0  0  0  0  0
   25.9444  -20.2830  -10.8904 N   0  0  0  0  0  0  0  0  0  0  0  0
   26.2277  -20.5718   -9.4835 C   0  0  1  0  0  0  0  0  0  0  0  0
   27.4694  -19.9278   -9.0021 C   0  0  0  0  0  0  0  0  0  0  0  0
   27.7132  -19.9274   -7.5656 C   0  0  0  0  0  0  0  0  0  0  0  0
   28.3397  -20.9981   -6.9663 C   0  0  0  0  0  0  0  0  0  0  0  0
   28.5782  -21.0209   -5.5894 C   0  0  0  0  0  0  0  0  0  0  0  0
   28.1838  -19.9600   -4.8141 C   0  0  0  0  0  0  0  0  0  0  0  0
   27.5599  -18.8852   -5.3875 C   0  0  0  0  0  0  0  0  0  0  0  0
   27.3327  -18.8815   -6.7521 C   0  0  0  0  0  0  0  0  0  0  0  0
   24.9967  -20.2809   -8.7179 C   0  0  0  0  0  0  0  0  0  0  0  0
   24.3194  -19.2122   -8.9285 O   0  0  0  0  0  0  0  0  0  0  0  0
   21.9644  -22.8292   -7.5182 C   0  0  0  0  0  0  0  0  0  0  0  0
   21.9961  -21.3204   -7.3790 C   0  0  2  0  0  0  0  0  0  0  0  0
   21.7193  -20.7630   -8.7595 C   0  0  0  0  0  0  0  0  0  0  0  0
   23.3034  -20.8074   -6.9028 C   0  0  2  0  0  0  0  0  0  0  0  0
   24.4452  -21.1176   -7.7065 N   0  0  0  0  0  0  0  0  0  0  0  0
   23.5249  -21.3167   -5.5018 C   0  0  0  0  0  0  0  0  0  0  0  0
   24.6924  -22.0183   -5.2626 O   0  0  0  0  0  0  0  0  0  0  0  0
   22.6832  -21.1145   -4.5769 O   0  0  0  0  0  0  0  0  0  0  0  0
  2  1  1  1
  3  2  1  0
  4  2  1  0
  5  4  1  0
  5  6  1  6
  7  8  2  0
  7  5  1  0
  9  7  1  0
 10  9  1  0
 11 12  1  0
 10 11  1  1
 12 17  2  0
 12 13  1  0
 13 14  2  0
 14 15  1  0
 16 15  2  0
 17 16  1  0
 18 19  2  0
 18 10  1  0
 21 20  1  6
 22 21  1  0
 23 21  1  0
 23 24  1  6
 24 18  1  0
 25 23  1  0
 26 25  1  0
 27 25  2  0
M  END
$$$$
