LFV.pdb
     RDKit          3D

 27 27  0  0  1  0  0  0  0  0999 V2000
   28.9087  -19.3426  -15.4844 C   0  0  0  0  0  0  0  0  0  0  0  0
   29.3983  -19.6325  -14.0856 C   0  0  1  0  0  0  0  0  0  0  0  0
   29.9810  -18.3889  -13.4470 C   0  0  0  0  0  0  0  0  0  0  0  0
   28.2856  -20.1427  -13.1932 C   0  0  0  0  0  0  0  0  0  0  0  0
   28.9075  -20.4956  -11.8647 C   0  0  2  0  0  0  0  0  0  0  0  0
   29.8702  -21.5310  -12.0734 N   0  0  0  0  0  0  0  0  0  0  0  0
   27.8911  -20.8421  -10.8392 C   0  0  0  0  0  0  0  0  0  0  0  0
   27.5179  -22.0340  -10.6824 O   0  0  0  0  0  0  0  0  0  0  0  0
   27.2874  -19.8769   -9.9887 N   0  0  0  0  0  0  0  0  0  0  0  0
   26.0610  -20.1385   -9.2335 C   0  0  1  0  0  0  0  0  0  0  0  0
   25.9837  -19.3654   -7.9748 C   0  0  0  0  0  0  0  0  0  0  0  0
   26.9268  -19.7058   -6.9175 C   0  0  0  0  0  0  0  0  0  0  0  0
   27.9464  -18.8394   -6.5897 C   0  0  0  0  0  0  0  0  0  0  0  0
   28.8653  -19.1487   -5.5831 C   0  0  0  0  0  0  0  0  0  0  0  0
   28.7554  -20.3359   -4.9045 C   0  0  0  0  0  0  0  0  0  0  0  0
   27.7503  -21.2123   -5.2128 C   0  0  0  0  0  0  0  0  0  0  0  0
   26.8507  -20.8880   -6.2125 C   0  0  0  0  0  0  0  0  0  0  0  0
   24.9266  -19.9859  -10.1696 C   0  0  0  0  0  0  0  0  0  0  0  0
   24.8431  -18.9745  -10.9539 O   0  0  0  0  0  0  0  0  0  0  0  0
   22.8349  -23.1971  -11.9818 C   0  0  0  0  0  0  0  0  0  0  0  0
   22.8279  -21.7413  -12.4028 C   0  0  2  0  0  0  0  0  0  0  0  0
   24.1118  -21.5184  -13.1742 C   0  0  0  0  0  0  0  0  0  0  0  0
   22.7837  -20.8037  -11.2548 C   0  0  2  0  0  0  0  0  0  0  0  0
   23.8470  -20.9044  -10.3034 N   0  0  0  0  0  0  0  0  0  0  0  0
   21.4638  -20.9865  -10.5505 C   0  0  0  0  0  0  0  0  0  0  0  0
   21.5035  -21.4245   -9.2395 O   0  0  0  0  0  0  0  0  0  0  0  0
   20.3610  -20.7506  -11.1273 O   0  0  0  0  0  0  0  0  0  0  0  0
  2  1  1  6
  3  2  1  0
  4  2  1  0
  5  4  1  0
  5  6  1  6
  7  8  2  0
  7  5  1  0
  9  7  1  0
 10  9  1  0
 11 12  1  0
 10 11  1  1
 12 17  2  0
 12 13  1  0
 13 14  2  0
 14 15  1  0
 16 15  2  0
 17 16  1  0
 18 19  2  0
 18 10  1  0
 21 20  1  1
 22 21  1  0
 23 21  1  0
 23 24  1  1
 24 18  1  0
 25 23  1  0
 26 25  1  0
 27 25  2  0
M  END
$$$$
