LFV.pdb
     RDKit          3D

 27 27  0  0  1  0  0  0  0  0999 V2000
   14.6053  -22.4950    5.0327 C   0  0  0  0  0  0  0  0  0  0  0  0
   14.7976  -21.1793    4.3170 C   0  0  1  0  0  0  0  0  0  0  0  0
   13.7770  -20.1586    4.7759 C   0  0  0  0  0  0  0  0  0  0  0  0
   16.1786  -20.6041    4.5555 C   0  0  0  0  0  0  0  0  0  0  0  0
   16.2889  -19.3516    3.7216 C   0  0  2  0  0  0  0  0  0  0  0  0
   16.5541  -19.7275    2.3685 N   0  0  0  0  0  0  0  0  0  0  0  0
   17.2849  -18.3953    4.2674 C   0  0  0  0  0  0  0  0  0  0  0  0
   18.5185  -18.6058    4.1313 O   0  0  0  0  0  0  0  0  0  0  0  0
   16.9220  -17.2096    4.9615 N   0  0  0  0  0  0  0  0  0  0  0  0
   17.9021  -16.2198    5.4114 C   0  0  1  0  0  0  0  0  0  0  0  0
   17.3712  -14.8391    5.4046 C   0  0  0  0  0  0  0  0  0  0  0  0
   18.2757  -13.7689    5.8039 C   0  0  0  0  0  0  0  0  0  0  0  0
   18.4191  -13.4397    7.1340 C   0  0  0  0  0  0  0  0  0  0  0  0
   19.2767  -12.4129    7.5384 C   0  0  0  0  0  0  0  0  0  0  0  0
   19.9924  -11.7159    6.5983 C   0  0  0  0  0  0  0  0  0  0  0  0
   19.8664  -12.0255    5.2710 C   0  0  0  0  0  0  0  0  0  0  0  0
   19.0122  -13.0451    4.8907 C   0  0  0  0  0  0  0  0  0  0  0  0
   18.4599  -16.7035    6.6926 C   0  0  0  0  0  0  0  0  0  0  0  0
   17.7188  -17.2843    7.5635 O   0  0  0  0  0  0  0  0  0  0  0  0
   22.0501  -18.4683    9.5438 C   0  0  0  0  0  0  0  0  0  0  0  0
   21.5536  -17.9693    8.2018 C   0  0  2  0  0  0  0  0  0  0  0  0
   22.7035  -17.2011    7.5849 C   0  0  0  0  0  0  0  0  0  0  0  0
   20.3772  -17.0733    8.3131 C   0  0  2  0  0  0  0  0  0  0  0  0
   19.8229  -16.5875    7.0873 N   0  0  0  0  0  0  0  0  0  0  0  0
   20.7578  -15.9059    9.1870 C   0  0  0  0  0  0  0  0  0  0  0  0
   20.8790  -16.1462   10.5434 O   0  0  0  0  0  0  0  0  0  0  0  0
   20.9606  -14.7511    8.7074 O   0  0  0  0  0  0  0  0  0  0  0  0
  2  1  1  1
  3  2  1  0
  4  2  1  0
  5  4  1  0
  5  6  1  6
  7  8  2  0
  7  5  1  0
  9  7  1  0
 10  9  1  0
 11 12  1  0
 10 11  1  1
 12 17  2  0
 12 13  1  0
 13 14  2  0
 14 15  1  0
 16 15  2  0
 17 16  1  0
 18 19  2  0
 18 10  1  0
 21 20  1  1
 22 21  1  0
 23 21  1  0
 23 24  1  6
 24 18  1  0
 25 23  1  0
 26 25  1  0
 27 25  2  0
M  END
$$$$
