YMR.pdb
     RDKit          3D

 32 32  0  0  1  0  0  0  0  0999 V2000
   14.5828  -19.8350   30.6363 O   0  0  0  0  0  0  0  0  0  0  0  0
   13.7231  -19.2993   29.6822 C   0  0  0  0  0  0  0  0  0  0  0  0
   13.6644  -19.8332   28.4288 C   0  0  0  0  0  0  0  0  0  0  0  0
   12.8279  -19.3311   27.4612 C   0  0  0  0  0  0  0  0  0  0  0  0
   12.0358  -18.2690   27.7673 C   0  0  0  0  0  0  0  0  0  0  0  0
   11.1222  -17.7018   26.7521 C   0  0  0  0  0  0  0  0  0  0  0  0
    9.7146  -17.9936   27.2296 C   0  0  2  0  0  0  0  0  0  0  0  0
    9.4835  -19.4212   27.2316 N   0  0  0  0  0  0  0  0  0  0  0  0
    8.6780  -17.3141   26.4131 C   0  0  0  0  0  0  0  0  0  0  0  0
    7.8595  -18.0466   25.7923 O   0  0  0  0  0  0  0  0  0  0  0  0
   12.0791  -17.7162   29.0228 C   0  0  0  0  0  0  0  0  0  0  0  0
   12.9160  -18.2101   30.0083 C   0  0  0  0  0  0  0  0  0  0  0  0
    7.1589  -11.0794   27.2786 C   0  0  0  0  0  0  0  0  0  0  0  0
    5.8476  -11.4919   26.0951 S   0  0  0  0  0  0  0  0  0  0  0  0
    6.0241  -13.2079   25.5259 C   0  0  0  0  0  0  0  0  0  0  0  0
    7.2419  -13.8462   26.1285 C   0  0  0  0  0  0  0  0  0  0  0  0
    7.4417  -15.2731   25.7059 C   0  0  2  0  0  0  0  0  0  0  0  0
    8.5921  -15.8955   26.3198 N   0  0  0  0  0  0  0  0  0  0  0  0
    7.6248  -15.2944   24.2387 C   0  0  0  0  0  0  0  0  0  0  0  0
    6.6729  -14.9243   23.5111 O   0  0  0  0  0  0  0  0  0  0  0  0
    7.0600  -14.0935   17.0332 N   0  0  0  0  0  0  0  0  0  0  0  0
    8.3500  -13.5587   17.2393 C   0  0  0  0  0  0  0  0  0  0  0  0
    9.2396  -13.7385   16.3168 N   0  0  0  0  0  0  0  0  0  0  0  0
    8.7029  -12.8406   18.4072 N   0  0  0  0  0  0  0  0  0  0  0  0
    8.1511  -13.1314   19.7121 C   0  0  0  0  0  0  0  0  0  0  0  0
    9.2982  -13.4016   20.6568 C   0  0  0  0  0  0  0  0  0  0  0  0
    8.8593  -13.9555   21.9680 C   0  0  0  0  0  0  0  0  0  0  0  0
    9.0306  -15.4216   22.1527 C   0  0  2  0  0  0  0  0  0  0  0  0
    8.8131  -15.7074   23.5821 N   0  0  0  0  0  0  0  0  0  0  0  0
   10.4138  -15.9041   21.8335 C   0  0  0  0  0  0  0  0  0  0  0  0
   10.7878  -16.2692   20.5517 O   0  0  0  0  0  0  0  0  0  0  0  0
   11.3159  -16.0044   22.7174 O   0  0  0  0  0  0  0  0  0  0  0  0
  2  1  1  0
  3  2  2  0
  4  3  1  0
  5 11  1  0
  5  4  2  0
  6  5  1  0
  7  6  1  0
  7  8  1  6
  9  7  1  0
  9 18  1  0
 10  9  2  0
 11 12  2  0
 12  2  1  0
 13 14  1  0
 15 14  1  0
 16 15  1  0
 17 18  1  0
 17 16  1  1
 19 17  1  0
 20 19  2  0
 21 22  1  0
 22 23  2  0
 24 22  1  0
 24 25  1  0
 25 26  1  0
 27 26  1  0
 28 27  1  1
 28 29  1  0
 28 30  1  0
 29 19  1  0
 30 31  1  0
 32 30  2  0
M  END
$$$$
