YMR.pdb
     RDKit          3D

 32 32  0  0  1  0  0  0  0  0999 V2000
   12.9050  -19.9827   30.0273 O   0  0  0  0  0  0  0  0  0  0  0  0
   11.9185  -19.8310   29.0577 C   0  0  0  0  0  0  0  0  0  0  0  0
   11.6918  -18.6128   28.4885 C   0  0  0  0  0  0  0  0  0  0  0  0
   10.7269  -18.4251   27.5283 C   0  0  0  0  0  0  0  0  0  0  0  0
    9.9772  -19.4898   27.1365 C   0  0  0  0  0  0  0  0  0  0  0  0
    8.9300  -19.3266   26.1053 C   0  0  0  0  0  0  0  0  0  0  0  0
    7.8120  -18.5332   26.7495 C   0  0  2  0  0  0  0  0  0  0  0  0
    6.7540  -19.4265   27.1667 N   0  0  0  0  0  0  0  0  0  0  0  0
    7.2644  -17.4819   25.8564 C   0  0  0  0  0  0  0  0  0  0  0  0
    6.3364  -17.8176   25.0701 O   0  0  0  0  0  0  0  0  0  0  0  0
   10.1888  -20.7249   27.6965 C   0  0  0  0  0  0  0  0  0  0  0  0
   11.1565  -20.9304   28.6645 C   0  0  0  0  0  0  0  0  0  0  0  0
    6.3274  -10.7376   25.8787 C   0  0  0  0  0  0  0  0  0  0  0  0
    6.3041  -11.9234   27.2512 S   0  0  0  0  0  0  0  0  0  0  0  0
    6.2687  -13.6256   26.6178 C   0  0  0  0  0  0  0  0  0  0  0  0
    7.2030  -13.7800   25.4531 C   0  0  0  0  0  0  0  0  0  0  0  0
    7.2597  -15.1793   24.9118 C   0  0  2  0  0  0  0  0  0  0  0  0
    7.7509  -16.1434   25.8694 N   0  0  0  0  0  0  0  0  0  0  0  0
    8.1625  -15.1806   23.7406 C   0  0  0  0  0  0  0  0  0  0  0  0
    9.2544  -15.7912   23.8270 O   0  0  0  0  0  0  0  0  0  0  0  0
    7.3762  -12.8447   16.4824 N   0  0  0  0  0  0  0  0  0  0  0  0
    8.2281  -13.8250   15.9295 C   0  0  0  0  0  0  0  0  0  0  0  0
    8.7603  -13.5891   14.7736 N   0  0  0  0  0  0  0  0  0  0  0  0
    8.5179  -15.0453   16.5861 N   0  0  0  0  0  0  0  0  0  0  0  0
    8.0655  -15.3502   17.9256 C   0  0  0  0  0  0  0  0  0  0  0  0
    8.5711  -14.2673   18.8491 C   0  0  0  0  0  0  0  0  0  0  0  0
    7.8427  -14.2174   20.1474 C   0  0  0  0  0  0  0  0  0  0  0  0
    8.3729  -15.0859   21.2325 C   0  0  2  0  0  0  0  0  0  0  0  0
    7.8828  -14.5347   22.5084 N   0  0  0  0  0  0  0  0  0  0  0  0
    9.8697  -15.0819   21.3204 C   0  0  0  0  0  0  0  0  0  0  0  0
   10.5479  -14.3535   22.2825 O   0  0  0  0  0  0  0  0  0  0  0  0
   10.5959  -15.7436   20.5205 O   0  0  0  0  0  0  0  0  0  0  0  0
  2  1  1  0
  3  2  2  0
  4  3  1  0
  5 11  1  0
  5  4  2  0
  6  5  1  0
  7  6  1  0
  7  8  1  6
  9  7  1  0
  9 18  1  0
 10  9  2  0
 11 12  2  0
 12  2  1  0
 13 14  1  0
 15 14  1  0
 16 15  1  0
 17 18  1  0
 17 16  1  1
 19 17  1  0
 20 19  2  0
 21 22  1  0
 22 23  2  0
 24 22  1  0
 24 25  1  0
 25 26  1  0
 27 26  1  0
 28 27  1  6
 28 29  1  0
 28 30  1  0
 29 19  1  0
 30 31  1  0
 32 30  2  0
M  END
$$$$
