YMR.pdb
     RDKit          3D

 32 32  0  0  1  0  0  0  0  0999 V2000
    6.1865  -11.1379   27.2315 O   0  0  0  0  0  0  0  0  0  0  0  0
    6.5465  -12.4668   27.0290 C   0  0  0  0  0  0  0  0  0  0  0  0
    5.6949  -13.3238   26.3968 C   0  0  0  0  0  0  0  0  0  0  0  0
    6.0162  -14.6420   26.1791 C   0  0  0  0  0  0  0  0  0  0  0  0
    7.2216  -15.1018   26.6090 C   0  0  0  0  0  0  0  0  0  0  0  0
    7.6027  -16.5141   26.3919 C   0  0  0  0  0  0  0  0  0  0  0  0
    6.7231  -17.0294   25.2715 C   0  0  2  0  0  0  0  0  0  0  0  0
    6.3327  -18.3951   25.5432 N   0  0  0  0  0  0  0  0  0  0  0  0
    7.3770  -16.9446   23.9418 C   0  0  0  0  0  0  0  0  0  0  0  0
    7.9724  -17.9756   23.5239 O   0  0  0  0  0  0  0  0  0  0  0  0
    8.0939  -14.2561   27.2476 C   0  0  0  0  0  0  0  0  0  0  0  0
    7.7853  -12.9261   27.4745 C   0  0  0  0  0  0  0  0  0  0  0  0
    7.1205  -11.7267   20.0149 C   0  0  0  0  0  0  0  0  0  0  0  0
    8.1323  -12.7998   18.9590 S   0  0  0  0  0  0  0  0  0  0  0  0
    8.3978  -14.4087   19.7596 C   0  0  0  0  0  0  0  0  0  0  0  0
    7.8147  -14.4180   21.1428 C   0  0  0  0  0  0  0  0  0  0  0  0
    7.9661  -15.7348   21.8481 C   0  0  2  0  0  0  0  0  0  0  0  0
    7.3464  -15.7591   23.1532 N   0  0  0  0  0  0  0  0  0  0  0  0
    9.4111  -16.0033   22.0106 C   0  0  0  0  0  0  0  0  0  0  0  0
    9.9817  -15.5998   23.0518 O   0  0  0  0  0  0  0  0  0  0  0  0
   13.1228  -22.6540   18.3399 N   0  0  0  0  0  0  0  0  0  0  0  0
   13.1399  -22.4661   19.7388 C   0  0  0  0  0  0  0  0  0  0  0  0
   13.2016  -23.5148   20.4946 N   0  0  0  0  0  0  0  0  0  0  0  0
   13.0915  -21.1850   20.3394 N   0  0  0  0  0  0  0  0  0  0  0  0
   13.5351  -19.9809   19.6722 C   0  0  0  0  0  0  0  0  0  0  0  0
   13.2875  -18.8134   20.5979 C   0  0  0  0  0  0  0  0  0  0  0  0
   11.8937  -18.2933   20.5251 C   0  0  0  0  0  0  0  0  0  0  0  0
   11.5779  -17.1340   21.4020 C   0  0  2  0  0  0  0  0  0  0  0  0
   10.2126  -16.6934   21.0645 N   0  0  0  0  0  0  0  0  0  0  0  0
   12.4703  -15.9517   21.1700 C   0  0  0  0  0  0  0  0  0  0  0  0
   13.5750  -15.6969   21.9644 O   0  0  0  0  0  0  0  0  0  0  0  0
   12.2636  -15.1213   20.2357 O   0  0  0  0  0  0  0  0  0  0  0  0
  2  1  1  0
  3  2  2  0
  4  3  1  0
  5 11  1  0
  5  4  2  0
  6  5  1  0
  7  6  1  0
  7  8  1  1
  9  7  1  0
  9 18  1  0
 10  9  2  0
 11 12  2  0
 12  2  1  0
 13 14  1  0
 15 14  1  0
 16 15  1  0
 17 18  1  0
 17 16  1  1
 19 17  1  0
 20 19  2  0
 21 22  1  0
 22 23  2  0
 24 22  1  0
 24 25  1  0
 25 26  1  0
 27 26  1  0
 28 27  1  6
 28 29  1  0
 28 30  1  0
 29 19  1  0
 30 31  1  0
 32 30  2  0
M  END
$$$$
