YMR.pdb
     RDKit          3D

 32 32  0  0  1  0  0  0  0  0999 V2000
    7.1688  -14.4210   14.3003 O   0  0  0  0  0  0  0  0  0  0  0  0
    7.5298  -14.6772   15.6196 C   0  0  0  0  0  0  0  0  0  0  0  0
    7.4287  -15.9375   16.1303 C   0  0  0  0  0  0  0  0  0  0  0  0
    7.7759  -16.2281   17.4277 C   0  0  0  0  0  0  0  0  0  0  0  0
    8.2340  -15.2249   18.2233 C   0  0  0  0  0  0  0  0  0  0  0  0
    8.6179  -15.4996   19.6248 C   0  0  0  0  0  0  0  0  0  0  0  0
    9.0024  -14.1672   20.2342 C   0  0  2  0  0  0  0  0  0  0  0  0
   10.2377  -13.6975   19.6469 N   0  0  0  0  0  0  0  0  0  0  0  0
    9.1347  -14.2273   21.7113 C   0  0  0  0  0  0  0  0  0  0  0  0
   10.2650  -14.5384   22.1780 O   0  0  0  0  0  0  0  0  0  0  0  0
    8.3436  -13.9491   17.7294 C   0  0  0  0  0  0  0  0  0  0  0  0
    7.9981  -13.6401   16.4252 C   0  0  0  0  0  0  0  0  0  0  0  0
    6.3508  -12.0569   28.8223 C   0  0  0  0  0  0  0  0  0  0  0  0
    6.0456  -12.1753   27.0382 S   0  0  0  0  0  0  0  0  0  0  0  0
    7.3473  -13.1561   26.2361 C   0  0  0  0  0  0  0  0  0  0  0  0
    7.1624  -13.1696   24.7464 C   0  0  0  0  0  0  0  0  0  0  0  0
    8.2486  -13.9036   24.0144 C   0  0  2  0  0  0  0  0  0  0  0  0
    8.0446  -13.9495   22.5847 N   0  0  0  0  0  0  0  0  0  0  0  0
    8.2892  -15.2903   24.5265 C   0  0  0  0  0  0  0  0  0  0  0  0
    7.2877  -16.0237   24.3488 O   0  0  0  0  0  0  0  0  0  0  0  0
   12.4507  -19.5307   19.8044 N   0  0  0  0  0  0  0  0  0  0  0  0
   12.3549  -19.6125   21.2104 C   0  0  0  0  0  0  0  0  0  0  0  0
   12.1832  -20.7792   21.7434 N   0  0  0  0  0  0  0  0  0  0  0  0
   12.4381  -18.4759   22.0504 N   0  0  0  0  0  0  0  0  0  0  0  0
   12.2587  -18.5367   23.4842 C   0  0  0  0  0  0  0  0  0  0  0  0
   10.9209  -17.9193   23.8162 C   0  0  0  0  0  0  0  0  0  0  0  0
   10.6334  -17.8947   25.2774 C   0  0  0  0  0  0  0  0  0  0  0  0
    9.3520  -17.2582   25.6847 C   0  0  2  0  0  0  0  0  0  0  0  0
    9.3914  -15.8625   25.2131 N   0  0  0  0  0  0  0  0  0  0  0  0
    9.1651  -17.1945   27.1709 C   0  0  0  0  0  0  0  0  0  0  0  0
    9.3576  -16.0254   27.8868 O   0  0  0  0  0  0  0  0  0  0  0  0
    8.8211  -18.2050   27.8533 O   0  0  0  0  0  0  0  0  0  0  0  0
  2  1  1  0
  3  2  2  0
  4  3  1  0
  5 11  1  0
  5  4  2  0
  6  5  1  0
  7  6  1  0
  7  8  1  6
  9  7  1  0
  9 18  1  0
 10  9  2  0
 11 12  2  0
 12  2  1  0
 13 14  1  0
 15 14  1  0
 16 15  1  0
 17 18  1  0
 17 16  1  1
 19 17  1  0
 20 19  2  0
 21 22  1  0
 22 23  2  0
 24 22  1  0
 24 25  1  0
 25 26  1  0
 27 26  1  0
 28 27  1  1
 28 29  1  0
 28 30  1  0
 29 19  1  0
 30 31  1  0
 32 30  2  0
M  END
$$$$
