YMR.pdb
     RDKit          3D

 32 32  0  0  1  0  0  0  0  0999 V2000
    7.4737  -13.1550   14.8304 O   0  0  0  0  0  0  0  0  0  0  0  0
    7.4956  -13.7151   16.1040 C   0  0  0  0  0  0  0  0  0  0  0  0
    7.2887  -15.0522   16.2734 C   0  0  0  0  0  0  0  0  0  0  0  0
    7.3032  -15.6404   17.5153 C   0  0  0  0  0  0  0  0  0  0  0  0
    7.5313  -14.8612   18.6061 C   0  0  0  0  0  0  0  0  0  0  0  0
    7.5551  -15.4586   19.9587 C   0  0  0  0  0  0  0  0  0  0  0  0
    8.9318  -15.1822   20.5267 C   0  0  2  0  0  0  0  0  0  0  0  0
    9.9031  -16.0549   19.9049 N   0  0  0  0  0  0  0  0  0  0  0  0
    8.9862  -15.3338   22.0022 C   0  0  0  0  0  0  0  0  0  0  0  0
    9.9236  -16.0323   22.4771 O   0  0  0  0  0  0  0  0  0  0  0  0
    7.7421  -13.5131   18.4582 C   0  0  0  0  0  0  0  0  0  0  0  0
    7.7306  -12.9056   17.2146 C   0  0  0  0  0  0  0  0  0  0  0  0
    6.7910  -12.2886   29.0220 C   0  0  0  0  0  0  0  0  0  0  0  0
    6.4549  -12.4235   27.2447 S   0  0  0  0  0  0  0  0  0  0  0  0
    7.5877  -13.6163   26.4741 C   0  0  0  0  0  0  0  0  0  0  0  0
    7.3168  -13.7338   25.0023 C   0  0  0  0  0  0  0  0  0  0  0  0
    8.2877  -14.6256   24.2835 C   0  0  2  0  0  0  0  0  0  0  0  0
    8.0306  -14.7253   22.8652 N   0  0  0  0  0  0  0  0  0  0  0  0
    8.1899  -15.9780   24.8735 C   0  0  0  0  0  0  0  0  0  0  0  0
    7.1611  -16.6577   24.6453 O   0  0  0  0  0  0  0  0  0  0  0  0
   12.9462  -20.8697   30.4920 N   0  0  0  0  0  0  0  0  0  0  0  0
   12.7769  -20.3547   29.1887 C   0  0  0  0  0  0  0  0  0  0  0  0
   13.3964  -19.2613   28.8795 N   0  0  0  0  0  0  0  0  0  0  0  0
   11.9614  -20.9836   28.2173 N   0  0  0  0  0  0  0  0  0  0  0  0
   11.8191  -20.4916   26.8647 C   0  0  0  0  0  0  0  0  0  0  0  0
   10.4109  -19.9709   26.7007 C   0  0  0  0  0  0  0  0  0  0  0  0
   10.3535  -18.5017   26.4624 C   0  0  0  0  0  0  0  0  0  0  0  0
    8.9994  -17.9216   26.2558 C   0  0  2  0  0  0  0  0  0  0  0  0
    9.1863  -16.5738   25.6896 N   0  0  0  0  0  0  0  0  0  0  0  0
    8.2294  -17.7393   27.5293 C   0  0  0  0  0  0  0  0  0  0  0  0
    7.3759  -18.7132   28.0185 O   0  0  0  0  0  0  0  0  0  0  0  0
    8.3166  -16.6857   28.2274 O   0  0  0  0  0  0  0  0  0  0  0  0
  2  1  1  0
  3  2  2  0
  4  3  1  0
  5 11  1  0
  5  4  2  0
  6  5  1  0
  7  6  1  0
  7  8  1  6
  9  7  1  0
  9 18  1  0
 10  9  2  0
 11 12  2  0
 12  2  1  0
 13 14  1  0
 15 14  1  0
 16 15  1  0
 17 18  1  0
 17 16  1  1
 19 17  1  0
 20 19  2  0
 21 22  1  0
 22 23  2  0
 24 22  1  0
 24 25  1  0
 25 26  1  0
 27 26  1  0
 28 27  1  1
 28 29  1  0
 28 30  1  0
 29 19  1  0
 30 31  1  0
 32 30  2  0
M  END
$$$$
