YMR.pdb
     RDKit          3D

 32 32  0  0  1  0  0  0  0  0999 V2000
    7.6514  -13.7537   14.9363 O   0  0  0  0  0  0  0  0  0  0  0  0
    7.6535  -14.1339   16.2749 C   0  0  0  0  0  0  0  0  0  0  0  0
    7.7814  -13.1977   17.2580 C   0  0  0  0  0  0  0  0  0  0  0  0
    7.7876  -13.5356   18.5899 C   0  0  0  0  0  0  0  0  0  0  0  0
    7.6618  -14.8453   18.9337 C   0  0  0  0  0  0  0  0  0  0  0  0
    7.6634  -15.2471   20.3569 C   0  0  0  0  0  0  0  0  0  0  0  0
    8.8809  -14.6008   20.9848 C   0  0  2  0  0  0  0  0  0  0  0  0
   10.0838  -15.1360   20.3864 N   0  0  0  0  0  0  0  0  0  0  0  0
    8.9282  -14.7738   22.4582 C   0  0  0  0  0  0  0  0  0  0  0  0
    9.9157  -15.3978   22.9352 O   0  0  0  0  0  0  0  0  0  0  0  0
    7.5318  -15.8039   17.9601 C   0  0  0  0  0  0  0  0  0  0  0  0
    7.5238  -15.4799   16.6145 C   0  0  0  0  0  0  0  0  0  0  0  0
    6.2792   -9.8279   26.5823 C   0  0  0  0  0  0  0  0  0  0  0  0
    6.1995  -11.5587   27.1190 S   0  0  0  0  0  0  0  0  0  0  0  0
    7.5422  -12.5197   26.3616 C   0  0  0  0  0  0  0  0  0  0  0  0
    6.9904  -13.6240   25.5075 C   0  0  0  0  0  0  0  0  0  0  0  0
    8.0443  -14.3802   24.7512 C   0  0  2  0  0  0  0  0  0  0  0  0
    7.9123  -14.2651   23.3169 N   0  0  0  0  0  0  0  0  0  0  0  0
    7.9350  -15.8085   25.1184 C   0  0  0  0  0  0  0  0  0  0  0  0
    7.2084  -16.5528   24.4181 O   0  0  0  0  0  0  0  0  0  0  0  0
   12.7667  -19.9103   20.7851 N   0  0  0  0  0  0  0  0  0  0  0  0
   12.9351  -20.5898   22.0108 C   0  0  0  0  0  0  0  0  0  0  0  0
   13.6090  -21.6947   22.0083 N   0  0  0  0  0  0  0  0  0  0  0  0
   12.3982  -20.1122   23.2306 N   0  0  0  0  0  0  0  0  0  0  0  0
   11.5439  -18.9484   23.3174 C   0  0  0  0  0  0  0  0  0  0  0  0
   11.1574  -18.7572   24.7649 C   0  0  0  0  0  0  0  0  0  0  0  0
   10.2613  -17.5875   24.9824 C   0  0  0  0  0  0  0  0  0  0  0  0
    9.2677  -17.7161   26.0820 C   0  0  2  0  0  0  0  0  0  0  0  0
    8.5999  -16.4094   26.2187 N   0  0  0  0  0  0  0  0  0  0  0  0
    9.8891  -18.0117   27.4141 C   0  0  0  0  0  0  0  0  0  0  0  0
   10.3011  -17.0069   28.2726 O   0  0  0  0  0  0  0  0  0  0  0  0
   10.0715  -19.1952   27.8276 O   0  0  0  0  0  0  0  0  0  0  0  0
  2  1  1  0
  3  2  2  0
  4  3  1  0
  5 11  1  0
  5  4  2  0
  6  5  1  0
  7  6  1  0
  7  8  1  6
  9  7  1  0
  9 18  1  0
 10  9  2  0
 11 12  2  0
 12  2  1  0
 13 14  1  0
 15 14  1  0
 16 15  1  0
 17 18  1  0
 17 16  1  1
 19 17  1  0
 20 19  2  0
 21 22  1  0
 22 23  2  0
 24 22  1  0
 24 25  1  0
 25 26  1  0
 27 26  1  0
 28 27  1  6
 28 29  1  0
 28 30  1  0
 29 19  1  0
 30 31  1  0
 32 30  2  0
M  END
$$$$
