YMR.pdb
     RDKit          3D

 32 32  0  0  1  0  0  0  0  0999 V2000
    0.8607  -21.7482   21.7931 O   0  0  0  0  0  0  0  0  0  0  0  0
    1.8196  -20.7399   21.7935 C   0  0  0  0  0  0  0  0  0  0  0  0
    3.1006  -21.0059   22.1780 C   0  0  0  0  0  0  0  0  0  0  0  0
    4.0740  -20.0361   22.1910 C   0  0  0  0  0  0  0  0  0  0  0  0
    3.7453  -18.7734   21.8077 C   0  0  0  0  0  0  0  0  0  0  0  0
    4.7662  -17.7034   21.8080 C   0  0  0  0  0  0  0  0  0  0  0  0
    5.6688  -17.9707   22.9947 C   0  0  2  0  0  0  0  0  0  0  0  0
    4.8747  -18.0927   24.1972 N   0  0  0  0  0  0  0  0  0  0  0  0
    6.7050  -16.9237   23.1762 C   0  0  0  0  0  0  0  0  0  0  0  0
    7.5376  -16.7665   22.2413 O   0  0  0  0  0  0  0  0  0  0  0  0
    2.4619  -18.4838   21.4170 C   0  0  0  0  0  0  0  0  0  0  0  0
    1.4702  -19.4492   21.3984 C   0  0  0  0  0  0  0  0  0  0  0  0
    7.6567  -11.8148   27.5221 C   0  0  0  0  0  0  0  0  0  0  0  0
    6.1373  -11.9956   26.5481 S   0  0  0  0  0  0  0  0  0  0  0  0
    6.3508  -13.2698   25.2710 C   0  0  0  0  0  0  0  0  0  0  0  0
    7.5497  -14.1237   25.5660 C   0  0  0  0  0  0  0  0  0  0  0  0
    7.8332  -15.1461   24.5035 C   0  0  2  0  0  0  0  0  0  0  0  0
    6.7755  -16.1183   24.3488 N   0  0  0  0  0  0  0  0  0  0  0  0
    9.0744  -15.8593   24.8744 C   0  0  0  0  0  0  0  0  0  0  0  0
    9.1147  -16.4579   25.9755 O   0  0  0  0  0  0  0  0  0  0  0  0
   11.6013  -20.9139   18.9436 N   0  0  0  0  0  0  0  0  0  0  0  0
   11.7216  -19.5209   18.7498 C   0  0  0  0  0  0  0  0  0  0  0  0
   11.8870  -19.0848   17.5426 N   0  0  0  0  0  0  0  0  0  0  0  0
   11.6694  -18.5925   19.8174 N   0  0  0  0  0  0  0  0  0  0  0  0
   11.4762  -18.9824   21.1966 C   0  0  0  0  0  0  0  0  0  0  0  0
   11.5176  -17.7349   22.0470 C   0  0  0  0  0  0  0  0  0  0  0  0
   11.2479  -17.9988   23.4879 C   0  0  0  0  0  0  0  0  0  0  0  0
   11.3503  -16.8288   24.4009 C   0  0  2  0  0  0  0  0  0  0  0  0
   10.2398  -15.9191   24.0670 N   0  0  0  0  0  0  0  0  0  0  0  0
   12.6109  -16.0383   24.2164 C   0  0  0  0  0  0  0  0  0  0  0  0
   12.6015  -14.7411   23.7334 O   0  0  0  0  0  0  0  0  0  0  0  0
   13.7530  -16.5126   24.4918 O   0  0  0  0  0  0  0  0  0  0  0  0
  2  1  1  0
  3  2  2  0
  4  3  1  0
  5 11  1  0
  5  4  2  0
  6  5  1  0
  7  6  1  0
  7  8  1  1
  9  7  1  0
  9 18  1  0
 10  9  2  0
 11 12  2  0
 12  2  1  0
 13 14  1  0
 15 14  1  0
 16 15  1  0
 17 18  1  0
 17 16  1  1
 19 17  1  0
 20 19  2  0
 21 22  1  0
 22 23  2  0
 24 22  1  0
 24 25  1  0
 25 26  1  0
 27 26  1  0
 28 27  1  6
 28 29  1  0
 28 30  1  0
 29 19  1  0
 30 31  1  0
 32 30  2  0
M  END
$$$$
