YMR.pdb
     RDKit          3D

 32 32  0  0  1  0  0  0  0  0999 V2000
   11.7711  -16.9630   31.6280 O   0  0  0  0  0  0  0  0  0  0  0  0
   11.2216  -17.1792   30.3680 C   0  0  0  0  0  0  0  0  0  0  0  0
   11.0339  -18.4481   29.9054 C   0  0  0  0  0  0  0  0  0  0  0  0
   10.4941  -18.7001   28.6671 C   0  0  0  0  0  0  0  0  0  0  0  0
   10.1374  -17.6486   27.8821 C   0  0  0  0  0  0  0  0  0  0  0  0
    9.5527  -17.8805   26.5437 C   0  0  0  0  0  0  0  0  0  0  0  0
    8.0573  -17.6874   26.6885 C   0  0  2  0  0  0  0  0  0  0  0  0
    7.3956  -18.9733   26.6993 N   0  0  0  0  0  0  0  0  0  0  0  0
    7.4821  -16.8309   25.6216 C   0  0  0  0  0  0  0  0  0  0  0  0
    6.7148  -17.3847   24.7869 O   0  0  0  0  0  0  0  0  0  0  0  0
   10.3176  -16.3632   28.3281 C   0  0  0  0  0  0  0  0  0  0  0  0
   10.8599  -16.0927   29.5725 C   0  0  0  0  0  0  0  0  0  0  0  0
    7.3369  -11.8624   28.4314 C   0  0  0  0  0  0  0  0  0  0  0  0
    6.6837  -11.3741   26.8112 S   0  0  0  0  0  0  0  0  0  0  0  0
    6.1395  -12.8361   25.8804 C   0  0  0  0  0  0  0  0  0  0  0  0
    7.1250  -13.1772   24.8006 C   0  0  0  0  0  0  0  0  0  0  0  0
    7.1756  -14.6425   24.4766 C   0  0  2  0  0  0  0  0  0  0  0  0
    7.7706  -15.4396   25.5246 N   0  0  0  0  0  0  0  0  0  0  0  0
    7.9785  -14.8115   23.2464 C   0  0  0  0  0  0  0  0  0  0  0  0
    8.9078  -15.6533   23.2489 O   0  0  0  0  0  0  0  0  0  0  0  0
   10.5981  -14.3301   16.8925 N   0  0  0  0  0  0  0  0  0  0  0  0
    9.7359  -13.9424   15.8441 C   0  0  0  0  0  0  0  0  0  0  0  0
   10.0305  -14.3184   14.6413 N   0  0  0  0  0  0  0  0  0  0  0  0
    8.5727  -13.1642   16.0581 N   0  0  0  0  0  0  0  0  0  0  0  0
    8.1361  -12.7377   17.3693 C   0  0  0  0  0  0  0  0  0  0  0  0
    8.4970  -13.8201   18.3589 C   0  0  0  0  0  0  0  0  0  0  0  0
    8.0179  -13.5346   19.7401 C   0  0  0  0  0  0  0  0  0  0  0  0
    8.2603  -14.5969   20.7527 C   0  0  2  0  0  0  0  0  0  0  0  0
    7.7737  -14.0835   22.0456 N   0  0  0  0  0  0  0  0  0  0  0  0
    9.7128  -14.9142   20.9465 C   0  0  0  0  0  0  0  0  0  0  0  0
   10.3049  -16.0275   20.3753 O   0  0  0  0  0  0  0  0  0  0  0  0
   10.4779  -14.1826   21.6425 O   0  0  0  0  0  0  0  0  0  0  0  0
  2  1  1  0
  3  2  2  0
  4  3  1  0
  5 11  1  0
  5  4  2  0
  6  5  1  0
  7  6  1  0
  7  8  1  6
  9  7  1  0
  9 18  1  0
 10  9  2  0
 11 12  2  0
 12  2  1  0
 13 14  1  0
 15 14  1  0
 16 15  1  0
 17 18  1  0
 17 16  1  1
 19 17  1  0
 20 19  2  0
 21 22  1  0
 22 23  2  0
 24 22  1  0
 24 25  1  0
 25 26  1  0
 27 26  1  0
 28 27  1  6
 28 29  1  0
 28 30  1  0
 29 19  1  0
 30 31  1  0
 32 30  2  0
M  END
$$$$
