YMR.pdb
     RDKit          3D

 32 32  0  0  1  0  0  0  0  0999 V2000
    6.4212  -19.6268   15.5943 O   0  0  0  0  0  0  0  0  0  0  0  0
    6.9540  -19.1890   16.8029 C   0  0  0  0  0  0  0  0  0  0  0  0
    6.1471  -18.6353   17.7525 C   0  0  0  0  0  0  0  0  0  0  0  0
    6.6375  -18.1921   18.9573 C   0  0  0  0  0  0  0  0  0  0  0  0
    7.9691  -18.3113   19.2060 C   0  0  0  0  0  0  0  0  0  0  0  0
    8.5332  -17.8463   20.4915 C   0  0  0  0  0  0  0  0  0  0  0  0
    8.3502  -16.3430   20.5225 C   0  0  2  0  0  0  0  0  0  0  0  0
    9.1828  -15.7266   19.5135 N   0  0  0  0  0  0  0  0  0  0  0  0
    8.6472  -15.7549   21.8525 C   0  0  0  0  0  0  0  0  0  0  0  0
    9.8212  -15.8899   22.2948 O   0  0  0  0  0  0  0  0  0  0  0  0
    8.7991  -18.8657   18.2640 C   0  0  0  0  0  0  0  0  0  0  0  0
    8.3210  -19.3168   17.0460 C   0  0  0  0  0  0  0  0  0  0  0  0
    6.5894  -10.9074   27.7862 C   0  0  0  0  0  0  0  0  0  0  0  0
    6.5217  -11.3826   26.0370 S   0  0  0  0  0  0  0  0  0  0  0  0
    7.3117  -12.9994   25.7883 C   0  0  0  0  0  0  0  0  0  0  0  0
    6.9759  -13.5535   24.4342 C   0  0  0  0  0  0  0  0  0  0  0  0
    7.9911  -14.5323   23.9187 C   0  0  2  0  0  0  0  0  0  0  0  0
    7.6635  -15.0629   22.6153 N   0  0  0  0  0  0  0  0  0  0  0  0
    8.0698  -15.6568   24.8759 C   0  0  0  0  0  0  0  0  0  0  0  0
    7.3418  -16.6593   24.6828 O   0  0  0  0  0  0  0  0  0  0  0  0
   14.5037  -19.0170   26.4350 N   0  0  0  0  0  0  0  0  0  0  0  0
   14.2571  -19.9516   25.4062 C   0  0  0  0  0  0  0  0  0  0  0  0
   15.1338  -20.8819   25.2040 N   0  0  0  0  0  0  0  0  0  0  0  0
   13.0978  -19.9083   24.5948 N   0  0  0  0  0  0  0  0  0  0  0  0
   12.3713  -18.6890   24.3170 C   0  0  0  0  0  0  0  0  0  0  0  0
   11.5039  -18.3769   25.5134 C   0  0  0  0  0  0  0  0  0  0  0  0
   10.5567  -17.2528   25.2731 C   0  0  0  0  0  0  0  0  0  0  0  0
    9.6356  -16.9186   26.3923 C   0  0  2  0  0  0  0  0  0  0  0  0
    8.9191  -15.6880   26.0122 N   0  0  0  0  0  0  0  0  0  0  0  0
   10.3461  -16.6115   27.6764 C   0  0  0  0  0  0  0  0  0  0  0  0
   10.7380  -15.3267   28.0110 O   0  0  0  0  0  0  0  0  0  0  0  0
   10.6268  -17.5090   28.5254 O   0  0  0  0  0  0  0  0  0  0  0  0
  2  1  1  0
  3  2  2  0
  4  3  1  0
  5 11  1  0
  5  4  2  0
  6  5  1  0
  7  6  1  0
  7  8  1  6
  9  7  1  0
  9 18  1  0
 10  9  2  0
 11 12  2  0
 12  2  1  0
 13 14  1  0
 15 14  1  0
 16 15  1  0
 17 18  1  0
 17 16  1  1
 19 17  1  0
 20 19  2  0
 21 22  1  0
 22 23  2  0
 24 22  1  0
 24 25  1  0
 25 26  1  0
 27 26  1  0
 28 27  1  6
 28 29  1  0
 28 30  1  0
 29 19  1  0
 30 31  1  0
 32 30  2  0
M  END
$$$$
