YMR.pdb
     RDKit          3D

 32 32  0  0  1  0  0  0  0  0999 V2000
    7.3185  -14.7704   14.2797 O   0  0  0  0  0  0  0  0  0  0  0  0
    7.6709  -14.4452   15.5860 C   0  0  0  0  0  0  0  0  0  0  0  0
    8.8072  -14.9548   16.1414 C   0  0  0  0  0  0  0  0  0  0  0  0
    9.1871  -14.6560   17.4277 C   0  0  0  0  0  0  0  0  0  0  0  0
    8.4027  -13.8260   18.1660 C   0  0  0  0  0  0  0  0  0  0  0  0
    8.7795  -13.4809   19.5537 C   0  0  0  0  0  0  0  0  0  0  0  0
    8.7399  -14.7726   20.3438 C   0  0  2  0  0  0  0  0  0  0  0  0
    7.4489  -15.4049   20.1856 N   0  0  0  0  0  0  0  0  0  0  0  0
    9.0334  -14.5743   21.7852 C   0  0  0  0  0  0  0  0  0  0  0  0
   10.2083  -14.2333   22.0940 O   0  0  0  0  0  0  0  0  0  0  0  0
    7.2547  -13.3019   17.6264 C   0  0  0  0  0  0  0  0  0  0  0  0
    6.8583  -13.5931   16.3326 C   0  0  0  0  0  0  0  0  0  0  0  0
    7.2365  -10.9551   27.9802 C   0  0  0  0  0  0  0  0  0  0  0  0
    6.3670  -12.2059   26.9956 S   0  0  0  0  0  0  0  0  0  0  0  0
    7.5462  -13.4068   26.3119 C   0  0  0  0  0  0  0  0  0  0  0  0
    7.2868  -13.6354   24.8511 C   0  0  0  0  0  0  0  0  0  0  0  0
    8.3485  -14.4539   24.1749 C   0  0  2  0  0  0  0  0  0  0  0  0
    8.0453  -14.7559   22.7948 N   0  0  0  0  0  0  0  0  0  0  0  0
    8.4844  -15.7275   24.9140 C   0  0  0  0  0  0  0  0  0  0  0  0
    7.5672  -16.5769   24.8170 O   0  0  0  0  0  0  0  0  0  0  0  0
   15.3025  -17.4806   22.0832 N   0  0  0  0  0  0  0  0  0  0  0  0
   15.1810  -17.2994   23.4778 C   0  0  0  0  0  0  0  0  0  0  0  0
   15.7390  -16.2594   24.0089 N   0  0  0  0  0  0  0  0  0  0  0  0
   14.4787  -18.2052   24.3089 N   0  0  0  0  0  0  0  0  0  0  0  0
   13.0892  -18.5513   24.1057 C   0  0  0  0  0  0  0  0  0  0  0  0
   12.2633  -17.7866   25.1128 C   0  0  0  0  0  0  0  0  0  0  0  0
   10.7964  -17.9482   24.9112 C   0  0  0  0  0  0  0  0  0  0  0  0
    9.9244  -17.4737   26.0190 C   0  0  2  0  0  0  0  0  0  0  0  0
    9.5903  -16.0664   25.7362 N   0  0  0  0  0  0  0  0  0  0  0  0
   10.6022  -17.4840   27.3563 C   0  0  0  0  0  0  0  0  0  0  0  0
   10.6260  -18.6108   28.1601 O   0  0  0  0  0  0  0  0  0  0  0  0
   11.1900  -16.4640   27.8245 O   0  0  0  0  0  0  0  0  0  0  0  0
  2  1  1  0
  3  2  2  0
  4  3  1  0
  5 11  1  0
  5  4  2  0
  6  5  1  0
  7  6  1  0
  7  8  1  1
  9  7  1  0
  9 18  1  0
 10  9  2  0
 11 12  2  0
 12  2  1  0
 13 14  1  0
 15 14  1  0
 16 15  1  0
 17 18  1  0
 17 16  1  1
 19 17  1  0
 20 19  2  0
 21 22  1  0
 22 23  2  0
 24 22  1  0
 24 25  1  0
 25 26  1  0
 27 26  1  0
 28 27  1  6
 28 29  1  0
 28 30  1  0
 29 19  1  0
 30 31  1  0
 32 30  2  0
M  END
$$$$
