YMR.pdb
     RDKit          3D

 32 32  0  0  1  0  0  0  0  0999 V2000
    7.1905  -13.9838   14.3348 O   0  0  0  0  0  0  0  0  0  0  0  0
    7.4575  -14.4180   15.6296 C   0  0  0  0  0  0  0  0  0  0  0  0
    8.2422  -13.6728   16.4592 C   0  0  0  0  0  0  0  0  0  0  0  0
    8.5274  -14.0694   17.7437 C   0  0  0  0  0  0  0  0  0  0  0  0
    8.0089  -15.2419   18.1972 C   0  0  0  0  0  0  0  0  0  0  0  0
    8.2932  -15.7011   19.5739 C   0  0  0  0  0  0  0  0  0  0  0  0
    9.1688  -14.6405   20.2086 C   0  0  2  0  0  0  0  0  0  0  0  0
   10.4930  -14.6865   19.6291 N   0  0  0  0  0  0  0  0  0  0  0  0
    9.2570  -14.7751   21.6841 C   0  0  0  0  0  0  0  0  0  0  0  0
   10.2887  -15.3297   22.1531 O   0  0  0  0  0  0  0  0  0  0  0  0
    7.2166  -16.0075   17.3787 C   0  0  0  0  0  0  0  0  0  0  0  0
    6.9201  -15.6221   16.0829 C   0  0  0  0  0  0  0  0  0  0  0  0
    5.0219  -12.2195   26.6717 C   0  0  0  0  0  0  0  0  0  0  0  0
    6.7963  -12.0335   26.9988 S   0  0  0  0  0  0  0  0  0  0  0  0
    7.7313  -13.3726   26.2034 C   0  0  0  0  0  0  0  0  0  0  0  0
    7.6073  -13.2943   24.7095 C   0  0  0  0  0  0  0  0  0  0  0  0
    8.4224  -14.3268   23.9856 C   0  0  2  0  0  0  0  0  0  0  0  0
    8.2314  -14.3052   22.5535 N   0  0  0  0  0  0  0  0  0  0  0  0
    8.0264  -15.6590   24.4909 C   0  0  0  0  0  0  0  0  0  0  0  0
    6.8218  -15.9973   24.4070 O   0  0  0  0  0  0  0  0  0  0  0  0
    9.9906  -23.0320   28.9320 N   0  0  0  0  0  0  0  0  0  0  0  0
   10.3415  -21.6648   28.9313 C   0  0  0  0  0  0  0  0  0  0  0  0
   10.9617  -21.1936   29.9648 N   0  0  0  0  0  0  0  0  0  0  0  0
   10.0420  -20.7984   27.8524 N   0  0  0  0  0  0  0  0  0  0  0  0
    8.7372  -20.2081   27.6502 C   0  0  0  0  0  0  0  0  0  0  0  0
    8.7899  -18.7777   28.1324 C   0  0  0  0  0  0  0  0  0  0  0  0
    9.2528  -17.8236   27.0865 C   0  0  0  0  0  0  0  0  0  0  0  0
    8.4170  -17.7373   25.8590 C   0  0  2  0  0  0  0  0  0  0  0  0
    8.9189  -16.5973   25.0713 N   0  0  0  0  0  0  0  0  0  0  0  0
    6.9728  -17.4496   26.1413 C   0  0  0  0  0  0  0  0  0  0  0  0
    5.9838  -18.4005   25.9569 O   0  0  0  0  0  0  0  0  0  0  0  0
    6.5778  -16.3224   26.5636 O   0  0  0  0  0  0  0  0  0  0  0  0
  2  1  1  0
  3  2  2  0
  4  3  1  0
  5 11  1  0
  5  4  2  0
  6  5  1  0
  7  6  1  0
  7  8  1  6
  9  7  1  0
  9 18  1  0
 10  9  2  0
 11 12  2  0
 12  2  1  0
 13 14  1  0
 15 14  1  0
 16 15  1  0
 17 18  1  0
 17 16  1  1
 19 17  1  0
 20 19  2  0
 21 22  1  0
 22 23  2  0
 24 22  1  0
 24 25  1  0
 25 26  1  0
 27 26  1  0
 28 27  1  1
 28 29  1  0
 28 30  1  0
 29 19  1  0
 30 31  1  0
 32 30  2  0
M  END
$$$$
