YMR.pdb
     RDKit          3D

 32 32  0  0  1  0  0  0  0  0999 V2000
    8.3396  -19.0041   14.9382 O   0  0  0  0  0  0  0  0  0  0  0  0
    8.2965  -18.6640   16.2868 C   0  0  0  0  0  0  0  0  0  0  0  0
    9.4472  -18.3988   16.9687 C   0  0  0  0  0  0  0  0  0  0  0  0
    9.4436  -18.0597   18.3003 C   0  0  0  0  0  0  0  0  0  0  0  0
    8.2535  -17.9874   18.9543 C   0  0  0  0  0  0  0  0  0  0  0  0
    8.2098  -17.6248   20.3874 C   0  0  0  0  0  0  0  0  0  0  0  0
    8.1785  -16.1116   20.4472 C   0  0  2  0  0  0  0  0  0  0  0  0
    9.1058  -15.5634   19.4823 N   0  0  0  0  0  0  0  0  0  0  0  0
    8.4842  -15.5832   21.8001 C   0  0  0  0  0  0  0  0  0  0  0  0
    9.6971  -15.3745   22.0784 O   0  0  0  0  0  0  0  0  0  0  0  0
    7.0833  -18.2503   18.2870 C   0  0  0  0  0  0  0  0  0  0  0  0
    7.0700  -18.5932   16.9461 C   0  0  0  0  0  0  0  0  0  0  0  0
    8.1873  -11.2180   27.7139 C   0  0  0  0  0  0  0  0  0  0  0  0
    7.6777  -11.6934   26.0392 S   0  0  0  0  0  0  0  0  0  0  0  0
    7.0759  -13.4073   26.0222 C   0  0  0  0  0  0  0  0  0  0  0  0
    6.7827  -13.8548   24.6196 C   0  0  0  0  0  0  0  0  0  0  0  0
    7.8120  -14.7960   24.0634 C   0  0  2  0  0  0  0  0  0  0  0  0
    7.4668  -15.3156   22.7601 N   0  0  0  0  0  0  0  0  0  0  0  0
    7.9466  -15.9323   25.0001 C   0  0  0  0  0  0  0  0  0  0  0  0
    7.0296  -16.7865   25.0408 O   0  0  0  0  0  0  0  0  0  0  0  0
   12.3113  -20.5134   20.2059 N   0  0  0  0  0  0  0  0  0  0  0  0
   13.0654  -20.3848   21.3923 C   0  0  0  0  0  0  0  0  0  0  0  0
   14.3308  -20.6515   21.3429 N   0  0  0  0  0  0  0  0  0  0  0  0
   12.4934  -19.9797   22.6223 N   0  0  0  0  0  0  0  0  0  0  0  0
   11.8849  -18.6831   22.8232 C   0  0  0  0  0  0  0  0  0  0  0  0
   11.3477  -18.6306   24.2339 C   0  0  0  0  0  0  0  0  0  0  0  0
   10.4657  -17.4562   24.4816 C   0  0  0  0  0  0  0  0  0  0  0  0
    9.8346  -17.3801   25.8265 C   0  0  2  0  0  0  0  0  0  0  0  0
    9.0510  -16.1326   25.8684 N   0  0  0  0  0  0  0  0  0  0  0  0
   10.8280  -17.2901   26.9460 C   0  0  0  0  0  0  0  0  0  0  0  0
   11.2079  -18.3986   27.6829 O   0  0  0  0  0  0  0  0  0  0  0  0
   11.3741  -16.1966   27.2793 O   0  0  0  0  0  0  0  0  0  0  0  0
  2  1  1  0
  3  2  2  0
  4  3  1  0
  5 11  1  0
  5  4  2  0
  6  5  1  0
  7  6  1  0
  7  8  1  6
  9  7  1  0
  9 18  1  0
 10  9  2  0
 11 12  2  0
 12  2  1  0
 13 14  1  0
 15 14  1  0
 16 15  1  0
 17 18  1  0
 17 16  1  1
 19 17  1  0
 20 19  2  0
 21 22  1  0
 22 23  2  0
 24 22  1  0
 24 25  1  0
 25 26  1  0
 27 26  1  0
 28 27  1  6
 28 29  1  0
 28 30  1  0
 29 19  1  0
 30 31  1  0
 32 30  2  0
M  END
$$$$
