EIA.pdb
     RDKit          3D

 23 22  0  0  1  0  0  0  0  0999 V2000
   21.9006  -18.8438  -15.5054 N   0  0  0  0  0  0  0  0  0  0  0  0
   21.9837  -17.7452  -16.5007 C   0  0  1  0  0  0  0  0  0  0  0  0
   20.5668  -17.2638  -16.6407 C   0  0  0  0  0  0  0  0  0  0  0  0
   19.6887  -18.3278  -17.1823 C   0  0  0  0  0  0  0  0  0  0  0  0
   18.2863  -17.8612  -17.2305 C   0  0  0  0  0  0  0  0  0  0  0  0
   17.8680  -16.7300  -16.9151 O   0  0  0  0  0  0  0  0  0  0  0  0
   22.7888  -16.6395  -15.8706 C   0  0  0  0  0  0  0  0  0  0  0  0
   22.5827  -16.2094  -14.7101 O   0  0  0  0  0  0  0  0  0  0  0  0
   17.3291  -18.7907  -17.6785 O   0  0  0  0  0  0  0  0  0  0  0  0
   27.3414  -17.4594  -15.8959 C   0  0  0  0  0  0  0  0  0  0  0  0
   26.3559  -16.5626  -15.2247 C   0  0  0  0  0  0  0  0  0  0  0  0
   26.0703  -15.3111  -16.0056 C   0  0  2  0  0  0  0  0  0  0  0  0
   26.9130  -14.1721  -15.5430 C   0  0  0  0  0  0  0  0  0  0  0  0
   24.6174  -14.9111  -15.9666 C   0  0  2  0  0  0  0  0  0  0  0  0
   23.8655  -15.9937  -16.5710 N   0  0  0  0  0  0  0  0  0  0  0  0
   24.3293  -13.6779  -16.6904 C   0  0  0  0  0  0  0  0  0  0  0  0
   24.7797  -12.5482  -16.3559 O   0  0  0  0  0  0  0  0  0  0  0  0
   22.6075  -12.8785  -19.9587 C   0  0  0  0  0  0  0  0  0  0  0  0
   23.0569  -12.5472  -18.5506 C   0  0  2  0  0  0  0  0  0  0  0  0
   23.4997  -13.7193  -17.8384 N   0  0  0  0  0  0  0  0  0  0  0  0
   21.9109  -11.9109  -17.8466 C   0  0  0  0  0  0  0  0  0  0  0  0
   21.5106  -10.6285  -18.1442 O   0  0  0  0  0  0  0  0  0  0  0  0
   21.2753  -12.5394  -16.9529 O   0  0  0  0  0  0  0  0  0  0  0  0
  2  1  1  1
  2  7  1  0
  2  3  1  0
  3  4  1  0
  4  5  1  0
  5  9  1  0
  5  6  2  0
  7  8  2  0
 11 12  1  0
 11 10  1  0
 12 13  1  1
 14 12  1  0
 15  7  1  0
 14 15  1  6
 16 14  1  0
 17 16  2  0
 19 18  1  6
 19 20  1  0
 20 16  1  0
 21 22  1  0
 21 19  1  0
 23 21  2  0
M  END
$$$$
