EIA.pdb
     RDKit          3D

 23 22  0  0  1  0  0  0  0  0999 V2000
   19.9173  -21.3323  -11.1420 N   0  0  0  0  0  0  0  0  0  0  0  0
   20.2756  -21.5471  -12.5668 C   0  0  1  0  0  0  0  0  0  0  0  0
   19.1061  -20.9925  -13.3308 C   0  0  0  0  0  0  0  0  0  0  0  0
   18.6132  -21.9623  -14.3375 C   0  0  0  0  0  0  0  0  0  0  0  0
   17.4867  -22.7461  -13.7868 C   0  0  0  0  0  0  0  0  0  0  0  0
   16.6670  -22.3669  -12.9275 O   0  0  0  0  0  0  0  0  0  0  0  0
   21.4717  -20.6792  -12.8561 C   0  0  0  0  0  0  0  0  0  0  0  0
   21.4368  -19.4251  -12.8363 O   0  0  0  0  0  0  0  0  0  0  0  0
   17.3262  -24.0525  -14.2854 O   0  0  0  0  0  0  0  0  0  0  0  0
   25.9848  -21.2886  -10.3551 C   0  0  0  0  0  0  0  0  0  0  0  0
   24.8401  -20.7784  -11.1645 C   0  0  0  0  0  0  0  0  0  0  0  0
   25.0492  -20.9327  -12.6444 C   0  0  2  0  0  0  0  0  0  0  0  0
   26.3176  -20.2887  -13.0889 C   0  0  0  0  0  0  0  0  0  0  0  0
   23.8999  -20.3982  -13.4606 C   0  0  2  0  0  0  0  0  0  0  0  0
   22.7546  -21.2419  -13.1796 N   0  0  0  0  0  0  0  0  0  0  0  0
   24.1481  -20.4066  -14.8980 C   0  0  0  0  0  0  0  0  0  0  0  0
   24.4306  -21.4464  -15.5537 O   0  0  0  0  0  0  0  0  0  0  0  0
   23.6874  -17.8232  -17.6193 C   0  0  0  0  0  0  0  0  0  0  0  0
   24.2711  -19.1004  -17.0512 C   0  0  2  0  0  0  0  0  0  0  0  0
   24.0747  -19.1934  -15.6265 N   0  0  0  0  0  0  0  0  0  0  0  0
   25.7220  -19.1216  -17.3804 C   0  0  0  0  0  0  0  0  0  0  0  0
   26.1872  -19.7227  -18.5273 O   0  0  0  0  0  0  0  0  0  0  0  0
   26.5653  -18.5837  -16.6075 O   0  0  0  0  0  0  0  0  0  0  0  0
  2  1  1  1
  2  7  1  0
  2  3  1  0
  3  4  1  0
  4  5  1  0
  5  9  1  0
  5  6  2  0
  7  8  2  0
 11 12  1  0
 11 10  1  0
 12 13  1  6
 14 12  1  0
 15  7  1  0
 14 15  1  6
 16 14  1  0
 17 16  2  0
 19 18  1  1
 19 20  1  0
 20 16  1  0
 21 22  1  0
 21 19  1  0
 23 21  2  0
M  END
$$$$
