EIA.pdb
     RDKit          3D

 23 22  0  0  1  0  0  0  0  0999 V2000
   19.4743  -11.4341  -19.6856 N   0  0  0  0  0  0  0  0  0  0  0  0
   20.2470  -10.1712  -19.5717 C   0  0  1  0  0  0  0  0  0  0  0  0
   19.4232   -9.1635  -20.3232 C   0  0  0  0  0  0  0  0  0  0  0  0
   19.4943   -9.3944  -21.7856 C   0  0  0  0  0  0  0  0  0  0  0  0
   18.6911   -8.3825  -22.5049 C   0  0  0  0  0  0  0  0  0  0  0  0
   18.1108   -7.4000  -22.0030 O   0  0  0  0  0  0  0  0  0  0  0  0
   20.2423   -9.7814  -18.1171 C   0  0  0  0  0  0  0  0  0  0  0  0
   19.2885  -10.0251  -17.3392 O   0  0  0  0  0  0  0  0  0  0  0  0
   18.5714   -8.5482  -23.8974 O   0  0  0  0  0  0  0  0  0  0  0  0
   23.3794  -10.2158  -13.2290 C   0  0  0  0  0  0  0  0  0  0  0  0
   22.4370   -9.3042  -13.9407 C   0  0  0  0  0  0  0  0  0  0  0  0
   22.2728   -9.6443  -15.3951 C   0  0  2  0  0  0  0  0  0  0  0  0
   23.5843   -9.6743  -16.1024 C   0  0  0  0  0  0  0  0  0  0  0  0
   21.3331   -8.7114  -16.1157 C   0  0  2  0  0  0  0  0  0  0  0  0
   21.3510   -9.0924  -17.5147 N   0  0  0  0  0  0  0  0  0  0  0  0
   21.7055   -7.3052  -16.0071 C   0  0  0  0  0  0  0  0  0  0  0  0
   22.8006   -6.8368  -16.4223 O   0  0  0  0  0  0  0  0  0  0  0  0
   19.8420   -4.1765  -14.9918 C   0  0  0  0  0  0  0  0  0  0  0  0
   21.1002   -4.9924  -15.2056 C   0  0  2  0  0  0  0  0  0  0  0  0
   20.8070   -6.3893  -15.4058 N   0  0  0  0  0  0  0  0  0  0  0  0
   21.9689   -4.8076  -14.0118 C   0  0  0  0  0  0  0  0  0  0  0  0
   22.9526   -3.8460  -13.9842 O   0  0  0  0  0  0  0  0  0  0  0  0
   21.8208   -5.5357  -12.9892 O   0  0  0  0  0  0  0  0  0  0  0  0
  2  1  1  1
  2  7  1  0
  2  3  1  0
  3  4  1  0
  4  5  1  0
  5  9  1  0
  5  6  2  0
  7  8  2  0
 11 12  1  0
 11 10  1  0
 12 13  1  6
 14 12  1  0
 15  7  1  0
 14 15  1  6
 16 14  1  0
 17 16  2  0
 19 18  1  1
 19 20  1  0
 20 16  1  0
 21 22  1  0
 21 19  1  0
 23 21  2  0
M  END
$$$$
