EIA.pdb
     RDKit          3D

 23 22  0  0  1  0  0  0  0  0999 V2000
   19.4515  -12.9684  -16.6740 N   0  0  0  0  0  0  0  0  0  0  0  0
   20.0412  -11.8156  -17.4005 C   0  0  1  0  0  0  0  0  0  0  0  0
   18.8518  -11.0437  -17.8989 C   0  0  0  0  0  0  0  0  0  0  0  0
   18.2163  -11.7219  -19.0533 C   0  0  0  0  0  0  0  0  0  0  0  0
   18.6410  -11.0870  -20.3194 C   0  0  0  0  0  0  0  0  0  0  0  0
   17.8962  -10.6250  -21.2059 O   0  0  0  0  0  0  0  0  0  0  0  0
   20.7497  -10.9664  -16.3784 C   0  0  0  0  0  0  0  0  0  0  0  0
   20.3099  -10.7674  -15.2203 O   0  0  0  0  0  0  0  0  0  0  0  0
   20.0276  -10.9964  -20.5435 O   0  0  0  0  0  0  0  0  0  0  0  0
   25.6883  -11.8765  -15.3306 C   0  0  0  0  0  0  0  0  0  0  0  0
   24.2806  -11.3923  -15.2319 C   0  0  0  0  0  0  0  0  0  0  0  0
   24.1186   -9.9599  -15.6557 C   0  0  2  0  0  0  0  0  0  0  0  0
   24.9163   -9.0403  -14.7958 C   0  0  0  0  0  0  0  0  0  0  0  0
   22.6798   -9.5104  -15.6748 C   0  0  2  0  0  0  0  0  0  0  0  0
   21.9990  -10.3169  -16.6690 N   0  0  0  0  0  0  0  0  0  0  0  0
   22.5102   -8.1023  -16.0159 C   0  0  0  0  0  0  0  0  0  0  0  0
   22.8332   -7.6080  -17.1305 O   0  0  0  0  0  0  0  0  0  0  0  0
   20.4076   -5.3153  -15.0430 C   0  0  0  0  0  0  0  0  0  0  0  0
   21.8274   -5.7937  -15.2663 C   0  0  2  0  0  0  0  0  0  0  0  0
   21.9538   -7.2147  -15.0617 N   0  0  0  0  0  0  0  0  0  0  0  0
   22.7094   -5.0507  -14.3262 C   0  0  0  0  0  0  0  0  0  0  0  0
   23.2971   -3.8596  -14.6858 O   0  0  0  0  0  0  0  0  0  0  0  0
   22.9399   -5.5011  -13.1679 O   0  0  0  0  0  0  0  0  0  0  0  0
  2  1  1  1
  2  7  1  0
  2  3  1  0
  3  4  1  0
  4  5  1  0
  5  9  1  0
  5  6  2  0
  7  8  2  0
 11 12  1  0
 11 10  1  0
 12 13  1  1
 14 12  1  0
 15  7  1  0
 14 15  1  6
 16 14  1  0
 17 16  2  0
 19 18  1  1
 19 20  1  0
 20 16  1  0
 21 22  1  0
 21 19  1  0
 23 21  2  0
M  END
$$$$
