EIA.pdb
     RDKit          3D

 23 22  0  0  1  0  0  0  0  0999 V2000
   23.5786  -22.5861  -18.0203 N   0  0  0  0  0  0  0  0  0  0  0  0
   23.5743  -21.3114  -17.2588 C   0  0  1  0  0  0  0  0  0  0  0  0
   22.1843  -21.2214  -16.6943 C   0  0  0  0  0  0  0  0  0  0  0  0
   21.1946  -20.9043  -17.7511 C   0  0  0  0  0  0  0  0  0  0  0  0
   21.2611  -19.4695  -18.1028 C   0  0  0  0  0  0  0  0  0  0  0  0
   21.4875  -18.9905  -19.2312 O   0  0  0  0  0  0  0  0  0  0  0  0
   24.5314  -21.4819  -16.1087 C   0  0  0  0  0  0  0  0  0  0  0  0
   24.8281  -22.5969  -15.6157 O   0  0  0  0  0  0  0  0  0  0  0  0
   21.0462  -18.5545  -17.0553 O   0  0  0  0  0  0  0  0  0  0  0  0
   28.2534  -18.5082  -16.5659 C   0  0  0  0  0  0  0  0  0  0  0  0
   27.9926  -19.7624  -15.8013 C   0  0  0  0  0  0  0  0  0  0  0  0
   27.1985  -19.5337  -14.5463 C   0  0  2  0  0  0  0  0  0  0  0  0
   28.0700  -19.5409  -13.3373 C   0  0  0  0  0  0  0  0  0  0  0  0
   26.0803  -20.5287  -14.3672 C   0  0  2  0  0  0  0  0  0  0  0  0
   25.1791  -20.3572  -15.4901 N   0  0  0  0  0  0  0  0  0  0  0  0
   25.3287  -20.3493  -13.1300 C   0  0  0  0  0  0  0  0  0  0  0  0
   24.6763  -19.3062  -12.8521 O   0  0  0  0  0  0  0  0  0  0  0  0
   25.2709  -20.2263  -10.0107 C   0  0  0  0  0  0  0  0  0  0  0  0
   24.6465  -21.2886  -10.8917 C   0  0  2  0  0  0  0  0  0  0  0  0
   25.3116  -21.3882  -12.1664 N   0  0  0  0  0  0  0  0  0  0  0  0
   23.2124  -20.9384  -11.0774 C   0  0  0  0  0  0  0  0  0  0  0  0
   22.3522  -20.8513  -10.0070 O   0  0  0  0  0  0  0  0  0  0  0  0
   22.7495  -20.7115  -12.2316 O   0  0  0  0  0  0  0  0  0  0  0  0
  2  1  1  6
  2  7  1  0
  2  3  1  0
  3  4  1  0
  4  5  1  0
  5  9  1  0
  5  6  2  0
  7  8  2  0
 11 12  1  0
 11 10  1  0
 12 13  1  1
 14 12  1  0
 15  7  1  0
 14 15  1  6
 16 14  1  0
 17 16  2  0
 19 18  1  1
 19 20  1  0
 20 16  1  0
 21 22  1  0
 21 19  1  0
 23 21  2  0
M  END
$$$$
