EIA.pdb
     RDKit          3D

 23 22  0  0  1  0  0  0  0  0999 V2000
   19.1608  -11.9711  -18.6558 N   0  0  0  0  0  0  0  0  0  0  0  0
   20.0840  -10.8140  -18.7720 C   0  0  1  0  0  0  0  0  0  0  0  0
   19.5032   -9.9866  -19.8842 C   0  0  0  0  0  0  0  0  0  0  0  0
   19.8436  -10.5540  -21.2104 C   0  0  0  0  0  0  0  0  0  0  0  0
   21.2273  -10.1907  -21.5845 C   0  0  0  0  0  0  0  0  0  0  0  0
   21.6069   -9.1046  -22.0644 O   0  0  0  0  0  0  0  0  0  0  0  0
   19.9638  -10.0243  -17.4954 C   0  0  0  0  0  0  0  0  0  0  0  0
   18.9304  -10.0137  -16.7839 O   0  0  0  0  0  0  0  0  0  0  0  0
   22.2137  -11.1729  -21.3763 O   0  0  0  0  0  0  0  0  0  0  0  0
   23.6032  -10.4474  -13.9121 C   0  0  0  0  0  0  0  0  0  0  0  0
   22.3447  -10.1697  -14.6638 C   0  0  0  0  0  0  0  0  0  0  0  0
   22.1409   -8.7095  -14.9535 C   0  0  2  0  0  0  0  0  0  0  0  0
   22.0820   -7.9051  -13.7002 C   0  0  0  0  0  0  0  0  0  0  0  0
   20.9118   -8.4396  -15.7836 C   0  0  2  0  0  0  0  0  0  0  0  0
   21.0455   -9.2169  -17.0003 N   0  0  0  0  0  0  0  0  0  0  0  0
   20.7418   -7.0353  -16.1396 C   0  0  0  0  0  0  0  0  0  0  0  0
   21.6581   -6.3218  -16.6319 O   0  0  0  0  0  0  0  0  0  0  0  0
   18.5610   -4.7967  -17.5262 C   0  0  0  0  0  0  0  0  0  0  0  0
   19.2362   -5.0132  -16.1876 C   0  0  2  0  0  0  0  0  0  0  0  0
   19.4875   -6.4093  -15.9324 N   0  0  0  0  0  0  0  0  0  0  0  0
   18.3525   -4.4415  -15.1360 C   0  0  0  0  0  0  0  0  0  0  0  0
   18.2704   -3.0835  -14.9303 O   0  0  0  0  0  0  0  0  0  0  0  0
   17.6524   -5.1968  -14.4030 O   0  0  0  0  0  0  0  0  0  0  0  0
  2  1  1  1
  2  7  1  0
  2  3  1  0
  3  4  1  0
  4  5  1  0
  5  9  1  0
  5  6  2  0
  7  8  2  0
 11 12  1  0
 11 10  1  0
 12 13  1  1
 14 12  1  0
 15  7  1  0
 14 15  1  6
 16 14  1  0
 17 16  2  0
 19 18  1  6
 19 20  1  0
 20 16  1  0
 21 22  1  0
 21 19  1  0
 23 21  2  0
M  END
$$$$
