EIA.pdb
     RDKit          3D

 23 22  0  0  1  0  0  0  0  0999 V2000
   20.7907  -11.5803  -16.2471 N   0  0  0  0  0  0  0  0  0  0  0  0
   21.3530  -10.3006  -15.7460 C   0  0  1  0  0  0  0  0  0  0  0  0
   22.8395  -10.5225  -15.7490 C   0  0  0  0  0  0  0  0  0  0  0  0
   23.1730  -11.9244  -16.0959 C   0  0  0  0  0  0  0  0  0  0  0  0
   24.6394  -12.1009  -16.1665 C   0  0  0  0  0  0  0  0  0  0  0  0
   25.5037  -11.2218  -15.9823 O   0  0  0  0  0  0  0  0  0  0  0  0
   21.0394   -9.2481  -16.7763 C   0  0  0  0  0  0  0  0  0  0  0  0
   21.4027   -9.3241  -17.9748 O   0  0  0  0  0  0  0  0  0  0  0  0
   25.1033  -13.3939  -16.4728 O   0  0  0  0  0  0  0  0  0  0  0  0
   16.5639   -8.2487  -18.8275 C   0  0  0  0  0  0  0  0  0  0  0  0
   18.0409   -8.1980  -18.6228 C   0  0  0  0  0  0  0  0  0  0  0  0
   18.4652   -7.1337  -17.6506 C   0  0  2  0  0  0  0  0  0  0  0  0
   17.9649   -5.7897  -18.0564 C   0  0  0  0  0  0  0  0  0  0  0  0
   19.9588   -7.0771  -17.4542 C   0  0  2  0  0  0  0  0  0  0  0  0
   20.2896   -8.0664  -16.4470 N   0  0  0  0  0  0  0  0  0  0  0  0
   20.4425   -5.7746  -17.0099 C   0  0  0  0  0  0  0  0  0  0  0  0
   20.5083   -4.7602  -17.7566 O   0  0  0  0  0  0  0  0  0  0  0  0
   20.3523   -3.3675  -14.8267 C   0  0  0  0  0  0  0  0  0  0  0  0
   21.4271   -4.3846  -15.1508 C   0  0  2  0  0  0  0  0  0  0  0  0
   20.8695   -5.6084  -15.6690 N   0  0  0  0  0  0  0  0  0  0  0  0
   22.1936   -4.6478  -13.9031 C   0  0  0  0  0  0  0  0  0  0  0  0
   22.8750   -3.6427  -13.2560 O   0  0  0  0  0  0  0  0  0  0  0  0
   22.2359   -5.8095  -13.4066 O   0  0  0  0  0  0  0  0  0  0  0  0
  2  1  1  6
  2  7  1  0
  2  3  1  0
  3  4  1  0
  4  5  1  0
  5  9  1  0
  5  6  2  0
  7  8  2  0
 11 12  1  0
 11 10  1  0
 12 13  1  6
 14 12  1  0
 15  7  1  0
 14 15  1  1
 16 14  1  0
 17 16  2  0
 19 18  1  1
 19 20  1  0
 20 16  1  0
 21 22  1  0
 21 19  1  0
 23 21  2  0
M  END
$$$$
