EIA.pdb
     RDKit          3D

 23 22  0  0  1  0  0  0  0  0999 V2000
   19.0452  -12.1388  -16.0337 N   0  0  0  0  0  0  0  0  0  0  0  0
   18.5774  -10.7664  -16.3535 C   0  0  1  0  0  0  0  0  0  0  0  0
   17.5313  -10.4794  -15.3132 C   0  0  0  0  0  0  0  0  0  0  0  0
   16.2686  -11.1972  -15.6085 C   0  0  0  0  0  0  0  0  0  0  0  0
   15.2362  -10.8531  -14.6074 C   0  0  0  0  0  0  0  0  0  0  0  0
   15.3824  -10.1183  -13.6110 O   0  0  0  0  0  0  0  0  0  0  0  0
   19.7381   -9.8378  -16.1121 C   0  0  0  0  0  0  0  0  0  0  0  0
   20.6439  -10.0666  -15.2746 O   0  0  0  0  0  0  0  0  0  0  0  0
   13.9598  -11.4134  -14.8020 O   0  0  0  0  0  0  0  0  0  0  0  0
   21.7896   -8.2593  -20.3148 C   0  0  0  0  0  0  0  0  0  0  0  0
   22.0389   -8.4341  -18.8542 C   0  0  0  0  0  0  0  0  0  0  0  0
   21.4874   -7.3101  -18.0233 C   0  0  2  0  0  0  0  0  0  0  0  0
   22.4660   -6.1936  -17.8930 C   0  0  0  0  0  0  0  0  0  0  0  0
   21.0438   -7.7537  -16.6525 C   0  0  2  0  0  0  0  0  0  0  0  0
   19.8859   -8.6064  -16.8392 N   0  0  0  0  0  0  0  0  0  0  0  0
   20.6781   -6.6516  -15.7697 C   0  0  0  0  0  0  0  0  0  0  0  0
   19.6772   -5.9072  -15.9566 O   0  0  0  0  0  0  0  0  0  0  0  0
   22.0240   -5.4431  -12.4331 C   0  0  0  0  0  0  0  0  0  0  0  0
   21.1951   -5.3158  -13.6946 C   0  0  2  0  0  0  0  0  0  0  0  0
   21.4731   -6.3770  -14.6292 N   0  0  0  0  0  0  0  0  0  0  0  0
   21.4963   -3.9921  -14.3035 C   0  0  0  0  0  0  0  0  0  0  0  0
   20.8144   -2.8583  -13.9257 O   0  0  0  0  0  0  0  0  0  0  0  0
   22.3922   -3.8794  -15.1882 O   0  0  0  0  0  0  0  0  0  0  0  0
  2  1  1  1
  2  7  1  0
  2  3  1  0
  3  4  1  0
  4  5  1  0
  5  9  1  0
  5  6  2  0
  7  8  2  0
 11 12  1  0
 11 10  1  0
 12 13  1  1
 14 12  1  0
 15  7  1  0
 14 15  1  6
 16 14  1  0
 17 16  2  0
 19 18  1  1
 19 20  1  0
 20 16  1  0
 21 22  1  0
 21 19  1  0
 23 21  2  0
M  END
$$$$
