EIA.pdb
     RDKit          3D

 23 22  0  0  1  0  0  0  0  0999 V2000
   26.8211  -22.2881  -16.4560 N   0  0  0  0  0  0  0  0  0  0  0  0
   26.6587  -21.0762  -15.6137 C   0  0  1  0  0  0  0  0  0  0  0  0
   26.0110  -20.0738  -16.5273 C   0  0  0  0  0  0  0  0  0  0  0  0
   26.9983  -19.0909  -17.0330 C   0  0  0  0  0  0  0  0  0  0  0  0
   27.6336  -19.5915  -18.2709 C   0  0  0  0  0  0  0  0  0  0  0  0
   27.0521  -19.9314  -19.3198 O   0  0  0  0  0  0  0  0  0  0  0  0
   25.6714  -21.4215  -14.5303 C   0  0  0  0  0  0  0  0  0  0  0  0
   24.7457  -22.2554  -14.6788 O   0  0  0  0  0  0  0  0  0  0  0  0
   29.0373  -19.6933  -18.2608 O   0  0  0  0  0  0  0  0  0  0  0  0
   25.2506  -20.9226   -8.3823 C   0  0  0  0  0  0  0  0  0  0  0  0
   24.6040  -21.2417   -9.6884 C   0  0  0  0  0  0  0  0  0  0  0  0
   25.4564  -20.8807  -10.8721 C   0  0  2  0  0  0  0  0  0  0  0  0
   25.8899  -19.4556  -10.8211 C   0  0  0  0  0  0  0  0  0  0  0  0
   24.7792  -21.1543  -12.1909 C   0  0  2  0  0  0  0  0  0  0  0  0
   25.7270  -20.8069  -13.2318 N   0  0  0  0  0  0  0  0  0  0  0  0
   23.5567  -20.3847  -12.3928 C   0  0  0  0  0  0  0  0  0  0  0  0
   23.4503  -19.1565  -12.1259 O   0  0  0  0  0  0  0  0  0  0  0  0
   21.2319  -19.4371  -14.3647 C   0  0  0  0  0  0  0  0  0  0  0  0
   21.1553  -20.3533  -13.1608 C   0  0  2  0  0  0  0  0  0  0  0  0
   22.4066  -21.0254  -12.9170 N   0  0  0  0  0  0  0  0  0  0  0  0
   20.0722  -21.3422  -13.4116 C   0  0  0  0  0  0  0  0  0  0  0  0
   18.7594  -20.9497  -13.5376 O   0  0  0  0  0  0  0  0  0  0  0  0
   20.3365  -22.5739  -13.5153 O   0  0  0  0  0  0  0  0  0  0  0  0
  2  1  1  6
  2  7  1  0
  2  3  1  0
  3  4  1  0
  4  5  1  0
  5  9  1  0
  5  6  2  0
  7  8  2  0
 11 12  1  0
 11 10  1  0
 12 13  1  1
 14 12  1  0
 15  7  1  0
 14 15  1  6
 16 14  1  0
 17 16  2  0
 19 18  1  6
 19 20  1  0
 20 16  1  0
 21 22  1  0
 21 19  1  0
 23 21  2  0
M  END
$$$$
