EIA.pdb
     RDKit          3D

 23 22  0  0  1  0  0  0  0  0999 V2000
   20.1817  -20.7382  -12.2271 N   0  0  0  0  0  0  0  0  0  0  0  0
   21.0633  -21.4555  -13.1826 C   0  0  1  0  0  0  0  0  0  0  0  0
   20.3494  -21.3448  -14.5006 C   0  0  0  0  0  0  0  0  0  0  0  0
   19.2766  -22.3608  -14.6177 C   0  0  0  0  0  0  0  0  0  0  0  0
   17.9562  -21.7449  -14.3652 C   0  0  0  0  0  0  0  0  0  0  0  0
   17.3430  -20.9652  -15.1202 O   0  0  0  0  0  0  0  0  0  0  0  0
   22.3419  -20.6660  -13.2805 C   0  0  0  0  0  0  0  0  0  0  0  0
   22.3767  -19.4152  -13.3718 O   0  0  0  0  0  0  0  0  0  0  0  0
   17.3308  -22.0745  -13.1482 O   0  0  0  0  0  0  0  0  0  0  0  0
   25.9837  -21.0022   -9.7110 C   0  0  0  0  0  0  0  0  0  0  0  0
   25.1386  -20.5737  -10.8634 C   0  0  0  0  0  0  0  0  0  0  0  0
   25.7173  -20.9606  -12.1951 C   0  0  2  0  0  0  0  0  0  0  0  0
   27.0942  -20.4185  -12.3727 C   0  0  0  0  0  0  0  0  0  0  0  0
   24.8555  -20.5373  -13.3572 C   0  0  2  0  0  0  0  0  0  0  0  0
   23.6291  -21.3065  -13.2752 N   0  0  0  0  0  0  0  0  0  0  0  0
   25.4706  -20.7715  -14.6589 C   0  0  0  0  0  0  0  0  0  0  0  0
   25.9193  -21.8903  -15.0303 O   0  0  0  0  0  0  0  0  0  0  0  0
   26.0495  -18.5591  -17.6966 C   0  0  0  0  0  0  0  0  0  0  0  0
   26.2213  -19.8156  -16.8681 C   0  0  2  0  0  0  0  0  0  0  0  0
   25.5849  -19.7008  -15.5801 N   0  0  0  0  0  0  0  0  0  0  0  0
   27.6806  -20.0582  -16.7093 C   0  0  0  0  0  0  0  0  0  0  0  0
   28.3233  -21.0473  -17.4177 O   0  0  0  0  0  0  0  0  0  0  0  0
   28.3671  -19.3554  -15.9139 O   0  0  0  0  0  0  0  0  0  0  0  0
  2  1  1  1
  2  7  1  0
  2  3  1  0
  3  4  1  0
  4  5  1  0
  5  9  1  0
  5  6  2  0
  7  8  2  0
 11 12  1  0
 11 10  1  0
 12 13  1  6
 14 12  1  0
 15  7  1  0
 14 15  1  6
 16 14  1  0
 17 16  2  0
 19 18  1  6
 19 20  1  0
 20 16  1  0
 21 22  1  0
 21 19  1  0
 23 21  2  0
M  END
$$$$
