EIA.pdb
     RDKit          3D

 23 22  0  0  1  0  0  0  0  0999 V2000
   19.2269  -14.1270  -17.3250 N   0  0  0  0  0  0  0  0  0  0  0  0
   19.5492  -12.7794  -17.8586 C   0  0  1  0  0  0  0  0  0  0  0  0
   18.2828  -12.3363  -18.5360 C   0  0  0  0  0  0  0  0  0  0  0  0
   18.0511  -13.0922  -19.7897 C   0  0  0  0  0  0  0  0  0  0  0  0
   16.8650  -12.5631  -20.4966 C   0  0  0  0  0  0  0  0  0  0  0  0
   16.3773  -12.9974  -21.5584 O   0  0  0  0  0  0  0  0  0  0  0  0
   19.7799  -11.8797  -16.6732 C   0  0  0  0  0  0  0  0  0  0  0  0
   19.1471  -11.9815  -15.5946 O   0  0  0  0  0  0  0  0  0  0  0  0
   16.2237  -11.4569  -19.9084 O   0  0  0  0  0  0  0  0  0  0  0  0
   24.2526  -11.7003  -14.5620 C   0  0  0  0  0  0  0  0  0  0  0  0
   22.8031  -11.5378  -14.8760 C   0  0  0  0  0  0  0  0  0  0  0  0
   22.4166  -10.1130  -15.1562 C   0  0  2  0  0  0  0  0  0  0  0  0
   22.7057   -9.2277  -13.9926 C   0  0  0  0  0  0  0  0  0  0  0  0
   20.9710   -9.9627  -15.5566 C   0  0  2  0  0  0  0  0  0  0  0  0
   20.7584  -10.8267  -16.7015 N   0  0  0  0  0  0  0  0  0  0  0  0
   20.6029   -8.5994  -15.9222 C   0  0  0  0  0  0  0  0  0  0  0  0
   21.2059   -7.9225  -16.7991 O   0  0  0  0  0  0  0  0  0  0  0  0
   17.6556   -6.3932  -15.0218 C   0  0  0  0  0  0  0  0  0  0  0  0
   19.0302   -6.6547  -15.6021 C   0  0  2  0  0  0  0  0  0  0  0  0
   19.5101   -7.9732  -15.2728 N   0  0  0  0  0  0  0  0  0  0  0  0
   19.9524   -5.6157  -15.0696 C   0  0  0  0  0  0  0  0  0  0  0  0
   20.0770   -4.3885  -15.6793 O   0  0  0  0  0  0  0  0  0  0  0  0
   20.6471   -5.8395  -14.0375 O   0  0  0  0  0  0  0  0  0  0  0  0
  2  1  1  1
  2  7  1  0
  2  3  1  0
  3  4  1  0
  4  5  1  0
  5  9  1  0
  5  6  2  0
  7  8  2  0
 11 12  1  0
 11 10  1  0
 12 13  1  1
 14 12  1  0
 15  7  1  0
 14 15  1  6
 16 14  1  0
 17 16  2  0
 19 18  1  1
 19 20  1  0
 20 16  1  0
 21 22  1  0
 21 19  1  0
 23 21  2  0
M  END
$$$$
