EIA.pdb
     RDKit          3D

 23 22  0  0  1  0  0  0  0  0999 V2000
   20.7986  -20.7417  -12.8073 N   0  0  0  0  0  0  0  0  0  0  0  0
   21.4047  -20.3888  -14.1160 C   0  0  1  0  0  0  0  0  0  0  0  0
   20.4637  -19.3716  -14.6982 C   0  0  0  0  0  0  0  0  0  0  0  0
   19.5742  -19.9821  -15.7145 C   0  0  0  0  0  0  0  0  0  0  0  0
   18.6292  -20.9208  -15.0725 C   0  0  0  0  0  0  0  0  0  0  0  0
   18.4835  -22.1292  -15.3416 O   0  0  0  0  0  0  0  0  0  0  0  0
   22.7110  -19.6984  -13.8250 C   0  0  0  0  0  0  0  0  0  0  0  0
   22.8155  -18.7127  -13.0557 O   0  0  0  0  0  0  0  0  0  0  0  0
   17.8129  -20.3936  -14.0543 O   0  0  0  0  0  0  0  0  0  0  0  0
   26.3449  -21.7623  -11.2640 C   0  0  0  0  0  0  0  0  0  0  0  0
   25.5093  -20.7761  -12.0091 C   0  0  0  0  0  0  0  0  0  0  0  0
   26.0536  -20.4524  -13.3717 C   0  0  2  0  0  0  0  0  0  0  0  0
   27.4528  -19.9445  -13.2965 C   0  0  0  0  0  0  0  0  0  0  0  0
   25.1999  -19.4666  -14.1280 C   0  0  2  0  0  0  0  0  0  0  0  0
   23.9454  -20.1324  -14.4206 N   0  0  0  0  0  0  0  0  0  0  0  0
   25.7957  -19.0157  -15.3808 C   0  0  0  0  0  0  0  0  0  0  0  0
   26.0422  -19.7795  -16.3539 O   0  0  0  0  0  0  0  0  0  0  0  0
   27.2129  -15.6736  -16.5047 C   0  0  0  0  0  0  0  0  0  0  0  0
   26.8048  -17.1192  -16.7008 C   0  0  2  0  0  0  0  0  0  0  0  0
   26.1272  -17.6477  -15.5438 N   0  0  0  0  0  0  0  0  0  0  0  0
   28.0364  -17.9032  -16.9876 C   0  0  0  0  0  0  0  0  0  0  0  0
   28.4454  -18.1473  -18.2785 O   0  0  0  0  0  0  0  0  0  0  0  0
   28.7392  -18.3658  -16.0442 O   0  0  0  0  0  0  0  0  0  0  0  0
  2  1  1  1
  2  7  1  0
  2  3  1  0
  3  4  1  0
  4  5  1  0
  5  9  1  0
  5  6  2  0
  7  8  2  0
 11 12  1  0
 11 10  1  0
 12 13  1  1
 14 12  1  0
 15  7  1  0
 14 15  1  6
 16 14  1  0
 17 16  2  0
 19 18  1  1
 19 20  1  0
 20 16  1  0
 21 22  1  0
 21 19  1  0
 23 21  2  0
M  END
$$$$
