EIA.pdb
     RDKit          3D

 23 22  0  0  1  0  0  0  0  0999 V2000
   21.1835  -20.4246  -11.1607 N   0  0  0  0  0  0  0  0  0  0  0  0
   21.7949  -21.0276  -12.3721 C   0  0  1  0  0  0  0  0  0  0  0  0
   20.7705  -20.8125  -13.4506 C   0  0  0  0  0  0  0  0  0  0  0  0
   19.5839  -21.6764  -13.2449 C   0  0  0  0  0  0  0  0  0  0  0  0
   18.6265  -21.5077  -14.3591 C   0  0  0  0  0  0  0  0  0  0  0  0
   18.7496  -20.7428  -15.3357 O   0  0  0  0  0  0  0  0  0  0  0  0
   23.0067  -20.2008  -12.7122 C   0  0  0  0  0  0  0  0  0  0  0  0
   23.0869  -18.9684  -12.4909 O   0  0  0  0  0  0  0  0  0  0  0  0
   17.4587  -22.2917  -14.3092 O   0  0  0  0  0  0  0  0  0  0  0  0
   25.9988  -21.7975  -10.7611 C   0  0  0  0  0  0  0  0  0  0  0  0
   26.5333  -20.5890  -11.4538 C   0  0  0  0  0  0  0  0  0  0  0  0
   26.5173  -20.7122  -12.9512 C   0  0  2  0  0  0  0  0  0  0  0  0
   27.7938  -20.2344  -13.5542 C   0  0  0  0  0  0  0  0  0  0  0  0
   25.3576  -19.9906  -13.5892 C   0  0  2  0  0  0  0  0  0  0  0  0
   24.1713  -20.7810  -13.3237 N   0  0  0  0  0  0  0  0  0  0  0  0
   25.4953  -19.8200  -15.0314 C   0  0  0  0  0  0  0  0  0  0  0  0
   25.4293  -20.7702  -15.8583 O   0  0  0  0  0  0  0  0  0  0  0  0
   26.1307  -16.7828  -17.2340 C   0  0  0  0  0  0  0  0  0  0  0  0
   25.9090  -18.2572  -16.9664 C   0  0  2  0  0  0  0  0  0  0  0  0
   25.7165  -18.5255  -15.5635 N   0  0  0  0  0  0  0  0  0  0  0  0
   27.0944  -18.9948  -17.4807 C   0  0  0  0  0  0  0  0  0  0  0  0
   27.0666  -19.6347  -18.6984 O   0  0  0  0  0  0  0  0  0  0  0  0
   28.1612  -19.0500  -16.8048 O   0  0  0  0  0  0  0  0  0  0  0  0
  2  1  1  1
  2  7  1  0
  2  3  1  0
  3  4  1  0
  4  5  1  0
  5  9  1  0
  5  6  2  0
  7  8  2  0
 11 12  1  0
 11 10  1  0
 12 13  1  6
 14 12  1  0
 15  7  1  0
 14 15  1  6
 16 14  1  0
 17 16  2  0
 19 18  1  1
 19 20  1  0
 20 16  1  0
 21 22  1  0
 21 19  1  0
 23 21  2  0
M  END
$$$$
