EIA.pdb
     RDKit          3D

 23 22  0  0  1  0  0  0  0  0999 V2000
   18.1611  -13.5654  -16.0724 N   0  0  0  0  0  0  0  0  0  0  0  0
   18.4941  -12.3866  -16.9114 C   0  0  1  0  0  0  0  0  0  0  0  0
   17.1890  -12.0082  -17.5539 C   0  0  0  0  0  0  0  0  0  0  0  0
   16.8612  -12.9151  -18.6794 C   0  0  0  0  0  0  0  0  0  0  0  0
   15.6096  -12.4840  -19.3384 C   0  0  0  0  0  0  0  0  0  0  0  0
   15.5128  -11.8395  -20.4010 O   0  0  0  0  0  0  0  0  0  0  0  0
   18.8885  -11.2758  -15.9742 C   0  0  0  0  0  0  0  0  0  0  0  0
   18.3388  -11.0808  -14.8633 O   0  0  0  0  0  0  0  0  0  0  0  0
   14.4074  -12.8390  -18.6986 O   0  0  0  0  0  0  0  0  0  0  0  0
   23.5007  -10.7071  -14.0162 C   0  0  0  0  0  0  0  0  0  0  0  0
   22.0515  -10.5969  -14.3530 C   0  0  0  0  0  0  0  0  0  0  0  0
   21.7111   -9.3299  -15.0857 C   0  0  2  0  0  0  0  0  0  0  0  0
   22.1260   -8.1231  -14.3158 C   0  0  0  0  0  0  0  0  0  0  0  0
   20.2483   -9.2263  -15.4349 C   0  0  2  0  0  0  0  0  0  0  0  0
   19.9399  -10.3501  -16.2977 N   0  0  0  0  0  0  0  0  0  0  0  0
   19.8973   -7.9918  -16.1281 C   0  0  0  0  0  0  0  0  0  0  0  0
   20.4384   -7.6141  -17.2031 O   0  0  0  0  0  0  0  0  0  0  0  0
   17.1970   -5.3834  -15.6137 C   0  0  0  0  0  0  0  0  0  0  0  0
   18.5187   -5.8808  -16.1617 C   0  0  2  0  0  0  0  0  0  0  0  0
   18.8952   -7.1481  -15.5878 N   0  0  0  0  0  0  0  0  0  0  0  0
   19.5489   -4.8484  -15.8680 C   0  0  0  0  0  0  0  0  0  0  0  0
   19.6832   -3.7270  -16.6539 O   0  0  0  0  0  0  0  0  0  0  0  0
   20.3293   -4.9800  -14.8823 O   0  0  0  0  0  0  0  0  0  0  0  0
  2  1  1  1
  2  7  1  0
  2  3  1  0
  3  4  1  0
  4  5  1  0
  5  9  1  0
  5  6  2  0
  7  8  2  0
 11 12  1  0
 11 10  1  0
 12 13  1  1
 14 12  1  0
 15  7  1  0
 14 15  1  6
 16 14  1  0
 17 16  2  0
 19 18  1  1
 19 20  1  0
 20 16  1  0
 21 22  1  0
 21 19  1  0
 23 21  2  0
M  END
$$$$
