GWQ.pdb
     RDKit          3D

 28 29  0  0  1  0  0  0  0  0999 V2000
    7.9201  -18.6558   18.9498 N   0  0  0  0  0  0  0  0  0  0  0  0
    7.2135  -17.9321   19.9860 C   0  0  0  0  0  0  0  0  0  0  0  0
    8.2368  -17.1890   20.7781 C   0  0  0  0  0  0  0  0  0  0  0  0
    9.4628  -17.3456   20.5460 O   0  0  0  0  0  0  0  0  0  0  0  0
    7.8865  -16.2876   21.8105 N   0  0  0  0  0  0  0  0  0  0  0  0
    8.9145  -15.6256   22.5539 C   0  0  1  0  0  0  0  0  0  0  0  0
    8.5410  -14.2373   22.9923 C   0  0  0  0  0  0  0  0  0  0  0  0
    7.5337  -14.2306   24.0757 C   0  0  0  0  0  0  0  0  0  0  0  0
    6.3872  -14.9421   24.2396 C   0  0  0  0  0  0  0  0  0  0  0  0
    5.7884  -14.5960   25.3910 N   0  0  0  0  0  0  0  0  0  0  0  0
    6.5416  -13.6609   25.9782 C   0  0  0  0  0  0  0  0  0  0  0  0
    6.3777  -12.9845   27.1564 C   0  0  0  0  0  0  0  0  0  0  0  0
    7.3158  -12.0557   27.5360 C   0  0  0  0  0  0  0  0  0  0  0  0
    8.4128  -11.7875   26.7663 C   0  0  0  0  0  0  0  0  0  0  0  0
    8.5746  -12.4698   25.5816 C   0  0  0  0  0  0  0  0  0  0  0  0
    7.6431  -13.4067   25.1831 C   0  0  0  0  0  0  0  0  0  0  0  0
    9.1715  -16.4260   23.7943 C   0  0  0  0  0  0  0  0  0  0  0  0
    8.3011  -17.2216   24.2241 O   0  0  0  0  0  0  0  0  0  0  0  0
   10.8234  -20.0364   21.4991 N   0  0  0  0  0  0  0  0  0  0  0  0
   12.0764  -20.1026   22.1224 C   0  0  0  0  0  0  0  0  0  0  0  0
   12.9010  -20.9963   21.8261 O   0  0  0  0  0  0  0  0  0  0  0  0
   12.5081  -19.1182   23.1744 C   0  0  0  0  0  0  0  0  0  0  0  0
   11.6563  -17.9059   23.1822 C   0  0  0  0  0  0  0  0  0  0  0  0
   11.2871  -17.4609   24.5559 C   0  0  2  0  0  0  0  0  0  0  0  0
   10.3848  -16.3144   24.5130 N   0  0  0  0  0  0  0  0  0  0  0  0
   12.4400  -17.1797   25.4346 C   0  0  0  0  0  0  0  0  0  0  0  0
   13.2572  -16.0906   25.1829 O   0  0  0  0  0  0  0  0  0  0  0  0
   12.7022  -17.9032   26.4086 O   0  0  0  0  0  0  0  0  0  0  0  0
  2  1  1  0
  3  2  1  0
  4  3  2  0
  5  3  1  0
  6  5  1  0
  7  8  1  0
  6  7  1  1
  8 16  1  0
  9 10  1  0
  9  8  2  0
 10 11  1  0
 11 16  2  0
 11 12  1  0
 12 13  2  0
 13 14  1  0
 15 14  2  0
 16 15  1  0
 17  6  1  0
 17 18  2  0
 20 22  1  0
 20 19  1  0
 21 20  2  0
 24 23  1  6
 23 22  1  0
 24 25  1  0
 25 17  1  0
 26 24  1  0
 27 26  1  0
 28 26  2  0
M  END
$$$$
