GWQ.pdb
     RDKit          3D

 28 29  0  0  1  0  0  0  0  0999 V2000
    5.8423  -16.1256   20.2369 N   0  0  0  0  0  0  0  0  0  0  0  0
    6.2865  -16.9558   21.3371 C   0  0  0  0  0  0  0  0  0  0  0  0
    7.4434  -16.2600   21.9728 C   0  0  0  0  0  0  0  0  0  0  0  0
    8.0733  -15.3671   21.3503 O   0  0  0  0  0  0  0  0  0  0  0  0
    7.8819  -16.5635   23.2830 N   0  0  0  0  0  0  0  0  0  0  0  0
    8.9838  -15.8454   23.8468 C   0  0  1  0  0  0  0  0  0  0  0  0
    8.8719  -15.6405   25.3316 C   0  0  0  0  0  0  0  0  0  0  0  0
    7.5972  -15.0024   25.7270 C   0  0  0  0  0  0  0  0  0  0  0  0
    6.3608  -15.5247   25.9417 C   0  0  0  0  0  0  0  0  0  0  0  0
    5.5014  -14.5523   26.2879 N   0  0  0  0  0  0  0  0  0  0  0  0
    6.1743  -13.3975   26.2997 C   0  0  0  0  0  0  0  0  0  0  0  0
    5.7662  -12.1226   26.5836 C   0  0  0  0  0  0  0  0  0  0  0  0
    6.6750  -11.0946   26.5204 C   0  0  0  0  0  0  0  0  0  0  0  0
    7.9808  -11.3109   26.1803 C   0  0  0  0  0  0  0  0  0  0  0  0
    8.3881  -12.5946   25.8953 C   0  0  0  0  0  0  0  0  0  0  0  0
    7.4900  -13.6407   25.9534 C   0  0  0  0  0  0  0  0  0  0  0  0
   10.2262  -16.6473   23.6044 C   0  0  0  0  0  0  0  0  0  0  0  0
   10.2856  -17.8461   23.9713 O   0  0  0  0  0  0  0  0  0  0  0  0
   12.4371  -14.3206   19.2366 N   0  0  0  0  0  0  0  0  0  0  0  0
   13.5868  -14.7734   19.8971 C   0  0  0  0  0  0  0  0  0  0  0  0
   14.6859  -14.8526   19.3038 O   0  0  0  0  0  0  0  0  0  0  0  0
   13.5769  -15.1887   21.3426 C   0  0  0  0  0  0  0  0  0  0  0  0
   13.2318  -16.6204   21.5057 C   0  0  0  0  0  0  0  0  0  0  0  0
   12.5517  -16.9130   22.7992 C   0  0  2  0  0  0  0  0  0  0  0  0
   11.3576  -16.0899   22.9639 N   0  0  0  0  0  0  0  0  0  0  0  0
   13.4251  -16.8012   23.9846 C   0  0  0  0  0  0  0  0  0  0  0  0
   14.5750  -17.5670   24.0762 O   0  0  0  0  0  0  0  0  0  0  0  0
   13.1539  -16.0275   24.9167 O   0  0  0  0  0  0  0  0  0  0  0  0
  2  1  1  0
  3  2  1  0
  4  3  2  0
  5  3  1  0
  6  5  1  0
  7  8  1  0
  6  7  1  1
  8 16  1  0
  9 10  1  0
  9  8  2  0
 10 11  1  0
 11 16  2  0
 11 12  1  0
 12 13  2  0
 13 14  1  0
 15 14  2  0
 16 15  1  0
 17  6  1  0
 17 18  2  0
 20 22  1  0
 20 19  1  0
 21 20  2  0
 24 23  1  6
 23 22  1  0
 24 25  1  0
 25 17  1  0
 26 24  1  0
 27 26  1  0
 28 26  2  0
M  END
$$$$
