GWQ.pdb
     RDKit          3D

 28 29  0  0  1  0  0  0  0  0999 V2000
    6.3199  -15.6151   19.6612 N   0  0  0  0  0  0  0  0  0  0  0  0
    6.4603  -16.4046   20.8670 C   0  0  0  0  0  0  0  0  0  0  0  0
    7.5385  -15.7726   21.6823 C   0  0  0  0  0  0  0  0  0  0  0  0
    8.1239  -14.7365   21.2757 O   0  0  0  0  0  0  0  0  0  0  0  0
    7.9492  -16.2969   22.9304 N   0  0  0  0  0  0  0  0  0  0  0  0
    8.9746  -15.6334   23.6761 C   0  0  1  0  0  0  0  0  0  0  0  0
    8.7416  -15.6444   25.1609 C   0  0  0  0  0  0  0  0  0  0  0  0
    7.5215  -14.9063   25.5544 C   0  0  0  0  0  0  0  0  0  0  0  0
    6.2379  -15.3202   25.7250 C   0  0  0  0  0  0  0  0  0  0  0  0
    5.4629  -14.2857   26.0900 N   0  0  0  0  0  0  0  0  0  0  0  0
    6.2376  -13.1987   26.1580 C   0  0  0  0  0  0  0  0  0  0  0  0
    5.9407  -11.9026   26.4810 C   0  0  0  0  0  0  0  0  0  0  0  0
    6.9406  -10.9607   26.4740 C   0  0  0  0  0  0  0  0  0  0  0  0
    8.2288  -11.2838   26.1521 C   0  0  0  0  0  0  0  0  0  0  0  0
    8.5241  -12.5887   25.8277 C   0  0  0  0  0  0  0  0  0  0  0  0
    7.5334  -13.5493   25.8290 C   0  0  0  0  0  0  0  0  0  0  0  0
   10.2637  -16.3555   23.4263 C   0  0  0  0  0  0  0  0  0  0  0  0
   10.3040  -17.6092   23.4710 O   0  0  0  0  0  0  0  0  0  0  0  0
   13.3619  -13.7940   18.7754 N   0  0  0  0  0  0  0  0  0  0  0  0
   13.9372  -14.6327   19.7391 C   0  0  0  0  0  0  0  0  0  0  0  0
   15.1686  -14.6139   19.9622 O   0  0  0  0  0  0  0  0  0  0  0  0
   13.1250  -15.5979   20.5581 C   0  0  0  0  0  0  0  0  0  0  0  0
   13.5924  -15.6633   21.9626 C   0  0  0  0  0  0  0  0  0  0  0  0
   12.6697  -16.4269   22.8498 C   0  0  2  0  0  0  0  0  0  0  0  0
   11.4610  -15.6604   23.1363 N   0  0  0  0  0  0  0  0  0  0  0  0
   13.2880  -16.9060   24.1022 C   0  0  0  0  0  0  0  0  0  0  0  0
   12.9565  -16.3178   25.3111 O   0  0  0  0  0  0  0  0  0  0  0  0
   14.1098  -17.8363   24.1028 O   0  0  0  0  0  0  0  0  0  0  0  0
  2  1  1  0
  3  2  1  0
  4  3  2  0
  5  3  1  0
  6  5  1  0
  7  8  1  0
  6  7  1  1
  8 16  1  0
  9 10  1  0
  9  8  2  0
 10 11  1  0
 11 16  2  0
 11 12  1  0
 12 13  2  0
 13 14  1  0
 15 14  2  0
 16 15  1  0
 17  6  1  0
 17 18  2  0
 20 22  1  0
 20 19  1  0
 21 20  2  0
 24 23  1  1
 23 22  1  0
 24 25  1  0
 25 17  1  0
 26 24  1  0
 27 26  1  0
 28 26  2  0
M  END
$$$$
