GWQ.pdb
     RDKit          3D

 28 29  0  0  1  0  0  0  0  0999 V2000
   10.4109  -17.1342   20.2515 N   0  0  0  0  0  0  0  0  0  0  0  0
    9.6663  -17.9809   21.1601 C   0  0  0  0  0  0  0  0  0  0  0  0
    9.8110  -17.3943   22.5246 C   0  0  0  0  0  0  0  0  0  0  0  0
   10.9124  -16.9199   22.9033 O   0  0  0  0  0  0  0  0  0  0  0  0
    8.7371  -17.3431   23.4440 N   0  0  0  0  0  0  0  0  0  0  0  0
    8.9640  -16.8680   24.7746 C   0  0  1  0  0  0  0  0  0  0  0  0
    7.7515  -16.2425   25.4051 C   0  0  0  0  0  0  0  0  0  0  0  0
    7.3733  -14.9606   24.7710 C   0  0  0  0  0  0  0  0  0  0  0  0
    7.1253  -14.6399   23.4736 C   0  0  0  0  0  0  0  0  0  0  0  0
    6.8146  -13.3373   23.3702 N   0  0  0  0  0  0  0  0  0  0  0  0
    6.8592  -12.8080   24.5968 C   0  0  0  0  0  0  0  0  0  0  0  0
    6.6279  -11.5321   25.0337 C   0  0  0  0  0  0  0  0  0  0  0  0
    6.7440  -11.2471   26.3724 C   0  0  0  0  0  0  0  0  0  0  0  0
    7.0856  -12.2066   27.2835 C   0  0  0  0  0  0  0  0  0  0  0  0
    7.3176  -13.4892   26.8406 C   0  0  0  0  0  0  0  0  0  0  0  0
    7.2060  -13.7952   25.4997 C   0  0  0  0  0  0  0  0  0  0  0  0
    9.3457  -18.0432   25.6224 C   0  0  0  0  0  0  0  0  0  0  0  0
    8.9690  -19.1981   25.3070 O   0  0  0  0  0  0  0  0  0  0  0  0
   13.4299  -21.4141   24.1196 N   0  0  0  0  0  0  0  0  0  0  0  0
   13.8669  -20.6609   25.2173 C   0  0  0  0  0  0  0  0  0  0  0  0
   15.0384  -20.2247   25.2785 O   0  0  0  0  0  0  0  0  0  0  0  0
   12.9702  -20.3311   26.3788 C   0  0  0  0  0  0  0  0  0  0  0  0
   12.0014  -19.2609   26.0448 C   0  0  0  0  0  0  0  0  0  0  0  0
   11.0564  -18.9611   27.1578 C   0  0  2  0  0  0  0  0  0  0  0  0
   10.1311  -17.8941   26.7894 N   0  0  0  0  0  0  0  0  0  0  0  0
   11.7109  -18.6570   28.4460 C   0  0  0  0  0  0  0  0  0  0  0  0
   11.6520  -17.3771   28.9712 O   0  0  0  0  0  0  0  0  0  0  0  0
   12.3224  -19.5298   29.0824 O   0  0  0  0  0  0  0  0  0  0  0  0
  2  1  1  0
  3  2  1  0
  4  3  2  0
  5  3  1  0
  6  5  1  0
  7  8  1  0
  6  7  1  1
  8 16  1  0
  9 10  1  0
  9  8  2  0
 10 11  1  0
 11 16  2  0
 11 12  1  0
 12 13  2  0
 13 14  1  0
 15 14  2  0
 16 15  1  0
 17  6  1  0
 17 18  2  0
 20 22  1  0
 20 19  1  0
 21 20  2  0
 24 23  1  6
 23 22  1  0
 24 25  1  0
 25 17  1  0
 26 24  1  0
 27 26  1  0
 28 26  2  0
M  END
$$$$
