GWQ.pdb
     RDKit          3D

 28 29  0  0  1  0  0  0  0  0999 V2000
    7.2350  -15.9257   19.2777 N   0  0  0  0  0  0  0  0  0  0  0  0
    7.1929  -16.6328   20.5407 C   0  0  0  0  0  0  0  0  0  0  0  0
    8.1617  -15.9583   21.4536 C   0  0  0  0  0  0  0  0  0  0  0  0
    9.0859  -15.2426   20.9897 O   0  0  0  0  0  0  0  0  0  0  0  0
    8.0910  -16.0872   22.8606 N   0  0  0  0  0  0  0  0  0  0  0  0
    9.2239  -15.7399   23.6629 C   0  0  1  0  0  0  0  0  0  0  0  0
    8.9338  -15.7213   25.1376 C   0  0  0  0  0  0  0  0  0  0  0  0
    7.6641  -15.0352   25.4627 C   0  0  0  0  0  0  0  0  0  0  0  0
    6.3885  -15.4982   25.5418 C   0  0  0  0  0  0  0  0  0  0  0  0
    5.5535  -14.4995   25.8727 N   0  0  0  0  0  0  0  0  0  0  0  0
    6.2814  -13.3868   26.0097 C   0  0  0  0  0  0  0  0  0  0  0  0
    5.9162  -12.1087   26.3344 C   0  0  0  0  0  0  0  0  0  0  0  0
    6.8788  -11.1315   26.4089 C   0  0  0  0  0  0  0  0  0  0  0  0
    8.1963  -11.4019   26.1667 C   0  0  0  0  0  0  0  0  0  0  0  0
    8.5602  -12.6888   25.8402 C   0  0  0  0  0  0  0  0  0  0  0  0
    7.6078  -13.6842   25.7604 C   0  0  0  0  0  0  0  0  0  0  0  0
   10.2826  -16.7754   23.4344 C   0  0  0  0  0  0  0  0  0  0  0  0
   10.0777  -17.7226   22.6369 O   0  0  0  0  0  0  0  0  0  0  0  0
   12.4486  -14.5502   19.0550 N   0  0  0  0  0  0  0  0  0  0  0  0
   13.3983  -14.7751   20.0602 C   0  0  0  0  0  0  0  0  0  0  0  0
   14.3678  -14.0000   20.2205 O   0  0  0  0  0  0  0  0  0  0  0  0
   13.3174  -15.9462   21.0003 C   0  0  0  0  0  0  0  0  0  0  0  0
   12.6888  -15.5789   22.2908 C   0  0  0  0  0  0  0  0  0  0  0  0
   12.7521  -16.6714   23.3027 C   0  0  2  0  0  0  0  0  0  0  0  0
   11.5300  -16.7224   24.0992 N   0  0  0  0  0  0  0  0  0  0  0  0
   13.9395  -16.6206   24.1790 C   0  0  0  0  0  0  0  0  0  0  0  0
   14.9585  -17.5452   24.0241 O   0  0  0  0  0  0  0  0  0  0  0  0
   14.0525  -15.7588   25.0652 O   0  0  0  0  0  0  0  0  0  0  0  0
  2  1  1  0
  3  2  1  0
  4  3  2  0
  5  3  1  0
  6  5  1  0
  7  8  1  0
  6  7  1  1
  8 16  1  0
  9 10  1  0
  9  8  2  0
 10 11  1  0
 11 16  2  0
 11 12  1  0
 12 13  2  0
 13 14  1  0
 15 14  2  0
 16 15  1  0
 17  6  1  0
 17 18  2  0
 20 22  1  0
 20 19  1  0
 21 20  2  0
 24 23  1  6
 23 22  1  0
 24 25  1  0
 25 17  1  0
 26 24  1  0
 27 26  1  0
 28 26  2  0
M  END
$$$$
