GWQ.pdb
     RDKit          3D

 28 29  0  0  1  0  0  0  0  0999 V2000
    6.2877  -15.7801   19.7024 N   0  0  0  0  0  0  0  0  0  0  0  0
    6.5079  -16.5992   20.8761 C   0  0  0  0  0  0  0  0  0  0  0  0
    7.5769  -15.9366   21.6793 C   0  0  0  0  0  0  0  0  0  0  0  0
    8.2070  -14.9516   21.2165 O   0  0  0  0  0  0  0  0  0  0  0  0
    7.9290  -16.3745   22.9775 N   0  0  0  0  0  0  0  0  0  0  0  0
    8.9669  -15.7010   23.6966 C   0  0  1  0  0  0  0  0  0  0  0  0
    8.7616  -15.6960   25.1855 C   0  0  0  0  0  0  0  0  0  0  0  0
    7.5506  -14.9512   25.5941 C   0  0  0  0  0  0  0  0  0  0  0  0
    6.2679  -15.3589   25.7849 C   0  0  0  0  0  0  0  0  0  0  0  0
    5.5027  -14.3197   26.1573 N   0  0  0  0  0  0  0  0  0  0  0  0
    6.2830  -13.2358   26.2099 C   0  0  0  0  0  0  0  0  0  0  0  0
    5.9964  -11.9372   26.5323 C   0  0  0  0  0  0  0  0  0  0  0  0
    7.0001  -10.9997   26.5072 C   0  0  0  0  0  0  0  0  0  0  0  0
    8.2821  -11.3296   26.1677 C   0  0  0  0  0  0  0  0  0  0  0  0
    8.5670  -12.6369   25.8439 C   0  0  0  0  0  0  0  0  0  0  0  0
    7.5723  -13.5932   25.8634 C   0  0  0  0  0  0  0  0  0  0  0  0
   10.2525  -16.4234   23.4307 C   0  0  0  0  0  0  0  0  0  0  0  0
   10.2932  -17.6770   23.4756 O   0  0  0  0  0  0  0  0  0  0  0  0
   15.1873  -14.7664   19.8703 N   0  0  0  0  0  0  0  0  0  0  0  0
   13.8093  -14.8844   19.6461 C   0  0  0  0  0  0  0  0  0  0  0  0
   13.3067  -14.5985   18.5361 O   0  0  0  0  0  0  0  0  0  0  0  0
   12.8555  -15.3557   20.7092 C   0  0  0  0  0  0  0  0  0  0  0  0
   13.5644  -15.8054   21.9302 C   0  0  0  0  0  0  0  0  0  0  0  0
   12.6701  -16.4927   22.9045 C   0  0  2  0  0  0  0  0  0  0  0  0
   11.4461  -15.7286   23.1250 N   0  0  0  0  0  0  0  0  0  0  0  0
   13.3131  -16.8230   24.1921 C   0  0  0  0  0  0  0  0  0  0  0  0
   12.8209  -16.2916   25.3721 O   0  0  0  0  0  0  0  0  0  0  0  0
   14.2985  -17.5759   24.2482 O   0  0  0  0  0  0  0  0  0  0  0  0
  2  1  1  0
  3  2  1  0
  4  3  2  0
  5  3  1  0
  6  5  1  0
  7  8  1  0
  6  7  1  1
  8 16  1  0
  9 10  1  0
  9  8  2  0
 10 11  1  0
 11 16  2  0
 11 12  1  0
 12 13  2  0
 13 14  1  0
 15 14  2  0
 16 15  1  0
 17  6  1  0
 17 18  2  0
 20 22  1  0
 20 19  1  0
 21 20  2  0
 24 23  1  6
 23 22  1  0
 24 25  1  0
 25 17  1  0
 26 24  1  0
 27 26  1  0
 28 26  2  0
M  END
$$$$
