GWQ.pdb
     RDKit          3D

 28 29  0  0  1  0  0  0  0  0999 V2000
    9.3436  -19.7423   19.9008 N   0  0  0  0  0  0  0  0  0  0  0  0
   10.3980  -18.8851   19.4003 C   0  0  0  0  0  0  0  0  0  0  0  0
   10.6018  -17.8051   20.4096 C   0  0  0  0  0  0  0  0  0  0  0  0
   11.5016  -16.9412   20.2492 O   0  0  0  0  0  0  0  0  0  0  0  0
    9.8083  -17.7000   21.5760 N   0  0  0  0  0  0  0  0  0  0  0  0
   10.0279  -16.6200   22.4889 C   0  0  1  0  0  0  0  0  0  0  0  0
    8.7762  -16.1468   23.1733 C   0  0  0  0  0  0  0  0  0  0  0  0
    7.7429  -15.6842   22.2210 C   0  0  0  0  0  0  0  0  0  0  0  0
    6.6152  -16.2857   21.7582 C   0  0  0  0  0  0  0  0  0  0  0  0
    5.9786  -15.4752   20.8970 N   0  0  0  0  0  0  0  0  0  0  0  0
    6.6881  -14.3469   20.7972 C   0  0  0  0  0  0  0  0  0  0  0  0
    6.4756  -13.2142   20.0594 C   0  0  0  0  0  0  0  0  0  0  0  0
    7.3758  -12.1797   20.1391 C   0  0  0  0  0  0  0  0  0  0  0  0
    8.4823  -12.2509   20.9380 C   0  0  0  0  0  0  0  0  0  0  0  0
    8.6930  -13.3919   21.6790 C   0  0  0  0  0  0  0  0  0  0  0  0
    7.8000  -14.4419   21.6124 C   0  0  0  0  0  0  0  0  0  0  0  0
   10.9590  -17.1051   23.5580 C   0  0  0  0  0  0  0  0  0  0  0  0
   10.8107  -18.2489   24.0531 O   0  0  0  0  0  0  0  0  0  0  0  0
   15.3000  -19.7477   22.2759 N   0  0  0  0  0  0  0  0  0  0  0  0
   15.4526  -18.3732   22.0513 C   0  0  0  0  0  0  0  0  0  0  0  0
   16.2288  -17.9433   21.1686 O   0  0  0  0  0  0  0  0  0  0  0  0
   14.7046  -17.3372   22.8446 C   0  0  0  0  0  0  0  0  0  0  0  0
   13.8004  -17.9512   23.8450 C   0  0  0  0  0  0  0  0  0  0  0  0
   13.1363  -16.9480   24.7248 C   0  0  2  0  0  0  0  0  0  0  0  0
   12.0205  -16.3035   24.0391 N   0  0  0  0  0  0  0  0  0  0  0  0
   14.0503  -15.9359   25.2909 C   0  0  0  0  0  0  0  0  0  0  0  0
   14.9945  -16.3018   26.2353 O   0  0  0  0  0  0  0  0  0  0  0  0
   13.9959  -14.7468   24.9389 O   0  0  0  0  0  0  0  0  0  0  0  0
  2  1  1  0
  3  2  1  0
  4  3  2  0
  5  3  1  0
  6  5  1  0
  7  8  1  0
  6  7  1  1
  8 16  1  0
  9 10  1  0
  9  8  2  0
 10 11  1  0
 11 16  2  0
 11 12  1  0
 12 13  2  0
 13 14  1  0
 15 14  2  0
 16 15  1  0
 17  6  1  0
 17 18  2  0
 20 22  1  0
 20 19  1  0
 21 20  2  0
 24 23  1  6
 23 22  1  0
 24 25  1  0
 25 17  1  0
 26 24  1  0
 27 26  1  0
 28 26  2  0
M  END
$$$$
