GWQ.pdb
     RDKit          3D

 28 29  0  0  1  0  0  0  0  0999 V2000
    5.3504  -19.7735   22.8977 N   0  0  0  0  0  0  0  0  0  0  0  0
    6.3419  -19.6980   23.9504 C   0  0  0  0  0  0  0  0  0  0  0  0
    7.1577  -18.4743   23.6979 C   0  0  0  0  0  0  0  0  0  0  0  0
    7.2591  -18.0015   22.5369 O   0  0  0  0  0  0  0  0  0  0  0  0
    7.8453  -17.7967   24.7319 N   0  0  0  0  0  0  0  0  0  0  0  0
    8.6411  -16.6486   24.4213 C   0  0  1  0  0  0  0  0  0  0  0  0
    8.7998  -15.6969   25.5738 C   0  0  0  0  0  0  0  0  0  0  0  0
    7.5518  -14.9685   25.8909 C   0  0  0  0  0  0  0  0  0  0  0  0
    6.3182  -15.4144   26.2475 C   0  0  0  0  0  0  0  0  0  0  0  0
    5.4879  -14.3759   26.4373 N   0  0  0  0  0  0  0  0  0  0  0  0
    6.1768  -13.2542   26.2055 C   0  0  0  0  0  0  0  0  0  0  0  0
    5.7988  -11.9402   26.2599 C   0  0  0  0  0  0  0  0  0  0  0  0
    6.7185  -10.9622   25.9693 C   0  0  0  0  0  0  0  0  0  0  0  0
    8.0058  -11.2666   25.6260 C   0  0  0  0  0  0  0  0  0  0  0  0
    8.3827  -12.5895   25.5722 C   0  0  0  0  0  0  0  0  0  0  0  0
    7.4733  -13.5865   25.8608 C   0  0  0  0  0  0  0  0  0  0  0  0
   10.0122  -17.1271   24.0521 C   0  0  0  0  0  0  0  0  0  0  0  0
   10.4310  -18.2316   24.4763 O   0  0  0  0  0  0  0  0  0  0  0  0
   13.6579  -17.3146   18.4443 N   0  0  0  0  0  0  0  0  0  0  0  0
   13.6096  -17.8626   19.7329 C   0  0  0  0  0  0  0  0  0  0  0  0
   13.3967  -19.0832   19.9102 O   0  0  0  0  0  0  0  0  0  0  0  0
   13.8076  -17.0327   20.9715 C   0  0  0  0  0  0  0  0  0  0  0  0
   12.5356  -16.4465   21.4551 C   0  0  0  0  0  0  0  0  0  0  0  0
   12.1425  -16.9389   22.8059 C   0  0  2  0  0  0  0  0  0  0  0  0
   10.8689  -16.3626   23.2260 N   0  0  0  0  0  0  0  0  0  0  0  0
   13.1695  -16.7404   23.8482 C   0  0  0  0  0  0  0  0  0  0  0  0
   12.9615  -15.8227   24.8640 O   0  0  0  0  0  0  0  0  0  0  0  0
   14.2314  -17.3832   23.8401 O   0  0  0  0  0  0  0  0  0  0  0  0
  2  1  1  0
  3  2  1  0
  4  3  2  0
  5  3  1  0
  6  5  1  0
  7  8  1  0
  6  7  1  1
  8 16  1  0
  9 10  1  0
  9  8  2  0
 10 11  1  0
 11 16  2  0
 11 12  1  0
 12 13  2  0
 13 14  1  0
 15 14  2  0
 16 15  1  0
 17  6  1  0
 17 18  2  0
 20 22  1  0
 20 19  1  0
 21 20  2  0
 24 23  1  6
 23 22  1  0
 24 25  1  0
 25 17  1  0
 26 24  1  0
 27 26  1  0
 28 26  2  0
M  END
$$$$
