GWQ.pdb
     RDKit          3D

 28 29  0  0  1  0  0  0  0  0999 V2000
    6.2202  -17.6106   19.9890 N   0  0  0  0  0  0  0  0  0  0  0  0
    6.4337  -17.9468   21.3812 C   0  0  0  0  0  0  0  0  0  0  0  0
    7.4795  -17.0182   21.9015 C   0  0  0  0  0  0  0  0  0  0  0  0
    8.0536  -16.2058   21.1321 O   0  0  0  0  0  0  0  0  0  0  0  0
    7.8709  -17.0047   23.2609 N   0  0  0  0  0  0  0  0  0  0  0  0
    8.8546  -16.0660   23.7070 C   0  0  1  0  0  0  0  0  0  0  0  0
    8.7804  -15.7706   25.1789 C   0  0  0  0  0  0  0  0  0  0  0  0
    7.5441  -15.0514   25.5568 C   0  0  0  0  0  0  0  0  0  0  0  0
    6.2787  -15.4963   25.7773 C   0  0  0  0  0  0  0  0  0  0  0  0
    5.4768  -14.4686   26.1009 N   0  0  0  0  0  0  0  0  0  0  0  0
    6.2159  -13.3550   26.0922 C   0  0  0  0  0  0  0  0  0  0  0  0
    5.8822  -12.0531   26.3493 C   0  0  0  0  0  0  0  0  0  0  0  0
    6.8497  -11.0813   26.2690 C   0  0  0  0  0  0  0  0  0  0  0  0
    8.1415  -11.3801   25.9381 C   0  0  0  0  0  0  0  0  0  0  0  0
    8.4739  -12.6909   25.6801 C   0  0  0  0  0  0  0  0  0  0  0  0
    7.5160  -13.6814   25.7557 C   0  0  0  0  0  0  0  0  0  0  0  0
   10.2059  -16.6574   23.4432 C   0  0  0  0  0  0  0  0  0  0  0  0
   10.4062  -17.8824   23.6290 O   0  0  0  0  0  0  0  0  0  0  0  0
   15.2392  -14.3977   19.5098 N   0  0  0  0  0  0  0  0  0  0  0  0
   13.9047  -14.8161   19.5948 C   0  0  0  0  0  0  0  0  0  0  0  0
   13.0010  -14.2331   18.9546 O   0  0  0  0  0  0  0  0  0  0  0  0
   13.4751  -15.9773   20.4487 C   0  0  0  0  0  0  0  0  0  0  0  0
   13.4450  -15.6259   21.8878 C   0  0  0  0  0  0  0  0  0  0  0  0
   12.5589  -16.5181   22.6880 C   0  0  2  0  0  0  0  0  0  0  0  0
   11.2857  -15.8681   22.9830 N   0  0  0  0  0  0  0  0  0  0  0  0
   13.1751  -17.0356   23.9261 C   0  0  0  0  0  0  0  0  0  0  0  0
   13.8235  -18.2591   23.9217 O   0  0  0  0  0  0  0  0  0  0  0  0
   13.1280  -16.3950   24.9883 O   0  0  0  0  0  0  0  0  0  0  0  0
  2  1  1  0
  3  2  1  0
  4  3  2  0
  5  3  1  0
  6  5  1  0
  7  8  1  0
  6  7  1  1
  8 16  1  0
  9 10  1  0
  9  8  2  0
 10 11  1  0
 11 16  2  0
 11 12  1  0
 12 13  2  0
 13 14  1  0
 15 14  2  0
 16 15  1  0
 17  6  1  0
 17 18  2  0
 20 22  1  0
 20 19  1  0
 21 20  2  0
 24 23  1  1
 23 22  1  0
 24 25  1  0
 25 17  1  0
 26 24  1  0
 27 26  1  0
 28 26  2  0
M  END
$$$$
