GWQ.pdb
     RDKit          3D

 28 29  0  0  1  0  0  0  0  0999 V2000
    7.2493  -20.1719   22.5613 N   0  0  0  0  0  0  0  0  0  0  0  0
    7.5467  -19.7254   23.9064 C   0  0  0  0  0  0  0  0  0  0  0  0
    8.3798  -18.4933   23.7856 C   0  0  0  0  0  0  0  0  0  0  0  0
    8.9658  -18.2206   22.7067 O   0  0  0  0  0  0  0  0  0  0  0  0
    8.5496  -17.5866   24.8581 N   0  0  0  0  0  0  0  0  0  0  0  0
    9.3649  -16.4238   24.6821 C   0  0  1  0  0  0  0  0  0  0  0  0
    9.0376  -15.3094   25.6362 C   0  0  0  0  0  0  0  0  0  0  0  0
    7.8718  -14.5086   25.2027 C   0  0  0  0  0  0  0  0  0  0  0  0
    7.0190  -14.6592   24.1549 C   0  0  0  0  0  0  0  0  0  0  0  0
    6.1014  -13.6784   24.1604 N   0  0  0  0  0  0  0  0  0  0  0  0
    6.3535  -12.8889   25.2090 C   0  0  0  0  0  0  0  0  0  0  0  0
    5.7202  -11.7621   25.6582 C   0  0  0  0  0  0  0  0  0  0  0  0
    6.1906  -11.1277   26.7820 C   0  0  0  0  0  0  0  0  0  0  0  0
    7.2781  -11.5927   27.4667 C   0  0  0  0  0  0  0  0  0  0  0  0
    7.9129  -12.7266   27.0121 C   0  0  0  0  0  0  0  0  0  0  0  0
    7.4553  -13.3780   25.8850 C   0  0  0  0  0  0  0  0  0  0  0  0
   10.7879  -16.8186   24.9363 C   0  0  0  0  0  0  0  0  0  0  0  0
   11.0854  -17.4857   25.9570 O   0  0  0  0  0  0  0  0  0  0  0  0
   14.3900  -19.6524   21.0747 N   0  0  0  0  0  0  0  0  0  0  0  0
   13.2704  -19.9754   21.8528 C   0  0  0  0  0  0  0  0  0  0  0  0
   12.5711  -20.9810   21.5957 O   0  0  0  0  0  0  0  0  0  0  0  0
   12.8402  -19.1469   23.0320 C   0  0  0  0  0  0  0  0  0  0  0  0
   13.5778  -17.8641   23.1069 C   0  0  0  0  0  0  0  0  0  0  0  0
   13.1607  -17.0175   24.2606 C   0  0  2  0  0  0  0  0  0  0  0  0
   11.8290  -16.4587   24.0489 N   0  0  0  0  0  0  0  0  0  0  0  0
   14.1201  -15.9510   24.6105 C   0  0  0  0  0  0  0  0  0  0  0  0
   13.7249  -14.6241   24.5856 O   0  0  0  0  0  0  0  0  0  0  0  0
   15.2900  -16.2137   24.9319 O   0  0  0  0  0  0  0  0  0  0  0  0
  2  1  1  0
  3  2  1  0
  4  3  2  0
  5  3  1  0
  6  5  1  0
  7  8  1  0
  6  7  1  1
  8 16  1  0
  9 10  1  0
  9  8  2  0
 10 11  1  0
 11 16  2  0
 11 12  1  0
 12 13  2  0
 13 14  1  0
 15 14  2  0
 16 15  1  0
 17  6  1  0
 17 18  2  0
 20 22  1  0
 20 19  1  0
 21 20  2  0
 24 23  1  6
 23 22  1  0
 24 25  1  0
 25 17  1  0
 26 24  1  0
 27 26  1  0
 28 26  2  0
M  END
$$$$
