GWQ.pdb
     RDKit          3D

 28 29  0  0  1  0  0  0  0  0999 V2000
    6.0280  -16.7346   20.2176 N   0  0  0  0  0  0  0  0  0  0  0  0
    6.5382  -17.4140   21.3903 C   0  0  0  0  0  0  0  0  0  0  0  0
    7.5875  -16.5352   21.9848 C   0  0  0  0  0  0  0  0  0  0  0  0
    8.1303  -15.6325   21.2977 O   0  0  0  0  0  0  0  0  0  0  0  0
    8.0167  -16.6702   23.3259 N   0  0  0  0  0  0  0  0  0  0  0  0
    9.0580  -15.8257   23.8263 C   0  0  1  0  0  0  0  0  0  0  0  0
    8.9599  -15.5599   25.3024 C   0  0  0  0  0  0  0  0  0  0  0  0
    7.6762  -14.9336   25.6874 C   0  0  0  0  0  0  0  0  0  0  0  0
    6.4441  -15.4681   25.8970 C   0  0  0  0  0  0  0  0  0  0  0  0
    5.5724  -14.5033   26.2338 N   0  0  0  0  0  0  0  0  0  0  0  0
    6.2329  -13.3414   26.2444 C   0  0  0  0  0  0  0  0  0  0  0  0
    5.8096  -12.0697   26.5202 C   0  0  0  0  0  0  0  0  0  0  0  0
    6.7079  -11.0324   26.4578 C   0  0  0  0  0  0  0  0  0  0  0  0
    8.0179  -11.2363   26.1265 C   0  0  0  0  0  0  0  0  0  0  0  0
    8.4405  -12.5168   25.8496 C   0  0  0  0  0  0  0  0  0  0  0  0
    7.5532  -13.5721   25.9070 C   0  0  0  0  0  0  0  0  0  0  0  0
   10.3649  -16.5190   23.5885 C   0  0  0  0  0  0  0  0  0  0  0  0
   10.4811  -17.7460   23.8257 O   0  0  0  0  0  0  0  0  0  0  0  0
   15.0605  -14.7069   19.7789 N   0  0  0  0  0  0  0  0  0  0  0  0
   13.6639  -14.5957   19.7614 C   0  0  0  0  0  0  0  0  0  0  0  0
   13.0764  -13.9534   18.8622 O   0  0  0  0  0  0  0  0  0  0  0  0
   12.7899  -15.2316   20.8073 C   0  0  0  0  0  0  0  0  0  0  0  0
   13.5855  -15.9150   21.8539 C   0  0  0  0  0  0  0  0  0  0  0  0
   12.7423  -16.5589   22.9006 C   0  0  2  0  0  0  0  0  0  0  0  0
   11.4955  -15.8257   23.0966 N   0  0  0  0  0  0  0  0  0  0  0  0
   13.4286  -16.7673   24.1914 C   0  0  0  0  0  0  0  0  0  0  0  0
   12.8773  -16.2710   25.3606 O   0  0  0  0  0  0  0  0  0  0  0  0
   14.5032  -17.3849   24.2598 O   0  0  0  0  0  0  0  0  0  0  0  0
  2  1  1  0
  3  2  1  0
  4  3  2  0
  5  3  1  0
  6  5  1  0
  7  8  1  0
  6  7  1  1
  8 16  1  0
  9 10  1  0
  9  8  2  0
 10 11  1  0
 11 16  2  0
 11 12  1  0
 12 13  2  0
 13 14  1  0
 15 14  2  0
 16 15  1  0
 17  6  1  0
 17 18  2  0
 20 22  1  0
 20 19  1  0
 21 20  2  0
 24 23  1  6
 23 22  1  0
 24 25  1  0
 25 17  1  0
 26 24  1  0
 27 26  1  0
 28 26  2  0
M  END
$$$$
