GWQ.pdb
     RDKit          3D

 28 29  0  0  1  0  0  0  0  0999 V2000
   10.7765  -18.0745   21.3346 N   0  0  0  0  0  0  0  0  0  0  0  0
    9.5565  -18.1715   22.1085 C   0  0  0  0  0  0  0  0  0  0  0  0
    9.7216  -17.2892   23.3006 C   0  0  0  0  0  0  0  0  0  0  0  0
   10.5442  -16.3381   23.2833 O   0  0  0  0  0  0  0  0  0  0  0  0
    8.9754  -17.4743   24.4881 N   0  0  0  0  0  0  0  0  0  0  0  0
    9.1365  -16.5602   25.5772 C   0  0  1  0  0  0  0  0  0  0  0  0
    7.8430  -15.9667   26.0609 C   0  0  0  0  0  0  0  0  0  0  0  0
    7.3660  -14.8585   25.2048 C   0  0  0  0  0  0  0  0  0  0  0  0
    7.1654  -14.7838   23.8624 C   0  0  0  0  0  0  0  0  0  0  0  0
    6.7200  -13.5614   23.5286 N   0  0  0  0  0  0  0  0  0  0  0  0
    6.6295  -12.8392   24.6496 C   0  0  0  0  0  0  0  0  0  0  0  0
    6.2321  -11.5461   24.8557 C   0  0  0  0  0  0  0  0  0  0  0  0
    6.2325  -11.0365   26.1313 C   0  0  0  0  0  0  0  0  0  0  0  0
    6.6204  -11.7884   27.2045 C   0  0  0  0  0  0  0  0  0  0  0  0
    7.0196  -13.0889   26.9936 C   0  0  0  0  0  0  0  0  0  0  0  0
    7.0261  -13.6189   25.7195 C   0  0  0  0  0  0  0  0  0  0  0  0
    9.7322  -17.3157   26.7260 C   0  0  0  0  0  0  0  0  0  0  0  0
    9.9413  -16.7386   27.8207 O   0  0  0  0  0  0  0  0  0  0  0  0
    6.6103  -20.4018   26.6087 N   0  0  0  0  0  0  0  0  0  0  0  0
    7.4888  -20.7232   27.6518 C   0  0  0  0  0  0  0  0  0  0  0  0
    7.0953  -20.7698   28.8390 O   0  0  0  0  0  0  0  0  0  0  0  0
    8.9426  -21.0293   27.4179 C   0  0  0  0  0  0  0  0  0  0  0  0
    9.8189  -20.3331   28.3890 C   0  0  0  0  0  0  0  0  0  0  0  0
   10.7260  -19.3391   27.7482 C   0  0  2  0  0  0  0  0  0  0  0  0
   10.0745  -18.6839   26.6182 N   0  0  0  0  0  0  0  0  0  0  0  0
   12.0376  -19.8841   27.3447 C   0  0  0  0  0  0  0  0  0  0  0  0
   12.4532  -19.7933   26.0270 O   0  0  0  0  0  0  0  0  0  0  0  0
   12.7911  -20.4304   28.1661 O   0  0  0  0  0  0  0  0  0  0  0  0
  2  1  1  0
  3  2  1  0
  4  3  2  0
  5  3  1  0
  6  5  1  0
  7  8  1  0
  6  7  1  1
  8 16  1  0
  9 10  1  0
  9  8  2  0
 10 11  1  0
 11 16  2  0
 11 12  1  0
 12 13  2  0
 13 14  1  0
 15 14  2  0
 16 15  1  0
 17  6  1  0
 17 18  2  0
 20 22  1  0
 20 19  1  0
 21 20  2  0
 24 23  1  6
 23 22  1  0
 24 25  1  0
 25 17  1  0
 26 24  1  0
 27 26  1  0
 28 26  2  0
M  END
$$$$
