GWQ.pdb
     RDKit          3D

 28 29  0  0  1  0  0  0  0  0999 V2000
    6.7707  -14.9760   20.0047 N   0  0  0  0  0  0  0  0  0  0  0  0
    6.8750  -16.0385   20.9830 C   0  0  0  0  0  0  0  0  0  0  0  0
    7.9137  -15.6247   21.9712 C   0  0  0  0  0  0  0  0  0  0  0  0
    8.7724  -14.7563   21.6708 O   0  0  0  0  0  0  0  0  0  0  0  0
    7.9840  -16.1775   23.2714 N   0  0  0  0  0  0  0  0  0  0  0  0
    8.9905  -15.7242   24.1820 C   0  0  1  0  0  0  0  0  0  0  0  0
    8.5543  -15.7451   25.6202 C   0  0  0  0  0  0  0  0  0  0  0  0
    7.3182  -14.9670   25.8550 C   0  0  0  0  0  0  0  0  0  0  0  0
    6.0164  -15.3511   25.9289 C   0  0  0  0  0  0  0  0  0  0  0  0
    5.2320  -14.2855   26.1596 N   0  0  0  0  0  0  0  0  0  0  0  0
    6.0189  -13.2078   26.2364 C   0  0  0  0  0  0  0  0  0  0  0  0
    5.7197  -11.8906   26.4548 C   0  0  0  0  0  0  0  0  0  0  0  0
    6.7348  -10.9656   26.4866 C   0  0  0  0  0  0  0  0  0  0  0  0
    8.0404  -11.3262   26.3053 C   0  0  0  0  0  0  0  0  0  0  0  0
    8.3379  -12.6523   26.0858 C   0  0  0  0  0  0  0  0  0  0  0  0
    7.3321  -13.5964   26.0505 C   0  0  0  0  0  0  0  0  0  0  0  0
   10.1653  -16.6467   24.0637 C   0  0  0  0  0  0  0  0  0  0  0  0
    9.9956  -17.8465   23.7365 O   0  0  0  0  0  0  0  0  0  0  0  0
   14.6375  -18.0215   21.3319 N   0  0  0  0  0  0  0  0  0  0  0  0
   13.9858  -16.7968   21.1356 C   0  0  0  0  0  0  0  0  0  0  0  0
   13.7912  -16.3436   19.9853 O   0  0  0  0  0  0  0  0  0  0  0  0
   13.4839  -15.9568   22.2777 C   0  0  0  0  0  0  0  0  0  0  0  0
   13.7801  -16.5739   23.5918 C   0  0  0  0  0  0  0  0  0  0  0  0
   12.5781  -17.1701   24.2407 C   0  0  2  0  0  0  0  0  0  0  0  0
   11.4857  -16.2047   24.3130 N   0  0  0  0  0  0  0  0  0  0  0  0
   12.8346  -17.7620   25.5690 C   0  0  0  0  0  0  0  0  0  0  0  0
   13.7397  -18.8011   25.7047 O   0  0  0  0  0  0  0  0  0  0  0  0
   12.2529  -17.3480   26.5845 O   0  0  0  0  0  0  0  0  0  0  0  0
  2  1  1  0
  3  2  1  0
  4  3  2  0
  5  3  1  0
  6  5  1  0
  7  8  1  0
  6  7  1  1
  8 16  1  0
  9 10  1  0
  9  8  2  0
 10 11  1  0
 11 16  2  0
 11 12  1  0
 12 13  2  0
 13 14  1  0
 15 14  2  0
 16 15  1  0
 17  6  1  0
 17 18  2  0
 20 22  1  0
 20 19  1  0
 21 20  2  0
 24 23  1  1
 23 22  1  0
 24 25  1  0
 25 17  1  0
 26 24  1  0
 27 26  1  0
 28 26  2  0
M  END
$$$$
