GWQ.pdb
     RDKit          3D

 28 29  0  0  1  0  0  0  0  0999 V2000
    8.4524  -12.8336   18.3249 N   0  0  0  0  0  0  0  0  0  0  0  0
    7.8754  -14.0454   18.8685 C   0  0  0  0  0  0  0  0  0  0  0  0
    8.1593  -14.0479   20.3335 C   0  0  0  0  0  0  0  0  0  0  0  0
    9.0651  -13.3175   20.8106 O   0  0  0  0  0  0  0  0  0  0  0  0
    7.4378  -14.8565   21.2427 N   0  0  0  0  0  0  0  0  0  0  0  0
    7.7790  -14.8401   22.6323 C   0  0  1  0  0  0  0  0  0  0  0  0
    6.5966  -15.0112   23.5443 C   0  0  0  0  0  0  0  0  0  0  0  0
    6.9428  -14.8293   24.9709 C   0  0  0  0  0  0  0  0  0  0  0  0
    7.3584  -15.7159   25.9138 C   0  0  0  0  0  0  0  0  0  0  0  0
    7.5533  -15.0883   27.0852 N   0  0  0  0  0  0  0  0  0  0  0  0
    7.2660  -13.7950   26.9085 C   0  0  0  0  0  0  0  0  0  0  0  0
    7.3010  -12.7398   27.7790 C   0  0  0  0  0  0  0  0  0  0  0  0
    6.9498  -11.4883   27.3349 C   0  0  0  0  0  0  0  0  0  0  0  0
    6.5648  -11.2671   26.0425 C   0  0  0  0  0  0  0  0  0  0  0  0
    6.5307  -12.3309   25.1693 C   0  0  0  0  0  0  0  0  0  0  0  0
    6.8800  -13.5957   25.5965 C   0  0  0  0  0  0  0  0  0  0  0  0
    8.7056  -15.9890   22.8907 C   0  0  0  0  0  0  0  0  0  0  0  0
    8.3893  -17.1488   22.5298 O   0  0  0  0  0  0  0  0  0  0  0  0
   14.6137  -16.3759   21.6992 N   0  0  0  0  0  0  0  0  0  0  0  0
   14.3142  -15.6437   22.8556 C   0  0  0  0  0  0  0  0  0  0  0  0
   15.0842  -14.7502   23.2741 O   0  0  0  0  0  0  0  0  0  0  0  0
   13.0654  -15.8792   23.6599 C   0  0  0  0  0  0  0  0  0  0  0  0
   12.1093  -16.7634   22.9531 C   0  0  0  0  0  0  0  0  0  0  0  0
   10.8342  -16.9593   23.6996 C   0  0  2  0  0  0  0  0  0  0  0  0
    9.9492  -15.8095   23.5404 N   0  0  0  0  0  0  0  0  0  0  0  0
   11.0101  -17.2831   25.1295 C   0  0  0  0  0  0  0  0  0  0  0  0
   11.7491  -18.3919   25.5060 O   0  0  0  0  0  0  0  0  0  0  0  0
   10.5066  -16.5782   26.0186 O   0  0  0  0  0  0  0  0  0  0  0  0
  2  1  1  0
  3  2  1  0
  4  3  2  0
  5  3  1  0
  6  5  1  0
  7  8  1  0
  6  7  1  1
  8 16  1  0
  9 10  1  0
  9  8  2  0
 10 11  1  0
 11 16  2  0
 11 12  1  0
 12 13  2  0
 13 14  1  0
 15 14  2  0
 16 15  1  0
 17  6  1  0
 17 18  2  0
 20 22  1  0
 20 19  1  0
 21 20  2  0
 24 23  1  1
 23 22  1  0
 24 25  1  0
 25 17  1  0
 26 24  1  0
 27 26  1  0
 28 26  2  0
M  END
$$$$
