NAM.pdb
     RDKit          3D

 22 21  0  0  1  0  0  0  0  0999 V2000
    6.1694  -19.5762   17.5773 N   0  0  0  0  0  0  0  0  0  0  0  0
    7.3672  -19.6095   18.3396 C   0  0  0  0  0  0  0  0  0  0  0  0
    7.8068  -20.6729   18.8147 O   0  0  0  0  0  0  0  0  0  0  0  0
    8.0683  -18.3469   18.5476 C   0  0  0  0  0  0  0  0  0  0  0  0
    8.0186  -17.8633   19.9683 C   0  0  2  0  0  0  0  0  0  0  0  0
    6.5975  -17.8827   20.3449 N   0  0  0  0  0  0  0  0  0  0  0  0
    8.5072  -16.4549   20.0283 C   0  0  0  0  0  0  0  0  0  0  0  0
    9.6486  -16.0791   19.7144 O   0  0  0  0  0  0  0  0  0  0  0  0
    6.9835  -13.0566   20.6312 C   0  0  0  0  0  0  0  0  0  0  0  0
    8.0996  -14.0703   20.6477 C   0  0  2  0  0  0  0  0  0  0  0  0
    7.6166  -15.4130   20.4815 N   0  0  0  0  0  0  0  0  0  0  0  0
    8.9131  -13.9783   21.8971 C   0  0  0  0  0  0  0  0  0  0  0  0
    9.5276  -12.9243   22.1553 O   0  0  0  0  0  0  0  0  0  0  0  0
    6.9415  -11.8575   27.6975 C   0  0  0  0  0  0  0  0  0  0  0  0
    6.4083  -12.3867   26.0509 S   0  0  0  0  0  0  0  0  0  0  0  0
    6.8750  -14.0829   25.7120 C   0  0  0  0  0  0  0  0  0  0  0  0
    7.4149  -14.2334   24.3364 C   0  0  0  0  0  0  0  0  0  0  0  0
    8.7735  -14.8207   24.2676 C   0  0  2  0  0  0  0  0  0  0  0  0
    9.0146  -15.0543   22.8106 N   0  0  0  0  0  0  0  0  0  0  0  0
    9.0909  -16.0328   24.9810 C   0  0  0  0  0  0  0  0  0  0  0  0
    8.9295  -17.2064   24.5787 O   0  0  0  0  0  0  0  0  0  0  0  0
    9.6474  -15.9438   26.2799 O   0  0  0  0  0  0  0  0  0  0  0  0
  1  2  1  0
  2  3  2  0
  4  2  1  0
  4  5  1  0
  5  6  1  6
  7  5  1  0
  7 11  1  0
  8  7  2  0
 10  9  1  1
 10 11  1  0
 10 12  1  0
 12 13  2  0
 12 19  1  0
 14 15  1  0
 15 16  1  0
 17 16  1  0
 18 17  1  6
 19 18  1  0
 20 18  1  0
 20 22  1  0
 21 20  2  0
M  END
$$$$
