NAM.pdb
     RDKit          3D

 22 21  0  0  1  0  0  0  0  0999 V2000
    8.7541  -22.4703   22.2749 N   0  0  0  0  0  0  0  0  0  0  0  0
    8.0525  -21.2811   22.6076 C   0  0  0  0  0  0  0  0  0  0  0  0
    7.0123  -21.3088   23.2911 O   0  0  0  0  0  0  0  0  0  0  0  0
    8.5964  -20.0190   22.1177 C   0  0  0  0  0  0  0  0  0  0  0  0
    9.8448  -20.1841   21.2998 C   0  0  2  0  0  0  0  0  0  0  0  0
   10.4519  -21.4445   21.7520 N   0  0  0  0  0  0  0  0  0  0  0  0
   10.7860  -19.0671   21.6035 C   0  0  0  0  0  0  0  0  0  0  0  0
   12.0226  -19.1681   21.6602 O   0  0  0  0  0  0  0  0  0  0  0  0
   10.5965  -15.3616   21.4382 C   0  0  0  0  0  0  0  0  0  0  0  0
   11.1548  -16.6334   22.0248 C   0  0  2  0  0  0  0  0  0  0  0  0
   10.2618  -17.7464   21.8584 N   0  0  0  0  0  0  0  0  0  0  0  0
   11.4969  -16.4734   23.4701 C   0  0  0  0  0  0  0  0  0  0  0  0
   12.3309  -15.6123   23.8135 O   0  0  0  0  0  0  0  0  0  0  0  0
    9.9914  -13.4153   29.3546 C   0  0  0  0  0  0  0  0  0  0  0  0
   10.3563  -14.1939   27.7620 S   0  0  0  0  0  0  0  0  0  0  0  0
    9.4121  -15.6975   27.5229 C   0  0  0  0  0  0  0  0  0  0  0  0
    9.6019  -16.2468   26.1559 C   0  0  0  0  0  0  0  0  0  0  0  0
   10.9434  -16.8230   25.9031 C   0  0  2  0  0  0  0  0  0  0  0  0
   10.9035  -17.2710   24.4772 N   0  0  0  0  0  0  0  0  0  0  0  0
   11.4435  -17.9102   26.7075 C   0  0  0  0  0  0  0  0  0  0  0  0
   11.6966  -17.8848   27.9324 O   0  0  0  0  0  0  0  0  0  0  0  0
   11.6920  -19.1632   26.0968 O   0  0  0  0  0  0  0  0  0  0  0  0
  1  2  1  0
  2  3  2  0
  4  2  1  0
  4  5  1  0
  5  6  1  1
  7  5  1  0
  7 11  1  0
  8  7  2  0
 10  9  1  1
 10 11  1  0
 10 12  1  0
 12 13  2  0
 12 19  1  0
 14 15  1  0
 15 16  1  0
 17 16  1  0
 18 17  1  1
 19 18  1  0
 20 18  1  0
 20 22  1  0
 21 20  2  0
M  END
$$$$
