NAM.pdb
     RDKit          3D

 22 21  0  0  1  0  0  0  0  0999 V2000
    8.0325  -12.5112   17.1278 N   0  0  0  0  0  0  0  0  0  0  0  0
    7.7067  -13.8926   17.1789 C   0  0  0  0  0  0  0  0  0  0  0  0
    7.6722  -14.5916   16.1493 O   0  0  0  0  0  0  0  0  0  0  0  0
    7.4124  -14.4670   18.4874 C   0  0  0  0  0  0  0  0  0  0  0  0
    8.6126  -14.5525   19.3857 C   0  0  2  0  0  0  0  0  0  0  0  0
    9.5432  -15.4745   18.7184 N   0  0  0  0  0  0  0  0  0  0  0  0
    8.2098  -15.1472   20.6934 C   0  0  0  0  0  0  0  0  0  0  0  0
    7.3658  -14.6678   21.4683 O   0  0  0  0  0  0  0  0  0  0  0  0
    8.9090  -18.4093   22.4897 C   0  0  0  0  0  0  0  0  0  0  0  0
    8.4126  -16.9910   22.3654 C   0  0  2  0  0  0  0  0  0  0  0  0
    8.8240  -16.3773   21.1333 N   0  0  0  0  0  0  0  0  0  0  0  0
    8.8492  -16.1481   23.5187 C   0  0  0  0  0  0  0  0  0  0  0  0
    9.9900  -15.6446   23.5161 O   0  0  0  0  0  0  0  0  0  0  0  0
    6.6861  -10.7262   25.3022 C   0  0  0  0  0  0  0  0  0  0  0  0
    6.5874  -11.6039   26.8819 S   0  0  0  0  0  0  0  0  0  0  0  0
    7.7308  -12.9813   26.9521 C   0  0  0  0  0  0  0  0  0  0  0  0
    7.4960  -13.9396   25.8417 C   0  0  0  0  0  0  0  0  0  0  0  0
    8.4913  -15.0334   25.7498 C   0  0  2  0  0  0  0  0  0  0  0  0
    8.0077  -15.8956   24.6281 N   0  0  0  0  0  0  0  0  0  0  0  0
    8.7677  -15.8775   26.8856 C   0  0  0  0  0  0  0  0  0  0  0  0
    9.2773  -15.5304   27.9741 O   0  0  0  0  0  0  0  0  0  0  0  0
    8.4478  -17.2551   26.8160 O   0  0  0  0  0  0  0  0  0  0  0  0
  1  2  1  0
  2  3  2  0
  4  2  1  0
  4  5  1  0
  5  6  1  6
  7  5  1  0
  7 11  1  0
  8  7  2  0
 10  9  1  1
 10 11  1  0
 10 12  1  0
 12 13  2  0
 12 19  1  0
 14 15  1  0
 15 16  1  0
 17 16  1  0
 18 17  1  1
 19 18  1  0
 20 18  1  0
 20 22  1  0
 21 20  2  0
M  END
$$$$
