NAM.pdb
     RDKit          3D

 22 21  0  0  1  0  0  0  0  0999 V2000
   11.7474  -19.4230   17.5638 N   0  0  0  0  0  0  0  0  0  0  0  0
   10.8506  -19.5124   18.6615 C   0  0  0  0  0  0  0  0  0  0  0  0
   10.7245  -20.5646   19.3147 O   0  0  0  0  0  0  0  0  0  0  0  0
   10.0782  -18.3214   18.9987 C   0  0  0  0  0  0  0  0  0  0  0  0
    9.8767  -18.1385   20.4754 C   0  0  2  0  0  0  0  0  0  0  0  0
    8.7418  -19.0027   20.8314 N   0  0  0  0  0  0  0  0  0  0  0  0
    9.5002  -16.7215   20.7511 C   0  0  0  0  0  0  0  0  0  0  0  0
   10.2638  -15.7465   20.6572 O   0  0  0  0  0  0  0  0  0  0  0  0
    6.3018  -14.8140   21.1506 C   0  0  0  0  0  0  0  0  0  0  0  0
    7.7667  -15.0517   21.4170 C   0  0  2  0  0  0  0  0  0  0  0  0
    8.1514  -16.4123   21.1627 N   0  0  0  0  0  0  0  0  0  0  0  0
    8.1446  -14.6734   22.8118 C   0  0  0  0  0  0  0  0  0  0  0  0
    7.7263  -13.6021   23.2938 O   0  0  0  0  0  0  0  0  0  0  0  0
    6.8865  -10.8587   27.5389 C   0  0  0  0  0  0  0  0  0  0  0  0
    6.5698  -12.4090   26.6603 S   0  0  0  0  0  0  0  0  0  0  0  0
    8.0882  -13.2734   26.2645 C   0  0  0  0  0  0  0  0  0  0  0  0
    7.8314  -14.4562   25.4032 C   0  0  0  0  0  0  0  0  0  0  0  0
    9.0326  -15.2666   25.0939 C   0  0  2  0  0  0  0  0  0  0  0  0
    8.9692  -15.4941   23.6175 N   0  0  0  0  0  0  0  0  0  0  0  0
    9.2533  -16.5364   25.7405 C   0  0  0  0  0  0  0  0  0  0  0  0
    8.8607  -17.6578   25.3489 O   0  0  0  0  0  0  0  0  0  0  0  0
    9.9868  -16.5765   26.9510 O   0  0  0  0  0  0  0  0  0  0  0  0
  1  2  1  0
  2  3  2  0
  4  2  1  0
  4  5  1  0
  5  6  1  6
  7  5  1  0
  7 11  1  0
  8  7  2  0
 10  9  1  1
 10 11  1  0
 10 12  1  0
 12 13  2  0
 12 19  1  0
 14 15  1  0
 15 16  1  0
 17 16  1  0
 18 17  1  1
 19 18  1  0
 20 18  1  0
 20 22  1  0
 21 20  2  0
M  END
$$$$
