NAM.pdb
     RDKit          3D

 22 21  0  0  1  0  0  0  0  0999 V2000
    4.7988  -20.7470   21.7597 N   0  0  0  0  0  0  0  0  0  0  0  0
    5.2850  -20.4517   20.4584 C   0  0  0  0  0  0  0  0  0  0  0  0
    4.9679  -21.1430   19.4728 O   0  0  0  0  0  0  0  0  0  0  0  0
    6.1740  -19.3035   20.3162 C   0  0  0  0  0  0  0  0  0  0  0  0
    6.5086  -18.6421   21.6221 C   0  0  2  0  0  0  0  0  0  0  0  0
    5.2503  -18.0526   22.1024 N   0  0  0  0  0  0  0  0  0  0  0  0
    7.4879  -17.5424   21.3824 C   0  0  0  0  0  0  0  0  0  0  0  0
    8.6994  -17.6988   21.1581 O   0  0  0  0  0  0  0  0  0  0  0  0
    7.3282  -13.8876   20.5831 C   0  0  0  0  0  0  0  0  0  0  0  0
    7.9709  -15.0983   21.2111 C   0  0  2  0  0  0  0  0  0  0  0  0
    7.0357  -16.1716   21.4038 N   0  0  0  0  0  0  0  0  0  0  0  0
    8.6298  -14.7648   22.5096 C   0  0  0  0  0  0  0  0  0  0  0  0
    9.5744  -13.9509   22.5293 O   0  0  0  0  0  0  0  0  0  0  0  0
    6.7225  -10.8319   26.1936 C   0  0  0  0  0  0  0  0  0  0  0  0
    6.9501  -12.1382   27.4254 S   0  0  0  0  0  0  0  0  0  0  0  0
    8.1561  -13.3522   26.8951 C   0  0  0  0  0  0  0  0  0  0  0  0
    7.8260  -13.8954   25.5525 C   0  0  0  0  0  0  0  0  0  0  0  0
    8.8107  -14.8664   25.0206 C   0  0  2  0  0  0  0  0  0  0  0  0
    8.2184  -15.3439   23.7335 N   0  0  0  0  0  0  0  0  0  0  0  0
    9.2046  -16.0175   25.7945 C   0  0  0  0  0  0  0  0  0  0  0  0
    8.9506  -17.2162   25.5418 O   0  0  0  0  0  0  0  0  0  0  0  0
    9.9614  -15.8289   26.9762 O   0  0  0  0  0  0  0  0  0  0  0  0
  1  2  1  0
  2  3  2  0
  4  2  1  0
  4  5  1  0
  5  6  1  6
  7  5  1  0
  7 11  1  0
  8  7  2  0
 10  9  1  1
 10 11  1  0
 10 12  1  0
 12 13  2  0
 12 19  1  0
 14 15  1  0
 15 16  1  0
 17 16  1  0
 18 17  1  1
 19 18  1  0
 20 18  1  0
 20 22  1  0
 21 20  2  0
M  END
$$$$
