NAM.pdb
     RDKit          3D

 22 21  0  0  1  0  0  0  0  0999 V2000
   10.0333  -17.0605   15.7619 N   0  0  0  0  0  0  0  0  0  0  0  0
    8.6269  -16.9175   15.8985 C   0  0  0  0  0  0  0  0  0  0  0  0
    7.8722  -16.9312   14.9085 O   0  0  0  0  0  0  0  0  0  0  0  0
    8.0946  -16.7530   17.2470 C   0  0  0  0  0  0  0  0  0  0  0  0
    8.9385  -17.4029   18.3055 C   0  0  2  0  0  0  0  0  0  0  0  0
    9.0794  -18.8074   17.8941 N   0  0  0  0  0  0  0  0  0  0  0  0
    8.2153  -17.3596   19.6097 C   0  0  0  0  0  0  0  0  0  0  0  0
    7.1038  -16.8375   19.7951 O   0  0  0  0  0  0  0  0  0  0  0  0
    8.2645  -19.2580   22.7722 C   0  0  0  0  0  0  0  0  0  0  0  0
    8.1249  -17.9505   22.0344 C   0  0  2  0  0  0  0  0  0  0  0  0
    8.8181  -17.9599   20.7761 N   0  0  0  0  0  0  0  0  0  0  0  0
    8.5929  -16.7963   22.8591 C   0  0  0  0  0  0  0  0  0  0  0  0
    9.7762  -16.4139   22.7672 O   0  0  0  0  0  0  0  0  0  0  0  0
    6.1001  -10.6825   27.2123 C   0  0  0  0  0  0  0  0  0  0  0  0
    5.7942  -12.1263   26.1647 S   0  0  0  0  0  0  0  0  0  0  0  0
    7.3057  -13.0138   25.7944 C   0  0  0  0  0  0  0  0  0  0  0  0
    7.0570  -14.1474   24.8673 C   0  0  0  0  0  0  0  0  0  0  0  0
    8.2551  -14.9599   24.5508 C   0  0  2  0  0  0  0  0  0  0  0  0
    7.7345  -16.1115   23.7517 N   0  0  0  0  0  0  0  0  0  0  0  0
    9.0944  -15.4785   25.6022 C   0  0  0  0  0  0  0  0  0  0  0  0
    8.8933  -16.5060   26.2870 O   0  0  0  0  0  0  0  0  0  0  0  0
   10.2862  -14.7911   25.9367 O   0  0  0  0  0  0  0  0  0  0  0  0
  1  2  1  0
  2  3  2  0
  4  2  1  0
  4  5  1  0
  5  6  1  6
  7  5  1  0
  7 11  1  0
  8  7  2  0
 10  9  1  1
 10 11  1  0
 10 12  1  0
 12 13  2  0
 12 19  1  0
 14 15  1  0
 15 16  1  0
 17 16  1  0
 18 17  1  1
 19 18  1  0
 20 18  1  0
 20 22  1  0
 21 20  2  0
M  END
$$$$
