NAM.pdb
     RDKit          3D

 22 21  0  0  1  0  0  0  0  0999 V2000
    8.1820  -12.5954   16.3041 N   0  0  0  0  0  0  0  0  0  0  0  0
    7.9540  -13.9956   16.3709 C   0  0  0  0  0  0  0  0  0  0  0  0
    8.0360  -14.7173   15.3599 O   0  0  0  0  0  0  0  0  0  0  0  0
    7.6182  -14.5617   17.6731 C   0  0  0  0  0  0  0  0  0  0  0  0
    8.7633  -14.5459   18.6444 C   0  0  2  0  0  0  0  0  0  0  0  0
    9.8190  -15.3618   18.0269 N   0  0  0  0  0  0  0  0  0  0  0  0
    8.3406  -15.1991   19.9174 C   0  0  0  0  0  0  0  0  0  0  0  0
    7.3990  -14.8251   20.6358 O   0  0  0  0  0  0  0  0  0  0  0  0
    9.2567  -18.3744   21.7623 C   0  0  0  0  0  0  0  0  0  0  0  0
    8.6761  -16.9896   21.6255 C   0  0  2  0  0  0  0  0  0  0  0  0
    9.0545  -16.3614   20.3902 N   0  0  0  0  0  0  0  0  0  0  0  0
    9.0568  -16.1134   22.7738 C   0  0  0  0  0  0  0  0  0  0  0  0
   10.1546  -15.5221   22.7594 O   0  0  0  0  0  0  0  0  0  0  0  0
    6.4244  -10.7844   27.7016 C   0  0  0  0  0  0  0  0  0  0  0  0
    6.2182  -12.0096   26.3855 S   0  0  0  0  0  0  0  0  0  0  0  0
    7.5889  -13.1616   26.3262 C   0  0  0  0  0  0  0  0  0  0  0  0
    7.4684  -14.0906   25.1733 C   0  0  0  0  0  0  0  0  0  0  0  0
    8.6215  -15.0036   24.9936 C   0  0  2  0  0  0  0  0  0  0  0  0
    8.2092  -15.9260   23.8914 N   0  0  0  0  0  0  0  0  0  0  0  0
    9.1122  -15.7985   26.0920 C   0  0  0  0  0  0  0  0  0  0  0  0
    8.9157  -17.0190   26.2836 O   0  0  0  0  0  0  0  0  0  0  0  0
    9.9067  -15.1825   27.0890 O   0  0  0  0  0  0  0  0  0  0  0  0
  1  2  1  0
  2  3  2  0
  4  2  1  0
  4  5  1  0
  5  6  1  6
  7  5  1  0
  7 11  1  0
  8  7  2  0
 10  9  1  1
 10 11  1  0
 10 12  1  0
 12 13  2  0
 12 19  1  0
 14 15  1  0
 15 16  1  0
 17 16  1  0
 18 17  1  1
 19 18  1  0
 20 18  1  0
 20 22  1  0
 21 20  2  0
M  END
$$$$
