NAM.pdb
     RDKit          3D

 22 21  0  0  1  0  0  0  0  0999 V2000
    8.4800  -19.9645   17.0889 N   0  0  0  0  0  0  0  0  0  0  0  0
    9.1435  -19.6434   18.3029 C   0  0  0  0  0  0  0  0  0  0  0  0
    9.7095  -20.5168   18.9858 O   0  0  0  0  0  0  0  0  0  0  0  0
    9.1384  -18.2464   18.7239 C   0  0  0  0  0  0  0  0  0  0  0  0
    8.9298  -18.0683   20.2002 C   0  0  2  0  0  0  0  0  0  0  0  0
    7.5323  -18.4492   20.4525 N   0  0  0  0  0  0  0  0  0  0  0  0
    9.1016  -16.6291   20.5536 C   0  0  0  0  0  0  0  0  0  0  0  0
   10.1922  -16.0499   20.6872 O   0  0  0  0  0  0  0  0  0  0  0  0
    6.8542  -13.6180   20.6221 C   0  0  0  0  0  0  0  0  0  0  0  0
    8.0789  -14.4000   21.0244 C   0  0  2  0  0  0  0  0  0  0  0  0
    7.9349  -15.8060   20.7664 N   0  0  0  0  0  0  0  0  0  0  0  0
    8.4268  -14.1842   22.4609 C   0  0  0  0  0  0  0  0  0  0  0  0
    8.4970  -13.0228   22.9095 O   0  0  0  0  0  0  0  0  0  0  0  0
    6.5893  -10.6055   27.0470 C   0  0  0  0  0  0  0  0  0  0  0  0
    6.5414  -12.3935   26.7707 S   0  0  0  0  0  0  0  0  0  0  0  0
    7.7239  -12.9080   25.5271 C   0  0  0  0  0  0  0  0  0  0  0  0
    7.6209  -14.3634   25.2484 C   0  0  0  0  0  0  0  0  0  0  0  0
    8.8836  -14.9970   24.8017 C   0  0  2  0  0  0  0  0  0  0  0  0
    8.6830  -15.2603   23.3436 N   0  0  0  0  0  0  0  0  0  0  0  0
    9.3613  -16.2084   25.4209 C   0  0  0  0  0  0  0  0  0  0  0  0
    9.8009  -16.3348   26.5853 O   0  0  0  0  0  0  0  0  0  0  0  0
    9.3540  -17.4132   24.6771 O   0  0  0  0  0  0  0  0  0  0  0  0
  1  2  1  0
  2  3  2  0
  4  2  1  0
  4  5  1  0
  5  6  1  6
  7  5  1  0
  7 11  1  0
  8  7  2  0
 10  9  1  1
 10 11  1  0
 10 12  1  0
 12 13  2  0
 12 19  1  0
 14 15  1  0
 15 16  1  0
 17 16  1  0
 18 17  1  1
 19 18  1  0
 20 18  1  0
 20 22  1  0
 21 20  2  0
M  END
$$$$
