NAM.pdb
     RDKit          3D

 22 21  0  0  1  0  0  0  0  0999 V2000
    7.5255  -12.0368   18.2863 N   0  0  0  0  0  0  0  0  0  0  0  0
    8.4493  -13.0413   18.6792 C   0  0  0  0  0  0  0  0  0  0  0  0
    9.4758  -13.2769   18.0155 O   0  0  0  0  0  0  0  0  0  0  0  0
    8.1516  -13.7917   19.8946 C   0  0  0  0  0  0  0  0  0  0  0  0
    8.2025  -15.2803   19.7049 C   0  0  2  0  0  0  0  0  0  0  0  0
    7.0483  -15.6122   18.8568 N   0  0  0  0  0  0  0  0  0  0  0  0
    8.0313  -15.9530   21.0256 C   0  0  0  0  0  0  0  0  0  0  0  0
    7.0152  -15.8861   21.7367 O   0  0  0  0  0  0  0  0  0  0  0  0
    9.6961  -18.7825   22.7913 C   0  0  0  0  0  0  0  0  0  0  0  0
    8.9258  -17.4864   22.7820 C   0  0  2  0  0  0  0  0  0  0  0  0
    9.1065  -16.7557   21.5583 N   0  0  0  0  0  0  0  0  0  0  0  0
    9.2855  -16.6198   23.9443 C   0  0  0  0  0  0  0  0  0  0  0  0
   10.3206  -15.9259   23.8977 O   0  0  0  0  0  0  0  0  0  0  0  0
    6.3978  -10.8703   25.9960 C   0  0  0  0  0  0  0  0  0  0  0  0
    6.3274  -12.5861   26.5674 S   0  0  0  0  0  0  0  0  0  0  0  0
    7.8072  -13.4961   26.1295 C   0  0  0  0  0  0  0  0  0  0  0  0
    7.7472  -14.8980   26.6169 C   0  0  0  0  0  0  0  0  0  0  0  0
    8.9290  -15.7224   26.2715 C   0  0  2  0  0  0  0  0  0  0  0  0
    8.4871  -16.5549   25.1108 N   0  0  0  0  0  0  0  0  0  0  0  0
    9.5345  -16.5913   27.2499 C   0  0  0  0  0  0  0  0  0  0  0  0
   10.3391  -16.2644   28.1505 O   0  0  0  0  0  0  0  0  0  0  0  0
    9.2199  -17.9717   27.2361 O   0  0  0  0  0  0  0  0  0  0  0  0
  1  2  1  0
  2  3  2  0
  4  2  1  0
  4  5  1  0
  5  6  1  6
  7  5  1  0
  7 11  1  0
  8  7  2  0
 10  9  1  6
 10 11  1  0
 10 12  1  0
 12 13  2  0
 12 19  1  0
 14 15  1  0
 15 16  1  0
 17 16  1  0
 18 17  1  1
 19 18  1  0
 20 18  1  0
 20 22  1  0
 21 20  2  0
M  END
$$$$
