NAM.pdb
     RDKit          3D

 22 21  0  0  1  0  0  0  0  0999 V2000
   13.3765  -15.4410   18.4830 N   0  0  0  0  0  0  0  0  0  0  0  0
   13.3493  -14.3909   19.4388 C   0  0  0  0  0  0  0  0  0  0  0  0
   14.3682  -13.7274   19.7059 O   0  0  0  0  0  0  0  0  0  0  0  0
   12.0783  -14.1153   20.1004 C   0  0  0  0  0  0  0  0  0  0  0  0
   10.9830  -15.0647   19.7085 C   0  0  2  0  0  0  0  0  0  0  0  0
   10.2677  -14.4112   18.6026 N   0  0  0  0  0  0  0  0  0  0  0  0
   10.0399  -15.2307   20.8526 C   0  0  0  0  0  0  0  0  0  0  0  0
    9.2787  -14.3504   21.2865 O   0  0  0  0  0  0  0  0  0  0  0  0
    8.5489  -18.1444   22.6523 C   0  0  0  0  0  0  0  0  0  0  0  0
    9.0027  -16.7085   22.5779 C   0  0  2  0  0  0  0  0  0  0  0  0
    9.9735  -16.4985   21.5399 N   0  0  0  0  0  0  0  0  0  0  0  0
    9.5499  -16.2321   23.8836 C   0  0  0  0  0  0  0  0  0  0  0  0
   10.7779  -16.2873   24.0933 O   0  0  0  0  0  0  0  0  0  0  0  0
    5.5413  -12.3288   26.3361 C   0  0  0  0  0  0  0  0  0  0  0  0
    7.2549  -11.8007   26.5814 S   0  0  0  0  0  0  0  0  0  0  0  0
    8.4206  -12.9963   25.9325 C   0  0  0  0  0  0  0  0  0  0  0  0
    8.4123  -14.2506   26.7283 C   0  0  0  0  0  0  0  0  0  0  0  0
    9.3111  -15.3117   26.2169 C   0  0  2  0  0  0  0  0  0  0  0  0
    8.7182  -15.7138   24.9045 N   0  0  0  0  0  0  0  0  0  0  0  0
    9.5591  -16.5044   26.9883 C   0  0  0  0  0  0  0  0  0  0  0  0
    9.0155  -17.6216   26.8412 O   0  0  0  0  0  0  0  0  0  0  0  0
   10.5100  -16.4634   28.0366 O   0  0  0  0  0  0  0  0  0  0  0  0
  1  2  1  0
  2  3  2  0
  4  2  1  0
  4  5  1  0
  5  6  1  6
  7  5  1  0
  7 11  1  0
  8  7  2  0
 10  9  1  1
 10 11  1  0
 10 12  1  0
 12 13  2  0
 12 19  1  0
 14 15  1  0
 15 16  1  0
 17 16  1  0
 18 17  1  1
 19 18  1  0
 20 18  1  0
 20 22  1  0
 21 20  2  0
M  END
$$$$
