NAM.pdb
     RDKit          3D

 22 21  0  0  1  0  0  0  0  0999 V2000
    8.6883  -13.4199   15.8528 N   0  0  0  0  0  0  0  0  0  0  0  0
    7.3610  -13.7341   16.2485 C   0  0  0  0  0  0  0  0  0  0  0  0
    6.3884  -13.4997   15.5076 O   0  0  0  0  0  0  0  0  0  0  0  0
    7.1762  -14.3444   17.5608 C   0  0  0  0  0  0  0  0  0  0  0  0
    8.4298  -14.3759   18.3867 C   0  0  2  0  0  0  0  0  0  0  0  0
    9.3930  -15.1759   17.6161 N   0  0  0  0  0  0  0  0  0  0  0  0
    8.1550  -15.0747   19.6759 C   0  0  0  0  0  0  0  0  0  0  0  0
    7.3289  -14.7073   20.5275 O   0  0  0  0  0  0  0  0  0  0  0  0
    9.2458  -18.3480   21.2494 C   0  0  0  0  0  0  0  0  0  0  0  0
    8.6108  -16.9807   21.2237 C   0  0  2  0  0  0  0  0  0  0  0  0
    8.8839  -16.2777   20.0010 N   0  0  0  0  0  0  0  0  0  0  0  0
    9.0378  -16.1496   22.3891 C   0  0  0  0  0  0  0  0  0  0  0  0
   10.1418  -15.5706   22.3607 O   0  0  0  0  0  0  0  0  0  0  0  0
    6.4075  -10.8126   27.2804 C   0  0  0  0  0  0  0  0  0  0  0  0
    6.1788  -12.1166   26.0462 S   0  0  0  0  0  0  0  0  0  0  0  0
    7.6268  -13.1619   25.9045 C   0  0  0  0  0  0  0  0  0  0  0  0
    7.4840  -14.1407   24.7963 C   0  0  0  0  0  0  0  0  0  0  0  0
    8.6434  -15.0463   24.6198 C   0  0  2  0  0  0  0  0  0  0  0  0
    8.2276  -15.9917   23.5386 N   0  0  0  0  0  0  0  0  0  0  0  0
    9.1535  -15.8172   25.7264 C   0  0  0  0  0  0  0  0  0  0  0  0
    8.9161  -17.0195   25.9780 O   0  0  0  0  0  0  0  0  0  0  0  0
   10.0202  -15.1970   26.6585 O   0  0  0  0  0  0  0  0  0  0  0  0
  1  2  1  0
  2  3  2  0
  4  2  1  0
  4  5  1  0
  5  6  1  6
  7  5  1  0
  7 11  1  0
  8  7  2  0
 10  9  1  6
 10 11  1  0
 10 12  1  0
 12 13  2  0
 12 19  1  0
 14 15  1  0
 15 16  1  0
 17 16  1  0
 18 17  1  1
 19 18  1  0
 20 18  1  0
 20 22  1  0
 21 20  2  0
M  END
$$$$
