NAM.pdb
     RDKit          3D

 22 21  0  0  1  0  0  0  0  0999 V2000
    4.8769  -20.8690   22.9286 N   0  0  0  0  0  0  0  0  0  0  0  0
    5.6465  -20.2772   23.9652 C   0  0  0  0  0  0  0  0  0  0  0  0
    5.5753  -20.6816   25.1404 O   0  0  0  0  0  0  0  0  0  0  0  0
    6.5281  -19.1726   23.6026 C   0  0  0  0  0  0  0  0  0  0  0  0
    6.3221  -18.6800   22.1992 C   0  0  2  0  0  0  0  0  0  0  0  0
    6.6794  -19.8077   21.3261 N   0  0  0  0  0  0  0  0  0  0  0  0
    7.2611  -17.5527   21.9283 C   0  0  0  0  0  0  0  0  0  0  0  0
    8.4769  -17.6717   21.7041 O   0  0  0  0  0  0  0  0  0  0  0  0
    6.9159  -13.8570   21.2319 C   0  0  0  0  0  0  0  0  0  0  0  0
    7.6513  -15.1003   21.6642 C   0  0  2  0  0  0  0  0  0  0  0  0
    6.7603  -16.1988   21.9160 N   0  0  0  0  0  0  0  0  0  0  0  0
    8.4985  -14.8520   22.8692 C   0  0  0  0  0  0  0  0  0  0  0  0
    9.4028  -13.9948   22.8199 O   0  0  0  0  0  0  0  0  0  0  0  0
    6.0282  -11.1853   26.4523 C   0  0  0  0  0  0  0  0  0  0  0  0
    6.2969  -12.9637   26.2509 S   0  0  0  0  0  0  0  0  0  0  0  0
    8.0168  -13.4088   26.4818 C   0  0  0  0  0  0  0  0  0  0  0  0
    8.2241  -14.8722   26.3335 C   0  0  0  0  0  0  0  0  0  0  0  0
    9.1739  -15.2554   25.2628 C   0  0  2  0  0  0  0  0  0  0  0  0
    8.3120  -15.5607   24.0798 N   0  0  0  0  0  0  0  0  0  0  0  0
   10.0943  -16.3496   25.4492 C   0  0  0  0  0  0  0  0  0  0  0  0
   10.0180  -17.4909   24.9427 O   0  0  0  0  0  0  0  0  0  0  0  0
   11.2229  -16.1676   26.2846 O   0  0  0  0  0  0  0  0  0  0  0  0
  1  2  1  0
  2  3  2  0
  4  2  1  0
  4  5  1  0
  5  6  1  6
  7  5  1  0
  7 11  1  0
  8  7  2  0
 10  9  1  1
 10 11  1  0
 10 12  1  0
 12 13  2  0
 12 19  1  0
 14 15  1  0
 15 16  1  0
 17 16  1  0
 18 17  1  1
 19 18  1  0
 20 18  1  0
 20 22  1  0
 21 20  2  0
M  END
$$$$
