NAM.pdb
     RDKit          3D

 22 21  0  0  1  0  0  0  0  0999 V2000
   14.4854  -14.9846   17.3323 N   0  0  0  0  0  0  0  0  0  0  0  0
   14.2620  -14.7011   18.7059 C   0  0  0  0  0  0  0  0  0  0  0  0
   15.2001  -14.4129   19.4718 O   0  0  0  0  0  0  0  0  0  0  0  0
   12.8870  -14.7600   19.1906 C   0  0  0  0  0  0  0  0  0  0  0  0
   12.7351  -15.5444   20.4620 C   0  0  2  0  0  0  0  0  0  0  0  0
   13.0234  -16.9409   20.1038 N   0  0  0  0  0  0  0  0  0  0  0  0
   11.3217  -15.4559   20.9313 C   0  0  0  0  0  0  0  0  0  0  0  0
   10.7276  -14.4041   21.2200 O   0  0  0  0  0  0  0  0  0  0  0  0
    8.4949  -17.9203   21.5189 C   0  0  0  0  0  0  0  0  0  0  0  0
    9.2361  -16.6157   21.6673 C   0  0  2  0  0  0  0  0  0  0  0  0
   10.5447  -16.6639   21.0762 N   0  0  0  0  0  0  0  0  0  0  0  0
    9.3443  -16.1997   23.0979 C   0  0  0  0  0  0  0  0  0  0  0  0
   10.3905  -16.4416   23.7319 O   0  0  0  0  0  0  0  0  0  0  0  0
    7.0019  -10.6516   25.7083 C   0  0  0  0  0  0  0  0  0  0  0  0
    6.4362  -11.9613   26.8220 S   0  0  0  0  0  0  0  0  0  0  0  0
    7.4884  -13.4089   26.7379 C   0  0  0  0  0  0  0  0  0  0  0  0
    7.5576  -13.9508   25.3565 C   0  0  0  0  0  0  0  0  0  0  0  0
    8.4672  -15.1089   25.1930 C   0  0  2  0  0  0  0  0  0  0  0  0
    8.2924  -15.5330   23.7699 N   0  0  0  0  0  0  0  0  0  0  0  0
    8.3385  -16.2734   26.0335 C   0  0  0  0  0  0  0  0  0  0  0  0
    7.6038  -17.2663   25.8353 O   0  0  0  0  0  0  0  0  0  0  0  0
    9.1027  -16.3542   27.2228 O   0  0  0  0  0  0  0  0  0  0  0  0
  1  2  1  0
  2  3  2  0
  4  2  1  0
  4  5  1  0
  5  6  1  6
  7  5  1  0
  7 11  1  0
  8  7  2  0
 10  9  1  1
 10 11  1  0
 10 12  1  0
 12 13  2  0
 12 19  1  0
 14 15  1  0
 15 16  1  0
 17 16  1  0
 18 17  1  1
 19 18  1  0
 20 18  1  0
 20 22  1  0
 21 20  2  0
M  END
$$$$
