GGN.pdb
     RDKit          3D

 17 16  0  0  1  0  0  0  0  0999 V2000
    4.1143  -19.5847   21.4053 N   0  0  0  0  0  0  0  0  0  0  0  0
    4.2048  -18.3624   22.1811 C   0  0  0  0  0  0  0  0  0  0  0  0
    5.3114  -17.5262   21.5815 C   0  0  0  0  0  0  0  0  0  0  0  0
    6.4411  -18.0119   21.3061 O   0  0  0  0  0  0  0  0  0  0  0  0
    5.1174  -16.1486   21.3040 N   0  0  0  0  0  0  0  0  0  0  0  0
    6.1302  -15.2716   20.7865 C   0  0  0  0  0  0  0  0  0  0  0  0
    7.1119  -14.8775   21.8321 C   0  0  0  0  0  0  0  0  0  0  0  0
    8.0587  -14.1095   21.5239 O   0  0  0  0  0  0  0  0  0  0  0  0
    8.2846  -12.9021   27.0054 N   0  0  0  0  0  0  0  0  0  0  0  0
    8.1149  -14.2296   26.5506 C   0  0  0  0  0  0  0  0  0  0  0  0
    8.6750  -15.1626   27.1499 O   0  0  0  0  0  0  0  0  0  0  0  0
    7.2796  -14.5056   25.3764 C   0  0  0  0  0  0  0  0  0  0  0  0
    8.0347  -15.0174   24.1757 C   0  0  2  0  0  0  0  0  0  0  0  0
    7.0199  -15.3376   23.1718 N   0  0  0  0  0  0  0  0  0  0  0  0
    8.9015  -16.1775   24.4582 C   0  0  0  0  0  0  0  0  0  0  0  0
    8.4222  -17.4746   24.5160 O   0  0  0  0  0  0  0  0  0  0  0  0
   10.1325  -15.9595   24.6547 O   0  0  0  0  0  0  0  0  0  0  0  0
  1  2  1  0
  3  5  1  0
  3  2  1  0
  4  3  2  0
  6  5  1  0
  7  6  1  0
  8  7  2  0
  9 10  1  0
 10 12  1  0
 11 10  2  0
 13 12  1  1
 13 15  1  0
 13 14  1  0
 14  7  1  0
 15 16  1  0
 17 15  2  0
M  END
$$$$
