GGN.pdb
     RDKit          3D

 17 16  0  0  1  0  0  0  0  0999 V2000
    6.3245  -17.8587   17.2728 N   0  0  0  0  0  0  0  0  0  0  0  0
    7.3815  -17.8558   18.2660 C   0  0  0  0  0  0  0  0  0  0  0  0
    7.6331  -16.4178   18.6559 C   0  0  0  0  0  0  0  0  0  0  0  0
    8.5876  -15.7520   18.1724 O   0  0  0  0  0  0  0  0  0  0  0  0
    6.7955  -15.7573   19.5911 N   0  0  0  0  0  0  0  0  0  0  0  0
    7.0536  -14.4543   20.1373 C   0  0  0  0  0  0  0  0  0  0  0  0
    7.7276  -14.5298   21.4611 C   0  0  0  0  0  0  0  0  0  0  0  0
    8.1408  -13.4706   21.9984 O   0  0  0  0  0  0  0  0  0  0  0  0
    5.5998  -17.4337   23.6207 N   0  0  0  0  0  0  0  0  0  0  0  0
    6.5340  -16.7288   24.4134 C   0  0  0  0  0  0  0  0  0  0  0  0
    6.1318  -15.9421   25.2867 O   0  0  0  0  0  0  0  0  0  0  0  0
    7.9732  -16.9259   24.2072 C   0  0  0  0  0  0  0  0  0  0  0  0
    8.6482  -15.8364   23.4127 C   0  0  2  0  0  0  0  0  0  0  0  0
    7.9232  -15.7585   22.1445 N   0  0  0  0  0  0  0  0  0  0  0  0
   10.0919  -16.0528   23.1985 C   0  0  0  0  0  0  0  0  0  0  0  0
   11.0215  -15.0299   23.2697 O   0  0  0  0  0  0  0  0  0  0  0  0
   10.4795  -17.2291   22.9386 O   0  0  0  0  0  0  0  0  0  0  0  0
  1  2  1  0
  3  5  1  0
  3  2  1  0
  4  3  2  0
  6  5  1  0
  7  6  1  0
  8  7  2  0
  9 10  1  0
 10 12  1  0
 11 10  2  0
 13 12  1  1
 13 15  1  0
 13 14  1  0
 14  7  1  0
 15 16  1  0
 17 15  2  0
M  END
$$$$
