GGN.pdb
     RDKit          3D

 17 16  0  0  1  0  0  0  0  0999 V2000
    7.9492  -16.4879   16.0359 N   0  0  0  0  0  0  0  0  0  0  0  0
    7.1177  -16.0522   17.1417 C   0  0  0  0  0  0  0  0  0  0  0  0
    7.7485  -14.8067   17.7195 C   0  0  0  0  0  0  0  0  0  0  0  0
    8.9578  -14.5154   17.5177 O   0  0  0  0  0  0  0  0  0  0  0  0
    6.9948  -13.9101   18.5197 N   0  0  0  0  0  0  0  0  0  0  0  0
    7.5420  -12.7719   19.2038 C   0  0  0  0  0  0  0  0  0  0  0  0
    8.3055  -13.1668   20.4176 C   0  0  0  0  0  0  0  0  0  0  0  0
    8.8174  -12.2711   21.1366 O   0  0  0  0  0  0  0  0  0  0  0  0
    7.6205  -13.5699   23.8817 N   0  0  0  0  0  0  0  0  0  0  0  0
    7.4916  -14.9756   23.8074 C   0  0  0  0  0  0  0  0  0  0  0  0
    6.7151  -15.5647   24.5777 O   0  0  0  0  0  0  0  0  0  0  0  0
    8.2701  -15.7363   22.8237 C   0  0  0  0  0  0  0  0  0  0  0  0
    9.2210  -14.9063   21.9986 C   0  0  2  0  0  0  0  0  0  0  0  0
    8.4789  -14.5235   20.7975 N   0  0  0  0  0  0  0  0  0  0  0  0
   10.4822  -15.5928   21.6599 C   0  0  0  0  0  0  0  0  0  0  0  0
   11.6655  -15.3655   22.3412 O   0  0  0  0  0  0  0  0  0  0  0  0
   10.4643  -16.4206   20.7029 O   0  0  0  0  0  0  0  0  0  0  0  0
  1  2  1  0
  3  5  1  0
  3  2  1  0
  4  3  2  0
  6  5  1  0
  7  6  1  0
  8  7  2  0
  9 10  1  0
 10 12  1  0
 11 10  2  0
 13 12  1  1
 13 15  1  0
 13 14  1  0
 14  7  1  0
 15 16  1  0
 17 15  2  0
M  END
$$$$
