GGN.pdb
     RDKit          3D

 17 16  0  0  1  0  0  0  0  0999 V2000
    6.6462  -18.6039   21.0190 N   0  0  0  0  0  0  0  0  0  0  0  0
    5.4297  -17.8351   20.8377 C   0  0  0  0  0  0  0  0  0  0  0  0
    5.6122  -16.5209   21.5607 C   0  0  0  0  0  0  0  0  0  0  0  0
    5.2511  -16.3614   22.7575 O   0  0  0  0  0  0  0  0  0  0  0  0
    6.2023  -15.4060   20.9119 N   0  0  0  0  0  0  0  0  0  0  0  0
    6.5189  -14.1622   21.5565 C   0  0  0  0  0  0  0  0  0  0  0  0
    7.6026  -14.3176   22.5633 C   0  0  0  0  0  0  0  0  0  0  0  0
    8.1215  -13.2890   23.0673 O   0  0  0  0  0  0  0  0  0  0  0  0
    9.5615  -16.7288   27.2609 N   0  0  0  0  0  0  0  0  0  0  0  0
    9.6409  -17.2140   25.9356 C   0  0  0  0  0  0  0  0  0  0  0  0
   10.5522  -17.9969   25.6196 O   0  0  0  0  0  0  0  0  0  0  0  0
    8.6504  -16.7965   24.9371 C   0  0  0  0  0  0  0  0  0  0  0  0
    9.1338  -15.7375   23.9786 C   0  0  2  0  0  0  0  0  0  0  0  0
    8.0758  -15.5897   22.9792 N   0  0  0  0  0  0  0  0  0  0  0  0
   10.4336  -16.0414   23.3500 C   0  0  0  0  0  0  0  0  0  0  0  0
   11.6396  -15.6157   23.8792 O   0  0  0  0  0  0  0  0  0  0  0  0
   10.4276  -16.7202   22.2820 O   0  0  0  0  0  0  0  0  0  0  0  0
  1  2  1  0
  3  5  1  0
  3  2  1  0
  4  3  2  0
  6  5  1  0
  7  6  1  0
  8  7  2  0
  9 10  1  0
 10 12  1  0
 11 10  2  0
 13 12  1  1
 13 15  1  0
 13 14  1  0
 14  7  1  0
 15 16  1  0
 17 15  2  0
M  END
$$$$
