GGN.pdb
     RDKit          3D

 17 16  0  0  1  0  0  0  0  0999 V2000
    5.9387  -17.2364   17.3630 N   0  0  0  0  0  0  0  0  0  0  0  0
    7.2404  -17.3479   16.7329 C   0  0  0  0  0  0  0  0  0  0  0  0
    8.0212  -16.1023   17.0825 C   0  0  0  0  0  0  0  0  0  0  0  0
    9.2534  -15.9967   16.8403 O   0  0  0  0  0  0  0  0  0  0  0  0
    7.3894  -14.9945   17.7036 N   0  0  0  0  0  0  0  0  0  0  0  0
    8.0321  -13.7401   17.9799 C   0  0  0  0  0  0  0  0  0  0  0  0
    8.8944  -13.8116   19.1897 C   0  0  0  0  0  0  0  0  0  0  0  0
    9.6024  -12.8185   19.4958 O   0  0  0  0  0  0  0  0  0  0  0  0
    7.6260  -15.1730   24.2449 N   0  0  0  0  0  0  0  0  0  0  0  0
    8.6710  -14.8147   23.3631 C   0  0  0  0  0  0  0  0  0  0  0  0
    9.2702  -13.7382   23.5229 O   0  0  0  0  0  0  0  0  0  0  0  0
    9.0482  -15.7106   22.2642 C   0  0  0  0  0  0  0  0  0  0  0  0
    9.8478  -15.0551   21.1666 C   0  0  2  0  0  0  0  0  0  0  0  0
    8.9487  -14.9643   20.0163 N   0  0  0  0  0  0  0  0  0  0  0  0
   11.0954  -15.7643   20.8239 C   0  0  0  0  0  0  0  0  0  0  0  0
   11.2622  -16.4560   19.6366 O   0  0  0  0  0  0  0  0  0  0  0  0
   12.0427  -15.7296   21.6623 O   0  0  0  0  0  0  0  0  0  0  0  0
  1  2  1  0
  3  5  1  0
  3  2  1  0
  4  3  2  0
  6  5  1  0
  7  6  1  0
  8  7  2  0
  9 10  1  0
 10 12  1  0
 11 10  2  0
 13 12  1  1
 13 15  1  0
 13 14  1  0
 14  7  1  0
 15 16  1  0
 17 15  2  0
M  END
$$$$
