GGN.pdb
     RDKit          3D

 17 16  0  0  1  0  0  0  0  0999 V2000
    8.1161  -18.1497   18.6974 N   0  0  0  0  0  0  0  0  0  0  0  0
    8.6157  -16.8831   19.1973 C   0  0  0  0  0  0  0  0  0  0  0  0
    7.6478  -16.3987   20.2517 C   0  0  0  0  0  0  0  0  0  0  0  0
    6.4013  -16.5360   20.1276 O   0  0  0  0  0  0  0  0  0  0  0  0
    8.1116  -15.7643   21.4327 N   0  0  0  0  0  0  0  0  0  0  0  0
    7.2709  -15.3647   22.5265 C   0  0  0  0  0  0  0  0  0  0  0  0
    8.0625  -14.8697   23.6844 C   0  0  0  0  0  0  0  0  0  0  0  0
    9.3161  -14.8267   23.5947 O   0  0  0  0  0  0  0  0  0  0  0  0
    5.2724  -11.9272   26.4866 N   0  0  0  0  0  0  0  0  0  0  0  0
    6.6751  -12.1020   26.4986 C   0  0  0  0  0  0  0  0  0  0  0  0
    7.4131  -11.1893   26.0917 O   0  0  0  0  0  0  0  0  0  0  0  0
    7.2577  -13.3552   26.9909 C   0  0  0  0  0  0  0  0  0  0  0  0
    8.2386  -14.0044   26.0473 C   0  0  2  0  0  0  0  0  0  0  0  0
    7.4535  -14.4418   24.8931 N   0  0  0  0  0  0  0  0  0  0  0  0
    8.9969  -15.1220   26.6412 C   0  0  0  0  0  0  0  0  0  0  0  0
   10.1051  -14.9305   27.4480 O   0  0  0  0  0  0  0  0  0  0  0  0
    8.6047  -16.2990   26.3915 O   0  0  0  0  0  0  0  0  0  0  0  0
  1  2  1  0
  3  5  1  0
  3  2  1  0
  4  3  2  0
  6  5  1  0
  7  6  1  0
  8  7  2  0
  9 10  1  0
 10 12  1  0
 11 10  2  0
 13 12  1  1
 13 15  1  0
 13 14  1  0
 14  7  1  0
 15 16  1  0
 17 15  2  0
M  END
$$$$
