GGN.pdb
     RDKit          3D

 17 16  0  0  1  0  0  0  0  0999 V2000
    5.5206  -19.7847   22.4296 N   0  0  0  0  0  0  0  0  0  0  0  0
    5.5642  -18.7649   23.4602 C   0  0  0  0  0  0  0  0  0  0  0  0
    6.8000  -17.9295   23.2189 C   0  0  0  0  0  0  0  0  0  0  0  0
    7.9562  -18.3562   23.4817 O   0  0  0  0  0  0  0  0  0  0  0  0
    6.7030  -16.6199   22.6825 N   0  0  0  0  0  0  0  0  0  0  0  0
    7.8275  -15.7897   22.3522 C   0  0  0  0  0  0  0  0  0  0  0  0
    8.4033  -15.1293   23.5542 C   0  0  0  0  0  0  0  0  0  0  0  0
    9.5295  -14.5766   23.4681 O   0  0  0  0  0  0  0  0  0  0  0  0
    5.5631  -12.1363   26.3904 N   0  0  0  0  0  0  0  0  0  0  0  0
    6.9045  -12.5596   26.5297 C   0  0  0  0  0  0  0  0  0  0  0  0
    7.8264  -11.7358   26.4082 O   0  0  0  0  0  0  0  0  0  0  0  0
    7.2077  -13.9658   26.8181 C   0  0  0  0  0  0  0  0  0  0  0  0
    8.3404  -14.5426   26.0068 C   0  0  2  0  0  0  0  0  0  0  0  0
    7.7261  -15.0990   24.8014 N   0  0  0  0  0  0  0  0  0  0  0  0
    9.1407  -15.5543   26.7230 C   0  0  0  0  0  0  0  0  0  0  0  0
   10.0303  -15.2289   27.7322 O   0  0  0  0  0  0  0  0  0  0  0  0
    8.9963  -16.7659   26.3873 O   0  0  0  0  0  0  0  0  0  0  0  0
  1  2  1  0
  3  5  1  0
  3  2  1  0
  4  3  2  0
  6  5  1  0
  7  6  1  0
  8  7  2  0
  9 10  1  0
 10 12  1  0
 11 10  2  0
 13 12  1  1
 13 15  1  0
 13 14  1  0
 14  7  1  0
 15 16  1  0
 17 15  2  0
M  END
$$$$
