GGN.pdb
     RDKit          3D

 17 16  0  0  1  0  0  0  0  0999 V2000
    1.8890  -20.1872   20.7237 N   0  0  0  0  0  0  0  0  0  0  0  0
    3.0091  -20.4446   21.6086 C   0  0  0  0  0  0  0  0  0  0  0  0
    3.4430  -19.1182   22.1879 C   0  0  0  0  0  0  0  0  0  0  0  0
    2.7290  -18.4826   23.0091 O   0  0  0  0  0  0  0  0  0  0  0  0
    4.6830  -18.5331   21.8244 N   0  0  0  0  0  0  0  0  0  0  0  0
    5.2346  -17.3524   22.4285 C   0  0  0  0  0  0  0  0  0  0  0  0
    6.4069  -17.6640   23.2892 C   0  0  0  0  0  0  0  0  0  0  0  0
    7.5577  -17.3470   22.8936 O   0  0  0  0  0  0  0  0  0  0  0  0
    7.8671  -19.1495   28.8086 N   0  0  0  0  0  0  0  0  0  0  0  0
    8.1822  -18.2775   27.7416 C   0  0  0  0  0  0  0  0  0  0  0  0
    9.3125  -17.7662   27.6770 O   0  0  0  0  0  0  0  0  0  0  0  0
    7.1794  -17.9782   26.7134 C   0  0  0  0  0  0  0  0  0  0  0  0
    7.4336  -18.6337   25.3794 C   0  0  2  0  0  0  0  0  0  0  0  0
    6.2754  -18.3087   24.5469 N   0  0  0  0  0  0  0  0  0  0  0  0
    7.6536  -20.0906   25.4559 C   0  0  0  0  0  0  0  0  0  0  0  0
    6.6384  -21.0126   25.2687 O   0  0  0  0  0  0  0  0  0  0  0  0
    8.8257  -20.4976   25.7049 O   0  0  0  0  0  0  0  0  0  0  0  0
  1  2  1  0
  3  5  1  0
  3  2  1  0
  4  3  2  0
  6  5  1  0
  7  6  1  0
  8  7  2  0
  9 10  1  0
 10 12  1  0
 11 10  2  0
 13 12  1  1
 13 15  1  0
 13 14  1  0
 14  7  1  0
 15 16  1  0
 17 15  2  0
M  END
$$$$
