GGN.pdb
     RDKit          3D

 17 16  0  0  1  0  0  0  0  0999 V2000
    7.4280  -23.2725   20.6982 N   0  0  0  0  0  0  0  0  0  0  0  0
    8.1941  -22.0823   21.0150 C   0  0  0  0  0  0  0  0  0  0  0  0
    7.2504  -20.9042   20.9452 C   0  0  0  0  0  0  0  0  0  0  0  0
    6.4174  -20.7704   20.0091 O   0  0  0  0  0  0  0  0  0  0  0  0
    7.2680  -19.8943   21.9412 N   0  0  0  0  0  0  0  0  0  0  0  0
    6.7510  -18.5661   21.7635 C   0  0  0  0  0  0  0  0  0  0  0  0
    7.8379  -17.5590   21.6345 C   0  0  0  0  0  0  0  0  0  0  0  0
    8.2792  -17.2783   20.4910 O   0  0  0  0  0  0  0  0  0  0  0  0
    6.6813  -13.8804   21.3076 N   0  0  0  0  0  0  0  0  0  0  0  0
    8.0569  -14.2029   21.3507 C   0  0  0  0  0  0  0  0  0  0  0  0
    8.7260  -14.1896   20.3041 O   0  0  0  0  0  0  0  0  0  0  0  0
    8.6930  -14.5504   22.6263 C   0  0  0  0  0  0  0  0  0  0  0  0
    9.4272  -15.8676   22.6229 C   0  0  2  0  0  0  0  0  0  0  0  0
    8.3988  -16.8990   22.7592 N   0  0  0  0  0  0  0  0  0  0  0  0
   10.4561  -15.9868   23.6735 C   0  0  0  0  0  0  0  0  0  0  0  0
   11.7655  -15.5776   23.4899 O   0  0  0  0  0  0  0  0  0  0  0  0
   10.1104  -16.4875   24.7831 O   0  0  0  0  0  0  0  0  0  0  0  0
  1  2  1  0
  3  5  1  0
  3  2  1  0
  4  3  2  0
  6  5  1  0
  7  6  1  0
  8  7  2  0
  9 10  1  0
 10 12  1  0
 11 10  2  0
 13 12  1  1
 13 15  1  0
 13 14  1  0
 14  7  1  0
 15 16  1  0
 17 15  2  0
M  END
$$$$
