GGN.pdb
     RDKit          3D

 17 16  0  0  1  0  0  0  0  0999 V2000
   -0.0408  -22.1543   21.6196 N   0  0  0  0  0  0  0  0  0  0  0  0
    0.9382  -22.0299   22.6826 C   0  0  0  0  0  0  0  0  0  0  0  0
    1.5623  -23.3910   22.8854 C   0  0  0  0  0  0  0  0  0  0  0  0
    2.0482  -24.0520   21.9288 O   0  0  0  0  0  0  0  0  0  0  0  0
    1.6244  -23.9815   24.1737 N   0  0  0  0  0  0  0  0  0  0  0  0
    2.2685  -25.2314   24.4665 C   0  0  0  0  0  0  0  0  0  0  0  0
    3.4994  -25.0453   25.2805 C   0  0  0  0  0  0  0  0  0  0  0  0
    4.2501  -26.0325   25.4888 O   0  0  0  0  0  0  0  0  0  0  0  0
    7.5033  -22.7073   27.7458 N   0  0  0  0  0  0  0  0  0  0  0  0
    6.6334  -21.7264   27.2176 C   0  0  0  0  0  0  0  0  0  0  0  0
    6.9128  -20.5226   27.3440 O   0  0  0  0  0  0  0  0  0  0  0  0
    5.4059  -22.1277   26.5213 C   0  0  0  0  0  0  0  0  0  0  0  0
    5.0951  -23.6013   26.5966 C   0  0  2  0  0  0  0  0  0  0  0  0
    3.8609  -23.7892   25.8340 N   0  0  0  0  0  0  0  0  0  0  0  0
    4.9662  -24.1207   27.9715 C   0  0  0  0  0  0  0  0  0  0  0  0
    6.0416  -24.6131   28.6904 O   0  0  0  0  0  0  0  0  0  0  0  0
    3.8167  -24.1092   28.5007 O   0  0  0  0  0  0  0  0  0  0  0  0
  1  2  1  0
  3  5  1  0
  3  2  1  0
  4  3  2  0
  6  5  1  0
  7  6  1  0
  8  7  2  0
  9 10  1  0
 10 12  1  0
 11 10  2  0
 13 12  1  1
 13 15  1  0
 13 14  1  0
 14  7  1  0
 15 16  1  0
 17 15  2  0
M  END
$$$$
