GGN.pdb
     RDKit          3D

 17 16  0  0  1  0  0  0  0  0999 V2000
    6.4300  -19.5229   24.0894 N   0  0  0  0  0  0  0  0  0  0  0  0
    5.7931  -18.4436   23.3591 C   0  0  0  0  0  0  0  0  0  0  0  0
    6.8688  -17.4475   22.9932 C   0  0  0  0  0  0  0  0  0  0  0  0
    8.0911  -17.7543   22.9935 O   0  0  0  0  0  0  0  0  0  0  0  0
    6.5390  -16.1158   22.6326 N   0  0  0  0  0  0  0  0  0  0  0  0
    7.4976  -15.1070   22.2772 C   0  0  0  0  0  0  0  0  0  0  0  0
    8.1073  -14.4722   23.4762 C   0  0  0  0  0  0  0  0  0  0  0  0
    9.1063  -13.7226   23.3302 O   0  0  0  0  0  0  0  0  0  0  0  0
    5.2401  -12.2018   26.6116 N   0  0  0  0  0  0  0  0  0  0  0  0
    6.6394  -12.3990   26.5768 C   0  0  0  0  0  0  0  0  0  0  0  0
    7.3866  -11.4577   26.2623 O   0  0  0  0  0  0  0  0  0  0  0  0
    7.2078  -13.7093   26.9120 C   0  0  0  0  0  0  0  0  0  0  0  0
    8.2911  -14.1815   25.9753 C   0  0  2  0  0  0  0  0  0  0  0  0
    7.6015  -14.6815   24.7860 N   0  0  0  0  0  0  0  0  0  0  0  0
    9.1842  -15.2039   26.5531 C   0  0  0  0  0  0  0  0  0  0  0  0
   10.2165  -14.8929   27.4212 O   0  0  0  0  0  0  0  0  0  0  0  0
    8.9849  -16.4112   26.2302 O   0  0  0  0  0  0  0  0  0  0  0  0
  1  2  1  0
  3  5  1  0
  3  2  1  0
  4  3  2  0
  6  5  1  0
  7  6  1  0
  8  7  2  0
  9 10  1  0
 10 12  1  0
 11 10  2  0
 13 12  1  1
 13 15  1  0
 13 14  1  0
 14  7  1  0
 15 16  1  0
 17 15  2  0
M  END
$$$$
