GGN.pdb
     RDKit          3D

 17 16  0  0  1  0  0  0  0  0999 V2000
    7.3690  -17.2075   18.9438 N   0  0  0  0  0  0  0  0  0  0  0  0
    7.3210  -18.3164   19.8776 C   0  0  0  0  0  0  0  0  0  0  0  0
    7.4467  -17.7422   21.2696 C   0  0  0  0  0  0  0  0  0  0  0  0
    8.5267  -17.7914   21.9171 O   0  0  0  0  0  0  0  0  0  0  0  0
    6.3417  -17.1207   21.9059 N   0  0  0  0  0  0  0  0  0  0  0  0
    6.4097  -16.4266   23.1615 C   0  0  0  0  0  0  0  0  0  0  0  0
    6.3743  -17.3625   24.3170 C   0  0  0  0  0  0  0  0  0  0  0  0
    5.4220  -17.2889   25.1349 O   0  0  0  0  0  0  0  0  0  0  0  0
    9.6053  -20.1464   24.2697 N   0  0  0  0  0  0  0  0  0  0  0  0
    8.5315  -21.0510   24.4330 C   0  0  0  0  0  0  0  0  0  0  0  0
    8.6221  -22.2034   23.9779 O   0  0  0  0  0  0  0  0  0  0  0  0
    7.3153  -20.6319   25.1384 C   0  0  0  0  0  0  0  0  0  0  0  0
    7.3633  -19.2307   25.6936 C   0  0  2  0  0  0  0  0  0  0  0  0
    7.3799  -18.3408   24.5326 N   0  0  0  0  0  0  0  0  0  0  0  0
    8.5089  -18.9755   26.5877 C   0  0  0  0  0  0  0  0  0  0  0  0
    8.5855  -19.4864   27.8718 O   0  0  0  0  0  0  0  0  0  0  0  0
    9.4523  -18.2565   26.1466 O   0  0  0  0  0  0  0  0  0  0  0  0
  1  2  1  0
  3  5  1  0
  3  2  1  0
  4  3  2  0
  6  5  1  0
  7  6  1  0
  8  7  2  0
  9 10  1  0
 10 12  1  0
 11 10  2  0
 13 12  1  6
 13 15  1  0
 13 14  1  0
 14  7  1  0
 15 16  1  0
 17 15  2  0
M  END
$$$$
