GGN.pdb
     RDKit          3D

 17 16  0  0  1  0  0  0  0  0999 V2000
    6.9714  -21.8733   25.4400 N   0  0  0  0  0  0  0  0  0  0  0  0
    6.6679  -20.4776   25.6926 C   0  0  0  0  0  0  0  0  0  0  0  0
    6.8953  -19.7239   24.4029 C   0  0  0  0  0  0  0  0  0  0  0  0
    7.9530  -19.8551   23.7304 O   0  0  0  0  0  0  0  0  0  0  0  0
    5.9165  -18.8308   23.8965 N   0  0  0  0  0  0  0  0  0  0  0  0
    6.0895  -18.0078   22.7321 C   0  0  0  0  0  0  0  0  0  0  0  0
    6.9583  -16.8321   23.0063 C   0  0  0  0  0  0  0  0  0  0  0  0
    7.4815  -16.2197   22.0406 O   0  0  0  0  0  0  0  0  0  0  0  0
    6.1412  -12.5557   26.1804 N   0  0  0  0  0  0  0  0  0  0  0  0
    6.5580  -13.5934   25.3158 C   0  0  0  0  0  0  0  0  0  0  0  0
    6.0097  -13.7312   24.2096 O   0  0  0  0  0  0  0  0  0  0  0  0
    7.6347  -14.5035   25.7218 C   0  0  0  0  0  0  0  0  0  0  0  0
    8.2110  -15.3327   24.6019 C   0  0  2  0  0  0  0  0  0  0  0  0
    7.2204  -16.3725   24.3235 N   0  0  0  0  0  0  0  0  0  0  0  0
    9.5347  -15.9120   24.9003 C   0  0  0  0  0  0  0  0  0  0  0  0
   10.7204  -15.2526   24.6261 O   0  0  0  0  0  0  0  0  0  0  0  0
    9.5696  -17.0616   25.4284 O   0  0  0  0  0  0  0  0  0  0  0  0
  1  2  1  0
  3  5  1  0
  3  2  1  0
  4  3  2  0
  6  5  1  0
  7  6  1  0
  8  7  2  0
  9 10  1  0
 10 12  1  0
 11 10  2  0
 13 12  1  1
 13 15  1  0
 13 14  1  0
 14  7  1  0
 15 16  1  0
 17 15  2  0
M  END
$$$$
