SVY.pdb
     RDKit          3D

 26 26  0  0  1  0  0  0  0  0999 V2000
    8.1358  -19.2111   20.6220 O   0  0  0  0  0  0  0  0  0  0  0  0
    9.0057  -19.4025   19.5458 C   0  0  0  0  0  0  0  0  0  0  0  0
    9.0357  -18.1019   18.7737 C   0  0  2  0  0  0  0  0  0  0  0  0
    9.9541  -18.2570   17.6818 N   0  0  0  0  0  0  0  0  0  0  0  0
    9.4386  -16.9613   19.6548 C   0  0  0  0  0  0  0  0  0  0  0  0
   10.6347  -16.9355   20.0360 O   0  0  0  0  0  0  0  0  0  0  0  0
    6.5499  -13.9626   21.1878 C   0  0  0  0  0  0  0  0  0  0  0  0
    7.9778  -13.6606   20.7671 C   0  0  1  0  0  0  0  0  0  0  0  0
    8.4338  -12.4608   21.5150 C   0  0  0  0  0  0  0  0  0  0  0  0
    8.7973  -14.8816   20.9277 C   0  0  2  0  0  0  0  0  0  0  0  0
    8.4994  -15.9674   20.0301 N   0  0  0  0  0  0  0  0  0  0  0  0
    8.8949  -15.4014   22.3193 C   0  0  0  0  0  0  0  0  0  0  0  0
    8.2046  -16.3934   22.6329 O   0  0  0  0  0  0  0  0  0  0  0  0
    5.8136  -10.9805   26.8402 O   0  0  0  0  0  0  0  0  0  0  0  0
    6.4516  -12.1464   26.4194 C   0  0  0  0  0  0  0  0  0  0  0  0
    5.7526  -13.1732   25.8332 C   0  0  0  0  0  0  0  0  0  0  0  0
    6.3750  -14.3187   25.4189 C   0  0  0  0  0  0  0  0  0  0  0  0
    7.7209  -14.4909   25.5710 C   0  0  0  0  0  0  0  0  0  0  0  0
    8.4076  -15.7199   25.1363 C   0  0  0  0  0  0  0  0  0  0  0  0
    9.7743  -15.4242   24.6321 C   0  0  2  0  0  0  0  0  0  0  0  0
    9.7309  -14.8241   23.2971 N   0  0  0  0  0  0  0  0  0  0  0  0
   10.6204  -16.6314   24.6095 C   0  0  0  0  0  0  0  0  0  0  0  0
   10.2061  -17.8053   24.5338 O   0  0  0  0  0  0  0  0  0  0  0  0
    8.4441  -13.4643   26.1611 C   0  0  0  0  0  0  0  0  0  0  0  0
    7.8197  -12.3199   26.5744 C   0  0  0  0  0  0  0  0  0  0  0  0
   12.0202  -16.4598   24.6785 O   0  0  0  0  0  0  0  0  0  0  0  0
  1  2  1  0
  3  2  1  0
  3  5  1  0
  3  4  1  6
  5  6  2  0
  8  7  1  1
  8 10  1  0
  8  9  1  0
 10 11  1  6
 11  5  1  0
 12 21  1  0
 12 10  1  0
 13 12  2  0
 15 25  2  0
 15 14  1  0
 16 15  1  0
 17 18  1  0
 17 16  2  0
 18 24  2  0
 19 18  1  0
 20 21  1  0
 20 19  1  6
 22 20  1  0
 23 22  2  0
 24 25  1  0
 26 22  1  0
M  END
$$$$
