SVY.pdb
     RDKit          3D

 26 26  0  0  1  0  0  0  0  0999 V2000
   10.2704  -19.0706   17.2634 O   0  0  0  0  0  0  0  0  0  0  0  0
    9.3755  -18.0390   17.5577 C   0  0  0  0  0  0  0  0  0  0  0  0
    7.9901  -18.6463   17.5398 C   0  0  2  0  0  0  0  0  0  0  0  0
    7.3934  -18.3489   16.2688 N   0  0  0  0  0  0  0  0  0  0  0  0
    7.1542  -18.1147   18.6616 C   0  0  0  0  0  0  0  0  0  0  0  0
    6.5275  -17.0485   18.4447 O   0  0  0  0  0  0  0  0  0  0  0  0
    6.1060  -20.6623   21.8724 C   0  0  0  0  0  0  0  0  0  0  0  0
    5.3192  -19.4099   21.5270 C   0  0  1  0  0  0  0  0  0  0  0  0
    4.5248  -19.0216   22.7207 C   0  0  0  0  0  0  0  0  0  0  0  0
    6.2474  -18.3866   20.9984 C   0  0  2  0  0  0  0  0  0  0  0  0
    7.0863  -18.7974   19.9026 N   0  0  0  0  0  0  0  0  0  0  0  0
    7.0748  -17.6913   22.0224 C   0  0  0  0  0  0  0  0  0  0  0  0
    8.1842  -18.1797   22.3215 O   0  0  0  0  0  0  0  0  0  0  0  0
    8.7887  -12.4537   18.5013 O   0  0  0  0  0  0  0  0  0  0  0  0
    8.4660  -12.9385   19.7679 C   0  0  0  0  0  0  0  0  0  0  0  0
    9.4382  -13.2128   20.6985 C   0  0  0  0  0  0  0  0  0  0  0  0
    9.1256  -13.6886   21.9423 C   0  0  0  0  0  0  0  0  0  0  0  0
    7.8305  -13.9120   22.3126 C   0  0  0  0  0  0  0  0  0  0  0  0
    7.4750  -14.4296   23.6456 C   0  0  0  0  0  0  0  0  0  0  0  0
    7.5365  -15.9143   23.6812 C   0  0  2  0  0  0  0  0  0  0  0  0
    6.6616  -16.5078   22.6680 N   0  0  0  0  0  0  0  0  0  0  0  0
    7.1882  -16.4429   25.0128 C   0  0  0  0  0  0  0  0  0  0  0  0
    6.1313  -17.0382   25.3024 O   0  0  0  0  0  0  0  0  0  0  0  0
    6.8343  -13.6407   21.3859 C   0  0  0  0  0  0  0  0  0  0  0  0
    7.1493  -13.1650   20.1430 C   0  0  0  0  0  0  0  0  0  0  0  0
    8.1203  -16.2678   26.0589 O   0  0  0  0  0  0  0  0  0  0  0  0
  1  2  1  0
  3  2  1  0
  3  5  1  0
  3  4  1  6
  5  6  2  0
  8  7  1  1
  8 10  1  0
  8  9  1  0
 10 11  1  6
 11  5  1  0
 12 21  1  0
 12 10  1  0
 13 12  2  0
 15 25  2  0
 15 14  1  0
 16 15  1  0
 17 18  1  0
 17 16  2  0
 18 24  2  0
 19 18  1  0
 20 21  1  0
 20 19  1  1
 22 20  1  0
 23 22  2  0
 24 25  1  0
 26 22  1  0
M  END
$$$$
