SVY.pdb
     RDKit          3D

 26 26  0  0  1  0  0  0  0  0999 V2000
    9.1023  -12.3330   20.2740 O   0  0  0  0  0  0  0  0  0  0  0  0
    9.3325  -13.6477   19.8615 C   0  0  0  0  0  0  0  0  0  0  0  0
    7.9752  -14.2856   19.6631 C   0  0  2  0  0  0  0  0  0  0  0  0
    7.0792  -13.2761   19.1753 N   0  0  0  0  0  0  0  0  0  0  0  0
    7.4680  -14.8811   20.9390 C   0  0  0  0  0  0  0  0  0  0  0  0
    6.6016  -14.2230   21.5658 O   0  0  0  0  0  0  0  0  0  0  0  0
    8.2458  -19.0123   21.8242 C   0  0  0  0  0  0  0  0  0  0  0  0
    7.0325  -18.2403   22.3129 C   0  0  1  0  0  0  0  0  0  0  0  0
    6.4683  -18.9619   23.4823 C   0  0  0  0  0  0  0  0  0  0  0  0
    7.4161  -16.8295   22.5383 C   0  0  2  0  0  0  0  0  0  0  0  0
    7.9553  -16.1300   21.4010 N   0  0  0  0  0  0  0  0  0  0  0  0
    8.2832  -16.5897   23.7244 C   0  0  0  0  0  0  0  0  0  0  0  0
    9.5205  -16.5591   23.5596 O   0  0  0  0  0  0  0  0  0  0  0  0
    5.7817  -10.4739   25.5795 O   0  0  0  0  0  0  0  0  0  0  0  0
    6.3298  -11.6894   25.9864 C   0  0  0  0  0  0  0  0  0  0  0  0
    5.5355  -12.7263   26.4111 C   0  0  0  0  0  0  0  0  0  0  0  0
    6.0695  -13.9205   26.8112 C   0  0  0  0  0  0  0  0  0  0  0  0
    7.4183  -14.1330   26.8055 C   0  0  0  0  0  0  0  0  0  0  0  0
    8.0118  -15.4104   27.2383 C   0  0  0  0  0  0  0  0  0  0  0  0
    8.7010  -16.0934   26.1123 C   0  0  2  0  0  0  0  0  0  0  0  0
    7.7699  -16.3961   25.0233 N   0  0  0  0  0  0  0  0  0  0  0  0
    9.3724  -17.3298   26.5531 C   0  0  0  0  0  0  0  0  0  0  0  0
    9.0208  -18.4896   26.2589 O   0  0  0  0  0  0  0  0  0  0  0  0
    8.2370  -13.0971   26.3796 C   0  0  0  0  0  0  0  0  0  0  0  0
    7.7008  -11.9041   25.9800 C   0  0  0  0  0  0  0  0  0  0  0  0
   10.5111  -17.2062   27.3787 O   0  0  0  0  0  0  0  0  0  0  0  0
  1  2  1  0
  3  2  1  0
  3  5  1  0
  3  4  1  1
  5  6  2  0
  8  7  1  1
  8 10  1  0
  8  9  1  0
 10 11  1  6
 11  5  1  0
 12 21  1  0
 12 10  1  0
 13 12  2  0
 15 25  2  0
 15 14  1  0
 16 15  1  0
 17 18  1  0
 17 16  2  0
 18 24  2  0
 19 18  1  0
 20 21  1  0
 20 19  1  1
 22 20  1  0
 23 22  2  0
 24 25  1  0
 26 22  1  0
M  END
$$$$
