SVY.pdb
     RDKit          3D

 26 26  0  0  1  0  0  0  0  0999 V2000
    8.5258  -19.1584   19.4563 O   0  0  0  0  0  0  0  0  0  0  0  0
    9.4185  -19.1247   18.3822 C   0  0  0  0  0  0  0  0  0  0  0  0
    9.3190  -17.7418   17.7768 C   0  0  2  0  0  0  0  0  0  0  0  0
   10.2307  -17.6769   16.6703 N   0  0  0  0  0  0  0  0  0  0  0  0
    9.6308  -16.6861   18.7907 C   0  0  0  0  0  0  0  0  0  0  0  0
   10.8295  -16.5827   19.1501 O   0  0  0  0  0  0  0  0  0  0  0  0
    8.1993  -12.8817   21.6021 C   0  0  0  0  0  0  0  0  0  0  0  0
    7.8480  -13.7759   20.4257 C   0  0  1  0  0  0  0  0  0  0  0  0
    7.7579  -12.9248   19.2116 C   0  0  0  0  0  0  0  0  0  0  0  0
    8.8102  -14.8979   20.3674 C   0  0  2  0  0  0  0  0  0  0  0  0
    8.6073  -15.8524   19.3086 N   0  0  0  0  0  0  0  0  0  0  0  0
    9.0209  -15.6201   21.6521 C   0  0  0  0  0  0  0  0  0  0  0  0
    8.2332  -16.5412   21.9521 O   0  0  0  0  0  0  0  0  0  0  0  0
   13.8764  -20.0287   20.4007 O   0  0  0  0  0  0  0  0  0  0  0  0
   13.3248  -19.1269   21.3096 C   0  0  0  0  0  0  0  0  0  0  0  0
   12.7406  -19.5542   22.4769 C   0  0  0  0  0  0  0  0  0  0  0  0
   12.1983  -18.6725   23.3712 C   0  0  0  0  0  0  0  0  0  0  0  0
   12.2145  -17.3268   23.1409 C   0  0  0  0  0  0  0  0  0  0  0  0
   11.6302  -16.3626   24.0897 C   0  0  0  0  0  0  0  0  0  0  0  0
   10.2030  -16.0929   23.7738 C   0  0  2  0  0  0  0  0  0  0  0  0
   10.0688  -15.3105   22.5433 N   0  0  0  0  0  0  0  0  0  0  0  0
    9.5204  -15.4007   24.8823 C   0  0  0  0  0  0  0  0  0  0  0  0
    9.0068  -14.2658   24.8211 O   0  0  0  0  0  0  0  0  0  0  0  0
   12.8005  -16.8760   21.9669 C   0  0  0  0  0  0  0  0  0  0  0  0
   13.3421  -17.7594   21.0744 C   0  0  0  0  0  0  0  0  0  0  0  0
    9.4328  -16.0665   26.1243 O   0  0  0  0  0  0  0  0  0  0  0  0
  1  2  1  0
  3  2  1  0
  3  5  1  0
  3  4  1  6
  5  6  2  0
  8  7  1  1
  8 10  1  0
  8  9  1  0
 10 11  1  6
 11  5  1  0
 12 21  1  0
 12 10  1  0
 13 12  2  0
 15 25  2  0
 15 14  1  0
 16 15  1  0
 17 18  1  0
 17 16  2  0
 18 24  2  0
 19 18  1  0
 20 21  1  0
 20 19  1  1
 22 20  1  0
 23 22  2  0
 24 25  1  0
 26 22  1  0
M  END
$$$$
