SVY.pdb
     RDKit          3D

 26 26  0  0  1  0  0  0  0  0999 V2000
    7.8463  -20.4682   19.4069 O   0  0  0  0  0  0  0  0  0  0  0  0
    8.3016  -19.4593   20.2593 C   0  0  0  0  0  0  0  0  0  0  0  0
    8.8183  -18.3443   19.3769 C   0  0  2  0  0  0  0  0  0  0  0  0
    9.9307  -18.8536   18.6266 N   0  0  0  0  0  0  0  0  0  0  0  0
    9.2210  -17.1552   20.1916 C   0  0  0  0  0  0  0  0  0  0  0  0
   10.4259  -17.0884   20.5386 O   0  0  0  0  0  0  0  0  0  0  0  0
    6.3171  -14.0975   21.5212 C   0  0  0  0  0  0  0  0  0  0  0  0
    7.7654  -13.8168   21.1596 C   0  0  1  0  0  0  0  0  0  0  0  0
    8.1951  -12.5986   21.8931 C   0  0  0  0  0  0  0  0  0  0  0  0
    8.5672  -15.0377   21.3938 C   0  0  2  0  0  0  0  0  0  0  0  0
    8.2721  -16.1623   20.5443 N   0  0  0  0  0  0  0  0  0  0  0  0
    8.6339  -15.4906   22.8104 C   0  0  0  0  0  0  0  0  0  0  0  0
    7.8675  -16.4049   23.1786 O   0  0  0  0  0  0  0  0  0  0  0  0
    5.9781  -10.6981   27.2928 O   0  0  0  0  0  0  0  0  0  0  0  0
    6.5159  -11.9180   26.8851 C   0  0  0  0  0  0  0  0  0  0  0  0
    5.7255  -12.9058   26.3503 C   0  0  0  0  0  0  0  0  0  0  0  0
    6.2494  -14.1040   25.9491 C   0  0  0  0  0  0  0  0  0  0  0  0
    7.5838  -14.3700   26.0637 C   0  0  0  0  0  0  0  0  0  0  0  0
    8.1651  -15.6567   25.6424 C   0  0  0  0  0  0  0  0  0  0  0  0
    9.5421  -15.4781   25.1121 C   0  0  2  0  0  0  0  0  0  0  0  0
    9.5226  -14.9337   23.7528 N   0  0  0  0  0  0  0  0  0  0  0  0
   10.3028  -16.7409   25.1330 C   0  0  0  0  0  0  0  0  0  0  0  0
   10.7759  -17.3185   24.1341 O   0  0  0  0  0  0  0  0  0  0  0  0
    8.3984  -13.3841   26.6017 C   0  0  0  0  0  0  0  0  0  0  0  0
    7.8723  -12.1869   27.0020 C   0  0  0  0  0  0  0  0  0  0  0  0
   10.5223  -17.3606   26.3826 O   0  0  0  0  0  0  0  0  0  0  0  0
  1  2  1  0
  3  2  1  0
  3  5  1  0
  3  4  1  1
  5  6  2  0
  8  7  1  1
  8 10  1  0
  8  9  1  0
 10 11  1  6
 11  5  1  0
 12 21  1  0
 12 10  1  0
 13 12  2  0
 15 25  2  0
 15 14  1  0
 16 15  1  0
 17 18  1  0
 17 16  2  0
 18 24  2  0
 19 18  1  0
 20 21  1  0
 20 19  1  6
 22 20  1  0
 23 22  2  0
 24 25  1  0
 26 22  1  0
M  END
$$$$
