SVY.pdb
     RDKit          3D

 26 26  0  0  1  0  0  0  0  0999 V2000
    7.2402  -17.1561   22.6039 O   0  0  0  0  0  0  0  0  0  0  0  0
    7.3225  -16.7559   21.2680 C   0  0  0  0  0  0  0  0  0  0  0  0
    6.7069  -15.3762   21.1882 C   0  0  2  0  0  0  0  0  0  0  0  0
    6.8226  -14.9182   19.8330 N   0  0  0  0  0  0  0  0  0  0  0  0
    7.3800  -14.4304   22.1328 C   0  0  0  0  0  0  0  0  0  0  0  0
    8.4392  -13.8881   21.7319 O   0  0  0  0  0  0  0  0  0  0  0  0
    5.7303  -13.5944   26.1042 C   0  0  0  0  0  0  0  0  0  0  0  0
    6.4577  -12.5623   25.2599 C   0  0  1  0  0  0  0  0  0  0  0  0
    7.0392  -11.5465   26.1746 C   0  0  0  0  0  0  0  0  0  0  0  0
    7.4086  -13.2551   24.3631 C   0  0  2  0  0  0  0  0  0  0  0  0
    6.8318  -14.1724   23.4148 N   0  0  0  0  0  0  0  0  0  0  0  0
    8.5626  -13.9052   25.0428 C   0  0  0  0  0  0  0  0  0  0  0  0
    8.8461  -13.5477   26.2050 O   0  0  0  0  0  0  0  0  0  0  0  0
   11.1347  -15.0636   31.5371 O   0  0  0  0  0  0  0  0  0  0  0  0
   10.7119  -15.4027   30.2526 C   0  0  0  0  0  0  0  0  0  0  0  0
   10.2086  -14.4579   29.3920 C   0  0  0  0  0  0  0  0  0  0  0  0
    9.7928  -14.7867   28.1310 C   0  0  0  0  0  0  0  0  0  0  0  0
    9.8603  -16.0712   27.6729 C   0  0  0  0  0  0  0  0  0  0  0  0
    9.4118  -16.4451   26.3200 C   0  0  0  0  0  0  0  0  0  0  0  0
   10.2035  -15.7425   25.2764 C   0  0  2  0  0  0  0  0  0  0  0  0
    9.3481  -14.9050   24.4331 N   0  0  0  0  0  0  0  0  0  0  0  0
   10.9597  -16.6889   24.4361 C   0  0  0  0  0  0  0  0  0  0  0  0
   10.6027  -17.1099   23.3177 O   0  0  0  0  0  0  0  0  0  0  0  0
   10.3661  -17.0396   28.5281 C   0  0  0  0  0  0  0  0  0  0  0  0
   10.7813  -16.7085   29.7883 C   0  0  0  0  0  0  0  0  0  0  0  0
   12.1945  -17.1678   24.9255 O   0  0  0  0  0  0  0  0  0  0  0  0
  1  2  1  0
  3  2  1  0
  3  5  1  0
  3  4  1  6
  5  6  2  0
  8  7  1  1
  8 10  1  0
  8  9  1  0
 10 11  1  1
 11  5  1  0
 12 21  1  0
 12 10  1  0
 13 12  2  0
 15 25  2  0
 15 14  1  0
 16 15  1  0
 17 18  1  0
 17 16  2  0
 18 24  2  0
 19 18  1  0
 20 21  1  0
 20 19  1  1
 22 20  1  0
 23 22  2  0
 24 25  1  0
 26 22  1  0
M  END
$$$$
