SVY.pdb
     RDKit          3D

 26 26  0  0  1  0  0  0  0  0999 V2000
    9.1079  -19.2929   20.4885 O   0  0  0  0  0  0  0  0  0  0  0  0
   10.1540  -19.2254   19.5650 C   0  0  0  0  0  0  0  0  0  0  0  0
    9.9482  -17.9573   18.7661 C   0  0  2  0  0  0  0  0  0  0  0  0
   11.0073  -17.8653   17.8019 N   0  0  0  0  0  0  0  0  0  0  0  0
    9.9299  -16.7556   19.6580 C   0  0  0  0  0  0  0  0  0  0  0  0
   11.0379  -16.3575   20.0945 O   0  0  0  0  0  0  0  0  0  0  0  0
    6.1839  -14.7403   20.8365 C   0  0  0  0  0  0  0  0  0  0  0  0
    7.4899  -14.0265   20.5334 C   0  0  1  0  0  0  0  0  0  0  0  0
    7.4907  -12.7361   21.2692 C   0  0  0  0  0  0  0  0  0  0  0  0
    8.6175  -14.9412   20.8167 C   0  0  2  0  0  0  0  0  0  0  0  0
    8.7090  -16.1115   19.9828 N   0  0  0  0  0  0  0  0  0  0  0  0
    8.7704  -15.3363   22.2438 C   0  0  0  0  0  0  0  0  0  0  0  0
    8.4015  -16.4787   22.5870 O   0  0  0  0  0  0  0  0  0  0  0  0
   10.8155  -15.9558   30.7317 O   0  0  0  0  0  0  0  0  0  0  0  0
   10.6728  -15.4848   29.4273 C   0  0  0  0  0  0  0  0  0  0  0  0
   11.3409  -16.0681   28.3786 C   0  0  0  0  0  0  0  0  0  0  0  0
   11.2035  -15.6088   27.0974 C   0  0  0  0  0  0  0  0  0  0  0  0
   10.3945  -14.5482   26.8058 C   0  0  0  0  0  0  0  0  0  0  0  0
   10.2386  -14.0361   25.4330 C   0  0  0  0  0  0  0  0  0  0  0  0
    9.4334  -14.9663   24.5989 C   0  0  2  0  0  0  0  0  0  0  0  0
    9.3125  -14.4790   23.2233 N   0  0  0  0  0  0  0  0  0  0  0  0
    8.0921  -15.1884   25.1694 C   0  0  0  0  0  0  0  0  0  0  0  0
    7.0971  -14.4591   24.9865 O   0  0  0  0  0  0  0  0  0  0  0  0
    9.7112  -13.9459   27.8523 C   0  0  0  0  0  0  0  0  0  0  0  0
    9.8501  -14.4068   29.1324 C   0  0  0  0  0  0  0  0  0  0  0  0
    7.9027  -16.3183   25.9946 O   0  0  0  0  0  0  0  0  0  0  0  0
  1  2  1  0
  3  2  1  0
  3  5  1  0
  3  4  1  6
  5  6  2  0
  8  7  1  1
  8 10  1  0
  8  9  1  0
 10 11  1  6
 11  5  1  0
 12 21  1  0
 12 10  1  0
 13 12  2  0
 15 25  2  0
 15 14  1  0
 16 15  1  0
 17 18  1  0
 17 16  2  0
 18 24  2  0
 19 18  1  0
 20 21  1  0
 20 19  1  1
 22 20  1  0
 23 22  2  0
 24 25  1  0
 26 22  1  0
M  END
$$$$
