SVY.pdb
     RDKit          3D

 26 26  0  0  1  0  0  0  0  0999 V2000
   10.7344  -19.5381   20.6728 O   0  0  0  0  0  0  0  0  0  0  0  0
   11.4820  -18.9205   19.6672 C   0  0  0  0  0  0  0  0  0  0  0  0
   10.6020  -17.8454   19.0686 C   0  0  2  0  0  0  0  0  0  0  0  0
   11.3376  -17.2085   18.0136 N   0  0  0  0  0  0  0  0  0  0  0  0
   10.1842  -16.8513   20.1063 C   0  0  0  0  0  0  0  0  0  0  0  0
   11.0451  -16.0100   20.4635 O   0  0  0  0  0  0  0  0  0  0  0  0
    6.9946  -14.6502   20.0460 C   0  0  0  0  0  0  0  0  0  0  0  0
    7.0191  -15.3989   21.3672 C   0  0  1  0  0  0  0  0  0  0  0  0
    5.9297  -16.4085   21.3445 C   0  0  0  0  0  0  0  0  0  0  0  0
    8.3846  -15.9160   21.6042 C   0  0  2  0  0  0  0  0  0  0  0  0
    8.8739  -16.8750   20.6480 N   0  0  0  0  0  0  0  0  0  0  0  0
    8.6437  -16.4143   22.9830 C   0  0  0  0  0  0  0  0  0  0  0  0
    8.9348  -17.6190   23.1345 O   0  0  0  0  0  0  0  0  0  0  0  0
    5.5124  -10.9222   26.5944 O   0  0  0  0  0  0  0  0  0  0  0  0
    6.4575  -11.9457   26.5412 C   0  0  0  0  0  0  0  0  0  0  0  0
    7.2034  -12.1730   25.4104 C   0  0  0  0  0  0  0  0  0  0  0  0
    8.1317  -13.1761   25.3543 C   0  0  0  0  0  0  0  0  0  0  0  0
    8.3568  -13.9964   26.4224 C   0  0  0  0  0  0  0  0  0  0  0  0
    9.3482  -15.0856   26.3784 C   0  0  0  0  0  0  0  0  0  0  0  0
    8.9376  -16.1500   25.4256 C   0  0  2  0  0  0  0  0  0  0  0  0
    8.5750  -15.5875   24.1231 N   0  0  0  0  0  0  0  0  0  0  0  0
    7.8177  -16.9512   25.9524 C   0  0  0  0  0  0  0  0  0  0  0  0
    6.6656  -16.9875   25.4762 O   0  0  0  0  0  0  0  0  0  0  0  0
    7.6129  -13.7820   27.5737 C   0  0  0  0  0  0  0  0  0  0  0  0
    6.6855  -12.7784   27.6275 C   0  0  0  0  0  0  0  0  0  0  0  0
    8.0543  -17.7502   27.0923 O   0  0  0  0  0  0  0  0  0  0  0  0
  1  2  1  0
  3  2  1  0
  3  5  1  0
  3  4  1  6
  5  6  2  0
  8  7  1  6
  8 10  1  0
  8  9  1  0
 10 11  1  6
 11  5  1  0
 12 21  1  0
 12 10  1  0
 13 12  2  0
 15 25  2  0
 15 14  1  0
 16 15  1  0
 17 18  1  0
 17 16  2  0
 18 24  2  0
 19 18  1  0
 20 21  1  0
 20 19  1  1
 22 20  1  0
 23 22  2  0
 24 25  1  0
 26 22  1  0
M  END
$$$$
