SVY.pdb
     RDKit          3D

 26 26  0  0  1  0  0  0  0  0999 V2000
   10.5470  -15.7766   19.5760 O   0  0  0  0  0  0  0  0  0  0  0  0
   10.2871  -15.9561   18.2152 C   0  0  0  0  0  0  0  0  0  0  0  0
   11.2697  -15.0835   17.4657 C   0  0  2  0  0  0  0  0  0  0  0  0
   10.9491  -15.1559   16.0686 N   0  0  0  0  0  0  0  0  0  0  0  0
   12.6788  -15.5214   17.7154 C   0  0  0  0  0  0  0  0  0  0  0  0
   13.0243  -16.6242   17.2246 O   0  0  0  0  0  0  0  0  0  0  0  0
   15.6857  -14.8615   16.4201 C   0  0  0  0  0  0  0  0  0  0  0  0
   15.9486  -14.4377   17.8547 C   0  0  1  0  0  0  0  0  0  0  0  0
   16.0231  -12.9545   17.8902 C   0  0  0  0  0  0  0  0  0  0  0  0
   14.9381  -15.0626   18.7360 C   0  0  2  0  0  0  0  0  0  0  0  0
   13.5658  -14.7150   18.4728 N   0  0  0  0  0  0  0  0  0  0  0  0
   15.2085  -14.9435   20.1951 C   0  0  0  0  0  0  0  0  0  0  0  0
   14.9019  -13.8792   20.7714 O   0  0  0  0  0  0  0  0  0  0  0  0
    9.7726  -16.6314   23.2633 O   0  0  0  0  0  0  0  0  0  0  0  0
   11.1654  -16.6895   23.2443 C   0  0  0  0  0  0  0  0  0  0  0  0
   11.8418  -17.3160   22.2263 C   0  0  0  0  0  0  0  0  0  0  0  0
   13.2083  -17.3751   22.2040 C   0  0  0  0  0  0  0  0  0  0  0  0
   13.9600  -16.8125   23.1954 C   0  0  0  0  0  0  0  0  0  0  0  0
   15.4323  -16.8712   23.1913 C   0  0  0  0  0  0  0  0  0  0  0  0
   16.0135  -15.7652   22.3859 C   0  0  2  0  0  0  0  0  0  0  0  0
   15.7946  -15.9776   20.9537 N   0  0  0  0  0  0  0  0  0  0  0  0
   17.4539  -15.5961   22.6510 C   0  0  0  0  0  0  0  0  0  0  0  0
   17.9600  -15.3236   23.7578 O   0  0  0  0  0  0  0  0  0  0  0  0
   13.2943  -16.1749   24.2323 C   0  0  0  0  0  0  0  0  0  0  0  0
   11.9281  -16.1171   24.2524 C   0  0  0  0  0  0  0  0  0  0  0  0
   18.3486  -15.7530   21.5700 O   0  0  0  0  0  0  0  0  0  0  0  0
  1  2  1  0
  3  2  1  0
  3  5  1  0
  3  4  1  6
  5  6  2  0
  8  7  1  6
  8 10  1  0
  8  9  1  0
 10 11  1  1
 11  5  1  0
 12 21  1  0
 12 10  1  0
 13 12  2  0
 15 25  2  0
 15 14  1  0
 16 15  1  0
 17 18  1  0
 17 16  2  0
 18 24  2  0
 19 18  1  0
 20 21  1  0
 20 19  1  1
 22 20  1  0
 23 22  2  0
 24 25  1  0
 26 22  1  0
M  END
$$$$
