SVY.pdb
     RDKit          3D

 26 26  0  0  1  0  0  0  0  0999 V2000
   10.8987  -19.3197   20.5298 O   0  0  0  0  0  0  0  0  0  0  0  0
    9.9316  -19.1972   19.5291 C   0  0  0  0  0  0  0  0  0  0  0  0
   10.2281  -17.9093   18.7927 C   0  0  2  0  0  0  0  0  0  0  0  0
   11.5632  -17.9944   18.2730 N   0  0  0  0  0  0  0  0  0  0  0  0
   10.0794  -16.7255   19.6962 C   0  0  0  0  0  0  0  0  0  0  0  0
   11.1299  -16.2734   20.2146 O   0  0  0  0  0  0  0  0  0  0  0  0
    6.1391  -15.1240   20.9207 C   0  0  0  0  0  0  0  0  0  0  0  0
    7.3505  -14.2635   20.6063 C   0  0  1  0  0  0  0  0  0  0  0  0
    7.2278  -12.9978   21.3742 C   0  0  0  0  0  0  0  0  0  0  0  0
    8.5786  -15.0540   20.8410 C   0  0  2  0  0  0  0  0  0  0  0  0
    8.8042  -16.1562   19.9424 N   0  0  0  0  0  0  0  0  0  0  0  0
    8.7819  -15.5086   22.2440 C   0  0  0  0  0  0  0  0  0  0  0  0
    8.5040  -16.6914   22.5314 O   0  0  0  0  0  0  0  0  0  0  0  0
   10.4801  -16.2644   30.7785 O   0  0  0  0  0  0  0  0  0  0  0  0
   10.3145  -15.7366   29.4988 C   0  0  0  0  0  0  0  0  0  0  0  0
    9.5521  -14.6151   29.2802 C   0  0  0  0  0  0  0  0  0  0  0  0
    9.3872  -14.0942   28.0262 C   0  0  0  0  0  0  0  0  0  0  0  0
    9.9747  -14.6683   26.9355 C   0  0  0  0  0  0  0  0  0  0  0  0
    9.8037  -14.1249   25.5766 C   0  0  0  0  0  0  0  0  0  0  0  0
    9.3329  -15.1721   24.6326 C   0  0  2  0  0  0  0  0  0  0  0  0
    9.2733  -14.6641   23.2605 N   0  0  0  0  0  0  0  0  0  0  0  0
    8.0162  -15.7074   25.0243 C   0  0  0  0  0  0  0  0  0  0  0  0
    6.9142  -15.1887   24.7559 O   0  0  0  0  0  0  0  0  0  0  0  0
   10.7488  -15.8020   27.1365 C   0  0  0  0  0  0  0  0  0  0  0  0
   10.9123  -16.3209   28.3912 C   0  0  0  0  0  0  0  0  0  0  0  0
    7.9841  -16.9082   25.7663 O   0  0  0  0  0  0  0  0  0  0  0  0
  1  2  1  0
  3  2  1  0
  3  5  1  0
  3  4  1  1
  5  6  2  0
  8  7  1  1
  8 10  1  0
  8  9  1  0
 10 11  1  6
 11  5  1  0
 12 21  1  0
 12 10  1  0
 13 12  2  0
 15 25  2  0
 15 14  1  0
 16 15  1  0
 17 18  1  0
 17 16  2  0
 18 24  2  0
 19 18  1  0
 20 21  1  0
 20 19  1  1
 22 20  1  0
 23 22  2  0
 24 25  1  0
 26 22  1  0
M  END
$$$$
