SVY.pdb
     RDKit          3D

 26 26  0  0  1  0  0  0  0  0999 V2000
    9.8366  -17.9481   16.8501 O   0  0  0  0  0  0  0  0  0  0  0  0
   10.3283  -17.3248   15.7006 C   0  0  0  0  0  0  0  0  0  0  0  0
    9.6130  -15.9966   15.5859 C   0  0  2  0  0  0  0  0  0  0  0  0
   10.0789  -15.3449   14.3951 N   0  0  0  0  0  0  0  0  0  0  0  0
    9.8584  -15.1465   16.7930 C   0  0  0  0  0  0  0  0  0  0  0  0
   10.9798  -14.5875   16.8733 O   0  0  0  0  0  0  0  0  0  0  0  0
    6.7778  -14.4819   19.8718 C   0  0  0  0  0  0  0  0  0  0  0  0
    7.8744  -13.4988   19.5006 C   0  0  1  0  0  0  0  0  0  0  0  0
    8.1079  -12.6081   20.6663 C   0  0  0  0  0  0  0  0  0  0  0  0
    9.0492  -14.2494   19.0059 C   0  0  2  0  0  0  0  0  0  0  0  0
    8.8591  -14.9925   17.7873 N   0  0  0  0  0  0  0  0  0  0  0  0
    9.7196  -15.1149   20.0148 C   0  0  0  0  0  0  0  0  0  0  0  0
    9.5267  -16.3474   19.9625 O   0  0  0  0  0  0  0  0  0  0  0  0
   15.7138  -15.2865   17.3281 O   0  0  0  0  0  0  0  0  0  0  0  0
   14.9701  -15.2388   18.5063 C   0  0  0  0  0  0  0  0  0  0  0  0
   15.0733  -16.2235   19.4582 C   0  0  0  0  0  0  0  0  0  0  0  0
   14.3453  -16.1803   20.6155 C   0  0  0  0  0  0  0  0  0  0  0  0
   13.4827  -15.1540   20.8743 C   0  0  0  0  0  0  0  0  0  0  0  0
   12.6861  -15.0935   22.1124 C   0  0  0  0  0  0  0  0  0  0  0  0
   11.2900  -15.5464   21.8777 C   0  0  2  0  0  0  0  0  0  0  0  0
   10.5612  -14.6052   21.0248 N   0  0  0  0  0  0  0  0  0  0  0  0
   10.5596  -15.7413   23.1436 C   0  0  0  0  0  0  0  0  0  0  0  0
   10.8829  -16.5318   24.0523 O   0  0  0  0  0  0  0  0  0  0  0  0
   13.3650  -14.1497   19.9243 C   0  0  0  0  0  0  0  0  0  0  0  0
   14.0939  -14.1950   18.7681 C   0  0  0  0  0  0  0  0  0  0  0  0
    9.3936  -14.9750   23.3595 O   0  0  0  0  0  0  0  0  0  0  0  0
  1  2  1  0
  3  2  1  0
  3  5  1  0
  3  4  1  6
  5  6  2  0
  8  7  1  1
  8 10  1  0
  8  9  1  0
 10 11  1  6
 11  5  1  0
 12 21  1  0
 12 10  1  0
 13 12  2  0
 15 25  2  0
 15 14  1  0
 16 15  1  0
 17 18  1  0
 17 16  2  0
 18 24  2  0
 19 18  1  0
 20 21  1  0
 20 19  1  1
 22 20  1  0
 23 22  2  0
 24 25  1  0
 26 22  1  0
M  END
$$$$
