SVY.pdb
     RDKit          3D

 26 26  0  0  1  0  0  0  0  0999 V2000
    5.9401  -19.3021   20.5843 O   0  0  0  0  0  0  0  0  0  0  0  0
    7.2779  -18.9067   20.6583 C   0  0  0  0  0  0  0  0  0  0  0  0
    7.4636  -17.8060   19.6372 C   0  0  2  0  0  0  0  0  0  0  0  0
    7.9055  -18.4093   18.4122 N   0  0  0  0  0  0  0  0  0  0  0  0
    8.4476  -16.7859   20.1175 C   0  0  0  0  0  0  0  0  0  0  0  0
    9.6586  -17.0071   19.8705 O   0  0  0  0  0  0  0  0  0  0  0  0
    8.0284  -12.9704   19.6313 C   0  0  0  0  0  0  0  0  0  0  0  0
    8.3894  -13.1980   21.0890 C   0  0  1  0  0  0  0  0  0  0  0  0
    7.2136  -12.8268   21.9176 C   0  0  0  0  0  0  0  0  0  0  0  0
    8.8941  -14.5789   21.2518 C   0  0  2  0  0  0  0  0  0  0  0  0
    8.0129  -15.6312   20.8165 N   0  0  0  0  0  0  0  0  0  0  0  0
    9.4251  -14.9047   22.6039 C   0  0  0  0  0  0  0  0  0  0  0  0
   10.4335  -14.2907   23.0102 O   0  0  0  0  0  0  0  0  0  0  0  0
    5.9060  -11.0525   26.7683 O   0  0  0  0  0  0  0  0  0  0  0  0
    6.4818  -12.2996   26.5301 C   0  0  0  0  0  0  0  0  0  0  0  0
    7.8368  -12.4954   26.6409 C   0  0  0  0  0  0  0  0  0  0  0  0
    8.4054  -13.7174   26.4080 C   0  0  0  0  0  0  0  0  0  0  0  0
    7.6486  -14.7975   26.0544 C   0  0  0  0  0  0  0  0  0  0  0  0
    8.2441  -16.1199   25.7940 C   0  0  0  0  0  0  0  0  0  0  0  0
    9.3524  -16.0271   24.8079 C   0  0  2  0  0  0  0  0  0  0  0  0
    8.8406  -15.8743   23.4445 N   0  0  0  0  0  0  0  0  0  0  0  0
   10.2442  -17.1992   24.8779 C   0  0  0  0  0  0  0  0  0  0  0  0
   10.8956  -17.5552   25.8799 O   0  0  0  0  0  0  0  0  0  0  0  0
    6.2777  -14.6192   25.9375 C   0  0  0  0  0  0  0  0  0  0  0  0
    5.7113  -13.3965   26.1710 C   0  0  0  0  0  0  0  0  0  0  0  0
   10.3824  -17.9956   23.7202 O   0  0  0  0  0  0  0  0  0  0  0  0
  1  2  1  0
  3  2  1  0
  3  5  1  0
  3  4  1  6
  5  6  2  0
  8  7  1  6
  8 10  1  0
  8  9  1  0
 10 11  1  1
 11  5  1  0
 12 21  1  0
 12 10  1  0
 13 12  2  0
 15 25  2  0
 15 14  1  0
 16 15  1  0
 17 18  1  0
 17 16  2  0
 18 24  2  0
 19 18  1  0
 20 21  1  0
 20 19  1  1
 22 20  1  0
 23 22  2  0
 24 25  1  0
 26 22  1  0
M  END
$$$$
