SVY.pdb
     RDKit          3D

 26 26  0  0  1  0  0  0  0  0999 V2000
    9.3633  -11.5987   19.0191 O   0  0  0  0  0  0  0  0  0  0  0  0
    8.6196  -12.3850   19.9025 C   0  0  0  0  0  0  0  0  0  0  0  0
    8.4790  -13.7473   19.2599 C   0  0  2  0  0  0  0  0  0  0  0  0
    7.4678  -13.6555   18.2456 N   0  0  0  0  0  0  0  0  0  0  0  0
    8.1261  -14.7883   20.2755 C   0  0  0  0  0  0  0  0  0  0  0  0
    6.9090  -15.0726   20.3955 O   0  0  0  0  0  0  0  0  0  0  0  0
    9.1397  -18.9848   22.2683 C   0  0  0  0  0  0  0  0  0  0  0  0
    9.3153  -17.8752   21.2461 C   0  0  1  0  0  0  0  0  0  0  0  0
    8.5932  -18.2701   20.0095 C   0  0  0  0  0  0  0  0  0  0  0  0
    8.9128  -16.5888   21.8555 C   0  0  2  0  0  0  0  0  0  0  0  0
    9.1329  -15.4121   21.0552 N   0  0  0  0  0  0  0  0  0  0  0  0
    9.4226  -16.3530   23.2342 C   0  0  0  0  0  0  0  0  0  0  0  0
   10.6051  -15.9775   23.3744 O   0  0  0  0  0  0  0  0  0  0  0  0
    6.1986  -10.7911   25.8243 O   0  0  0  0  0  0  0  0  0  0  0  0
    6.7012  -12.0725   26.0458 C   0  0  0  0  0  0  0  0  0  0  0  0
    5.9073  -13.1855   25.9135 C   0  0  0  0  0  0  0  0  0  0  0  0
    6.3967  -14.4444   26.1300 C   0  0  0  0  0  0  0  0  0  0  0  0
    7.6984  -14.6488   26.4879 C   0  0  0  0  0  0  0  0  0  0  0  0
    8.2417  -15.9968   26.7308 C   0  0  0  0  0  0  0  0  0  0  0  0
    9.2499  -16.3648   25.7025 C   0  0  2  0  0  0  0  0  0  0  0  0
    8.6306  -16.5347   24.3865 N   0  0  0  0  0  0  0  0  0  0  0  0
    9.9827  -17.5900   26.0711 C   0  0  0  0  0  0  0  0  0  0  0  0
    9.7647  -18.7298   25.6144 O   0  0  0  0  0  0  0  0  0  0  0  0
    8.5159  -13.5364   26.6263 C   0  0  0  0  0  0  0  0  0  0  0  0
    8.0245  -12.2788   26.4093 C   0  0  0  0  0  0  0  0  0  0  0  0
   11.0221  -17.4791   27.0204 O   0  0  0  0  0  0  0  0  0  0  0  0
  1  2  1  0
  3  2  1  0
  3  5  1  0
  3  4  1  6
  5  6  2  0
  8  7  1  1
  8 10  1  0
  8  9  1  0
 10 11  1  6
 11  5  1  0
 12 21  1  0
 12 10  1  0
 13 12  2  0
 15 25  2  0
 15 14  1  0
 16 15  1  0
 17 18  1  0
 17 16  2  0
 18 24  2  0
 19 18  1  0
 20 21  1  0
 20 19  1  1
 22 20  1  0
 23 22  2  0
 24 25  1  0
 26 22  1  0
M  END
$$$$
