NQL.pdb
     RDKit          3D

 26 25  0  0  1  0  0  0  0  0999 V2000
   29.2394  -18.7686  -17.1967 N   0  0  0  0  0  0  0  0  0  0  0  0
   27.9890  -18.1137  -17.1909 C   0  0  0  0  0  0  0  0  0  0  0  0
   27.8855  -16.9978  -17.7470 O   0  0  0  0  0  0  0  0  0  0  0  0
   26.8155  -18.7234  -16.5434 C   0  0  0  0  0  0  0  0  0  0  0  0
   27.1862  -19.9838  -15.7746 C   0  0  2  0  0  0  0  0  0  0  0  0
   27.6199  -20.9975  -16.7034 N   0  0  0  0  0  0  0  0  0  0  0  0
   26.0452  -20.4941  -14.9997 C   0  0  0  0  0  0  0  0  0  0  0  0
   25.3408  -21.4105  -15.4570 O   0  0  0  0  0  0  0  0  0  0  0  0
   25.3216  -20.4693   -8.8209 N   0  0  0  0  0  0  0  0  0  0  0  0
   24.0690  -20.9882   -9.2244 C   0  0  0  0  0  0  0  0  0  0  0  0
   23.2808  -21.4159   -8.3561 O   0  0  0  0  0  0  0  0  0  0  0  0
   23.7081  -21.0146  -10.6360 C   0  0  0  0  0  0  0  0  0  0  0  0
   24.7648  -20.4735  -11.5080 C   0  0  0  0  0  0  0  0  0  0  0  0
   24.5528  -20.4513  -12.9730 C   0  0  2  0  0  0  0  0  0  0  0  0
   25.6849  -19.9864  -13.7141 N   0  0  0  0  0  0  0  0  0  0  0  0
   23.2879  -19.7843  -13.3793 C   0  0  0  0  0  0  0  0  0  0  0  0
   23.1717  -18.5271  -13.3274 O   0  0  0  0  0  0  0  0  0  0  0  0
   21.2073  -18.0426  -16.5849 C   0  0  0  0  0  0  0  0  0  0  0  0
   21.2275  -19.5543  -16.6998 C   0  0  2  0  0  0  0  0  0  0  0  0
   20.9314  -19.9760  -18.0840 C   0  0  0  0  0  0  0  0  0  0  0  0
   20.5704  -20.2588  -15.5830 C   0  0  0  0  0  0  0  0  0  0  0  0
   20.8912  -19.8828  -14.1881 C   0  0  2  0  0  0  0  0  0  0  0  0
   22.1785  -20.5256  -13.8345 N   0  0  0  0  0  0  0  0  0  0  0  0
   19.9281  -20.3930  -13.1999 C   0  0  0  0  0  0  0  0  0  0  0  0
   18.7754  -19.7366  -12.7806 O   0  0  0  0  0  0  0  0  0  0  0  0
   20.0922  -21.5330  -12.6228 O   0  0  0  0  0  0  0  0  0  0  0  0
  2  4  1  0
  2  1  1  0
  3  2  2  0
  5  7  1  0
  5  4  1  0
  5  6  1  6
  7  8  2  0
 10  9  1  0
 10 12  1  0
 11 10  2  0
 13 12  1  0
 14 13  1  1
 15 14  1  0
 15  7  1  0
 16 14  1  0
 17 16  2  0
 19 18  1  6
 19 21  1  0
 20 19  1  0
 22 21  1  6
 22 23  1  0
 22 24  1  0
 23 16  1  0
 24 25  1  0
 26 24  2  0
M  END
$$$$
