NQL.pdb
     RDKit          3D

 26 25  0  0  1  0  0  0  0  0999 V2000
   29.8885  -21.0476  -18.9370 N   0  0  0  0  0  0  0  0  0  0  0  0
   29.0914  -19.8918  -18.7921 C   0  0  0  0  0  0  0  0  0  0  0  0
   29.4028  -18.8567  -19.4218 O   0  0  0  0  0  0  0  0  0  0  0  0
   27.9078  -19.8906  -17.9161 C   0  0  0  0  0  0  0  0  0  0  0  0
   27.7876  -21.1872  -17.1278 C   0  0  2  0  0  0  0  0  0  0  0  0
   27.3669  -22.2449  -18.0127 N   0  0  0  0  0  0  0  0  0  0  0  0
   26.8165  -21.0596  -16.0308 C   0  0  0  0  0  0  0  0  0  0  0  0
   25.6521  -21.4690  -16.1780 O   0  0  0  0  0  0  0  0  0  0  0  0
   26.2191  -22.4607  -10.8338 N   0  0  0  0  0  0  0  0  0  0  0  0
   25.5599  -21.2561  -10.4940 C   0  0  0  0  0  0  0  0  0  0  0  0
   24.7215  -21.2628   -9.5691 O   0  0  0  0  0  0  0  0  0  0  0  0
   25.8648  -20.0265  -11.2143 C   0  0  0  0  0  0  0  0  0  0  0  0
   26.7520  -20.2442  -12.3698 C   0  0  0  0  0  0  0  0  0  0  0  0
   26.1743  -20.2575  -13.7328 C   0  0  2  0  0  0  0  0  0  0  0  0
   27.1382  -20.4763  -14.7672 N   0  0  0  0  0  0  0  0  0  0  0  0
   25.2862  -19.0986  -14.0121 C   0  0  0  0  0  0  0  0  0  0  0  0
   24.2574  -18.8855  -13.3099 O   0  0  0  0  0  0  0  0  0  0  0  0
   26.0761  -13.8617  -17.1734 C   0  0  0  0  0  0  0  0  0  0  0  0
   25.2087  -14.5998  -16.1726 C   0  0  2  0  0  0  0  0  0  0  0  0
   24.7308  -13.6812  -15.1194 C   0  0  0  0  0  0  0  0  0  0  0  0
   25.7222  -15.9266  -15.7834 C   0  0  0  0  0  0  0  0  0  0  0  0
   24.7919  -16.9451  -15.2476 C   0  0  2  0  0  0  0  0  0  0  0  0
   25.5576  -18.2003  -15.0642 N   0  0  0  0  0  0  0  0  0  0  0  0
   23.7019  -17.2968  -16.1709 C   0  0  0  0  0  0  0  0  0  0  0  0
   22.4429  -16.7054  -16.1983 O   0  0  0  0  0  0  0  0  0  0  0  0
   23.8391  -18.2218  -17.0570 O   0  0  0  0  0  0  0  0  0  0  0  0
  2  4  1  0
  2  1  1  0
  3  2  2  0
  5  7  1  0
  5  4  1  0
  5  6  1  6
  7  8  2  0
 10  9  1  0
 10 12  1  0
 11 10  2  0
 13 12  1  0
 14 13  1  1
 15 14  1  0
 15  7  1  0
 16 14  1  0
 17 16  2  0
 19 18  1  1
 19 21  1  0
 20 19  1  0
 22 21  1  6
 22 23  1  0
 22 24  1  0
 23 16  1  0
 24 25  1  0
 26 24  2  0
M  END
$$$$
