NQL.pdb
     RDKit          3D

 26 25  0  0  1  0  0  0  0  0999 V2000
   17.8933  -18.7470  -14.8593 N   0  0  0  0  0  0  0  0  0  0  0  0
   18.9237  -18.0805  -14.1621 C   0  0  0  0  0  0  0  0  0  0  0  0
   18.9537  -16.8299  -14.1728 O   0  0  0  0  0  0  0  0  0  0  0  0
   19.9547  -18.8337  -13.4286 C   0  0  0  0  0  0  0  0  0  0  0  0
   19.7565  -20.3371  -13.5606 C   0  0  2  0  0  0  0  0  0  0  0  0
   18.7070  -20.7591  -12.6666 N   0  0  0  0  0  0  0  0  0  0  0  0
   20.9898  -21.0708  -13.2390 C   0  0  0  0  0  0  0  0  0  0  0  0
   21.2262  -21.4094  -12.0665 O   0  0  0  0  0  0  0  0  0  0  0  0
   23.9605  -25.2579  -16.5646 N   0  0  0  0  0  0  0  0  0  0  0  0
   24.9771  -24.9826  -15.6202 C   0  0  0  0  0  0  0  0  0  0  0  0
   25.9616  -25.7466  -15.5477 O   0  0  0  0  0  0  0  0  0  0  0  0
   24.8726  -23.8176  -14.7510 C   0  0  0  0  0  0  0  0  0  0  0  0
   23.6183  -23.0696  -14.9435 C   0  0  0  0  0  0  0  0  0  0  0  0
   23.1855  -22.1045  -13.9076 C   0  0  2  0  0  0  0  0  0  0  0  0
   21.9634  -21.4297  -14.2207 N   0  0  0  0  0  0  0  0  0  0  0  0
   24.2614  -21.1730  -13.4780 C   0  0  0  0  0  0  0  0  0  0  0  0
   24.3869  -20.0355  -14.0137 O   0  0  0  0  0  0  0  0  0  0  0  0
   26.2363  -19.0985   -9.4637 C   0  0  0  0  0  0  0  0  0  0  0  0
   26.3347  -20.6106   -9.5156 C   0  0  2  0  0  0  0  0  0  0  0  0
   26.8824  -21.1413   -8.2507 C   0  0  0  0  0  0  0  0  0  0  0  0
   26.8433  -21.1443  -10.7931 C   0  0  0  0  0  0  0  0  0  0  0  0
   26.2958  -20.6359  -12.0705 C   0  0  2  0  0  0  0  0  0  0  0  0
   25.1755  -21.5226  -12.4633 N   0  0  0  0  0  0  0  0  0  0  0  0
   27.2455  -20.7048  -13.1920 C   0  0  0  0  0  0  0  0  0  0  0  0
   28.0541  -19.6617  -13.6319 O   0  0  0  0  0  0  0  0  0  0  0  0
   27.4006  -21.7823  -13.8808 O   0  0  0  0  0  0  0  0  0  0  0  0
  2  4  1  0
  2  1  1  0
  3  2  2  0
  5  7  1  0
  5  4  1  0
  5  6  1  1
  7  8  2  0
 10  9  1  0
 10 12  1  0
 11 10  2  0
 13 12  1  0
 14 13  1  6
 15 14  1  0
 15  7  1  0
 16 14  1  0
 17 16  2  0
 19 18  1  6
 19 21  1  0
 20 19  1  0
 22 21  1  1
 22 23  1  0
 22 24  1  0
 23 16  1  0
 24 25  1  0
 26 24  2  0
M  END
$$$$
