NQL.pdb
     RDKit          3D

 26 25  0  0  1  0  0  0  0  0999 V2000
   12.9248  -13.4659  -15.5820 N   0  0  0  0  0  0  0  0  0  0  0  0
   13.7835  -13.0773  -14.5313 C   0  0  0  0  0  0  0  0  0  0  0  0
   13.3960  -13.2114  -13.3494 O   0  0  0  0  0  0  0  0  0  0  0  0
   15.1185  -12.5209  -14.8080 C   0  0  0  0  0  0  0  0  0  0  0  0
   15.3539  -12.3339  -16.3002 C   0  0  2  0  0  0  0  0  0  0  0  0
   15.5683  -13.6211  -16.9131 N   0  0  0  0  0  0  0  0  0  0  0  0
   16.5211  -11.4763  -16.5554 C   0  0  0  0  0  0  0  0  0  0  0  0
   17.6701  -11.9244  -16.3999 O   0  0  0  0  0  0  0  0  0  0  0  0
   16.3819   -5.9297  -19.5895 N   0  0  0  0  0  0  0  0  0  0  0  0
   17.7741   -6.1439  -19.4587 C   0  0  0  0  0  0  0  0  0  0  0  0
   18.5648   -5.3532  -20.0136 O   0  0  0  0  0  0  0  0  0  0  0  0
   18.2712   -7.2710  -18.6803 C   0  0  0  0  0  0  0  0  0  0  0  0
   17.1920   -8.1223  -18.1508 C   0  0  0  0  0  0  0  0  0  0  0  0
   17.5405   -9.3144  -17.3451 C   0  0  2  0  0  0  0  0  0  0  0  0
   16.4132  -10.1181  -16.9842 N   0  0  0  0  0  0  0  0  0  0  0  0
   18.4228   -9.0111  -16.1878 C   0  0  0  0  0  0  0  0  0  0  0  0
   17.9352   -8.7251  -15.0576 O   0  0  0  0  0  0  0  0  0  0  0  0
   24.1869  -10.3856  -14.5762 C   0  0  0  0  0  0  0  0  0  0  0  0
   22.9539   -9.5684  -14.2434 C   0  0  2  0  0  0  0  0  0  0  0  0
   22.6100   -9.7022  -12.8132 C   0  0  0  0  0  0  0  0  0  0  0  0
   21.8769   -9.6543  -15.2475 C   0  0  0  0  0  0  0  0  0  0  0  0
   20.7217   -8.7331  -15.1650 C   0  0  2  0  0  0  0  0  0  0  0  0
   19.8273   -9.0312  -16.3081 N   0  0  0  0  0  0  0  0  0  0  0  0
   21.0812   -7.3154  -15.3240 C   0  0  0  0  0  0  0  0  0  0  0  0
   21.3848   -6.4373  -14.2886 O   0  0  0  0  0  0  0  0  0  0  0  0
   21.1390   -6.7592  -16.4845 O   0  0  0  0  0  0  0  0  0  0  0  0
  2  4  1  0
  2  1  1  0
  3  2  2  0
  5  7  1  0
  5  4  1  0
  5  6  1  6
  7  8  2  0
 10  9  1  0
 10 12  1  0
 11 10  2  0
 13 12  1  0
 14 13  1  1
 15 14  1  0
 15  7  1  0
 16 14  1  0
 17 16  2  0
 19 18  1  6
 19 21  1  0
 20 19  1  0
 22 21  1  6
 22 23  1  0
 22 24  1  0
 23 16  1  0
 24 25  1  0
 26 24  2  0
M  END
$$$$
