NQL.pdb
     RDKit          3D

 26 25  0  0  1  0  0  0  0  0999 V2000
   13.6994  -14.7327  -13.1236 N   0  0  0  0  0  0  0  0  0  0  0  0
   13.9170  -13.3414  -13.2189 C   0  0  0  0  0  0  0  0  0  0  0  0
   12.9542  -12.5942  -13.5013 O   0  0  0  0  0  0  0  0  0  0  0  0
   15.2526  -12.7644  -12.9916 C   0  0  0  0  0  0  0  0  0  0  0  0
   15.5403  -11.6140  -13.9459 C   0  0  2  0  0  0  0  0  0  0  0  0
   15.7293  -12.1354  -15.2767 N   0  0  0  0  0  0  0  0  0  0  0  0
   16.7436  -10.8708  -13.5423 C   0  0  0  0  0  0  0  0  0  0  0  0
   17.8554  -11.1900  -13.9972 O   0  0  0  0  0  0  0  0  0  0  0  0
   17.2207   -7.1218  -16.7548 N   0  0  0  0  0  0  0  0  0  0  0  0
   17.9879   -6.3441  -15.8561 C   0  0  0  0  0  0  0  0  0  0  0  0
   18.5263   -5.2956  -16.2673 O   0  0  0  0  0  0  0  0  0  0  0  0
   18.1384   -6.7643  -14.4689 C   0  0  0  0  0  0  0  0  0  0  0  0
   17.3622   -7.9748  -14.1493 C   0  0  0  0  0  0  0  0  0  0  0  0
   17.4910   -8.5828  -12.8057 C   0  0  2  0  0  0  0  0  0  0  0  0
   16.7131   -9.7708  -12.6316 N   0  0  0  0  0  0  0  0  0  0  0  0
   17.3108   -7.6112  -11.6951 C   0  0  0  0  0  0  0  0  0  0  0  0
   17.9875   -6.5450  -11.6496 O   0  0  0  0  0  0  0  0  0  0  0  0
   13.7040   -7.0833   -6.7061 C   0  0  0  0  0  0  0  0  0  0  0  0
   14.0037   -6.4653   -8.0578 C   0  0  2  0  0  0  0  0  0  0  0  0
   12.8203   -5.7514   -8.5788 C   0  0  0  0  0  0  0  0  0  0  0  0
   14.7705   -7.3357   -8.9689 C   0  0  0  0  0  0  0  0  0  0  0  0
   15.7220   -6.7348   -9.9299 C   0  0  2  0  0  0  0  0  0  0  0  0
   16.3840   -7.8424  -10.6583 N   0  0  0  0  0  0  0  0  0  0  0  0
   16.8191   -5.9909   -9.2917 C   0  0  0  0  0  0  0  0  0  0  0  0
   16.8162   -4.6284   -9.0110 O   0  0  0  0  0  0  0  0  0  0  0  0
   17.9118   -6.5725   -8.9350 O   0  0  0  0  0  0  0  0  0  0  0  0
  2  4  1  0
  2  1  1  0
  3  2  2  0
  5  7  1  0
  5  4  1  0
  5  6  1  6
  7  8  2  0
 10  9  1  0
 10 12  1  0
 11 10  2  0
 13 12  1  0
 14 13  1  6
 15 14  1  0
 15  7  1  0
 16 14  1  0
 17 16  2  0
 19 18  1  1
 19 21  1  0
 20 19  1  0
 22 21  1  1
 22 23  1  0
 22 24  1  0
 23 16  1  0
 24 25  1  0
 26 24  2  0
M  END
$$$$
