NQL.pdb
     RDKit          3D

 26 25  0  0  1  0  0  0  0  0999 V2000
   17.4993  -13.7345  -14.9054 N   0  0  0  0  0  0  0  0  0  0  0  0
   16.7864  -12.6350  -14.3809 C   0  0  0  0  0  0  0  0  0  0  0  0
   15.6128  -12.8063  -13.9830 O   0  0  0  0  0  0  0  0  0  0  0  0
   17.4030  -11.3004  -14.2976 C   0  0  0  0  0  0  0  0  0  0  0  0
   16.3989  -10.1952  -14.5932 C   0  0  2  0  0  0  0  0  0  0  0  0
   16.0864  -10.2002  -16.0006 N   0  0  0  0  0  0  0  0  0  0  0  0
   16.9293   -8.8752  -14.2202 C   0  0  0  0  0  0  0  0  0  0  0  0
   17.4734   -8.1571  -15.0766 O   0  0  0  0  0  0  0  0  0  0  0  0
   15.3719   -5.5890   -9.0943 N   0  0  0  0  0  0  0  0  0  0  0  0
   16.2683   -4.6941   -9.7242 C   0  0  0  0  0  0  0  0  0  0  0  0
   16.4576   -3.5684   -9.2191 O   0  0  0  0  0  0  0  0  0  0  0  0
   16.9624   -5.0902  -10.9428 C   0  0  0  0  0  0  0  0  0  0  0  0
   16.5851   -6.4368  -11.4055 C   0  0  0  0  0  0  0  0  0  0  0  0
   17.3215   -7.0459  -12.5361 C   0  0  2  0  0  0  0  0  0  0  0  0
   16.8558   -8.3505  -12.8937 N   0  0  0  0  0  0  0  0  0  0  0  0
   18.7989   -6.9862  -12.3827 C   0  0  0  0  0  0  0  0  0  0  0  0
   19.4151   -7.8482  -11.6941 O   0  0  0  0  0  0  0  0  0  0  0  0
   22.7313   -8.5613  -12.9172 C   0  0  0  0  0  0  0  0  0  0  0  0
   21.6789   -8.3942  -13.9959 C   0  0  2  0  0  0  0  0  0  0  0  0
   21.9481   -9.2991  -15.1318 C   0  0  0  0  0  0  0  0  0  0  0  0
   21.3065   -6.9939  -14.2716 C   0  0  0  0  0  0  0  0  0  0  0  0
   21.0327   -6.0724  -13.1466 C   0  0  2  0  0  0  0  0  0  0  0  0
   19.5620   -5.9720  -12.9962 N   0  0  0  0  0  0  0  0  0  0  0  0
   21.4848   -4.6930  -13.3863 C   0  0  0  0  0  0  0  0  0  0  0  0
   22.7185   -4.1700  -13.0123 O   0  0  0  0  0  0  0  0  0  0  0  0
   20.7361   -3.8307  -13.9823 O   0  0  0  0  0  0  0  0  0  0  0  0
  2  4  1  0
  2  1  1  0
  3  2  2  0
  5  7  1  0
  5  4  1  0
  5  6  1  6
  7  8  2  0
 10  9  1  0
 10 12  1  0
 11 10  2  0
 13 12  1  0
 14 13  1  1
 15 14  1  0
 15  7  1  0
 16 14  1  0
 17 16  2  0
 19 18  1  1
 19 21  1  0
 20 19  1  0
 22 21  1  6
 22 23  1  0
 22 24  1  0
 23 16  1  0
 24 25  1  0
 26 24  2  0
M  END
$$$$
