NQL.pdb
     RDKit          3D

 26 25  0  0  1  0  0  0  0  0999 V2000
   21.5620  -21.7700   -9.0155 N   0  0  0  0  0  0  0  0  0  0  0  0
   21.3715  -20.5876   -9.7624 C   0  0  0  0  0  0  0  0  0  0  0  0
   20.2828  -19.9785   -9.6677 O   0  0  0  0  0  0  0  0  0  0  0  0
   22.4301  -20.0674  -10.6438 C   0  0  0  0  0  0  0  0  0  0  0  0
   23.6765  -20.9402  -10.6051 C   0  0  2  0  0  0  0  0  0  0  0  0
   24.3357  -20.7725   -9.3339 N   0  0  0  0  0  0  0  0  0  0  0  0
   24.6111  -20.5884  -11.6847 C   0  0  0  0  0  0  0  0  0  0  0  0
   25.5022  -19.7445  -11.4877 O   0  0  0  0  0  0  0  0  0  0  0  0
   26.7264  -24.5063  -15.9074 N   0  0  0  0  0  0  0  0  0  0  0  0
   27.4546  -23.3441  -16.2538 C   0  0  0  0  0  0  0  0  0  0  0  0
   28.3803  -23.4333  -17.0865 O   0  0  0  0  0  0  0  0  0  0  0  0
   27.1192  -22.0623  -15.6471 C   0  0  0  0  0  0  0  0  0  0  0  0
   26.0269  -22.1618  -14.6639 C   0  0  0  0  0  0  0  0  0  0  0  0
   25.5371  -20.9326  -14.0000 C   0  0  2  0  0  0  0  0  0  0  0  0
   24.5569  -21.1744  -12.9863 N   0  0  0  0  0  0  0  0  0  0  0  0
   25.1268  -19.8673  -14.9522 C   0  0  0  0  0  0  0  0  0  0  0  0
   23.9361  -19.7927  -15.3686 O   0  0  0  0  0  0  0  0  0  0  0  0
   24.9773  -14.8575  -16.4654 C   0  0  0  0  0  0  0  0  0  0  0  0
   26.2085  -15.3814  -15.7524 C   0  0  2  0  0  0  0  0  0  0  0  0
   27.2210  -14.3157  -15.6089 C   0  0  0  0  0  0  0  0  0  0  0  0
   26.6407  -16.7224  -16.1888 C   0  0  0  0  0  0  0  0  0  0  0  0
   25.6422  -17.8058  -16.3281 C   0  0  2  0  0  0  0  0  0  0  0  0
   26.0457  -18.9071  -15.4226 N   0  0  0  0  0  0  0  0  0  0  0  0
   25.6063  -18.4105  -17.6688 C   0  0  0  0  0  0  0  0  0  0  0  0
   24.7005  -18.0918  -18.6754 O   0  0  0  0  0  0  0  0  0  0  0  0
   26.4454  -19.3221  -18.0214 O   0  0  0  0  0  0  0  0  0  0  0  0
  2  4  1  0
  2  1  1  0
  3  2  2  0
  5  7  1  0
  5  4  1  0
  5  6  1  1
  7  8  2  0
 10  9  1  0
 10 12  1  0
 11 10  2  0
 13 12  1  0
 14 13  1  6
 15 14  1  0
 15  7  1  0
 16 14  1  0
 17 16  2  0
 19 18  1  6
 19 21  1  0
 20 19  1  0
 22 21  1  6
 22 23  1  0
 22 24  1  0
 23 16  1  0
 24 25  1  0
 26 24  2  0
M  END
$$$$
