NQL.pdb
     RDKit          3D

 26 25  0  0  1  0  0  0  0  0999 V2000
   18.5191  -17.0467  -16.9602 N   0  0  0  0  0  0  0  0  0  0  0  0
   18.9271  -16.2602  -15.8615 C   0  0  0  0  0  0  0  0  0  0  0  0
   18.4850  -16.5315  -14.7231 O   0  0  0  0  0  0  0  0  0  0  0  0
   19.8589  -15.1338  -16.0384 C   0  0  0  0  0  0  0  0  0  0  0  0
   20.1526  -14.8696  -17.5085 C   0  0  2  0  0  0  0  0  0  0  0  0
   20.9730  -15.9348  -18.0288 N   0  0  0  0  0  0  0  0  0  0  0  0
   20.8493  -13.5878  -17.6940 C   0  0  0  0  0  0  0  0  0  0  0  0
   22.0904  -13.5397  -17.6435 O   0  0  0  0  0  0  0  0  0  0  0  0
   19.4131   -9.1244  -22.3620 N   0  0  0  0  0  0  0  0  0  0  0  0
   18.9127   -9.7850  -21.2156 C   0  0  0  0  0  0  0  0  0  0  0  0
   17.7396   -9.5636  -20.8509 O   0  0  0  0  0  0  0  0  0  0  0  0
   19.7591  -10.7146  -20.4787 C   0  0  0  0  0  0  0  0  0  0  0  0
   20.1044  -10.2304  -19.1310 C   0  0  0  0  0  0  0  0  0  0  0  0
   20.8408  -11.1236  -18.2083 C   0  0  2  0  0  0  0  0  0  0  0  0
   20.1674  -12.3563  -17.9362 N   0  0  0  0  0  0  0  0  0  0  0  0
   21.3121  -10.4428  -16.9737 C   0  0  0  0  0  0  0  0  0  0  0  0
   20.6484  -10.5125  -15.9006 O   0  0  0  0  0  0  0  0  0  0  0  0
   24.9523  -10.8358  -14.1940 C   0  0  0  0  0  0  0  0  0  0  0  0
   25.2734  -10.1786  -15.5221 C   0  0  2  0  0  0  0  0  0  0  0  0
   26.7326  -10.1452  -15.7481 C   0  0  0  0  0  0  0  0  0  0  0  0
   24.4785   -8.9704  -15.8117 C   0  0  0  0  0  0  0  0  0  0  0  0
   23.0020   -9.0266  -15.7298 C   0  0  2  0  0  0  0  0  0  0  0  0
   22.5096   -9.6991  -16.9549 N   0  0  0  0  0  0  0  0  0  0  0  0
   22.3569   -7.7044  -15.7373 C   0  0  0  0  0  0  0  0  0  0  0  0
   22.1010   -6.9233  -14.6148 O   0  0  0  0  0  0  0  0  0  0  0  0
   21.9610   -7.1520  -16.8316 O   0  0  0  0  0  0  0  0  0  0  0  0
  2  4  1  0
  2  1  1  0
  3  2  2  0
  5  7  1  0
  5  4  1  0
  5  6  1  1
  7  8  2  0
 10  9  1  0
 10 12  1  0
 11 10  2  0
 13 12  1  0
 14 13  1  1
 15 14  1  0
 15  7  1  0
 16 14  1  0
 17 16  2  0
 19 18  1  1
 19 21  1  0
 20 19  1  0
 22 21  1  6
 22 23  1  0
 22 24  1  0
 23 16  1  0
 24 25  1  0
 26 24  2  0
M  END
$$$$
