NQL.pdb
     RDKit          3D

 26 25  0  0  1  0  0  0  0  0999 V2000
   15.0366  -14.9823  -14.1939 N   0  0  0  0  0  0  0  0  0  0  0  0
   15.0345  -13.8469  -15.0325 C   0  0  0  0  0  0  0  0  0  0  0  0
   13.9746  -13.5228  -15.6128 O   0  0  0  0  0  0  0  0  0  0  0  0
   16.2546  -13.0467  -15.2302 C   0  0  0  0  0  0  0  0  0  0  0  0
   16.7256  -13.0836  -16.6772 C   0  0  2  0  0  0  0  0  0  0  0  0
   17.3050  -14.3739  -16.9563 N   0  0  0  0  0  0  0  0  0  0  0  0
   17.7244  -12.0373  -16.9427 C   0  0  0  0  0  0  0  0  0  0  0  0
   18.9364  -12.2896  -16.8317 O   0  0  0  0  0  0  0  0  0  0  0  0
   16.7861   -6.9591  -20.4803 N   0  0  0  0  0  0  0  0  0  0  0  0
   18.1177   -6.7335  -20.0593 C   0  0  0  0  0  0  0  0  0  0  0  0
   18.7327   -5.7393  -20.4970 O   0  0  0  0  0  0  0  0  0  0  0  0
   18.7544   -7.6504  -19.1226 C   0  0  0  0  0  0  0  0  0  0  0  0
   17.8598   -8.7358  -18.6853 C   0  0  0  0  0  0  0  0  0  0  0  0
   18.3437   -9.7126  -17.6835 C   0  0  2  0  0  0  0  0  0  0  0  0
   17.3774  -10.7076  -17.3325 N   0  0  0  0  0  0  0  0  0  0  0  0
   18.9739   -9.0804  -16.4948 C   0  0  0  0  0  0  0  0  0  0  0  0
   18.2785   -8.7374  -15.4971 O   0  0  0  0  0  0  0  0  0  0  0  0
   22.0671  -10.2750  -13.1940 C   0  0  0  0  0  0  0  0  0  0  0  0
   22.6495  -10.0947  -14.5823 C   0  0  2  0  0  0  0  0  0  0  0  0
   24.0110  -10.6625  -14.6544 C   0  0  0  0  0  0  0  0  0  0  0  0
   22.3953   -8.7715  -15.1822 C   0  0  0  0  0  0  0  0  0  0  0  0
   21.0125   -8.2481  -15.2459 C   0  0  2  0  0  0  0  0  0  0  0  0
   20.3622   -8.8419  -16.4376 N   0  0  0  0  0  0  0  0  0  0  0  0
   20.9379   -6.7942  -15.4576 C   0  0  0  0  0  0  0  0  0  0  0  0
   20.5169   -6.1679  -16.6264 O   0  0  0  0  0  0  0  0  0  0  0  0
   21.2760   -5.9591  -14.5369 O   0  0  0  0  0  0  0  0  0  0  0  0
  2  4  1  0
  2  1  1  0
  3  2  2  0
  5  7  1  0
  5  4  1  0
  5  6  1  1
  7  8  2  0
 10  9  1  0
 10 12  1  0
 11 10  2  0
 13 12  1  0
 14 13  1  1
 15 14  1  0
 15  7  1  0
 16 14  1  0
 17 16  2  0
 19 18  1  1
 19 21  1  0
 20 19  1  0
 22 21  1  6
 22 23  1  0
 22 24  1  0
 23 16  1  0
 24 25  1  0
 26 24  2  0
M  END
$$$$
