NQL.pdb
     RDKit          3D

 26 25  0  0  1  0  0  0  0  0999 V2000
   23.1039  -13.1888  -16.9222 N   0  0  0  0  0  0  0  0  0  0  0  0
   23.6065  -11.9268  -16.5387 C   0  0  0  0  0  0  0  0  0  0  0  0
   24.8070  -11.8285  -16.2006 O   0  0  0  0  0  0  0  0  0  0  0  0
   22.7416  -10.7351  -16.5321 C   0  0  0  0  0  0  0  0  0  0  0  0
   21.3565  -11.0398  -17.0849 C   0  0  2  0  0  0  0  0  0  0  0  0
   21.4532  -11.2862  -18.5021 N   0  0  0  0  0  0  0  0  0  0  0  0
   20.4282   -9.9235  -16.8504 C   0  0  0  0  0  0  0  0  0  0  0  0
   20.5728   -8.8526  -17.4649 O   0  0  0  0  0  0  0  0  0  0  0  0
   15.2153  -12.4168  -16.3075 N   0  0  0  0  0  0  0  0  0  0  0  0
   15.4664  -11.2079  -15.6172 C   0  0  0  0  0  0  0  0  0  0  0  0
   15.0332  -11.0714  -14.4544 O   0  0  0  0  0  0  0  0  0  0  0  0
   16.2264  -10.1429  -16.2589 C   0  0  0  0  0  0  0  0  0  0  0  0
   17.0587   -9.3817  -15.3115 C   0  0  0  0  0  0  0  0  0  0  0  0
   18.4039   -8.9290  -15.7324 C   0  0  2  0  0  0  0  0  0  0  0  0
   19.3366   -9.9954  -15.9319 N   0  0  0  0  0  0  0  0  0  0  0  0
   18.9536   -7.8366  -14.8873 C   0  0  0  0  0  0  0  0  0  0  0  0
   19.7945   -8.0815  -13.9764 O   0  0  0  0  0  0  0  0  0  0  0  0
   22.8592   -4.2143  -15.1699 C   0  0  0  0  0  0  0  0  0  0  0  0
   21.5522   -4.2803  -14.4042 C   0  0  2  0  0  0  0  0  0  0  0  0
   21.7803   -4.0541  -12.9626 C   0  0  0  0  0  0  0  0  0  0  0  0
   20.6562   -5.3748  -14.8220 C   0  0  0  0  0  0  0  0  0  0  0  0
   19.2419   -5.3720  -14.3864 C   0  0  2  0  0  0  0  0  0  0  0  0
   18.5593   -6.4955  -15.0700 N   0  0  0  0  0  0  0  0  0  0  0  0
   18.4978   -4.1705  -14.7954 C   0  0  0  0  0  0  0  0  0  0  0  0
   18.3927   -2.9949  -14.0590 O   0  0  0  0  0  0  0  0  0  0  0  0
   17.8580   -4.1197  -15.9123 O   0  0  0  0  0  0  0  0  0  0  0  0
  2  4  1  0
  2  1  1  0
  3  2  2  0
  5  7  1  0
  5  4  1  0
  5  6  1  6
  7  8  2  0
 10  9  1  0
 10 12  1  0
 11 10  2  0
 13 12  1  0
 14 13  1  1
 15 14  1  0
 15  7  1  0
 16 14  1  0
 17 16  2  0
 19 18  1  6
 19 21  1  0
 20 19  1  0
 22 21  1  6
 22 23  1  0
 22 24  1  0
 23 16  1  0
 24 25  1  0
 26 24  2  0
M  END
$$$$
