NQL.pdb
     RDKit          3D

 26 25  0  0  1  0  0  0  0  0999 V2000
   17.1396  -16.3645  -16.4722 N   0  0  0  0  0  0  0  0  0  0  0  0
   17.8980  -15.7606  -15.4465 C   0  0  0  0  0  0  0  0  0  0  0  0
   17.9317  -16.3002  -14.3183 O   0  0  0  0  0  0  0  0  0  0  0  0
   18.6436  -14.5138  -15.6870 C   0  0  0  0  0  0  0  0  0  0  0  0
   18.3892  -13.9644  -17.0835 C   0  0  2  0  0  0  0  0  0  0  0  0
   19.0704  -14.7887  -18.0505 N   0  0  0  0  0  0  0  0  0  0  0  0
   18.8646  -12.5783  -17.2092 C   0  0  0  0  0  0  0  0  0  0  0  0
   20.0589  -12.3497  -17.4672 O   0  0  0  0  0  0  0  0  0  0  0  0
   15.2985   -7.3746  -17.6772 N   0  0  0  0  0  0  0  0  0  0  0  0
   16.5952   -6.8121  -17.6197 C   0  0  0  0  0  0  0  0  0  0  0  0
   16.7250   -5.5744  -17.7173 O   0  0  0  0  0  0  0  0  0  0  0  0
   17.7587   -7.6715  -17.4429 C   0  0  0  0  0  0  0  0  0  0  0  0
   17.4052   -9.0959  -17.3166 C   0  0  0  0  0  0  0  0  0  0  0  0
   18.4805  -10.0925  -17.1112 C   0  0  2  0  0  0  0  0  0  0  0  0
   18.0128  -11.4431  -17.0481 N   0  0  0  0  0  0  0  0  0  0  0  0
   19.4003   -9.7512  -15.9944 C   0  0  0  0  0  0  0  0  0  0  0  0
   19.1140  -10.0557  -14.8019 O   0  0  0  0  0  0  0  0  0  0  0  0
   23.1902  -11.0547  -14.0504 C   0  0  0  0  0  0  0  0  0  0  0  0
   23.3926  -10.4443  -15.4234 C   0  0  2  0  0  0  0  0  0  0  0  0
   24.7258  -10.7901  -15.9566 C   0  0  0  0  0  0  0  0  0  0  0  0
   22.9117   -9.0556  -15.5495 C   0  0  0  0  0  0  0  0  0  0  0  0
   21.5374   -8.7133  -15.1203 C   0  0  2  0  0  0  0  0  0  0  0  0
   20.6183   -9.0793  -16.2234 N   0  0  0  0  0  0  0  0  0  0  0  0
   21.3233   -7.2731  -14.9098 C   0  0  0  0  0  0  0  0  0  0  0  0
   20.5784   -6.4373  -15.7357 O   0  0  0  0  0  0  0  0  0  0  0  0
   21.8364   -6.6537  -13.9036 O   0  0  0  0  0  0  0  0  0  0  0  0
  2  4  1  0
  2  1  1  0
  3  2  2  0
  5  7  1  0
  5  4  1  0
  5  6  1  6
  7  8  2  0
 10  9  1  0
 10 12  1  0
 11 10  2  0
 13 12  1  0
 14 13  1  1
 15 14  1  0
 15  7  1  0
 16 14  1  0
 17 16  2  0
 19 18  1  1
 19 21  1  0
 20 19  1  0
 22 21  1  6
 22 23  1  0
 22 24  1  0
 23 16  1  0
 24 25  1  0
 26 24  2  0
M  END
$$$$
