NQL.pdb
     RDKit          3D

 26 25  0  0  1  0  0  0  0  0999 V2000
   17.0612  -16.2079  -16.7523 N   0  0  0  0  0  0  0  0  0  0  0  0
   17.7372  -15.6606  -15.6407 C   0  0  0  0  0  0  0  0  0  0  0  0
   17.5271  -16.1416  -14.5051 O   0  0  0  0  0  0  0  0  0  0  0  0
   18.6788  -14.5399  -15.8009 C   0  0  0  0  0  0  0  0  0  0  0  0
   18.7045  -14.0245  -17.2330 C   0  0  2  0  0  0  0  0  0  0  0  0
   19.3582  -14.9943  -18.0761 N   0  0  0  0  0  0  0  0  0  0  0  0
   19.4175  -12.7418  -17.3285 C   0  0  0  0  0  0  0  0  0  0  0  0
   20.6485  -12.7240  -17.5000 O   0  0  0  0  0  0  0  0  0  0  0  0
   16.7999   -7.0906  -18.3377 N   0  0  0  0  0  0  0  0  0  0  0  0
   18.1657   -6.7395  -18.2257 C   0  0  0  0  0  0  0  0  0  0  0  0
   18.5047   -5.5526  -18.4119 O   0  0  0  0  0  0  0  0  0  0  0  0
   19.1571   -7.7538  -17.8912 C   0  0  0  0  0  0  0  0  0  0  0  0
   18.5644   -9.0846  -17.6733 C   0  0  0  0  0  0  0  0  0  0  0  0
   19.4488  -10.2248  -17.3426 C   0  0  2  0  0  0  0  0  0  0  0  0
   18.7631  -11.4757  -17.2334 N   0  0  0  0  0  0  0  0  0  0  0  0
   20.3497   -9.9619  -16.1897 C   0  0  0  0  0  0  0  0  0  0  0  0
   19.9642  -10.1701  -15.0044 O   0  0  0  0  0  0  0  0  0  0  0  0
   26.2823  -10.3865  -15.6236 C   0  0  0  0  0  0  0  0  0  0  0  0
   24.8976  -10.2996  -15.0122 C   0  0  2  0  0  0  0  0  0  0  0  0
   24.4342  -11.6334  -14.5788 C   0  0  0  0  0  0  0  0  0  0  0  0
   23.9635   -9.4219  -15.7421 C   0  0  0  0  0  0  0  0  0  0  0  0
   22.5830   -9.2411  -15.2406 C   0  0  2  0  0  0  0  0  0  0  0  0
   21.6591   -9.4737  -16.3754 N   0  0  0  0  0  0  0  0  0  0  0  0
   22.2911   -7.8720  -14.7880 C   0  0  0  0  0  0  0  0  0  0  0  0
   22.0707   -6.7763  -15.6164 O   0  0  0  0  0  0  0  0  0  0  0  0
   22.2198   -7.5750  -13.5365 O   0  0  0  0  0  0  0  0  0  0  0  0
  2  4  1  0
  2  1  1  0
  3  2  2  0
  5  7  1  0
  5  4  1  0
  5  6  1  6
  7  8  2  0
 10  9  1  0
 10 12  1  0
 11 10  2  0
 13 12  1  0
 14 13  1  1
 15 14  1  0
 15  7  1  0
 16 14  1  0
 17 16  2  0
 19 18  1  6
 19 21  1  0
 20 19  1  0
 22 21  1  6
 22 23  1  0
 22 24  1  0
 23 16  1  0
 24 25  1  0
 26 24  2  0
M  END
$$$$
