NQL.pdb
     RDKit          3D

 26 25  0  0  1  0  0  0  0  0999 V2000
   26.7341  -17.3827  -19.0261 N   0  0  0  0  0  0  0  0  0  0  0  0
   25.3617  -17.1424  -18.8005 C   0  0  0  0  0  0  0  0  0  0  0  0
   24.8199  -16.1566  -19.3480 O   0  0  0  0  0  0  0  0  0  0  0  0
   24.5673  -18.0310  -17.9358 C   0  0  0  0  0  0  0  0  0  0  0  0
   25.4387  -19.0646  -17.2362 C   0  0  2  0  0  0  0  0  0  0  0  0
   25.8645  -20.0546  -18.1938 N   0  0  0  0  0  0  0  0  0  0  0  0
   24.7106  -19.7291  -16.1448 C   0  0  0  0  0  0  0  0  0  0  0  0
   23.8962  -20.6333  -16.3984 O   0  0  0  0  0  0  0  0  0  0  0  0
   25.6838  -23.2056  -13.2546 N   0  0  0  0  0  0  0  0  0  0  0  0
   25.5164  -22.3436  -12.1455 C   0  0  0  0  0  0  0  0  0  0  0  0
   24.9949  -22.7900  -11.1028 O   0  0  0  0  0  0  0  0  0  0  0  0
   25.9546  -20.9560  -12.2243 C   0  0  0  0  0  0  0  0  0  0  0  0
   24.8389  -20.0124  -12.4105 C   0  0  0  0  0  0  0  0  0  0  0  0
   24.1281  -19.9800  -13.7088 C   0  0  2  0  0  0  0  0  0  0  0  0
   24.8865  -19.3895  -14.7686 N   0  0  0  0  0  0  0  0  0  0  0  0
   22.7490  -19.4330  -13.6165 C   0  0  0  0  0  0  0  0  0  0  0  0
   22.5234  -18.2052  -13.8129 O   0  0  0  0  0  0  0  0  0  0  0  0
   19.2014  -17.8162  -15.3057 C   0  0  0  0  0  0  0  0  0  0  0  0
   19.9771  -18.8396  -16.1119 C   0  0  2  0  0  0  0  0  0  0  0  0
   19.3539  -19.0419  -17.4355 C   0  0  0  0  0  0  0  0  0  0  0  0
   20.4134  -20.0187  -15.3406 C   0  0  0  0  0  0  0  0  0  0  0  0
   20.2978  -20.0143  -13.8653 C   0  0  2  0  0  0  0  0  0  0  0  0
   21.6488  -20.2590  -13.3084 N   0  0  0  0  0  0  0  0  0  0  0  0
   19.4646  -21.1036  -13.3325 C   0  0  0  0  0  0  0  0  0  0  0  0
   19.7649  -22.4601  -13.4039 O   0  0  0  0  0  0  0  0  0  0  0  0
   18.3454  -20.8698  -12.7391 O   0  0  0  0  0  0  0  0  0  0  0  0
  2  4  1  0
  2  1  1  0
  3  2  2  0
  5  7  1  0
  5  4  1  0
  5  6  1  6
  7  8  2  0
 10  9  1  0
 10 12  1  0
 11 10  2  0
 13 12  1  0
 14 13  1  1
 15 14  1  0
 15  7  1  0
 16 14  1  0
 17 16  2  0
 19 18  1  1
 19 21  1  0
 20 19  1  0
 22 21  1  6
 22 23  1  0
 22 24  1  0
 23 16  1  0
 24 25  1  0
 26 24  2  0
M  END
$$$$
