RLT.pdb
     RDKit          3D

 27 26  0  0  1  0  0  0  0  0999 V2000
   19.0667  -22.9659  -18.1500 N   0  0  0  0  0  0  0  0  0  0  0  0
   18.8324  -21.5768  -18.3009 C   0  0  0  0  0  0  0  0  0  0  0  0
   17.6799  -21.1784  -18.7192 N   0  0  0  0  0  0  0  0  0  0  0  0
   19.8748  -20.6733  -17.9854 N   0  0  0  0  0  0  0  0  0  0  0  0
   21.0087  -21.0547  -17.1995 C   0  0  0  0  0  0  0  0  0  0  0  0
   20.6240  -21.6312  -15.8302 C   0  0  0  0  0  0  0  0  0  0  0  0
   21.8998  -21.8946  -15.1128 C   0  0  0  0  0  0  0  0  0  0  0  0
   22.3920  -20.7969  -14.2418 C   0  0  2  0  0  0  0  0  0  0  0  0
   22.4955  -19.5486  -14.9728 N   0  0  0  0  0  0  0  0  0  0  0  0
   23.6228  -21.0639  -13.5120 C   0  0  0  0  0  0  0  0  0  0  0  0
   23.7587  -22.1301  -12.8678 O   0  0  0  0  0  0  0  0  0  0  0  0
   17.4388  -20.1911  -18.8927 C   0  0  0  0  0  0  0  0  0  0  0  0
   27.7833  -21.0784  -15.0586 C   0  0  2  0  0  0  0  0  0  0  0  0
   27.2761  -19.7001  -14.7891 C   0  0  0  0  0  0  0  0  0  0  0  0
   28.3728  -18.7314  -15.2103 C   0  0  0  0  0  0  0  0  0  0  0  0
   27.0560  -19.4936  -13.3276 C   0  0  2  0  0  0  0  0  0  0  0  0
   25.9431  -20.3743  -12.7559 N   0  0  0  0  0  0  0  0  0  0  0  0
   24.7115  -20.1556  -13.4885 C   0  0  0  0  0  0  0  0  0  0  0  0
   25.7381  -19.8965  -11.3691 O   0  0  0  0  0  0  0  0  0  0  0  0
   25.2406  -18.7630  -11.1856 C   0  0  0  0  0  0  0  0  0  0  0  0
   25.0670  -22.2611   -8.0750 C   0  0  2  0  0  0  0  0  0  0  0  0
   24.8125  -20.7765   -8.1391 O   0  0  0  0  0  0  0  0  0  0  0  0
   24.7433  -20.2825   -6.8465 C   0  0  1  0  0  0  0  0  0  0  0  0
   25.9616  -20.1274   -8.8827 N   0  0  0  0  0  0  0  0  0  0  0  0
   26.0803  -20.6669  -10.2229 C   0  0  0  0  0  0  0  0  0  0  0  0
   27.2224  -20.3490   -8.1238 O   0  0  0  0  0  0  0  0  0  0  0  0
   28.1561  -21.0635   -8.5952 O   0  0  0  0  0  0  0  0  0  0  0  0
  2  1  1  0
  3  2  2  0
  4  2  1  0
  5  4  1  0
  6  5  1  0
  7  6  1  0
  8 10  1  0
  8  9  1  6
  8  7  1  0
 10 17  1  0
 10 11  2  0
 13 12  1  6
 13 14  1  0
 15 13  1  0
 16 15  1  6
 17 16  1  0
 18 16  1  0
 19 18  2  0
 21 20  1  1
 21 23  1  0
 21 22  1  0
 23 24  1  6
 24 18  1  0
 25 27  1  0
 25 23  1  0
 26 25  2  0
M  END
$$$$
