RLT.pdb
     RDKit          3D

 27 26  0  0  1  0  0  0  0  0999 V2000
   29.7063  -23.6493  -17.4014 N   0  0  0  0  0  0  0  0  0  0  0  0
   29.0292  -22.7034  -18.2102 C   0  0  0  0  0  0  0  0  0  0  0  0
   29.4931  -22.4370  -19.3831 N   0  0  0  0  0  0  0  0  0  0  0  0
   27.8637  -22.0836  -17.7004 N   0  0  0  0  0  0  0  0  0  0  0  0
   27.4456  -22.2375  -16.3401 C   0  0  0  0  0  0  0  0  0  0  0  0
   28.3333  -21.4732  -15.3486 C   0  0  0  0  0  0  0  0  0  0  0  0
   27.7744  -21.7370  -13.9959 C   0  0  0  0  0  0  0  0  0  0  0  0
   26.4979  -21.0484  -13.6767 C   0  0  2  0  0  0  0  0  0  0  0  0
   26.6754  -19.6104  -13.6114 N   0  0  0  0  0  0  0  0  0  0  0  0
   25.7905  -21.5287  -12.4987 C   0  0  0  0  0  0  0  0  0  0  0  0
   25.4980  -22.7420  -12.3863 O   0  0  0  0  0  0  0  0  0  0  0  0
   29.0950  -21.7243  -20.0127 C   0  0  0  0  0  0  0  0  0  0  0  0
   27.1070  -21.2472   -8.3043 C   0  0  2  0  0  0  0  0  0  0  0  0
   26.4933  -20.0056   -8.8625 C   0  0  0  0  0  0  0  0  0  0  0  0
   26.6542  -18.9171   -7.8100 C   0  0  0  0  0  0  0  0  0  0  0  0
   25.0274  -20.1885   -9.0735 C   0  0  2  0  0  0  0  0  0  0  0  0
   24.6988  -21.1126  -10.2478 N   0  0  0  0  0  0  0  0  0  0  0  0
   25.4013  -20.6728  -11.4371 C   0  0  0  0  0  0  0  0  0  0  0  0
   23.2474  -20.9412  -10.4877 O   0  0  0  0  0  0  0  0  0  0  0  0
   22.4510  -21.1176   -9.5388 C   0  0  0  0  0  0  0  0  0  0  0  0
   20.8935  -18.1877  -11.7233 C   0  0  2  0  0  0  0  0  0  0  0  0
   20.8418  -19.3274  -12.7087 O   0  0  0  0  0  0  0  0  0  0  0  0
   21.7063  -19.0484  -13.7549 C   0  0  2  0  0  0  0  0  0  0  0  0
   21.2770  -20.5924  -11.9982 N   0  0  0  0  0  0  0  0  0  0  0  0
   22.7057  -20.5823  -11.7535 C   0  0  0  0  0  0  0  0  0  0  0  0
   20.9038  -21.7713  -12.8263 O   0  0  0  0  0  0  0  0  0  0  0  0
   21.7827  -22.5717  -13.2638 O   0  0  0  0  0  0  0  0  0  0  0  0
  2  1  1  0
  3  2  2  0
  4  2  1  0
  5  4  1  0
  6  5  1  0
  7  6  1  0
  8 10  1  0
  8  9  1  1
  8  7  1  0
 10 17  1  0
 10 11  2  0
 13 12  1  6
 13 14  1  0
 15 13  1  0
 16 15  1  1
 17 16  1  0
 18 16  1  0
 19 18  2  0
 21 20  1  6
 21 23  1  0
 21 22  1  0
 23 24  1  6
 24 18  1  0
 25 27  1  0
 25 23  1  0
 26 25  2  0
M  END
$$$$
