RLT.pdb
     RDKit          3D

 27 26  0  0  1  0  0  0  0  0999 V2000
   17.9548  -22.9073  -10.0318 N   0  0  0  0  0  0  0  0  0  0  0  0
   17.6885  -23.4861  -11.2973 C   0  0  0  0  0  0  0  0  0  0  0  0
   17.1575  -24.6597  -11.3494 N   0  0  0  0  0  0  0  0  0  0  0  0
   18.0153  -22.7528  -12.4625 N   0  0  0  0  0  0  0  0  0  0  0  0
   19.3340  -22.2543  -12.7105 C   0  0  0  0  0  0  0  0  0  0  0  0
   20.1224  -23.1119  -13.7096 C   0  0  0  0  0  0  0  0  0  0  0  0
   21.3540  -22.3461  -14.0390 C   0  0  0  0  0  0  0  0  0  0  0  0
   21.3262  -20.8992  -13.7049 C   0  0  2  0  0  0  0  0  0  0  0  0
   20.8404  -20.1090  -14.8198 N   0  0  0  0  0  0  0  0  0  0  0  0
   22.5655  -20.3400  -13.1853 C   0  0  0  0  0  0  0  0  0  0  0  0
   23.1847  -19.4629  -13.8316 O   0  0  0  0  0  0  0  0  0  0  0  0
   16.9691  -25.1693  -12.2255 C   0  0  0  0  0  0  0  0  0  0  0  0
   26.2105  -21.1304   -8.1609 C   0  0  1  0  0  0  0  0  0  0  0  0
   26.0101  -20.5199   -9.5088 C   0  0  0  0  0  0  0  0  0  0  0  0
   25.9731  -19.0103   -9.3133 C   0  0  0  0  0  0  0  0  0  0  0  0
   24.6877  -20.9139  -10.0769 C   0  0  2  0  0  0  0  0  0  0  0  0
   24.4093  -20.2876  -11.4449 N   0  0  0  0  0  0  0  0  0  0  0  0
   23.1296  -20.7454  -11.9491 C   0  0  0  0  0  0  0  0  0  0  0  0
   25.4652  -20.8143  -12.3398 O   0  0  0  0  0  0  0  0  0  0  0  0
   25.7343  -22.0359  -12.3069 C   0  0  0  0  0  0  0  0  0  0  0  0
   28.6171  -20.1558  -16.0940 C   0  0  2  0  0  0  0  0  0  0  0  0
   27.4528  -19.6150  -15.3037 O   0  0  0  0  0  0  0  0  0  0  0  0
   26.3450  -19.5522  -16.1333 C   0  0  1  0  0  0  0  0  0  0  0  0
   27.1833  -20.5557  -14.1473 N   0  0  0  0  0  0  0  0  0  0  0  0
   26.1971  -19.9956  -13.2446 C   0  0  0  0  0  0  0  0  0  0  0  0
   28.4566  -20.8168  -13.4225 O   0  0  0  0  0  0  0  0  0  0  0  0
   28.8876  -20.0151  -12.5416 O   0  0  0  0  0  0  0  0  0  0  0  0
  2  1  1  0
  3  2  2  0
  4  2  1  0
  5  4  1  0
  6  5  1  0
  7  6  1  0
  8 10  1  0
  8  9  1  6
  8  7  1  0
 10 17  1  0
 10 11  2  0
 13 12  1  6
 13 14  1  0
 15 13  1  0
 16 15  1  1
 17 16  1  0
 18 16  1  0
 19 18  2  0
 21 20  1  6
 21 23  1  0
 21 22  1  0
 23 24  1  1
 24 18  1  0
 25 27  1  0
 25 23  1  0
 26 25  2  0
M  END
$$$$
