RLT.pdb
     RDKit          3D

 27 26  0  0  1  0  0  0  0  0999 V2000
   19.6374  -24.9394  -10.1162 N   0  0  0  0  0  0  0  0  0  0  0  0
   18.2890  -24.5366  -10.2797 C   0  0  0  0  0  0  0  0  0  0  0  0
   17.3479  -25.3716   -9.9986 N   0  0  0  0  0  0  0  0  0  0  0  0
   18.0225  -23.2276  -10.7465 N   0  0  0  0  0  0  0  0  0  0  0  0
   18.9324  -22.5140  -11.5901 C   0  0  0  0  0  0  0  0  0  0  0  0
   19.9763  -23.4231  -12.2526 C   0  0  0  0  0  0  0  0  0  0  0  0
   20.8023  -22.5467  -13.1251 C   0  0  0  0  0  0  0  0  0  0  0  0
   20.9258  -21.1317  -12.6914 C   0  0  2  0  0  0  0  0  0  0  0  0
   20.0601  -20.2641  -13.4670 N   0  0  0  0  0  0  0  0  0  0  0  0
   22.2775  -20.5937  -12.6450 C   0  0  0  0  0  0  0  0  0  0  0  0
   22.5286  -19.4684  -13.1357 O   0  0  0  0  0  0  0  0  0  0  0  0
   16.3429  -25.1603  -10.0897 C   0  0  0  0  0  0  0  0  0  0  0  0
   24.8162  -19.0939   -9.3107 C   0  0  2  0  0  0  0  0  0  0  0  0
   24.5504  -20.5605   -9.4008 C   0  0  0  0  0  0  0  0  0  0  0  0
   25.1215  -21.1951   -8.1400 C   0  0  0  0  0  0  0  0  0  0  0  0
   25.2813  -21.1608  -10.5551 C   0  0  2  0  0  0  0  0  0  0  0  0
   24.6995  -20.7578  -11.9116 N   0  0  0  0  0  0  0  0  0  0  0  0
   23.3608  -21.2945  -12.0566 C   0  0  0  0  0  0  0  0  0  0  0  0
   25.5639  -21.4136  -12.9197 O   0  0  0  0  0  0  0  0  0  0  0  0
   26.4864  -22.1646  -12.5310 C   0  0  0  0  0  0  0  0  0  0  0  0
   25.4135  -24.1182  -15.0926 C   0  0  2  0  0  0  0  0  0  0  0  0
   25.6144  -22.9587  -16.0348 O   0  0  0  0  0  0  0  0  0  0  0  0
   24.3751  -22.5340  -16.4857 C   0  0  2  0  0  0  0  0  0  0  0  0
   26.3023  -21.8419  -15.2770 N   0  0  0  0  0  0  0  0  0  0  0  0
   25.3985  -21.2328  -14.3212 C   0  0  0  0  0  0  0  0  0  0  0  0
   26.7921  -20.8234  -16.2453 O   0  0  0  0  0  0  0  0  0  0  0  0
   26.3034  -19.6552  -16.2735 O   0  0  0  0  0  0  0  0  0  0  0  0
  2  1  1  0
  3  2  2  0
  4  2  1  0
  5  4  1  0
  6  5  1  0
  7  6  1  0
  8 10  1  0
  8  9  1  6
  8  7  1  0
 10 17  1  0
 10 11  2  0
 13 12  1  1
 13 14  1  0
 15 13  1  0
 16 15  1  1
 17 16  1  0
 18 16  1  0
 19 18  2  0
 21 20  1  6
 21 23  1  0
 21 22  1  0
 23 24  1  6
 24 18  1  0
 25 27  1  0
 25 23  1  0
 26 25  2  0
M  END
$$$$
