RLT.pdb
     RDKit          3D

 27 26  0  0  1  0  0  0  0  0999 V2000
   21.5703  -19.2810  -14.9394 N   0  0  0  0  0  0  0  0  0  0  0  0
   22.3345  -18.5420  -15.8760 C   0  0  0  0  0  0  0  0  0  0  0  0
   21.7300  -17.7344  -16.6787 N   0  0  0  0  0  0  0  0  0  0  0  0
   23.7386  -18.7167  -15.8964 N   0  0  0  0  0  0  0  0  0  0  0  0
   24.4150  -19.5986  -14.9944 C   0  0  0  0  0  0  0  0  0  0  0  0
   24.2332  -19.2070  -13.5218 C   0  0  0  0  0  0  0  0  0  0  0  0
   24.5602  -20.4177  -12.7225 C   0  0  0  0  0  0  0  0  0  0  0  0
   25.9700  -20.5345  -12.2704 C   0  0  2  0  0  0  0  0  0  0  0  0
   26.7423  -21.3787  -13.1616 N   0  0  0  0  0  0  0  0  0  0  0  0
   26.1652  -20.9412  -10.8865 C   0  0  0  0  0  0  0  0  0  0  0  0
   26.0664  -22.1471  -10.5606 O   0  0  0  0  0  0  0  0  0  0  0  0
   22.1960  -17.2269  -17.4456 C   0  0  0  0  0  0  0  0  0  0  0  0
   28.1357  -18.3846   -5.5521 C   0  0  1  0  0  0  0  0  0  0  0  0
   27.5373  -19.5589   -6.2541 C   0  0  0  0  0  0  0  0  0  0  0  0
   28.5288  -20.7074   -6.1256 C   0  0  0  0  0  0  0  0  0  0  0  0
   27.3844  -19.2821   -7.7125 C   0  0  2  0  0  0  0  0  0  0  0  0
   26.6144  -20.3758   -8.4554 N   0  0  0  0  0  0  0  0  0  0  0  0
   26.4705  -20.0193   -9.8531 C   0  0  0  0  0  0  0  0  0  0  0  0
   25.2639  -20.3869   -7.8477 O   0  0  0  0  0  0  0  0  0  0  0  0
   24.5301  -19.3822   -7.9824 C   0  0  0  0  0  0  0  0  0  0  0  0
   22.3341  -22.6306   -8.3482 C   0  0  2  0  0  0  0  0  0  0  0  0
   22.6353  -22.6851   -6.8720 O   0  0  0  0  0  0  0  0  0  0  0  0
   23.3738  -23.8282   -6.6122 C   0  0  2  0  0  0  0  0  0  0  0  0
   23.4366  -21.4537   -6.5029 N   0  0  0  0  0  0  0  0  0  0  0  0
   24.7517  -21.4914   -7.1114 C   0  0  0  0  0  0  0  0  0  0  0  0
   23.5557  -21.3738   -5.0216 O   0  0  0  0  0  0  0  0  0  0  0  0
   24.6847  -21.4239   -4.4496 O   0  0  0  0  0  0  0  0  0  0  0  0
  2  1  1  0
  3  2  2  0
  4  2  1  0
  5  4  1  0
  6  5  1  0
  7  6  1  0
  8 10  1  0
  8  9  1  6
  8  7  1  0
 10 17  1  0
 10 11  2  0
 13 12  1  1
 13 14  1  0
 15 13  1  0
 16 15  1  6
 17 16  1  0
 18 16  1  0
 19 18  2  0
 21 20  1  1
 21 23  1  0
 21 22  1  0
 23 24  1  1
 24 18  1  0
 25 27  1  0
 25 23  1  0
 26 25  2  0
M  END
$$$$
