RLT.pdb
     RDKit          3D

 27 26  0  0  1  0  0  0  0  0999 V2000
   19.4058  -24.4342   -8.2873 N   0  0  0  0  0  0  0  0  0  0  0  0
   18.0249  -24.3120   -8.5797 C   0  0  0  0  0  0  0  0  0  0  0  0
   17.1632  -24.7374   -7.7203 N   0  0  0  0  0  0  0  0  0  0  0  0
   17.6395  -23.7248   -9.8081 N   0  0  0  0  0  0  0  0  0  0  0  0
   18.5935  -23.2524  -10.7650 C   0  0  0  0  0  0  0  0  0  0  0  0
   19.9169  -22.8103  -10.1262 C   0  0  0  0  0  0  0  0  0  0  0  0
   20.7878  -22.3510  -11.2408 C   0  0  0  0  0  0  0  0  0  0  0  0
   21.0075  -20.8849  -11.3296 C   0  0  2  0  0  0  0  0  0  0  0  0
   19.7954  -20.1921  -11.7227 N   0  0  0  0  0  0  0  0  0  0  0  0
   22.1293  -20.4560  -12.1520 C   0  0  0  0  0  0  0  0  0  0  0  0
   21.9519  -19.6497  -13.0947 O   0  0  0  0  0  0  0  0  0  0  0  0
   16.1422  -24.6933   -7.8568 C   0  0  0  0  0  0  0  0  0  0  0  0
   28.3403  -21.1921  -12.1357 C   0  0  1  0  0  0  0  0  0  0  0  0
   27.1331  -20.5536  -12.7395 C   0  0  0  0  0  0  0  0  0  0  0  0
   27.2446  -19.0570  -12.4817 C   0  0  0  0  0  0  0  0  0  0  0  0
   25.8908  -21.0178  -12.0554 C   0  0  2  0  0  0  0  0  0  0  0  0
   24.6153  -20.4188  -12.6516 N   0  0  0  0  0  0  0  0  0  0  0  0
   23.4542  -20.9145  -11.9392 C   0  0  0  0  0  0  0  0  0  0  0  0
   24.5514  -20.9336  -14.0388 O   0  0  0  0  0  0  0  0  0  0  0  0
   24.0390  -22.0564  -14.2459 C   0  0  0  0  0  0  0  0  0  0  0  0
   23.7788  -20.2719  -18.6723 C   0  0  2  0  0  0  0  0  0  0  0  0
   23.7271  -19.9585  -17.1986 O   0  0  0  0  0  0  0  0  0  0  0  0
   22.5106  -20.3912  -16.6959 C   0  0  1  0  0  0  0  0  0  0  0  0
   24.8625  -20.6919  -16.5148 N   0  0  0  0  0  0  0  0  0  0  0  0
   25.0467  -20.2109  -15.1599 C   0  0  0  0  0  0  0  0  0  0  0  0
   26.1107  -20.5042  -17.3031 O   0  0  0  0  0  0  0  0  0  0  0  0
   26.5760  -21.4328  -18.0281 O   0  0  0  0  0  0  0  0  0  0  0  0
  2  1  1  0
  3  2  2  0
  4  2  1  0
  5  4  1  0
  6  5  1  0
  7  6  1  0
  8 10  1  0
  8  9  1  6
  8  7  1  0
 10 17  1  0
 10 11  2  0
 13 12  1  6
 13 14  1  0
 15 13  1  0
 16 15  1  1
 17 16  1  0
 18 16  1  0
 19 18  2  0
 21 20  1  6
 21 23  1  0
 21 22  1  0
 23 24  1  1
 24 18  1  0
 25 27  1  0
 25 23  1  0
 26 25  2  0
M  END
$$$$
