RLT.pdb
     RDKit          3D

 27 26  0  0  1  0  0  0  0  0999 V2000
   19.7145  -30.1996  -12.1749 N   0  0  0  0  0  0  0  0  0  0  0  0
   20.5903  -30.2758  -11.0639 C   0  0  0  0  0  0  0  0  0  0  0  0
   21.2316  -31.3728  -10.8467 N   0  0  0  0  0  0  0  0  0  0  0  0
   20.7309  -29.1412  -10.2300 N   0  0  0  0  0  0  0  0  0  0  0  0
   19.9017  -27.9823  -10.3655 C   0  0  0  0  0  0  0  0  0  0  0  0
   19.9319  -27.3838  -11.7783 C   0  0  0  0  0  0  0  0  0  0  0  0
   18.9579  -26.2599  -11.7784 C   0  0  0  0  0  0  0  0  0  0  0  0
   19.2615  -25.1391  -10.8525 C   0  0  2  0  0  0  0  0  0  0  0  0
   18.4525  -25.2127   -9.6510 N   0  0  0  0  0  0  0  0  0  0  0  0
   19.2018  -23.8028  -11.4263 C   0  0  0  0  0  0  0  0  0  0  0  0
   18.2263  -23.0535  -11.1867 O   0  0  0  0  0  0  0  0  0  0  0  0
   21.8560  -31.5261  -10.0407 C   0  0  0  0  0  0  0  0  0  0  0  0
   22.9056  -19.9520  -14.6469 C   0  0  1  0  0  0  0  0  0  0  0  0
   21.5267  -20.3059  -14.1963 C   0  0  0  0  0  0  0  0  0  0  0  0
   21.0810  -19.2178  -13.2290 C   0  0  0  0  0  0  0  0  0  0  0  0
   21.5325  -21.5872  -13.4313 C   0  0  2  0  0  0  0  0  0  0  0  0
   20.1417  -22.0096  -12.9536 N   0  0  0  0  0  0  0  0  0  0  0  0
   20.2183  -23.2848  -12.2685 C   0  0  0  0  0  0  0  0  0  0  0  0
   19.3452  -22.2034  -14.1870 O   0  0  0  0  0  0  0  0  0  0  0  0
   19.7144  -23.0626  -15.0185 C   0  0  0  0  0  0  0  0  0  0  0  0
   16.0059  -23.5438  -15.0250 C   0  0  2  0  0  0  0  0  0  0  0  0
   15.9996  -22.0848  -15.4042 O   0  0  0  0  0  0  0  0  0  0  0  0
   15.5016  -21.3521  -14.3389 C   0  0  2  0  0  0  0  0  0  0  0  0
   17.4234  -21.6638  -15.7041 N   0  0  0  0  0  0  0  0  0  0  0  0
   18.1699  -21.4563  -14.4790 C   0  0  0  0  0  0  0  0  0  0  0  0
   17.4038  -20.4153  -16.5138 O   0  0  0  0  0  0  0  0  0  0  0  0
   17.9007  -19.3373  -16.0715 O   0  0  0  0  0  0  0  0  0  0  0  0
  2  1  1  0
  3  2  2  0
  4  2  1  0
  5  4  1  0
  6  5  1  0
  7  6  1  0
  8 10  1  0
  8  9  1  1
  8  7  1  0
 10 17  1  0
 10 11  2  0
 13 12  1  6
 13 14  1  0
 15 13  1  0
 16 15  1  1
 17 16  1  0
 18 16  1  0
 19 18  2  0
 21 20  1  6
 21 23  1  0
 21 22  1  0
 23 24  1  6
 24 18  1  0
 25 27  1  0
 25 23  1  0
 26 25  2  0
M  END
$$$$
