RLT.pdb
     RDKit          3D

 27 26  0  0  1  0  0  0  0  0999 V2000
   23.0782  -16.3424  -19.0426 N   0  0  0  0  0  0  0  0  0  0  0  0
   22.4923  -15.7546  -17.8943 C   0  0  0  0  0  0  0  0  0  0  0  0
   21.4187  -15.0537  -18.0286 N   0  0  0  0  0  0  0  0  0  0  0  0
   23.1080  -15.9593  -16.6367 N   0  0  0  0  0  0  0  0  0  0  0  0
   24.3601  -16.6388  -16.4973 C   0  0  0  0  0  0  0  0  0  0  0  0
   24.5499  -17.7650  -17.5223 C   0  0  0  0  0  0  0  0  0  0  0  0
   24.7344  -19.0167  -16.7406 C   0  0  0  0  0  0  0  0  0  0  0  0
   26.1328  -19.5003  -16.6121 C   0  0  2  0  0  0  0  0  0  0  0  0
   26.5697  -20.1788  -17.8172 N   0  0  0  0  0  0  0  0  0  0  0  0
   26.4232  -20.3094  -15.4376 C   0  0  0  0  0  0  0  0  0  0  0  0
   25.8121  -21.3860  -15.2431 O   0  0  0  0  0  0  0  0  0  0  0  0
   20.9665  -14.5378  -17.2591 C   0  0  0  0  0  0  0  0  0  0  0  0
   28.6036  -20.9713  -10.3056 C   0  0  1  0  0  0  0  0  0  0  0  0
   29.4224  -21.1484  -11.5418 C   0  0  0  0  0  0  0  0  0  0  0  0
   30.8467  -20.7360  -11.1957 C   0  0  0  0  0  0  0  0  0  0  0  0
   28.9572  -20.2286  -12.6209 C   0  0  2  0  0  0  0  0  0  0  0  0
   27.6098  -20.6364  -13.2203 N   0  0  0  0  0  0  0  0  0  0  0  0
   27.3900  -19.9354  -14.4699 C   0  0  0  0  0  0  0  0  0  0  0  0
   26.5918  -20.1688  -12.2516 O   0  0  0  0  0  0  0  0  0  0  0  0
   26.6298  -18.9817  -11.8576 C   0  0  0  0  0  0  0  0  0  0  0  0
   22.9830  -19.9504  -12.6051 C   0  0  2  0  0  0  0  0  0  0  0  0
   23.1659  -20.7562  -11.3442 O   0  0  0  0  0  0  0  0  0  0  0  0
   23.0060  -22.0983  -11.6488 C   0  0  2  0  0  0  0  0  0  0  0  0
   24.5636  -20.5060  -10.8167 N   0  0  0  0  0  0  0  0  0  0  0  0
   25.5620  -21.0072  -11.7404 C   0  0  0  0  0  0  0  0  0  0  0  0
   24.7110  -21.1649   -9.4905 O   0  0  0  0  0  0  0  0  0  0  0  0
   24.0084  -20.8093   -8.4984 O   0  0  0  0  0  0  0  0  0  0  0  0
  2  1  1  0
  3  2  2  0
  4  2  1  0
  5  4  1  0
  6  5  1  0
  7  6  1  0
  8 10  1  0
  8  9  1  6
  8  7  1  0
 10 17  1  0
 10 11  2  0
 13 12  1  1
 13 14  1  0
 15 13  1  0
 16 15  1  6
 17 16  1  0
 18 16  1  0
 19 18  2  0
 21 20  1  1
 21 23  1  0
 21 22  1  0
 23 24  1  1
 24 18  1  0
 25 27  1  0
 25 23  1  0
 26 25  2  0
M  END
$$$$
