RLT.pdb
     RDKit          3D

 27 26  0  0  1  0  0  0  0  0999 V2000
   26.0912  -19.5586  -16.4463 N   0  0  0  0  0  0  0  0  0  0  0  0
   24.7953  -19.2407  -16.9228 C   0  0  0  0  0  0  0  0  0  0  0  0
   24.5378  -19.3826  -18.1779 N   0  0  0  0  0  0  0  0  0  0  0  0
   23.8267  -18.7779  -16.0008 N   0  0  0  0  0  0  0  0  0  0  0  0
   23.8958  -19.0744  -14.6022 C   0  0  0  0  0  0  0  0  0  0  0  0
   24.0145  -20.5766  -14.3116 C   0  0  0  0  0  0  0  0  0  0  0  0
   23.9583  -20.7233  -12.8327 C   0  0  0  0  0  0  0  0  0  0  0  0
   25.2602  -20.6386  -12.1232 C   0  0  2  0  0  0  0  0  0  0  0  0
   26.3307  -21.2167  -12.9128 N   0  0  0  0  0  0  0  0  0  0  0  0
   25.2841  -21.1675  -10.7673 C   0  0  0  0  0  0  0  0  0  0  0  0
   25.2850  -22.4050  -10.5700 O   0  0  0  0  0  0  0  0  0  0  0  0
   23.6190  -19.1892  -18.6038 C   0  0  0  0  0  0  0  0  0  0  0  0
   28.0432  -20.7287   -7.0876 C   0  0  2  0  0  0  0  0  0  0  0  0
   27.2486  -19.5291   -7.4868 C   0  0  0  0  0  0  0  0  0  0  0  0
   27.6360  -18.4024   -6.5387 C   0  0  0  0  0  0  0  0  0  0  0  0
   25.7891  -19.7728   -7.2937 C   0  0  2  0  0  0  0  0  0  0  0  0
   25.2204  -20.8172   -8.2565 N   0  0  0  0  0  0  0  0  0  0  0  0
   25.3069  -20.3339   -9.6204 C   0  0  0  0  0  0  0  0  0  0  0  0
   23.7863  -20.9344   -7.9058 O   0  0  0  0  0  0  0  0  0  0  0  0
   23.0218  -19.9744   -8.1505 C   0  0  0  0  0  0  0  0  0  0  0  0
   22.0143  -24.6074   -6.6936 C   0  0  2  0  0  0  0  0  0  0  0  0
   21.2544  -23.5278   -7.4216 O   0  0  0  0  0  0  0  0  0  0  0  0
   19.9158  -23.6178   -7.0757 C   0  0  1  0  0  0  0  0  0  0  0  0
   21.8114  -22.1843   -6.9983 N   0  0  0  0  0  0  0  0  0  0  0  0
   23.2265  -22.0934   -7.2993 C   0  0  0  0  0  0  0  0  0  0  0  0
   21.5812  -21.9971   -5.5400 O   0  0  0  0  0  0  0  0  0  0  0  0
   22.5494  -21.8896   -4.7304 O   0  0  0  0  0  0  0  0  0  0  0  0
  2  1  1  0
  3  2  2  0
  4  2  1  0
  5  4  1  0
  6  5  1  0
  7  6  1  0
  8 10  1  0
  8  9  1  6
  8  7  1  0
 10 17  1  0
 10 11  2  0
 13 12  1  6
 13 14  1  0
 15 13  1  0
 16 15  1  6
 17 16  1  0
 18 16  1  0
 19 18  2  0
 21 20  1  6
 21 23  1  0
 21 22  1  0
 23 24  1  6
 24 18  1  0
 25 27  1  0
 25 23  1  0
 26 25  2  0
M  END
$$$$
