RLT.pdb
     RDKit          3D

 27 26  0  0  1  0  0  0  0  0999 V2000
   42.6801   -7.9361   -2.9019 N   0  0  0  0  0  0  0  0  0  0  0  0
   43.8780   -8.6912   -2.8566 C   0  0  0  0  0  0  0  0  0  0  0  0
   44.3665   -9.0217   -1.7103 N   0  0  0  0  0  0  0  0  0  0  0  0
   44.4972   -9.0574   -4.0752 N   0  0  0  0  0  0  0  0  0  0  0  0
   43.7462   -9.3881   -5.2481 C   0  0  0  0  0  0  0  0  0  0  0  0
   44.6310   -9.6469   -6.4749 C   0  0  0  0  0  0  0  0  0  0  0  0
   43.7118   -9.7610   -7.6383 C   0  0  0  0  0  0  0  0  0  0  0  0
   43.2104  -11.1268   -7.9366 C   0  0  2  0  0  0  0  0  0  0  0  0
   44.1607  -11.8753   -8.7366 N   0  0  0  0  0  0  0  0  0  0  0  0
   41.8793  -11.2050   -8.5204 C   0  0  0  0  0  0  0  0  0  0  0  0
   41.7281  -11.1460   -9.7630 O   0  0  0  0  0  0  0  0  0  0  0  0
   45.2245   -9.5801   -1.5881 C   0  0  0  0  0  0  0  0  0  0  0  0
   36.0815  -12.4897   -6.6084 C   0  0  1  0  0  0  0  0  0  0  0  0
   36.9952  -12.0774   -7.7151 C   0  0  0  0  0  0  0  0  0  0  0  0
   36.9602  -13.1860   -8.7583 C   0  0  0  0  0  0  0  0  0  0  0  0
   38.4038  -11.9844   -7.2315 C   0  0  2  0  0  0  0  0  0  0  0  0
   39.3637  -11.4157   -8.2786 N   0  0  0  0  0  0  0  0  0  0  0  0
   40.7064  -11.3487   -7.7364 C   0  0  0  0  0  0  0  0  0  0  0  0
   38.9021  -10.0297   -8.5221 O   0  0  0  0  0  0  0  0  0  0  0  0
   37.9156   -9.8415   -9.2687 C   0  0  0  0  0  0  0  0  0  0  0  0
   40.8672   -6.6207   -6.8515 C   0  0  2  0  0  0  0  0  0  0  0  0
   39.3728   -6.6229   -7.0503 O   0  0  0  0  0  0  0  0  0  0  0  0
   38.9628   -5.3323   -7.3434 C   0  0  1  0  0  0  0  0  0  0  0  0
   39.0467   -7.5468   -8.2057 N   0  0  0  0  0  0  0  0  0  0  0  0
   39.5278   -8.8892   -7.9455 C   0  0  0  0  0  0  0  0  0  0  0  0
   39.6626   -7.0101   -9.4496 O   0  0  0  0  0  0  0  0  0  0  0  0
   40.5707   -7.6474  -10.0610 O   0  0  0  0  0  0  0  0  0  0  0  0
  2  1  1  0
  3  2  2  0
  4  2  1  0
  5  4  1  0
  6  5  1  0
  7  6  1  0
  8 10  1  0
  8  9  1  6
  8  7  1  0
 10 17  1  0
 10 11  2  0
 13 12  1  6
 13 14  1  0
 15 13  1  0
 16 15  1  6
 17 16  1  0
 18 16  1  0
 19 18  2  0
 21 20  1  1
 21 23  1  0
 21 22  1  0
 23 24  1  1
 24 18  1  0
 25 27  1  0
 25 23  1  0
 26 25  2  0
M  END
$$$$
