RLT.pdb
     RDKit          3D

 27 26  0  0  1  0  0  0  0  0999 V2000
   17.7834  -23.9284   -6.1380 N   0  0  0  0  0  0  0  0  0  0  0  0
   18.1405  -25.1118   -6.8303 C   0  0  0  0  0  0  0  0  0  0  0  0
   17.5807  -26.2244   -6.4978 N   0  0  0  0  0  0  0  0  0  0  0  0
   19.1014  -25.0299   -7.8658 N   0  0  0  0  0  0  0  0  0  0  0  0
   19.7607  -23.8055   -8.2053 C   0  0  0  0  0  0  0  0  0  0  0  0
   19.3269  -23.2473   -9.5675 C   0  0  0  0  0  0  0  0  0  0  0  0
   20.5002  -22.5143  -10.1131 C   0  0  0  0  0  0  0  0  0  0  0  0
   20.6262  -21.0934   -9.6995 C   0  0  2  0  0  0  0  0  0  0  0  0
   19.5986  -20.2724  -10.3106 N   0  0  0  0  0  0  0  0  0  0  0  0
   21.9376  -20.4890   -9.8826 C   0  0  0  0  0  0  0  0  0  0  0  0
   22.1542  -19.7279  -10.8543 O   0  0  0  0  0  0  0  0  0  0  0  0
   17.7787  -27.1283   -6.9524 C   0  0  0  0  0  0  0  0  0  0  0  0
   27.4756  -20.5435   -6.9754 C   0  0  1  0  0  0  0  0  0  0  0  0
   26.6706  -20.1758   -8.1780 C   0  0  0  0  0  0  0  0  0  0  0  0
   26.7077  -18.6579   -8.2921 C   0  0  0  0  0  0  0  0  0  0  0  0
   25.2402  -20.5598   -7.9950 C   0  0  2  0  0  0  0  0  0  0  0  0
   24.3769  -20.2702   -9.2246 N   0  0  0  0  0  0  0  0  0  0  0  0
   23.0185  -20.7208   -8.9945 C   0  0  0  0  0  0  0  0  0  0  0  0
   24.9519  -21.0963  -10.3111 O   0  0  0  0  0  0  0  0  0  0  0  0
   24.9622  -22.3414  -10.1855 C   0  0  0  0  0  0  0  0  0  0  0  0
   25.8511  -21.9522  -14.9537 C   0  0  2  0  0  0  0  0  0  0  0  0
   25.2107  -21.1497  -13.8499 O   0  0  0  0  0  0  0  0  0  0  0  0
   23.9026  -21.5781  -13.6920 C   0  0  1  0  0  0  0  0  0  0  0  0
   25.9923  -21.3852  -12.5738 N   0  0  0  0  0  0  0  0  0  0  0  0
   25.4985  -20.5428  -11.5024 C   0  0  0  0  0  0  0  0  0  0  0  0
   27.4329  -21.1091  -12.8248 O   0  0  0  0  0  0  0  0  0  0  0  0
   27.9230  -19.9559  -12.6394 O   0  0  0  0  0  0  0  0  0  0  0  0
  2  1  1  0
  3  2  2  0
  4  2  1  0
  5  4  1  0
  6  5  1  0
  7  6  1  0
  8 10  1  0
  8  9  1  6
  8  7  1  0
 10 17  1  0
 10 11  2  0
 13 12  1  6
 13 14  1  0
 15 13  1  0
 16 15  1  1
 17 16  1  0
 18 16  1  0
 19 18  2  0
 21 20  1  6
 21 23  1  0
 21 22  1  0
 23 24  1  6
 24 18  1  0
 25 27  1  0
 25 23  1  0
 26 25  2  0
M  END
$$$$
