RLT.pdb
     RDKit          3D

 27 26  0  0  1  0  0  0  0  0999 V2000
   17.3724  -25.8618   -7.8621 N   0  0  0  0  0  0  0  0  0  0  0  0
   17.9275  -25.1466   -6.7723 C   0  0  0  0  0  0  0  0  0  0  0  0
   18.0296  -25.7305   -5.6275 N   0  0  0  0  0  0  0  0  0  0  0  0
   18.3521  -23.8129   -6.9802 N   0  0  0  0  0  0  0  0  0  0  0  0
   18.3150  -23.1879   -8.2675 C   0  0  0  0  0  0  0  0  0  0  0  0
   19.6191  -22.4597   -8.6196 C   0  0  0  0  0  0  0  0  0  0  0  0
   19.4037  -21.8346   -9.9518 C   0  0  0  0  0  0  0  0  0  0  0  0
   20.5346  -21.0301  -10.4806 C   0  0  2  0  0  0  0  0  0  0  0  0
   21.0893  -20.1632   -9.4587 N   0  0  0  0  0  0  0  0  0  0  0  0
   20.2688  -20.2779  -11.6980 C   0  0  0  0  0  0  0  0  0  0  0  0
   19.7780  -19.1265  -11.6368 O   0  0  0  0  0  0  0  0  0  0  0  0
   18.4726  -25.3041   -4.7999 C   0  0  0  0  0  0  0  0  0  0  0  0
   22.0103  -17.7662  -15.1535 C   0  0  2  0  0  0  0  0  0  0  0  0
   22.5195  -19.1380  -14.8557 C   0  0  0  0  0  0  0  0  0  0  0  0
   23.6822  -19.3973  -15.8040 C   0  0  0  0  0  0  0  0  0  0  0  0
   21.4798  -20.1653  -15.1568 C   0  0  2  0  0  0  0  0  0  0  0  0
   20.2675  -20.0857  -14.2267 N   0  0  0  0  0  0  0  0  0  0  0  0
   20.5429  -20.7917  -12.9909 C   0  0  0  0  0  0  0  0  0  0  0  0
   19.1841  -20.8086  -14.9316 O   0  0  0  0  0  0  0  0  0  0  0  0
   19.2686  -22.0503  -15.0620 C   0  0  0  0  0  0  0  0  0  0  0  0
   15.4831  -21.3757  -14.3326 C   0  0  2  0  0  0  0  0  0  0  0  0
   15.6427  -20.5986  -15.6145 O   0  0  0  0  0  0  0  0  0  0  0  0
   15.5282  -19.2473  -15.3309 C   0  0  2  0  0  0  0  0  0  0  0  0
   17.0143  -20.8956  -16.1847 N   0  0  0  0  0  0  0  0  0  0  0  0
   18.0402  -20.1587  -15.4734 C   0  0  0  0  0  0  0  0  0  0  0  0
   17.0309  -20.5389  -17.6294 O   0  0  0  0  0  0  0  0  0  0  0  0
   17.7898  -19.6265  -18.0723 O   0  0  0  0  0  0  0  0  0  0  0  0
  2  1  1  0
  3  2  2  0
  4  2  1  0
  5  4  1  0
  6  5  1  0
  7  6  1  0
  8 10  1  0
  8  9  1  1
  8  7  1  0
 10 17  1  0
 10 11  2  0
 13 12  1  1
 13 14  1  0
 15 13  1  0
 16 15  1  1
 17 16  1  0
 18 16  1  0
 19 18  2  0
 21 20  1  6
 21 23  1  0
 21 22  1  0
 23 24  1  6
 24 18  1  0
 25 27  1  0
 25 23  1  0
 26 25  2  0
M  END
$$$$
