RLT.pdb
     RDKit          3D

 27 26  0  0  1  0  0  0  0  0999 V2000
   28.7753  -24.3765  -20.4825 N   0  0  0  0  0  0  0  0  0  0  0  0
   28.6819  -23.1237  -21.1376 C   0  0  0  0  0  0  0  0  0  0  0  0
   29.3446  -22.9365  -22.2274 N   0  0  0  0  0  0  0  0  0  0  0  0
   27.8613  -22.1198  -20.5709 N   0  0  0  0  0  0  0  0  0  0  0  0
   27.0588  -22.3509  -19.4084 C   0  0  0  0  0  0  0  0  0  0  0  0
   27.8901  -22.5397  -18.1323 C   0  0  0  0  0  0  0  0  0  0  0  0
   26.9236  -22.8429  -17.0433 C   0  0  0  0  0  0  0  0  0  0  0  0
   26.0707  -21.7107  -16.6001 C   0  0  2  0  0  0  0  0  0  0  0  0
   26.7773  -20.4478  -16.6964 N   0  0  0  0  0  0  0  0  0  0  0  0
   25.4538  -21.8510  -15.2892 C   0  0  0  0  0  0  0  0  0  0  0  0
   24.6484  -22.7844  -15.0647 O   0  0  0  0  0  0  0  0  0  0  0  0
   29.3885  -22.0365  -22.7285 C   0  0  0  0  0  0  0  0  0  0  0  0
   27.2197  -22.2946  -11.1092 C   0  0  2  0  0  0  0  0  0  0  0  0
   27.3078  -20.9394  -11.7299 C   0  0  0  0  0  0  0  0  0  0  0  0
   28.0877  -20.0570  -10.7647 C   0  0  0  0  0  0  0  0  0  0  0  0
   25.9518  -20.3323  -11.8698 C   0  0  2  0  0  0  0  0  0  0  0  0
   25.0839  -21.0321  -12.9177 N   0  0  0  0  0  0  0  0  0  0  0  0
   25.7220  -20.9619  -14.2175 C   0  0  0  0  0  0  0  0  0  0  0  0
   23.8330  -20.2419  -12.9822 O   0  0  0  0  0  0  0  0  0  0  0  0
   23.8850  -19.0070  -12.7869 C   0  0  0  0  0  0  0  0  0  0  0  0
   21.7471  -19.2044  -15.5424 C   0  0  2  0  0  0  0  0  0  0  0  0
   20.7688  -19.9395  -14.6619 O   0  0  0  0  0  0  0  0  0  0  0  0
   20.5814  -21.2131  -15.1744 C   0  0  2  0  0  0  0  0  0  0  0  0
   21.3517  -20.0217  -13.2662 N   0  0  0  0  0  0  0  0  0  0  0  0
   22.5621  -20.8193  -13.2577 C   0  0  0  0  0  0  0  0  0  0  0  0
   20.3397  -20.6104  -12.3475 O   0  0  0  0  0  0  0  0  0  0  0  0
   20.5459  -21.7156  -11.7641 O   0  0  0  0  0  0  0  0  0  0  0  0
  2  1  1  0
  3  2  2  0
  4  2  1  0
  5  4  1  0
  6  5  1  0
  7  6  1  0
  8 10  1  0
  8  9  1  1
  8  7  1  0
 10 17  1  0
 10 11  2  0
 13 12  1  6
 13 14  1  0
 15 13  1  0
 16 15  1  1
 17 16  1  0
 18 16  1  0
 19 18  2  0
 21 20  1  6
 21 23  1  0
 21 22  1  0
 23 24  1  1
 24 18  1  0
 25 27  1  0
 25 23  1  0
 26 25  2  0
M  END
$$$$
