RLT.pdb
     RDKit          3D

 27 26  0  0  1  0  0  0  0  0999 V2000
   17.9857  -22.7731  -11.1832 N   0  0  0  0  0  0  0  0  0  0  0  0
   16.8667  -22.3014  -11.9132 C   0  0  0  0  0  0  0  0  0  0  0  0
   15.6835  -22.6534  -11.5416 N   0  0  0  0  0  0  0  0  0  0  0  0
   17.0885  -21.4574  -13.0271 N   0  0  0  0  0  0  0  0  0  0  0  0
   18.4012  -21.0738  -13.4495 C   0  0  0  0  0  0  0  0  0  0  0  0
   19.1717  -22.2150  -14.1272 C   0  0  0  0  0  0  0  0  0  0  0  0
   20.5787  -22.1079  -13.6575 C   0  0  0  0  0  0  0  0  0  0  0  0
   21.6087  -21.9818  -14.7199 C   0  0  2  0  0  0  0  0  0  0  0  0
   22.5550  -23.0798  -14.6710 N   0  0  0  0  0  0  0  0  0  0  0  0
   22.3093  -20.7074  -14.7821 C   0  0  0  0  0  0  0  0  0  0  0  0
   21.6722  -19.6304  -14.7157 O   0  0  0  0  0  0  0  0  0  0  0  0
   14.8163  -22.3318  -11.9969 C   0  0  0  0  0  0  0  0  0  0  0  0
   28.2300  -18.7264  -14.7510 C   0  0  1  0  0  0  0  0  0  0  0  0
   26.7934  -18.4282  -15.0288 C   0  0  0  0  0  0  0  0  0  0  0  0
   26.3672  -17.3407  -14.0520 C   0  0  0  0  0  0  0  0  0  0  0  0
   25.9413  -19.6201  -14.7462 C   0  0  2  0  0  0  0  0  0  0  0  0
   24.4514  -19.3651  -14.9838 N   0  0  0  0  0  0  0  0  0  0  0  0
   23.7177  -20.6136  -14.9182 C   0  0  0  0  0  0  0  0  0  0  0  0
   24.3571  -18.8547  -16.3709 O   0  0  0  0  0  0  0  0  0  0  0  0
   24.8131  -19.5509  -17.3055 C   0  0  0  0  0  0  0  0  0  0  0  0
   21.4159  -18.0326  -18.4535 C   0  0  2  0  0  0  0  0  0  0  0  0
   22.2418  -16.7720  -18.4150 O   0  0  0  0  0  0  0  0  0  0  0  0
   21.7245  -15.9327  -17.4415 C   0  0  2  0  0  0  0  0  0  0  0  0
   23.6690  -17.1471  -18.0728 N   0  0  0  0  0  0  0  0  0  0  0  0
   23.7688  -17.6017  -16.6999 C   0  0  0  0  0  0  0  0  0  0  0  0
   24.5502  -15.9679  -18.2910 O   0  0  0  0  0  0  0  0  0  0  0  0
   25.1200  -15.3850  -17.3214 O   0  0  0  0  0  0  0  0  0  0  0  0
  2  1  1  0
  3  2  2  0
  4  2  1  0
  5  4  1  0
  6  5  1  0
  7  6  1  0
  8 10  1  0
  8  9  1  1
  8  7  1  0
 10 17  1  0
 10 11  2  0
 13 12  1  6
 13 14  1  0
 15 13  1  0
 16 15  1  1
 17 16  1  0
 18 16  1  0
 19 18  2  0
 21 20  1  6
 21 23  1  0
 21 22  1  0
 23 24  1  6
 24 18  1  0
 25 27  1  0
 25 23  1  0
 26 25  2  0
M  END
$$$$
