RLT.pdb
     RDKit          3D

 27 26  0  0  1  0  0  0  0  0999 V2000
   22.2309  -18.5152  -16.6605 N   0  0  0  0  0  0  0  0  0  0  0  0
   23.4074  -17.8309  -17.0539 C   0  0  0  0  0  0  0  0  0  0  0  0
   23.4235  -17.2133  -18.1853 N   0  0  0  0  0  0  0  0  0  0  0  0
   24.5262  -17.8492  -16.1876 N   0  0  0  0  0  0  0  0  0  0  0  0
   24.9179  -19.0213  -15.4653 C   0  0  0  0  0  0  0  0  0  0  0  0
   23.7944  -19.5897  -14.5878 C   0  0  0  0  0  0  0  0  0  0  0  0
   24.3518  -20.7978  -13.9234 C   0  0  0  0  0  0  0  0  0  0  0  0
   25.6871  -20.6335  -13.2944 C   0  0  2  0  0  0  0  0  0  0  0  0
   26.7363  -21.1838  -14.1311 N   0  0  0  0  0  0  0  0  0  0  0  0
   25.8145  -21.1225  -11.9294 C   0  0  0  0  0  0  0  0  0  0  0  0
   25.8086  -22.3533  -11.6942 O   0  0  0  0  0  0  0  0  0  0  0  0
   24.2434  -16.7103  -18.5564 C   0  0  0  0  0  0  0  0  0  0  0  0
   26.0819  -19.8886   -6.5010 C   0  0  1  0  0  0  0  0  0  0  0  0
   27.2874  -20.3041   -7.2780 C   0  0  0  0  0  0  0  0  0  0  0  0
   28.4670  -19.5152   -6.7261 C   0  0  0  0  0  0  0  0  0  0  0  0
   27.1482  -19.9239   -8.7143 C   0  0  2  0  0  0  0  0  0  0  0  0
   26.0485  -20.7024   -9.4394 N   0  0  0  0  0  0  0  0  0  0  0  0
   25.9491  -20.2559  -10.8150 C   0  0  0  0  0  0  0  0  0  0  0  0
   24.7895  -20.3366   -8.7506 O   0  0  0  0  0  0  0  0  0  0  0  0
   24.2814  -19.2146   -8.9714 C   0  0  0  0  0  0  0  0  0  0  0  0
   21.9385  -22.3331   -9.3879 C   0  0  1  0  0  0  0  0  0  0  0  0
   21.8542  -20.9824   -8.7237 O   0  0  0  0  0  0  0  0  0  0  0  0
   20.5361  -20.7442   -8.3693 C   0  0  1  0  0  0  0  0  0  0  0  0
   22.7291  -21.0034   -7.4873 N   0  0  0  0  0  0  0  0  0  0  0  0
   24.1203  -21.2033   -7.8420 C   0  0  0  0  0  0  0  0  0  0  0  0
   22.2671  -22.0887   -6.5798 O   0  0  0  0  0  0  0  0  0  0  0  0
   22.9921  -23.0998   -6.3424 O   0  0  0  0  0  0  0  0  0  0  0  0
  2  1  1  0
  3  2  2  0
  4  2  1  0
  5  4  1  0
  6  5  1  0
  7  6  1  0
  8 10  1  0
  8  9  1  6
  8  7  1  0
 10 17  1  0
 10 11  2  0
 13 12  1  1
 13 14  1  0
 15 13  1  0
 16 15  1  6
 17 16  1  0
 18 16  1  0
 19 18  2  0
 21 20  1  6
 21 23  1  0
 21 22  1  0
 23 24  1  6
 24 18  1  0
 25 27  1  0
 25 23  1  0
 26 25  2  0
M  END
$$$$
