HTV.pdb
     RDKit          3D

 25 25  0  0  1  0  0  0  0  0999 V2000
   19.2512  -12.8746  -17.1584 N   0  0  0  0  0  0  0  0  0  0  0  0
   19.4617  -11.4940  -17.5118 C   0  0  1  0  0  0  0  0  0  0  0  0
   18.2042  -10.9533  -18.1701 C   0  0  0  0  0  0  0  0  0  0  0  0
   17.9638  -11.6316  -19.4687 C   0  0  0  0  0  0  0  0  0  0  0  0
   18.7357  -11.5381  -20.6111 C   0  0  0  0  0  0  0  0  0  0  0  0
   18.2027  -12.2922  -21.5798 N   0  0  0  0  0  0  0  0  0  0  0  0
   17.1005  -12.8606  -21.0568 C   0  0  0  0  0  0  0  0  0  0  0  0
   16.9566  -12.4649  -19.7911 N   0  0  0  0  0  0  0  0  0  0  0  0
   19.7927  -10.7179  -16.2813 C   0  0  0  0  0  0  0  0  0  0  0  0
   19.0950  -10.8180  -15.2472 O   0  0  0  0  0  0  0  0  0  0  0  0
   23.5097  -10.2591  -14.9497 C   0  0  0  0  0  0  0  0  0  0  0  0
   22.2215   -9.9381  -14.1973 C   0  0  1  0  0  0  0  0  0  0  0  0
   22.5686   -9.2744  -13.0388 O   0  0  0  0  0  0  0  0  0  0  0  0
   21.2919   -9.1604  -15.0767 C   0  0  2  0  0  0  0  0  0  0  0  0
   20.9178   -9.8521  -16.2848 N   0  0  0  0  0  0  0  0  0  0  0  0
   21.7025   -7.7488  -15.2948 C   0  0  0  0  0  0  0  0  0  0  0  0
   22.4762   -7.3888  -16.2141 O   0  0  0  0  0  0  0  0  0  0  0  0
   19.7995   -4.9753  -16.4147 C   0  0  0  0  0  0  0  0  0  0  0  0
   20.3561   -4.5360  -15.1001 C   0  0  1  0  0  0  0  0  0  0  0  0
   19.3304   -4.6472  -14.0128 C   0  0  0  0  0  0  0  0  0  0  0  0
   21.5930   -5.3145  -14.6903 C   0  0  2  0  0  0  0  0  0  0  0  0
   21.2258   -6.7102  -14.4504 N   0  0  0  0  0  0  0  0  0  0  0  0
   22.2186   -4.7877  -13.4663 C   0  0  0  0  0  0  0  0  0  0  0  0
   22.1834   -5.4043  -12.3696 O   0  0  0  0  0  0  0  0  0  0  0  0
   22.8916   -3.5632  -13.4554 O   0  0  0  0  0  0  0  0  0  0  0  0
  2  1  1  1
  3  2  1  0
  3  4  1  0
  4  5  2  0
  5  6  1  0
  7  6  1  0
  8  4  1  0
  8  7  2  0
  9 10  2  0
  9  2  1  0
 12 11  1  6
 12 14  1  0
 13 12  1  0
 14 16  1  0
 14 15  1  6
 15  9  1  0
 16 22  1  0
 17 16  2  0
 19 20  1  1
 19 18  1  0
 21 19  1  0
 21 22  1  1
 23 25  1  0
 23 21  1  0
 24 23  2  0
M  END
$$$$
