HTV.pdb
     RDKit          3D

 25 25  0  0  1  0  0  0  0  0999 V2000
   19.8448  -15.0532  -18.9964 N   0  0  0  0  0  0  0  0  0  0  0  0
   19.2248  -13.7569  -18.8946 C   0  0  1  0  0  0  0  0  0  0  0  0
   17.7909  -13.9286  -18.4242 C   0  0  0  0  0  0  0  0  0  0  0  0
   16.9890  -14.6433  -19.4492 C   0  0  0  0  0  0  0  0  0  0  0  0
   16.3986  -14.0967  -20.5728 C   0  0  0  0  0  0  0  0  0  0  0  0
   15.7591  -15.0524  -21.2575 N   0  0  0  0  0  0  0  0  0  0  0  0
   15.9418  -16.1974  -20.5742 C   0  0  0  0  0  0  0  0  0  0  0  0
   16.6791  -15.9528  -19.4899 N   0  0  0  0  0  0  0  0  0  0  0  0
   20.0008  -12.9162  -17.9369 C   0  0  0  0  0  0  0  0  0  0  0  0
   20.2190  -13.3037  -16.7671 O   0  0  0  0  0  0  0  0  0  0  0  0
   23.3909  -11.7360  -18.4946 C   0  0  0  0  0  0  0  0  0  0  0  0
   22.6427  -10.4893  -18.0316 C   0  0  1  0  0  0  0  0  0  0  0  0
   22.5596   -9.6286  -19.1066 O   0  0  0  0  0  0  0  0  0  0  0  0
   21.3097  -10.8696  -17.4653 C   0  0  2  0  0  0  0  0  0  0  0  0
   20.4992  -11.6563  -18.3609 N   0  0  0  0  0  0  0  0  0  0  0  0
   20.5795   -9.7444  -16.8252 C   0  0  0  0  0  0  0  0  0  0  0  0
   19.5844   -9.1833  -17.3432 O   0  0  0  0  0  0  0  0  0  0  0  0
   20.4967   -9.2687  -12.7278 C   0  0  0  0  0  0  0  0  0  0  0  0
   19.5798   -8.5838  -13.6877 C   0  0  1  0  0  0  0  0  0  0  0  0
   18.8949   -7.4163  -13.0439 C   0  0  0  0  0  0  0  0  0  0  0  0
   20.2856   -8.1076  -14.9443 C   0  0  2  0  0  0  0  0  0  0  0  0
   20.9834   -9.2357  -15.5614 N   0  0  0  0  0  0  0  0  0  0  0  0
   21.2724   -7.0484  -14.6772 C   0  0  0  0  0  0  0  0  0  0  0  0
   22.5002   -7.2876  -14.5372 O   0  0  0  0  0  0  0  0  0  0  0  0
   20.8962   -5.7075  -14.5636 O   0  0  0  0  0  0  0  0  0  0  0  0
  2  1  1  1
  3  2  1  0
  3  4  1  0
  4  5  2  0
  5  6  1  0
  7  6  1  0
  8  4  1  0
  8  7  2  0
  9 10  2  0
  9  2  1  0
 12 11  1  6
 12 14  1  0
 13 12  1  0
 14 16  1  0
 14 15  1  6
 15  9  1  0
 16 22  1  0
 17 16  2  0
 19 20  1  1
 19 18  1  0
 21 19  1  0
 21 22  1  1
 23 25  1  0
 23 21  1  0
 24 23  2  0
M  END
$$$$
