HTV.pdb
     RDKit          3D

 25 25  0  0  1  0  0  0  0  0999 V2000
   28.1327  -22.6272  -18.4769 N   0  0  0  0  0  0  0  0  0  0  0  0
   26.8971  -22.3098  -17.8078 C   0  0  1  0  0  0  0  0  0  0  0  0
   25.9569  -23.4981  -17.9129 C   0  0  0  0  0  0  0  0  0  0  0  0
   24.9354  -23.2621  -18.9641 C   0  0  0  0  0  0  0  0  0  0  0  0
   23.6390  -22.8203  -18.7797 C   0  0  0  0  0  0  0  0  0  0  0  0
   23.0201  -22.7286  -19.9628 N   0  0  0  0  0  0  0  0  0  0  0  0
   23.9165  -23.1092  -20.8918 C   0  0  0  0  0  0  0  0  0  0  0  0
   25.0650  -23.4292  -20.2938 N   0  0  0  0  0  0  0  0  0  0  0  0
   27.1826  -21.9831  -16.3803 C   0  0  0  0  0  0  0  0  0  0  0  0
   28.0618  -22.6013  -15.7394 O   0  0  0  0  0  0  0  0  0  0  0  0
   28.3493  -18.7773  -15.3461 C   0  0  0  0  0  0  0  0  0  0  0  0
   27.2141  -19.0601  -14.3664 C   0  0  1  0  0  0  0  0  0  0  0  0
   26.1767  -18.2031  -14.6704 O   0  0  0  0  0  0  0  0  0  0  0  0
   26.8319  -20.5067  -14.4253 C   0  0  2  0  0  0  0  0  0  0  0  0
   26.4439  -20.9537  -15.7397 N   0  0  0  0  0  0  0  0  0  0  0  0
   25.9022  -20.9326  -13.3468 C   0  0  0  0  0  0  0  0  0  0  0  0
   24.8382  -21.5615  -13.5606 O   0  0  0  0  0  0  0  0  0  0  0  0
   26.3390  -19.2094   -9.4872 C   0  0  0  0  0  0  0  0  0  0  0  0
   25.8052  -20.6012   -9.5836 C   0  0  1  0  0  0  0  0  0  0  0  0
   24.7837  -20.8649   -8.5189 C   0  0  0  0  0  0  0  0  0  0  0  0
   25.1935  -20.9087  -10.9384 C   0  0  2  0  0  0  0  0  0  0  0  0
   26.1808  -20.6409  -11.9843 N   0  0  0  0  0  0  0  0  0  0  0  0
   23.9960  -20.1002  -11.2199 C   0  0  0  0  0  0  0  0  0  0  0  0
   24.0362  -19.0510  -11.9141 O   0  0  0  0  0  0  0  0  0  0  0  0
   22.7380  -20.4569  -10.7273 O   0  0  0  0  0  0  0  0  0  0  0  0
  2  1  1  6
  3  2  1  0
  3  4  1  0
  4  5  2  0
  5  6  1  0
  7  6  1  0
  8  4  1  0
  8  7  2  0
  9 10  2  0
  9  2  1  0
 12 11  1  6
 12 14  1  0
 13 12  1  0
 14 16  1  0
 14 15  1  6
 15  9  1  0
 16 22  1  0
 17 16  2  0
 19 20  1  1
 19 18  1  0
 21 19  1  0
 21 22  1  6
 23 25  1  0
 23 21  1  0
 24 23  2  0
M  END
$$$$
