HTV.pdb
     RDKit          3D

 25 25  0  0  1  0  0  0  0  0999 V2000
   16.6798  -12.5733  -17.4523 N   0  0  0  0  0  0  0  0  0  0  0  0
   16.7266  -11.1379  -17.3402 C   0  0  1  0  0  0  0  0  0  0  0  0
   15.5936  -10.6736  -16.4414 C   0  0  0  0  0  0  0  0  0  0  0  0
   14.2823  -10.8891  -17.1035 C   0  0  0  0  0  0  0  0  0  0  0  0
   13.5921   -9.9897  -17.8938 C   0  0  0  0  0  0  0  0  0  0  0  0
   12.4474  -10.5421  -18.3129 N   0  0  0  0  0  0  0  0  0  0  0  0
   12.4106  -11.7828  -17.7929 C   0  0  0  0  0  0  0  0  0  0  0  0
   13.5104  -11.9916  -17.0676 N   0  0  0  0  0  0  0  0  0  0  0  0
   18.0488  -10.7327  -16.7802 C   0  0  0  0  0  0  0  0  0  0  0  0
   18.5893  -11.3879  -15.8611 O   0  0  0  0  0  0  0  0  0  0  0  0
   21.0931  -10.3974  -18.7540 C   0  0  0  0  0  0  0  0  0  0  0  0
   21.0350   -9.1111  -17.9350 C   0  0  1  0  0  0  0  0  0  0  0  0
   20.7688   -8.0738  -18.8047 O   0  0  0  0  0  0  0  0  0  0  0  0
   20.0258   -9.2452  -16.8370 C   0  0  2  0  0  0  0  0  0  0  0  0
   18.7034   -9.5849  -17.2994 N   0  0  0  0  0  0  0  0  0  0  0  0
   20.0508   -8.1331  -15.8513 C   0  0  0  0  0  0  0  0  0  0  0  0
   19.1665   -7.2456  -15.7890 O   0  0  0  0  0  0  0  0  0  0  0  0
   22.3601   -8.6703  -12.5614 C   0  0  0  0  0  0  0  0  0  0  0  0
   21.3552   -7.5657  -12.5314 C   0  0  1  0  0  0  0  0  0  0  0  0
   21.7717   -6.4796  -11.5861 C   0  0  0  0  0  0  0  0  0  0  0  0
   21.1028   -6.9568  -13.8987 C   0  0  2  0  0  0  0  0  0  0  0  0
   21.1054   -8.0177  -14.9061 N   0  0  0  0  0  0  0  0  0  0  0  0
   22.1207   -5.9627  -14.2768 C   0  0  0  0  0  0  0  0  0  0  0  0
   23.0941   -6.2422  -15.0243 O   0  0  0  0  0  0  0  0  0  0  0  0
   22.0609   -4.6428  -13.8223 O   0  0  0  0  0  0  0  0  0  0  0  0
  2  1  1  1
  3  2  1  0
  3  4  1  0
  4  5  2  0
  5  6  1  0
  7  6  1  0
  8  4  1  0
  8  7  2  0
  9 10  2  0
  9  2  1  0
 12 11  1  6
 12 14  1  0
 13 12  1  0
 14 16  1  0
 14 15  1  6
 15  9  1  0
 16 22  1  0
 17 16  2  0
 19 20  1  1
 19 18  1  0
 21 19  1  0
 21 22  1  6
 23 25  1  0
 23 21  1  0
 24 23  2  0
M  END
$$$$
