HTV.pdb
     RDKit          3D

 25 25  0  0  1  0  0  0  0  0999 V2000
   20.9488  -13.4390  -18.0498 N   0  0  0  0  0  0  0  0  0  0  0  0
   21.0228  -12.0405  -18.3872 C   0  0  1  0  0  0  0  0  0  0  0  0
   19.7277  -11.6242  -19.0630 C   0  0  0  0  0  0  0  0  0  0  0  0
   19.5649  -12.3332  -20.3572 C   0  0  0  0  0  0  0  0  0  0  0  0
   18.5101  -13.1421  -20.7352 C   0  0  0  0  0  0  0  0  0  0  0  0
   18.7164  -13.6044  -21.9742 N   0  0  0  0  0  0  0  0  0  0  0  0
   19.8932  -13.0930  -22.3802 C   0  0  0  0  0  0  0  0  0  0  0  0
   20.4025  -12.3307  -21.4113 N   0  0  0  0  0  0  0  0  0  0  0  0
   21.2518  -11.2477  -17.1442 C   0  0  0  0  0  0  0  0  0  0  0  0
   20.5273  -11.4038  -16.1357 O   0  0  0  0  0  0  0  0  0  0  0  0
   23.6764  -11.4194  -14.7900 C   0  0  0  0  0  0  0  0  0  0  0  0
   23.7534   -9.9372  -15.1448 C   0  0  1  0  0  0  0  0  0  0  0  0
   24.9312   -9.7331  -15.8333 O   0  0  0  0  0  0  0  0  0  0  0  0
   22.5338   -9.5274  -15.9108 C   0  0  2  0  0  0  0  0  0  0  0  0
   22.3092  -10.3012  -17.1061 N   0  0  0  0  0  0  0  0  0  0  0  0
   22.4089   -8.0601  -16.1122 C   0  0  0  0  0  0  0  0  0  0  0  0
   22.8519   -7.4614  -17.1215 O   0  0  0  0  0  0  0  0  0  0  0  0
   19.9324   -5.9742  -17.1183 C   0  0  0  0  0  0  0  0  0  0  0  0
   20.2744   -5.4267  -15.7713 C   0  0  1  0  0  0  0  0  0  0  0  0
   19.2967   -5.8896  -14.7338 C   0  0  0  0  0  0  0  0  0  0  0  0
   21.6775   -5.7922  -15.3219 C   0  0  2  0  0  0  0  0  0  0  0  0
   21.7642   -7.2419  -15.1458 N   0  0  0  0  0  0  0  0  0  0  0  0
   22.0537   -5.1523  -14.0506 C   0  0  0  0  0  0  0  0  0  0  0  0
   22.0692   -5.7766  -12.9578 O   0  0  0  0  0  0  0  0  0  0  0  0
   22.4175   -3.8046  -13.9875 O   0  0  0  0  0  0  0  0  0  0  0  0
  2  1  1  1
  3  2  1  0
  3  4  1  0
  4  5  2  0
  5  6  1  0
  7  6  1  0
  8  4  1  0
  8  7  2  0
  9 10  2  0
  9  2  1  0
 12 11  1  6
 12 14  1  0
 13 12  1  0
 14 16  1  0
 14 15  1  6
 15  9  1  0
 16 22  1  0
 17 16  2  0
 19 20  1  1
 19 18  1  0
 21 19  1  0
 21 22  1  1
 23 25  1  0
 23 21  1  0
 24 23  2  0
M  END
$$$$
