HTV.pdb
     RDKit          3D

 25 25  0  0  1  0  0  0  0  0999 V2000
   23.2732  -19.2866  -18.1211 N   0  0  0  0  0  0  0  0  0  0  0  0
   21.9793  -19.0732  -17.5248 C   0  0  1  0  0  0  0  0  0  0  0  0
   20.9283  -19.0360  -18.6208 C   0  0  0  0  0  0  0  0  0  0  0  0
   21.0775  -17.8092  -19.4435 C   0  0  0  0  0  0  0  0  0  0  0  0
   20.1851  -16.7582  -19.5386 C   0  0  0  0  0  0  0  0  0  0  0  0
   20.6644  -15.8329  -20.3784 N   0  0  0  0  0  0  0  0  0  0  0  0
   21.8522  -16.2925  -20.8135 C   0  0  0  0  0  0  0  0  0  0  0  0
   22.1005  -17.4773  -20.2534 N   0  0  0  0  0  0  0  0  0  0  0  0
   21.6983  -20.1729  -16.5566 C   0  0  0  0  0  0  0  0  0  0  0  0
   22.2022  -21.3088  -16.7050 O   0  0  0  0  0  0  0  0  0  0  0  0
   22.6075  -20.1763  -13.1243 C   0  0  0  0  0  0  0  0  0  0  0  0
   21.1277  -20.5468  -13.0830 C   0  0  1  0  0  0  0  0  0  0  0  0
   20.4424  -19.4713  -12.5570 O   0  0  0  0  0  0  0  0  0  0  0  0
   20.6587  -20.9457  -14.4479 C   0  0  2  0  0  0  0  0  0  0  0  0
   20.8452  -19.9255  -15.4492 N   0  0  0  0  0  0  0  0  0  0  0  0
   19.3090  -21.5677  -14.4675 C   0  0  0  0  0  0  0  0  0  0  0  0
   18.3260  -21.0659  -15.0636 O   0  0  0  0  0  0  0  0  0  0  0  0
   18.3336  -25.1602  -12.1407 C   0  0  0  0  0  0  0  0  0  0  0  0
   17.9287  -24.9322  -13.5603 C   0  0  1  0  0  0  0  0  0  0  0  0
   16.6542  -25.6520  -13.8827 C   0  0  0  0  0  0  0  0  0  0  0  0
   17.7624  -23.4623  -13.9003 C   0  0  2  0  0  0  0  0  0  0  0  0
   19.0595  -22.7939  -13.7944 N   0  0  0  0  0  0  0  0  0  0  0  0
   16.8171  -22.7737  -13.0062 C   0  0  0  0  0  0  0  0  0  0  0  0
   17.1888  -22.1618  -11.9710 O   0  0  0  0  0  0  0  0  0  0  0  0
   15.4432  -22.7620  -13.2606 O   0  0  0  0  0  0  0  0  0  0  0  0
  2  1  1  6
  3  2  1  0
  3  4  1  0
  4  5  2  0
  5  6  1  0
  7  6  1  0
  8  4  1  0
  8  7  2  0
  9 10  2  0
  9  2  1  0
 12 11  1  6
 12 14  1  0
 13 12  1  0
 14 16  1  0
 14 15  1  6
 15  9  1  0
 16 22  1  0
 17 16  2  0
 19 20  1  1
 19 18  1  0
 21 19  1  0
 21 22  1  1
 23 25  1  0
 23 21  1  0
 24 23  2  0
M  END
$$$$
