HTV.pdb
     RDKit          3D

 25 25  0  0  1  0  0  0  0  0999 V2000
   20.1557  -15.5351  -17.0905 N   0  0  0  0  0  0  0  0  0  0  0  0
   20.7595  -14.4493  -17.8197 C   0  0  1  0  0  0  0  0  0  0  0  0
   19.7680  -13.9298  -18.8465 C   0  0  0  0  0  0  0  0  0  0  0  0
   19.5739  -14.9241  -19.9319 C   0  0  0  0  0  0  0  0  0  0  0  0
   20.2973  -16.0837  -20.1364 C   0  0  0  0  0  0  0  0  0  0  0  0
   19.8309  -16.7228  -21.2159 N   0  0  0  0  0  0  0  0  0  0  0  0
   18.8191  -15.9750  -21.6935 C   0  0  0  0  0  0  0  0  0  0  0  0
   18.6644  -14.8963  -20.9242 N   0  0  0  0  0  0  0  0  0  0  0  0
   21.1469  -13.3718  -16.8631 C   0  0  0  0  0  0  0  0  0  0  0  0
   20.4849  -13.1638  -15.8217 O   0  0  0  0  0  0  0  0  0  0  0  0
   24.4516  -10.4027  -14.9123 C   0  0  0  0  0  0  0  0  0  0  0  0
   24.1394  -11.5134  -15.9109 C   0  0  1  0  0  0  0  0  0  0  0  0
   24.6096  -12.6967  -15.3801 O   0  0  0  0  0  0  0  0  0  0  0  0
   22.6734  -11.5349  -16.2151 C   0  0  2  0  0  0  0  0  0  0  0  0
   22.2854  -12.5702  -17.1401 N   0  0  0  0  0  0  0  0  0  0  0  0
   22.1002  -10.2006  -16.5314 C   0  0  0  0  0  0  0  0  0  0  0  0
   22.1873   -9.6616  -17.6607 O   0  0  0  0  0  0  0  0  0  0  0  0
   18.9134   -9.1935  -17.0578 C   0  0  0  0  0  0  0  0  0  0  0  0
   19.3370   -8.2527  -15.9777 C   0  0  1  0  0  0  0  0  0  0  0  0
   18.7701   -8.6598  -14.6512 C   0  0  0  0  0  0  0  0  0  0  0  0
   20.8451   -8.1350  -15.8522 C   0  0  2  0  0  0  0  0  0  0  0  0
   21.4067   -9.4503  -15.5439 N   0  0  0  0  0  0  0  0  0  0  0  0
   21.2577   -7.2002  -14.7925 C   0  0  0  0  0  0  0  0  0  0  0  0
   21.1264   -5.9532  -14.9018 O   0  0  0  0  0  0  0  0  0  0  0  0
   21.8229   -7.6506  -13.5966 O   0  0  0  0  0  0  0  0  0  0  0  0
  2  1  1  1
  3  2  1  0
  3  4  1  0
  4  5  2  0
  5  6  1  0
  7  6  1  0
  8  4  1  0
  8  7  2  0
  9 10  2  0
  9  2  1  0
 12 11  1  1
 12 14  1  0
 13 12  1  0
 14 16  1  0
 14 15  1  6
 15  9  1  0
 16 22  1  0
 17 16  2  0
 19 20  1  1
 19 18  1  0
 21 19  1  0
 21 22  1  1
 23 25  1  0
 23 21  1  0
 24 23  2  0
M  END
$$$$
