HTV.pdb
     RDKit          3D

 25 25  0  0  1  0  0  0  0  0999 V2000
   20.6897  -18.3802  -18.3511 N   0  0  0  0  0  0  0  0  0  0  0  0
   21.2678  -17.0985  -18.0376 C   0  0  1  0  0  0  0  0  0  0  0  0
   22.2946  -16.7447  -19.0994 C   0  0  0  0  0  0  0  0  0  0  0  0
   23.4311  -17.6993  -19.0628 C   0  0  0  0  0  0  0  0  0  0  0  0
   23.6939  -18.7141  -19.9634 C   0  0  0  0  0  0  0  0  0  0  0  0
   24.8067  -19.3633  -19.6007 N   0  0  0  0  0  0  0  0  0  0  0  0
   25.2475  -18.7655  -18.4784 C   0  0  0  0  0  0  0  0  0  0  0  0
   24.4233  -17.7677  -18.1553 N   0  0  0  0  0  0  0  0  0  0  0  0
   20.1857  -16.0728  -17.9826 C   0  0  0  0  0  0  0  0  0  0  0  0
   19.3883  -15.9232  -18.9355 O   0  0  0  0  0  0  0  0  0  0  0  0
   17.2439  -16.0242  -16.5673 C   0  0  0  0  0  0  0  0  0  0  0  0
   17.8113  -14.7422  -15.9646 C   0  0  1  0  0  0  0  0  0  0  0  0
   18.0972  -14.9947  -14.6389 O   0  0  0  0  0  0  0  0  0  0  0  0
   18.9969  -14.2825  -16.7553 C   0  0  2  0  0  0  0  0  0  0  0  0
   20.0595  -15.2538  -16.8299 N   0  0  0  0  0  0  0  0  0  0  0  0
   19.4585  -12.9115  -16.4145 C   0  0  0  0  0  0  0  0  0  0  0  0
   20.4828  -12.6781  -15.7291 O   0  0  0  0  0  0  0  0  0  0  0  0
   20.1571  -10.0209  -18.8251 C   0  0  0  0  0  0  0  0  0  0  0  0
   19.1778   -9.5659  -17.7931 C   0  0  1  0  0  0  0  0  0  0  0  0
   17.7824   -9.5495  -18.3401 C   0  0  0  0  0  0  0  0  0  0  0  0
   19.2029  -10.4169  -16.5364 C   0  0  2  0  0  0  0  0  0  0  0  0
   18.7433  -11.7676  -16.8604 N   0  0  0  0  0  0  0  0  0  0  0  0
   18.3413   -9.8828  -15.4690 C   0  0  0  0  0  0  0  0  0  0  0  0
   17.2445  -10.4149  -15.1554 O   0  0  0  0  0  0  0  0  0  0  0  0
   18.6975   -8.7457  -14.7392 O   0  0  0  0  0  0  0  0  0  0  0  0
  2  1  1  6
  3  2  1  0
  3  4  1  0
  4  5  2  0
  5  6  1  0
  7  6  1  0
  8  4  1  0
  8  7  2  0
  9 10  2  0
  9  2  1  0
 12 11  1  6
 12 14  1  0
 13 12  1  0
 14 16  1  0
 14 15  1  1
 15  9  1  0
 16 22  1  0
 17 16  2  0
 19 20  1  6
 19 18  1  0
 21 19  1  0
 21 22  1  6
 23 25  1  0
 23 21  1  0
 24 23  2  0
M  END
$$$$
