HTV.pdb
     RDKit          3D

 25 25  0  0  1  0  0  0  0  0999 V2000
   27.7873  -20.6932  -11.0130 N   0  0  0  0  0  0  0  0  0  0  0  0
   26.4741  -21.0543  -10.5436 C   0  0  1  0  0  0  0  0  0  0  0  0
   26.1572  -20.2534   -9.2926 C   0  0  0  0  0  0  0  0  0  0  0  0
   27.3130  -20.2646   -8.3607 C   0  0  0  0  0  0  0  0  0  0  0  0
   28.5356  -20.8773   -8.5597 C   0  0  0  0  0  0  0  0  0  0  0  0
   29.3237  -20.6689   -7.4983 N   0  0  0  0  0  0  0  0  0  0  0  0
   28.6072  -19.9294   -6.6316 C   0  0  0  0  0  0  0  0  0  0  0  0
   27.4016  -19.6866   -7.1480 N   0  0  0  0  0  0  0  0  0  0  0  0
   25.4764  -20.7781  -11.6180 C   0  0  0  0  0  0  0  0  0  0  0  0
   25.3672  -19.6372  -12.1205 O   0  0  0  0  0  0  0  0  0  0  0  0
   25.4883  -21.7282  -14.8550 C   0  0  0  0  0  0  0  0  0  0  0  0
   24.0945  -22.1993  -14.4499 C   0  0  1  0  0  0  0  0  0  0  0  0
   24.1111  -23.5785  -14.4231 O   0  0  0  0  0  0  0  0  0  0  0  0
   23.7013  -21.5802  -13.1444 C   0  0  2  0  0  0  0  0  0  0  0  0
   24.6376  -21.8277  -12.0768 N   0  0  0  0  0  0  0  0  0  0  0  0
   22.2829  -21.8126  -12.7660 C   0  0  0  0  0  0  0  0  0  0  0  0
   21.9216  -22.6929  -11.9487 O   0  0  0  0  0  0  0  0  0  0  0  0
   19.9684  -18.9924  -11.6932 C   0  0  0  0  0  0  0  0  0  0  0  0
   19.6432  -20.4464  -11.5880 C   0  0  1  0  0  0  0  0  0  0  0  0
   18.2313  -20.6544  -11.1298 C   0  0  0  0  0  0  0  0  0  0  0  0
   19.8523  -21.1963  -12.8911 C   0  0  2  0  0  0  0  0  0  0  0  0
   21.2390  -21.0281  -13.3261 N   0  0  0  0  0  0  0  0  0  0  0  0
   18.9719  -20.7200  -13.9705 C   0  0  0  0  0  0  0  0  0  0  0  0
   19.3532  -19.8922  -14.8386 O   0  0  0  0  0  0  0  0  0  0  0  0
   17.6529  -21.1652  -14.0910 O   0  0  0  0  0  0  0  0  0  0  0  0
  2  1  1  6
  3  2  1  0
  3  4  1  0
  4  5  2  0
  5  6  1  0
  7  6  1  0
  8  4  1  0
  8  7  2  0
  9 10  2  0
  9  2  1  0
 12 11  1  1
 12 14  1  0
 13 12  1  0
 14 16  1  0
 14 15  1  1
 15  9  1  0
 16 22  1  0
 17 16  2  0
 19 20  1  6
 19 18  1  0
 21 19  1  0
 21 22  1  6
 23 25  1  0
 23 21  1  0
 24 23  2  0
M  END
$$$$
