HTV.pdb
     RDKit          3D

 25 25  0  0  1  0  0  0  0  0999 V2000
   22.0592  -28.2563  -16.3775 N   0  0  0  0  0  0  0  0  0  0  0  0
   22.9995  -27.9790  -17.4330 C   0  0  1  0  0  0  0  0  0  0  0  0
   22.5292  -26.7608  -18.2088 C   0  0  0  0  0  0  0  0  0  0  0  0
   21.2727  -27.0626  -18.9398 C   0  0  0  0  0  0  0  0  0  0  0  0
   20.0146  -26.5556  -18.6755 C   0  0  0  0  0  0  0  0  0  0  0  0
   19.1323  -27.0585  -19.5471 N   0  0  0  0  0  0  0  0  0  0  0  0
   19.8246  -27.8788  -20.3590 C   0  0  0  0  0  0  0  0  0  0  0  0
   21.1079  -27.8817  -19.9955 N   0  0  0  0  0  0  0  0  0  0  0  0
   24.3475  -27.7424  -16.8390 C   0  0  0  0  0  0  0  0  0  0  0  0
   24.4882  -27.5572  -15.6094 O   0  0  0  0  0  0  0  0  0  0  0  0
   28.8919  -28.6780  -16.3185 C   0  0  0  0  0  0  0  0  0  0  0  0
   27.4871  -28.9118  -16.8666 C   0  0  1  0  0  0  0  0  0  0  0  0
   26.8205  -29.7255  -15.9740 O   0  0  0  0  0  0  0  0  0  0  0  0
   26.8037  -27.6014  -17.1071 C   0  0  2  0  0  0  0  0  0  0  0  0
   25.4885  -27.7274  -17.6837 N   0  0  0  0  0  0  0  0  0  0  0  0
   27.6583  -26.5856  -17.7755 C   0  0  0  0  0  0  0  0  0  0  0  0
   27.7614  -26.4816  -19.0212 O   0  0  0  0  0  0  0  0  0  0  0  0
   30.0814  -22.2841  -17.3372 C   0  0  0  0  0  0  0  0  0  0  0  0
   29.1717  -23.3540  -16.8285 C   0  0  1  0  0  0  0  0  0  0  0  0
   27.7558  -22.8687  -16.7483 C   0  0  0  0  0  0  0  0  0  0  0  0
   29.2116  -24.6159  -17.6711 C   0  0  2  0  0  0  0  0  0  0  0  0
   28.4203  -25.6575  -17.0159 N   0  0  0  0  0  0  0  0  0  0  0  0
   30.5775  -25.1301  -17.8634 C   0  0  0  0  0  0  0  0  0  0  0  0
   31.3024  -24.7790  -18.8307 O   0  0  0  0  0  0  0  0  0  0  0  0
   31.1488  -26.0443  -16.9744 O   0  0  0  0  0  0  0  0  0  0  0  0
  2  1  1  1
  3  2  1  0
  3  4  1  0
  4  5  2  0
  5  6  1  0
  7  6  1  0
  8  4  1  0
  8  7  2  0
  9 10  2  0
  9  2  1  0
 12 11  1  1
 12 14  1  0
 13 12  1  0
 14 16  1  0
 14 15  1  6
 15  9  1  0
 16 22  1  0
 17 16  2  0
 19 20  1  6
 19 18  1  0
 21 19  1  0
 21 22  1  1
 23 25  1  0
 23 21  1  0
 24 23  2  0
M  END
$$$$
