HTV.pdb
     RDKit          3D

 25 25  0  0  1  0  0  0  0  0999 V2000
   21.4656  -16.1798  -17.8102 N   0  0  0  0  0  0  0  0  0  0  0  0
   21.0794  -14.8596  -18.2378 C   0  0  1  0  0  0  0  0  0  0  0  0
   19.6054  -14.8686  -18.6045 C   0  0  0  0  0  0  0  0  0  0  0  0
   19.3704  -15.7245  -19.7947 C   0  0  0  0  0  0  0  0  0  0  0  0
   19.9790  -15.6154  -21.0306 C   0  0  0  0  0  0  0  0  0  0  0  0
   19.5105  -16.5638  -21.8504 N   0  0  0  0  0  0  0  0  0  0  0  0
   18.6111  -17.2701  -21.1408 C   0  0  0  0  0  0  0  0  0  0  0  0
   18.5266  -16.7674  -19.9081 N   0  0  0  0  0  0  0  0  0  0  0  0
   21.3466  -13.8896  -17.1361 C   0  0  0  0  0  0  0  0  0  0  0  0
   20.8749  -14.0670  -15.9907 O   0  0  0  0  0  0  0  0  0  0  0  0
   24.2108  -13.2916  -15.4216 C   0  0  0  0  0  0  0  0  0  0  0  0
   23.8512  -11.8700  -15.8439 C   0  0  1  0  0  0  0  0  0  0  0  0
   24.7713  -11.4701  -16.7907 O   0  0  0  0  0  0  0  0  0  0  0  0
   22.4348  -11.8194  -16.3271 C   0  0  2  0  0  0  0  0  0  0  0  0
   22.1494  -12.7471  -17.3928 N   0  0  0  0  0  0  0  0  0  0  0  0
   21.9274  -10.4446  -16.5749 C   0  0  0  0  0  0  0  0  0  0  0  0
   21.9532   -9.8914  -17.7004 O   0  0  0  0  0  0  0  0  0  0  0  0
   18.9490   -9.0393  -17.0312 C   0  0  0  0  0  0  0  0  0  0  0  0
   19.4554   -8.2224  -15.8878 C   0  0  1  0  0  0  0  0  0  0  0  0
   18.8245   -8.6479  -14.5964 C   0  0  0  0  0  0  0  0  0  0  0  0
   20.9649   -8.2813  -15.7400 C   0  0  2  0  0  0  0  0  0  0  0  0
   21.3734   -9.6690  -15.5211 N   0  0  0  0  0  0  0  0  0  0  0  0
   21.4593   -7.4743  -14.6125 C   0  0  0  0  0  0  0  0  0  0  0  0
   21.8698   -7.9901  -13.5402 O   0  0  0  0  0  0  0  0  0  0  0  0
   21.5000   -6.0788  -14.6719 O   0  0  0  0  0  0  0  0  0  0  0  0
  2  1  1  1
  3  2  1  0
  3  4  1  0
  4  5  2  0
  5  6  1  0
  7  6  1  0
  8  4  1  0
  8  7  2  0
  9 10  2  0
  9  2  1  0
 12 11  1  6
 12 14  1  0
 13 12  1  0
 14 16  1  0
 14 15  1  6
 15  9  1  0
 16 22  1  0
 17 16  2  0
 19 20  1  1
 19 18  1  0
 21 19  1  0
 21 22  1  1
 23 25  1  0
 23 21  1  0
 24 23  2  0
M  END
$$$$
