HTV.pdb
     RDKit          3D

 25 25  0  0  1  0  0  0  0  0999 V2000
   16.6305  -13.4894  -15.0529 N   0  0  0  0  0  0  0  0  0  0  0  0
   17.6330  -13.8375  -16.0270 C   0  0  1  0  0  0  0  0  0  0  0  0
   16.9849  -14.6439  -17.1391 C   0  0  0  0  0  0  0  0  0  0  0  0
   16.4417  -15.9196  -16.6084 C   0  0  0  0  0  0  0  0  0  0  0  0
   17.0840  -17.1424  -16.5641 C   0  0  0  0  0  0  0  0  0  0  0  0
   16.2760  -18.0578  -16.0162 N   0  0  0  0  0  0  0  0  0  0  0  0
   15.1290  -17.4215  -15.7147 C   0  0  0  0  0  0  0  0  0  0  0  0
   15.2277  -16.1394  -16.0694 N   0  0  0  0  0  0  0  0  0  0  0  0
   18.2480  -12.5892  -16.5652 C   0  0  0  0  0  0  0  0  0  0  0  0
   19.0146  -12.6210  -17.5539 O   0  0  0  0  0  0  0  0  0  0  0  0
   16.4189   -8.9280  -16.5440 C   0  0  0  0  0  0  0  0  0  0  0  0
   17.6847   -9.3113  -17.3052 C   0  0  1  0  0  0  0  0  0  0  0  0
   18.2744   -8.1458  -17.7489 O   0  0  0  0  0  0  0  0  0  0  0  0
   18.5777  -10.1400  -16.4346 C   0  0  2  0  0  0  0  0  0  0  0  0
   17.9580  -11.3457  -15.9446 N   0  0  0  0  0  0  0  0  0  0  0  0
   19.2943   -9.3645  -15.3886 C   0  0  0  0  0  0  0  0  0  0  0  0
   18.8263   -9.1519  -14.2444 O   0  0  0  0  0  0  0  0  0  0  0  0
   22.7236  -10.0495  -13.9797 C   0  0  0  0  0  0  0  0  0  0  0  0
   22.7038   -8.6399  -14.4736 C   0  0  1  0  0  0  0  0  0  0  0  0
   23.3970   -8.5195  -15.7970 C   0  0  0  0  0  0  0  0  0  0  0  0
   21.3001   -8.0763  -14.6011 C   0  0  2  0  0  0  0  0  0  0  0  0
   20.5788   -8.8115  -15.6401 N   0  0  0  0  0  0  0  0  0  0  0  0
   21.2895   -6.6483  -14.9582 C   0  0  0  0  0  0  0  0  0  0  0  0
   20.9841   -6.2412  -16.1094 O   0  0  0  0  0  0  0  0  0  0  0  0
   21.6209   -5.6578  -14.0299 O   0  0  0  0  0  0  0  0  0  0  0  0
  2  1  1  1
  3  2  1  0
  3  4  1  0
  4  5  2  0
  5  6  1  0
  7  6  1  0
  8  4  1  0
  8  7  2  0
  9 10  2  0
  9  2  1  0
 12 11  1  1
 12 14  1  0
 13 12  1  0
 14 16  1  0
 14 15  1  1
 15  9  1  0
 16 22  1  0
 17 16  2  0
 19 20  1  6
 19 18  1  0
 21 19  1  0
 21 22  1  6
 23 25  1  0
 23 21  1  0
 24 23  2  0
M  END
$$$$
