HTV.pdb
     RDKit          3D

 25 25  0  0  1  0  0  0  0  0999 V2000
   21.3464  -14.2370  -17.9260 N   0  0  0  0  0  0  0  0  0  0  0  0
   21.2072  -12.9222  -18.4978 C   0  0  1  0  0  0  0  0  0  0  0  0
   20.0246  -12.9185  -19.4508 C   0  0  0  0  0  0  0  0  0  0  0  0
   20.2841  -13.8146  -20.6058 C   0  0  0  0  0  0  0  0  0  0  0  0
   19.6632  -15.0182  -20.8804 C   0  0  0  0  0  0  0  0  0  0  0  0
   20.1623  -15.5373  -22.0085 N   0  0  0  0  0  0  0  0  0  0  0  0
   21.0932  -14.6700  -22.4473 C   0  0  0  0  0  0  0  0  0  0  0  0
   21.1668  -13.6369  -21.6067 N   0  0  0  0  0  0  0  0  0  0  0  0
   21.0091  -11.9294  -17.4018 C   0  0  0  0  0  0  0  0  0  0  0  0
   20.1435  -12.1092  -16.5160 O   0  0  0  0  0  0  0  0  0  0  0  0
   22.5801  -11.2675  -14.5975 C   0  0  0  0  0  0  0  0  0  0  0  0
   22.5985   -9.8686  -15.2068 C   0  0  1  0  0  0  0  0  0  0  0  0
   23.8948   -9.5985  -15.5937 O   0  0  0  0  0  0  0  0  0  0  0  0
   21.6092   -9.7822  -16.3276 C   0  0  2  0  0  0  0  0  0  0  0  0
   21.8164  -10.7622  -17.3642 N   0  0  0  0  0  0  0  0  0  0  0  0
   21.3905   -8.4038  -16.8384 C   0  0  0  0  0  0  0  0  0  0  0  0
   21.9630   -7.9455  -17.8561 O   0  0  0  0  0  0  0  0  0  0  0  0
   18.9224   -6.8996  -18.6080 C   0  0  0  0  0  0  0  0  0  0  0  0
   18.9845   -6.0428  -17.3860 C   0  0  1  0  0  0  0  0  0  0  0  0
   17.8810   -6.3815  -16.4299 C   0  0  0  0  0  0  0  0  0  0  0  0
   20.3130   -6.1433  -16.6586 C   0  0  2  0  0  0  0  0  0  0  0  0
   20.4982   -7.5140  -16.1819 N   0  0  0  0  0  0  0  0  0  0  0  0
   20.3984   -5.2391  -15.5001 C   0  0  0  0  0  0  0  0  0  0  0  0
   20.4451   -3.9872  -15.6213 O   0  0  0  0  0  0  0  0  0  0  0  0
   20.4327   -5.7261  -14.1908 O   0  0  0  0  0  0  0  0  0  0  0  0
  2  1  1  1
  3  2  1  0
  3  4  1  0
  4  5  2  0
  5  6  1  0
  7  6  1  0
  8  4  1  0
  8  7  2  0
  9 10  2  0
  9  2  1  0
 12 11  1  6
 12 14  1  0
 13 12  1  0
 14 16  1  0
 14 15  1  6
 15  9  1  0
 16 22  1  0
 17 16  2  0
 19 20  1  1
 19 18  1  0
 21 19  1  0
 21 22  1  1
 23 25  1  0
 23 21  1  0
 24 23  2  0
M  END
$$$$
