HTV.pdb
     RDKit          3D

 25 25  0  0  1  0  0  0  0  0999 V2000
   23.2480  -25.0304  -15.9264 N   0  0  0  0  0  0  0  0  0  0  0  0
   21.8912  -25.4832  -15.7553 C   0  0  1  0  0  0  0  0  0  0  0  0
   21.8670  -27.0015  -15.7910 C   0  0  0  0  0  0  0  0  0  0  0  0
   22.2406  -27.4964  -17.1400 C   0  0  0  0  0  0  0  0  0  0  0  0
   23.4856  -27.9349  -17.5494 C   0  0  0  0  0  0  0  0  0  0  0  0
   23.4349  -28.3028  -18.8352 N   0  0  0  0  0  0  0  0  0  0  0  0
   22.1674  -28.0996  -19.2396 C   0  0  0  0  0  0  0  0  0  0  0  0
   21.4508  -27.6161  -18.2237 N   0  0  0  0  0  0  0  0  0  0  0  0
   21.3647  -24.9742  -14.4554 C   0  0  0  0  0  0  0  0  0  0  0  0
   22.1037  -24.8855  -13.4493 O   0  0  0  0  0  0  0  0  0  0  0  0
   20.1749  -21.7081  -13.7172 C   0  0  0  0  0  0  0  0  0  0  0  0
   19.0293  -22.6070  -13.2610 C   0  0  1  0  0  0  0  0  0  0  0  0
   17.9951  -22.4548  -14.1612 O   0  0  0  0  0  0  0  0  0  0  0  0
   19.5052  -24.0207  -13.1298 C   0  0  2  0  0  0  0  0  0  0  0  0
   20.0030  -24.5843  -14.3596 N   0  0  0  0  0  0  0  0  0  0  0  0
   18.5672  -24.9106  -12.3970 C   0  0  0  0  0  0  0  0  0  0  0  0
   17.9142  -25.8292  -12.9477 O   0  0  0  0  0  0  0  0  0  0  0  0
   19.1065  -26.0457   -8.4814 C   0  0  0  0  0  0  0  0  0  0  0  0
   17.7256  -25.5725   -8.7980 C   0  0  1  0  0  0  0  0  0  0  0  0
   17.5009  -24.1793   -8.2930 C   0  0  0  0  0  0  0  0  0  0  0  0
   17.4107  -25.6138  -10.2824 C   0  0  2  0  0  0  0  0  0  0  0  0
   18.3588  -24.7609  -10.9994 N   0  0  0  0  0  0  0  0  0  0  0  0
   16.0493  -25.1456  -10.5896 C   0  0  0  0  0  0  0  0  0  0  0  0
   15.7953  -23.9472  -10.8787 O   0  0  0  0  0  0  0  0  0  0  0  0
   14.9549  -26.0143  -10.5768 O   0  0  0  0  0  0  0  0  0  0  0  0
  2  1  1  1
  3  2  1  0
  3  4  1  0
  4  5  2  0
  5  6  1  0
  7  6  1  0
  8  4  1  0
  8  7  2  0
  9 10  2  0
  9  2  1  0
 12 11  1  6
 12 14  1  0
 13 12  1  0
 14 16  1  0
 14 15  1  6
 15  9  1  0
 16 22  1  0
 17 16  2  0
 19 20  1  6
 19 18  1  0
 21 19  1  0
 21 22  1  6
 23 25  1  0
 23 21  1  0
 24 23  2  0
M  END
$$$$
