HEV.pdb
     RDKit          3D

 27 27  0  0  1  0  0  0  0  0999 V2000
    6.3930  -16.0923   19.8295 N   0  0  0  0  0  0  0  0  0  0  0  0
    7.5308  -15.5683   20.5575 C   0  0  1  0  0  0  0  0  0  0  0  0
    7.6202  -14.0948   20.2377 C   0  0  0  0  0  0  0  0  0  0  0  0
    8.0614  -13.9780   18.8213 C   0  0  0  0  0  0  0  0  0  0  0  0
    7.3281  -13.3724   17.8285 C   0  0  0  0  0  0  0  0  0  0  0  0
    8.0083  -13.4333   16.6528 N   0  0  0  0  0  0  0  0  0  0  0  0
    9.1593  -14.0784   16.9325 C   0  0  0  0  0  0  0  0  0  0  0  0
    9.1910  -14.4060   18.2369 N   0  0  0  0  0  0  0  0  0  0  0  0
    7.3979  -15.8230   22.0087 C   0  0  0  0  0  0  0  0  0  0  0  0
    6.2652  -15.6516   22.5111 O   0  0  0  0  0  0  0  0  0  0  0  0
    8.4383  -16.2360   22.8412 N   0  0  0  0  0  0  0  0  0  0  0  0
    8.3635  -16.5318   24.2428 C   0  0  1  0  0  0  0  0  0  0  0  0
    9.0863  -17.7481   24.6868 C   0  0  0  0  0  0  0  0  0  0  0  0
    9.0142  -18.0795   26.1347 C   0  0  0  0  0  0  0  0  0  0  0  0
    9.8159  -19.1844   26.6067 C   0  0  0  0  0  0  0  0  0  0  0  0
    9.2601  -20.0346   27.3556 O   0  0  0  0  0  0  0  0  0  0  0  0
    8.9540  -15.3540   24.9483 C   0  0  0  0  0  0  0  0  0  0  0  0
   10.0983  -14.9182   24.7377 O   0  0  0  0  0  0  0  0  0  0  0  0
   11.1447  -19.4486   26.3456 O   0  0  0  0  0  0  0  0  0  0  0  0
    7.3474  -12.0042   25.3817 C   0  0  0  0  0  0  0  0  0  0  0  0
    7.6104  -12.5373   26.7726 C   0  0  1  0  0  0  0  0  0  0  0  0
    6.2991  -13.0426   27.3255 C   0  0  0  0  0  0  0  0  0  0  0  0
    8.6599  -13.6368   26.7350 C   0  0  2  0  0  0  0  0  0  0  0  0
    8.1447  -14.7024   25.9171 N   0  0  0  0  0  0  0  0  0  0  0  0
    9.0069  -14.0966   28.1026 C   0  0  0  0  0  0  0  0  0  0  0  0
    9.6963  -13.2611   28.9693 O   0  0  0  0  0  0  0  0  0  0  0  0
    8.6896  -15.2359   28.5026 O   0  0  0  0  0  0  0  0  0  0  0  0
  2  3  1  0
  2  1  1  6
  4  3  1  0
  4  8  1  0
  5  6  1  0
  5  4  2  0
  6  7  1  0
  7  8  2  0
  9 11  1  0
  9  2  1  0
 10  9  2  0
 12 11  1  0
 12 13  1  6
 13 14  1  0
 14 15  1  0
 15 19  1  0
 16 15  2  0
 17 12  1  0
 18 17  2  0
 21 22  1  6
 21 20  1  0
 23 24  1  6
 23 21  1  0
 24 17  1  0
 25 23  1  0
 26 25  1  0
 27 25  2  0
M  END
$$$$
