HEV.pdb
     RDKit          3D

 27 27  0  0  1  0  0  0  0  0999 V2000
    6.6570  -16.4024   19.9162 N   0  0  0  0  0  0  0  0  0  0  0  0
    7.5418  -15.6320   20.7662 C   0  0  1  0  0  0  0  0  0  0  0  0
    7.3459  -14.1781   20.4066 C   0  0  0  0  0  0  0  0  0  0  0  0
    7.9287  -13.9777   19.0520 C   0  0  0  0  0  0  0  0  0  0  0  0
    7.3027  -13.3023   18.0311 C   0  0  0  0  0  0  0  0  0  0  0  0
    8.0980  -13.2972   16.9283 N   0  0  0  0  0  0  0  0  0  0  0  0
    9.2114  -13.9720   17.2807 C   0  0  0  0  0  0  0  0  0  0  0  0
    9.1093  -14.3812   18.5581 N   0  0  0  0  0  0  0  0  0  0  0  0
    7.2735  -15.8998   22.1962 C   0  0  0  0  0  0  0  0  0  0  0  0
    6.1072  -15.6964   22.6001 O   0  0  0  0  0  0  0  0  0  0  0  0
    8.2226  -16.3578   23.1103 N   0  0  0  0  0  0  0  0  0  0  0  0
    8.0307  -16.6072   24.5098 C   0  0  1  0  0  0  0  0  0  0  0  0
    8.5350  -17.9087   25.0102 C   0  0  0  0  0  0  0  0  0  0  0  0
    7.8593  -19.1307   24.4988 C   0  0  0  0  0  0  0  0  0  0  0  0
    6.9574  -19.8180   25.3935 C   0  0  0  0  0  0  0  0  0  0  0  0
    5.8638  -20.2327   24.9195 O   0  0  0  0  0  0  0  0  0  0  0  0
    8.7568  -15.5171   25.2295 C   0  0  0  0  0  0  0  0  0  0  0  0
    9.9114  -15.1501   24.9545 O   0  0  0  0  0  0  0  0  0  0  0  0
    7.1293  -20.0931   26.7346 O   0  0  0  0  0  0  0  0  0  0  0  0
    7.4069  -12.1725   25.8219 C   0  0  0  0  0  0  0  0  0  0  0  0
    7.7675  -12.6810   27.2001 C   0  0  1  0  0  0  0  0  0  0  0  0
    6.4832  -13.0522   27.9023 C   0  0  0  0  0  0  0  0  0  0  0  0
    8.7123  -13.8683   27.1023 C   0  0  2  0  0  0  0  0  0  0  0  0
    8.0711  -14.8692   26.2918 N   0  0  0  0  0  0  0  0  0  0  0  0
    9.0725  -14.3815   28.4473 C   0  0  0  0  0  0  0  0  0  0  0  0
    9.8712  -13.6275   29.2947 O   0  0  0  0  0  0  0  0  0  0  0  0
    8.6693  -15.4941   28.8450 O   0  0  0  0  0  0  0  0  0  0  0  0
  2  3  1  0
  2  1  1  6
  4  3  1  0
  4  8  1  0
  5  6  1  0
  5  4  2  0
  6  7  1  0
  7  8  2  0
  9 11  1  0
  9  2  1  0
 10  9  2  0
 12 11  1  0
 12 13  1  1
 13 14  1  0
 14 15  1  0
 15 19  1  0
 16 15  2  0
 17 12  1  0
 18 17  2  0
 21 22  1  6
 21 20  1  0
 23 24  1  6
 23 21  1  0
 24 17  1  0
 25 23  1  0
 26 25  1  0
 27 25  2  0
M  END
$$$$
