HEV.pdb
     RDKit          3D

 27 27  0  0  1  0  0  0  0  0999 V2000
    8.4250  -16.6141   19.3933 N   0  0  0  0  0  0  0  0  0  0  0  0
    8.3430  -15.4493   20.2510 C   0  0  1  0  0  0  0  0  0  0  0  0
    7.2208  -14.5880   19.7215 C   0  0  0  0  0  0  0  0  0  0  0  0
    7.5827  -14.1999   18.3312 C   0  0  0  0  0  0  0  0  0  0  0  0
    8.5225  -13.2487   18.0117 C   0  0  0  0  0  0  0  0  0  0  0  0
    8.6161  -13.1311   16.6604 N   0  0  0  0  0  0  0  0  0  0  0  0
    7.7297  -14.0143   16.1570 C   0  0  0  0  0  0  0  0  0  0  0  0
    7.1082  -14.6571   17.1622 N   0  0  0  0  0  0  0  0  0  0  0  0
    8.1352  -15.8407   21.6625 C   0  0  0  0  0  0  0  0  0  0  0  0
    6.9719  -15.7407   22.1112 O   0  0  0  0  0  0  0  0  0  0  0  0
    9.1376  -16.3071   22.5133 N   0  0  0  0  0  0  0  0  0  0  0  0
    9.0021  -16.6811   23.8915 C   0  0  1  0  0  0  0  0  0  0  0  0
    9.9430  -17.7201   24.3754 C   0  0  0  0  0  0  0  0  0  0  0  0
    9.8792  -18.0608   25.8215 C   0  0  0  0  0  0  0  0  0  0  0  0
   10.8037  -19.0555   26.3137 C   0  0  0  0  0  0  0  0  0  0  0  0
   11.8189  -18.6513   26.9450 O   0  0  0  0  0  0  0  0  0  0  0  0
    9.2334  -15.4357   24.6847 C   0  0  0  0  0  0  0  0  0  0  0  0
   10.1949  -14.6683   24.5111 O   0  0  0  0  0  0  0  0  0  0  0  0
   10.7301  -20.4274   26.1865 O   0  0  0  0  0  0  0  0  0  0  0  0
    7.0648  -12.0985   27.5182 C   0  0  0  0  0  0  0  0  0  0  0  0
    7.0176  -13.3445   26.6618 C   0  0  1  0  0  0  0  0  0  0  0  0
    6.4221  -12.9617   25.3279 C   0  0  0  0  0  0  0  0  0  0  0  0
    8.4086  -13.9370   26.5015 C   0  0  2  0  0  0  0  0  0  0  0  0
    8.2865  -15.1230   25.6965 N   0  0  0  0  0  0  0  0  0  0  0  0
    9.0302  -14.2151   27.8201 C   0  0  0  0  0  0  0  0  0  0  0  0
    9.5396  -13.1780   28.5879 O   0  0  0  0  0  0  0  0  0  0  0  0
    9.1091  -15.3786   28.2660 O   0  0  0  0  0  0  0  0  0  0  0  0
  2  3  1  0
  2  1  1  6
  4  3  1  0
  4  8  1  0
  5  6  1  0
  5  4  2  0
  6  7  1  0
  7  8  2  0
  9 11  1  0
  9  2  1  0
 10  9  2  0
 12 11  1  0
 12 13  1  1
 13 14  1  0
 14 15  1  0
 15 19  1  0
 16 15  2  0
 17 12  1  0
 18 17  2  0
 21 22  1  6
 21 20  1  0
 23 24  1  6
 23 21  1  0
 24 17  1  0
 25 23  1  0
 26 25  1  0
 27 25  2  0
M  END
$$$$
