HEV.pdb
     RDKit          3D

 27 27  0  0  1  0  0  0  0  0999 V2000
    9.4826  -15.4978   19.6674 N   0  0  0  0  0  0  0  0  0  0  0  0
    8.3633  -14.8053   20.2730 C   0  0  1  0  0  0  0  0  0  0  0  0
    7.1671  -15.0307   19.3787 C   0  0  0  0  0  0  0  0  0  0  0  0
    7.5516  -14.5899   18.0103 C   0  0  0  0  0  0  0  0  0  0  0  0
    8.1529  -13.3871   17.7239 C   0  0  0  0  0  0  0  0  0  0  0  0
    8.3721  -13.2904   16.3855 N   0  0  0  0  0  0  0  0  0  0  0  0
    7.9022  -14.4388   15.8569 C   0  0  0  0  0  0  0  0  0  0  0  0
    7.4088  -15.2203   16.8344 N   0  0  0  0  0  0  0  0  0  0  0  0
    8.1300  -15.2769   21.6556 C   0  0  0  0  0  0  0  0  0  0  0  0
    7.1011  -14.8570   22.2299 O   0  0  0  0  0  0  0  0  0  0  0  0
    8.9706  -16.1467   22.3507 N   0  0  0  0  0  0  0  0  0  0  0  0
    8.8456  -16.5691   23.7158 C   0  0  1  0  0  0  0  0  0  0  0  0
    9.7572  -17.6583   24.1421 C   0  0  0  0  0  0  0  0  0  0  0  0
    9.6459  -18.1112   25.5541 C   0  0  0  0  0  0  0  0  0  0  0  0
   10.5469  -19.1510   25.9939 C   0  0  0  0  0  0  0  0  0  0  0  0
   10.0853  -20.0423   26.7589 O   0  0  0  0  0  0  0  0  0  0  0  0
    9.1346  -15.3644   24.5518 C   0  0  0  0  0  0  0  0  0  0  0  0
   10.1430  -14.6508   24.4195 O   0  0  0  0  0  0  0  0  0  0  0  0
   11.8821  -19.3112   25.6854 O   0  0  0  0  0  0  0  0  0  0  0  0
    7.1588  -12.0134   27.5072 C   0  0  0  0  0  0  0  0  0  0  0  0
    7.0616  -13.1520   26.5162 C   0  0  1  0  0  0  0  0  0  0  0  0
    6.6640  -12.5660   25.1823 C   0  0  0  0  0  0  0  0  0  0  0  0
    8.3837  -13.8973   26.4256 C   0  0  2  0  0  0  0  0  0  0  0  0
    8.1881  -15.0265   25.5559 N   0  0  0  0  0  0  0  0  0  0  0  0
    8.8671  -14.3009   27.7693 C   0  0  0  0  0  0  0  0  0  0  0  0
    9.4600  -13.3701   28.6099 O   0  0  0  0  0  0  0  0  0  0  0  0
    8.7529  -15.4771   28.1721 O   0  0  0  0  0  0  0  0  0  0  0  0
  2  3  1  0
  2  1  1  6
  4  3  1  0
  4  8  1  0
  5  6  1  0
  5  4  2  0
  6  7  1  0
  7  8  2  0
  9 11  1  0
  9  2  1  0
 10  9  2  0
 12 11  1  0
 12 13  1  1
 13 14  1  0
 14 15  1  0
 15 19  1  0
 16 15  2  0
 17 12  1  0
 18 17  2  0
 21 22  1  6
 21 20  1  0
 23 24  1  6
 23 21  1  0
 24 17  1  0
 25 23  1  0
 26 25  1  0
 27 25  2  0
M  END
$$$$
