HEV.pdb
     RDKit          3D

 27 27  0  0  1  0  0  0  0  0999 V2000
    9.4357  -15.2934   19.8828 N   0  0  0  0  0  0  0  0  0  0  0  0
    8.3293  -14.6155   20.5273 C   0  0  1  0  0  0  0  0  0  0  0  0
    7.1032  -14.8671   19.6819 C   0  0  0  0  0  0  0  0  0  0  0  0
    7.4491  -14.4941   18.2834 C   0  0  0  0  0  0  0  0  0  0  0  0
    7.9848  -13.2830   17.9141 C   0  0  0  0  0  0  0  0  0  0  0  0
    8.1836  -13.2596   16.5693 N   0  0  0  0  0  0  0  0  0  0  0  0
    7.7670  -14.4610   16.1199 C   0  0  0  0  0  0  0  0  0  0  0  0
    7.3252  -15.2035   17.1510 N   0  0  0  0  0  0  0  0  0  0  0  0
    8.1582  -15.0814   21.9210 C   0  0  0  0  0  0  0  0  0  0  0  0
    7.1745  -14.6326   22.5500 O   0  0  0  0  0  0  0  0  0  0  0  0
    9.0099  -15.9756   22.5699 N   0  0  0  0  0  0  0  0  0  0  0  0
    8.9073  -16.4478   23.9205 C   0  0  1  0  0  0  0  0  0  0  0  0
    9.7249  -17.6393   24.2531 C   0  0  0  0  0  0  0  0  0  0  0  0
    9.6663  -18.1211   25.6588 C   0  0  0  0  0  0  0  0  0  0  0  0
   10.4316  -19.2999   25.9922 C   0  0  0  0  0  0  0  0  0  0  0  0
   10.5503  -19.5963   27.2131 O   0  0  0  0  0  0  0  0  0  0  0  0
    9.3531  -15.3177   24.7909 C   0  0  0  0  0  0  0  0  0  0  0  0
   10.4705  -14.7798   24.7155 O   0  0  0  0  0  0  0  0  0  0  0  0
   11.0705  -20.1739   25.1368 O   0  0  0  0  0  0  0  0  0  0  0  0
    8.1778  -12.0078   25.2430 C   0  0  0  0  0  0  0  0  0  0  0  0
    7.9362  -12.6546   26.5888 C   0  0  1  0  0  0  0  0  0  0  0  0
    6.4711  -13.0121   26.6692 C   0  0  0  0  0  0  0  0  0  0  0  0
    8.8191  -13.8805   26.7599 C   0  0  2  0  0  0  0  0  0  0  0  0
    8.4310  -14.8393   25.7599 N   0  0  0  0  0  0  0  0  0  0  0  0
    8.7161  -14.4303   28.1344 C   0  0  0  0  0  0  0  0  0  0  0  0
    9.2381  -13.7284   29.2112 O   0  0  0  0  0  0  0  0  0  0  0  0
    8.1624  -15.5276   28.3530 O   0  0  0  0  0  0  0  0  0  0  0  0
  2  3  1  0
  2  1  1  6
  4  3  1  0
  4  8  1  0
  5  6  1  0
  5  4  2  0
  6  7  1  0
  7  8  2  0
  9 11  1  0
  9  2  1  0
 10  9  2  0
 12 11  1  0
 12 13  1  6
 13 14  1  0
 14 15  1  0
 15 19  1  0
 16 15  2  0
 17 12  1  0
 18 17  2  0
 21 22  1  6
 21 20  1  0
 23 24  1  6
 23 21  1  0
 24 17  1  0
 25 23  1  0
 26 25  1  0
 27 25  2  0
M  END
$$$$
