HEV.pdb
     RDKit          3D

 27 27  0  0  1  0  0  0  0  0999 V2000
    8.5361  -17.0701   19.3805 N   0  0  0  0  0  0  0  0  0  0  0  0
    8.2659  -15.8963   20.1857 C   0  0  1  0  0  0  0  0  0  0  0  0
    7.0068  -15.2654   19.6398 C   0  0  0  0  0  0  0  0  0  0  0  0
    7.4176  -14.3242   18.5629 C   0  0  0  0  0  0  0  0  0  0  0  0
    8.7154  -14.1400   18.1479 C   0  0  0  0  0  0  0  0  0  0  0  0
    8.7522  -13.2155   17.1517 N   0  0  0  0  0  0  0  0  0  0  0  0
    7.4720  -12.8365   16.9608 C   0  0  0  0  0  0  0  0  0  0  0  0
    6.6694  -13.5035   17.8097 N   0  0  0  0  0  0  0  0  0  0  0  0
    8.1447  -16.2487   21.6173 C   0  0  0  0  0  0  0  0  0  0  0  0
    7.0256  -16.6485   22.0081 O   0  0  0  0  0  0  0  0  0  0  0  0
    9.1819  -16.1655   22.5465 N   0  0  0  0  0  0  0  0  0  0  0  0
    9.1394  -16.5383   23.9310 C   0  0  1  0  0  0  0  0  0  0  0  0
   10.0829  -17.6054   24.3430 C   0  0  0  0  0  0  0  0  0  0  0  0
   10.0482  -18.0156   25.7719 C   0  0  0  0  0  0  0  0  0  0  0  0
   10.9922  -19.0216   26.2001 C   0  0  0  0  0  0  0  0  0  0  0  0
   11.7940  -18.7174   27.1260 O   0  0  0  0  0  0  0  0  0  0  0  0
    9.4661  -15.3019   24.7045 C   0  0  0  0  0  0  0  0  0  0  0  0
   10.4620  -14.5904   24.4916 O   0  0  0  0  0  0  0  0  0  0  0  0
   11.1448  -20.3076   25.7242 O   0  0  0  0  0  0  0  0  0  0  0  0
    7.6810  -12.3254   25.0152 C   0  0  0  0  0  0  0  0  0  0  0  0
    7.7469  -12.8021   26.4492 C   0  0  1  0  0  0  0  0  0  0  0  0
    6.3984  -13.3834   26.8015 C   0  0  0  0  0  0  0  0  0  0  0  0
    8.8575  -13.8260   26.6225 C   0  0  2  0  0  0  0  0  0  0  0  0
    8.5729  -14.9296   25.7446 N   0  0  0  0  0  0  0  0  0  0  0  0
    8.9801  -14.2525   28.0386 C   0  0  0  0  0  0  0  0  0  0  0  0
    9.3946  -13.3516   29.0087 O   0  0  0  0  0  0  0  0  0  0  0  0
    8.7155  -15.4215   28.3879 O   0  0  0  0  0  0  0  0  0  0  0  0
  2  3  1  0
  2  1  1  6
  4  3  1  0
  4  8  1  0
  5  6  1  0
  5  4  2  0
  6  7  1  0
  7  8  2  0
  9 11  1  0
  9  2  1  0
 10  9  2  0
 12 11  1  0
 12 13  1  6
 13 14  1  0
 14 15  1  0
 15 19  1  0
 16 15  2  0
 17 12  1  0
 18 17  2  0
 21 22  1  6
 21 20  1  0
 23 24  1  6
 23 21  1  0
 24 17  1  0
 25 23  1  0
 26 25  1  0
 27 25  2  0
M  END
$$$$
