HEV.pdb
     RDKit          3D

 27 27  0  0  1  0  0  0  0  0999 V2000
    8.1108  -16.6351   19.4200 N   0  0  0  0  0  0  0  0  0  0  0  0
    8.2438  -15.5450   20.3650 C   0  0  1  0  0  0  0  0  0  0  0  0
    7.1161  -14.5790   20.0879 C   0  0  0  0  0  0  0  0  0  0  0  0
    7.3634  -13.9878   18.7448 C   0  0  0  0  0  0  0  0  0  0  0  0
    8.0714  -12.8297   18.5261 C   0  0  0  0  0  0  0  0  0  0  0  0
    8.1156  -12.5631   17.1936 N   0  0  0  0  0  0  0  0  0  0  0  0
    7.4318  -13.5630   16.6005 C   0  0  0  0  0  0  0  0  0  0  0  0
    6.9795  -14.4199   17.5337 N   0  0  0  0  0  0  0  0  0  0  0  0
    8.2298  -16.0428   21.7580 C   0  0  0  0  0  0  0  0  0  0  0  0
    7.1565  -16.5343   22.1718 O   0  0  0  0  0  0  0  0  0  0  0  0
    9.3198  -16.0005   22.6277 N   0  0  0  0  0  0  0  0  0  0  0  0
    9.3563  -16.4304   23.9957 C   0  0  1  0  0  0  0  0  0  0  0  0
   10.3837  -17.4469   24.3273 C   0  0  0  0  0  0  0  0  0  0  0  0
   10.4742  -17.8688   25.7504 C   0  0  0  0  0  0  0  0  0  0  0  0
   10.9467  -19.2067   26.0207 C   0  0  0  0  0  0  0  0  0  0  0  0
   10.9944  -19.5798   27.2253 O   0  0  0  0  0  0  0  0  0  0  0  0
    9.6306  -15.2067   24.8086 C   0  0  0  0  0  0  0  0  0  0  0  0
   10.6231  -14.4756   24.6531 O   0  0  0  0  0  0  0  0  0  0  0  0
   11.3660  -20.1630   25.1188 O   0  0  0  0  0  0  0  0  0  0  0  0
    7.4250  -12.3325   25.4473 C   0  0  0  0  0  0  0  0  0  0  0  0
    7.7018  -12.9340   26.8073 C   0  0  1  0  0  0  0  0  0  0  0  0
    6.4796  -13.7200   27.2183 C   0  0  0  0  0  0  0  0  0  0  0  0
    8.9407  -13.8142   26.7612 C   0  0  2  0  0  0  0  0  0  0  0  0
    8.6890  -14.8710   25.8181 N   0  0  0  0  0  0  0  0  0  0  0  0
    9.2820  -14.3339   28.1087 C   0  0  0  0  0  0  0  0  0  0  0  0
    9.7559  -13.4770   29.0913 O   0  0  0  0  0  0  0  0  0  0  0  0
    9.1519  -15.5438   28.3879 O   0  0  0  0  0  0  0  0  0  0  0  0
  2  3  1  0
  2  1  1  6
  4  3  1  0
  4  8  1  0
  5  6  1  0
  5  4  2  0
  6  7  1  0
  7  8  2  0
  9 11  1  0
  9  2  1  0
 10  9  2  0
 12 11  1  0
 12 13  1  6
 13 14  1  0
 14 15  1  0
 15 19  1  0
 16 15  2  0
 17 12  1  0
 18 17  2  0
 21 22  1  6
 21 20  1  0
 23 24  1  6
 23 21  1  0
 24 17  1  0
 25 23  1  0
 26 25  1  0
 27 25  2  0
M  END
$$$$
