HEV.pdb
     RDKit          3D

 27 27  0  0  1  0  0  0  0  0999 V2000
    6.9452  -16.3130   20.3508 N   0  0  0  0  0  0  0  0  0  0  0  0
    7.4334  -15.3100   21.2753 C   0  0  1  0  0  0  0  0  0  0  0  0
    6.7452  -14.0121   20.9242 C   0  0  0  0  0  0  0  0  0  0  0  0
    7.2032  -13.6259   19.5620 C   0  0  0  0  0  0  0  0  0  0  0  0
    8.0976  -12.6144   19.3027 C   0  0  0  0  0  0  0  0  0  0  0  0
    8.3049  -12.5170   17.9625 N   0  0  0  0  0  0  0  0  0  0  0  0
    7.5336  -13.4729   17.4055 C   0  0  0  0  0  0  0  0  0  0  0  0
    6.8710  -14.1398   18.3677 N   0  0  0  0  0  0  0  0  0  0  0  0
    7.1912  -15.7149   22.6774 C   0  0  0  0  0  0  0  0  0  0  0  0
    6.1136  -15.3456   23.1942 O   0  0  0  0  0  0  0  0  0  0  0  0
    8.0735  -16.4708   23.4496 N   0  0  0  0  0  0  0  0  0  0  0  0
    7.8552  -16.9740   24.7751 C   0  0  1  0  0  0  0  0  0  0  0  0
    7.7882  -18.4497   24.9041 C   0  0  0  0  0  0  0  0  0  0  0  0
    7.5793  -18.9940   26.2720 C   0  0  0  0  0  0  0  0  0  0  0  0
    7.6002  -20.4298   26.4289 C   0  0  0  0  0  0  0  0  0  0  0  0
    8.7209  -20.9852   26.5970 O   0  0  0  0  0  0  0  0  0  0  0  0
    9.0019  -16.4848   25.5994 C   0  0  0  0  0  0  0  0  0  0  0  0
   10.1659  -16.3772   25.1786 O   0  0  0  0  0  0  0  0  0  0  0  0
    6.5343  -21.3057   26.4204 O   0  0  0  0  0  0  0  0  0  0  0  0
   10.1420  -13.9352   29.6237 C   0  0  0  0  0  0  0  0  0  0  0  0
    9.1212  -14.5237   28.6752 C   0  0  1  0  0  0  0  0  0  0  0  0
    8.5681  -13.3944   27.8390 C   0  0  0  0  0  0  0  0  0  0  0  0
    9.7542  -15.6006   27.8084 C   0  0  2  0  0  0  0  0  0  0  0  0
    8.7284  -16.1238   26.9459 N   0  0  0  0  0  0  0  0  0  0  0  0
   10.3833  -16.6582   28.6379 C   0  0  0  0  0  0  0  0  0  0  0  0
   11.6047  -16.4311   29.2554 O   0  0  0  0  0  0  0  0  0  0  0  0
    9.8337  -17.7676   28.7985 O   0  0  0  0  0  0  0  0  0  0  0  0
  2  3  1  0
  2  1  1  6
  4  3  1  0
  4  8  1  0
  5  6  1  0
  5  4  2  0
  6  7  1  0
  7  8  2  0
  9 11  1  0
  9  2  1  0
 10  9  2  0
 12 11  1  0
 12 13  1  6
 13 14  1  0
 14 15  1  0
 15 19  1  0
 16 15  2  0
 17 12  1  0
 18 17  2  0
 21 22  1  6
 21 20  1  0
 23 24  1  1
 23 21  1  0
 24 17  1  0
 25 23  1  0
 26 25  1  0
 27 25  2  0
M  END
$$$$
