HEV.pdb
     RDKit          3D

 27 27  0  0  1  0  0  0  0  0999 V2000
    7.8731  -16.6599   19.5970 N   0  0  0  0  0  0  0  0  0  0  0  0
    8.1345  -15.5297   20.4650 C   0  0  1  0  0  0  0  0  0  0  0  0
    7.2055  -14.4184   20.0364 C   0  0  0  0  0  0  0  0  0  0  0  0
    7.6347  -13.9853   18.6790 C   0  0  0  0  0  0  0  0  0  0  0  0
    8.3548  -12.8427   18.4215 C   0  0  0  0  0  0  0  0  0  0  0  0
    8.5847  -12.7359   17.0857 N   0  0  0  0  0  0  0  0  0  0  0  0
    8.0021  -13.8177   16.5296 C   0  0  0  0  0  0  0  0  0  0  0  0
    7.4308  -14.5691   17.4880 N   0  0  0  0  0  0  0  0  0  0  0  0
    7.9552  -15.8972   21.8867 C   0  0  0  0  0  0  0  0  0  0  0  0
    6.7803  -16.0575   22.2851 O   0  0  0  0  0  0  0  0  0  0  0  0
    8.9959  -16.0741   22.7988 N   0  0  0  0  0  0  0  0  0  0  0  0
    8.8852  -16.4265   24.1848 C   0  0  1  0  0  0  0  0  0  0  0  0
    9.7616  -17.5311   24.6436 C   0  0  0  0  0  0  0  0  0  0  0  0
    9.7413  -17.8431   26.0974 C   0  0  0  0  0  0  0  0  0  0  0  0
   10.5812  -18.9236   26.5595 C   0  0  0  0  0  0  0  0  0  0  0  0
   10.2456  -19.5136   27.6233 O   0  0  0  0  0  0  0  0  0  0  0  0
    9.2414  -15.1968   24.9560 C   0  0  0  0  0  0  0  0  0  0  0  0
   10.3249  -14.5982   24.8502 O   0  0  0  0  0  0  0  0  0  0  0  0
   11.7340  -19.4160   25.9831 O   0  0  0  0  0  0  0  0  0  0  0  0
    7.1415  -12.1088   25.4083 C   0  0  0  0  0  0  0  0  0  0  0  0
    7.3864  -12.6764   26.7888 C   0  0  1  0  0  0  0  0  0  0  0  0
    6.1238  -13.3802   27.2258 C   0  0  0  0  0  0  0  0  0  0  0  0
    8.5759  -13.6234   26.7750 C   0  0  2  0  0  0  0  0  0  0  0  0
    8.2704  -14.6926   25.8622 N   0  0  0  0  0  0  0  0  0  0  0  0
    8.8837  -14.1206   28.1389 C   0  0  0  0  0  0  0  0  0  0  0  0
    9.4259  -13.2685   29.0900 O   0  0  0  0  0  0  0  0  0  0  0  0
    8.6642  -15.3068   28.4604 O   0  0  0  0  0  0  0  0  0  0  0  0
  2  3  1  0
  2  1  1  6
  4  3  1  0
  4  8  1  0
  5  6  1  0
  5  4  2  0
  6  7  1  0
  7  8  2  0
  9 11  1  0
  9  2  1  0
 10  9  2  0
 12 11  1  0
 12 13  1  1
 13 14  1  0
 14 15  1  0
 15 19  1  0
 16 15  2  0
 17 12  1  0
 18 17  2  0
 21 22  1  6
 21 20  1  0
 23 24  1  6
 23 21  1  0
 24 17  1  0
 25 23  1  0
 26 25  1  0
 27 25  2  0
M  END
$$$$
