HEV.pdb
     RDKit          3D

 27 27  0  0  1  0  0  0  0  0999 V2000
    7.7551  -16.6501   19.6149 N   0  0  0  0  0  0  0  0  0  0  0  0
    8.0195  -15.4870   20.4374 C   0  0  1  0  0  0  0  0  0  0  0  0
    7.1068  -14.3854   19.9526 C   0  0  0  0  0  0  0  0  0  0  0  0
    7.5250  -14.0464   18.5652 C   0  0  0  0  0  0  0  0  0  0  0  0
    8.4269  -13.0587   18.2471 C   0  0  0  0  0  0  0  0  0  0  0  0
    8.5906  -13.0032   16.8985 N   0  0  0  0  0  0  0  0  0  0  0  0
    7.7850  -13.9609   16.3954 C   0  0  0  0  0  0  0  0  0  0  0  0
    7.1442  -14.5883   17.3981 N   0  0  0  0  0  0  0  0  0  0  0  0
    7.8218  -15.7925   21.8713 C   0  0  0  0  0  0  0  0  0  0  0  0
    6.6405  -15.8570   22.2777 O   0  0  0  0  0  0  0  0  0  0  0  0
    8.8519  -16.0101   22.7865 N   0  0  0  0  0  0  0  0  0  0  0  0
    8.7233  -16.3692   24.1693 C   0  0  1  0  0  0  0  0  0  0  0  0
    9.5415  -17.5219   24.6172 C   0  0  0  0  0  0  0  0  0  0  0  0
    9.5195  -17.8349   26.0708 C   0  0  0  0  0  0  0  0  0  0  0  0
   10.4243  -18.8550   26.5472 C   0  0  0  0  0  0  0  0  0  0  0  0
   11.0183  -19.5608   25.6860 O   0  0  0  0  0  0  0  0  0  0  0  0
    9.1427  -15.1668   24.9516 C   0  0  0  0  0  0  0  0  0  0  0  0
   10.1854  -14.5261   24.7378 O   0  0  0  0  0  0  0  0  0  0  0  0
   10.7399  -19.1756   27.8515 O   0  0  0  0  0  0  0  0  0  0  0  0
    7.2348  -12.0730   25.6247 C   0  0  0  0  0  0  0  0  0  0  0  0
    7.4893  -12.7100   26.9727 C   0  0  1  0  0  0  0  0  0  0  0  0
    6.2197  -13.4093   27.3964 C   0  0  0  0  0  0  0  0  0  0  0  0
    8.6593  -13.6779   26.8951 C   0  0  2  0  0  0  0  0  0  0  0  0
    8.2854  -14.7418   26.0018 N   0  0  0  0  0  0  0  0  0  0  0  0
    9.0325  -14.1800   28.2408 C   0  0  0  0  0  0  0  0  0  0  0  0
    9.5858  -13.3225   29.1805 O   0  0  0  0  0  0  0  0  0  0  0  0
    8.8592  -15.3754   28.5568 O   0  0  0  0  0  0  0  0  0  0  0  0
  2  3  1  0
  2  1  1  6
  4  3  1  0
  4  8  1  0
  5  6  1  0
  5  4  2  0
  6  7  1  0
  7  8  2  0
  9 11  1  0
  9  2  1  0
 10  9  2  0
 12 11  1  0
 12 13  1  1
 13 14  1  0
 14 15  1  0
 15 19  1  0
 16 15  2  0
 17 12  1  0
 18 17  2  0
 21 22  1  6
 21 20  1  0
 23 24  1  6
 23 21  1  0
 24 17  1  0
 25 23  1  0
 26 25  1  0
 27 25  2  0
M  END
$$$$
