HEV.pdb
     RDKit          3D

 27 27  0  0  1  0  0  0  0  0999 V2000
    8.0549  -16.7520   19.1034 N   0  0  0  0  0  0  0  0  0  0  0  0
    8.2422  -15.6076   19.9719 C   0  0  1  0  0  0  0  0  0  0  0  0
    7.2275  -14.5678   19.5587 C   0  0  0  0  0  0  0  0  0  0  0  0
    7.5984  -14.1098   18.1923 C   0  0  0  0  0  0  0  0  0  0  0  0
    8.3231  -12.9722   17.9262 C   0  0  0  0  0  0  0  0  0  0  0  0
    8.4909  -12.8380   16.5836 N   0  0  0  0  0  0  0  0  0  0  0  0
    7.8658  -13.8982   16.0320 C   0  0  0  0  0  0  0  0  0  0  0  0
    7.3290  -14.6631   16.9998 N   0  0  0  0  0  0  0  0  0  0  0  0
    8.1090  -15.9910   21.3945 C   0  0  0  0  0  0  0  0  0  0  0  0
    6.9495  -16.1890   21.8202 O   0  0  0  0  0  0  0  0  0  0  0  0
    9.1766  -16.1439   22.2793 N   0  0  0  0  0  0  0  0  0  0  0  0
    9.1102  -16.5045   23.6661 C   0  0  1  0  0  0  0  0  0  0  0  0
   10.0961  -17.5149   24.1198 C   0  0  0  0  0  0  0  0  0  0  0  0
   10.1211  -17.8207   25.5749 C   0  0  0  0  0  0  0  0  0  0  0  0
   11.1812  -18.6740   26.0589 C   0  0  0  0  0  0  0  0  0  0  0  0
   11.9887  -19.1448   25.2110 O   0  0  0  0  0  0  0  0  0  0  0  0
    9.3452  -15.2446   24.4348 C   0  0  0  0  0  0  0  0  0  0  0  0
   10.2692  -14.4479   24.2000 O   0  0  0  0  0  0  0  0  0  0  0  0
   11.4427  -19.0583   27.3580 O   0  0  0  0  0  0  0  0  0  0  0  0
    6.2313  -13.9258   27.0309 C   0  0  0  0  0  0  0  0  0  0  0  0
    7.2917  -13.0614   26.3855 C   0  0  1  0  0  0  0  0  0  0  0  0
    7.3943  -11.7861   27.1878 C   0  0  0  0  0  0  0  0  0  0  0  0
    8.6221  -13.7955   26.3334 C   0  0  2  0  0  0  0  0  0  0  0  0
    8.4481  -14.9530   25.4971 N   0  0  0  0  0  0  0  0  0  0  0  0
    9.0935  -14.1523   27.6946 C   0  0  0  0  0  0  0  0  0  0  0  0
    9.5748  -13.1714   28.5494 O   0  0  0  0  0  0  0  0  0  0  0  0
    9.0684  -15.3330   28.0996 O   0  0  0  0  0  0  0  0  0  0  0  0
  2  3  1  0
  2  1  1  6
  4  3  1  0
  4  8  1  0
  5  6  1  0
  5  4  2  0
  6  7  1  0
  7  8  2  0
  9 11  1  0
  9  2  1  0
 10  9  2  0
 12 11  1  0
 12 13  1  6
 13 14  1  0
 14 15  1  0
 15 19  1  0
 16 15  2  0
 17 12  1  0
 18 17  2  0
 21 22  1  1
 21 20  1  0
 23 24  1  6
 23 21  1  0
 24 17  1  0
 25 23  1  0
 26 25  1  0
 27 25  2  0
M  END
$$$$
