HEV.pdb
     RDKit          3D

 27 27  0  0  1  0  0  0  0  0999 V2000
    9.0586  -15.7921   20.0225 N   0  0  0  0  0  0  0  0  0  0  0  0
    8.0548  -14.8050   20.3647 C   0  0  1  0  0  0  0  0  0  0  0  0
    7.0518  -14.7838   19.2355 C   0  0  0  0  0  0  0  0  0  0  0  0
    7.8016  -14.4783   17.9869 C   0  0  0  0  0  0  0  0  0  0  0  0
    8.4650  -13.2975   17.7504 C   0  0  0  0  0  0  0  0  0  0  0  0
    9.0457  -13.3351   16.5217 N   0  0  0  0  0  0  0  0  0  0  0  0
    8.7340  -14.5434   16.0097 C   0  0  0  0  0  0  0  0  0  0  0  0
    7.9856  -15.2308   16.8912 N   0  0  0  0  0  0  0  0  0  0  0  0
    7.4283  -15.1124   21.6692 C   0  0  0  0  0  0  0  0  0  0  0  0
    6.4416  -14.4182   21.9998 O   0  0  0  0  0  0  0  0  0  0  0  0
    7.8600  -16.1114   22.5420 N   0  0  0  0  0  0  0  0  0  0  0  0
    7.3923  -16.3616   23.8747 C   0  0  1  0  0  0  0  0  0  0  0  0
    7.5380  -17.7551   24.3606 C   0  0  0  0  0  0  0  0  0  0  0  0
    7.1325  -18.0205   25.7664 C   0  0  0  0  0  0  0  0  0  0  0  0
    7.3512  -19.3512   26.2837 C   0  0  0  0  0  0  0  0  0  0  0  0
    7.8958  -20.1953   25.5199 O   0  0  0  0  0  0  0  0  0  0  0  0
    8.1901  -15.4693   24.7696 C   0  0  0  0  0  0  0  0  0  0  0  0
    9.4315  -15.4183   24.7747 O   0  0  0  0  0  0  0  0  0  0  0  0
    7.0386  -19.8438   27.5341 O   0  0  0  0  0  0  0  0  0  0  0  0
    6.7409  -11.9276   25.4638 C   0  0  0  0  0  0  0  0  0  0  0  0
    7.1924  -12.5356   26.7732 C   0  0  1  0  0  0  0  0  0  0  0  0
    5.9585  -12.9809   27.5214 C   0  0  0  0  0  0  0  0  0  0  0  0
    8.1427  -13.6962   26.5250 C   0  0  2  0  0  0  0  0  0  0  0  0
    7.4705  -14.6328   25.6644 N   0  0  0  0  0  0  0  0  0  0  0  0
    8.5773  -14.3181   27.8004 C   0  0  0  0  0  0  0  0  0  0  0  0
    9.4379  -13.6417   28.6527 O   0  0  0  0  0  0  0  0  0  0  0  0
    8.1826  -15.4545   28.1341 O   0  0  0  0  0  0  0  0  0  0  0  0
  2  3  1  0
  2  1  1  6
  4  3  1  0
  4  8  1  0
  5  6  1  0
  5  4  2  0
  6  7  1  0
  7  8  2  0
  9 11  1  0
  9  2  1  0
 10  9  2  0
 12 11  1  0
 12 13  1  1
 13 14  1  0
 14 15  1  0
 15 19  1  0
 16 15  2  0
 17 12  1  0
 18 17  2  0
 21 22  1  6
 21 20  1  0
 23 24  1  6
 23 21  1  0
 24 17  1  0
 25 23  1  0
 26 25  1  0
 27 25  2  0
M  END
$$$$
