HEV.pdb
     RDKit          3D

 27 27  0  0  1  0  0  0  0  0999 V2000
    7.0527  -16.7560   20.3835 N   0  0  0  0  0  0  0  0  0  0  0  0
    8.0623  -15.9587   21.0498 C   0  0  1  0  0  0  0  0  0  0  0  0
    7.5456  -14.5401   21.0975 C   0  0  0  0  0  0  0  0  0  0  0  0
    7.8593  -13.9133   19.7849 C   0  0  0  0  0  0  0  0  0  0  0  0
    8.5330  -14.5442   18.7659 C   0  0  0  0  0  0  0  0  0  0  0  0
    8.6568  -13.7015   17.7062 N   0  0  0  0  0  0  0  0  0  0  0  0
    8.0560  -12.5542   18.0827 C   0  0  0  0  0  0  0  0  0  0  0  0
    7.5764  -12.6818   19.3331 N   0  0  0  0  0  0  0  0  0  0  0  0
    8.3622  -16.4948   22.3956 C   0  0  0  0  0  0  0  0  0  0  0  0
    7.3843  -16.8126   23.1080 O   0  0  0  0  0  0  0  0  0  0  0  0
    9.6457  -16.6666   22.9144 N   0  0  0  0  0  0  0  0  0  0  0  0
    9.9979  -17.1567   24.2157 C   0  0  1  0  0  0  0  0  0  0  0  0
   11.2239  -17.9878   24.2841 C   0  0  0  0  0  0  0  0  0  0  0  0
   11.0315  -19.4583   24.3937 C   0  0  0  0  0  0  0  0  0  0  0  0
   12.2143  -20.2874   24.3966 C   0  0  0  0  0  0  0  0  0  0  0  0
   12.9997  -20.1923   23.4133 O   0  0  0  0  0  0  0  0  0  0  0  0
   10.2035  -15.9497   25.0727 C   0  0  0  0  0  0  0  0  0  0  0  0
   11.1151  -15.1227   24.9032 O   0  0  0  0  0  0  0  0  0  0  0  0
   12.6181  -21.1963   25.3529 O   0  0  0  0  0  0  0  0  0  0  0  0
    8.2701  -12.7594   28.1385 C   0  0  0  0  0  0  0  0  0  0  0  0
    8.1666  -13.8944   27.1439 C   0  0  1  0  0  0  0  0  0  0  0  0
    7.8263  -13.2962   25.7996 C   0  0  0  0  0  0  0  0  0  0  0  0
    9.4672  -14.6801   27.0910 C   0  0  2  0  0  0  0  0  0  0  0  0
    9.2920  -15.7485   26.1436 N   0  0  0  0  0  0  0  0  0  0  0  0
    9.8495  -15.1791   28.4352 C   0  0  0  0  0  0  0  0  0  0  0  0
   10.4280  -14.3242   29.3620 O   0  0  0  0  0  0  0  0  0  0  0  0
    9.6614  -16.3694   28.7616 O   0  0  0  0  0  0  0  0  0  0  0  0
  2  3  1  0
  2  1  1  1
  4  3  1  0
  4  8  1  0
  5  6  1  0
  5  4  2  0
  6  7  1  0
  7  8  2  0
  9 11  1  0
  9  2  1  0
 10  9  2  0
 12 11  1  0
 12 13  1  6
 13 14  1  0
 14 15  1  0
 15 19  1  0
 16 15  2  0
 17 12  1  0
 18 17  2  0
 21 22  1  6
 21 20  1  0
 23 24  1  6
 23 21  1  0
 24 17  1  0
 25 23  1  0
 26 25  1  0
 27 25  2  0
M  END
$$$$
