HEV.pdb
     RDKit          3D

 27 27  0  0  1  0  0  0  0  0999 V2000
    7.9118  -16.6610   19.4911 N   0  0  0  0  0  0  0  0  0  0  0  0
    8.1628  -15.5499   20.3864 C   0  0  1  0  0  0  0  0  0  0  0  0
    7.1765  -14.4629   20.0301 C   0  0  0  0  0  0  0  0  0  0  0  0
    7.5482  -13.9567   18.6810 C   0  0  0  0  0  0  0  0  0  0  0  0
    8.1851  -12.7602   18.4505 C   0  0  0  0  0  0  0  0  0  0  0  0
    8.3802  -12.5935   17.1153 N   0  0  0  0  0  0  0  0  0  0  0  0
    7.8598  -13.6929   16.5325 C   0  0  0  0  0  0  0  0  0  0  0  0
    7.3595  -14.5127   17.4744 N   0  0  0  0  0  0  0  0  0  0  0  0
    8.0521  -15.9699   21.8006 C   0  0  0  0  0  0  0  0  0  0  0  0
    6.9114  -16.2788   22.2108 O   0  0  0  0  0  0  0  0  0  0  0  0
    9.1213  -16.0429   22.6937 N   0  0  0  0  0  0  0  0  0  0  0  0
    9.0787  -16.4529   24.0676 C   0  0  1  0  0  0  0  0  0  0  0  0
    9.9948  -17.5573   24.4419 C   0  0  0  0  0  0  0  0  0  0  0  0
   10.0036  -17.9651   25.8719 C   0  0  0  0  0  0  0  0  0  0  0  0
   10.9202  -19.0113   26.2614 C   0  0  0  0  0  0  0  0  0  0  0  0
   10.8237  -20.1243   25.6745 O   0  0  0  0  0  0  0  0  0  0  0  0
    9.4460  -15.2484   24.8724 C   0  0  0  0  0  0  0  0  0  0  0  0
   10.5391  -14.6634   24.7908 O   0  0  0  0  0  0  0  0  0  0  0  0
   11.9169  -18.9627   27.2143 O   0  0  0  0  0  0  0  0  0  0  0  0
    7.5920  -12.0321   25.3118 C   0  0  0  0  0  0  0  0  0  0  0  0
    7.6552  -12.6925   26.6711 C   0  0  1  0  0  0  0  0  0  0  0  0
    6.3164  -13.3425   26.9276 C   0  0  0  0  0  0  0  0  0  0  0  0
    8.7861  -13.7075   26.7211 C   0  0  2  0  0  0  0  0  0  0  0  0
    8.4747  -14.7527   25.7829 N   0  0  0  0  0  0  0  0  0  0  0  0
    8.9815  -14.2281   28.0970 C   0  0  0  0  0  0  0  0  0  0  0  0
    9.4852  -13.4046   29.0933 O   0  0  0  0  0  0  0  0  0  0  0  0
    8.6998  -15.4090   28.3884 O   0  0  0  0  0  0  0  0  0  0  0  0
  2  3  1  0
  2  1  1  6
  4  3  1  0
  4  8  1  0
  5  6  1  0
  5  4  2  0
  6  7  1  0
  7  8  2  0
  9 11  1  0
  9  2  1  0
 10  9  2  0
 12 11  1  0
 12 13  1  6
 13 14  1  0
 14 15  1  0
 15 19  1  0
 16 15  2  0
 17 12  1  0
 18 17  2  0
 21 22  1  6
 21 20  1  0
 23 24  1  6
 23 21  1  0
 24 17  1  0
 25 23  1  0
 26 25  1  0
 27 25  2  0
M  END
$$$$
