HEV.pdb
     RDKit          3D

 27 27  0  0  1  0  0  0  0  0999 V2000
    8.2796  -17.0892   19.3040 N   0  0  0  0  0  0  0  0  0  0  0  0
    8.2498  -15.9277   20.1695 C   0  0  1  0  0  0  0  0  0  0  0  0
    7.0831  -15.0762   19.7276 C   0  0  0  0  0  0  0  0  0  0  0  0
    7.5283  -14.3047   18.5355 C   0  0  0  0  0  0  0  0  0  0  0  0
    8.7790  -14.4012   17.9726 C   0  0  0  0  0  0  0  0  0  0  0  0
    8.8658  -13.5688   16.9010 N   0  0  0  0  0  0  0  0  0  0  0  0
    7.6633  -12.9644   16.8126 C   0  0  0  0  0  0  0  0  0  0  0  0
    6.8590  -13.4072   17.7958 N   0  0  0  0  0  0  0  0  0  0  0  0
    8.1508  -16.3251   21.5911 C   0  0  0  0  0  0  0  0  0  0  0  0
    7.1834  -17.0517   21.9087 O   0  0  0  0  0  0  0  0  0  0  0  0
    9.0530  -15.9477   22.5861 N   0  0  0  0  0  0  0  0  0  0  0  0
    9.0060  -16.2937   23.9773 C   0  0  1  0  0  0  0  0  0  0  0  0
    9.9875  -17.3113   24.4245 C   0  0  0  0  0  0  0  0  0  0  0  0
   10.2897  -18.4142   23.4739 C   0  0  0  0  0  0  0  0  0  0  0  0
   11.2729  -19.3922   23.8778 C   0  0  0  0  0  0  0  0  0  0  0  0
   10.8540  -20.4819   24.3569 O   0  0  0  0  0  0  0  0  0  0  0  0
    9.2689  -15.0292   24.7292 C   0  0  0  0  0  0  0  0  0  0  0  0
   10.2478  -14.2908   24.5288 O   0  0  0  0  0  0  0  0  0  0  0  0
   12.6479  -19.2990   23.8111 O   0  0  0  0  0  0  0  0  0  0  0  0
    7.0950  -12.1586   25.1649 C   0  0  0  0  0  0  0  0  0  0  0  0
    7.3427  -12.6562   26.5716 C   0  0  1  0  0  0  0  0  0  0  0  0
    6.1046  -13.3950   27.0211 C   0  0  0  0  0  0  0  0  0  0  0  0
    8.5715  -13.5505   26.6146 C   0  0  2  0  0  0  0  0  0  0  0  0
    8.3325  -14.6614   25.7322 N   0  0  0  0  0  0  0  0  0  0  0  0
    8.8699  -13.9888   28.0006 C   0  0  0  0  0  0  0  0  0  0  0  0
    9.2733  -13.0672   28.9559 O   0  0  0  0  0  0  0  0  0  0  0  0
    8.7661  -15.1865   28.3374 O   0  0  0  0  0  0  0  0  0  0  0  0
  2  3  1  0
  2  1  1  6
  4  3  1  0
  4  8  1  0
  5  6  1  0
  5  4  2  0
  6  7  1  0
  7  8  2  0
  9 11  1  0
  9  2  1  0
 10  9  2  0
 12 11  1  0
 12 13  1  6
 13 14  1  0
 14 15  1  0
 15 19  1  0
 16 15  2  0
 17 12  1  0
 18 17  2  0
 21 22  1  6
 21 20  1  0
 23 24  1  6
 23 21  1  0
 24 17  1  0
 25 23  1  0
 26 25  1  0
 27 25  2  0
M  END
$$$$
