NGI.pdb
     RDKit          3D

 21 20  0  0  1  0  0  0  0  0999 V2000
   13.8047  -14.1164  -18.6123 N   0  0  0  0  0  0  0  0  0  0  0  0
   14.9636  -13.7395  -19.3510 C   0  0  0  0  0  0  0  0  0  0  0  0
   15.4997  -14.6644  -20.0390 O   0  0  0  0  0  0  0  0  0  0  0  0
   15.5237  -12.3621  -19.3316 C   0  0  0  0  0  0  0  0  0  0  0  0
   17.0141  -12.4655  -19.1502 C   0  0  2  0  0  0  0  0  0  0  0  0
   17.2478  -13.1427  -17.8922 N   0  0  0  0  0  0  0  0  0  0  0  0
   17.6966  -11.1685  -19.1147 C   0  0  0  0  0  0  0  0  0  0  0  0
   17.7097  -10.4630  -20.1493 O   0  0  0  0  0  0  0  0  0  0  0  0
   18.3556  -10.6557  -17.9551 N   0  0  0  0  0  0  0  0  0  0  0  0
   19.0442   -9.4184  -17.8660 C   0  0  0  0  0  0  0  0  0  0  0  0
   19.5924   -9.0746  -16.5370 C   0  0  0  0  0  0  0  0  0  0  0  0
   18.9980   -9.5294  -15.4964 O   0  0  0  0  0  0  0  0  0  0  0  0
   23.7480  -11.0167  -15.0411 C   0  0  0  0  0  0  0  0  0  0  0  0
   22.4263  -10.2458  -15.2532 C   0  0  0  0  0  0  0  0  0  0  0  0
   22.5502   -8.8448  -14.7802 C   0  0  2  0  0  0  0  0  0  0  0  0
   23.1479   -8.7335  -13.3969 C   0  0  0  0  0  0  0  0  0  0  0  0
   21.2842   -8.0808  -14.9370 C   0  0  2  0  0  0  0  0  0  0  0  0
   20.7201   -8.2825  -16.2908 N   0  0  0  0  0  0  0  0  0  0  0  0
   21.3383   -6.6478  -14.6217 C   0  0  0  0  0  0  0  0  0  0  0  0
   21.5677   -5.7667  -15.4827 O   0  0  0  0  0  0  0  0  0  0  0  0
   21.1358   -6.1545  -13.3247 O   0  0  0  0  0  0  0  0  0  0  0  0
  2  1  1  0
  2  3  2  0
  4  2  1  0
  5  6  1  1
  5  4  1  0
  7  5  1  0
  8  7  2  0
  9  7  1  0
 10 11  1  0
 10  9  1  0
 11 18  1  0
 12 11  2  0
 13 14  1  0
 15 17  1  0
 15 14  1  0
 15 16  1  1
 17 18  1  6
 19 17  1  0
 19 21  1  0
 20 19  2  0
M  END
$$$$
