NGI.pdb
     RDKit          3D

 21 20  0  0  1  0  0  0  0  0999 V2000
   11.0956  -11.2666  -13.9513 N   0  0  0  0  0  0  0  0  0  0  0  0
   12.2294  -11.5918  -14.7509 C   0  0  0  0  0  0  0  0  0  0  0  0
   12.3216  -12.8104  -15.1011 O   0  0  0  0  0  0  0  0  0  0  0  0
   13.2475  -10.5876  -15.1589 C   0  0  0  0  0  0  0  0  0  0  0  0
   14.5757  -11.2864  -15.2701 C   0  0  2  0  0  0  0  0  0  0  0  0
   15.0270  -11.5683  -13.9238 N   0  0  0  0  0  0  0  0  0  0  0  0
   15.6050  -10.4944  -15.9501 C   0  0  0  0  0  0  0  0  0  0  0  0
   15.5632  -10.3906  -17.1975 O   0  0  0  0  0  0  0  0  0  0  0  0
   16.6661   -9.8257  -15.2653 N   0  0  0  0  0  0  0  0  0  0  0  0
   17.5977   -8.9269  -15.8460 C   0  0  0  0  0  0  0  0  0  0  0  0
   18.6009   -8.3482  -14.9276 C   0  0  0  0  0  0  0  0  0  0  0  0
   18.4224   -8.4852  -13.6657 O   0  0  0  0  0  0  0  0  0  0  0  0
   23.2772  -10.0030  -14.6614 C   0  0  0  0  0  0  0  0  0  0  0  0
   21.9212   -9.3134  -14.3940 C   0  0  0  0  0  0  0  0  0  0  0  0
   22.0482   -7.8388  -14.5005 C   0  0  2  0  0  0  0  0  0  0  0  0
   23.1491   -7.2716  -13.6348 C   0  0  0  0  0  0  0  0  0  0  0  0
   20.7451   -7.1446  -14.3248 C   0  0  2  0  0  0  0  0  0  0  0  0
   19.7531   -7.6468  -15.3022 N   0  0  0  0  0  0  0  0  0  0  0  0
   20.7747   -5.6767  -14.3454 C   0  0  0  0  0  0  0  0  0  0  0  0
   21.3154   -4.9912  -13.4466 O   0  0  0  0  0  0  0  0  0  0  0  0
   20.1961   -4.9270  -15.3797 O   0  0  0  0  0  0  0  0  0  0  0  0
  2  1  1  0
  2  3  2  0
  4  2  1  0
  5  6  1  1
  5  4  1  0
  7  5  1  0
  8  7  2  0
  9  7  1  0
 10 11  1  0
 10  9  1  0
 11 18  1  0
 12 11  2  0
 13 14  1  0
 15 17  1  0
 15 14  1  0
 15 16  1  1
 17 18  1  6
 19 17  1  0
 19 21  1  0
 20 19  2  0
M  END
$$$$
