NGI.pdb
     RDKit          3D

 21 20  0  0  1  0  0  0  0  0999 V2000
   28.0644  -16.8711  -18.2238 N   0  0  0  0  0  0  0  0  0  0  0  0
   26.9171  -16.0271  -18.1783 C   0  0  0  0  0  0  0  0  0  0  0  0
   26.1972  -16.0240  -19.2260 O   0  0  0  0  0  0  0  0  0  0  0  0
   26.5683  -15.1979  -16.9941 C   0  0  0  0  0  0  0  0  0  0  0  0
   25.7838  -14.0060  -17.4722 C   0  0  2  0  0  0  0  0  0  0  0  0
   26.6495  -13.2449  -18.3480 N   0  0  0  0  0  0  0  0  0  0  0  0
   25.3261  -13.1275  -16.3914 C   0  0  0  0  0  0  0  0  0  0  0  0
   25.6079  -13.4263  -15.2083 O   0  0  0  0  0  0  0  0  0  0  0  0
   24.5684  -11.9361  -16.6110 N   0  0  0  0  0  0  0  0  0  0  0  0
   24.1406  -11.0238  -15.6121 C   0  0  0  0  0  0  0  0  0  0  0  0
   23.2895   -9.9071  -16.0741 C   0  0  0  0  0  0  0  0  0  0  0  0
   23.1328   -9.7419  -17.3355 O   0  0  0  0  0  0  0  0  0  0  0  0
   18.2124   -9.7294  -15.4618 C   0  0  0  0  0  0  0  0  0  0  0  0
   19.5740   -9.1576  -15.0091 C   0  0  0  0  0  0  0  0  0  0  0  0
   20.3793   -8.7233  -16.1773 C   0  0  2  0  0  0  0  0  0  0  0  0
   20.6120   -9.8261  -17.1838 C   0  0  0  0  0  0  0  0  0  0  0  0
   21.6269   -8.0214  -15.7750 C   0  0  2  0  0  0  0  0  0  0  0  0
   22.6221   -8.9872  -15.2568 N   0  0  0  0  0  0  0  0  0  0  0  0
   21.4772   -6.9004  -14.8385 C   0  0  0  0  0  0  0  0  0  0  0  0
   21.8695   -6.9462  -13.6493 O   0  0  0  0  0  0  0  0  0  0  0  0
   20.8800   -5.6864  -15.2074 O   0  0  0  0  0  0  0  0  0  0  0  0
  2  1  1  0
  2  3  2  0
  4  2  1  0
  5  6  1  6
  5  4  1  0
  7  5  1  0
  8  7  2  0
  9  7  1  0
 10 11  1  0
 10  9  1  0
 11 18  1  0
 12 11  2  0
 13 14  1  0
 15 17  1  0
 15 14  1  0
 15 16  1  1
 17 18  1  1
 19 17  1  0
 19 21  1  0
 20 19  2  0
M  END
$$$$
