NGI.pdb
     RDKit          3D

 21 20  0  0  1  0  0  0  0  0999 V2000
   13.9782  -12.9459  -16.5422 N   0  0  0  0  0  0  0  0  0  0  0  0
   13.6325  -13.1796  -15.1797 C   0  0  0  0  0  0  0  0  0  0  0  0
   12.5045  -13.7337  -14.9878 O   0  0  0  0  0  0  0  0  0  0  0  0
   14.5179  -12.8076  -14.0443 C   0  0  0  0  0  0  0  0  0  0  0  0
   15.7814  -12.2175  -14.6102 C   0  0  2  0  0  0  0  0  0  0  0  0
   16.5671  -13.3119  -15.1400 N   0  0  0  0  0  0  0  0  0  0  0  0
   16.5916  -11.4980  -13.6227 C   0  0  0  0  0  0  0  0  0  0  0  0
   17.7778  -11.8546  -13.4375 O   0  0  0  0  0  0  0  0  0  0  0  0
   16.1017  -10.4004  -12.8498 N   0  0  0  0  0  0  0  0  0  0  0  0
   16.8571   -9.6208  -11.9362 C   0  0  0  0  0  0  0  0  0  0  0  0
   16.1654   -8.4517  -11.3535 C   0  0  0  0  0  0  0  0  0  0  0  0
   15.5357   -7.6610  -12.1417 O   0  0  0  0  0  0  0  0  0  0  0  0
   12.5005   -8.6843   -7.8223 C   0  0  0  0  0  0  0  0  0  0  0  0
   13.4246   -8.2060   -8.9639 C   0  0  0  0  0  0  0  0  0  0  0  0
   14.4423   -7.2531   -8.4557 C   0  0  2  0  0  0  0  0  0  0  0  0
   13.8408   -6.0511   -7.7653 C   0  0  0  0  0  0  0  0  0  0  0  0
   15.4483   -6.8948   -9.4903 C   0  0  2  0  0  0  0  0  0  0  0  0
   16.1276   -8.1087   -9.9967 N   0  0  0  0  0  0  0  0  0  0  0  0
   16.4416   -5.8799   -9.1171 C   0  0  0  0  0  0  0  0  0  0  0  0
   17.4856   -6.1478   -8.4779 O   0  0  0  0  0  0  0  0  0  0  0  0
   16.2954   -4.5256   -9.4504 O   0  0  0  0  0  0  0  0  0  0  0  0
  2  1  1  0
  2  3  2  0
  4  2  1  0
  5  6  1  1
  5  4  1  0
  7  5  1  0
  8  7  2  0
  9  7  1  0
 10 11  1  0
 10  9  1  0
 11 18  1  0
 12 11  2  0
 13 14  1  0
 15 17  1  0
 15 14  1  0
 15 16  1  6
 17 18  1  1
 19 17  1  0
 19 21  1  0
 20 19  2  0
M  END
$$$$
