NGI.pdb
     RDKit          3D

 21 20  0  0  1  0  0  0  0  0999 V2000
   18.2298  -22.4505  -15.6683 N   0  0  0  0  0  0  0  0  0  0  0  0
   17.8096  -23.0349  -14.4384 C   0  0  0  0  0  0  0  0  0  0  0  0
   16.6512  -23.5586  -14.4482 O   0  0  0  0  0  0  0  0  0  0  0  0
   18.6546  -23.0419  -13.2148 C   0  0  0  0  0  0  0  0  0  0  0  0
   17.7435  -23.0318  -12.0170 C   0  0  2  0  0  0  0  0  0  0  0  0
   17.2933  -21.6685  -11.8311 N   0  0  0  0  0  0  0  0  0  0  0  0
   18.3887  -23.4819  -10.7799 C   0  0  0  0  0  0  0  0  0  0  0  0
   18.9237  -22.6316  -10.0322 O   0  0  0  0  0  0  0  0  0  0  0  0
   18.4437  -24.8504  -10.3720 N   0  0  0  0  0  0  0  0  0  0  0  0
   19.0507  -25.3440   -9.1885 C   0  0  0  0  0  0  0  0  0  0  0  0
   18.4262  -24.9264   -7.9155 C   0  0  0  0  0  0  0  0  0  0  0  0
   17.9789  -23.7290   -7.8203 O   0  0  0  0  0  0  0  0  0  0  0  0
   13.8179  -24.8108   -4.8603 C   0  0  0  0  0  0  0  0  0  0  0  0
   15.3381  -24.8084   -4.5868 C   0  0  0  0  0  0  0  0  0  0  0  0
   16.0906  -25.2649   -5.7814 C   0  0  2  0  0  0  0  0  0  0  0  0
   15.5757  -26.5678   -6.3479 C   0  0  0  0  0  0  0  0  0  0  0  0
   17.5609  -25.2602   -5.5598 C   0  0  2  0  0  0  0  0  0  0  0  0
   18.2707  -25.7219   -6.7742 N   0  0  0  0  0  0  0  0  0  0  0  0
   18.0501  -25.9885   -4.3824 C   0  0  0  0  0  0  0  0  0  0  0  0
   18.5555  -27.1333   -4.4480 O   0  0  0  0  0  0  0  0  0  0  0  0
   17.9880  -25.4537   -3.0875 O   0  0  0  0  0  0  0  0  0  0  0  0
  2  1  1  0
  2  3  2  0
  4  2  1  0
  5  6  1  1
  5  4  1  0
  7  5  1  0
  8  7  2  0
  9  7  1  0
 10 11  1  0
 10  9  1  0
 11 18  1  0
 12 11  2  0
 13 14  1  0
 15 17  1  0
 15 14  1  0
 15 16  1  1
 17 18  1  6
 19 17  1  0
 19 21  1  0
 20 19  2  0
M  END
$$$$
