NGI.pdb
     RDKit          3D

 21 20  0  0  1  0  0  0  0  0999 V2000
   24.2172  -20.3062  -17.8970 N   0  0  0  0  0  0  0  0  0  0  0  0
   23.7820  -19.3879  -16.8980 C   0  0  0  0  0  0  0  0  0  0  0  0
   22.7866  -18.6637  -17.2158 O   0  0  0  0  0  0  0  0  0  0  0  0
   24.4350  -19.2694  -15.5673 C   0  0  0  0  0  0  0  0  0  0  0  0
   25.5990  -20.2225  -15.5308 C   0  0  2  0  0  0  0  0  0  0  0  0
   25.0573  -21.5643  -15.5738 N   0  0  0  0  0  0  0  0  0  0  0  0
   26.4305  -20.0943  -14.3301 C   0  0  0  0  0  0  0  0  0  0  0  0
   26.7049  -18.9492  -13.9035 O   0  0  0  0  0  0  0  0  0  0  0  0
   26.9526  -21.2122  -13.6093 N   0  0  0  0  0  0  0  0  0  0  0  0
   27.7598  -21.1500  -12.4442 C   0  0  0  0  0  0  0  0  0  0  0  0
   27.0606  -21.3554  -11.1581 C   0  0  0  0  0  0  0  0  0  0  0  0
   26.3349  -22.4028  -11.0196 O   0  0  0  0  0  0  0  0  0  0  0  0
   29.0362  -19.3866   -6.4412 C   0  0  0  0  0  0  0  0  0  0  0  0
   28.4111  -20.2825   -7.5332 C   0  0  0  0  0  0  0  0  0  0  0  0
   26.9565  -20.0199   -7.6634 C   0  0  2  0  0  0  0  0  0  0  0  0
   26.2006  -20.1970   -6.3670 C   0  0  0  0  0  0  0  0  0  0  0  0
   26.3487  -20.7554   -8.8038 C   0  0  2  0  0  0  0  0  0  0  0  0
   27.1083  -20.5025  -10.0490 N   0  0  0  0  0  0  0  0  0  0  0  0
   24.9149  -20.5397   -9.0353 C   0  0  0  0  0  0  0  0  0  0  0  0
   24.4731  -19.6846   -9.8378 O   0  0  0  0  0  0  0  0  0  0  0  0
   23.9258  -21.2795   -8.3713 O   0  0  0  0  0  0  0  0  0  0  0  0
  2  1  1  0
  2  3  2  0
  4  2  1  0
  5  6  1  1
  5  4  1  0
  7  5  1  0
  8  7  2  0
  9  7  1  0
 10 11  1  0
 10  9  1  0
 11 18  1  0
 12 11  2  0
 13 14  1  0
 15 17  1  0
 15 14  1  0
 15 16  1  1
 17 18  1  6
 19 17  1  0
 19 21  1  0
 20 19  2  0
M  END
$$$$
