NGI.pdb
     RDKit          3D

 21 20  0  0  1  0  0  0  0  0999 V2000
   19.4800  -18.7222  -18.1559 N   0  0  0  0  0  0  0  0  0  0  0  0
   19.8351  -19.4056  -16.9569 C   0  0  0  0  0  0  0  0  0  0  0  0
   19.1759  -19.0743  -15.9216 O   0  0  0  0  0  0  0  0  0  0  0  0
   20.9021  -20.4399  -16.8999 C   0  0  0  0  0  0  0  0  0  0  0  0
   21.8469  -20.0766  -15.7863 C   0  0  2  0  0  0  0  0  0  0  0  0
   22.5635  -18.8891  -16.2010 N   0  0  0  0  0  0  0  0  0  0  0  0
   22.8234  -21.1246  -15.4742 C   0  0  0  0  0  0  0  0  0  0  0  0
   22.4091  -22.2663  -15.1688 O   0  0  0  0  0  0  0  0  0  0  0  0
   24.2371  -20.9177  -15.4983 N   0  0  0  0  0  0  0  0  0  0  0  0
   25.2232  -21.8471  -15.0780 C   0  0  0  0  0  0  0  0  0  0  0  0
   25.3305  -22.0651  -13.6200 C   0  0  0  0  0  0  0  0  0  0  0  0
   24.7036  -23.0572  -13.1045 O   0  0  0  0  0  0  0  0  0  0  0  0
   29.7888  -21.0747  -10.7285 C   0  0  0  0  0  0  0  0  0  0  0  0
   28.4764  -21.7153  -11.2315 C   0  0  0  0  0  0  0  0  0  0  0  0
   27.2969  -21.0440  -10.6314 C   0  0  2  0  0  0  0  0  0  0  0  0
   27.2780  -21.1094   -9.1219 C   0  0  0  0  0  0  0  0  0  0  0  0
   26.0195  -21.4804  -11.2550 C   0  0  2  0  0  0  0  0  0  0  0  0
   26.0622  -21.2799  -12.7212 N   0  0  0  0  0  0  0  0  0  0  0  0
   24.7878  -20.9026  -10.7028 C   0  0  0  0  0  0  0  0  0  0  0  0
   24.3105  -19.8113  -11.0920 O   0  0  0  0  0  0  0  0  0  0  0  0
   24.0484  -21.5330   -9.6917 O   0  0  0  0  0  0  0  0  0  0  0  0
  2  1  1  0
  2  3  2  0
  4  2  1  0
  5  6  1  6
  5  4  1  0
  7  5  1  0
  8  7  2  0
  9  7  1  0
 10 11  1  0
 10  9  1  0
 11 18  1  0
 12 11  2  0
 13 14  1  0
 15 17  1  0
 15 14  1  0
 15 16  1  1
 17 18  1  6
 19 17  1  0
 19 21  1  0
 20 19  2  0
M  END
$$$$
