NGI.pdb
     RDKit          3D

 21 20  0  0  1  0  0  0  0  0999 V2000
   16.2161  -13.5543  -16.5236 N   0  0  0  0  0  0  0  0  0  0  0  0
   16.8739  -13.3582  -17.7725 C   0  0  0  0  0  0  0  0  0  0  0  0
   16.8998  -14.3692  -18.5428 O   0  0  0  0  0  0  0  0  0  0  0  0
   17.4944  -12.0656  -18.1666 C   0  0  0  0  0  0  0  0  0  0  0  0
   17.1613  -11.0456  -17.1114 C   0  0  2  0  0  0  0  0  0  0  0  0
   15.8906  -10.4533  -17.4722 N   0  0  0  0  0  0  0  0  0  0  0  0
   18.1559   -9.9755  -16.9890 C   0  0  0  0  0  0  0  0  0  0  0  0
   19.2819  -10.2473  -16.5129 O   0  0  0  0  0  0  0  0  0  0  0  0
   17.9133   -8.6243  -17.3857 N   0  0  0  0  0  0  0  0  0  0  0  0
   18.8414   -7.5538  -17.3112 C   0  0  0  0  0  0  0  0  0  0  0  0
   19.4233   -7.2904  -15.9782 C   0  0  0  0  0  0  0  0  0  0  0  0
   18.6419   -7.2871  -14.9621 O   0  0  0  0  0  0  0  0  0  0  0  0
   23.2368   -9.8248  -12.4892 C   0  0  0  0  0  0  0  0  0  0  0  0
   22.6842   -8.4076  -12.7579 C   0  0  0  0  0  0  0  0  0  0  0  0
   22.1439   -8.3037  -14.1360 C   0  0  2  0  0  0  0  0  0  0  0  0
   23.1922   -8.5121  -15.2042 C   0  0  0  0  0  0  0  0  0  0  0  0
   21.3375   -7.0705  -14.3359 C   0  0  2  0  0  0  0  0  0  0  0  0
   20.7722   -7.0357  -15.7037 N   0  0  0  0  0  0  0  0  0  0  0  0
   21.9999   -5.7959  -14.0317 C   0  0  0  0  0  0  0  0  0  0  0  0
   22.4122   -5.4960  -12.8870 O   0  0  0  0  0  0  0  0  0  0  0  0
   22.2222   -4.8120  -15.0060 O   0  0  0  0  0  0  0  0  0  0  0  0
  2  1  1  0
  2  3  2  0
  4  2  1  0
  5  6  1  6
  5  4  1  0
  7  5  1  0
  8  7  2  0
  9  7  1  0
 10 11  1  0
 10  9  1  0
 11 18  1  0
 12 11  2  0
 13 14  1  0
 15 17  1  0
 15 14  1  0
 15 16  1  6
 17 18  1  6
 19 17  1  0
 19 21  1  0
 20 19  2  0
M  END
$$$$
