NGI.pdb
     RDKit          3D

 21 20  0  0  1  0  0  0  0  0999 V2000
   17.4637  -13.4783  -17.5792 N   0  0  0  0  0  0  0  0  0  0  0  0
   16.5167  -12.5280  -18.0597 C   0  0  0  0  0  0  0  0  0  0  0  0
   15.8297  -12.8983  -19.0632 O   0  0  0  0  0  0  0  0  0  0  0  0
   16.3296  -11.1880  -17.4424 C   0  0  0  0  0  0  0  0  0  0  0  0
   17.2553  -11.0839  -16.2605 C   0  0  2  0  0  0  0  0  0  0  0  0
   16.6191  -11.7683  -15.1548 N   0  0  0  0  0  0  0  0  0  0  0  0
   17.5403   -9.7049  -15.8526 C   0  0  0  0  0  0  0  0  0  0  0  0
   18.3185   -9.0158  -16.5511 O   0  0  0  0  0  0  0  0  0  0  0  0
   16.9757   -9.0933  -14.6911 N   0  0  0  0  0  0  0  0  0  0  0  0
   17.2447   -7.7804  -14.2256 C   0  0  0  0  0  0  0  0  0  0  0  0
   18.5820   -7.5620  -13.6352 C   0  0  0  0  0  0  0  0  0  0  0  0
   18.7748   -7.9115  -12.4171 O   0  0  0  0  0  0  0  0  0  0  0  0
   23.6728   -9.8840  -14.1061 C   0  0  0  0  0  0  0  0  0  0  0  0
   23.0591   -8.5467  -13.6361 C   0  0  0  0  0  0  0  0  0  0  0  0
   21.7308   -8.3267  -14.2599 C   0  0  2  0  0  0  0  0  0  0  0  0
   21.7581   -8.4189  -15.7680 C   0  0  0  0  0  0  0  0  0  0  0  0
   21.0672   -7.0944  -13.7580 C   0  0  2  0  0  0  0  0  0  0  0  0
   19.6866   -6.9971  -14.2836 N   0  0  0  0  0  0  0  0  0  0  0  0
   21.7799   -5.8292  -13.9757 C   0  0  0  0  0  0  0  0  0  0  0  0
   21.5483   -5.0728  -14.9475 O   0  0  0  0  0  0  0  0  0  0  0  0
   22.7797   -5.3696  -13.1064 O   0  0  0  0  0  0  0  0  0  0  0  0
  2  1  1  0
  2  3  2  0
  4  2  1  0
  5  6  1  1
  5  4  1  0
  7  5  1  0
  8  7  2  0
  9  7  1  0
 10 11  1  0
 10  9  1  0
 11 18  1  0
 12 11  2  0
 13 14  1  0
 15 17  1  0
 15 14  1  0
 15 16  1  6
 17 18  1  6
 19 17  1  0
 19 21  1  0
 20 19  2  0
M  END
$$$$
