NGI.pdb
     RDKit          3D

 21 20  0  0  1  0  0  0  0  0999 V2000
   15.7056  -24.6881    0.3436 N   0  0  0  0  0  0  0  0  0  0  0  0
   15.4172  -24.0309    1.5747 C   0  0  0  0  0  0  0  0  0  0  0  0
   15.2583  -24.7938    2.5791 O   0  0  0  0  0  0  0  0  0  0  0  0
   15.3054  -22.5530    1.6969 C   0  0  0  0  0  0  0  0  0  0  0  0
   13.8733  -22.2167    2.0139 C   0  0  2  0  0  0  0  0  0  0  0  0
   13.1046  -22.4281    0.8056 N   0  0  0  0  0  0  0  0  0  0  0  0
   13.6750  -20.8330    2.4558 C   0  0  0  0  0  0  0  0  0  0  0  0
   12.5247  -20.3404    2.4053 O   0  0  0  0  0  0  0  0  0  0  0  0
   14.7297  -20.0031    2.9467 N   0  0  0  0  0  0  0  0  0  0  0  0
   14.5914  -18.6752    3.4267 C   0  0  0  0  0  0  0  0  0  0  0  0
   15.8313  -18.0222    3.8970 C   0  0  0  0  0  0  0  0  0  0  0  0
   16.8972  -18.7289    3.9832 O   0  0  0  0  0  0  0  0  0  0  0  0
   17.7701  -13.6215    1.8457 C   0  0  0  0  0  0  0  0  0  0  0  0
   17.5221  -14.9757    2.5461 C   0  0  0  0  0  0  0  0  0  0  0  0
   17.5167  -14.8144    4.0212 C   0  0  2  0  0  0  0  0  0  0  0  0
   18.7336  -14.0883    4.5457 C   0  0  0  0  0  0  0  0  0  0  0  0
   17.2445  -16.0934    4.7291 C   0  0  2  0  0  0  0  0  0  0  0  0
   15.9650  -16.6794    4.2694 N   0  0  0  0  0  0  0  0  0  0  0  0
   17.2822  -16.0531    6.1963 C   0  0  0  0  0  0  0  0  0  0  0  0
   16.3107  -15.6814    6.8951 O   0  0  0  0  0  0  0  0  0  0  0  0
   18.4159  -16.4302    6.9305 O   0  0  0  0  0  0  0  0  0  0  0  0
  2  1  1  0
  2  3  2  0
  4  2  1  0
  5  6  1  6
  5  4  1  0
  7  5  1  0
  8  7  2  0
  9  7  1  0
 10 11  1  0
 10  9  1  0
 11 18  1  0
 12 11  2  0
 13 14  1  0
 15 17  1  0
 15 14  1  0
 15 16  1  1
 17 18  1  1
 19 17  1  0
 19 21  1  0
 20 19  2  0
M  END
$$$$
