NGI.pdb
     RDKit          3D

 21 20  0  0  1  0  0  0  0  0999 V2000
   25.1587  -18.3537  -20.1005 N   0  0  0  0  0  0  0  0  0  0  0  0
   25.5956  -19.6999  -19.9344 C   0  0  0  0  0  0  0  0  0  0  0  0
   25.0573  -20.5505  -20.7109 O   0  0  0  0  0  0  0  0  0  0  0  0
   26.6119  -20.1029  -18.9264 C   0  0  0  0  0  0  0  0  0  0  0  0
   26.3670  -19.3086  -17.6718 C   0  0  2  0  0  0  0  0  0  0  0  0
   27.3107  -18.2109  -17.6670 N   0  0  0  0  0  0  0  0  0  0  0  0
   26.5455  -20.0814  -16.4388 C   0  0  0  0  0  0  0  0  0  0  0  0
   25.6155  -20.8250  -16.0507 O   0  0  0  0  0  0  0  0  0  0  0  0
   27.7323  -20.0357  -15.6442 N   0  0  0  0  0  0  0  0  0  0  0  0
   27.9592  -20.7542  -14.4421 C   0  0  0  0  0  0  0  0  0  0  0  0
   27.1657  -20.3270  -13.2705 C   0  0  0  0  0  0  0  0  0  0  0  0
   27.2174  -19.0964  -12.9155 O   0  0  0  0  0  0  0  0  0  0  0  0
   22.2148  -20.7360  -13.2370 C   0  0  0  0  0  0  0  0  0  0  0  0
   23.6462  -20.2714  -12.8891 C   0  0  0  0  0  0  0  0  0  0  0  0
   24.0926  -20.8552  -11.6000 C   0  0  2  0  0  0  0  0  0  0  0  0
   23.2208  -20.4567  -10.4319 C   0  0  0  0  0  0  0  0  0  0  0  0
   25.5426  -20.6383  -11.3526 C   0  0  2  0  0  0  0  0  0  0  0  0
   26.3451  -21.1476  -12.4876 N   0  0  0  0  0  0  0  0  0  0  0  0
   26.0772  -21.1536  -10.0858 C   0  0  0  0  0  0  0  0  0  0  0  0
   26.5753  -22.2975   -9.9691 O   0  0  0  0  0  0  0  0  0  0  0  0
   26.0704  -20.3990   -8.9038 O   0  0  0  0  0  0  0  0  0  0  0  0
  2  1  1  0
  2  3  2  0
  4  2  1  0
  5  6  1  1
  5  4  1  0
  7  5  1  0
  8  7  2  0
  9  7  1  0
 10 11  1  0
 10  9  1  0
 11 18  1  0
 12 11  2  0
 13 14  1  0
 15 17  1  0
 15 14  1  0
 15 16  1  1
 17 18  1  6
 19 17  1  0
 19 21  1  0
 20 19  2  0
M  END
$$$$
