QRV.pdb
     RDKit          3D

 28 27  0  0  1  0  0  0  0  0999 V2000
   19.5037  -24.6758  -15.3415 N   0  0  0  0  0  0  0  0  0  0  0  0
   19.1483  -26.0421  -15.2276 C   0  0  0  0  0  0  0  0  0  0  0  0
   18.1856  -26.4903  -15.8793 O   0  0  0  0  0  0  0  0  0  0  0  0
   19.9294  -26.9154  -14.3347 C   0  0  0  0  0  0  0  0  0  0  0  0
   21.1193  -26.1533  -13.8210 C   0  0  0  0  0  0  0  0  0  0  0  0
   22.2563  -26.0458  -14.7817 C   0  0  2  0  0  0  0  0  0  0  0  0
   22.8314  -27.3824  -14.9510 N   0  0  0  0  0  0  0  0  0  0  0  0
   23.2789  -25.0465  -14.4605 C   0  0  0  0  0  0  0  0  0  0  0  0
   23.9818  -25.1743  -13.4440 O   0  0  0  0  0  0  0  0  0  0  0  0
   27.2107  -18.4121  -18.8053 N   0  0  0  0  0  0  0  0  0  0  0  0
   27.9240  -18.6168  -17.5865 C   0  0  0  0  0  0  0  0  0  0  0  0
   29.0859  -18.0666  -17.4502 N   0  0  0  0  0  0  0  0  0  0  0  0
   27.3619  -19.4083  -16.5470 N   0  0  0  0  0  0  0  0  0  0  0  0
   26.0475  -19.9550  -16.6554 C   0  0  0  0  0  0  0  0  0  0  0  0
   25.6138  -20.7544  -15.4305 C   0  0  0  0  0  0  0  0  0  0  0  0
   24.7753  -21.8961  -15.9457 C   0  0  0  0  0  0  0  0  0  0  0  0
   24.2506  -22.7786  -14.8634 C   0  0  2  0  0  0  0  0  0  0  0  0
   23.4916  -23.9067  -15.3009 N   0  0  0  0  0  0  0  0  0  0  0  0
   23.4729  -21.9544  -13.8672 C   0  0  0  0  0  0  0  0  0  0  0  0
   22.2996  -21.5774  -14.0980 O   0  0  0  0  0  0  0  0  0  0  0  0
   29.6484  -18.2024  -16.5988 C   0  0  0  0  0  0  0  0  0  0  0  0
   24.7947  -21.7338   -9.8054 C   0  0  2  0  0  0  0  0  0  0  0  0
   24.3531  -20.4813  -10.4837 C   0  0  0  0  0  0  0  0  0  0  0  0
   25.5238  -19.7100  -11.0008 C   0  0  2  0  0  0  0  0  0  0  0  0
   23.4056  -20.7492  -11.6362 N   0  0  0  0  0  0  0  0  0  0  0  0
   24.0526  -21.5792  -12.6299 C   0  0  0  0  0  0  0  0  0  0  0  0
   22.9347  -19.5166  -12.2959 O   0  0  0  0  0  0  0  0  0  0  0  0
   23.5422  -18.9824  -13.2674 O   0  0  0  0  0  0  0  0  0  0  0  0
  2  3  2  0
  2  1  1  0
  4  2  1  0
  5  4  1  0
  6  8  1  0
  6  5  1  0
  6  7  1  1
  8 18  1  0
  9  8  2  0
 11 10  1  0
 11 12  2  0
 13 11  1  0
 14 13  1  0
 14 15  1  0
 16 15  1  0
 17 16  1  6
 17 19  1  0
 18 17  1  0
 19 20  2  0
 19 25  1  0
 22 21  1  1
 22 23  1  0
 24 26  1  0
 24 22  1  0
 24 25  1  1
 26 28  1  0
 27 26  2  0
M  END
$$$$
