QRV.pdb
     RDKit          3D

 28 27  0  0  1  0  0  0  0  0999 V2000
   28.8655  -18.1429  -18.0209 N   0  0  0  0  0  0  0  0  0  0  0  0
   28.5448  -19.1317  -18.9830 C   0  0  0  0  0  0  0  0  0  0  0  0
   29.1094  -19.1246  -20.0936 O   0  0  0  0  0  0  0  0  0  0  0  0
   27.5425  -20.1589  -18.6505 C   0  0  0  0  0  0  0  0  0  0  0  0
   27.0452  -19.9242  -17.2511 C   0  0  0  0  0  0  0  0  0  0  0  0
   27.4231  -20.9806  -16.2670 C   0  0  2  0  0  0  0  0  0  0  0  0
   27.9388  -22.1297  -17.0149 N   0  0  0  0  0  0  0  0  0  0  0  0
   26.3838  -21.3717  -15.3106 C   0  0  0  0  0  0  0  0  0  0  0  0
   25.4100  -22.0464  -15.6851 O   0  0  0  0  0  0  0  0  0  0  0  0
   21.9969  -20.2018   -9.1059 N   0  0  0  0  0  0  0  0  0  0  0  0
   22.6751  -21.0680   -8.1972 C   0  0  0  0  0  0  0  0  0  0  0  0
   21.9894  -21.6476   -7.2671 N   0  0  0  0  0  0  0  0  0  0  0  0
   24.0753  -21.2865   -8.3192 N   0  0  0  0  0  0  0  0  0  0  0  0
   24.8468  -20.6279   -9.3238 C   0  0  0  0  0  0  0  0  0  0  0  0
   24.3877  -20.9325  -10.7465 C   0  0  0  0  0  0  0  0  0  0  0  0
   25.6078  -20.8011  -11.6218 C   0  0  0  0  0  0  0  0  0  0  0  0
   25.3315  -21.0670  -13.0635 C   0  0  2  0  0  0  0  0  0  0  0  0
   26.4618  -20.9885  -13.9331 N   0  0  0  0  0  0  0  0  0  0  0  0
   24.2158  -20.1706  -13.5413 C   0  0  0  0  0  0  0  0  0  0  0  0
   24.3564  -18.9268  -13.6151 O   0  0  0  0  0  0  0  0  0  0  0  0
   22.4393  -22.2493   -6.5632 C   0  0  0  0  0  0  0  0  0  0  0  0
   20.1553  -19.8365  -16.2674 C   0  0  2  0  0  0  0  0  0  0  0  0
   21.3736  -20.5236  -15.7498 C   0  0  0  0  0  0  0  0  0  0  0  0
   22.4919  -20.4490  -16.7381 C   0  0  1  0  0  0  0  0  0  0  0  0
   21.8529  -19.9414  -14.4349 N   0  0  0  0  0  0  0  0  0  0  0  0
   22.9646  -20.7146  -13.9239 C   0  0  0  0  0  0  0  0  0  0  0  0
   20.8003  -19.9030  -13.4019 O   0  0  0  0  0  0  0  0  0  0  0  0
   19.9661  -18.9579  -13.3062 O   0  0  0  0  0  0  0  0  0  0  0  0
  2  3  2  0
  2  1  1  0
  4  2  1  0
  5  4  1  0
  6  8  1  0
  6  5  1  0
  6  7  1  6
  8 18  1  0
  9  8  2  0
 11 10  1  0
 11 12  2  0
 13 11  1  0
 14 13  1  0
 14 15  1  0
 16 15  1  0
 17 16  1  1
 17 19  1  0
 18 17  1  0
 19 20  2  0
 19 25  1  0
 22 21  1  6
 22 23  1  0
 24 26  1  0
 24 22  1  0
 24 25  1  6
 26 28  1  0
 27 26  2  0
M  END
$$$$
