QRV.pdb
     RDKit          3D

 28 27  0  0  1  0  0  0  0  0999 V2000
   20.6439  -32.7854   -3.1459 N   0  0  0  0  0  0  0  0  0  0  0  0
   21.6006  -32.1295   -2.3329 C   0  0  0  0  0  0  0  0  0  0  0  0
   22.5453  -32.7756   -1.8405 O   0  0  0  0  0  0  0  0  0  0  0  0
   21.4609  -30.6845   -2.0829 C   0  0  0  0  0  0  0  0  0  0  0  0
   20.2660  -30.1696   -2.8363 C   0  0  0  0  0  0  0  0  0  0  0  0
   19.2761  -29.4232   -2.0055 C   0  0  2  0  0  0  0  0  0  0  0  0
   18.6595  -30.3734   -1.0766 N   0  0  0  0  0  0  0  0  0  0  0  0
   18.2734  -28.6469   -2.7402 C   0  0  0  0  0  0  0  0  0  0  0  0
   17.3888  -29.2255   -3.3933 O   0  0  0  0  0  0  0  0  0  0  0  0
   13.8232  -21.4547   -1.1903 N   0  0  0  0  0  0  0  0  0  0  0  0
   14.0347  -22.7787   -0.7020 C   0  0  0  0  0  0  0  0  0  0  0  0
   13.6899  -23.0518    0.5136 N   0  0  0  0  0  0  0  0  0  0  0  0
   14.6108  -23.7725   -1.5408 N   0  0  0  0  0  0  0  0  0  0  0  0
   15.1673  -23.4415   -2.8132 C   0  0  0  0  0  0  0  0  0  0  0  0
   15.6269  -24.6553   -3.6151 C   0  0  0  0  0  0  0  0  0  0  0  0
   16.7157  -25.3103   -2.8043 C   0  0  0  0  0  0  0  0  0  0  0  0
   17.3781  -26.4442   -3.5122 C   0  0  2  0  0  0  0  0  0  0  0  0
   18.2880  -27.2151   -2.7262 N   0  0  0  0  0  0  0  0  0  0  0  0
   18.0400  -25.9407   -4.7711 C   0  0  0  0  0  0  0  0  0  0  0  0
   19.1605  -25.3784   -4.7460 O   0  0  0  0  0  0  0  0  0  0  0  0
   13.7506  -24.0091    0.8875 C   0  0  0  0  0  0  0  0  0  0  0  0
   18.1421  -26.3928   -9.7054 C   0  0  2  0  0  0  0  0  0  0  0  0
   17.7028  -26.7920   -8.3373 C   0  0  0  0  0  0  0  0  0  0  0  0
   18.3562  -28.0679   -7.9153 C   0  0  1  0  0  0  0  0  0  0  0  0
   18.0042  -25.7298   -7.2987 N   0  0  0  0  0  0  0  0  0  0  0  0
   17.4077  -26.0905   -6.0302 C   0  0  0  0  0  0  0  0  0  0  0  0
   17.5118  -24.3924   -7.6798 O   0  0  0  0  0  0  0  0  0  0  0  0
   18.1623  -23.6089   -8.4289 O   0  0  0  0  0  0  0  0  0  0  0  0
  2  3  2  0
  2  1  1  0
  4  2  1  0
  5  4  1  0
  6  8  1  0
  6  5  1  0
  6  7  1  6
  8 18  1  0
  9  8  2  0
 11 10  1  0
 11 12  2  0
 13 11  1  0
 14 13  1  0
 14 15  1  0
 16 15  1  0
 17 16  1  1
 17 19  1  0
 18 17  1  0
 19 20  2  0
 19 25  1  0
 22 21  1  6
 22 23  1  0
 24 26  1  0
 24 22  1  0
 24 25  1  6
 26 28  1  0
 27 26  2  0
M  END
$$$$
