QRV.pdb
     RDKit          3D

 28 27  0  0  1  0  0  0  0  0999 V2000
   15.8888  -19.8106  -11.6757 N   0  0  0  0  0  0  0  0  0  0  0  0
   16.9596  -19.6863  -12.5946 C   0  0  0  0  0  0  0  0  0  0  0  0
   17.2125  -18.5797  -13.1081 O   0  0  0  0  0  0  0  0  0  0  0  0
   17.7613  -20.8762  -12.9284 C   0  0  0  0  0  0  0  0  0  0  0  0
   17.2983  -22.0319  -12.0856 C   0  0  0  0  0  0  0  0  0  0  0  0
   17.9767  -23.3293  -12.3753 C   0  0  2  0  0  0  0  0  0  0  0  0
   17.6619  -23.7042  -13.7559 N   0  0  0  0  0  0  0  0  0  0  0  0
   17.7064  -24.4215  -11.4363 C   0  0  0  0  0  0  0  0  0  0  0  0
   16.5575  -24.8810  -11.3242 O   0  0  0  0  0  0  0  0  0  0  0  0
   22.3585  -31.0784   -9.8142 N   0  0  0  0  0  0  0  0  0  0  0  0
   21.6408  -30.3442  -10.8052 C   0  0  0  0  0  0  0  0  0  0  0  0
   21.9299  -30.5400  -12.0498 N   0  0  0  0  0  0  0  0  0  0  0  0
   20.6286  -29.4202  -10.4249 N   0  0  0  0  0  0  0  0  0  0  0  0
   20.0298  -29.4633   -9.1296 C   0  0  0  0  0  0  0  0  0  0  0  0
   19.0177  -28.3481   -8.8853 C   0  0  0  0  0  0  0  0  0  0  0  0
   19.3842  -27.2305   -9.8281 C   0  0  0  0  0  0  0  0  0  0  0  0
   18.4993  -26.0363   -9.7003 C   0  0  2  0  0  0  0  0  0  0  0  0
   18.7491  -24.9810  -10.6299 N   0  0  0  0  0  0  0  0  0  0  0  0
   18.5327  -25.5280   -8.2801 C   0  0  0  0  0  0  0  0  0  0  0  0
   19.4469  -24.7727   -7.8726 O   0  0  0  0  0  0  0  0  0  0  0  0
   21.4446  -30.0302  -12.8011 C   0  0  0  0  0  0  0  0  0  0  0  0
   15.7818  -24.7950   -4.2055 C   0  0  2  0  0  0  0  0  0  0  0  0
   15.9546  -25.2887   -5.6021 C   0  0  0  0  0  0  0  0  0  0  0  0
   15.2422  -24.4060   -6.5749 C   0  0  1  0  0  0  0  0  0  0  0  0
   17.4120  -25.3771   -6.0095 N   0  0  0  0  0  0  0  0  0  0  0  0
   17.5217  -25.8936   -7.3572 C   0  0  0  0  0  0  0  0  0  0  0  0
   18.2108  -26.2374   -5.1161 O   0  0  0  0  0  0  0  0  0  0  0  0
   18.2629  -27.4945   -5.2390 O   0  0  0  0  0  0  0  0  0  0  0  0
  2  3  2  0
  2  1  1  0
  4  2  1  0
  5  4  1  0
  6  8  1  0
  6  5  1  0
  6  7  1  6
  8 18  1  0
  9  8  2  0
 11 10  1  0
 11 12  2  0
 13 11  1  0
 14 13  1  0
 14 15  1  0
 16 15  1  0
 17 16  1  1
 17 19  1  0
 18 17  1  0
 19 20  2  0
 19 25  1  0
 22 21  1  1
 22 23  1  0
 24 26  1  0
 24 22  1  0
 24 25  1  6
 26 28  1  0
 27 26  2  0
M  END
$$$$
