QRV.pdb
     RDKit          3D

 28 27  0  0  1  0  0  0  0  0999 V2000
   28.3418  -23.3405  -20.4317 N   0  0  0  0  0  0  0  0  0  0  0  0
   29.5425  -23.3687  -19.6809 C   0  0  0  0  0  0  0  0  0  0  0  0
   30.6370  -23.4910  -20.2635 O   0  0  0  0  0  0  0  0  0  0  0  0
   29.4753  -23.2514  -18.2140 C   0  0  0  0  0  0  0  0  0  0  0  0
   28.0348  -23.1495  -17.7955 C   0  0  0  0  0  0  0  0  0  0  0  0
   27.6688  -21.8713  -17.1176 C   0  0  2  0  0  0  0  0  0  0  0  0
   28.9093  -21.1934  -16.7336 N   0  0  0  0  0  0  0  0  0  0  0  0
   26.7353  -21.9826  -15.9934 C   0  0  0  0  0  0  0  0  0  0  0  0
   25.6729  -22.6140  -16.1218 O   0  0  0  0  0  0  0  0  0  0  0  0
   23.6438  -19.9275   -9.0689 N   0  0  0  0  0  0  0  0  0  0  0  0
   24.4534  -20.8130   -8.2965 C   0  0  0  0  0  0  0  0  0  0  0  0
   23.9831  -21.2661   -7.1809 N   0  0  0  0  0  0  0  0  0  0  0  0
   25.7481  -21.1869   -8.7514 N   0  0  0  0  0  0  0  0  0  0  0  0
   26.3082  -20.6317   -9.9415 C   0  0  0  0  0  0  0  0  0  0  0  0
   25.5960  -21.0722  -11.2169 C   0  0  0  0  0  0  0  0  0  0  0  0
   26.6212  -21.0015  -12.3196 C   0  0  0  0  0  0  0  0  0  0  0  0
   26.0806  -21.3918  -13.6542 C   0  0  2  0  0  0  0  0  0  0  0  0
   27.0194  -21.3707  -14.7303 N   0  0  0  0  0  0  0  0  0  0  0  0
   24.8671  -20.5548  -13.9759 C   0  0  0  0  0  0  0  0  0  0  0  0
   24.9350  -19.3064  -14.0714 O   0  0  0  0  0  0  0  0  0  0  0  0
   24.5289  -21.9069   -6.5882 C   0  0  0  0  0  0  0  0  0  0  0  0
   20.4526  -20.3004  -16.0480 C   0  0  2  0  0  0  0  0  0  0  0  0
   21.7764  -20.9262  -15.7650 C   0  0  0  0  0  0  0  0  0  0  0  0
   22.7460  -20.6520  -16.8684 C   0  0  1  0  0  0  0  0  0  0  0  0
   22.3800  -20.4415  -14.4617 N   0  0  0  0  0  0  0  0  0  0  0  0
   23.6035  -21.1622  -14.1813 C   0  0  0  0  0  0  0  0  0  0  0  0
   21.4725  -20.6013  -13.3096 O   0  0  0  0  0  0  0  0  0  0  0  0
   21.3333  -21.6953  -12.6916 O   0  0  0  0  0  0  0  0  0  0  0  0
  2  3  2  0
  2  1  1  0
  4  2  1  0
  5  4  1  0
  6  8  1  0
  6  5  1  0
  6  7  1  1
  8 18  1  0
  9  8  2  0
 11 10  1  0
 11 12  2  0
 13 11  1  0
 14 13  1  0
 14 15  1  0
 16 15  1  0
 17 16  1  1
 17 19  1  0
 18 17  1  0
 19 20  2  0
 19 25  1  0
 22 21  1  6
 22 23  1  0
 24 26  1  0
 24 22  1  0
 24 25  1  6
 26 28  1  0
 27 26  2  0
M  END
$$$$
