QRV.pdb
     RDKit          3D

 28 27  0  0  1  0  0  0  0  0999 V2000
   28.8065  -16.9760  -17.0173 N   0  0  0  0  0  0  0  0  0  0  0  0
   27.9600  -17.7628  -17.8362 C   0  0  0  0  0  0  0  0  0  0  0  0
   27.8836  -17.5283  -19.0575 O   0  0  0  0  0  0  0  0  0  0  0  0
   27.1799  -18.8527  -17.2250 C   0  0  0  0  0  0  0  0  0  0  0  0
   27.4835  -18.9078  -15.7535 C   0  0  0  0  0  0  0  0  0  0  0  0
   27.5901  -20.2845  -15.1874 C   0  0  2  0  0  0  0  0  0  0  0  0
   27.9180  -21.1987  -16.2841 N   0  0  0  0  0  0  0  0  0  0  0  0
   26.4393  -20.7526  -14.4102 C   0  0  0  0  0  0  0  0  0  0  0  0
   25.6440  -21.5718  -14.9003 O   0  0  0  0  0  0  0  0  0  0  0  0
   29.9056  -21.7259  -10.9569 N   0  0  0  0  0  0  0  0  0  0  0  0
   29.4156  -21.2960   -9.6876 C   0  0  0  0  0  0  0  0  0  0  0  0
   30.2691  -20.9559   -8.7782 N   0  0  0  0  0  0  0  0  0  0  0  0
   28.0167  -21.2427   -9.4358 N   0  0  0  0  0  0  0  0  0  0  0  0
   27.0685  -21.6965  -10.4020 C   0  0  0  0  0  0  0  0  0  0  0  0
   25.6174  -21.4662   -9.9910 C   0  0  0  0  0  0  0  0  0  0  0  0
   25.1008  -20.3547  -10.8682 C   0  0  0  0  0  0  0  0  0  0  0  0
   25.0733  -20.7101  -12.3168 C   0  0  2  0  0  0  0  0  0  0  0  0
   26.2025  -20.2811  -13.0789 N   0  0  0  0  0  0  0  0  0  0  0  0
   23.7852  -20.2253  -12.9352 C   0  0  0  0  0  0  0  0  0  0  0  0
   23.6329  -19.0319  -13.2884 O   0  0  0  0  0  0  0  0  0  0  0  0
   29.9659  -20.6630   -7.8390 C   0  0  0  0  0  0  0  0  0  0  0  0
   22.2435  -21.4937  -15.9997 C   0  0  2  0  0  0  0  0  0  0  0  0
   21.1807  -21.6246  -14.9617 C   0  0  0  0  0  0  0  0  0  0  0  0
   21.0492  -23.0412  -14.5046 C   0  0  2  0  0  0  0  0  0  0  0  0
   21.4416  -20.7501  -13.7514 N   0  0  0  0  0  0  0  0  0  0  0  0
   22.7001  -21.1140  -13.1362 C   0  0  0  0  0  0  0  0  0  0  0  0
   20.3810  -20.8449  -12.7303 O   0  0  0  0  0  0  0  0  0  0  0  0
   20.5279  -21.4743  -11.6439 O   0  0  0  0  0  0  0  0  0  0  0  0
  2  3  2  0
  2  1  1  0
  4  2  1  0
  5  4  1  0
  6  8  1  0
  6  5  1  0
  6  7  1  6
  8 18  1  0
  9  8  2  0
 11 10  1  0
 11 12  2  0
 13 11  1  0
 14 13  1  0
 14 15  1  0
 16 15  1  0
 17 16  1  1
 17 19  1  0
 18 17  1  0
 19 20  2  0
 19 25  1  0
 22 21  1  6
 22 23  1  0
 24 26  1  0
 24 22  1  0
 24 25  1  1
 26 28  1  0
 27 26  2  0
M  END
$$$$
