QRV.pdb
     RDKit          3D

 28 27  0  0  1  0  0  0  0  0999 V2000
   27.1381  -28.5057  -16.2329 N   0  0  0  0  0  0  0  0  0  0  0  0
   28.4336  -28.4257  -16.8001 C   0  0  0  0  0  0  0  0  0  0  0  0
   29.0262  -29.4658  -17.1453 O   0  0  0  0  0  0  0  0  0  0  0  0
   29.0612  -27.1043  -16.9738 C   0  0  0  0  0  0  0  0  0  0  0  0
   28.0994  -26.0411  -16.5210 C   0  0  0  0  0  0  0  0  0  0  0  0
   27.3702  -25.3464  -17.6224 C   0  0  2  0  0  0  0  0  0  0  0  0
   28.3358  -24.5213  -18.3521 N   0  0  0  0  0  0  0  0  0  0  0  0
   26.1843  -24.5813  -17.2277 C   0  0  0  0  0  0  0  0  0  0  0  0
   25.5763  -24.8639  -16.1816 O   0  0  0  0  0  0  0  0  0  0  0  0
   21.4571  -20.6481  -20.7118 N   0  0  0  0  0  0  0  0  0  0  0  0
   20.9682  -19.5397  -19.9577 C   0  0  0  0  0  0  0  0  0  0  0  0
   19.7936  -19.0750  -20.2324 N   0  0  0  0  0  0  0  0  0  0  0  0
   21.7604  -18.9649  -18.9258 N   0  0  0  0  0  0  0  0  0  0  0  0
   23.0980  -19.4012  -18.6834 C   0  0  0  0  0  0  0  0  0  0  0  0
   23.1859  -20.6571  -17.8216 C   0  0  0  0  0  0  0  0  0  0  0  0
   24.3654  -21.4416  -18.3365 C   0  0  0  0  0  0  0  0  0  0  0  0
   24.5176  -22.7748  -17.6846 C   0  0  2  0  0  0  0  0  0  0  0  0
   25.6988  -23.4995  -18.0306 N   0  0  0  0  0  0  0  0  0  0  0  0
   23.2810  -23.6042  -17.9281 C   0  0  0  0  0  0  0  0  0  0  0  0
   23.0228  -24.0853  -19.0569 O   0  0  0  0  0  0  0  0  0  0  0  0
   19.4035  -18.2670  -19.7275 C   0  0  0  0  0  0  0  0  0  0  0  0
   22.3003  -26.7628  -16.2672 C   0  0  2  0  0  0  0  0  0  0  0  0
   21.1855  -25.8050  -16.0146 C   0  0  0  0  0  0  0  0  0  0  0  0
   21.2719  -25.2327  -14.6369 C   0  0  2  0  0  0  0  0  0  0  0  0
   21.1661  -24.6624  -17.0106 N   0  0  0  0  0  0  0  0  0  0  0  0
   22.3670  -23.8654  -16.8774 C   0  0  0  0  0  0  0  0  0  0  0  0
   19.9992  -23.7744  -16.8489 O   0  0  0  0  0  0  0  0  0  0  0  0
   18.8740  -24.0168  -17.3718 O   0  0  0  0  0  0  0  0  0  0  0  0
  2  3  2  0
  2  1  1  0
  4  2  1  0
  5  4  1  0
  6  8  1  0
  6  5  1  0
  6  7  1  1
  8 18  1  0
  9  8  2  0
 11 10  1  0
 11 12  2  0
 13 11  1  0
 14 13  1  0
 14 15  1  0
 16 15  1  0
 17 16  1  6
 17 19  1  0
 18 17  1  0
 19 20  2  0
 19 25  1  0
 22 21  1  1
 22 23  1  0
 24 26  1  0
 24 22  1  0
 24 25  1  6
 26 28  1  0
 27 26  2  0
M  END
$$$$
