QRV.pdb
     RDKit          3D

 28 27  0  0  1  0  0  0  0  0999 V2000
   28.3803  -25.1182  -16.3460 N   0  0  0  0  0  0  0  0  0  0  0  0
   29.5006  -24.9595  -17.1980 C   0  0  0  0  0  0  0  0  0  0  0  0
   30.0236  -25.9577  -17.7294 O   0  0  0  0  0  0  0  0  0  0  0  0
   30.0308  -23.6071  -17.4430 C   0  0  0  0  0  0  0  0  0  0  0  0
   29.2826  -22.6242  -16.5860 C   0  0  0  0  0  0  0  0  0  0  0  0
   28.1155  -21.9746  -17.2517 C   0  0  2  0  0  0  0  0  0  0  0  0
   28.5813  -21.3957  -18.5141 N   0  0  0  0  0  0  0  0  0  0  0  0
   27.3725  -21.0025  -16.4450 C   0  0  0  0  0  0  0  0  0  0  0  0
   27.4845  -19.7858  -16.6703 O   0  0  0  0  0  0  0  0  0  0  0  0
   20.2093  -19.3204  -14.5865 N   0  0  0  0  0  0  0  0  0  0  0  0
   20.4062  -18.1511  -15.3804 C   0  0  0  0  0  0  0  0  0  0  0  0
   19.6471  -17.1261  -15.1703 N   0  0  0  0  0  0  0  0  0  0  0  0
   21.4195  -18.1201  -16.3781 N   0  0  0  0  0  0  0  0  0  0  0  0
   22.3016  -19.2247  -16.5780 C   0  0  0  0  0  0  0  0  0  0  0  0
   23.2452  -19.4749  -15.4056 C   0  0  0  0  0  0  0  0  0  0  0  0
   24.4213  -20.2346  -15.9639 C   0  0  0  0  0  0  0  0  0  0  0  0
   25.4242  -20.6152  -14.9271 C   0  0  2  0  0  0  0  0  0  0  0  0
   26.5076  -21.4255  -15.3850 N   0  0  0  0  0  0  0  0  0  0  0  0
   24.7248  -21.2563  -13.7540 C   0  0  0  0  0  0  0  0  0  0  0  0
   23.9420  -22.2244  -13.9030 O   0  0  0  0  0  0  0  0  0  0  0  0
   19.7755  -16.2466  -15.6897 C   0  0  0  0  0  0  0  0  0  0  0  0
   26.5187  -21.1886  -10.0841 C   0  0  2  0  0  0  0  0  0  0  0  0
   25.0615  -20.8794  -10.0131 C   0  0  0  0  0  0  0  0  0  0  0  0
   24.8325  -19.4149   -9.8244 C   0  0  2  0  0  0  0  0  0  0  0  0
   24.3125  -21.3285  -11.2521 N   0  0  0  0  0  0  0  0  0  0  0  0
   24.9349  -20.7775  -12.4370 C   0  0  0  0  0  0  0  0  0  0  0  0
   22.8923  -20.9295  -11.2454 O   0  0  0  0  0  0  0  0  0  0  0  0
   22.4544  -19.9377  -11.8957 O   0  0  0  0  0  0  0  0  0  0  0  0
  2  3  2  0
  2  1  1  0
  4  2  1  0
  5  4  1  0
  6  8  1  0
  6  5  1  0
  6  7  1  6
  8 18  1  0
  9  8  2  0
 11 10  1  0
 11 12  2  0
 13 11  1  0
 14 13  1  0
 14 15  1  0
 16 15  1  0
 17 16  1  6
 17 19  1  0
 18 17  1  0
 19 20  2  0
 19 25  1  0
 22 21  1  1
 22 23  1  0
 24 26  1  0
 24 22  1  0
 24 25  1  1
 26 28  1  0
 27 26  2  0
M  END
$$$$
