QRV.pdb
     RDKit          3D

 28 27  0  0  1  0  0  0  0  0999 V2000
   27.8410  -19.0795  -20.0034 N   0  0  0  0  0  0  0  0  0  0  0  0
   28.5854  -20.1296  -19.4121 C   0  0  0  0  0  0  0  0  0  0  0  0
   29.5767  -19.8669  -18.7046 O   0  0  0  0  0  0  0  0  0  0  0  0
   28.1706  -21.5237  -19.6455 C   0  0  0  0  0  0  0  0  0  0  0  0
   27.1568  -21.9144  -18.6062 C   0  0  0  0  0  0  0  0  0  0  0  0
   27.7086  -22.1005  -17.2321 C   0  0  2  0  0  0  0  0  0  0  0  0
   28.4558  -23.3603  -17.2132 N   0  0  0  0  0  0  0  0  0  0  0  0
   26.7422  -22.0207  -16.1334 C   0  0  0  0  0  0  0  0  0  0  0  0
   25.6280  -22.5603  -16.2390 O   0  0  0  0  0  0  0  0  0  0  0  0
   26.0311  -19.9315   -8.2690 N   0  0  0  0  0  0  0  0  0  0  0  0
   24.8905  -20.7707   -8.4450 C   0  0  0  0  0  0  0  0  0  0  0  0
   23.9047  -20.6557   -7.6167 N   0  0  0  0  0  0  0  0  0  0  0  0
   24.8448  -21.7096   -9.5123 N   0  0  0  0  0  0  0  0  0  0  0  0
   25.7797  -21.6579  -10.5901 C   0  0  0  0  0  0  0  0  0  0  0  0
   25.5713  -20.4705  -11.5251 C   0  0  0  0  0  0  0  0  0  0  0  0
   26.6192  -20.5911  -12.6019 C   0  0  0  0  0  0  0  0  0  0  0  0
   26.0959  -21.1721  -13.8724 C   0  0  2  0  0  0  0  0  0  0  0  0
   27.0531  -21.3240  -14.9216 N   0  0  0  0  0  0  0  0  0  0  0  0
   24.8998  -20.3798  -14.3394 C   0  0  0  0  0  0  0  0  0  0  0  0
   25.0095  -19.1966  -14.7398 O   0  0  0  0  0  0  0  0  0  0  0  0
   23.0471  -21.2157   -7.7207 C   0  0  0  0  0  0  0  0  0  0  0  0
   22.6445  -20.4237  -17.0664 C   0  0  2  0  0  0  0  0  0  0  0  0
   21.7597  -20.6824  -15.8941 C   0  0  0  0  0  0  0  0  0  0  0  0
   21.4289  -22.1353  -15.7822 C   0  0  2  0  0  0  0  0  0  0  0  0
   22.3800  -20.2274  -14.5879 N   0  0  0  0  0  0  0  0  0  0  0  0
   23.6054  -20.9562  -14.3384 C   0  0  0  0  0  0  0  0  0  0  0  0
   21.4863  -20.4110  -13.4287 O   0  0  0  0  0  0  0  0  0  0  0  0
   21.6421  -21.3359  -12.5811 O   0  0  0  0  0  0  0  0  0  0  0  0
  2  3  2  0
  2  1  1  0
  4  2  1  0
  5  4  1  0
  6  8  1  0
  6  5  1  0
  6  7  1  6
  8 18  1  0
  9  8  2  0
 11 10  1  0
 11 12  2  0
 13 11  1  0
 14 13  1  0
 14 15  1  0
 16 15  1  0
 17 16  1  1
 17 19  1  0
 18 17  1  0
 19 20  2  0
 19 25  1  0
 22 21  1  6
 22 23  1  0
 24 26  1  0
 24 22  1  0
 24 25  1  1
 26 28  1  0
 27 26  2  0
M  END
$$$$
