QRV.pdb
     RDKit          3D

 28 27  0  0  1  0  0  0  0  0999 V2000
   29.0818  -16.5016  -17.8585 N   0  0  0  0  0  0  0  0  0  0  0  0
   27.7705  -17.0355  -17.9002 C   0  0  0  0  0  0  0  0  0  0  0  0
   27.0563  -16.8518  -18.9044 O   0  0  0  0  0  0  0  0  0  0  0  0
   27.2713  -17.8048  -16.7473 C   0  0  0  0  0  0  0  0  0  0  0  0
   28.3290  -17.8296  -15.6790 C   0  0  0  0  0  0  0  0  0  0  0  0
   28.4079  -19.1035  -14.9057 C   0  0  2  0  0  0  0  0  0  0  0  0
   28.4714  -20.2095  -15.8641 N   0  0  0  0  0  0  0  0  0  0  0  0
   27.3642  -19.3114  -13.8982 C   0  0  0  0  0  0  0  0  0  0  0  0
   27.1319  -18.4363  -13.0473 O   0  0  0  0  0  0  0  0  0  0  0  0
   22.3618  -24.7772  -13.3688 N   0  0  0  0  0  0  0  0  0  0  0  0
   21.4393  -23.7157  -13.1275 C   0  0  0  0  0  0  0  0  0  0  0  0
   20.5015  -23.8976  -12.2565 N   0  0  0  0  0  0  0  0  0  0  0  0
   21.5562  -22.4856  -13.8319 N   0  0  0  0  0  0  0  0  0  0  0  0
   22.6067  -22.2634  -14.7729 C   0  0  0  0  0  0  0  0  0  0  0  0
   23.5434  -21.1226  -14.3871 C   0  0  0  0  0  0  0  0  0  0  0  0
   24.4753  -21.6764  -13.3398 C   0  0  0  0  0  0  0  0  0  0  0  0
   25.5372  -20.7138  -12.9259 C   0  0  2  0  0  0  0  0  0  0  0  0
   26.5932  -20.5178  -13.8674 N   0  0  0  0  0  0  0  0  0  0  0  0
   26.0808  -21.1062  -11.5743 C   0  0  0  0  0  0  0  0  0  0  0  0
   26.8570  -22.0810  -11.4346 O   0  0  0  0  0  0  0  0  0  0  0  0
   19.8057  -23.1661  -12.0551 C   0  0  0  0  0  0  0  0  0  0  0  0
   27.2728  -19.8908   -7.0197 C   0  0  2  0  0  0  0  0  0  0  0  0
   26.9810  -19.6528   -8.4626 C   0  0  0  0  0  0  0  0  0  0  0  0
   28.2433  -19.5611   -9.2571 C   0  0  1  0  0  0  0  0  0  0  0  0
   26.1105  -20.7380   -9.0647 N   0  0  0  0  0  0  0  0  0  0  0  0
   25.7257  -20.3769  -10.4125 C   0  0  0  0  0  0  0  0  0  0  0  0
   24.8848  -20.9949   -8.2849 O   0  0  0  0  0  0  0  0  0  0  0  0
   24.8931  -21.5852   -7.1670 O   0  0  0  0  0  0  0  0  0  0  0  0
  2  3  2  0
  2  1  1  0
  4  2  1  0
  5  4  1  0
  6  8  1  0
  6  5  1  0
  6  7  1  6
  8 18  1  0
  9  8  2  0
 11 10  1  0
 11 12  2  0
 13 11  1  0
 14 13  1  0
 14 15  1  0
 16 15  1  0
 17 16  1  6
 17 19  1  0
 18 17  1  0
 19 20  2  0
 19 25  1  0
 22 21  1  1
 22 23  1  0
 24 26  1  0
 24 22  1  0
 24 25  1  1
 26 28  1  0
 27 26  2  0
M  END
$$$$
