QRV.pdb
     RDKit          3D

 28 27  0  0  1  0  0  0  0  0999 V2000
   27.8346  -18.6259   -7.5109 N   0  0  0  0  0  0  0  0  0  0  0  0
   27.5636  -19.4373   -6.3820 C   0  0  0  0  0  0  0  0  0  0  0  0
   27.8015  -19.0082   -5.2367 O   0  0  0  0  0  0  0  0  0  0  0  0
   27.0005  -20.7835   -6.5836 C   0  0  0  0  0  0  0  0  0  0  0  0
   26.8746  -21.0468   -8.0585 C   0  0  0  0  0  0  0  0  0  0  0  0
   25.7179  -20.3728   -8.7183 C   0  0  2  0  0  0  0  0  0  0  0  0
   24.5034  -20.7446   -7.9886 N   0  0  0  0  0  0  0  0  0  0  0  0
   25.5797  -20.5948  -10.1602 C   0  0  0  0  0  0  0  0  0  0  0  0
   26.5819  -20.5825  -10.8946 O   0  0  0  0  0  0  0  0  0  0  0  0
   18.3674  -20.7272  -15.1893 N   0  0  0  0  0  0  0  0  0  0  0  0
   19.4402  -20.1257  -15.9129 C   0  0  0  0  0  0  0  0  0  0  0  0
   19.1582  -19.3818  -16.9318 N   0  0  0  0  0  0  0  0  0  0  0  0
   20.7884  -20.3423  -15.5148 N   0  0  0  0  0  0  0  0  0  0  0  0
   21.1164  -21.2395  -14.4538 C   0  0  0  0  0  0  0  0  0  0  0  0
   22.6059  -21.2819  -14.1261 C   0  0  0  0  0  0  0  0  0  0  0  0
   22.7233  -20.9863  -12.6528 C   0  0  0  0  0  0  0  0  0  0  0  0
   24.1339  -20.9492  -12.1687 C   0  0  2  0  0  0  0  0  0  0  0  0
   24.2981  -20.8276  -10.7551 N   0  0  0  0  0  0  0  0  0  0  0  0
   24.8939  -19.8692  -12.8983 C   0  0  0  0  0  0  0  0  0  0  0  0
   24.7767  -18.6592  -12.5907 O   0  0  0  0  0  0  0  0  0  0  0  0
   19.8969  -18.9269  -17.4861 C   0  0  0  0  0  0  0  0  0  0  0  0
   28.7926  -18.8889  -15.7846 C   0  0  2  0  0  0  0  0  0  0  0  0
   27.9559  -19.7940  -14.9450 C   0  0  0  0  0  0  0  0  0  0  0  0
   28.6080  -20.0573  -13.6265 C   0  0  1  0  0  0  0  0  0  0  0  0
   26.5696  -19.2347  -14.6938 N   0  0  0  0  0  0  0  0  0  0  0  0
   25.7703  -20.1949  -13.9630 C   0  0  0  0  0  0  0  0  0  0  0  0
   25.8541  -18.8840  -15.9353 O   0  0  0  0  0  0  0  0  0  0  0  0
   24.9440  -19.6078  -16.4314 O   0  0  0  0  0  0  0  0  0  0  0  0
  2  3  2  0
  2  1  1  0
  4  2  1  0
  5  4  1  0
  6  8  1  0
  6  5  1  0
  6  7  1  1
  8 18  1  0
  9  8  2  0
 11 10  1  0
 11 12  2  0
 13 11  1  0
 14 13  1  0
 14 15  1  0
 16 15  1  0
 17 16  1  1
 17 19  1  0
 18 17  1  0
 19 20  2  0
 19 25  1  0
 22 21  1  6
 22 23  1  0
 24 26  1  0
 24 22  1  0
 24 25  1  6
 26 28  1  0
 27 26  2  0
M  END
$$$$
