QRV.pdb
     RDKit          3D

 28 27  0  0  1  0  0  0  0  0999 V2000
   22.2139  -29.6309  -15.2709 N   0  0  0  0  0  0  0  0  0  0  0  0
   23.0565  -29.4886  -16.4005 C   0  0  0  0  0  0  0  0  0  0  0  0
   23.3043  -30.4756  -17.1193 O   0  0  0  0  0  0  0  0  0  0  0  0
   23.6285  -28.1663  -16.7078 C   0  0  0  0  0  0  0  0  0  0  0  0
   23.1647  -27.1787  -15.6733 C   0  0  0  0  0  0  0  0  0  0  0  0
   21.9230  -26.4326  -16.0325 C   0  0  2  0  0  0  0  0  0  0  0  0
   22.2225  -25.5916  -17.1938 N   0  0  0  0  0  0  0  0  0  0  0  0
   21.2946  -25.6690  -14.9510 C   0  0  0  0  0  0  0  0  0  0  0  0
   21.4242  -26.0330  -13.7701 O   0  0  0  0  0  0  0  0  0  0  0  0
   24.0950  -20.9954  -16.1307 N   0  0  0  0  0  0  0  0  0  0  0  0
   23.2714  -20.0580  -15.4385 C   0  0  0  0  0  0  0  0  0  0  0  0
   23.3587  -18.8074  -15.7537 N   0  0  0  0  0  0  0  0  0  0  0  0
   22.3740  -20.4974  -14.4262 N   0  0  0  0  0  0  0  0  0  0  0  0
   21.6506  -21.7217  -14.5528 C   0  0  0  0  0  0  0  0  0  0  0  0
   20.3339  -21.5795  -15.3103 C   0  0  0  0  0  0  0  0  0  0  0  0
   19.3295  -22.4301  -14.5758 C   0  0  0  0  0  0  0  0  0  0  0  0
   19.8613  -23.7686  -14.1870 C   0  0  2  0  0  0  0  0  0  0  0  0
   20.5207  -24.4956  -15.2246 N   0  0  0  0  0  0  0  0  0  0  0  0
   18.7615  -24.5911  -13.5623 C   0  0  0  0  0  0  0  0  0  0  0  0
   17.8147  -25.0504  -14.2440 O   0  0  0  0  0  0  0  0  0  0  0  0
   22.7895  -18.0925  -15.2796 C   0  0  0  0  0  0  0  0  0  0  0  0
   17.3342  -27.2260   -9.6111 C   0  0  2  0  0  0  0  0  0  0  0  0
   18.3458  -26.4074  -10.3396 C   0  0  0  0  0  0  0  0  0  0  0  0
   19.4368  -27.2679  -10.8894 C   0  0  1  0  0  0  0  0  0  0  0  0
   17.7376  -25.6138  -11.4790 N   0  0  0  0  0  0  0  0  0  0  0  0
   18.7674  -24.8704  -12.1732 C   0  0  0  0  0  0  0  0  0  0  0  0
   16.7002  -24.6645  -11.0330 O   0  0  0  0  0  0  0  0  0  0  0  0
   16.9537  -23.4648  -10.7253 O   0  0  0  0  0  0  0  0  0  0  0  0
  2  3  2  0
  2  1  1  0
  4  2  1  0
  5  4  1  0
  6  8  1  0
  6  5  1  0
  6  7  1  6
  8 18  1  0
  9  8  2  0
 11 10  1  0
 11 12  2  0
 13 11  1  0
 14 13  1  0
 14 15  1  0
 16 15  1  0
 17 16  1  6
 17 19  1  0
 18 17  1  0
 19 20  2  0
 19 25  1  0
 22 21  1  1
 22 23  1  0
 24 26  1  0
 24 22  1  0
 24 25  1  1
 26 28  1  0
 27 26  2  0
M  END
$$$$
