HVI.pdb
     RDKit          3D

 26 26  0  0  1  0  0  0  0  0999 V2000
   14.5893  -14.1911  -14.4358 N   0  0  0  0  0  0  0  0  0  0  0  0
   15.8133  -13.4482  -14.6337 C   0  0  1  0  0  0  0  0  0  0  0  0
   16.3948  -13.8166  -15.9863 C   0  0  0  0  0  0  0  0  0  0  0  0
   16.9913  -15.1936  -15.9064 C   0  0  0  0  0  0  0  0  0  0  0  0
   18.3232  -15.5177  -15.8234 C   0  0  0  0  0  0  0  0  0  0  0  0
   18.4439  -16.8527  -15.7706 N   0  0  0  0  0  0  0  0  0  0  0  0
   17.2018  -17.3588  -15.8200 C   0  0  0  0  0  0  0  0  0  0  0  0
   16.3302  -16.3635  -15.9015 N   0  0  0  0  0  0  0  0  0  0  0  0
   15.4752  -12.0080  -14.6727 C   0  0  0  0  0  0  0  0  0  0  0  0
   14.5585  -11.5536  -15.4316 O   0  0  0  0  0  0  0  0  0  0  0  0
   14.3574  -10.0564  -11.8536 C   0  0  0  0  0  0  0  0  0  0  0  0
   15.5310   -9.2893  -12.3998 C   0  0  1  0  0  0  0  0  0  0  0  0
   16.7414   -9.6379  -11.5744 C   0  0  0  0  0  0  0  0  0  0  0  0
   15.7852   -9.6529  -13.8702 C   0  0  2  0  0  0  0  0  0  0  0  0
   16.1493  -11.0560  -13.8711 N   0  0  0  0  0  0  0  0  0  0  0  0
   16.9760   -8.8646  -14.3506 C   0  0  0  0  0  0  0  0  0  0  0  0
   18.1480   -9.2188  -14.1176 O   0  0  0  0  0  0  0  0  0  0  0  0
   16.9654   -7.0611  -19.4207 C   0  0  0  0  0  0  0  0  0  0  0  0
   17.3243   -7.5572  -18.0725 C   0  0  0  0  0  0  0  0  0  0  0  0
   17.6871   -6.5516  -17.0363 C   0  0  2  0  0  0  0  0  0  0  0  0
   18.7565   -5.6491  -17.6169 C   0  0  0  0  0  0  0  0  0  0  0  0
   17.9448   -6.9936  -15.6627 C   0  0  2  0  0  0  0  0  0  0  0  0
   16.7942   -7.6856  -15.0887 N   0  0  0  0  0  0  0  0  0  0  0  0
   18.2453   -5.8867  -14.7466 C   0  0  0  0  0  0  0  0  0  0  0  0
   19.5069   -5.3964  -14.4412 O   0  0  0  0  0  0  0  0  0  0  0  0
   17.2447   -5.3194  -14.1648 O   0  0  0  0  0  0  0  0  0  0  0  0
  2  1  1  6
  3  2  1  0
  3  4  1  0
  4  8  1  0
  5  6  1  0
  5  4  2  0
  6  7  1  0
  7  8  2  0
  9 10  2  0
  9  2  1  0
 12 11  1  1
 12 14  1  0
 13 12  1  0
 14 16  1  0
 14 15  1  1
 15  9  1  0
 16 17  2  0
 19 18  1  0
 20 21  1  6
 20 19  1  0
 22 20  1  0
 22 23  1  1
 23 16  1  0
 24 22  1  0
 25 24  1  0
 26 24  2  0
M  END
$$$$
