HVI.pdb
     RDKit          3D

 26 26  0  0  1  0  0  0  0  0999 V2000
   20.5528  -17.0787  -16.9830 N   0  0  0  0  0  0  0  0  0  0  0  0
   21.3420  -17.0065  -15.7742 C   0  0  1  0  0  0  0  0  0  0  0  0
   20.5180  -17.5475  -14.6202 C   0  0  0  0  0  0  0  0  0  0  0  0
   19.3935  -16.5939  -14.3294 C   0  0  0  0  0  0  0  0  0  0  0  0
   18.0472  -16.8370  -14.4490 C   0  0  0  0  0  0  0  0  0  0  0  0
   17.3724  -15.7330  -14.0950 N   0  0  0  0  0  0  0  0  0  0  0  0
   18.2857  -14.8091  -13.7575 C   0  0  0  0  0  0  0  0  0  0  0  0
   19.4983  -15.3255  -13.8982 N   0  0  0  0  0  0  0  0  0  0  0  0
   22.5147  -17.8942  -15.9375 C   0  0  0  0  0  0  0  0  0  0  0  0
   22.3867  -19.1419  -16.1608 O   0  0  0  0  0  0  0  0  0  0  0  0
   25.2209  -17.2318  -18.2372 C   0  0  0  0  0  0  0  0  0  0  0  0
   25.9403  -17.5893  -16.9649 C   0  0  1  0  0  0  0  0  0  0  0  0
   26.4677  -16.3181  -16.3538 C   0  0  0  0  0  0  0  0  0  0  0  0
   24.9912  -18.2836  -15.9768 C   0  0  2  0  0  0  0  0  0  0  0  0
   23.8417  -17.4089  -15.8552 N   0  0  0  0  0  0  0  0  0  0  0  0
   25.6721  -18.3439  -14.6341 C   0  0  0  0  0  0  0  0  0  0  0  0
   25.9369  -17.3201  -13.9743 O   0  0  0  0  0  0  0  0  0  0  0  0
   25.3451  -20.6413   -9.2828 C   0  0  0  0  0  0  0  0  0  0  0  0
   26.2986  -20.1966  -10.3247 C   0  0  0  0  0  0  0  0  0  0  0  0
   25.8191  -20.1571  -11.7336 C   0  0  2  0  0  0  0  0  0  0  0  0
   25.1949  -21.5006  -12.0514 C   0  0  0  0  0  0  0  0  0  0  0  0
   26.7018  -19.6343  -12.7805 C   0  0  2  0  0  0  0  0  0  0  0  0
   26.0343  -19.5798  -14.0781 N   0  0  0  0  0  0  0  0  0  0  0  0
   27.9050  -20.4505  -12.9822 C   0  0  0  0  0  0  0  0  0  0  0  0
   29.0591  -20.4113  -12.2130 O   0  0  0  0  0  0  0  0  0  0  0  0
   27.8931  -21.2778  -13.9706 O   0  0  0  0  0  0  0  0  0  0  0  0
  2  1  1  6
  3  2  1  0
  3  4  1  0
  4  8  1  0
  5  6  1  0
  5  4  2  0
  6  7  1  0
  7  8  2  0
  9 10  2  0
  9  2  1  0
 12 11  1  6
 12 14  1  0
 13 12  1  0
 14 16  1  0
 14 15  1  1
 15  9  1  0
 16 17  2  0
 19 18  1  0
 20 21  1  6
 20 19  1  0
 22 20  1  0
 22 23  1  6
 23 16  1  0
 24 22  1  0
 25 24  1  0
 26 24  2  0
M  END
$$$$
