HVI.pdb
     RDKit          3D

 26 26  0  0  1  0  0  0  0  0999 V2000
   25.3303  -18.1074  -15.9936 N   0  0  0  0  0  0  0  0  0  0  0  0
   26.3315  -18.4242  -15.0004 C   0  0  1  0  0  0  0  0  0  0  0  0
   27.2561  -17.2312  -14.8413 C   0  0  0  0  0  0  0  0  0  0  0  0
   28.0776  -17.0759  -16.0900 C   0  0  0  0  0  0  0  0  0  0  0  0
   29.2522  -17.7184  -16.3960 C   0  0  0  0  0  0  0  0  0  0  0  0
   29.6719  -17.3071  -17.6019 N   0  0  0  0  0  0  0  0  0  0  0  0
   28.7704  -16.4173  -18.0460 C   0  0  0  0  0  0  0  0  0  0  0  0
   27.8139  -16.2785  -17.1390 N   0  0  0  0  0  0  0  0  0  0  0  0
   25.6449  -18.6302  -13.7057 C   0  0  0  0  0  0  0  0  0  0  0  0
   24.7463  -17.8300  -13.2872 O   0  0  0  0  0  0  0  0  0  0  0  0
   25.1376  -22.3834  -12.4751 C   0  0  0  0  0  0  0  0  0  0  0  0
   24.2953  -21.2213  -12.0233 C   0  0  1  0  0  0  0  0  0  0  0  0
   23.5146  -21.6542  -10.8106 C   0  0  0  0  0  0  0  0  0  0  0  0
   25.1755  -20.0137  -11.6681 C   0  0  2  0  0  0  0  0  0  0  0  0
   25.9468  -19.7248  -12.8609 N   0  0  0  0  0  0  0  0  0  0  0  0
   26.1355  -20.4337  -10.5854 C   0  0  0  0  0  0  0  0  0  0  0  0
   27.1461  -21.1239  -10.8216 O   0  0  0  0  0  0  0  0  0  0  0  0
   27.7007  -17.1960   -6.5844 C   0  0  0  0  0  0  0  0  0  0  0  0
   27.7047  -18.3093   -7.5606 C   0  0  0  0  0  0  0  0  0  0  0  0
   27.0468  -19.5842   -7.1628 C   0  0  2  0  0  0  0  0  0  0  0  0
   27.7691  -20.1209   -5.9440 C   0  0  0  0  0  0  0  0  0  0  0  0
   26.7497  -20.5912   -8.1857 C   0  0  2  0  0  0  0  0  0  0  0  0
   25.9135  -20.0514   -9.2542 N   0  0  0  0  0  0  0  0  0  0  0  0
   26.0257  -21.7540   -7.6582 C   0  0  0  0  0  0  0  0  0  0  0  0
   26.5854  -22.9697   -7.2921 O   0  0  0  0  0  0  0  0  0  0  0  0
   24.7484  -21.6395   -7.5280 O   0  0  0  0  0  0  0  0  0  0  0  0
  2  1  1  6
  3  2  1  0
  3  4  1  0
  4  8  1  0
  5  6  1  0
  5  4  2  0
  6  7  1  0
  7  8  2  0
  9 10  2  0
  9  2  1  0
 12 11  1  1
 12 14  1  0
 13 12  1  0
 14 16  1  0
 14 15  1  6
 15  9  1  0
 16 17  2  0
 19 18  1  0
 20 21  1  1
 20 19  1  0
 22 20  1  0
 22 23  1  6
 23 16  1  0
 24 22  1  0
 25 24  1  0
 26 24  2  0
M  END
$$$$
