HVI.pdb
     RDKit          3D

 26 26  0  0  1  0  0  0  0  0999 V2000
   18.9773  -11.3834  -16.0310 N   0  0  0  0  0  0  0  0  0  0  0  0
   18.4490  -10.0690  -15.7438 C   0  0  1  0  0  0  0  0  0  0  0  0
   16.9582  -10.0691  -16.0284 C   0  0  0  0  0  0  0  0  0  0  0  0
   16.7412   -9.9896  -17.5132 C   0  0  0  0  0  0  0  0  0  0  0  0
   16.4376  -11.0238  -18.3643 C   0  0  0  0  0  0  0  0  0  0  0  0
   16.3242  -10.5424  -19.6113 N   0  0  0  0  0  0  0  0  0  0  0  0
   16.5541   -9.2219  -19.5419 C   0  0  0  0  0  0  0  0  0  0  0  0
   16.8044   -8.8901  -18.2833 N   0  0  0  0  0  0  0  0  0  0  0  0
   18.6253   -9.8091  -14.2976 C   0  0  0  0  0  0  0  0  0  0  0  0
   18.3625  -10.6936  -13.4193 O   0  0  0  0  0  0  0  0  0  0  0  0
   21.6684   -9.1268  -12.4567 C   0  0  0  0  0  0  0  0  0  0  0  0
   20.7774   -7.9322  -12.2489 C   0  0  1  0  0  0  0  0  0  0  0  0
   21.1347   -6.8978  -13.2833 C   0  0  0  0  0  0  0  0  0  0  0  0
   19.2988   -8.3212  -12.3953 C   0  0  2  0  0  0  0  0  0  0  0  0
   19.0947   -8.5664  -13.8093 N   0  0  0  0  0  0  0  0  0  0  0  0
   18.4589   -7.1327  -12.0048 C   0  0  0  0  0  0  0  0  0  0  0  0
   18.2533   -6.1784  -12.7796 O   0  0  0  0  0  0  0  0  0  0  0  0
   13.0954   -5.9050  -10.0611 C   0  0  0  0  0  0  0  0  0  0  0  0
   14.5036   -5.4610   -9.9499 C   0  0  0  0  0  0  0  0  0  0  0  0
   15.5687   -6.4262  -10.3380 C   0  0  2  0  0  0  0  0  0  0  0  0
   15.3544   -7.6999   -9.5461 C   0  0  0  0  0  0  0  0  0  0  0  0
   16.9621   -5.9753  -10.3983 C   0  0  2  0  0  0  0  0  0  0  0  0
   17.8733   -7.0665  -10.7318 N   0  0  0  0  0  0  0  0  0  0  0  0
   17.4459   -5.4229   -9.1273 C   0  0  0  0  0  0  0  0  0  0  0  0
   18.4055   -5.9899   -8.3009 O   0  0  0  0  0  0  0  0  0  0  0  0
   16.9273   -4.3094   -8.7369 O   0  0  0  0  0  0  0  0  0  0  0  0
  2  1  1  1
  3  2  1  0
  3  4  1  0
  4  8  1  0
  5  6  1  0
  5  4  2  0
  6  7  1  0
  7  8  2  0
  9 10  2  0
  9  2  1  0
 12 11  1  6
 12 14  1  0
 13 12  1  0
 14 16  1  0
 14 15  1  6
 15  9  1  0
 16 17  2  0
 19 18  1  0
 20 21  1  1
 20 19  1  0
 22 20  1  0
 22 23  1  1
 23 16  1  0
 24 22  1  0
 25 24  1  0
 26 24  2  0
M  END
$$$$
