HVI.pdb
     RDKit          3D

 26 26  0  0  1  0  0  0  0  0999 V2000
   17.2400  -14.2575  -18.2743 N   0  0  0  0  0  0  0  0  0  0  0  0
   17.3651  -13.5747  -17.0065 C   0  0  1  0  0  0  0  0  0  0  0  0
   18.2219  -14.4180  -16.0802 C   0  0  0  0  0  0  0  0  0  0  0  0
   17.4699  -15.6671  -15.7163 C   0  0  0  0  0  0  0  0  0  0  0  0
   16.2207  -15.7492  -15.1516 C   0  0  0  0  0  0  0  0  0  0  0  0
   15.9033  -17.0416  -14.9828 N   0  0  0  0  0  0  0  0  0  0  0  0
   16.9419  -17.7606  -15.4365 C   0  0  0  0  0  0  0  0  0  0  0  0
   17.8818  -16.9361  -15.8766 N   0  0  0  0  0  0  0  0  0  0  0  0
   18.0826  -12.3015  -17.2393 C   0  0  0  0  0  0  0  0  0  0  0  0
   19.1645  -12.2532  -17.9101 O   0  0  0  0  0  0  0  0  0  0  0  0
   16.5967   -9.4430  -18.9139 C   0  0  0  0  0  0  0  0  0  0  0  0
   17.1191   -8.9095  -17.6075 C   0  0  1  0  0  0  0  0  0  0  0  0
   15.9759   -8.8720  -16.6281 C   0  0  0  0  0  0  0  0  0  0  0  0
   18.2402   -9.8056  -17.0603 C   0  0  2  0  0  0  0  0  0  0  0  0
   17.6090  -11.0684  -16.7312 N   0  0  0  0  0  0  0  0  0  0  0  0
   18.7488   -9.1940  -15.7807 C   0  0  0  0  0  0  0  0  0  0  0  0
   18.2442   -9.4537  -14.6711 O   0  0  0  0  0  0  0  0  0  0  0  0
   23.4060  -10.3343  -14.3542 C   0  0  0  0  0  0  0  0  0  0  0  0
   22.0141   -9.8425  -14.4699 C   0  0  0  0  0  0  0  0  0  0  0  0
   21.7866   -8.3741  -14.3791 C   0  0  2  0  0  0  0  0  0  0  0  0
   22.5054   -7.8664  -13.1459 C   0  0  0  0  0  0  0  0  0  0  0  0
   20.4318   -7.8429  -14.5546 C   0  0  2  0  0  0  0  0  0  0  0  0
   19.8269   -8.2967  -15.8038 N   0  0  0  0  0  0  0  0  0  0  0  0
   20.3874   -6.3763  -14.5971 C   0  0  0  0  0  0  0  0  0  0  0  0
   20.2482   -5.5297  -13.5065 O   0  0  0  0  0  0  0  0  0  0  0  0
   20.4799   -5.8204  -15.7563 O   0  0  0  0  0  0  0  0  0  0  0  0
  2  1  1  6
  3  2  1  0
  3  4  1  0
  4  8  1  0
  5  6  1  0
  5  4  2  0
  6  7  1  0
  7  8  2  0
  9 10  2  0
  9  2  1  0
 12 11  1  6
 12 14  1  0
 13 12  1  0
 14 16  1  0
 14 15  1  1
 15  9  1  0
 16 17  2  0
 19 18  1  0
 20 21  1  1
 20 19  1  0
 22 20  1  0
 22 23  1  6
 23 16  1  0
 24 22  1  0
 25 24  1  0
 26 24  2  0
M  END
$$$$
