HVI.pdb
     RDKit          3D

 26 26  0  0  1  0  0  0  0  0999 V2000
   15.2774  -12.0479  -12.0705 N   0  0  0  0  0  0  0  0  0  0  0  0
   14.5166  -10.8967  -11.6400 C   0  0  1  0  0  0  0  0  0  0  0  0
   13.7162  -11.2738  -10.4069 C   0  0  0  0  0  0  0  0  0  0  0  0
   12.5201  -12.0817  -10.8252 C   0  0  0  0  0  0  0  0  0  0  0  0
   11.2006  -11.7072  -10.7573 C   0  0  0  0  0  0  0  0  0  0  0  0
   10.4397  -12.7073  -11.2268 N   0  0  0  0  0  0  0  0  0  0  0  0
   11.2732  -13.6967  -11.5846 C   0  0  0  0  0  0  0  0  0  0  0  0
   12.5213  -13.3214  -11.3437 N   0  0  0  0  0  0  0  0  0  0  0  0
   15.4711   -9.8376  -11.2436 C   0  0  0  0  0  0  0  0  0  0  0  0
   16.4096  -10.0567  -10.4103 O   0  0  0  0  0  0  0  0  0  0  0  0
   17.8859   -8.2135  -13.2254 C   0  0  0  0  0  0  0  0  0  0  0  0
   17.0479   -7.0825  -12.6936 C   0  0  1  0  0  0  0  0  0  0  0  0
   16.0228   -6.7296  -13.7387 C   0  0  0  0  0  0  0  0  0  0  0  0
   16.3411   -7.4908  -11.3925 C   0  0  2  0  0  0  0  0  0  0  0  0
   15.3960   -8.5244  -11.7661 N   0  0  0  0  0  0  0  0  0  0  0  0
   15.5578   -6.3055  -10.8908 C   0  0  0  0  0  0  0  0  0  0  0  0
   14.4617   -5.9743  -11.3830 O   0  0  0  0  0  0  0  0  0  0  0  0
   14.3131   -6.3228   -5.9148 C   0  0  0  0  0  0  0  0  0  0  0  0
   14.3684   -6.0340   -7.3661 C   0  0  0  0  0  0  0  0  0  0  0  0
   14.9917   -4.7520   -7.7957 C   0  0  2  0  0  0  0  0  0  0  0  0
   14.2966   -3.6257   -7.0585 C   0  0  0  0  0  0  0  0  0  0  0  0
   15.2105   -4.5003   -9.2231 C   0  0  2  0  0  0  0  0  0  0  0  0
   16.0512   -5.5261   -9.8340 N   0  0  0  0  0  0  0  0  0  0  0  0
   15.8812   -3.2218   -9.4879 C   0  0  0  0  0  0  0  0  0  0  0  0
   15.2619   -2.0273   -9.8270 O   0  0  0  0  0  0  0  0  0  0  0  0
   17.1674   -3.2064   -9.4044 O   0  0  0  0  0  0  0  0  0  0  0  0
  2  1  1  1
  3  2  1  0
  3  4  1  0
  4  8  1  0
  5  6  1  0
  5  4  2  0
  6  7  1  0
  7  8  2  0
  9 10  2  0
  9  2  1  0
 12 11  1  6
 12 14  1  0
 13 12  1  0
 14 16  1  0
 14 15  1  6
 15  9  1  0
 16 17  2  0
 19 18  1  0
 20 21  1  6
 20 19  1  0
 22 20  1  0
 22 23  1  1
 23 16  1  0
 24 22  1  0
 25 24  1  0
 26 24  2  0
M  END
$$$$
