HVI.pdb
     RDKit          3D

 26 26  0  0  1  0  0  0  0  0999 V2000
   27.2482  -21.0042  -16.9587 N   0  0  0  0  0  0  0  0  0  0  0  0
   27.6333  -21.5224  -15.6655 C   0  0  1  0  0  0  0  0  0  0  0  0
   29.1345  -21.3676  -15.5048 C   0  0  0  0  0  0  0  0  0  0  0  0
   29.8289  -22.3665  -16.3868 C   0  0  0  0  0  0  0  0  0  0  0  0
   30.0805  -23.6873  -16.1070 C   0  0  0  0  0  0  0  0  0  0  0  0
   30.7200  -24.2389  -17.1493 N   0  0  0  0  0  0  0  0  0  0  0  0
   30.8672  -23.2746  -18.0712 C   0  0  0  0  0  0  0  0  0  0  0  0
   30.3326  -22.1512  -17.6139 N   0  0  0  0  0  0  0  0  0  0  0  0
   26.9869  -20.6904  -14.6263 C   0  0  0  0  0  0  0  0  0  0  0  0
   27.1513  -19.4280  -14.5783 O   0  0  0  0  0  0  0  0  0  0  0  0
   23.5004  -21.9235  -13.1420 C   0  0  0  0  0  0  0  0  0  0  0  0
   23.9664  -20.4953  -13.0578 C   0  0  1  0  0  0  0  0  0  0  0  0
   23.1322  -19.7926  -12.0195 C   0  0  0  0  0  0  0  0  0  0  0  0
   25.4492  -20.4264  -12.6635 C   0  0  2  0  0  0  0  0  0  0  0  0
   26.1515  -21.2483  -13.6292 N   0  0  0  0  0  0  0  0  0  0  0  0
   25.6059  -21.0667  -11.3087 C   0  0  0  0  0  0  0  0  0  0  0  0
   25.6542  -22.3028  -11.1571 O   0  0  0  0  0  0  0  0  0  0  0  0
   28.7622  -19.0019   -7.2904 C   0  0  0  0  0  0  0  0  0  0  0  0
   28.0175  -19.9563   -8.1432 C   0  0  0  0  0  0  0  0  0  0  0  0
   26.5588  -20.1185   -7.8935 C   0  0  2  0  0  0  0  0  0  0  0  0
   26.3749  -20.5058   -6.4404 C   0  0  0  0  0  0  0  0  0  0  0  0
   25.7487  -20.8950   -8.8366 C   0  0  2  0  0  0  0  0  0  0  0  0
   25.7038  -20.2723  -10.1566 N   0  0  0  0  0  0  0  0  0  0  0  0
   24.3506  -21.0401   -8.4137 C   0  0  0  0  0  0  0  0  0  0  0  0
   23.8321  -22.0682   -7.6394 O   0  0  0  0  0  0  0  0  0  0  0  0
   23.5233  -20.1314   -8.8026 O   0  0  0  0  0  0  0  0  0  0  0  0
  2  1  1  6
  3  2  1  0
  3  4  1  0
  4  8  1  0
  5  6  1  0
  5  4  2  0
  6  7  1  0
  7  8  2  0
  9 10  2  0
  9  2  1  0
 12 11  1  1
 12 14  1  0
 13 12  1  0
 14 16  1  0
 14 15  1  6
 15  9  1  0
 16 17  2  0
 19 18  1  0
 20 21  1  1
 20 19  1  0
 22 20  1  0
 22 23  1  6
 23 16  1  0
 24 22  1  0
 25 24  1  0
 26 24  2  0
M  END
$$$$
