HVI.pdb
     RDKit          3D

 26 26  0  0  1  0  0  0  0  0999 V2000
   25.5824  -27.2915  -17.4812 N   0  0  0  0  0  0  0  0  0  0  0  0
   25.4201  -26.4042  -16.3518 C   0  0  1  0  0  0  0  0  0  0  0  0
   26.2418  -25.1512  -16.5931 C   0  0  0  0  0  0  0  0  0  0  0  0
   27.7018  -25.4998  -16.5236 C   0  0  0  0  0  0  0  0  0  0  0  0
   28.2495  -26.7384  -16.2952 C   0  0  0  0  0  0  0  0  0  0  0  0
   29.5867  -26.6322  -16.3092 N   0  0  0  0  0  0  0  0  0  0  0  0
   29.8731  -25.3420  -16.5436 C   0  0  0  0  0  0  0  0  0  0  0  0
   28.7424  -24.6626  -16.6723 N   0  0  0  0  0  0  0  0  0  0  0  0
   23.9985  -25.9979  -16.2875 C   0  0  0  0  0  0  0  0  0  0  0  0
   23.3567  -25.6328  -17.3256 O   0  0  0  0  0  0  0  0  0  0  0  0
   21.3584  -28.1159  -15.0432 C   0  0  0  0  0  0  0  0  0  0  0  0
   21.1906  -26.8305  -14.2792 C   0  0  1  0  0  0  0  0  0  0  0  0
   21.8257  -27.0060  -12.9252 C   0  0  0  0  0  0  0  0  0  0  0  0
   21.8621  -25.6636  -15.0185 C   0  0  2  0  0  0  0  0  0  0  0  0
   23.2730  -25.9919  -15.0723 N   0  0  0  0  0  0  0  0  0  0  0  0
   21.7065  -24.4227  -14.1782 C   0  0  0  0  0  0  0  0  0  0  0  0
   22.3041  -24.2719  -13.0949 O   0  0  0  0  0  0  0  0  0  0  0  0
   21.5402  -18.4659  -14.4993 C   0  0  0  0  0  0  0  0  0  0  0  0
   21.0249  -19.6581  -13.7882 C   0  0  0  0  0  0  0  0  0  0  0  0
   21.1171  -20.9731  -14.4801 C   0  0  2  0  0  0  0  0  0  0  0  0
   20.5194  -20.8149  -15.8632 C   0  0  0  0  0  0  0  0  0  0  0  0
   20.7024  -22.1889  -13.7742 C   0  0  2  0  0  0  0  0  0  0  0  0
   20.8672  -23.3812  -14.6010 N   0  0  0  0  0  0  0  0  0  0  0  0
   19.2905  -22.1709  -13.3733 C   0  0  0  0  0  0  0  0  0  0  0  0
   18.7818  -21.6518  -12.1913 O   0  0  0  0  0  0  0  0  0  0  0  0
   18.4419  -22.6915  -14.1921 O   0  0  0  0  0  0  0  0  0  0  0  0
  2  1  1  6
  3  2  1  0
  3  4  1  0
  4  8  1  0
  5  6  1  0
  5  4  2  0
  6  7  1  0
  7  8  2  0
  9 10  2  0
  9  2  1  0
 12 11  1  6
 12 14  1  0
 13 12  1  0
 14 16  1  0
 14 15  1  1
 15  9  1  0
 16 17  2  0
 19 18  1  0
 20 21  1  6
 20 19  1  0
 22 20  1  0
 22 23  1  6
 23 16  1  0
 24 22  1  0
 25 24  1  0
 26 24  2  0
M  END
$$$$
