HVI.pdb
     RDKit          3D

 26 26  0  0  1  0  0  0  0  0999 V2000
   23.2008  -21.7020  -13.3447 N   0  0  0  0  0  0  0  0  0  0  0  0
   23.5073  -20.6606  -12.3903 C   0  0  1  0  0  0  0  0  0  0  0  0
   22.2652  -20.3711  -11.5677 C   0  0  0  0  0  0  0  0  0  0  0  0
   21.2970  -19.5798  -12.4011 C   0  0  0  0  0  0  0  0  0  0  0  0
   21.5119  -19.0604  -13.6541 C   0  0  0  0  0  0  0  0  0  0  0  0
   20.4032  -18.4211  -14.0563 N   0  0  0  0  0  0  0  0  0  0  0  0
   19.5044  -18.5388  -13.0664 C   0  0  0  0  0  0  0  0  0  0  0  0
   20.0406  -19.2340  -12.0734 N   0  0  0  0  0  0  0  0  0  0  0  0
   24.5425  -21.1749  -11.4662 C   0  0  0  0  0  0  0  0  0  0  0  0
   24.4296  -22.3078  -10.8946 O   0  0  0  0  0  0  0  0  0  0  0  0
   29.2551  -21.3294  -10.3980 C   0  0  0  0  0  0  0  0  0  0  0  0
   28.0673  -20.7988  -11.1542 C   0  0  1  0  0  0  0  0  0  0  0  0
   27.9641  -21.5555  -12.4520 C   0  0  0  0  0  0  0  0  0  0  0  0
   26.7761  -20.9837  -10.3432 C   0  0  2  0  0  0  0  0  0  0  0  0
   25.7138  -20.4394  -11.1657 N   0  0  0  0  0  0  0  0  0  0  0  0
   26.8774  -20.1405   -9.0987 C   0  0  0  0  0  0  0  0  0  0  0  0
   26.3464  -19.0164   -9.0101 O   0  0  0  0  0  0  0  0  0  0  0  0
   26.7325  -22.4639   -4.0652 C   0  0  0  0  0  0  0  0  0  0  0  0
   26.5844  -21.5730   -5.2386 C   0  0  0  0  0  0  0  0  0  0  0  0
   27.7128  -20.6573   -5.5620 C   0  0  2  0  0  0  0  0  0  0  0  0
   28.0910  -19.9180   -4.2948 C   0  0  0  0  0  0  0  0  0  0  0  0
   27.6354  -19.8132   -6.7579 C   0  0  2  0  0  0  0  0  0  0  0  0
   27.5871  -20.6073   -7.9823 N   0  0  0  0  0  0  0  0  0  0  0  0
   28.7873  -18.9158   -6.9069 C   0  0  0  0  0  0  0  0  0  0  0  0
   28.8641  -17.6023   -6.4662 O   0  0  0  0  0  0  0  0  0  0  0  0
   29.8242  -19.3882   -7.5096 O   0  0  0  0  0  0  0  0  0  0  0  0
  2  1  1  6
  3  2  1  0
  3  4  1  0
  4  8  1  0
  5  6  1  0
  5  4  2  0
  6  7  1  0
  7  8  2  0
  9 10  2  0
  9  2  1  0
 12 11  1  1
 12 14  1  0
 13 12  1  0
 14 16  1  0
 14 15  1  6
 15  9  1  0
 16 17  2  0
 19 18  1  0
 20 21  1  1
 20 19  1  0
 22 20  1  0
 22 23  1  6
 23 16  1  0
 24 22  1  0
 25 24  1  0
 26 24  2  0
M  END
$$$$
