HVI.pdb
     RDKit          3D

 26 26  0  0  1  0  0  0  0  0999 V2000
   25.0962  -17.7640  -17.2623 N   0  0  0  0  0  0  0  0  0  0  0  0
   25.9782  -18.2281  -16.2154 C   0  0  1  0  0  0  0  0  0  0  0  0
   27.1661  -17.2879  -16.1253 C   0  0  0  0  0  0  0  0  0  0  0  0
   28.0395  -17.4819  -17.3327 C   0  0  0  0  0  0  0  0  0  0  0  0
   28.8531  -18.5543  -17.6049 C   0  0  0  0  0  0  0  0  0  0  0  0
   29.4663  -18.3482  -18.7801 N   0  0  0  0  0  0  0  0  0  0  0  0
   29.0415  -17.1604  -19.2385 C   0  0  0  0  0  0  0  0  0  0  0  0
   28.1855  -16.6406  -18.3703 N   0  0  0  0  0  0  0  0  0  0  0  0
   25.2486  -18.1469  -14.9305 C   0  0  0  0  0  0  0  0  0  0  0  0
   24.8468  -17.0352  -14.4554 O   0  0  0  0  0  0  0  0  0  0  0  0
   22.4103  -19.3686  -14.6697 C   0  0  0  0  0  0  0  0  0  0  0  0
   22.7958  -19.7465  -13.2651 C   0  0  1  0  0  0  0  0  0  0  0  0
   22.7750  -21.2488  -13.1636 C   0  0  0  0  0  0  0  0  0  0  0  0
   24.1994  -19.2242  -12.9242 C   0  0  2  0  0  0  0  0  0  0  0  0
   24.9564  -19.2964  -14.1584 N   0  0  0  0  0  0  0  0  0  0  0  0
   24.8281  -20.1742  -11.9382 C   0  0  0  0  0  0  0  0  0  0  0  0
   25.2819  -21.2841  -12.2783 O   0  0  0  0  0  0  0  0  0  0  0  0
   27.1285  -17.8939   -7.5681 C   0  0  0  0  0  0  0  0  0  0  0  0
   27.0466  -18.9191   -8.6333 C   0  0  0  0  0  0  0  0  0  0  0  0
   26.0694  -20.0282   -8.4560 C   0  0  2  0  0  0  0  0  0  0  0  0
   26.5842  -20.9312   -7.3538 C   0  0  0  0  0  0  0  0  0  0  0  0
   25.5623  -20.7366   -9.6348 C   0  0  2  0  0  0  0  0  0  0  0  0
   24.9220  -19.8282  -10.5820 N   0  0  0  0  0  0  0  0  0  0  0  0
   24.5538  -21.7522   -9.3088 C   0  0  0  0  0  0  0  0  0  0  0  0
   23.1789  -21.5660   -9.2963 O   0  0  0  0  0  0  0  0  0  0  0  0
   24.9841  -22.9269   -8.9981 O   0  0  0  0  0  0  0  0  0  0  0  0
  2  1  1  6
  3  2  1  0
  3  4  1  0
  4  8  1  0
  5  6  1  0
  5  4  2  0
  6  7  1  0
  7  8  2  0
  9 10  2  0
  9  2  1  0
 12 11  1  6
 12 14  1  0
 13 12  1  0
 14 16  1  0
 14 15  1  6
 15  9  1  0
 16 17  2  0
 19 18  1  0
 20 21  1  1
 20 19  1  0
 22 20  1  0
 22 23  1  6
 23 16  1  0
 24 22  1  0
 25 24  1  0
 26 24  2  0
M  END
$$$$
