HVI.pdb
     RDKit          3D

 26 26  0  0  1  0  0  0  0  0999 V2000
   23.6656  -19.4449  -18.7306 N   0  0  0  0  0  0  0  0  0  0  0  0
   23.8085  -18.7546  -17.4687 C   0  0  1  0  0  0  0  0  0  0  0  0
   22.4278  -18.5002  -16.8923 C   0  0  0  0  0  0  0  0  0  0  0  0
   21.7621  -17.4044  -17.6761 C   0  0  0  0  0  0  0  0  0  0  0  0
   20.5812  -17.4820  -18.3729 C   0  0  0  0  0  0  0  0  0  0  0  0
   20.3291  -16.2908  -18.9361 N   0  0  0  0  0  0  0  0  0  0  0  0
   21.3405  -15.4767  -18.5959 C   0  0  0  0  0  0  0  0  0  0  0  0
   22.2003  -16.1447  -17.8400 N   0  0  0  0  0  0  0  0  0  0  0  0
   24.5225  -19.6515  -16.5328 C   0  0  0  0  0  0  0  0  0  0  0  0
   24.0610  -20.7957  -16.2152 O   0  0  0  0  0  0  0  0  0  0  0  0
   28.3534  -20.1998  -16.6023 C   0  0  0  0  0  0  0  0  0  0  0  0
   27.9361  -19.8847  -15.1914 C   0  0  1  0  0  0  0  0  0  0  0  0
   28.2322  -18.4314  -14.9306 C   0  0  0  0  0  0  0  0  0  0  0  0
   26.4366  -20.1511  -14.9924 C   0  0  2  0  0  0  0  0  0  0  0  0
   25.7552  -19.2902  -15.9389 N   0  0  0  0  0  0  0  0  0  0  0  0
   26.0596  -19.7039  -13.6039 C   0  0  0  0  0  0  0  0  0  0  0  0
   25.9168  -18.5020  -13.3065 O   0  0  0  0  0  0  0  0  0  0  0  0
   21.8553  -20.0915   -9.7016 C   0  0  0  0  0  0  0  0  0  0  0  0
   23.3271  -19.9719   -9.8114 C   0  0  0  0  0  0  0  0  0  0  0  0
   23.9625  -20.3735  -11.0965 C   0  0  2  0  0  0  0  0  0  0  0  0
   23.4307  -21.7416  -11.4718 C   0  0  0  0  0  0  0  0  0  0  0  0
   25.4103  -20.2174  -11.2639 C   0  0  2  0  0  0  0  0  0  0  0  0
   25.8548  -20.6477  -12.5866 N   0  0  0  0  0  0  0  0  0  0  0  0
   26.1911  -21.0051  -10.3024 C   0  0  0  0  0  0  0  0  0  0  0  0
   26.4906  -20.6407   -8.9975 O   0  0  0  0  0  0  0  0  0  0  0  0
   26.6483  -22.1398  -10.7085 O   0  0  0  0  0  0  0  0  0  0  0  0
  2  1  1  6
  3  2  1  0
  3  4  1  0
  4  8  1  0
  5  6  1  0
  5  4  2  0
  6  7  1  0
  7  8  2  0
  9 10  2  0
  9  2  1  0
 12 11  1  6
 12 14  1  0
 13 12  1  0
 14 16  1  0
 14 15  1  6
 15  9  1  0
 16 17  2  0
 19 18  1  0
 20 21  1  1
 20 19  1  0
 22 20  1  0
 22 23  1  6
 23 16  1  0
 24 22  1  0
 25 24  1  0
 26 24  2  0
M  END
$$$$
