HVI.pdb
     RDKit          3D

 26 26  0  0  1  0  0  0  0  0999 V2000
   22.8779  -21.3979  -13.1214 N   0  0  0  0  0  0  0  0  0  0  0  0
   23.1853  -20.3833  -12.1390 C   0  0  1  0  0  0  0  0  0  0  0  0
   21.8991  -19.9645  -11.4506 C   0  0  0  0  0  0  0  0  0  0  0  0
   21.0781  -19.1405  -12.4020 C   0  0  0  0  0  0  0  0  0  0  0  0
   21.4940  -18.0525  -13.1296 C   0  0  0  0  0  0  0  0  0  0  0  0
   20.4641  -17.5970  -13.8586 N   0  0  0  0  0  0  0  0  0  0  0  0
   19.4153  -18.3906  -13.5906 C   0  0  0  0  0  0  0  0  0  0  0  0
   19.7836  -19.3167  -12.7167 N   0  0  0  0  0  0  0  0  0  0  0  0
   24.0621  -20.9890  -11.1121 C   0  0  0  0  0  0  0  0  0  0  0  0
   23.6794  -21.9712  -10.3967 O   0  0  0  0  0  0  0  0  0  0  0  0
   27.4614  -22.1180  -11.9212 C   0  0  0  0  0  0  0  0  0  0  0  0
   27.6117  -21.2963  -10.6696 C   0  0  1  0  0  0  0  0  0  0  0  0
   28.1064  -19.9300  -11.0648 C   0  0  0  0  0  0  0  0  0  0  0  0
   26.2688  -21.1680   -9.9353 C   0  0  2  0  0  0  0  0  0  0  0  0
   25.3721  -20.5128  -10.8670 N   0  0  0  0  0  0  0  0  0  0  0  0
   26.4633  -20.2508   -8.7559 C   0  0  0  0  0  0  0  0  0  0  0  0
   26.0307  -19.0820   -8.7420 O   0  0  0  0  0  0  0  0  0  0  0  0
   28.2708  -20.5880   -2.7840 C   0  0  0  0  0  0  0  0  0  0  0  0
   27.8238  -19.8208   -3.9689 C   0  0  0  0  0  0  0  0  0  0  0  0
   27.7187  -20.5446   -5.2657 C   0  0  2  0  0  0  0  0  0  0  0  0
   28.9605  -21.3978   -5.4252 C   0  0  0  0  0  0  0  0  0  0  0  0
   27.3278  -19.8088   -6.4716 C   0  0  2  0  0  0  0  0  0  0  0  0
   27.1510  -20.6965   -7.6175 N   0  0  0  0  0  0  0  0  0  0  0  0
   28.3211  -18.8110   -6.8867 C   0  0  0  0  0  0  0  0  0  0  0  0
   29.2864  -18.9767   -7.8696 O   0  0  0  0  0  0  0  0  0  0  0  0
   28.3008  -17.6751   -6.2776 O   0  0  0  0  0  0  0  0  0  0  0  0
  2  1  1  6
  3  2  1  0
  3  4  1  0
  4  8  1  0
  5  6  1  0
  5  4  2  0
  6  7  1  0
  7  8  2  0
  9 10  2  0
  9  2  1  0
 12 11  1  6
 12 14  1  0
 13 12  1  0
 14 16  1  0
 14 15  1  6
 15  9  1  0
 16 17  2  0
 19 18  1  0
 20 21  1  6
 20 19  1  0
 22 20  1  0
 22 23  1  6
 23 16  1  0
 24 22  1  0
 25 24  1  0
 26 24  2  0
M  END
$$$$
