HVI.pdb
     RDKit          3D

 26 26  0  0  1  0  0  0  0  0999 V2000
   28.1757  -21.2577  -16.2125 N   0  0  0  0  0  0  0  0  0  0  0  0
   27.6295  -20.2550  -15.3261 C   0  0  1  0  0  0  0  0  0  0  0  0
   26.9559  -19.1808  -16.1601 C   0  0  0  0  0  0  0  0  0  0  0  0
   28.0089  -18.3728  -16.8647 C   0  0  0  0  0  0  0  0  0  0  0  0
   28.3073  -18.3869  -18.2052 C   0  0  0  0  0  0  0  0  0  0  0  0
   29.3089  -17.5251  -18.4372 N   0  0  0  0  0  0  0  0  0  0  0  0
   29.6339  -16.9776  -17.2555 C   0  0  0  0  0  0  0  0  0  0  0  0
   28.8541  -17.4862  -16.3121 N   0  0  0  0  0  0  0  0  0  0  0  0
   26.5839  -20.8952  -14.4973 C   0  0  0  0  0  0  0  0  0  0  0  0
   25.7075  -21.6697  -15.0021 O   0  0  0  0  0  0  0  0  0  0  0  0
   26.0148  -19.5052  -10.5844 C   0  0  0  0  0  0  0  0  0  0  0  0
   25.8063  -20.9731  -10.8409 C   0  0  1  0  0  0  0  0  0  0  0  0
   24.7070  -21.4544   -9.9312 C   0  0  0  0  0  0  0  0  0  0  0  0
   25.4129  -21.2219  -12.3045 C   0  0  2  0  0  0  0  0  0  0  0  0
   26.4984  -20.6840  -13.1005 N   0  0  0  0  0  0  0  0  0  0  0  0
   24.1755  -20.4154  -12.6025 C   0  0  0  0  0  0  0  0  0  0  0  0
   24.1919  -19.1712  -12.6736 O   0  0  0  0  0  0  0  0  0  0  0  0
   22.1024  -20.1829  -17.0267 C   0  0  0  0  0  0  0  0  0  0  0  0
   22.4146  -19.9307  -15.6014 C   0  0  0  0  0  0  0  0  0  0  0  0
   21.4302  -20.3894  -14.5831 C   0  0  2  0  0  0  0  0  0  0  0  0
   20.0743  -19.8280  -14.9596 C   0  0  0  0  0  0  0  0  0  0  0  0
   21.7607  -20.2766  -13.1596 C   0  0  2  0  0  0  0  0  0  0  0  0
   22.9455  -21.0563  -12.8125 N   0  0  0  0  0  0  0  0  0  0  0  0
   20.6906  -20.7589  -12.2782 C   0  0  0  0  0  0  0  0  0  0  0  0
   20.4147  -22.0847  -11.9756 O   0  0  0  0  0  0  0  0  0  0  0  0
   19.9302  -19.8692  -11.7383 O   0  0  0  0  0  0  0  0  0  0  0  0
  2  1  1  6
  3  2  1  0
  3  4  1  0
  4  8  1  0
  5  6  1  0
  5  4  2  0
  6  7  1  0
  7  8  2  0
  9 10  2  0
  9  2  1  0
 12 11  1  6
 12 14  1  0
 13 12  1  0
 14 16  1  0
 14 15  1  6
 15  9  1  0
 16 17  2  0
 19 18  1  0
 20 21  1  1
 20 19  1  0
 22 20  1  0
 22 23  1  6
 23 16  1  0
 24 22  1  0
 25 24  1  0
 26 24  2  0
M  END
$$$$
