NDC.pdb
     RDKit          3D

 23 22  0  0  1  0  0  0  0  0999 V2000
   10.6381  -15.9891   16.8163 N   0  0  0  0  0  0  0  0  0  0  0  0
    9.8838  -17.1304   17.2256 C   0  0  0  0  0  0  0  0  0  0  0  0
    9.2116  -17.7625   16.3743 O   0  0  0  0  0  0  0  0  0  0  0  0
    9.8480  -17.6206   18.6222 C   0  0  0  0  0  0  0  0  0  0  0  0
   10.6559  -16.7326   19.5447 C   0  0  2  0  0  0  0  0  0  0  0  0
   11.9891  -16.6282   19.0988 N   0  0  0  0  0  0  0  0  0  0  0  0
   10.4615  -17.1930   20.9156 C   0  0  0  0  0  0  0  0  0  0  0  0
    9.2897  -17.2045   21.3740 O   0  0  0  0  0  0  0  0  0  0  0  0
   11.5160  -17.6201   21.7383 N   0  0  0  0  0  0  0  0  0  0  0  0
   11.3804  -18.1141   23.0738 C   0  0  1  0  0  0  0  0  0  0  0  0
   12.4918  -19.0834   23.4447 C   0  0  0  0  0  0  0  0  0  0  0  0
   12.4431  -20.3158   22.6467 C   0  0  0  0  0  0  0  0  0  0  0  0
   11.4682  -21.0789   22.6881 O   0  0  0  0  0  0  0  0  0  0  0  0
   11.5142  -16.9620   24.0335 C   0  0  0  0  0  0  0  0  0  0  0  0
   12.4954  -16.1782   23.9222 O   0  0  0  0  0  0  0  0  0  0  0  0
   13.5147  -20.6261   21.8314 O   0  0  0  0  0  0  0  0  0  0  0  0
   10.5872  -16.7107   25.0637 N   0  0  0  0  0  0  0  0  0  0  0  0
   10.8044  -15.7327   26.1128 C   0  0  1  0  0  0  0  0  0  0  0  0
    9.7943  -14.6067   26.0323 C   0  0  0  0  0  0  0  0  0  0  0  0
    8.1085  -15.2071   25.9186 S   0  0  0  0  0  0  0  0  0  0  0  0
   10.7831  -16.3914   27.4431 C   0  0  0  0  0  0  0  0  0  0  0  0
   10.4392  -17.5862   27.5743 O   0  0  0  0  0  0  0  0  0  0  0  0
   11.1477  -15.6907   28.5836 O   0  0  0  0  0  0  0  0  0  0  0  0
  1  2  1  0
  2  4  1  0
  3  2  2  0
  5  4  1  0
  5  6  1  6
  5  7  1  0
  7  8  2  0
  9  7  1  0
  9 10  1  0
 10 14  1  0
 10 11  1  1
 11 12  1  0
 12 16  1  0
 13 12  2  0
 14 15  2  0
 17 14  1  0
 17 18  1  0
 18 21  1  0
 18 19  1  1
 19 20  1  0
 21 22  2  0
 21 23  1  0
M  END
$$$$
