NDC.pdb
     RDKit          3D

 23 22  0  0  1  0  0  0  0  0999 V2000
   15.4340  -17.7605   14.4551 N   0  0  0  0  0  0  0  0  0  0  0  0
   15.1698  -16.5932   15.2340 C   0  0  0  0  0  0  0  0  0  0  0  0
   15.8940  -15.5781   15.0884 O   0  0  0  0  0  0  0  0  0  0  0  0
   14.0704  -16.5093   16.2221 C   0  0  0  0  0  0  0  0  0  0  0  0
   13.3305  -17.8246   16.3446 C   0  0  2  0  0  0  0  0  0  0  0  0
   12.7148  -18.1686   15.1241 N   0  0  0  0  0  0  0  0  0  0  0  0
   12.4632  -17.7588   17.5162 C   0  0  0  0  0  0  0  0  0  0  0  0
   11.6669  -16.7888   17.6076 O   0  0  0  0  0  0  0  0  0  0  0  0
   12.4784  -18.7226   18.5370 N   0  0  0  0  0  0  0  0  0  0  0  0
   11.6135  -18.7403   19.6761 C   0  0  1  0  0  0  0  0  0  0  0  0
   11.5775  -20.1027   20.3506 C   0  0  0  0  0  0  0  0  0  0  0  0
   10.8137  -21.0874   19.5727 C   0  0  0  0  0  0  0  0  0  0  0  0
   10.0080  -20.7411   18.6979 O   0  0  0  0  0  0  0  0  0  0  0  0
   12.1558  -17.7924   20.7123 C   0  0  0  0  0  0  0  0  0  0  0  0
   13.3743  -17.4707   20.6753 O   0  0  0  0  0  0  0  0  0  0  0  0
   11.0033  -22.4321   19.8280 O   0  0  0  0  0  0  0  0  0  0  0  0
   11.3616  -17.2384   21.7351 N   0  0  0  0  0  0  0  0  0  0  0  0
   11.8510  -16.2551   22.6827 C   0  0  1  0  0  0  0  0  0  0  0  0
   10.7673  -15.2648   23.0562 C   0  0  0  0  0  0  0  0  0  0  0  0
    9.4023  -16.0397   23.9234 S   0  0  0  0  0  0  0  0  0  0  0  0
   12.4114  -16.9292   23.8808 C   0  0  0  0  0  0  0  0  0  0  0  0
   12.1192  -18.1121   24.1606 O   0  0  0  0  0  0  0  0  0  0  0  0
   13.2811  -16.2567   24.7270 O   0  0  0  0  0  0  0  0  0  0  0  0
  1  2  1  0
  2  4  1  0
  3  2  2  0
  5  4  1  0
  5  6  1  6
  5  7  1  0
  7  8  2  0
  9  7  1  0
  9 10  1  0
 10 14  1  0
 10 11  1  1
 11 12  1  0
 12 16  1  0
 13 12  2  0
 14 15  2  0
 17 14  1  0
 17 18  1  0
 18 21  1  0
 18 19  1  1
 19 20  1  0
 21 22  2  0
 21 23  1  0
M  END
$$$$
