NDC.pdb
     RDKit          3D

 23 22  0  0  1  0  0  0  0  0999 V2000
    9.6777  -14.6911   17.7083 N   0  0  0  0  0  0  0  0  0  0  0  0
    8.2735  -14.4395   17.6470 C   0  0  0  0  0  0  0  0  0  0  0  0
    7.6118  -14.8719   16.6717 O   0  0  0  0  0  0  0  0  0  0  0  0
    7.5388  -13.6838   18.6869 C   0  0  0  0  0  0  0  0  0  0  0  0
    8.4595  -13.2292   19.7996 C   0  0  2  0  0  0  0  0  0  0  0  0
    9.6957  -12.7938   19.2805 N   0  0  0  0  0  0  0  0  0  0  0  0
    8.5113  -14.2777   20.8131 C   0  0  0  0  0  0  0  0  0  0  0  0
    7.4279  -14.6495   21.3338 O   0  0  0  0  0  0  0  0  0  0  0  0
    9.7072  -14.8845   21.2288 N   0  0  0  0  0  0  0  0  0  0  0  0
    9.8206  -15.8938   22.2360 C   0  0  1  0  0  0  0  0  0  0  0  0
   11.0082  -16.8133   21.9985 C   0  0  0  0  0  0  0  0  0  0  0  0
   11.0830  -17.8920   22.9930 C   0  0  0  0  0  0  0  0  0  0  0  0
   11.8601  -17.8354   23.9559 O   0  0  0  0  0  0  0  0  0  0  0  0
   10.0842  -15.2298   23.5611 C   0  0  0  0  0  0  0  0  0  0  0  0
   10.8844  -14.2571   23.6144 O   0  0  0  0  0  0  0  0  0  0  0  0
   10.2635  -18.9945   22.8449 O   0  0  0  0  0  0  0  0  0  0  0  0
    9.4749  -15.6448   24.7612 N   0  0  0  0  0  0  0  0  0  0  0  0
    9.7030  -14.9965   26.0387 C   0  0  1  0  0  0  0  0  0  0  0  0
    8.6693  -13.9208   26.3016 C   0  0  0  0  0  0  0  0  0  0  0  0
    8.9635  -13.0516   27.8422 S   0  0  0  0  0  0  0  0  0  0  0  0
    9.7325  -16.0036   27.1291 C   0  0  0  0  0  0  0  0  0  0  0  0
    9.3647  -17.1831   26.9381 O   0  0  0  0  0  0  0  0  0  0  0  0
   10.1731  -15.6573   28.3981 O   0  0  0  0  0  0  0  0  0  0  0  0
  1  2  1  0
  2  4  1  0
  3  2  2  0
  5  4  1  0
  5  6  1  6
  5  7  1  0
  7  8  2  0
  9  7  1  0
  9 10  1  0
 10 14  1  0
 10 11  1  6
 11 12  1  0
 12 16  1  0
 13 12  2  0
 14 15  2  0
 17 14  1  0
 17 18  1  0
 18 21  1  0
 18 19  1  1
 19 20  1  0
 21 22  2  0
 21 23  1  0
M  END
$$$$
