NDC.pdb
     RDKit          3D

 23 22  0  0  1  0  0  0  0  0999 V2000
   14.6366  -28.7356   37.1612 N   0  0  0  0  0  0  0  0  0  0  0  0
   14.8319  -27.8005   36.0998 C   0  0  0  0  0  0  0  0  0  0  0  0
   15.8840  -27.1162   36.0670 O   0  0  0  0  0  0  0  0  0  0  0  0
   13.8469  -27.5873   35.0152 C   0  0  0  0  0  0  0  0  0  0  0  0
   14.1018  -26.2890   34.2792 C   0  0  2  0  0  0  0  0  0  0  0  0
   13.9040  -25.1831   35.1307 N   0  0  0  0  0  0  0  0  0  0  0  0
   13.3323  -26.3026   33.0394 C   0  0  0  0  0  0  0  0  0  0  0  0
   13.5765  -27.2103   32.2029 O   0  0  0  0  0  0  0  0  0  0  0  0
   12.3399  -25.3551   32.7420 N   0  0  0  0  0  0  0  0  0  0  0  0
   11.5245  -25.3466   31.5668 C   0  0  1  0  0  0  0  0  0  0  0  0
   10.0569  -25.1089   31.8860 C   0  0  0  0  0  0  0  0  0  0  0  0
    9.4248  -26.2842   32.5004 C   0  0  0  0  0  0  0  0  0  0  0  0
    9.9301  -27.4121   32.4168 O   0  0  0  0  0  0  0  0  0  0  0  0
   11.9395  -24.1905   30.6964 C   0  0  0  0  0  0  0  0  0  0  0  0
   11.1329  -23.7477   29.8345 O   0  0  0  0  0  0  0  0  0  0  0  0
    8.2371  -26.1208   33.1873 O   0  0  0  0  0  0  0  0  0  0  0  0
   13.1995  -23.5692   30.7963 N   0  0  0  0  0  0  0  0  0  0  0  0
   13.5309  -22.3232   30.1314 C   0  0  1  0  0  0  0  0  0  0  0  0
   12.6347  -21.1952   30.5996 C   0  0  0  0  0  0  0  0  0  0  0  0
   12.2404  -20.0437   29.2827 S   0  0  0  0  0  0  0  0  0  0  0  0
   14.9659  -21.9993   30.3306 C   0  0  0  0  0  0  0  0  0  0  0  0
   15.5090  -22.1036   31.4518 O   0  0  0  0  0  0  0  0  0  0  0  0
   15.7465  -21.5689   29.2676 O   0  0  0  0  0  0  0  0  0  0  0  0
  1  2  1  0
  2  4  1  0
  3  2  2  0
  5  4  1  0
  5  6  1  1
  5  7  1  0
  7  8  2  0
  9  7  1  0
  9 10  1  0
 10 14  1  0
 10 11  1  1
 11 12  1  0
 12 16  1  0
 13 12  2  0
 14 15  2  0
 17 14  1  0
 17 18  1  0
 18 21  1  0
 18 19  1  1
 19 20  1  0
 21 22  2  0
 21 23  1  0
M  END
$$$$
