NDC.pdb
     RDKit          3D

 23 22  0  0  1  0  0  0  0  0999 V2000
    7.3216  -12.7295   16.6219 N   0  0  0  0  0  0  0  0  0  0  0  0
    7.7709  -14.0424   16.9585 C   0  0  0  0  0  0  0  0  0  0  0  0
    8.3805  -14.7246   16.0987 O   0  0  0  0  0  0  0  0  0  0  0  0
    7.5553  -14.6574   18.2879 C   0  0  0  0  0  0  0  0  0  0  0  0
    8.5114  -14.0995   19.3209 C   0  0  2  0  0  0  0  0  0  0  0  0
    9.8256  -14.0518   18.8132 N   0  0  0  0  0  0  0  0  0  0  0  0
    8.3211  -14.8314   20.5688 C   0  0  0  0  0  0  0  0  0  0  0  0
    7.1472  -14.9648   21.0019 O   0  0  0  0  0  0  0  0  0  0  0  0
    9.3817  -15.3884   21.3010 N   0  0  0  0  0  0  0  0  0  0  0  0
    9.2752  -15.9794   22.5992 C   0  0  1  0  0  0  0  0  0  0  0  0
   10.5329  -16.7391   22.9908 C   0  0  0  0  0  0  0  0  0  0  0  0
   10.7315  -17.9434   22.1733 C   0  0  0  0  0  0  0  0  0  0  0  0
    9.8378  -18.7900   22.0353 O   0  0  0  0  0  0  0  0  0  0  0  0
    9.1321  -14.8836   23.6213 C   0  0  0  0  0  0  0  0  0  0  0  0
    9.3741  -13.6926   23.2857 O   0  0  0  0  0  0  0  0  0  0  0  0
   11.9479  -18.1308   21.5451 O   0  0  0  0  0  0  0  0  0  0  0  0
    8.7364  -15.1229   24.9517 N   0  0  0  0  0  0  0  0  0  0  0  0
    8.4403  -14.0655   25.8996 C   0  0  1  0  0  0  0  0  0  0  0  0
    7.4041  -13.1076   25.3486 C   0  0  0  0  0  0  0  0  0  0  0  0
    6.9276  -11.8558   26.5409 S   0  0  0  0  0  0  0  0  0  0  0  0
    8.0135  -14.6435   27.1988 C   0  0  0  0  0  0  0  0  0  0  0  0
    7.5629  -15.8068   27.2790 O   0  0  0  0  0  0  0  0  0  0  0  0
    8.1053  -13.8998   28.3664 O   0  0  0  0  0  0  0  0  0  0  0  0
  1  2  1  0
  2  4  1  0
  3  2  2  0
  5  4  1  0
  5  6  1  6
  5  7  1  0
  7  8  2  0
  9  7  1  0
  9 10  1  0
 10 14  1  0
 10 11  1  1
 11 12  1  0
 12 16  1  0
 13 12  2  0
 14 15  2  0
 17 14  1  0
 17 18  1  0
 18 21  1  0
 18 19  1  6
 19 20  1  0
 21 22  2  0
 21 23  1  0
M  END
$$$$
