NDC.pdb
     RDKit          3D

 23 22  0  0  1  0  0  0  0  0999 V2000
    6.9300  -13.9838   15.6091 N   0  0  0  0  0  0  0  0  0  0  0  0
    7.7811  -13.8599   16.7489 C   0  0  0  0  0  0  0  0  0  0  0  0
    8.9130  -14.4027   16.7350 O   0  0  0  0  0  0  0  0  0  0  0  0
    7.3986  -13.1141   17.9695 C   0  0  0  0  0  0  0  0  0  0  0  0
    8.5136  -13.1136   18.9937 C   0  0  2  0  0  0  0  0  0  0  0  0
    9.7275  -12.6940   18.4127 N   0  0  0  0  0  0  0  0  0  0  0  0
    8.5255  -14.4099   19.6636 C   0  0  0  0  0  0  0  0  0  0  0  0
    7.4874  -14.7660   20.2790 O   0  0  0  0  0  0  0  0  0  0  0  0
    9.6354  -15.2695   19.6515 N   0  0  0  0  0  0  0  0  0  0  0  0
    9.7238  -16.5224   20.3360 C   0  0  1  0  0  0  0  0  0  0  0  0
   10.5686  -17.5343   19.5779 C   0  0  0  0  0  0  0  0  0  0  0  0
    9.9073  -18.0029   18.3526 C   0  0  0  0  0  0  0  0  0  0  0  0
    8.6991  -18.2750   18.3295 O   0  0  0  0  0  0  0  0  0  0  0  0
   10.4309  -16.3099   21.6479 C   0  0  0  0  0  0  0  0  0  0  0  0
   10.8514  -15.1583   21.9417 O   0  0  0  0  0  0  0  0  0  0  0  0
   10.6574  -18.1416   17.2005 O   0  0  0  0  0  0  0  0  0  0  0  0
   10.6502  -17.3454   22.5771 N   0  0  0  0  0  0  0  0  0  0  0  0
   10.7437  -17.1280   24.0083 C   0  0  1  0  0  0  0  0  0  0  0  0
    9.5266  -16.3949   24.5336 C   0  0  0  0  0  0  0  0  0  0  0  0
    9.6499  -16.0325   26.2855 S   0  0  0  0  0  0  0  0  0  0  0  0
   10.9501  -18.4185   24.7126 C   0  0  0  0  0  0  0  0  0  0  0  0
   10.1877  -19.3919   24.5282 O   0  0  0  0  0  0  0  0  0  0  0  0
   12.0040  -18.5771   25.6009 O   0  0  0  0  0  0  0  0  0  0  0  0
  1  2  1  0
  2  4  1  0
  3  2  2  0
  5  4  1  0
  5  6  1  6
  5  7  1  0
  7  8  2  0
  9  7  1  0
  9 10  1  0
 10 14  1  0
 10 11  1  6
 11 12  1  0
 12 16  1  0
 13 12  2  0
 14 15  2  0
 17 14  1  0
 17 18  1  0
 18 21  1  0
 18 19  1  1
 19 20  1  0
 21 22  2  0
 21 23  1  0
M  END
$$$$
