NDC.pdb
     RDKit          3D

 23 22  0  0  1  0  0  0  0  0999 V2000
    9.4377  -13.5703   16.8718 N   0  0  0  0  0  0  0  0  0  0  0  0
    8.1801  -14.2382   16.7645 C   0  0  0  0  0  0  0  0  0  0  0  0
    7.7670  -14.5965   15.6344 O   0  0  0  0  0  0  0  0  0  0  0  0
    7.3190  -14.5382   17.9309 C   0  0  0  0  0  0  0  0  0  0  0  0
    7.8936  -13.9651   19.2091 C   0  0  2  0  0  0  0  0  0  0  0  0
    8.8529  -12.9717   18.9259 N   0  0  0  0  0  0  0  0  0  0  0  0
    8.3307  -15.0708   20.0550 C   0  0  0  0  0  0  0  0  0  0  0  0
    7.4868  -15.9551   20.3537 O   0  0  0  0  0  0  0  0  0  0  0  0
    9.6406  -15.1898   20.5459 N   0  0  0  0  0  0  0  0  0  0  0  0
   10.1182  -16.2378   21.3943 C   0  0  1  0  0  0  0  0  0  0  0  0
   11.5619  -16.6089   21.0939 C   0  0  0  0  0  0  0  0  0  0  0  0
   11.6743  -17.5167   19.9444 C   0  0  0  0  0  0  0  0  0  0  0  0
   10.8667  -18.4381   19.7625 O   0  0  0  0  0  0  0  0  0  0  0  0
   10.1161  -15.7487   22.8180 C   0  0  0  0  0  0  0  0  0  0  0  0
   10.9625  -14.8847   23.1739 O   0  0  0  0  0  0  0  0  0  0  0  0
   12.7090  -17.3329   19.0472 O   0  0  0  0  0  0  0  0  0  0  0  0
    9.2051  -16.2127   23.7868 N   0  0  0  0  0  0  0  0  0  0  0  0
    9.2177  -15.7752   25.1698 C   0  0  1  0  0  0  0  0  0  0  0  0
    7.8545  -15.2738   25.6001 C   0  0  0  0  0  0  0  0  0  0  0  0
    7.3031  -13.8719   24.6274 S   0  0  0  0  0  0  0  0  0  0  0  0
    9.7009  -16.8678   26.0510 C   0  0  0  0  0  0  0  0  0  0  0  0
    9.9376  -18.0108   25.6034 O   0  0  0  0  0  0  0  0  0  0  0  0
    9.9035  -16.6450   27.4053 O   0  0  0  0  0  0  0  0  0  0  0  0
  1  2  1  0
  2  4  1  0
  3  2  2  0
  5  4  1  0
  5  6  1  6
  5  7  1  0
  7  8  2  0
  9  7  1  0
  9 10  1  0
 10 14  1  0
 10 11  1  6
 11 12  1  0
 12 16  1  0
 13 12  2  0
 14 15  2  0
 17 14  1  0
 17 18  1  0
 18 21  1  0
 18 19  1  1
 19 20  1  0
 21 22  2  0
 21 23  1  0
M  END
$$$$
