NDC.pdb
     RDKit          3D

 23 22  0  0  1  0  0  0  0  0999 V2000
    7.9328  -13.7668   16.4481 N   0  0  0  0  0  0  0  0  0  0  0  0
    8.0305  -14.1940   17.8071 C   0  0  0  0  0  0  0  0  0  0  0  0
    8.6914  -15.2251   18.0831 O   0  0  0  0  0  0  0  0  0  0  0  0
    7.3852  -13.4778   18.9308 C   0  0  0  0  0  0  0  0  0  0  0  0
    8.3833  -13.1273   20.0140 C   0  0  2  0  0  0  0  0  0  0  0  0
    9.5875  -12.6566   19.4523 N   0  0  0  0  0  0  0  0  0  0  0  0
    8.4894  -14.2598   20.9278 C   0  0  0  0  0  0  0  0  0  0  0  0
    7.4316  -14.6995   21.4484 O   0  0  0  0  0  0  0  0  0  0  0  0
    9.7099  -14.8750   21.2488 N   0  0  0  0  0  0  0  0  0  0  0  0
    9.8961  -15.8806   22.2488 C   0  0  1  0  0  0  0  0  0  0  0  0
   11.1484  -16.7084   22.0067 C   0  0  0  0  0  0  0  0  0  0  0  0
   11.0468  -17.5267   20.7908 C   0  0  0  0  0  0  0  0  0  0  0  0
   11.8348  -17.3867   19.8454 O   0  0  0  0  0  0  0  0  0  0  0  0
   10.1085  -15.2089   23.5791 C   0  0  0  0  0  0  0  0  0  0  0  0
   10.4937  -14.0088   23.6088 O   0  0  0  0  0  0  0  0  0  0  0  0
   10.0450  -18.4745   20.7058 O   0  0  0  0  0  0  0  0  0  0  0  0
    9.8965  -15.8606   24.8096 N   0  0  0  0  0  0  0  0  0  0  0  0
    9.9263  -15.1794   26.0900 C   0  0  1  0  0  0  0  0  0  0  0  0
    8.9940  -13.9855   26.0993 C   0  0  0  0  0  0  0  0  0  0  0  0
    9.0223  -13.1079   27.6629 S   0  0  0  0  0  0  0  0  0  0  0  0
    9.6084  -16.1291   27.1859 C   0  0  0  0  0  0  0  0  0  0  0  0
    9.7529  -15.8121   28.3866 O   0  0  0  0  0  0  0  0  0  0  0  0
    9.1390  -17.4033   26.9017 O   0  0  0  0  0  0  0  0  0  0  0  0
  1  2  1  0
  2  4  1  0
  3  2  2  0
  5  4  1  0
  5  6  1  6
  5  7  1  0
  7  8  2  0
  9  7  1  0
  9 10  1  0
 10 14  1  0
 10 11  1  6
 11 12  1  0
 12 16  1  0
 13 12  2  0
 14 15  2  0
 17 14  1  0
 17 18  1  0
 18 21  1  0
 18 19  1  6
 19 20  1  0
 21 22  2  0
 21 23  1  0
M  END
$$$$
