NDC.pdb
     RDKit          3D

 23 22  0  0  1  0  0  0  0  0999 V2000
    8.9926  -15.2693   18.0647 N   0  0  0  0  0  0  0  0  0  0  0  0
    7.6594  -14.7830   17.9062 C   0  0  0  0  0  0  0  0  0  0  0  0
    6.8996  -15.3291   17.0692 O   0  0  0  0  0  0  0  0  0  0  0  0
    7.1110  -13.6505   18.6865 C   0  0  0  0  0  0  0  0  0  0  0  0
    8.1089  -13.1414   19.7050 C   0  0  2  0  0  0  0  0  0  0  0  0
    9.3566  -12.8871   19.1003 N   0  0  0  0  0  0  0  0  0  0  0  0
    8.1108  -14.0527   20.8447 C   0  0  0  0  0  0  0  0  0  0  0  0
    7.0285  -14.2284   21.4619 O   0  0  0  0  0  0  0  0  0  0  0  0
    9.2579  -14.7360   21.2787 N   0  0  0  0  0  0  0  0  0  0  0  0
    9.3322  -15.5929   22.4215 C   0  0  1  0  0  0  0  0  0  0  0  0
   10.6249  -16.3929   22.4582 C   0  0  0  0  0  0  0  0  0  0  0  0
   10.6609  -17.3387   23.5817 C   0  0  0  0  0  0  0  0  0  0  0  0
    9.6318  -17.8795   24.0094 O   0  0  0  0  0  0  0  0  0  0  0  0
    9.3488  -14.7439   23.6646 C   0  0  0  0  0  0  0  0  0  0  0  0
    9.5148  -13.4987   23.5580 O   0  0  0  0  0  0  0  0  0  0  0  0
   11.8762  -17.6282   24.1720 O   0  0  0  0  0  0  0  0  0  0  0  0
    9.1864  -15.2759   24.9586 N   0  0  0  0  0  0  0  0  0  0  0  0
    8.8625  -14.4685   26.1194 C   0  0  1  0  0  0  0  0  0  0  0  0
    7.5911  -13.6748   25.8995 C   0  0  0  0  0  0  0  0  0  0  0  0
    7.1151  -12.7308   27.3480 S   0  0  0  0  0  0  0  0  0  0  0  0
    8.7709  -15.3220   27.3307 C   0  0  0  0  0  0  0  0  0  0  0  0
    8.8410  -14.8341   28.4796 O   0  0  0  0  0  0  0  0  0  0  0  0
    8.6038  -16.6945   27.2161 O   0  0  0  0  0  0  0  0  0  0  0  0
  1  2  1  0
  2  4  1  0
  3  2  2  0
  5  4  1  0
  5  6  1  6
  5  7  1  0
  7  8  2  0
  9  7  1  0
  9 10  1  0
 10 14  1  0
 10 11  1  6
 11 12  1  0
 12 16  1  0
 13 12  2  0
 14 15  2  0
 17 14  1  0
 17 18  1  0
 18 21  1  0
 18 19  1  6
 19 20  1  0
 21 22  2  0
 21 23  1  0
M  END
$$$$
