NDC.pdb
     RDKit          3D

 23 22  0  0  1  0  0  0  0  0999 V2000
    7.7070  -13.0180   16.9100 N   0  0  0  0  0  0  0  0  0  0  0  0
    8.0244  -14.4022   17.0591 C   0  0  0  0  0  0  0  0  0  0  0  0
    7.9202  -15.1685   16.0702 O   0  0  0  0  0  0  0  0  0  0  0  0
    8.4779  -14.9972   18.3368 C   0  0  0  0  0  0  0  0  0  0  0  0
    7.3566  -15.0561   19.3524 C   0  0  2  0  0  0  0  0  0  0  0  0
    6.8143  -13.7741   19.5750 N   0  0  0  0  0  0  0  0  0  0  0  0
    7.8365  -15.7739   20.5287 C   0  0  0  0  0  0  0  0  0  0  0  0
    7.9243  -17.0273   20.4604 O   0  0  0  0  0  0  0  0  0  0  0  0
    8.2015  -15.1323   21.7230 N   0  0  0  0  0  0  0  0  0  0  0  0
    9.0277  -15.6916   22.7479 C   0  0  1  0  0  0  0  0  0  0  0  0
   10.4310  -16.0017   22.2508 C   0  0  0  0  0  0  0  0  0  0  0  0
   11.2780  -16.5789   23.3033 C   0  0  0  0  0  0  0  0  0  0  0  0
   10.7928  -17.1826   24.2700 O   0  0  0  0  0  0  0  0  0  0  0  0
    9.2040  -14.6710   23.8403 C   0  0  0  0  0  0  0  0  0  0  0  0
    9.6391  -13.5244   23.5478 O   0  0  0  0  0  0  0  0  0  0  0  0
   12.6495  -16.4415   23.2067 O   0  0  0  0  0  0  0  0  0  0  0  0
    8.9039  -14.9340   25.1910 N   0  0  0  0  0  0  0  0  0  0  0  0
    8.3419  -13.9455   26.0917 C   0  0  1  0  0  0  0  0  0  0  0  0
    7.0607  -13.3597   25.5348 C   0  0  0  0  0  0  0  0  0  0  0  0
    6.2504  -12.2595   26.6959 S   0  0  0  0  0  0  0  0  0  0  0  0
    8.1326  -14.5356   27.4378 C   0  0  0  0  0  0  0  0  0  0  0  0
    7.8408  -15.7425   27.5831 O   0  0  0  0  0  0  0  0  0  0  0  0
    8.2570  -13.7549   28.5779 O   0  0  0  0  0  0  0  0  0  0  0  0
  1  2  1  0
  2  4  1  0
  3  2  2  0
  5  4  1  0
  5  6  1  1
  5  7  1  0
  7  8  2  0
  9  7  1  0
  9 10  1  0
 10 14  1  0
 10 11  1  6
 11 12  1  0
 12 16  1  0
 13 12  2  0
 14 15  2  0
 17 14  1  0
 17 18  1  0
 18 21  1  0
 18 19  1  6
 19 20  1  0
 21 22  2  0
 21 23  1  0
M  END
$$$$
