NDC.pdb
     RDKit          3D

 23 22  0  0  1  0  0  0  0  0999 V2000
    7.3391  -12.5056   15.7574 N   0  0  0  0  0  0  0  0  0  0  0  0
    7.2652  -13.8922   15.4244 C   0  0  0  0  0  0  0  0  0  0  0  0
    6.5690  -14.2545   14.4446 O   0  0  0  0  0  0  0  0  0  0  0  0
    7.9756  -14.9472   16.1823 C   0  0  0  0  0  0  0  0  0  0  0  0
    8.5485  -14.4122   17.4776 C   0  0  2  0  0  0  0  0  0  0  0  0
    9.1927  -13.1760   17.2676 N   0  0  0  0  0  0  0  0  0  0  0  0
    9.3451  -15.4647   18.0995 C   0  0  0  0  0  0  0  0  0  0  0  0
    8.7830  -16.5632   18.3455 O   0  0  0  0  0  0  0  0  0  0  0  0
   10.6998  -15.3064   18.4323 N   0  0  0  0  0  0  0  0  0  0  0  0
   11.5291  -16.3029   19.0367 C   0  0  1  0  0  0  0  0  0  0  0  0
   12.8864  -16.4105   18.3595 C   0  0  0  0  0  0  0  0  0  0  0  0
   12.8402  -17.2470   17.1527 C   0  0  0  0  0  0  0  0  0  0  0  0
   12.0366  -18.1831   17.0411 O   0  0  0  0  0  0  0  0  0  0  0  0
   11.8189  -15.8971   20.4571 C   0  0  0  0  0  0  0  0  0  0  0  0
   12.0696  -14.6885   20.7136 O   0  0  0  0  0  0  0  0  0  0  0  0
   13.7176  -16.9778   16.1199 O   0  0  0  0  0  0  0  0  0  0  0  0
   11.8246  -16.8103   21.5294 N   0  0  0  0  0  0  0  0  0  0  0  0
   11.2928  -16.5028   22.8435 C   0  0  1  0  0  0  0  0  0  0  0  0
    9.8521  -16.0424   22.7595 C   0  0  0  0  0  0  0  0  0  0  0  0
    9.1815  -15.5984   24.3622 S   0  0  0  0  0  0  0  0  0  0  0  0
   11.4405  -17.6728   23.7453 C   0  0  0  0  0  0  0  0  0  0  0  0
   11.0511  -18.8114   23.4063 O   0  0  0  0  0  0  0  0  0  0  0  0
   12.0197  -17.5299   24.9978 O   0  0  0  0  0  0  0  0  0  0  0  0
  1  2  1  0
  2  4  1  0
  3  2  2  0
  5  4  1  0
  5  6  1  6
  5  7  1  0
  7  8  2  0
  9  7  1  0
  9 10  1  0
 10 14  1  0
 10 11  1  6
 11 12  1  0
 12 16  1  0
 13 12  2  0
 14 15  2  0
 17 14  1  0
 17 18  1  0
 18 21  1  0
 18 19  1  6
 19 20  1  0
 21 22  2  0
 21 23  1  0
M  END
$$$$
