NDC.pdb
     RDKit          3D

 23 22  0  0  1  0  0  0  0  0999 V2000
    9.2157  -13.0825   17.6724 N   0  0  0  0  0  0  0  0  0  0  0  0
    7.9094  -13.6089   17.9080 C   0  0  0  0  0  0  0  0  0  0  0  0
    7.1249  -13.7670   16.9406 O   0  0  0  0  0  0  0  0  0  0  0  0
    7.4173  -13.9861   19.2524 C   0  0  0  0  0  0  0  0  0  0  0  0
    8.4331  -13.6634   20.3277 C   0  0  2  0  0  0  0  0  0  0  0  0
    9.7453  -13.7524   19.8203 N   0  0  0  0  0  0  0  0  0  0  0  0
    8.1330  -14.4730   21.5040 C   0  0  0  0  0  0  0  0  0  0  0  0
    6.9551  -14.4580   21.9463 O   0  0  0  0  0  0  0  0  0  0  0  0
    9.0932  -15.2613   22.1581 N   0  0  0  0  0  0  0  0  0  0  0  0
    8.8783  -16.0054   23.3607 C   0  0  1  0  0  0  0  0  0  0  0  0
    9.8120  -17.2003   23.4729 C   0  0  0  0  0  0  0  0  0  0  0  0
    9.5251  -18.2262   22.4613 C   0  0  0  0  0  0  0  0  0  0  0  0
    8.3675  -18.4726   22.0955 O   0  0  0  0  0  0  0  0  0  0  0  0
    9.2044  -15.1277   24.5394 C   0  0  0  0  0  0  0  0  0  0  0  0
   10.3242  -14.5505   24.5867 O   0  0  0  0  0  0  0  0  0  0  0  0
   10.5771  -18.9305   21.9076 O   0  0  0  0  0  0  0  0  0  0  0  0
    8.3109  -14.9148   25.6072 N   0  0  0  0  0  0  0  0  0  0  0  0
    8.6119  -14.0647   26.7435 C   0  0  1  0  0  0  0  0  0  0  0  0
    7.4138  -13.2237   27.1334 C   0  0  0  0  0  0  0  0  0  0  0  0
    6.6333  -12.4475   25.7179 S   0  0  0  0  0  0  0  0  0  0  0  0
    9.0997  -14.8820   27.8829 C   0  0  0  0  0  0  0  0  0  0  0  0
    9.0970  -16.1313   27.8382 O   0  0  0  0  0  0  0  0  0  0  0  0
    9.5747  -14.2735   29.0356 O   0  0  0  0  0  0  0  0  0  0  0  0
  1  2  1  0
  2  4  1  0
  3  2  2  0
  5  4  1  0
  5  6  1  6
  5  7  1  0
  7  8  2  0
  9  7  1  0
  9 10  1  0
 10 14  1  0
 10 11  1  6
 11 12  1  0
 12 16  1  0
 13 12  2  0
 14 15  2  0
 17 14  1  0
 17 18  1  0
 18 21  1  0
 18 19  1  1
 19 20  1  0
 21 22  2  0
 21 23  1  0
M  END
$$$$
