NDC.pdb
     RDKit          3D

 23 22  0  0  1  0  0  0  0  0999 V2000
    7.8067  -12.9228   17.8841 N   0  0  0  0  0  0  0  0  0  0  0  0
    7.7857  -13.8156   18.9983 C   0  0  0  0  0  0  0  0  0  0  0  0
    8.2637  -14.9697   18.8725 O   0  0  0  0  0  0  0  0  0  0  0  0
    7.2221  -13.4522   20.3183 C   0  0  0  0  0  0  0  0  0  0  0  0
    8.2917  -13.4163   21.3893 C   0  0  2  0  0  0  0  0  0  0  0  0
    9.5624  -13.1934   20.8212 N   0  0  0  0  0  0  0  0  0  0  0  0
    8.1502  -14.6056   22.2229 C   0  0  0  0  0  0  0  0  0  0  0  0
    7.1171  -15.3090   22.0774 O   0  0  0  0  0  0  0  0  0  0  0  0
    9.1084  -14.9957   23.1720 N   0  0  0  0  0  0  0  0  0  0  0  0
    9.0708  -16.1988   23.9448 C   0  0  1  0  0  0  0  0  0  0  0  0
   10.2580  -17.1046   23.6579 C   0  0  0  0  0  0  0  0  0  0  0  0
   10.1991  -18.3567   24.4241 C   0  0  0  0  0  0  0  0  0  0  0  0
    9.1673  -19.0404   24.4737 O   0  0  0  0  0  0  0  0  0  0  0  0
    9.1795  -15.8424   25.4034 C   0  0  0  0  0  0  0  0  0  0  0  0
    8.8048  -16.6768   26.2710 O   0  0  0  0  0  0  0  0  0  0  0  0
   11.3260  -18.7768   25.1043 O   0  0  0  0  0  0  0  0  0  0  0  0
    9.6852  -14.6081   25.8554 N   0  0  0  0  0  0  0  0  0  0  0  0
    9.5775  -14.1555   27.2294 C   0  0  1  0  0  0  0  0  0  0  0  0
    8.1373  -13.8711   27.6032 C   0  0  0  0  0  0  0  0  0  0  0  0
    7.4409  -12.5148   26.6592 S   0  0  0  0  0  0  0  0  0  0  0  0
   10.1946  -15.1458   28.1474 C   0  0  0  0  0  0  0  0  0  0  0  0
   10.6193  -16.2454   27.7311 O   0  0  0  0  0  0  0  0  0  0  0  0
   10.3160  -14.8726   29.5021 O   0  0  0  0  0  0  0  0  0  0  0  0
  1  2  1  0
  2  4  1  0
  3  2  2  0
  5  4  1  0
  5  6  1  6
  5  7  1  0
  7  8  2  0
  9  7  1  0
  9 10  1  0
 10 14  1  0
 10 11  1  6
 11 12  1  0
 12 16  1  0
 13 12  2  0
 14 15  2  0
 17 14  1  0
 17 18  1  0
 18 21  1  0
 18 19  1  1
 19 20  1  0
 21 22  2  0
 21 23  1  0
M  END
$$$$
