NDC.pdb
     RDKit          3D

 23 22  0  0  1  0  0  0  0  0999 V2000
   11.6460  -19.7697   15.1594 N   0  0  0  0  0  0  0  0  0  0  0  0
   10.9498  -19.7484   16.4060 C   0  0  0  0  0  0  0  0  0  0  0  0
    9.7004  -19.6257   16.4122 O   0  0  0  0  0  0  0  0  0  0  0  0
   11.6291  -19.8648   17.7164 C   0  0  0  0  0  0  0  0  0  0  0  0
   11.7075  -18.5282   18.4233 C   0  0  2  0  0  0  0  0  0  0  0  0
   12.3399  -17.5669   17.6089 N   0  0  0  0  0  0  0  0  0  0  0  0
   12.2821  -18.7397   19.7478 C   0  0  0  0  0  0  0  0  0  0  0  0
   11.7297  -19.5804   20.5036 O   0  0  0  0  0  0  0  0  0  0  0  0
   13.4147  -18.0518   20.2115 N   0  0  0  0  0  0  0  0  0  0  0  0
   13.9872  -18.1778   21.5163 C   0  0  1  0  0  0  0  0  0  0  0  0
   15.4683  -17.8335   21.5308 C   0  0  0  0  0  0  0  0  0  0  0  0
   16.3136  -19.0060   21.2684 C   0  0  0  0  0  0  0  0  0  0  0  0
   15.8328  -20.0809   20.8841 O   0  0  0  0  0  0  0  0  0  0  0  0
   13.3326  -17.1784   22.4322 C   0  0  0  0  0  0  0  0  0  0  0  0
   13.7131  -15.9767   22.4056 O   0  0  0  0  0  0  0  0  0  0  0  0
   17.6783  -18.9007   21.4568 O   0  0  0  0  0  0  0  0  0  0  0  0
   12.3028  -17.5208   23.3299 N   0  0  0  0  0  0  0  0  0  0  0  0
   11.7159  -16.5827   24.2679 C   0  0  1  0  0  0  0  0  0  0  0  0
   10.2379  -16.3883   23.9987 C   0  0  0  0  0  0  0  0  0  0  0  0
    9.9087  -15.9123   22.3015 S   0  0  0  0  0  0  0  0  0  0  0  0
   11.9632  -17.0267   25.6628 C   0  0  0  0  0  0  0  0  0  0  0  0
   12.4465  -18.1520   25.9135 O   0  0  0  0  0  0  0  0  0  0  0  0
   11.6611  -16.1958   26.7320 O   0  0  0  0  0  0  0  0  0  0  0  0
  1  2  1  0
  2  4  1  0
  3  2  2  0
  5  4  1  0
  5  6  1  6
  5  7  1  0
  7  8  2  0
  9  7  1  0
  9 10  1  0
 10 14  1  0
 10 11  1  6
 11 12  1  0
 12 16  1  0
 13 12  2  0
 14 15  2  0
 17 14  1  0
 17 18  1  0
 18 21  1  0
 18 19  1  6
 19 20  1  0
 21 22  2  0
 21 23  1  0
M  END
$$$$
