NDC.pdb
     RDKit          3D

 23 22  0  0  1  0  0  0  0  0999 V2000
    6.9459  -12.5452   17.7731 N   0  0  0  0  0  0  0  0  0  0  0  0
    8.0783  -13.3261   18.1562 C   0  0  0  0  0  0  0  0  0  0  0  0
    9.1326  -13.2569   17.4782 O   0  0  0  0  0  0  0  0  0  0  0  0
    8.0810  -14.2298   19.3290 C   0  0  0  0  0  0  0  0  0  0  0  0
    8.3525  -15.6638   18.9261 C   0  0  2  0  0  0  0  0  0  0  0  0
    7.4287  -16.0941   17.9522 N   0  0  0  0  0  0  0  0  0  0  0  0
    8.4478  -16.4731   20.1365 C   0  0  0  0  0  0  0  0  0  0  0  0
    7.3817  -16.9202   20.6333 O   0  0  0  0  0  0  0  0  0  0  0  0
    9.6669  -16.7721   20.7655 N   0  0  0  0  0  0  0  0  0  0  0  0
    9.8213  -17.5731   21.9404 C   0  0  1  0  0  0  0  0  0  0  0  0
   11.0760  -18.4309   21.8915 C   0  0  0  0  0  0  0  0  0  0  0  0
   11.1996  -19.3016   23.0683 C   0  0  0  0  0  0  0  0  0  0  0  0
   11.8548  -18.9610   24.0628 O   0  0  0  0  0  0  0  0  0  0  0  0
   10.0009  -16.6646   23.1272 C   0  0  0  0  0  0  0  0  0  0  0  0
   11.0435  -15.9610   23.2123 O   0  0  0  0  0  0  0  0  0  0  0  0
   10.5670  -20.5300   23.0594 O   0  0  0  0  0  0  0  0  0  0  0  0
    9.0513  -16.5583   24.1620 N   0  0  0  0  0  0  0  0  0  0  0  0
    9.2625  -15.7717   25.3624 C   0  0  1  0  0  0  0  0  0  0  0  0
    7.9816  -15.0989   25.8111 C   0  0  0  0  0  0  0  0  0  0  0  0
    7.2090  -14.1541   24.4973 S   0  0  0  0  0  0  0  0  0  0  0  0
    9.8405  -16.6174   26.4370 C   0  0  0  0  0  0  0  0  0  0  0  0
   10.0027  -17.8475   26.2833 O   0  0  0  0  0  0  0  0  0  0  0  0
   10.2183  -16.0582   27.6491 O   0  0  0  0  0  0  0  0  0  0  0  0
  1  2  1  0
  2  4  1  0
  3  2  2  0
  5  4  1  0
  5  6  1  6
  5  7  1  0
  7  8  2  0
  9  7  1  0
  9 10  1  0
 10 14  1  0
 10 11  1  6
 11 12  1  0
 12 16  1  0
 13 12  2  0
 14 15  2  0
 17 14  1  0
 17 18  1  0
 18 21  1  0
 18 19  1  1
 19 20  1  0
 21 22  2  0
 21 23  1  0
M  END
$$$$
