IIG.pdb
     RDKit          3D

 21 20  0  0  1  0  0  0  0  0999 V2000
   11.6441  -15.5446   30.6691 C   0  0  0  0  0  0  0  0  0  0  0  0
   10.4838  -16.2515   30.0594 C   0  0  0  0  0  0  0  0  0  0  0  0
   10.1197  -15.7949   28.6701 C   0  0  2  0  0  0  0  0  0  0  0  0
   10.0568  -14.3058   28.5815 C   0  0  0  0  0  0  0  0  0  0  0  0
    8.8509  -16.4999   28.2639 C   0  0  2  0  0  0  0  0  0  0  0  0
    9.2010  -17.9332   28.2456 N   0  0  0  0  0  0  0  0  0  0  0  0
    8.3848  -16.1648   26.8989 C   0  0  0  0  0  0  0  0  0  0  0  0
    7.9876  -17.0988   26.1168 O   0  0  0  0  0  0  0  0  0  0  0  0
    5.9119  -11.5733   26.4302 C   0  0  0  0  0  0  0  0  0  0  0  0
    6.0472  -13.0405   25.9852 C   0  0  0  0  0  0  0  0  0  0  0  0
    7.2293  -13.2142   25.0878 C   0  0  2  0  0  0  0  0  0  0  0  0
    7.0930  -12.5203   23.7665 C   0  0  0  0  0  0  0  0  0  0  0  0
    7.7474  -14.6248   25.0082 C   0  0  2  0  0  0  0  0  0  0  0  0
    8.3288  -14.8675   26.3464 N   0  0  0  0  0  0  0  0  0  0  0  0
    8.7018  -14.9181   23.9550 C   0  0  0  0  0  0  0  0  0  0  0  0
    8.2252  -14.9902   22.7646 O   0  0  0  0  0  0  0  0  0  0  0  0
   10.0826  -15.1273   24.1106 N   0  0  0  0  0  0  0  0  0  0  0  0
   10.9236  -15.2918   22.9414 C   0  0  0  0  0  0  0  0  0  0  0  0
   11.2773  -16.7135   22.7127 C   0  0  0  0  0  0  0  0  0  0  0  0
   12.3276  -17.1131   21.9031 O   0  0  0  0  0  0  0  0  0  0  0  0
   10.6005  -17.6080   23.2738 O   0  0  0  0  0  0  0  0  0  0  0  0
  2  1  1  0
  2  3  1  0
  3  5  1  0
  3  4  1  1
  5  7  1  0
  5  6  1  6
  7  8  2  0
 10  9  1  0
 11 10  1  0
 11 12  1  6
 13 11  1  0
 14  7  1  0
 13 14  1  1
 15 17  1  0
 15 13  1  0
 16 15  2  0
 18 17  1  0
 19 20  1  0
 19 18  1  0
 21 19  2  0
M  END
$$$$
