IIG.pdb
     RDKit          3D

 21 20  0  0  1  0  0  0  0  0999 V2000
    6.0535  -22.0586   25.0906 C   0  0  0  0  0  0  0  0  0  0  0  0
    5.4732  -20.7123   24.8289 C   0  0  0  0  0  0  0  0  0  0  0  0
    6.4818  -19.6009   24.6919 C   0  0  2  0  0  0  0  0  0  0  0  0
    7.4973  -19.6446   25.7853 C   0  0  0  0  0  0  0  0  0  0  0  0
    5.7306  -18.2983   24.5874 C   0  0  2  0  0  0  0  0  0  0  0  0
    4.9186  -18.4244   23.3618 N   0  0  0  0  0  0  0  0  0  0  0  0
    6.5992  -17.1146   24.3947 C   0  0  0  0  0  0  0  0  0  0  0  0
    7.1497  -16.9099   23.2560 O   0  0  0  0  0  0  0  0  0  0  0  0
    5.7003  -12.5159   26.8986 C   0  0  0  0  0  0  0  0  0  0  0  0
    6.1499  -13.4738   25.7809 C   0  0  0  0  0  0  0  0  0  0  0  0
    7.5301  -13.9826   26.0437 C   0  0  2  0  0  0  0  0  0  0  0  0
    8.5557  -12.9001   26.1935 C   0  0  0  0  0  0  0  0  0  0  0  0
    7.9482  -15.1290   25.1631 C   0  0  2  0  0  0  0  0  0  0  0  0
    6.8953  -16.1456   25.3770 N   0  0  0  0  0  0  0  0  0  0  0  0
    9.2714  -15.6822   25.3849 C   0  0  0  0  0  0  0  0  0  0  0  0
    9.6129  -15.8562   26.6106 O   0  0  0  0  0  0  0  0  0  0  0  0
   10.2043  -16.0432   24.3981 N   0  0  0  0  0  0  0  0  0  0  0  0
   11.5023  -16.5589   24.7864 C   0  0  0  0  0  0  0  0  0  0  0  0
   12.6086  -15.7839   24.1748 C   0  0  0  0  0  0  0  0  0  0  0  0
   13.6246  -15.2003   24.9133 O   0  0  0  0  0  0  0  0  0  0  0  0
   12.6378  -15.6423   22.9291 O   0  0  0  0  0  0  0  0  0  0  0  0
  2  1  1  0
  2  3  1  0
  3  5  1  0
  3  4  1  1
  5  7  1  0
  5  6  1  6
  7  8  2  0
 10  9  1  0
 11 10  1  0
 11 12  1  6
 13 11  1  0
 14  7  1  0
 13 14  1  1
 15 17  1  0
 15 13  1  0
 16 15  2  0
 18 17  1  0
 19 20  1  0
 19 18  1  0
 21 19  2  0
M  END
$$$$
