IIG.pdb
     RDKit          3D

 21 20  0  0  1  0  0  0  0  0999 V2000
    6.9868  -17.4921   18.5347 C   0  0  0  0  0  0  0  0  0  0  0  0
    6.6287  -16.2276   19.2350 C   0  0  0  0  0  0  0  0  0  0  0  0
    7.3469  -15.9981   20.5399 C   0  0  2  0  0  0  0  0  0  0  0  0
    7.2214  -17.1758   21.4490 C   0  0  0  0  0  0  0  0  0  0  0  0
    6.8506  -14.7006   21.1248 C   0  0  2  0  0  0  0  0  0  0  0  0
    7.0634  -13.6984   20.0629 N   0  0  0  0  0  0  0  0  0  0  0  0
    7.6206  -14.2352   22.3009 C   0  0  0  0  0  0  0  0  0  0  0  0
    8.8080  -13.7805   22.1426 O   0  0  0  0  0  0  0  0  0  0  0  0
    5.6600  -11.4616   26.3775 C   0  0  0  0  0  0  0  0  0  0  0  0
    6.5775  -12.0596   25.2960 C   0  0  0  0  0  0  0  0  0  0  0  0
    7.2370  -13.3055   25.7917 C   0  0  2  0  0  0  0  0  0  0  0  0
    7.8741  -13.1575   27.1402 C   0  0  0  0  0  0  0  0  0  0  0  0
    8.0860  -14.0090   24.7676 C   0  0  2  0  0  0  0  0  0  0  0  0
    7.1623  -14.2390   23.6356 N   0  0  0  0  0  0  0  0  0  0  0  0
    8.7334  -15.2402   25.1815 C   0  0  0  0  0  0  0  0  0  0  0  0
    8.0335  -16.0275   25.9160 O   0  0  0  0  0  0  0  0  0  0  0  0
   10.0381  -15.6499   24.8581 N   0  0  0  0  0  0  0  0  0  0  0  0
   10.5770  -16.8649   25.4367 C   0  0  0  0  0  0  0  0  0  0  0  0
   11.9580  -17.1330   24.9679 C   0  0  0  0  0  0  0  0  0  0  0  0
   12.7257  -18.1876   25.4333 O   0  0  0  0  0  0  0  0  0  0  0  0
   12.4678  -16.3754   24.1083 O   0  0  0  0  0  0  0  0  0  0  0  0
  2  1  1  0
  2  3  1  0
  3  5  1  0
  3  4  1  1
  5  7  1  0
  5  6  1  6
  7  8  2  0
 10  9  1  0
 11 10  1  0
 11 12  1  1
 13 11  1  0
 14  7  1  0
 13 14  1  6
 15 17  1  0
 15 13  1  0
 16 15  2  0
 18 17  1  0
 19 20  1  0
 19 18  1  0
 21 19  2  0
M  END
$$$$
