IIG.pdb
     RDKit          3D

 21 20  0  0  1  0  0  0  0  0999 V2000
    8.3827  -17.9745   20.7310 C   0  0  0  0  0  0  0  0  0  0  0  0
    8.3577  -16.4946   20.8950 C   0  0  0  0  0  0  0  0  0  0  0  0
    6.9822  -15.8922   21.0226 C   0  0  2  0  0  0  0  0  0  0  0  0
    6.1356  -16.2022   19.8325 C   0  0  0  0  0  0  0  0  0  0  0  0
    7.1409  -14.4214   21.3114 C   0  0  2  0  0  0  0  0  0  0  0  0
    7.9650  -13.9026   20.2027 N   0  0  0  0  0  0  0  0  0  0  0  0
    7.8836  -14.1280   22.5584 C   0  0  0  0  0  0  0  0  0  0  0  0
    9.1200  -13.7972   22.4979 O   0  0  0  0  0  0  0  0  0  0  0  0
    5.5455  -11.4091   26.4874 C   0  0  0  0  0  0  0  0  0  0  0  0
    6.6204  -11.9235   25.5133 C   0  0  0  0  0  0  0  0  0  0  0  0
    7.2047  -13.2093   26.0013 C   0  0  2  0  0  0  0  0  0  0  0  0
    7.6655  -13.1620   27.4266 C   0  0  0  0  0  0  0  0  0  0  0  0
    8.1736  -13.8536   25.0470 C   0  0  2  0  0  0  0  0  0  0  0  0
    7.3477  -14.1753   23.8630 N   0  0  0  0  0  0  0  0  0  0  0  0
    8.8920  -15.0206   25.5247 C   0  0  0  0  0  0  0  0  0  0  0  0
    9.6506  -14.8388   26.5448 O   0  0  0  0  0  0  0  0  0  0  0  0
    8.8366  -16.3169   24.9851 N   0  0  0  0  0  0  0  0  0  0  0  0
    9.5690  -17.3946   25.6202 C   0  0  0  0  0  0  0  0  0  0  0  0
   10.9691  -17.4688   25.1375 C   0  0  0  0  0  0  0  0  0  0  0  0
   11.4943  -18.5814   24.5015 O   0  0  0  0  0  0  0  0  0  0  0  0
   11.7254  -16.4828   25.3069 O   0  0  0  0  0  0  0  0  0  0  0  0
  2  1  1  0
  2  3  1  0
  3  5  1  0
  3  4  1  6
  5  7  1  0
  5  6  1  6
  7  8  2  0
 10  9  1  0
 11 10  1  0
 11 12  1  1
 13 11  1  0
 14  7  1  0
 13 14  1  6
 15 17  1  0
 15 13  1  0
 16 15  2  0
 18 17  1  0
 19 20  1  0
 19 18  1  0
 21 19  2  0
M  END
$$$$
