IIG.pdb
     RDKit          3D

 21 20  0  0  1  0  0  0  0  0999 V2000
   11.4607  -15.7341   30.9693 C   0  0  0  0  0  0  0  0  0  0  0  0
   10.2180  -16.3012   30.3762 C   0  0  0  0  0  0  0  0  0  0  0  0
   10.0282  -16.0193   28.9080 C   0  0  2  0  0  0  0  0  0  0  0  0
   10.2423  -14.5753   28.5950 C   0  0  0  0  0  0  0  0  0  0  0  0
    8.6796  -16.5547   28.4998 C   0  0  2  0  0  0  0  0  0  0  0  0
    8.7653  -18.0111   28.7213 N   0  0  0  0  0  0  0  0  0  0  0  0
    8.3647  -16.3668   27.0651 C   0  0  0  0  0  0  0  0  0  0  0  0
    8.3035  -17.3853   26.2901 O   0  0  0  0  0  0  0  0  0  0  0  0
    6.0483  -11.8956   25.9774 C   0  0  0  0  0  0  0  0  0  0  0  0
    6.1273  -13.3908   25.6206 C   0  0  0  0  0  0  0  0  0  0  0  0
    7.3243  -13.6692   24.7705 C   0  0  2  0  0  0  0  0  0  0  0  0
    7.1569  -13.2621   23.3379 C   0  0  0  0  0  0  0  0  0  0  0  0
    7.9257  -15.0339   24.9715 C   0  0  2  0  0  0  0  0  0  0  0  0
    8.1128  -15.1292   26.4356 N   0  0  0  0  0  0  0  0  0  0  0  0
    9.1573  -15.3229   24.2602 C   0  0  0  0  0  0  0  0  0  0  0  0
   10.1758  -14.6097   24.5812 O   0  0  0  0  0  0  0  0  0  0  0  0
    9.3407  -16.2985   23.2658 N   0  0  0  0  0  0  0  0  0  0  0  0
   10.6654  -16.5423   22.7299 C   0  0  0  0  0  0  0  0  0  0  0  0
   10.7799  -16.0975   21.3200 C   0  0  0  0  0  0  0  0  0  0  0  0
   11.8781  -15.4123   20.8275 O   0  0  0  0  0  0  0  0  0  0  0  0
    9.8435  -16.3474   20.5240 O   0  0  0  0  0  0  0  0  0  0  0  0
  2  1  1  0
  2  3  1  0
  3  5  1  0
  3  4  1  1
  5  7  1  0
  5  6  1  6
  7  8  2  0
 10  9  1  0
 11 10  1  0
 11 12  1  6
 13 11  1  0
 14  7  1  0
 13 14  1  1
 15 17  1  0
 15 13  1  0
 16 15  2  0
 18 17  1  0
 19 20  1  0
 19 18  1  0
 21 19  2  0
M  END
$$$$
