IIG.pdb
     RDKit          3D

 21 20  0  0  1  0  0  0  0  0999 V2000
    7.0319  -11.7905   28.0896 C   0  0  0  0  0  0  0  0  0  0  0  0
    6.5004  -12.9331   27.2959 C   0  0  0  0  0  0  0  0  0  0  0  0
    7.4389  -13.4686   26.2453 C   0  0  2  0  0  0  0  0  0  0  0  0
    8.0456  -12.3675   25.4400 C   0  0  0  0  0  0  0  0  0  0  0  0
    6.6947  -14.4992   25.4354 C   0  0  2  0  0  0  0  0  0  0  0  0
    6.3526  -15.5646   26.3973 N   0  0  0  0  0  0  0  0  0  0  0  0
    7.5089  -15.1369   24.3757 C   0  0  0  0  0  0  0  0  0  0  0  0
    7.8272  -16.3739   24.4778 O   0  0  0  0  0  0  0  0  0  0  0  0
    8.1239  -12.4210   19.4752 C   0  0  0  0  0  0  0  0  0  0  0  0
    8.6467  -13.1352   20.7344 C   0  0  0  0  0  0  0  0  0  0  0  0
    8.0372  -14.4934   20.8636 C   0  0  2  0  0  0  0  0  0  0  0  0
    6.5558  -14.5158   20.6380 C   0  0  0  0  0  0  0  0  0  0  0  0
    8.5036  -15.2723   22.0638 C   0  0  2  0  0  0  0  0  0  0  0  0
    7.9905  -14.4968   23.2139 N   0  0  0  0  0  0  0  0  0  0  0  0
    9.9302  -15.5119   22.1806 C   0  0  0  0  0  0  0  0  0  0  0  0
   10.4662  -16.2017   21.2394 O   0  0  0  0  0  0  0  0  0  0  0  0
   10.7725  -15.0651   23.2128 N   0  0  0  0  0  0  0  0  0  0  0  0
   12.2072  -15.2396   23.0997 C   0  0  0  0  0  0  0  0  0  0  0  0
   12.6589  -16.5069   23.7231 C   0  0  0  0  0  0  0  0  0  0  0  0
   13.9770  -16.7547   24.0686 O   0  0  0  0  0  0  0  0  0  0  0  0
   11.8165  -17.4068   23.9543 O   0  0  0  0  0  0  0  0  0  0  0  0
  2  1  1  0
  2  3  1  0
  3  5  1  0
  3  4  1  6
  5  7  1  0
  5  6  1  1
  7  8  2  0
 10  9  1  0
 11 10  1  0
 11 12  1  1
 13 11  1  0
 14  7  1  0
 13 14  1  1
 15 17  1  0
 15 13  1  0
 16 15  2  0
 18 17  1  0
 19 20  1  0
 19 18  1  0
 21 19  2  0
M  END
$$$$
