IIG.pdb
     RDKit          3D

 21 20  0  0  1  0  0  0  0  0999 V2000
    6.8093  -12.9210   18.6485 C   0  0  0  0  0  0  0  0  0  0  0  0
    7.0665  -14.0788   19.5492 C   0  0  0  0  0  0  0  0  0  0  0  0
    7.8653  -13.7570   20.7859 C   0  0  2  0  0  0  0  0  0  0  0  0
    9.1673  -13.1110   20.4446 C   0  0  0  0  0  0  0  0  0  0  0  0
    7.9875  -15.0168   21.6044 C   0  0  2  0  0  0  0  0  0  0  0  0
    6.6171  -15.5596   21.6743 N   0  0  0  0  0  0  0  0  0  0  0  0
    8.4198  -14.7888   23.0022 C   0  0  0  0  0  0  0  0  0  0  0  0
    9.6671  -14.6664   23.2687 O   0  0  0  0  0  0  0  0  0  0  0  0
    5.5550  -11.5171   25.9203 C   0  0  0  0  0  0  0  0  0  0  0  0
    6.7395  -12.2796   25.3000 C   0  0  0  0  0  0  0  0  0  0  0  0
    7.0471  -13.5110   26.0887 C   0  0  2  0  0  0  0  0  0  0  0  0
    7.2231  -13.2616   27.5559 C   0  0  0  0  0  0  0  0  0  0  0  0
    8.0925  -14.3998   25.4708 C   0  0  2  0  0  0  0  0  0  0  0  0
    7.5639  -14.6862   24.1195 N   0  0  0  0  0  0  0  0  0  0  0  0
    8.4219  -15.6220   26.1807 C   0  0  0  0  0  0  0  0  0  0  0  0
    8.9340  -15.4761   27.3493 O   0  0  0  0  0  0  0  0  0  0  0  0
    8.2352  -16.9355   25.7179 N   0  0  0  0  0  0  0  0  0  0  0  0
    8.4193  -18.0525   26.6233 C   0  0  0  0  0  0  0  0  0  0  0  0
    9.8301  -18.5076   26.6571 C   0  0  0  0  0  0  0  0  0  0  0  0
   10.2793  -19.5255   27.4819 O   0  0  0  0  0  0  0  0  0  0  0  0
   10.6681  -17.9521   25.9073 O   0  0  0  0  0  0  0  0  0  0  0  0
  2  1  1  0
  2  3  1  0
  3  5  1  0
  3  4  1  6
  5  7  1  0
  5  6  1  1
  7  8  2  0
 10  9  1  0
 11 10  1  0
 11 12  1  1
 13 11  1  0
 14  7  1  0
 13 14  1  6
 15 17  1  0
 15 13  1  0
 16 15  2  0
 18 17  1  0
 19 20  1  0
 19 18  1  0
 21 19  2  0
M  END
$$$$
