IIG.pdb
     RDKit          3D

 21 20  0  0  1  0  0  0  0  0999 V2000
   11.2747  -15.0358   30.7955 C   0  0  0  0  0  0  0  0  0  0  0  0
   10.4259  -15.9887   30.0279 C   0  0  0  0  0  0  0  0  0  0  0  0
    9.9951  -15.5030   28.6679 C   0  0  2  0  0  0  0  0  0  0  0  0
    9.5553  -14.0768   28.7092 C   0  0  0  0  0  0  0  0  0  0  0  0
    8.9608  -16.4615   28.1353 C   0  0  2  0  0  0  0  0  0  0  0  0
    9.6402  -17.7707   28.0949 N   0  0  0  0  0  0  0  0  0  0  0  0
    8.5264  -16.1717   26.7496 C   0  0  0  0  0  0  0  0  0  0  0  0
    8.2060  -17.1368   25.9700 O   0  0  0  0  0  0  0  0  0  0  0  0
    5.9117  -11.7320   26.4348 C   0  0  0  0  0  0  0  0  0  0  0  0
    6.0190  -13.1637   25.8801 C   0  0  0  0  0  0  0  0  0  0  0  0
    7.1935  -13.2895   24.9647 C   0  0  2  0  0  0  0  0  0  0  0  0
    7.0136  -12.5924   23.6503 C   0  0  0  0  0  0  0  0  0  0  0  0
    7.7599  -14.6804   24.8679 C   0  0  2  0  0  0  0  0  0  0  0  0
    8.4226  -14.8875   26.1738 N   0  0  0  0  0  0  0  0  0  0  0  0
    8.6656  -14.9481   23.7660 C   0  0  0  0  0  0  0  0  0  0  0  0
    8.1282  -15.0451   22.6037 O   0  0  0  0  0  0  0  0  0  0  0  0
   10.0592  -15.1084   23.8475 N   0  0  0  0  0  0  0  0  0  0  0  0
   10.8349  -15.3037   22.6386 C   0  0  0  0  0  0  0  0  0  0  0  0
   11.1503  -16.7348   22.4116 C   0  0  0  0  0  0  0  0  0  0  0  0
   12.0454  -17.1708   21.4488 O   0  0  0  0  0  0  0  0  0  0  0  0
   10.5860  -17.6031   23.1190 O   0  0  0  0  0  0  0  0  0  0  0  0
  2  1  1  0
  2  3  1  0
  3  5  1  0
  3  4  1  1
  5  7  1  0
  5  6  1  6
  7  8  2  0
 10  9  1  0
 11 10  1  0
 11 12  1  6
 13 11  1  0
 14  7  1  0
 13 14  1  1
 15 17  1  0
 15 13  1  0
 16 15  2  0
 18 17  1  0
 19 20  1  0
 19 18  1  0
 21 19  2  0
M  END
$$$$
