IIG.pdb
     RDKit          3D

 21 20  0  0  1  0  0  0  0  0999 V2000
    6.0296  -16.0938   19.0889 C   0  0  0  0  0  0  0  0  0  0  0  0
    7.4808  -15.7652   19.1506 C   0  0  0  0  0  0  0  0  0  0  0  0
    8.0422  -15.6240   20.5420 C   0  0  2  0  0  0  0  0  0  0  0  0
    7.8238  -16.8609   21.3492 C   0  0  0  0  0  0  0  0  0  0  0  0
    7.4700  -14.3699   21.1518 C   0  0  2  0  0  0  0  0  0  0  0  0
    7.8222  -13.2925   20.2071 N   0  0  0  0  0  0  0  0  0  0  0  0
    8.0744  -14.0012   22.4524 C   0  0  0  0  0  0  0  0  0  0  0  0
    9.2788  -13.5659   22.4918 O   0  0  0  0  0  0  0  0  0  0  0  0
    5.4087  -11.3670   26.2021 C   0  0  0  0  0  0  0  0  0  0  0  0
    6.5312  -11.8915   25.2889 C   0  0  0  0  0  0  0  0  0  0  0  0
    7.1188  -13.1491   25.8420 C   0  0  2  0  0  0  0  0  0  0  0  0
    7.4929  -13.0563   27.2903 C   0  0  0  0  0  0  0  0  0  0  0  0
    8.1589  -13.7886   24.9624 C   0  0  2  0  0  0  0  0  0  0  0  0
    7.4336  -14.0814   23.7071 N   0  0  0  0  0  0  0  0  0  0  0  0
    8.8224  -14.9715   25.4790 C   0  0  0  0  0  0  0  0  0  0  0  0
    9.5320  -14.8049   26.5364 O   0  0  0  0  0  0  0  0  0  0  0  0
    8.7626  -16.2678   24.9401 N   0  0  0  0  0  0  0  0  0  0  0  0
    9.4651  -17.3542   25.5941 C   0  0  0  0  0  0  0  0  0  0  0  0
   10.8741  -17.4504   25.1421 C   0  0  0  0  0  0  0  0  0  0  0  0
   11.4370  -18.6192   24.6571 O   0  0  0  0  0  0  0  0  0  0  0  0
   11.6027  -16.4310   25.1962 O   0  0  0  0  0  0  0  0  0  0  0  0
  2  1  1  0
  2  3  1  0
  3  5  1  0
  3  4  1  1
  5  7  1  0
  5  6  1  6
  7  8  2  0
 10  9  1  0
 11 10  1  0
 11 12  1  1
 13 11  1  0
 14  7  1  0
 13 14  1  6
 15 17  1  0
 15 13  1  0
 16 15  2  0
 18 17  1  0
 19 20  1  0
 19 18  1  0
 21 19  2  0
M  END
$$$$
