IIG.pdb
     RDKit          3D

 21 20  0  0  1  0  0  0  0  0999 V2000
    9.0640  -12.7002   27.3322 C   0  0  0  0  0  0  0  0  0  0  0  0
    8.3838  -13.8650   26.7010 C   0  0  0  0  0  0  0  0  0  0  0  0
    7.0910  -13.5416   25.9973 C   0  0  2  0  0  0  0  0  0  0  0  0
    6.1385  -12.8302   26.9005 C   0  0  0  0  0  0  0  0  0  0  0  0
    6.5528  -14.8163   25.3995 C   0  0  2  0  0  0  0  0  0  0  0  0
    6.6339  -15.8105   26.4868 N   0  0  0  0  0  0  0  0  0  0  0  0
    7.3658  -15.3494   24.2825 C   0  0  0  0  0  0  0  0  0  0  0  0
    7.7731  -16.5637   24.3172 O   0  0  0  0  0  0  0  0  0  0  0  0
    8.0546  -12.2454   19.6178 C   0  0  0  0  0  0  0  0  0  0  0  0
    8.5781  -13.0841   20.7974 C   0  0  0  0  0  0  0  0  0  0  0  0
    7.9548  -14.4422   20.7986 C   0  0  2  0  0  0  0  0  0  0  0  0
    6.4873  -14.4346   20.4948 C   0  0  0  0  0  0  0  0  0  0  0  0
    8.3526  -15.3076   21.9637 C   0  0  2  0  0  0  0  0  0  0  0  0
    7.7544  -14.6283   23.1334 N   0  0  0  0  0  0  0  0  0  0  0  0
    9.7717  -15.5425   22.1562 C   0  0  0  0  0  0  0  0  0  0  0  0
   10.3843  -16.1248   21.1893 O   0  0  0  0  0  0  0  0  0  0  0  0
   10.5321  -15.1967   23.2861 N   0  0  0  0  0  0  0  0  0  0  0  0
   11.9738  -15.3455   23.2588 C   0  0  0  0  0  0  0  0  0  0  0  0
   12.3912  -16.7293   23.5899 C   0  0  0  0  0  0  0  0  0  0  0  0
   13.7086  -17.0898   23.8194 O   0  0  0  0  0  0  0  0  0  0  0  0
   11.5188  -17.6268   23.6692 O   0  0  0  0  0  0  0  0  0  0  0  0
  2  1  1  0
  2  3  1  0
  3  5  1  0
  3  4  1  1
  5  7  1  0
  5  6  1  1
  7  8  2  0
 10  9  1  0
 11 10  1  0
 11 12  1  1
 13 11  1  0
 14  7  1  0
 13 14  1  1
 15 17  1  0
 15 13  1  0
 16 15  2  0
 18 17  1  0
 19 20  1  0
 19 18  1  0
 21 19  2  0
M  END
$$$$
