IIG.pdb
     RDKit          3D

 21 20  0  0  1  0  0  0  0  0999 V2000
    7.8735  -21.4459   28.4732 C   0  0  0  0  0  0  0  0  0  0  0  0
    6.9355  -20.4859   27.8277 C   0  0  0  0  0  0  0  0  0  0  0  0
    7.5823  -19.4957   26.8937 C   0  0  2  0  0  0  0  0  0  0  0  0
    8.7930  -18.8738   27.5072 C   0  0  0  0  0  0  0  0  0  0  0  0
    6.5287  -18.5120   26.4530 C   0  0  2  0  0  0  0  0  0  0  0  0
    5.5463  -19.3173   25.7022 N   0  0  0  0  0  0  0  0  0  0  0  0
    7.0238  -17.4760   25.5179 C   0  0  0  0  0  0  0  0  0  0  0  0
    7.2081  -17.7703   24.2845 O   0  0  0  0  0  0  0  0  0  0  0  0
    7.4561  -11.8774   26.7378 C   0  0  0  0  0  0  0  0  0  0  0  0
    7.9312  -13.3293   26.5504 C   0  0  0  0  0  0  0  0  0  0  0  0
    7.4593  -13.8755   25.2421 C   0  0  2  0  0  0  0  0  0  0  0  0
    5.9866  -13.7153   25.0153 C   0  0  0  0  0  0  0  0  0  0  0  0
    8.0044  -15.2368   24.9039 C   0  0  2  0  0  0  0  0  0  0  0  0
    7.3255  -16.1401   25.8582 N   0  0  0  0  0  0  0  0  0  0  0  0
    9.4455  -15.4007   24.9530 C   0  0  0  0  0  0  0  0  0  0  0  0
   10.0176  -15.0459   26.0466 O   0  0  0  0  0  0  0  0  0  0  0  0
   10.2662  -15.9062   23.9305 N   0  0  0  0  0  0  0  0  0  0  0  0
   11.6964  -16.0148   24.1406 C   0  0  0  0  0  0  0  0  0  0  0  0
   12.4645  -15.4011   23.0306 C   0  0  0  0  0  0  0  0  0  0  0  0
   13.7290  -14.8595   23.1917 O   0  0  0  0  0  0  0  0  0  0  0  0
   11.9560  -15.3639   21.8848 O   0  0  0  0  0  0  0  0  0  0  0  0
  2  1  1  0
  2  3  1  0
  3  5  1  0
  3  4  1  1
  5  7  1  0
  5  6  1  6
  7  8  2  0
 10  9  1  0
 11 10  1  0
 11 12  1  1
 13 11  1  0
 14  7  1  0
 13 14  1  1
 15 17  1  0
 15 13  1  0
 16 15  2  0
 18 17  1  0
 19 20  1  0
 19 18  1  0
 21 19  2  0
M  END
$$$$
