IIG.pdb
     RDKit          3D

 21 20  0  0  1  0  0  0  0  0999 V2000
    9.9255  -14.0660   29.7149 C   0  0  0  0  0  0  0  0  0  0  0  0
    9.8755  -15.1175   28.6615 C   0  0  0  0  0  0  0  0  0  0  0  0
    9.2253  -16.4099   29.0836 C   0  0  2  0  0  0  0  0  0  0  0  0
    9.9904  -17.0760   30.1791 C   0  0  0  0  0  0  0  0  0  0  0  0
    9.0283  -17.2578   27.8530 C   0  0  2  0  0  0  0  0  0  0  0  0
   10.3799  -17.4232   27.2845 N   0  0  0  0  0  0  0  0  0  0  0  0
    8.2074  -16.6143   26.8020 C   0  0  0  0  0  0  0  0  0  0  0  0
    6.9833  -16.9615   26.6514 O   0  0  0  0  0  0  0  0  0  0  0  0
    6.5188  -12.0694   26.2911 C   0  0  0  0  0  0  0  0  0  0  0  0
    6.5680  -13.5720   25.9612 C   0  0  0  0  0  0  0  0  0  0  0  0
    7.5330  -13.8386   24.8518 C   0  0  2  0  0  0  0  0  0  0  0  0
    7.2045  -13.1200   23.5784 C   0  0  0  0  0  0  0  0  0  0  0  0
    7.8984  -15.2884   24.6809 C   0  0  2  0  0  0  0  0  0  0  0  0
    8.6518  -15.6140   25.9113 N   0  0  0  0  0  0  0  0  0  0  0  0
    8.6492  -15.6431   23.4906 C   0  0  0  0  0  0  0  0  0  0  0  0
    9.8804  -15.2789   23.4698 O   0  0  0  0  0  0  0  0  0  0  0  0
    8.1639  -16.3403   22.3713 N   0  0  0  0  0  0  0  0  0  0  0  0
    9.0659  -17.1569   21.5832 C   0  0  0  0  0  0  0  0  0  0  0  0
    9.7629  -16.3618   20.5436 C   0  0  0  0  0  0  0  0  0  0  0  0
   10.6721  -16.9084   19.6532 O   0  0  0  0  0  0  0  0  0  0  0  0
    9.5268  -15.1332   20.4554 O   0  0  0  0  0  0  0  0  0  0  0  0
  2  1  1  0
  2  3  1  0
  3  5  1  0
  3  4  1  1
  5  7  1  0
  5  6  1  6
  7  8  2  0
 10  9  1  0
 11 10  1  0
 11 12  1  6
 13 11  1  0
 14  7  1  0
 13 14  1  1
 15 17  1  0
 15 13  1  0
 16 15  2  0
 18 17  1  0
 19 20  1  0
 19 18  1  0
 21 19  2  0
M  END
$$$$
