HFP.pdb
     RDKit          3D

 29 31  0  0  1  0  0  0  0  0999 V2000
   26.2383  -21.0080  -11.8405 N   0  0  0  0  0  0  0  0  0  0  0  0
   25.6624  -20.4350  -10.6674 C   0  0  1  0  0  0  0  0  0  0  0  0
   24.2826  -20.9007  -10.3491 C   0  0  0  0  0  0  0  0  0  0  0  0
   23.2972  -20.4891  -11.3824 C   0  0  0  0  0  0  0  0  0  0  0  0
   22.6547  -19.2708  -11.4559 C   0  0  0  0  0  0  0  0  0  0  0  0
   21.8389  -19.2843  -12.5356 N   0  0  0  0  0  0  0  0  0  0  0  0
   21.9556  -20.4672  -13.1301 C   0  0  0  0  0  0  0  0  0  0  0  0
   22.8378  -21.1939  -12.4312 N   0  0  0  0  0  0  0  0  0  0  0  0
   26.5021  -20.6745   -9.4386 C   0  0  0  0  0  0  0  0  0  0  0  0
   26.8050  -21.8492   -9.1620 O   0  0  0  0  0  0  0  0  0  0  0  0
   26.8795  -19.5484   -8.6975 N   0  0  0  0  0  0  0  0  0  0  0  0
   27.7052  -19.7418   -7.4978 C   0  0  1  0  0  0  0  0  0  0  0  0
   28.3845  -18.4362   -7.1360 C   0  0  0  0  0  0  0  0  0  0  0  0
   29.2499  -18.5592   -5.9559 C   0  0  0  0  0  0  0  0  0  0  0  0
   30.3715  -19.3874   -6.0040 C   0  0  0  0  0  0  0  0  0  0  0  0
   31.2139  -19.5372   -4.9082 C   0  0  0  0  0  0  0  0  0  0  0  0
   30.9460  -18.8575   -3.7414 C   0  0  0  0  0  0  0  0  0  0  0  0
   29.8524  -18.0409   -3.6727 C   0  0  0  0  0  0  0  0  0  0  0  0
   29.0233  -17.9031   -4.7741 C   0  0  0  0  0  0  0  0  0  0  0  0
   26.9275  -20.3298   -6.3904 C   0  0  0  0  0  0  0  0  0  0  0  0
   25.7247  -19.8983   -6.2927 O   0  0  0  0  0  0  0  0  0  0  0  0
   27.4197  -21.3016   -5.4759 N   0  0  0  0  0  0  0  0  0  0  0  0
   28.6643  -21.9877   -5.5689 C   0  0  0  0  0  0  0  0  0  0  0  0
   29.0007  -22.1386   -4.0714 C   0  0  0  0  0  0  0  0  0  0  0  0
   27.6324  -22.5832   -3.5208 C   0  0  0  0  0  0  0  0  0  0  0  0
   26.6758  -21.7920   -4.3587 C   0  0  1  0  0  0  0  0  0  0  0  0
   26.0600  -20.6912   -3.5667 C   0  0  0  0  0  0  0  0  0  0  0  0
   25.0713  -20.9747   -2.6601 O   0  0  0  0  0  0  0  0  0  0  0  0
   26.4466  -19.5271   -3.7339 O   0  0  0  0  0  0  0  0  0  0  0  0
  2  1  1  6
  3  2  1  0
  4  5  2  0
  4  3  1  0
  6  5  1  0
  7  8  2  0
  7  6  1  0
  8  4  1  0
  9  2  1  0
 10  9  2  0
 11  9  1  0
 12 11  1  0
 12 13  1  1
 13 14  1  0
 14 19  1  0
 14 15  2  0
 15 16  1  0
 16 17  2  0
 18 17  1  0
 19 18  2  0
 20 12  1  0
 21 20  2  0
 22 20  1  0
 22 26  1  0
 23 24  1  0
 23 22  1  0
 24 25  1  0
 25 26  1  0
 27 28  1  0
 26 27  1  1
 29 27  2  0
M  END
$$$$
