HFP.pdb
     RDKit          3D

 29 31  0  0  1  0  0  0  0  0999 V2000
   21.6328  -13.3545  -19.1209 N   0  0  0  0  0  0  0  0  0  0  0  0
   21.3445  -11.9649  -19.2692 C   0  0  1  0  0  0  0  0  0  0  0  0
   20.2190  -11.6485  -20.1941 C   0  0  0  0  0  0  0  0  0  0  0  0
   20.4359  -12.2041  -21.5552 C   0  0  0  0  0  0  0  0  0  0  0  0
   21.2881  -11.6992  -22.5149 C   0  0  0  0  0  0  0  0  0  0  0  0
   21.2026  -12.4829  -23.6149 N   0  0  0  0  0  0  0  0  0  0  0  0
   20.3282  -13.4527  -23.3674 C   0  0  0  0  0  0  0  0  0  0  0  0
   19.8660  -13.2821  -22.1216 N   0  0  0  0  0  0  0  0  0  0  0  0
   21.0333  -11.2985  -17.9533 C   0  0  0  0  0  0  0  0  0  0  0  0
   20.2617  -11.8852  -17.1733 O   0  0  0  0  0  0  0  0  0  0  0  0
   21.6410  -10.0613  -17.7082 N   0  0  0  0  0  0  0  0  0  0  0  0
   21.3563   -9.3784  -16.4390 C   0  0  1  0  0  0  0  0  0  0  0  0
   22.6558   -9.1117  -15.7062 C   0  0  0  0  0  0  0  0  0  0  0  0
   22.4462   -8.4666  -14.4037 C   0  0  0  0  0  0  0  0  0  0  0  0
   22.3046   -9.2506  -13.2584 C   0  0  0  0  0  0  0  0  0  0  0  0
   22.0989   -8.6814  -12.0068 C   0  0  0  0  0  0  0  0  0  0  0  0
   22.0312   -7.3121  -11.8808 C   0  0  0  0  0  0  0  0  0  0  0  0
   22.1673   -6.5254  -12.9899 C   0  0  0  0  0  0  0  0  0  0  0  0
   22.3717   -7.1091  -14.2296 C   0  0  0  0  0  0  0  0  0  0  0  0
   20.5343   -8.1703  -16.6430 C   0  0  0  0  0  0  0  0  0  0  0  0
   21.0461   -7.3019  -17.4344 O   0  0  0  0  0  0  0  0  0  0  0  0
   19.2684   -7.9352  -16.0386 N   0  0  0  0  0  0  0  0  0  0  0  0
   18.5035   -8.8805  -15.2971 C   0  0  0  0  0  0  0  0  0  0  0  0
   17.8402   -7.9420  -14.2686 C   0  0  0  0  0  0  0  0  0  0  0  0
   17.4112   -6.7808  -15.1854 C   0  0  0  0  0  0  0  0  0  0  0  0
   18.5389   -6.7133  -16.1687 C   0  0  1  0  0  0  0  0  0  0  0  0
   19.3930   -5.5195  -15.9172 C   0  0  0  0  0  0  0  0  0  0  0  0
   18.8874   -4.2629  -16.1298 O   0  0  0  0  0  0  0  0  0  0  0  0
   20.5548   -5.6718  -15.5175 O   0  0  0  0  0  0  0  0  0  0  0  0
  2  1  1  1
  3  2  1  0
  4  5  2  0
  4  3  1  0
  6  5  1  0
  7  8  2  0
  7  6  1  0
  8  4  1  0
  9  2  1  0
 10  9  2  0
 11  9  1  0
 12 11  1  0
 12 13  1  6
 13 14  1  0
 14 19  1  0
 14 15  2  0
 15 16  1  0
 16 17  2  0
 18 17  1  0
 19 18  2  0
 20 12  1  0
 21 20  2  0
 22 20  1  0
 22 26  1  0
 23 24  1  0
 23 22  1  0
 24 25  1  0
 25 26  1  0
 27 28  1  0
 26 27  1  1
 29 27  2  0
M  END
$$$$
