HFP.pdb
     RDKit          3D

 29 31  0  0  1  0  0  0  0  0999 V2000
   27.7409  -18.1677  -19.0032 N   0  0  0  0  0  0  0  0  0  0  0  0
   26.7715  -17.7765  -18.0318 C   0  0  1  0  0  0  0  0  0  0  0  0
   25.4087  -17.5073  -18.5724 C   0  0  0  0  0  0  0  0  0  0  0  0
   25.3610  -16.2641  -19.3850 C   0  0  0  0  0  0  0  0  0  0  0  0
   25.6205  -16.1634  -20.7359 C   0  0  0  0  0  0  0  0  0  0  0  0
   25.4723  -14.8690  -21.1024 N   0  0  0  0  0  0  0  0  0  0  0  0
   25.1309  -14.1686  -20.0259 C   0  0  0  0  0  0  0  0  0  0  0  0
   25.0641  -15.0140  -18.9888 N   0  0  0  0  0  0  0  0  0  0  0  0
   26.6153  -18.7959  -16.9323 C   0  0  0  0  0  0  0  0  0  0  0  0
   26.7492  -19.9965  -17.2301 O   0  0  0  0  0  0  0  0  0  0  0  0
   26.3295  -18.3097  -15.6510 N   0  0  0  0  0  0  0  0  0  0  0  0
   26.1477  -19.2747  -14.5582 C   0  0  1  0  0  0  0  0  0  0  0  0
   26.7082  -18.6960  -13.2745 C   0  0  0  0  0  0  0  0  0  0  0  0
   26.5100  -19.5845  -12.1221 C   0  0  0  0  0  0  0  0  0  0  0  0
   27.3599  -20.6749  -11.9352 C   0  0  0  0  0  0  0  0  0  0  0  0
   27.2044  -21.5441  -10.8614 C   0  0  0  0  0  0  0  0  0  0  0  0
   26.1910  -21.3350   -9.9532 C   0  0  0  0  0  0  0  0  0  0  0  0
   25.3470  -20.2729  -10.1176 C   0  0  0  0  0  0  0  0  0  0  0  0
   25.5161  -19.4165  -11.1934 C   0  0  0  0  0  0  0  0  0  0  0  0
   24.7429  -19.7115  -14.4455 C   0  0  0  0  0  0  0  0  0  0  0  0
   23.8994  -18.7624  -14.2728 O   0  0  0  0  0  0  0  0  0  0  0  0
   24.3019  -21.0619  -14.5174 N   0  0  0  0  0  0  0  0  0  0  0  0
   25.0990  -22.1878  -14.8713 C   0  0  0  0  0  0  0  0  0  0  0  0
   24.4479  -23.2679  -13.9836 C   0  0  0  0  0  0  0  0  0  0  0  0
   22.9566  -22.9623  -14.2196 C   0  0  0  0  0  0  0  0  0  0  0  0
   22.9461  -21.4679  -14.3197 C   0  0  1  0  0  0  0  0  0  0  0  0
   22.3488  -20.8574  -13.0996 C   0  0  0  0  0  0  0  0  0  0  0  0
   23.1639  -20.4234  -12.0861 O   0  0  0  0  0  0  0  0  0  0  0  0
   21.1191  -20.7467  -13.0103 O   0  0  0  0  0  0  0  0  0  0  0  0
  2  1  1  6
  3  2  1  0
  4  5  2  0
  4  3  1  0
  6  5  1  0
  7  8  2  0
  7  6  1  0
  8  4  1  0
  9  2  1  0
 10  9  2  0
 11  9  1  0
 12 11  1  0
 12 13  1  1
 13 14  1  0
 14 19  1  0
 14 15  2  0
 15 16  1  0
 16 17  2  0
 18 17  1  0
 19 18  2  0
 20 12  1  0
 21 20  2  0
 22 20  1  0
 22 26  1  0
 23 24  1  0
 23 22  1  0
 24 25  1  0
 25 26  1  0
 27 28  1  0
 26 27  1  1
 29 27  2  0
M  END
$$$$
