HFP.pdb
     RDKit          3D

 29 31  0  0  1  0  0  0  0  0999 V2000
   28.7479  -21.1788  -18.3694 N   0  0  0  0  0  0  0  0  0  0  0  0
   27.8877  -20.2353  -17.7323 C   0  0  1  0  0  0  0  0  0  0  0  0
   26.7826  -19.7120  -18.5850 C   0  0  0  0  0  0  0  0  0  0  0  0
   27.2674  -18.7449  -19.6039 C   0  0  0  0  0  0  0  0  0  0  0  0
   27.4573  -19.0019  -20.9456 C   0  0  0  0  0  0  0  0  0  0  0  0
   27.9057  -17.8699  -21.5365 N   0  0  0  0  0  0  0  0  0  0  0  0
   27.9989  -16.9247  -20.6070 C   0  0  0  0  0  0  0  0  0  0  0  0
   27.6125  -17.4559  -19.4394 N   0  0  0  0  0  0  0  0  0  0  0  0
   27.2541  -20.7880  -16.4811 C   0  0  0  0  0  0  0  0  0  0  0  0
   26.8267  -21.9561  -16.5138 O   0  0  0  0  0  0  0  0  0  0  0  0
   27.1948  -19.9382  -15.3702 N   0  0  0  0  0  0  0  0  0  0  0  0
   26.5911  -20.4445  -14.1303 C   0  0  1  0  0  0  0  0  0  0  0  0
   27.2493  -19.7782  -12.9388 C   0  0  0  0  0  0  0  0  0  0  0  0
   26.7226  -20.2663  -11.6579 C   0  0  0  0  0  0  0  0  0  0  0  0
   25.6726  -19.5882  -11.0383 C   0  0  0  0  0  0  0  0  0  0  0  0
   25.1478  -20.0126   -9.8229 C   0  0  0  0  0  0  0  0  0  0  0  0
   25.6679  -21.1276   -9.2052 C   0  0  0  0  0  0  0  0  0  0  0  0
   26.6968  -21.8068   -9.7948 C   0  0  0  0  0  0  0  0  0  0  0  0
   27.2079  -21.3701  -11.0062 C   0  0  0  0  0  0  0  0  0  0  0  0
   25.1219  -20.3099  -14.1454 C   0  0  0  0  0  0  0  0  0  0  0  0
   24.6944  -19.1028  -14.0968 O   0  0  0  0  0  0  0  0  0  0  0  0
   24.2054  -21.3957  -14.2100 N   0  0  0  0  0  0  0  0  0  0  0  0
   24.5359  -22.7606  -14.4472 C   0  0  0  0  0  0  0  0  0  0  0  0
   23.4588  -23.4516  -13.5864 C   0  0  0  0  0  0  0  0  0  0  0  0
   22.2187  -22.6231  -13.9720 C   0  0  0  0  0  0  0  0  0  0  0  0
   22.7867  -21.2458  -14.1260 C   0  0  1  0  0  0  0  0  0  0  0  0
   22.3801  -20.3729  -12.9899 C   0  0  0  0  0  0  0  0  0  0  0  0
   21.1187  -19.8364  -12.9603 O   0  0  0  0  0  0  0  0  0  0  0  0
   23.1861  -20.1384  -12.0799 O   0  0  0  0  0  0  0  0  0  0  0  0
  2  1  1  6
  3  2  1  0
  4  5  2  0
  4  3  1  0
  6  5  1  0
  7  8  2  0
  7  6  1  0
  8  4  1  0
  9  2  1  0
 10  9  2  0
 11  9  1  0
 12 11  1  0
 12 13  1  1
 13 14  1  0
 14 19  1  0
 14 15  2  0
 15 16  1  0
 16 17  2  0
 18 17  1  0
 19 18  2  0
 20 12  1  0
 21 20  2  0
 22 20  1  0
 22 26  1  0
 23 24  1  0
 23 22  1  0
 24 25  1  0
 25 26  1  0
 27 28  1  0
 26 27  1  1
 29 27  2  0
M  END
$$$$
