HFP.pdb
     RDKit          3D

 29 31  0  0  1  0  0  0  0  0999 V2000
   17.7363  -11.4393  -16.3827 N   0  0  0  0  0  0  0  0  0  0  0  0
   18.7969  -10.7946  -17.0868 C   0  0  1  0  0  0  0  0  0  0  0  0
   18.5101  -10.4867  -18.5168 C   0  0  0  0  0  0  0  0  0  0  0  0
   18.5648  -11.6983  -19.3754 C   0  0  0  0  0  0  0  0  0  0  0  0
   17.7298  -11.9841  -20.4353 C   0  0  0  0  0  0  0  0  0  0  0  0
   18.1000  -13.1755  -20.9597 N   0  0  0  0  0  0  0  0  0  0  0  0
   19.1333  -13.6341  -20.2609 C   0  0  0  0  0  0  0  0  0  0  0  0
   19.4125  -12.7395  -19.3037 N   0  0  0  0  0  0  0  0  0  0  0  0
   19.2184   -9.5026  -16.4344 C   0  0  0  0  0  0  0  0  0  0  0  0
   18.3838   -8.9097  -15.7273 O   0  0  0  0  0  0  0  0  0  0  0  0
   20.5264   -9.0659  -16.6760 N   0  0  0  0  0  0  0  0  0  0  0  0
   20.9981   -7.8520  -15.9963 C   0  0  1  0  0  0  0  0  0  0  0  0
   22.2020   -8.1882  -15.1392 C   0  0  0  0  0  0  0  0  0  0  0  0
   22.0079   -7.8278  -13.7289 C   0  0  0  0  0  0  0  0  0  0  0  0
   21.6502   -8.8114  -12.8065 C   0  0  0  0  0  0  0  0  0  0  0  0
   21.4510   -8.5128  -11.4634 C   0  0  0  0  0  0  0  0  0  0  0  0
   21.6074   -7.2190  -11.0198 C   0  0  0  0  0  0  0  0  0  0  0  0
   21.9574   -6.2399  -11.9066 C   0  0  0  0  0  0  0  0  0  0  0  0
   22.1520   -6.5548  -13.2416 C   0  0  0  0  0  0  0  0  0  0  0  0
   21.2405   -6.7530  -16.9504 C   0  0  0  0  0  0  0  0  0  0  0  0
   22.1353   -6.9989  -17.8342 O   0  0  0  0  0  0  0  0  0  0  0  0
   20.5648   -5.5014  -16.9395 N   0  0  0  0  0  0  0  0  0  0  0  0
   19.4505   -5.1559  -16.1226 C   0  0  0  0  0  0  0  0  0  0  0  0
   19.7391   -3.6582  -15.8938 C   0  0  0  0  0  0  0  0  0  0  0  0
   20.1271   -3.2270  -17.3208 C   0  0  0  0  0  0  0  0  0  0  0  0
   20.8692   -4.4248  -17.8286 C   0  0  1  0  0  0  0  0  0  0  0  0
   22.3316   -4.1528  -17.9017 C   0  0  0  0  0  0  0  0  0  0  0  0
   22.8359   -3.4125  -18.9397 O   0  0  0  0  0  0  0  0  0  0  0  0
   23.0813   -4.5982  -17.0229 O   0  0  0  0  0  0  0  0  0  0  0  0
  2  1  1  1
  3  2  1  0
  4  5  2  0
  4  3  1  0
  6  5  1  0
  7  8  2  0
  7  6  1  0
  8  4  1  0
  9  2  1  0
 10  9  2  0
 11  9  1  0
 12 11  1  0
 12 13  1  6
 13 14  1  0
 14 19  1  0
 14 15  2  0
 15 16  1  0
 16 17  2  0
 18 17  1  0
 19 18  2  0
 20 12  1  0
 21 20  2  0
 22 20  1  0
 22 26  1  0
 23 24  1  0
 23 22  1  0
 24 25  1  0
 25 26  1  0
 27 28  1  0
 26 27  1  1
 29 27  2  0
M  END
$$$$
