HFP.pdb
     RDKit          3D

 29 31  0  0  1  0  0  0  0  0999 V2000
   13.2735  -14.9719  -14.3813 N   0  0  0  0  0  0  0  0  0  0  0  0
   14.1792  -13.9283  -14.7370 C   0  0  1  0  0  0  0  0  0  0  0  0
   14.3835  -13.7412  -16.2017 C   0  0  0  0  0  0  0  0  0  0  0  0
   14.9604  -14.9483  -16.8483 C   0  0  0  0  0  0  0  0  0  0  0  0
   14.2727  -15.8757  -17.6028 C   0  0  0  0  0  0  0  0  0  0  0  0
   15.1475  -16.8229  -18.0141 N   0  0  0  0  0  0  0  0  0  0  0  0
   16.3496  -16.5124  -17.5401 C   0  0  0  0  0  0  0  0  0  0  0  0
   16.2341  -15.3788  -16.8356 N   0  0  0  0  0  0  0  0  0  0  0  0
   13.7655  -12.5916  -14.1761 C   0  0  0  0  0  0  0  0  0  0  0  0
   12.5553  -12.3032  -14.1953 O   0  0  0  0  0  0  0  0  0  0  0  0
   14.7822  -11.7714  -13.6728 N   0  0  0  0  0  0  0  0  0  0  0  0
   14.4089  -10.5028  -13.0328 C   0  0  1  0  0  0  0  0  0  0  0  0
   14.4766  -10.6575  -11.5267 C   0  0  0  0  0  0  0  0  0  0  0  0
   13.3618  -11.4492  -10.9908 C   0  0  0  0  0  0  0  0  0  0  0  0
   12.1488  -10.8257  -10.6975 C   0  0  0  0  0  0  0  0  0  0  0  0
   11.0700  -11.5362  -10.1835 C   0  0  0  0  0  0  0  0  0  0  0  0
   11.1885  -12.8884   -9.9537 C   0  0  0  0  0  0  0  0  0  0  0  0
   12.3680  -13.5191  -10.2340 C   0  0  0  0  0  0  0  0  0  0  0  0
   13.4331  -12.7959  -10.7457 C   0  0  0  0  0  0  0  0  0  0  0  0
   15.2107   -9.3764  -13.5477 C   0  0  0  0  0  0  0  0  0  0  0  0
   16.4754   -9.4994  -13.3814 O   0  0  0  0  0  0  0  0  0  0  0  0
   14.6779   -8.2231  -14.1873 N   0  0  0  0  0  0  0  0  0  0  0  0
   13.3257   -8.0378  -14.5941 C   0  0  0  0  0  0  0  0  0  0  0  0
   13.1819   -6.5193  -14.3658 C   0  0  0  0  0  0  0  0  0  0  0  0
   14.5053   -6.0184  -14.9745 C   0  0  0  0  0  0  0  0  0  0  0  0
   15.4661   -7.1019  -14.5920 C   0  0  1  0  0  0  0  0  0  0  0  0
   16.3844   -6.6419  -13.5135 C   0  0  0  0  0  0  0  0  0  0  0  0
   17.3330   -5.6902  -13.7861 O   0  0  0  0  0  0  0  0  0  0  0  0
   16.2835   -7.1236  -12.3775 O   0  0  0  0  0  0  0  0  0  0  0  0
  2  1  1  6
  3  2  1  0
  4  5  2  0
  4  3  1  0
  6  5  1  0
  7  8  2  0
  7  6  1  0
  8  4  1  0
  9  2  1  0
 10  9  2  0
 11  9  1  0
 12 11  1  0
 12 13  1  1
 13 14  1  0
 14 19  1  0
 14 15  2  0
 15 16  1  0
 16 17  2  0
 18 17  1  0
 19 18  2  0
 20 12  1  0
 21 20  2  0
 22 20  1  0
 22 26  1  0
 23 24  1  0
 23 22  1  0
 24 25  1  0
 25 26  1  0
 27 28  1  0
 26 27  1  1
 29 27  2  0
M  END
$$$$
