HFP.pdb
     RDKit          3D

 29 31  0  0  1  0  0  0  0  0999 V2000
   28.3756  -20.9119  -19.2307 N   0  0  0  0  0  0  0  0  0  0  0  0
   27.6886  -19.9479  -18.4339 C   0  0  1  0  0  0  0  0  0  0  0  0
   26.5435  -19.2721  -19.1080 C   0  0  0  0  0  0  0  0  0  0  0  0
   26.9501  -18.0090  -19.7770 C   0  0  0  0  0  0  0  0  0  0  0  0
   27.7685  -17.8992  -20.8818 C   0  0  0  0  0  0  0  0  0  0  0  0
   27.8985  -16.5870  -21.1864 N   0  0  0  0  0  0  0  0  0  0  0  0
   27.1896  -15.8843  -20.3090 C   0  0  0  0  0  0  0  0  0  0  0  0
   26.6171  -16.7460  -19.4579 N   0  0  0  0  0  0  0  0  0  0  0  0
   27.1594  -20.5347  -17.1501 C   0  0  0  0  0  0  0  0  0  0  0  0
   26.7489  -21.7090  -17.1741 O   0  0  0  0  0  0  0  0  0  0  0  0
   27.1706  -19.7070  -16.0211 N   0  0  0  0  0  0  0  0  0  0  0  0
   26.5807  -20.2124  -14.7742 C   0  0  1  0  0  0  0  0  0  0  0  0
   27.2239  -19.5155  -13.5920 C   0  0  0  0  0  0  0  0  0  0  0  0
   26.6469  -19.9349  -12.3083 C   0  0  0  0  0  0  0  0  0  0  0  0
   27.0461  -21.1408  -11.7316 C   0  0  0  0  0  0  0  0  0  0  0  0
   26.5211  -21.5783  -10.5209 C   0  0  0  0  0  0  0  0  0  0  0  0
   25.5840  -20.8123   -9.8649 C   0  0  0  0  0  0  0  0  0  0  0  0
   25.1788  -19.6275  -10.4123 C   0  0  0  0  0  0  0  0  0  0  0  0
   25.7121  -19.2065  -11.6197 C   0  0  0  0  0  0  0  0  0  0  0  0
   25.1087  -20.1136  -14.7889 C   0  0  0  0  0  0  0  0  0  0  0  0
   24.6534  -18.9263  -14.9483 O   0  0  0  0  0  0  0  0  0  0  0  0
   24.2173  -21.2126  -14.6447 N   0  0  0  0  0  0  0  0  0  0  0  0
   24.5679  -22.5916  -14.7061 C   0  0  0  0  0  0  0  0  0  0  0  0
   23.5589  -23.1708  -13.6936 C   0  0  0  0  0  0  0  0  0  0  0  0
   22.2786  -22.4265  -14.1177 C   0  0  0  0  0  0  0  0  0  0  0  0
   22.8024  -21.0759  -14.4982 C   0  0  1  0  0  0  0  0  0  0  0  0
   22.4393  -20.0569  -13.4745 C   0  0  0  0  0  0  0  0  0  0  0  0
   23.1627  -19.9702  -12.3130 O   0  0  0  0  0  0  0  0  0  0  0  0
   21.4855  -19.2952  -13.6811 O   0  0  0  0  0  0  0  0  0  0  0  0
  2  1  1  6
  3  2  1  0
  4  5  2  0
  4  3  1  0
  6  5  1  0
  7  8  2  0
  7  6  1  0
  8  4  1  0
  9  2  1  0
 10  9  2  0
 11  9  1  0
 12 11  1  0
 12 13  1  1
 13 14  1  0
 14 19  1  0
 14 15  2  0
 15 16  1  0
 16 17  2  0
 18 17  1  0
 19 18  2  0
 20 12  1  0
 21 20  2  0
 22 20  1  0
 22 26  1  0
 23 24  1  0
 23 22  1  0
 24 25  1  0
 25 26  1  0
 27 28  1  0
 26 27  1  1
 29 27  2  0
M  END
$$$$
