HFP.pdb
     RDKit          3D

 29 31  0  0  1  0  0  0  0  0999 V2000
   30.7148  -41.8615   -8.4627 N   0  0  0  0  0  0  0  0  0  0  0  0
   29.7620  -41.0428   -7.7859 C   0  0  1  0  0  0  0  0  0  0  0  0
   28.8527  -41.7699   -6.8549 C   0  0  0  0  0  0  0  0  0  0  0  0
   27.7586  -42.4743   -7.5724 C   0  0  0  0  0  0  0  0  0  0  0  0
   26.6878  -41.8818   -8.2085 C   0  0  0  0  0  0  0  0  0  0  0  0
   25.9153  -42.8577   -8.7400 N   0  0  0  0  0  0  0  0  0  0  0  0
   26.4717  -44.0303   -8.4543 C   0  0  0  0  0  0  0  0  0  0  0  0
   27.5859  -43.7961   -7.7484 N   0  0  0  0  0  0  0  0  0  0  0  0
   30.4129  -39.9386   -6.9925 C   0  0  0  0  0  0  0  0  0  0  0  0
   31.5513  -40.1456   -6.5350 O   0  0  0  0  0  0  0  0  0  0  0  0
   29.6810  -38.7563   -6.8302 N   0  0  0  0  0  0  0  0  0  0  0  0
   30.3001  -37.6419   -6.1002 C   0  0  1  0  0  0  0  0  0  0  0  0
   30.0592  -36.3487   -6.8529 C   0  0  0  0  0  0  0  0  0  0  0  0
   30.7604  -35.2073   -6.2511 C   0  0  0  0  0  0  0  0  0  0  0  0
   30.0698  -34.3391   -5.4052 C   0  0  0  0  0  0  0  0  0  0  0  0
   30.6934  -33.2434   -4.8192 C   0  0  0  0  0  0  0  0  0  0  0  0
   32.0243  -32.9979   -5.0717 C   0  0  0  0  0  0  0  0  0  0  0  0
   32.7197  -33.8359   -5.8975 C   0  0  0  0  0  0  0  0  0  0  0  0
   32.0827  -34.9231   -6.4732 C   0  0  0  0  0  0  0  0  0  0  0  0
   29.8560  -37.5985   -4.6938 C   0  0  0  0  0  0  0  0  0  0  0  0
   28.5854  -37.5464   -4.5351 O   0  0  0  0  0  0  0  0  0  0  0  0
   30.7221  -37.6129   -3.5657 N   0  0  0  0  0  0  0  0  0  0  0  0
   32.1409  -37.7330   -3.5978 C   0  0  0  0  0  0  0  0  0  0  0  0
   32.5121  -36.8613   -2.3808 C   0  0  0  0  0  0  0  0  0  0  0  0
   31.4721  -37.3536   -1.3566 C   0  0  0  0  0  0  0  0  0  0  0  0
   30.2658  -37.5918   -2.2116 C   0  0  1  0  0  0  0  0  0  0  0  0
   29.2355  -36.5411   -1.9822 C   0  0  0  0  0  0  0  0  0  0  0  0
   28.6436  -36.4245   -0.7509 O   0  0  0  0  0  0  0  0  0  0  0  0
   28.9213  -35.7803   -2.9068 O   0  0  0  0  0  0  0  0  0  0  0  0
  2  1  1  1
  3  2  1  0
  4  5  2  0
  4  3  1  0
  6  5  1  0
  7  8  2  0
  7  6  1  0
  8  4  1  0
  9  2  1  0
 10  9  2  0
 11  9  1  0
 12 11  1  0
 12 13  1  6
 13 14  1  0
 14 19  1  0
 14 15  2  0
 15 16  1  0
 16 17  2  0
 18 17  1  0
 19 18  2  0
 20 12  1  0
 21 20  2  0
 22 20  1  0
 22 26  1  0
 23 24  1  0
 23 22  1  0
 24 25  1  0
 25 26  1  0
 27 28  1  0
 26 27  1  6
 29 27  2  0
M  END
$$$$
