HFP.pdb
     RDKit          3D

 29 31  0  0  1  0  0  0  0  0999 V2000
   23.6179  -16.7382  -18.8895 N   0  0  0  0  0  0  0  0  0  0  0  0
   22.8741  -17.6177  -18.0473 C   0  0  1  0  0  0  0  0  0  0  0  0
   22.0480  -18.6304  -18.7643 C   0  0  0  0  0  0  0  0  0  0  0  0
   20.6558  -18.1627  -18.9911 C   0  0  0  0  0  0  0  0  0  0  0  0
   19.5492  -18.5053  -18.2425 C   0  0  0  0  0  0  0  0  0  0  0  0
   18.4707  -17.8762  -18.7647 N   0  0  0  0  0  0  0  0  0  0  0  0
   18.8730  -17.1583  -19.8083 C   0  0  0  0  0  0  0  0  0  0  0  0
   20.1944  -17.3331  -19.9432 N   0  0  0  0  0  0  0  0  0  0  0  0
   23.7538  -18.3708  -17.0822 C   0  0  0  0  0  0  0  0  0  0  0  0
   24.9031  -18.6684  -17.4549 O   0  0  0  0  0  0  0  0  0  0  0  0
   23.2061  -18.6799  -15.8315 N   0  0  0  0  0  0  0  0  0  0  0  0
   24.0524  -19.3628  -14.8438 C   0  0  1  0  0  0  0  0  0  0  0  0
   23.9781  -18.6279  -13.5204 C   0  0  0  0  0  0  0  0  0  0  0  0
   24.7022  -19.3229  -12.4483 C   0  0  0  0  0  0  0  0  0  0  0  0
   23.9977  -20.1011  -11.5295 C   0  0  0  0  0  0  0  0  0  0  0  0
   24.6428  -20.7710  -10.4962 C   0  0  0  0  0  0  0  0  0  0  0  0
   26.0097  -20.6723  -10.3652 C   0  0  0  0  0  0  0  0  0  0  0  0
   26.7193  -19.9151  -11.2544 C   0  0  0  0  0  0  0  0  0  0  0  0
   26.0605  -19.2540  -12.2783 C   0  0  0  0  0  0  0  0  0  0  0  0
   23.7220  -20.7972  -14.7424 C   0  0  0  0  0  0  0  0  0  0  0  0
   22.4757  -21.0495  -14.5831 O   0  0  0  0  0  0  0  0  0  0  0  0
   24.6677  -21.8574  -14.8110 N   0  0  0  0  0  0  0  0  0  0  0  0
   26.0441  -21.7338  -15.1556 C   0  0  0  0  0  0  0  0  0  0  0  0
   26.6442  -22.8424  -14.2671 C   0  0  0  0  0  0  0  0  0  0  0  0
   25.6316  -23.9768  -14.5132 C   0  0  0  0  0  0  0  0  0  0  0  0
   24.3355  -23.2340  -14.6196 C   0  0  1  0  0  0  0  0  0  0  0  0
   23.4993  -23.4467  -13.4056 C   0  0  0  0  0  0  0  0  0  0  0  0
   22.1452  -23.6198  -13.5328 O   0  0  0  0  0  0  0  0  0  0  0  0
   24.0349  -23.4655  -12.2897 O   0  0  0  0  0  0  0  0  0  0  0  0
  2  1  1  6
  3  2  1  0
  4  5  2  0
  4  3  1  0
  6  5  1  0
  7  8  2  0
  7  6  1  0
  8  4  1  0
  9  2  1  0
 10  9  2  0
 11  9  1  0
 12 11  1  0
 12 13  1  1
 13 14  1  0
 14 19  1  0
 14 15  2  0
 15 16  1  0
 16 17  2  0
 18 17  1  0
 19 18  2  0
 20 12  1  0
 21 20  2  0
 22 20  1  0
 22 26  1  0
 23 24  1  0
 23 22  1  0
 24 25  1  0
 25 26  1  0
 27 28  1  0
 26 27  1  1
 29 27  2  0
M  END
$$$$
