HFP.pdb
     RDKit          3D

 29 31  0  0  1  0  0  0  0  0999 V2000
   28.1129  -18.1356  -18.7264 N   0  0  0  0  0  0  0  0  0  0  0  0
   26.7441  -18.3079  -18.3618 C   0  0  1  0  0  0  0  0  0  0  0  0
   25.8575  -18.8036  -19.4529 C   0  0  0  0  0  0  0  0  0  0  0  0
   25.7563  -17.8382  -20.5781 C   0  0  0  0  0  0  0  0  0  0  0  0
   24.7695  -16.8905  -20.7522 C   0  0  0  0  0  0  0  0  0  0  0  0
   25.0295  -16.2099  -21.8927 N   0  0  0  0  0  0  0  0  0  0  0  0
   26.1412  -16.7042  -22.4277 C   0  0  0  0  0  0  0  0  0  0  0  0
   26.5788  -17.6885  -21.6312 N   0  0  0  0  0  0  0  0  0  0  0  0
   26.5735  -19.2474  -17.1952 C   0  0  0  0  0  0  0  0  0  0  0  0
   26.5014  -20.4659  -17.4365 O   0  0  0  0  0  0  0  0  0  0  0  0
   26.5088  -18.6723  -15.9205 N   0  0  0  0  0  0  0  0  0  0  0  0
   26.2811  -19.5503  -14.7649 C   0  0  1  0  0  0  0  0  0  0  0  0
   26.9036  -18.9314  -13.5295 C   0  0  0  0  0  0  0  0  0  0  0  0
   26.6838  -19.7389  -12.3228 C   0  0  0  0  0  0  0  0  0  0  0  0
   25.7018  -19.3609  -11.4068 C   0  0  0  0  0  0  0  0  0  0  0  0
   25.4646  -20.0932  -10.2491 C   0  0  0  0  0  0  0  0  0  0  0  0
   26.2100  -21.2209   -9.9884 C   0  0  0  0  0  0  0  0  0  0  0  0
   27.1773  -21.6091  -10.8723 C   0  0  0  0  0  0  0  0  0  0  0  0
   27.4005  -20.8677  -12.0211 C   0  0  0  0  0  0  0  0  0  0  0  0
   24.8519  -19.8798  -14.6045 C   0  0  0  0  0  0  0  0  0  0  0  0
   24.0781  -18.8647  -14.4899 O   0  0  0  0  0  0  0  0  0  0  0  0
   24.3186  -21.1981  -14.5744 N   0  0  0  0  0  0  0  0  0  0  0  0
   25.0254  -22.3969  -14.8771 C   0  0  0  0  0  0  0  0  0  0  0  0
   24.3335  -23.3706  -13.9015 C   0  0  0  0  0  0  0  0  0  0  0  0
   22.8591  -22.9776  -14.1128 C   0  0  0  0  0  0  0  0  0  0  0  0
   22.9460  -21.4955  -14.3104 C   0  0  1  0  0  0  0  0  0  0  0  0
   22.4332  -20.7688  -13.1159 C   0  0  0  0  0  0  0  0  0  0  0  0
   23.2771  -20.4954  -12.0704 O   0  0  0  0  0  0  0  0  0  0  0  0
   21.2469  -20.4169  -13.0766 O   0  0  0  0  0  0  0  0  0  0  0  0
  2  1  1  6
  3  2  1  0
  4  5  2  0
  4  3  1  0
  6  5  1  0
  7  8  2  0
  7  6  1  0
  8  4  1  0
  9  2  1  0
 10  9  2  0
 11  9  1  0
 12 11  1  0
 12 13  1  1
 13 14  1  0
 14 19  1  0
 14 15  2  0
 15 16  1  0
 16 17  2  0
 18 17  1  0
 19 18  2  0
 20 12  1  0
 21 20  2  0
 22 20  1  0
 22 26  1  0
 23 24  1  0
 23 22  1  0
 24 25  1  0
 25 26  1  0
 27 28  1  0
 26 27  1  1
 29 27  2  0
M  END
$$$$
