HFP.pdb
     RDKit          3D

 29 31  0  0  1  0  0  0  0  0999 V2000
   26.0853  -21.1209  -12.4187 N   0  0  0  0  0  0  0  0  0  0  0  0
   25.3898  -20.5349  -11.3192 C   0  0  1  0  0  0  0  0  0  0  0  0
   23.9450  -20.8898  -11.2243 C   0  0  0  0  0  0  0  0  0  0  0  0
   23.1669  -20.3981  -12.3908 C   0  0  0  0  0  0  0  0  0  0  0  0
   22.5440  -19.1720  -12.4963 C   0  0  0  0  0  0  0  0  0  0  0  0
   21.9429  -19.1027  -13.7069 N   0  0  0  0  0  0  0  0  0  0  0  0
   22.1730  -20.2421  -14.3512 C   0  0  0  0  0  0  0  0  0  0  0  0
   22.9132  -21.0237  -13.5536 N   0  0  0  0  0  0  0  0  0  0  0  0
   26.0159  -20.8808   -9.9922 C   0  0  0  0  0  0  0  0  0  0  0  0
   26.0666  -22.0813   -9.6693 O   0  0  0  0  0  0  0  0  0  0  0  0
   26.4959  -19.8167   -9.2195 N   0  0  0  0  0  0  0  0  0  0  0  0
   27.1662  -20.1189   -7.9476 C   0  0  1  0  0  0  0  0  0  0  0  0
   28.0984  -18.9804   -7.5846 C   0  0  0  0  0  0  0  0  0  0  0  0
   28.8171  -19.2198   -6.3266 C   0  0  0  0  0  0  0  0  0  0  0  0
   29.8474  -20.1595   -6.2865 C   0  0  0  0  0  0  0  0  0  0  0  0
   30.5496  -20.4213   -5.1156 C   0  0  0  0  0  0  0  0  0  0  0  0
   30.2305  -19.7435   -3.9605 C   0  0  0  0  0  0  0  0  0  0  0  0
   29.2245  -18.8187   -3.9775 C   0  0  0  0  0  0  0  0  0  0  0  0
   28.5348  -18.5703   -5.1531 C   0  0  0  0  0  0  0  0  0  0  0  0
   26.1963  -20.4497   -6.8861 C   0  0  0  0  0  0  0  0  0  0  0  0
   25.1974  -19.6509   -6.8057 O   0  0  0  0  0  0  0  0  0  0  0  0
   26.3082  -21.5537   -5.9962 N   0  0  0  0  0  0  0  0  0  0  0  0
   27.3022  -22.5725   -6.0431 C   0  0  0  0  0  0  0  0  0  0  0  0
   27.4573  -22.8663   -4.5370 C   0  0  0  0  0  0  0  0  0  0  0  0
   25.9789  -22.9062   -4.1062 C   0  0  0  0  0  0  0  0  0  0  0  0
   25.3655  -21.8405   -4.9613 C   0  0  1  0  0  0  0  0  0  0  0  0
   25.0348  -20.6344   -4.1524 C   0  0  0  0  0  0  0  0  0  0  0  0
   23.8594  -20.5877   -3.4481 O   0  0  0  0  0  0  0  0  0  0  0  0
   25.8255  -19.6823   -4.1225 O   0  0  0  0  0  0  0  0  0  0  0  0
  2  1  1  6
  3  2  1  0
  4  5  2  0
  4  3  1  0
  6  5  1  0
  7  8  2  0
  7  6  1  0
  8  4  1  0
  9  2  1  0
 10  9  2  0
 11  9  1  0
 12 11  1  0
 12 13  1  1
 13 14  1  0
 14 19  1  0
 14 15  2  0
 15 16  1  0
 16 17  2  0
 18 17  1  0
 19 18  2  0
 20 12  1  0
 21 20  2  0
 22 20  1  0
 22 26  1  0
 23 24  1  0
 23 22  1  0
 24 25  1  0
 25 26  1  0
 27 28  1  0
 26 27  1  1
 29 27  2  0
M  END
$$$$
