HFP.pdb
     RDKit          3D

 29 31  0  0  1  0  0  0  0  0999 V2000
   28.6641  -20.0679  -12.9804 N   0  0  0  0  0  0  0  0  0  0  0  0
   27.4479  -20.6516  -12.5153 C   0  0  1  0  0  0  0  0  0  0  0  0
   27.2096  -20.5305  -11.0488 C   0  0  0  0  0  0  0  0  0  0  0  0
   28.3988  -20.9267  -10.2507 C   0  0  0  0  0  0  0  0  0  0  0  0
   29.6271  -21.3044  -10.7516 C   0  0  0  0  0  0  0  0  0  0  0  0
   30.4429  -21.5878   -9.7096 N   0  0  0  0  0  0  0  0  0  0  0  0
   29.7613  -21.3982   -8.5845 C   0  0  0  0  0  0  0  0  0  0  0  0
   28.5258  -20.9985   -8.9141 N   0  0  0  0  0  0  0  0  0  0  0  0
   26.2354  -20.0822  -13.2067 C   0  0  0  0  0  0  0  0  0  0  0  0
   26.0077  -18.8663  -13.0724 O   0  0  0  0  0  0  0  0  0  0  0  0
   25.4528  -20.9718  -13.9524 N   0  0  0  0  0  0  0  0  0  0  0  0
   24.4219  -20.4229  -14.8436 C   0  0  1  0  0  0  0  0  0  0  0  0
   24.8458  -20.6158  -16.2858 C   0  0  0  0  0  0  0  0  0  0  0  0
   25.9765  -19.7570  -16.6606 C   0  0  0  0  0  0  0  0  0  0  0  0
   27.2797  -20.2436  -16.5543 C   0  0  0  0  0  0  0  0  0  0  0  0
   28.3788  -19.4626  -16.8929 C   0  0  0  0  0  0  0  0  0  0  0  0
   28.1905  -18.1760  -17.3453 C   0  0  0  0  0  0  0  0  0  0  0  0
   26.9223  -17.6794  -17.4570 C   0  0  0  0  0  0  0  0  0  0  0  0
   25.8381  -18.4714  -17.1152 C   0  0  0  0  0  0  0  0  0  0  0  0
   23.0886  -20.9771  -14.5404 C   0  0  0  0  0  0  0  0  0  0  0  0
   23.0341  -22.2572  -14.5152 O   0  0  0  0  0  0  0  0  0  0  0  0
   21.9232  -20.2022  -14.2864 N   0  0  0  0  0  0  0  0  0  0  0  0
   21.8782  -18.7916  -14.0948 C   0  0  0  0  0  0  0  0  0  0  0  0
   20.5058  -18.4784  -14.7250 C   0  0  0  0  0  0  0  0  0  0  0  0
   19.6564  -19.6146  -14.1245 C   0  0  0  0  0  0  0  0  0  0  0  0
   20.6207  -20.7604  -14.1025 C   0  0  1  0  0  0  0  0  0  0  0  0
   20.2837  -21.7592  -15.1546 C   0  0  0  0  0  0  0  0  0  0  0  0
   20.9477  -21.7359  -16.3539 O   0  0  0  0  0  0  0  0  0  0  0  0
   19.4052  -22.6039  -14.9372 O   0  0  0  0  0  0  0  0  0  0  0  0
  2  1  1  6
  3  2  1  0
  4  5  2  0
  4  3  1  0
  6  5  1  0
  7  8  2  0
  7  6  1  0
  8  4  1  0
  9  2  1  0
 10  9  2  0
 11  9  1  0
 12 11  1  0
 12 13  1  6
 13 14  1  0
 14 19  1  0
 14 15  2  0
 15 16  1  0
 16 17  2  0
 18 17  1  0
 19 18  2  0
 20 12  1  0
 21 20  2  0
 22 20  1  0
 22 26  1  0
 23 24  1  0
 23 22  1  0
 24 25  1  0
 25 26  1  0
 27 28  1  0
 26 27  1  6
 29 27  2  0
M  END
$$$$
