HFP.pdb
     RDKit          3D

 29 31  0  0  1  0  0  0  0  0999 V2000
   24.4710  -14.6985  -16.4960 N   0  0  0  0  0  0  0  0  0  0  0  0
   24.5712  -13.3105  -16.1806 C   0  0  1  0  0  0  0  0  0  0  0  0
   25.7632  -12.6183  -16.7482 C   0  0  0  0  0  0  0  0  0  0  0  0
   27.0390  -13.2176  -16.2779 C   0  0  0  0  0  0  0  0  0  0  0  0
   27.1688  -14.2574  -15.3811 C   0  0  0  0  0  0  0  0  0  0  0  0
   28.4873  -14.5116  -15.2121 N   0  0  0  0  0  0  0  0  0  0  0  0
   29.1746  -13.6657  -15.9726 C   0  0  0  0  0  0  0  0  0  0  0  0
   28.2970  -12.8844  -16.6161 N   0  0  0  0  0  0  0  0  0  0  0  0
   23.3583  -12.5314  -16.6217 C   0  0  0  0  0  0  0  0  0  0  0  0
   22.7975  -12.8782  -17.6769 O   0  0  0  0  0  0  0  0  0  0  0  0
   22.9532  -11.4697  -15.8042 N   0  0  0  0  0  0  0  0  0  0  0  0
   21.7147  -10.7557  -16.1428 C   0  0  1  0  0  0  0  0  0  0  0  0
   20.5272  -11.5060  -15.5737 C   0  0  0  0  0  0  0  0  0  0  0  0
   19.2432  -10.9251  -15.9865 C   0  0  0  0  0  0  0  0  0  0  0  0
   18.7615  -11.1569  -17.2751 C   0  0  0  0  0  0  0  0  0  0  0  0
   17.5539  -10.6216  -17.7087 C   0  0  0  0  0  0  0  0  0  0  0  0
   16.8056   -9.8421  -16.8556 C   0  0  0  0  0  0  0  0  0  0  0  0
   17.2590   -9.6024  -15.5889 C   0  0  0  0  0  0  0  0  0  0  0  0
   18.4646  -10.1435  -15.1731 C   0  0  0  0  0  0  0  0  0  0  0  0
   21.7720   -9.3402  -15.7306 C   0  0  0  0  0  0  0  0  0  0  0  0
   21.9705   -9.1550  -14.4782 O   0  0  0  0  0  0  0  0  0  0  0  0
   21.6275   -8.2302  -16.6081 N   0  0  0  0  0  0  0  0  0  0  0  0
   21.4814   -8.2922  -18.0235 C   0  0  0  0  0  0  0  0  0  0  0  0
   20.5585   -7.0778  -18.2519 C   0  0  0  0  0  0  0  0  0  0  0  0
   21.2380   -6.0354  -17.3438 C   0  0  0  0  0  0  0  0  0  0  0  0
   21.6946   -6.8669  -16.1848 C   0  0  1  0  0  0  0  0  0  0  0  0
   20.8545   -6.6099  -14.9822 C   0  0  0  0  0  0  0  0  0  0  0  0
   20.9395   -5.4032  -14.3369 O   0  0  0  0  0  0  0  0  0  0  0  0
   20.0849   -7.4897  -14.5743 O   0  0  0  0  0  0  0  0  0  0  0  0
  2  1  1  6
  3  2  1  0
  4  5  2  0
  4  3  1  0
  6  5  1  0
  7  8  2  0
  7  6  1  0
  8  4  1  0
  9  2  1  0
 10  9  2  0
 11  9  1  0
 12 11  1  0
 12 13  1  1
 13 14  1  0
 14 19  1  0
 14 15  2  0
 15 16  1  0
 16 17  2  0
 18 17  1  0
 19 18  2  0
 20 12  1  0
 21 20  2  0
 22 20  1  0
 22 26  1  0
 23 24  1  0
 23 22  1  0
 24 25  1  0
 25 26  1  0
 27 28  1  0
 26 27  1  1
 29 27  2  0
M  END
$$$$
