HFP.pdb
     RDKit          3D

 29 31  0  0  1  0  0  0  0  0999 V2000
   26.9258  -17.9407  -19.1681 N   0  0  0  0  0  0  0  0  0  0  0  0
   25.9677  -17.6798  -18.1434 C   0  0  1  0  0  0  0  0  0  0  0  0
   24.5471  -17.6682  -18.5951 C   0  0  0  0  0  0  0  0  0  0  0  0
   24.2174  -16.4530  -19.3843 C   0  0  0  0  0  0  0  0  0  0  0  0
   23.5255  -15.3496  -18.9301 C   0  0  0  0  0  0  0  0  0  0  0  0
   23.4306  -14.4593  -19.9450 N   0  0  0  0  0  0  0  0  0  0  0  0
   24.0391  -14.9745  -21.0082 C   0  0  0  0  0  0  0  0  0  0  0  0
   24.5140  -16.1798  -20.6669 N   0  0  0  0  0  0  0  0  0  0  0  0
   26.0596  -18.6646  -17.0057 C   0  0  0  0  0  0  0  0  0  0  0  0
   26.1327  -19.8740  -17.2890 O   0  0  0  0  0  0  0  0  0  0  0  0
   26.0558  -18.1388  -15.7083 N   0  0  0  0  0  0  0  0  0  0  0  0
   25.9895  -19.0696  -14.5737 C   0  0  1  0  0  0  0  0  0  0  0  0
   26.5501  -18.3984  -13.3359 C   0  0  0  0  0  0  0  0  0  0  0  0
   26.4931  -19.2637  -12.1507 C   0  0  0  0  0  0  0  0  0  0  0  0
   27.4189  -20.2968  -12.0034 C   0  0  0  0  0  0  0  0  0  0  0  0
   27.3972  -21.1427  -10.9003 C   0  0  0  0  0  0  0  0  0  0  0  0
   26.4442  -20.9673   -9.9224 C   0  0  0  0  0  0  0  0  0  0  0  0
   25.5276  -19.9613  -10.0469 C   0  0  0  0  0  0  0  0  0  0  0  0
   25.5635  -19.1275  -11.1527 C   0  0  0  0  0  0  0  0  0  0  0  0
   24.6280  -19.6071  -14.3890 C   0  0  0  0  0  0  0  0  0  0  0  0
   23.7253  -18.7204  -14.1863 O   0  0  0  0  0  0  0  0  0  0  0  0
   24.2856  -20.9872  -14.4249 N   0  0  0  0  0  0  0  0  0  0  0  0
   25.1474  -22.0566  -14.8018 C   0  0  0  0  0  0  0  0  0  0  0  0
   24.6186  -23.1683  -13.8727 C   0  0  0  0  0  0  0  0  0  0  0  0
   23.0998  -22.9768  -14.0439 C   0  0  0  0  0  0  0  0  0  0  0  0
   22.9739  -21.4890  -14.1607 C   0  0  1  0  0  0  0  0  0  0  0  0
   22.3881  -20.9059  -12.9217 C   0  0  0  0  0  0  0  0  0  0  0  0
   21.0476  -21.0461  -12.6705 O   0  0  0  0  0  0  0  0  0  0  0  0
   23.1179  -20.2983  -12.1274 O   0  0  0  0  0  0  0  0  0  0  0  0
  2  1  1  6
  3  2  1  0
  4  5  2  0
  4  3  1  0
  6  5  1  0
  7  8  2  0
  7  6  1  0
  8  4  1  0
  9  2  1  0
 10  9  2  0
 11  9  1  0
 12 11  1  0
 12 13  1  1
 13 14  1  0
 14 19  1  0
 14 15  2  0
 15 16  1  0
 16 17  2  0
 18 17  1  0
 19 18  2  0
 20 12  1  0
 21 20  2  0
 22 20  1  0
 22 26  1  0
 23 24  1  0
 23 22  1  0
 24 25  1  0
 25 26  1  0
 27 28  1  0
 26 27  1  1
 29 27  2  0
M  END
$$$$
