GSK.pdb
     RDKit          3D

 20 19  0  0  1  0  0  0  0  0999 V2000
    8.2889  -12.9472   17.2959 N   0  0  0  0  0  0  0  0  0  0  0  0
    9.1885  -13.9017   17.9104 C   0  0  0  0  0  0  0  0  0  0  0  0
    8.5186  -14.5315   19.0553 C   0  0  0  0  0  0  0  0  0  0  0  0
    7.4871  -14.0193   19.5262 O   0  0  0  0  0  0  0  0  0  0  0  0
    9.8551  -18.0313   21.0284 O   0  0  0  0  0  0  0  0  0  0  0  0
    8.4980  -17.7667   20.9160 C   0  0  0  0  0  0  0  0  0  0  0  0
    8.2975  -16.2459   20.8463 C   0  0  2  0  0  0  0  0  0  0  0  0
    8.9824  -15.7232   19.6819 N   0  0  0  0  0  0  0  0  0  0  0  0
    8.7706  -15.6035   22.0977 C   0  0  0  0  0  0  0  0  0  0  0  0
    9.9613  -15.2568   22.2708 O   0  0  0  0  0  0  0  0  0  0  0  0
    7.8641  -15.3577   23.1601 N   0  0  0  0  0  0  0  0  0  0  0  0
    8.2977  -14.7115   24.4005 C   0  0  1  0  0  0  0  0  0  0  0  0
    7.1474  -13.9060   24.9028 C   0  0  0  0  0  0  0  0  0  0  0  0
    7.4515  -13.1282   26.1581 C   0  0  0  0  0  0  0  0  0  0  0  0
    6.1605  -12.4036   26.5218 C   0  0  0  0  0  0  0  0  0  0  0  0
    6.3376  -11.5631   27.7654 C   0  0  0  0  0  0  0  0  0  0  0  0
    5.0691  -10.9483   28.0681 N   0  0  0  0  0  0  0  0  0  0  0  0
    8.8608  -15.6743   25.3425 C   0  0  0  0  0  0  0  0  0  0  0  0
    9.9106  -15.3032   26.1981 O   0  0  0  0  0  0  0  0  0  0  0  0
    8.4570  -16.8527   25.4438 O   0  0  0  0  0  0  0  0  0  0  0  0
  1  2  1  0
  3  4  2  0
  3  2  1  0
  5  6  1  0
  7  6  1  1
  7  8  1  0
  8  3  1  0
  9 11  1  0
  9  7  1  0
 10  9  2  0
 12 11  1  0
 12 13  1  1
 13 14  1  0
 14 15  1  0
 15 16  1  0
 16 17  1  0
 18 12  1  0
 19 18  1  0
 20 18  2  0
M  END
$$$$
