GSK.pdb
     RDKit          3D

 20 19  0  0  1  0  0  0  0  0999 V2000
   -0.8133  -23.1295   21.1744 N   0  0  0  0  0  0  0  0  0  0  0  0
   -2.1776  -22.6433   21.1888 C   0  0  0  0  0  0  0  0  0  0  0  0
   -2.4778  -22.0809   22.5116 C   0  0  0  0  0  0  0  0  0  0  0  0
   -1.9635  -22.5822   23.5275 O   0  0  0  0  0  0  0  0  0  0  0  0
   -5.3494  -19.1566   23.0835 O   0  0  0  0  0  0  0  0  0  0  0  0
   -4.3321  -19.1683   24.0265 C   0  0  0  0  0  0  0  0  0  0  0  0
   -3.7096  -20.5716   24.0610 C   0  0  2  0  0  0  0  0  0  0  0  0
   -3.3427  -20.9684   22.7171 N   0  0  0  0  0  0  0  0  0  0  0  0
   -4.6472  -21.5387   24.6838 C   0  0  0  0  0  0  0  0  0  0  0  0
   -5.6068  -22.0469   24.0600 O   0  0  0  0  0  0  0  0  0  0  0  0
   -4.4788  -21.9247   26.0379 N   0  0  0  0  0  0  0  0  0  0  0  0
   -5.3749  -22.8925   26.6738 C   0  0  1  0  0  0  0  0  0  0  0  0
   -4.5190  -23.9513   27.2827 C   0  0  0  0  0  0  0  0  0  0  0  0
   -5.2979  -25.0317   27.9890 C   0  0  0  0  0  0  0  0  0  0  0  0
   -4.2623  -26.0328   28.4882 C   0  0  0  0  0  0  0  0  0  0  0  0
   -4.9180  -27.1674   29.2414 C   0  0  0  0  0  0  0  0  0  0  0  0
   -3.9104  -28.1646   29.5040 N   0  0  0  0  0  0  0  0  0  0  0  0
   -6.3207  -22.2412   27.5754 C   0  0  0  0  0  0  0  0  0  0  0  0
   -6.0655  -20.9496   28.0633 O   0  0  0  0  0  0  0  0  0  0  0  0
   -7.3839  -22.7753   27.9579 O   0  0  0  0  0  0  0  0  0  0  0  0
  1  2  1  0
  3  4  2  0
  3  2  1  0
  5  6  1  0
  7  6  1  6
  7  8  1  0
  8  3  1  0
  9 11  1  0
  9  7  1  0
 10  9  2  0
 12 11  1  0
 12 13  1  1
 13 14  1  0
 14 15  1  0
 15 16  1  0
 16 17  1  0
 18 12  1  0
 19 18  1  0
 20 18  2  0
M  END
$$$$
