GSK.pdb
     RDKit          3D

 20 19  0  0  1  0  0  0  0  0999 V2000
    8.6456  -17.7440   16.8092 N   0  0  0  0  0  0  0  0  0  0  0  0
    7.6283  -17.4342   17.7926 C   0  0  0  0  0  0  0  0  0  0  0  0
    8.2311  -16.6631   18.8872 C   0  0  0  0  0  0  0  0  0  0  0  0
    9.4683  -16.6359   19.0157 O   0  0  0  0  0  0  0  0  0  0  0  0
    6.0799  -14.9725   22.0553 O   0  0  0  0  0  0  0  0  0  0  0  0
    7.1592  -14.2443   21.5766 C   0  0  0  0  0  0  0  0  0  0  0  0
    8.1467  -15.2110   20.9072 C   0  0  2  0  0  0  0  0  0  0  0  0
    7.4744  -15.9227   19.8396 N   0  0  0  0  0  0  0  0  0  0  0  0
    8.7225  -16.1402   21.9108 C   0  0  0  0  0  0  0  0  0  0  0  0
    8.2263  -17.2639   22.1542 O   0  0  0  0  0  0  0  0  0  0  0  0
    9.8807  -15.7724   22.6416 N   0  0  0  0  0  0  0  0  0  0  0  0
   10.4845  -16.6764   23.6227 C   0  0  1  0  0  0  0  0  0  0  0  0
   11.9527  -16.6928   23.3614 C   0  0  0  0  0  0  0  0  0  0  0  0
   12.6519  -17.9172   23.8950 C   0  0  0  0  0  0  0  0  0  0  0  0
   13.7453  -18.2456   22.8847 C   0  0  0  0  0  0  0  0  0  0  0  0
   14.5473  -19.4505   23.3201 C   0  0  0  0  0  0  0  0  0  0  0  0
   15.5511  -19.7001   22.3157 N   0  0  0  0  0  0  0  0  0  0  0  0
   10.0836  -16.3395   24.9855 C   0  0  0  0  0  0  0  0  0  0  0  0
   10.2975  -17.2467   26.0357 O   0  0  0  0  0  0  0  0  0  0  0  0
    9.5417  -15.2564   25.2940 O   0  0  0  0  0  0  0  0  0  0  0  0
  1  2  1  0
  3  4  2  0
  3  2  1  0
  5  6  1  0
  7  6  1  1
  7  8  1  0
  8  3  1  0
  9 11  1  0
  9  7  1  0
 10  9  2  0
 12 11  1  0
 12 13  1  1
 13 14  1  0
 14 15  1  0
 15 16  1  0
 16 17  1  0
 18 12  1  0
 19 18  1  0
 20 18  2  0
M  END
$$$$
