GSK.pdb
     RDKit          3D

 20 19  0  0  1  0  0  0  0  0999 V2000
    8.1481  -11.9965   18.9220 N   0  0  0  0  0  0  0  0  0  0  0  0
    8.7123  -13.3247   18.7978 C   0  0  0  0  0  0  0  0  0  0  0  0
    8.3429  -14.1202   19.9755 C   0  0  0  0  0  0  0  0  0  0  0  0
    7.8814  -13.5550   20.9832 O   0  0  0  0  0  0  0  0  0  0  0  0
    9.0049  -18.2749   20.3758 O   0  0  0  0  0  0  0  0  0  0  0  0
    7.8876  -17.7089   20.9723 C   0  0  0  0  0  0  0  0  0  0  0  0
    8.1879  -16.2347   21.2796 C   0  0  2  0  0  0  0  0  0  0  0  0
    8.4808  -15.5359   20.0451 N   0  0  0  0  0  0  0  0  0  0  0  0
    9.3036  -16.1254   22.2520 C   0  0  0  0  0  0  0  0  0  0  0  0
   10.4912  -15.9418   21.8999 O   0  0  0  0  0  0  0  0  0  0  0  0
    9.0499  -16.2285   23.6434 N   0  0  0  0  0  0  0  0  0  0  0  0
   10.1330  -16.1495   24.6256 C   0  0  1  0  0  0  0  0  0  0  0  0
    9.5545  -15.5735   25.8738 C   0  0  0  0  0  0  0  0  0  0  0  0
   10.5469  -15.4453   27.0014 C   0  0  0  0  0  0  0  0  0  0  0  0
    9.7685  -14.8657   28.1771 C   0  0  0  0  0  0  0  0  0  0  0  0
   10.6782  -14.5914   29.3526 C   0  0  0  0  0  0  0  0  0  0  0  0
    9.8927  -13.9554   30.3807 N   0  0  0  0  0  0  0  0  0  0  0  0
   10.8218  -17.4282   24.7737 C   0  0  0  0  0  0  0  0  0  0  0  0
   12.1911  -17.4681   25.0820 O   0  0  0  0  0  0  0  0  0  0  0  0
   10.2542  -18.5336   24.6395 O   0  0  0  0  0  0  0  0  0  0  0  0
  1  2  1  0
  3  4  2  0
  3  2  1  0
  5  6  1  0
  7  6  1  6
  7  8  1  0
  8  3  1  0
  9 11  1  0
  9  7  1  0
 10  9  2  0
 12 11  1  0
 12 13  1  1
 13 14  1  0
 14 15  1  0
 15 16  1  0
 16 17  1  0
 18 12  1  0
 19 18  1  0
 20 18  2  0
M  END
$$$$
