GSK.pdb
     RDKit          3D

 20 19  0  0  1  0  0  0  0  0999 V2000
   11.9589  -17.1460   18.7322 N   0  0  0  0  0  0  0  0  0  0  0  0
   11.0280  -18.0623   19.3582 C   0  0  0  0  0  0  0  0  0  0  0  0
   10.3951  -17.4010   20.5064 C   0  0  0  0  0  0  0  0  0  0  0  0
   10.7951  -16.2811   20.8724 O   0  0  0  0  0  0  0  0  0  0  0  0
    7.4310  -19.1651   22.8877 O   0  0  0  0  0  0  0  0  0  0  0  0
    7.3799  -17.7904   22.7089 C   0  0  0  0  0  0  0  0  0  0  0  0
    8.7973  -17.2802   22.4113 C   0  0  2  0  0  0  0  0  0  0  0  0
    9.3236  -17.9705   21.2516 N   0  0  0  0  0  0  0  0  0  0  0  0
    9.6703  -17.4546   23.5987 C   0  0  0  0  0  0  0  0  0  0  0  0
   10.5385  -18.3539   23.6727 O   0  0  0  0  0  0  0  0  0  0  0  0
    9.5427  -16.5853   24.7117 N   0  0  0  0  0  0  0  0  0  0  0  0
   10.3596  -16.7588   25.9145 C   0  0  1  0  0  0  0  0  0  0  0  0
   10.0346  -15.6304   26.8341 C   0  0  0  0  0  0  0  0  0  0  0  0
   10.7287  -15.7150   28.1698 C   0  0  0  0  0  0  0  0  0  0  0  0
   10.2068  -14.5376   28.9854 C   0  0  0  0  0  0  0  0  0  0  0  0
   10.7493  -14.5669   30.3958 C   0  0  0  0  0  0  0  0  0  0  0  0
   10.1741  -13.4569   31.1140 N   0  0  0  0  0  0  0  0  0  0  0  0
   10.2167  -18.0991   26.4754 C   0  0  0  0  0  0  0  0  0  0  0  0
    8.9729  -18.7503   26.4564 O   0  0  0  0  0  0  0  0  0  0  0  0
   11.1628  -18.7319   26.9916 O   0  0  0  0  0  0  0  0  0  0  0  0
  1  2  1  0
  3  4  2  0
  3  2  1  0
  5  6  1  0
  7  6  1  1
  7  8  1  0
  8  3  1  0
  9 11  1  0
  9  7  1  0
 10  9  2  0
 12 11  1  0
 12 13  1  1
 13 14  1  0
 14 15  1  0
 15 16  1  0
 16 17  1  0
 18 12  1  0
 19 18  1  0
 20 18  2  0
M  END
$$$$
