GSK.pdb
     RDKit          3D

 20 19  0  0  1  0  0  0  0  0999 V2000
    6.5378  -17.8155   18.2233 N   0  0  0  0  0  0  0  0  0  0  0  0
    5.9970  -17.0311   19.3144 C   0  0  0  0  0  0  0  0  0  0  0  0
    7.1006  -16.4149   20.0617 C   0  0  0  0  0  0  0  0  0  0  0  0
    8.2775  -16.6680   19.7471 O   0  0  0  0  0  0  0  0  0  0  0  0
    6.6394  -14.2441   23.6101 O   0  0  0  0  0  0  0  0  0  0  0  0
    7.5975  -13.7848   22.7183 C   0  0  0  0  0  0  0  0  0  0  0  0
    8.0553  -14.9587   21.8406 C   0  0  2  0  0  0  0  0  0  0  0  0
    6.9105  -15.5212   21.1540 N   0  0  0  0  0  0  0  0  0  0  0  0
    8.7588  -15.9753   22.6615 C   0  0  0  0  0  0  0  0  0  0  0  0
    8.1556  -16.8916   23.2652 O   0  0  0  0  0  0  0  0  0  0  0  0
   10.1707  -15.9369   22.7886 N   0  0  0  0  0  0  0  0  0  0  0  0
   10.9031  -16.9883   23.4973 C   0  0  1  0  0  0  0  0  0  0  0  0
   11.6802  -17.7485   22.4761 C   0  0  0  0  0  0  0  0  0  0  0  0
   12.4749  -18.8956   23.0465 C   0  0  0  0  0  0  0  0  0  0  0  0
   13.1681  -19.5531   21.8585 C   0  0  0  0  0  0  0  0  0  0  0  0
   13.9130  -20.7984   22.2813 C   0  0  0  0  0  0  0  0  0  0  0  0
   14.4461  -21.4193   21.0944 N   0  0  0  0  0  0  0  0  0  0  0  0
   11.6742  -16.4503   24.6141 C   0  0  0  0  0  0  0  0  0  0  0  0
   12.1489  -15.1293   24.5810 O   0  0  0  0  0  0  0  0  0  0  0  0
   11.9518  -17.1107   25.6382 O   0  0  0  0  0  0  0  0  0  0  0  0
  1  2  1  0
  3  4  2  0
  3  2  1  0
  5  6  1  0
  7  6  1  1
  7  8  1  0
  8  3  1  0
  9 11  1  0
  9  7  1  0
 10  9  2  0
 12 11  1  0
 12 13  1  6
 13 14  1  0
 14 15  1  0
 15 16  1  0
 16 17  1  0
 18 12  1  0
 19 18  1  0
 20 18  2  0
M  END
$$$$
