GSK.pdb
     RDKit          3D

 20 19  0  0  1  0  0  0  0  0999 V2000
   -2.7051  -27.1264   27.1500 N   0  0  0  0  0  0  0  0  0  0  0  0
   -2.6463  -26.8018   28.5604 C   0  0  0  0  0  0  0  0  0  0  0  0
   -3.1943  -25.4559   28.7713 C   0  0  0  0  0  0  0  0  0  0  0  0
   -3.3731  -25.0358   29.9287 O   0  0  0  0  0  0  0  0  0  0  0  0
   -3.6858  -21.1209   27.1634 O   0  0  0  0  0  0  0  0  0  0  0  0
   -4.0721  -22.3916   26.7630 C   0  0  0  0  0  0  0  0  0  0  0  0
   -4.1577  -23.2932   28.0031 C   0  0  2  0  0  0  0  0  0  0  0  0
   -3.5453  -24.5729   27.7107 N   0  0  0  0  0  0  0  0  0  0  0  0
   -5.5688  -23.4446   28.4367 C   0  0  0  0  0  0  0  0  0  0  0  0
   -6.3928  -24.1570   27.8189 O   0  0  0  0  0  0  0  0  0  0  0  0
   -6.0363  -22.7694   29.5928 N   0  0  0  0  0  0  0  0  0  0  0  0
   -7.4423  -22.8299   29.9971 C   0  0  1  0  0  0  0  0  0  0  0  0
   -7.5666  -23.9311   30.9952 C   0  0  0  0  0  0  0  0  0  0  0  0
   -8.5833  -24.9795   30.6210 C   0  0  0  0  0  0  0  0  0  0  0  0
   -8.5397  -26.0183   31.7358 C   0  0  0  0  0  0  0  0  0  0  0  0
   -9.5184  -27.1403   31.4756 C   0  0  0  0  0  0  0  0  0  0  0  0
   -9.2992  -28.1585   32.4726 N   0  0  0  0  0  0  0  0  0  0  0  0
   -7.9381  -21.5246   30.4234 C   0  0  0  0  0  0  0  0  0  0  0  0
   -9.3119  -21.3155   30.6249 O   0  0  0  0  0  0  0  0  0  0  0  0
   -7.1945  -20.5414   30.6296 O   0  0  0  0  0  0  0  0  0  0  0  0
  1  2  1  0
  3  4  2  0
  3  2  1  0
  5  6  1  0
  7  6  1  6
  7  8  1  0
  8  3  1  0
  9 11  1  0
  9  7  1  0
 10  9  2  0
 12 11  1  0
 12 13  1  1
 13 14  1  0
 14 15  1  0
 15 16  1  0
 16 17  1  0
 18 12  1  0
 19 18  1  0
 20 18  2  0
M  END
$$$$
