GSK.pdb
     RDKit          3D

 20 19  0  0  1  0  0  0  0  0999 V2000
    8.3367  -12.0561   18.4199 N   0  0  0  0  0  0  0  0  0  0  0  0
    8.4709  -13.4933   18.5409 C   0  0  0  0  0  0  0  0  0  0  0  0
    8.1141  -13.9001   19.9060 C   0  0  0  0  0  0  0  0  0  0  0  0
    8.2154  -13.0848   20.8403 O   0  0  0  0  0  0  0  0  0  0  0  0
    7.1587  -17.8457   21.1900 O   0  0  0  0  0  0  0  0  0  0  0  0
    6.3992  -16.7708   21.6282 C   0  0  0  0  0  0  0  0  0  0  0  0
    7.2750  -15.5096   21.6093 C   0  0  2  0  0  0  0  0  0  0  0  0
    7.6464  -15.2021   20.2434 N   0  0  0  0  0  0  0  0  0  0  0  0
    8.4659  -15.6933   22.4755 C   0  0  0  0  0  0  0  0  0  0  0  0
    9.6079  -15.9208   22.0147 O   0  0  0  0  0  0  0  0  0  0  0  0
    8.3412  -15.6144   23.8859 N   0  0  0  0  0  0  0  0  0  0  0  0
    9.5087  -15.7194   24.7634 C   0  0  1  0  0  0  0  0  0  0  0  0
    9.1230  -15.1372   26.0812 C   0  0  0  0  0  0  0  0  0  0  0  0
   10.2074  -15.2232   27.1250 C   0  0  0  0  0  0  0  0  0  0  0  0
    9.5889  -14.6906   28.4126 C   0  0  0  0  0  0  0  0  0  0  0  0
   10.5864  -14.7134   29.5479 C   0  0  0  0  0  0  0  0  0  0  0  0
    9.9282  -14.2042   30.7252 N   0  0  0  0  0  0  0  0  0  0  0  0
   10.0373  -17.0799   24.7981 C   0  0  0  0  0  0  0  0  0  0  0  0
    9.1903  -18.1788   24.5822 O   0  0  0  0  0  0  0  0  0  0  0  0
   11.2394  -17.3443   25.0153 O   0  0  0  0  0  0  0  0  0  0  0  0
  1  2  1  0
  3  4  2  0
  3  2  1  0
  5  6  1  0
  7  6  1  6
  7  8  1  0
  8  3  1  0
  9 11  1  0
  9  7  1  0
 10  9  2  0
 12 11  1  0
 12 13  1  1
 13 14  1  0
 14 15  1  0
 15 16  1  0
 16 17  1  0
 18 12  1  0
 19 18  1  0
 20 18  2  0
M  END
$$$$
