GSK.pdb
     RDKit          3D

 20 19  0  0  1  0  0  0  0  0999 V2000
    2.3589  -19.0041   21.0861 N   0  0  0  0  0  0  0  0  0  0  0  0
    2.9024  -17.8228   21.7242 C   0  0  0  0  0  0  0  0  0  0  0  0
    4.3201  -17.6875   21.3663 C   0  0  0  0  0  0  0  0  0  0  0  0
    4.7314  -18.1472   20.2858 O   0  0  0  0  0  0  0  0  0  0  0  0
    6.2187  -14.8329   20.6108 O   0  0  0  0  0  0  0  0  0  0  0  0
    6.6436  -16.1351   20.3915 C   0  0  0  0  0  0  0  0  0  0  0  0
    6.6472  -16.8836   21.7323 C   0  0  2  0  0  0  0  0  0  0  0  0
    5.2846  -17.0473   22.1956 N   0  0  0  0  0  0  0  0  0  0  0  0
    7.4833  -16.1637   22.7249 C   0  0  0  0  0  0  0  0  0  0  0  0
    6.9970  -15.4052   23.5945 O   0  0  0  0  0  0  0  0  0  0  0  0
    8.8928  -16.3185   22.7164 N   0  0  0  0  0  0  0  0  0  0  0  0
    9.6956  -16.0755   23.9167 C   0  0  1  0  0  0  0  0  0  0  0  0
    9.3819  -17.1660   24.8845 C   0  0  0  0  0  0  0  0  0  0  0  0
   10.1678  -17.0845   26.1685 C   0  0  0  0  0  0  0  0  0  0  0  0
    9.6828  -18.2464   27.0279 C   0  0  0  0  0  0  0  0  0  0  0  0
   10.4921  -18.3606   28.2993 C   0  0  0  0  0  0  0  0  0  0  0  0
    9.9441  -19.4442   29.0766 N   0  0  0  0  0  0  0  0  0  0  0  0
   11.1082  -15.8966   23.5943 C   0  0  0  0  0  0  0  0  0  0  0  0
   11.9648  -15.2353   24.4890 O   0  0  0  0  0  0  0  0  0  0  0  0
   11.6282  -16.3078   22.5348 O   0  0  0  0  0  0  0  0  0  0  0  0
  1  2  1  0
  3  4  2  0
  3  2  1  0
  5  6  1  0
  7  6  1  6
  7  8  1  0
  8  3  1  0
  9 11  1  0
  9  7  1  0
 10  9  2  0
 12 11  1  0
 12 13  1  1
 13 14  1  0
 14 15  1  0
 15 16  1  0
 16 17  1  0
 18 12  1  0
 19 18  1  0
 20 18  2  0
M  END
$$$$
