GSK.pdb
     RDKit          3D

 20 19  0  0  1  0  0  0  0  0999 V2000
    8.1626  -12.0238   18.3019 N   0  0  0  0  0  0  0  0  0  0  0  0
    8.5113  -13.4138   18.5126 C   0  0  0  0  0  0  0  0  0  0  0  0
    8.0828  -13.8226   19.8563 C   0  0  0  0  0  0  0  0  0  0  0  0
    8.0542  -12.9863   20.7770 O   0  0  0  0  0  0  0  0  0  0  0  0
    7.2488  -17.7985   21.0368 O   0  0  0  0  0  0  0  0  0  0  0  0
    6.4765  -16.7666   21.5496 C   0  0  0  0  0  0  0  0  0  0  0  0
    7.3126  -15.4786   21.5475 C   0  0  2  0  0  0  0  0  0  0  0  0
    7.6863  -15.1497   20.1872 N   0  0  0  0  0  0  0  0  0  0  0  0
    8.5011  -15.6315   22.4230 C   0  0  0  0  0  0  0  0  0  0  0  0
    9.6487  -15.8503   21.9722 O   0  0  0  0  0  0  0  0  0  0  0  0
    8.3673  -15.5317   23.8312 N   0  0  0  0  0  0  0  0  0  0  0  0
    9.5111  -15.7307   24.7236 C   0  0  1  0  0  0  0  0  0  0  0  0
    9.1535  -15.1266   26.0394 C   0  0  0  0  0  0  0  0  0  0  0  0
   10.2379  -15.2485   27.0796 C   0  0  0  0  0  0  0  0  0  0  0  0
    9.6723  -14.6170   28.3466 C   0  0  0  0  0  0  0  0  0  0  0  0
   10.6910  -14.6259   29.4631 C   0  0  0  0  0  0  0  0  0  0  0  0
   10.1104  -13.9507   30.5970 N   0  0  0  0  0  0  0  0  0  0  0  0
    9.9326  -17.1281   24.7576 C   0  0  0  0  0  0  0  0  0  0  0  0
   11.2882  -17.4596   24.9127 O   0  0  0  0  0  0  0  0  0  0  0  0
    9.1384  -18.0876   24.6541 O   0  0  0  0  0  0  0  0  0  0  0  0
  1  2  1  0
  3  4  2  0
  3  2  1  0
  5  6  1  0
  7  6  1  6
  7  8  1  0
  8  3  1  0
  9 11  1  0
  9  7  1  0
 10  9  2  0
 12 11  1  0
 12 13  1  1
 13 14  1  0
 14 15  1  0
 15 16  1  0
 16 17  1  0
 18 12  1  0
 19 18  1  0
 20 18  2  0
M  END
$$$$
