GSK.pdb
     RDKit          3D

 20 19  0  0  1  0  0  0  0  0999 V2000
    2.7899  -20.9249   21.0984 N   0  0  0  0  0  0  0  0  0  0  0  0
    3.2346  -19.7916   21.8833 C   0  0  0  0  0  0  0  0  0  0  0  0
    4.6037  -20.0358   22.3546 C   0  0  0  0  0  0  0  0  0  0  0  0
    5.0977  -21.1735   22.2559 O   0  0  0  0  0  0  0  0  0  0  0  0
    7.1973  -17.0344   23.6453 O   0  0  0  0  0  0  0  0  0  0  0  0
    7.7098  -18.1851   23.0643 C   0  0  0  0  0  0  0  0  0  0  0  0
    6.7681  -19.3564   23.3791 C   0  0  2  0  0  0  0  0  0  0  0  0
    5.4289  -19.0301   22.9339 N   0  0  0  0  0  0  0  0  0  0  0  0
    6.8041  -19.6745   24.8282 C   0  0  0  0  0  0  0  0  0  0  0  0
    6.0819  -19.0885   25.6667 O   0  0  0  0  0  0  0  0  0  0  0  0
    7.6799  -20.6770   25.3170 N   0  0  0  0  0  0  0  0  0  0  0  0
    7.7775  -20.9756   26.7472 C   0  0  1  0  0  0  0  0  0  0  0  0
    7.6368  -22.4525   26.8993 C   0  0  0  0  0  0  0  0  0  0  0  0
    6.2278  -22.9026   27.1906 C   0  0  0  0  0  0  0  0  0  0  0  0
    6.3069  -24.4110   27.3968 C   0  0  0  0  0  0  0  0  0  0  0  0
    4.9357  -25.0033   27.6287 C   0  0  0  0  0  0  0  0  0  0  0  0
    5.0921  -26.4259   27.8024 N   0  0  0  0  0  0  0  0  0  0  0  0
    8.9729  -20.3848   27.3416 C   0  0  0  0  0  0  0  0  0  0  0  0
    9.1133  -20.3128   28.7369 O   0  0  0  0  0  0  0  0  0  0  0  0
    9.9172  -19.9203   26.6675 O   0  0  0  0  0  0  0  0  0  0  0  0
  1  2  1  0
  3  4  2  0
  3  2  1  0
  5  6  1  0
  7  6  1  1
  7  8  1  0
  8  3  1  0
  9 11  1  0
  9  7  1  0
 10  9  2  0
 12 11  1  0
 12 13  1  6
 13 14  1  0
 14 15  1  0
 15 16  1  0
 16 17  1  0
 18 12  1  0
 19 18  1  0
 20 18  2  0
M  END
$$$$
