HRW.pdb
     RDKit          3D

 36 38  0  0  1  0  0  0  0  0999 V2000
   27.5543  -23.3010  -18.5311 N   0  0  0  0  0  0  0  0  0  0  0  0
   26.5475  -23.2426  -17.5173 C   0  0  1  0  0  0  0  0  0  0  0  0
   25.9557  -24.5827  -17.1982 C   0  0  0  0  0  0  0  0  0  0  0  0
   25.1126  -24.9831  -18.3657 C   0  0  0  0  0  0  0  0  0  0  0  0
   24.0582  -24.3048  -18.9254 C   0  0  0  0  0  0  0  0  0  0  0  0
   23.5721  -25.0264  -19.9806 N   0  0  0  0  0  0  0  0  0  0  0  0
   24.3243  -26.1300  -20.0620 C   0  0  0  0  0  0  0  0  0  0  0  0
   25.2701  -26.1120  -19.0778 N   0  0  0  0  0  0  0  0  0  0  0  0
   26.9502  -22.4265  -16.3727 C   0  0  0  0  0  0  0  0  0  0  0  0
   27.9229  -22.7612  -15.6749 O   0  0  0  0  0  0  0  0  0  0  0  0
   27.7159  -19.3040  -18.8876 N   0  0  0  0  0  0  0  0  0  0  0  0
   28.9800  -18.7609  -18.5575 C   0  0  0  0  0  0  0  0  0  0  0  0
   30.0196  -19.0741  -19.2688 N   0  0  0  0  0  0  0  0  0  0  0  0
   29.1367  -17.8904  -17.4719 N   0  0  0  0  0  0  0  0  0  0  0  0
   28.0988  -17.5339  -16.5522 C   0  0  0  0  0  0  0  0  0  0  0  0
   28.0086  -18.4839  -15.3805 C   0  0  0  0  0  0  0  0  0  0  0  0
   26.6086  -19.0285  -15.1883 C   0  0  0  0  0  0  0  0  0  0  0  0
   26.6315  -20.4943  -14.8720 C   0  0  2  0  0  0  0  0  0  0  0  0
   26.2573  -21.2375  -16.0185 N   0  0  0  0  0  0  0  0  0  0  0  0
   25.9111  -20.8432  -13.6214 C   0  0  0  0  0  0  0  0  0  0  0  0
   24.6610  -20.8186  -13.6326 O   0  0  0  0  0  0  0  0  0  0  0  0
   30.9322  -18.5836  -19.1050 N   0  0  0  0  0  0  0  0  0  0  0  0
   26.5999  -21.1982  -12.4392 C   0  0  2  0  0  0  0  0  0  0  0  0
   25.9398  -21.5219  -11.1936 C   0  0  0  0  0  0  0  0  0  0  0  0
   26.9591  -21.8429  -10.1322 C   0  0  0  0  0  0  0  0  0  0  0  0
   26.7637  -21.0245   -8.9249 C   0  0  0  0  0  0  0  0  0  0  0  0
   25.6049  -20.5150   -8.4419 N   0  0  0  0  0  0  0  0  0  0  0  0
   25.8649  -19.8322   -7.3147 C   0  0  0  0  0  0  0  0  0  0  0  0
   27.1999  -19.9135   -7.0900 C   0  0  0  0  0  0  0  0  0  0  0  0
   28.0129  -19.4038   -6.0842 C   0  0  0  0  0  0  0  0  0  0  0  0
   29.3753  -19.6358   -6.0805 C   0  0  0  0  0  0  0  0  0  0  0  0
   29.9702  -20.3840   -7.0838 C   0  0  0  0  0  0  0  0  0  0  0  0
   29.1364  -20.8801   -8.0770 C   0  0  0  0  0  0  0  0  0  0  0  0
   27.7902  -20.6491   -8.0745 C   0  0  0  0  0  0  0  0  0  0  0  0
   25.0390  -20.4019  -10.7643 O   0  0  0  0  0  0  0  0  0  0  0  0
   25.3356  -19.0869  -11.0695 O   0  0  0  0  0  0  0  0  0  0  0  0
  2  3  1  0
  2  1  1  6
  4  3  1  0
  5  4  2  0
  6  7  1  0
  6  5  1  0
  7  8  2  0
  8  4  1  0
  9 10  2  0
  9  2  1  0
 11 12  1  0
 12 13  2  0
 14 15  1  0
 14 12  1  0
 16 15  1  0
 16 17  1  0
 18 17  1  6
 18 20  1  0
 18 19  1  0
 19  9  1  0
 20 21  2  0
 22 20  1  0
 22 23  1  0
 23 24  1  6
 24 25  1  0
 25 33  1  0
 26 25  2  0
 26 27  1  0
 27 28  1  0
 28 29  1  0
 29 30  2  0
 31 30  1  0
 32 31  2  0
 33 28  2  0
 33 32  1  0
 34 35  1  0
 34 23  1  0
 36 34  2  0
M  END
$$$$
