HRW.pdb
     RDKit          3D

 36 38  0  0  1  0  0  0  0  0999 V2000
   26.8945  -15.3923  -18.8708 N   0  0  0  0  0  0  0  0  0  0  0  0
   26.0110  -15.5638  -17.7595 C   0  0  1  0  0  0  0  0  0  0  0  0
   25.2899  -14.3048  -17.3815 C   0  0  0  0  0  0  0  0  0  0  0  0
   26.3165  -13.3407  -16.8805 C   0  0  0  0  0  0  0  0  0  0  0  0
   27.2592  -12.6511  -17.6024 C   0  0  0  0  0  0  0  0  0  0  0  0
   27.9938  -11.8736  -16.7503 N   0  0  0  0  0  0  0  0  0  0  0  0
   27.5014  -12.0871  -15.5245 C   0  0  0  0  0  0  0  0  0  0  0  0
   26.4742  -12.9835  -15.5946 N   0  0  0  0  0  0  0  0  0  0  0  0
   25.1889  -16.7673  -17.8765 C   0  0  0  0  0  0  0  0  0  0  0  0
   24.7678  -17.1338  -18.9871 O   0  0  0  0  0  0  0  0  0  0  0  0
   24.7459  -22.3743  -12.6954 N   0  0  0  0  0  0  0  0  0  0  0  0
   24.9340  -22.9256  -13.9848 C   0  0  0  0  0  0  0  0  0  0  0  0
   24.4064  -24.0754  -14.2752 N   0  0  0  0  0  0  0  0  0  0  0  0
   25.6839  -22.2564  -14.9597 N   0  0  0  0  0  0  0  0  0  0  0  0
   26.3660  -21.0138  -14.7578 C   0  0  0  0  0  0  0  0  0  0  0  0
   25.5240  -19.8191  -15.1415 C   0  0  0  0  0  0  0  0  0  0  0  0
   24.9801  -19.9278  -16.5507 C   0  0  0  0  0  0  0  0  0  0  0  0
   24.1093  -18.7553  -16.8919 C   0  0  2  0  0  0  0  0  0  0  0  0
   24.8447  -17.5536  -16.7440 N   0  0  0  0  0  0  0  0  0  0  0  0
   22.7867  -18.7820  -16.2179 C   0  0  0  0  0  0  0  0  0  0  0  0
   22.7604  -18.8109  -14.9681 O   0  0  0  0  0  0  0  0  0  0  0  0
   24.4933  -24.4600  -15.2472 N   0  0  0  0  0  0  0  0  0  0  0  0
   21.5774  -18.7736  -16.9497 C   0  0  2  0  0  0  0  0  0  0  0  0
   20.2708  -18.8885  -16.3399 C   0  0  0  0  0  0  0  0  0  0  0  0
   19.1947  -18.7573  -17.3856 C   0  0  0  0  0  0  0  0  0  0  0  0
   17.8532  -18.7096  -16.7828 C   0  0  0  0  0  0  0  0  0  0  0  0
   17.3660  -17.8002  -15.9044 N   0  0  0  0  0  0  0  0  0  0  0  0
   16.0946  -18.1173  -15.6084 C   0  0  0  0  0  0  0  0  0  0  0  0
   15.7826  -19.2371  -16.3071 C   0  0  0  0  0  0  0  0  0  0  0  0
   14.6220  -19.9978  -16.3872 C   0  0  0  0  0  0  0  0  0  0  0  0
   14.5564  -21.1185  -17.1933 C   0  0  0  0  0  0  0  0  0  0  0  0
   15.6504  -21.5165  -17.9451 C   0  0  0  0  0  0  0  0  0  0  0  0
   16.7975  -20.7405  -17.8460 C   0  0  0  0  0  0  0  0  0  0  0  0
   16.8559  -19.6329  -17.0489 C   0  0  0  0  0  0  0  0  0  0  0  0
   20.1478  -20.1816  -15.5895 O   0  0  0  0  0  0  0  0  0  0  0  0
   19.6214  -20.2213  -14.3122 O   0  0  0  0  0  0  0  0  0  0  0  0
  2  3  1  0
  2  1  1  6
  4  3  1  0
  5  4  2  0
  6  7  1  0
  6  5  1  0
  7  8  2  0
  8  4  1  0
  9 10  2  0
  9  2  1  0
 11 12  1  0
 12 13  2  0
 14 15  1  0
 14 12  1  0
 16 15  1  0
 16 17  1  0
 18 17  1  1
 18 20  1  0
 18 19  1  0
 19  9  1  0
 20 21  2  0
 22 20  1  0
 22 23  1  0
 23 24  1  6
 24 25  1  0
 25 33  1  0
 26 25  2  0
 26 27  1  0
 27 28  1  0
 28 29  1  0
 29 30  2  0
 31 30  1  0
 32 31  2  0
 33 28  2  0
 33 32  1  0
 34 35  1  0
 34 23  1  0
 36 34  2  0
M  END
$$$$
