HRW.pdb
     RDKit          3D

 36 38  0  0  1  0  0  0  0  0999 V2000
   23.7884  -18.8795  -16.4679 N   0  0  0  0  0  0  0  0  0  0  0  0
   23.9486  -18.5435  -15.0873 C   0  0  1  0  0  0  0  0  0  0  0  0
   22.6907  -18.0237  -14.4585 C   0  0  0  0  0  0  0  0  0  0  0  0
   22.2336  -16.8612  -15.2796 C   0  0  0  0  0  0  0  0  0  0  0  0
   21.1868  -16.8059  -16.1663 C   0  0  0  0  0  0  0  0  0  0  0  0
   21.1172  -15.5476  -16.6976 N   0  0  0  0  0  0  0  0  0  0  0  0
   22.1098  -14.8459  -16.1381 C   0  0  0  0  0  0  0  0  0  0  0  0
   22.7983  -15.6417  -15.2686 N   0  0  0  0  0  0  0  0  0  0  0  0
   24.6653  -19.5747  -14.3382 C   0  0  0  0  0  0  0  0  0  0  0  0
   24.0744  -20.6014  -13.9617 O   0  0  0  0  0  0  0  0  0  0  0  0
   28.4075  -23.9127  -16.8143 N   0  0  0  0  0  0  0  0  0  0  0  0
   28.9599  -22.9210  -17.6589 C   0  0  0  0  0  0  0  0  0  0  0  0
   28.9800  -23.1091  -18.9430 N   0  0  0  0  0  0  0  0  0  0  0  0
   29.4918  -21.7353  -17.1374 N   0  0  0  0  0  0  0  0  0  0  0  0
   29.4849  -21.3750  -15.7517 C   0  0  0  0  0  0  0  0  0  0  0  0
   28.0935  -21.1040  -15.2281 C   0  0  0  0  0  0  0  0  0  0  0  0
   28.1026  -20.6306  -13.7897 C   0  0  0  0  0  0  0  0  0  0  0  0
   26.7090  -20.4472  -13.2662 C   0  0  2  0  0  0  0  0  0  0  0  0
   26.0436  -19.4467  -14.0165 N   0  0  0  0  0  0  0  0  0  0  0  0
   26.6448  -20.2885  -11.7914 C   0  0  0  0  0  0  0  0  0  0  0  0
   27.1896  -19.2857  -11.2803 O   0  0  0  0  0  0  0  0  0  0  0  0
   29.3783  -22.3712  -19.5733 N   0  0  0  0  0  0  0  0  0  0  0  0
   25.9892  -21.2324  -10.9684 C   0  0  1  0  0  0  0  0  0  0  0  0
   25.8687  -21.0976   -9.5334 C   0  0  0  0  0  0  0  0  0  0  0  0
   26.6023  -19.8693   -9.0623 C   0  0  0  0  0  0  0  0  0  0  0  0
   26.7188  -19.8340   -7.5959 C   0  0  0  0  0  0  0  0  0  0  0  0
   25.7315  -19.6548   -6.6854 N   0  0  0  0  0  0  0  0  0  0  0  0
   26.2627  -19.6952   -5.4522 C   0  0  0  0  0  0  0  0  0  0  0  0
   27.5961  -19.9003   -5.5915 C   0  0  0  0  0  0  0  0  0  0  0  0
   28.6257  -20.0265   -4.6661 C   0  0  0  0  0  0  0  0  0  0  0  0
   29.9295  -20.2387   -5.0725 C   0  0  0  0  0  0  0  0  0  0  0  0
   30.2471  -20.3301   -6.4183 C   0  0  0  0  0  0  0  0  0  0  0  0
   29.2010  -20.1990   -7.3217 C   0  0  0  0  0  0  0  0  0  0  0  0
   27.9140  -19.9911   -6.9142 C   0  0  0  0  0  0  0  0  0  0  0  0
   24.4263  -21.0627   -9.1233 O   0  0  0  0  0  0  0  0  0  0  0  0
   24.0226  -21.5212   -7.8835 O   0  0  0  0  0  0  0  0  0  0  0  0
  2  3  1  0
  2  1  1  6
  4  3  1  0
  5  4  2  0
  6  7  1  0
  6  5  1  0
  7  8  2  0
  8  4  1  0
  9 10  2  0
  9  2  1  0
 11 12  1  0
 12 13  2  0
 14 15  1  0
 14 12  1  0
 16 15  1  0
 16 17  1  0
 18 17  1  6
 18 20  1  0
 18 19  1  0
 19  9  1  0
 20 21  2  0
 22 20  1  0
 22 23  1  0
 23 24  1  1
 24 25  1  0
 25 33  1  0
 26 25  2  0
 26 27  1  0
 27 28  1  0
 28 29  1  0
 29 30  2  0
 31 30  1  0
 32 31  2  0
 33 28  2  0
 33 32  1  0
 34 35  1  0
 34 23  1  0
 36 34  2  0
M  END
$$$$
