HRW.pdb
     RDKit          3D

 36 38  0  0  1  0  0  0  0  0999 V2000
   29.9253  -23.1679  -17.8081 N   0  0  0  0  0  0  0  0  0  0  0  0
   28.6461  -22.5505  -17.6436 C   0  0  1  0  0  0  0  0  0  0  0  0
   27.5156  -23.3958  -18.1490 C   0  0  0  0  0  0  0  0  0  0  0  0
   27.7032  -23.5492  -19.6240 C   0  0  0  0  0  0  0  0  0  0  0  0
   28.0232  -24.6845  -20.3268 C   0  0  0  0  0  0  0  0  0  0  0  0
   28.0922  -24.3811  -21.6585 N   0  0  0  0  0  0  0  0  0  0  0  0
   27.8153  -23.0762  -21.7635 C   0  0  0  0  0  0  0  0  0  0  0  0
   27.5756  -22.5587  -20.5233 N   0  0  0  0  0  0  0  0  0  0  0  0
   28.4709  -21.9676  -16.3141 C   0  0  0  0  0  0  0  0  0  0  0  0
   28.8283  -22.5947  -15.3021 O   0  0  0  0  0  0  0  0  0  0  0  0
   24.3158  -16.3368  -16.6316 N   0  0  0  0  0  0  0  0  0  0  0  0
   24.2621  -15.8039  -15.3220 C   0  0  0  0  0  0  0  0  0  0  0  0
   23.1542  -15.2902  -14.8822 N   0  0  0  0  0  0  0  0  0  0  0  0
   25.3850  -15.8150  -14.4856 N   0  0  0  0  0  0  0  0  0  0  0  0
   26.6292  -16.4529  -14.7941 C   0  0  0  0  0  0  0  0  0  0  0  0
   26.5624  -17.9561  -14.6552 C   0  0  0  0  0  0  0  0  0  0  0  0
   27.8960  -18.6188  -14.9300 C   0  0  0  0  0  0  0  0  0  0  0  0
   27.7936  -20.1121  -14.8357 C   0  0  2  0  0  0  0  0  0  0  0  0
   27.8952  -20.6816  -16.1288 N   0  0  0  0  0  0  0  0  0  0  0  0
   26.6430  -20.5781  -14.0211 C   0  0  0  0  0  0  0  0  0  0  0  0
   25.4912  -20.4264  -14.4834 O   0  0  0  0  0  0  0  0  0  0  0  0
   23.0945  -14.9442  -13.8938 N   0  0  0  0  0  0  0  0  0  0  0  0
   26.8223  -21.1811  -12.7552 C   0  0  2  0  0  0  0  0  0  0  0  0
   25.7313  -21.6485  -11.9286 C   0  0  0  0  0  0  0  0  0  0  0  0
   26.2615  -22.2130  -10.6367 C   0  0  0  0  0  0  0  0  0  0  0  0
   26.3574  -21.1819   -9.5911 C   0  0  0  0  0  0  0  0  0  0  0  0
   25.3905  -20.3329   -9.1667 N   0  0  0  0  0  0  0  0  0  0  0  0
   25.8899  -19.5554   -8.1917 C   0  0  0  0  0  0  0  0  0  0  0  0
   27.1828  -19.9199   -8.0044 C   0  0  0  0  0  0  0  0  0  0  0  0
   28.1684  -19.4626   -7.1374 C   0  0  0  0  0  0  0  0  0  0  0  0
   29.4354  -20.0146   -7.1411 C   0  0  0  0  0  0  0  0  0  0  0  0
   29.7592  -21.0416   -8.0133 C   0  0  0  0  0  0  0  0  0  0  0  0
   28.7576  -21.4788   -8.8696 C   0  0  0  0  0  0  0  0  0  0  0  0
   27.5066  -20.9306   -8.8603 C   0  0  0  0  0  0  0  0  0  0  0  0
   24.7455  -20.5459  -11.6785 O   0  0  0  0  0  0  0  0  0  0  0  0
   25.1304  -19.2189  -11.7144 O   0  0  0  0  0  0  0  0  0  0  0  0
  2  3  1  0
  2  1  1  1
  4  3  1  0
  5  4  2  0
  6  7  1  0
  6  5  1  0
  7  8  2  0
  8  4  1  0
  9 10  2  0
  9  2  1  0
 11 12  1  0
 12 13  2  0
 14 15  1  0
 14 12  1  0
 16 15  1  0
 16 17  1  0
 18 17  1  6
 18 20  1  0
 18 19  1  0
 19  9  1  0
 20 21  2  0
 22 20  1  0
 22 23  1  0
 23 24  1  6
 24 25  1  0
 25 33  1  0
 26 25  2  0
 26 27  1  0
 27 28  1  0
 28 29  1  0
 29 30  2  0
 31 30  1  0
 32 31  2  0
 33 28  2  0
 33 32  1  0
 34 35  1  0
 34 23  1  0
 36 34  2  0
M  END
$$$$
