HRW.pdb
     RDKit          3D

 36 38  0  0  1  0  0  0  0  0999 V2000
   19.3193  -22.0406  -13.1309 N   0  0  0  0  0  0  0  0  0  0  0  0
   20.3222  -21.0526  -13.3816 C   0  0  1  0  0  0  0  0  0  0  0  0
   19.9608  -19.6990  -12.8476 C   0  0  0  0  0  0  0  0  0  0  0  0
   18.7928  -19.2082  -13.6406 C   0  0  0  0  0  0  0  0  0  0  0  0
   17.4560  -19.3425  -13.3573 C   0  0  0  0  0  0  0  0  0  0  0  0
   16.7270  -18.7422  -14.3466 N   0  0  0  0  0  0  0  0  0  0  0  0
   17.6114  -18.2472  -15.2202 C   0  0  0  0  0  0  0  0  0  0  0  0
   18.8784  -18.5273  -14.7962 N   0  0  0  0  0  0  0  0  0  0  0  0
   21.6695  -21.5291  -13.0720 C   0  0  0  0  0  0  0  0  0  0  0  0
   21.9400  -21.9500  -11.9342 O   0  0  0  0  0  0  0  0  0  0  0  0
   29.0407  -21.0988  -14.8478 N   0  0  0  0  0  0  0  0  0  0  0  0
   29.3241  -22.4736  -15.0258 C   0  0  0  0  0  0  0  0  0  0  0  0
   30.4913  -22.9368  -14.6974 N   0  0  0  0  0  0  0  0  0  0  0  0
   28.3691  -23.3506  -15.5546 N   0  0  0  0  0  0  0  0  0  0  0  0
   27.0130  -23.0011  -15.8527 C   0  0  0  0  0  0  0  0  0  0  0  0
   26.2010  -22.7109  -14.6118 C   0  0  0  0  0  0  0  0  0  0  0  0
   24.7792  -22.3035  -14.9372 C   0  0  0  0  0  0  0  0  0  0  0  0
   24.0228  -21.9238  -13.6990 C   0  0  2  0  0  0  0  0  0  0  0  0
   22.7063  -21.5307  -14.0439 N   0  0  0  0  0  0  0  0  0  0  0  0
   24.7601  -20.9835  -12.8177 C   0  0  0  0  0  0  0  0  0  0  0  0
   24.9213  -19.8076  -13.2110 O   0  0  0  0  0  0  0  0  0  0  0  0
   30.6813  -23.9665  -14.7592 N   0  0  0  0  0  0  0  0  0  0  0  0
   25.2729  -21.3852  -11.5632 C   0  0  2  0  0  0  0  0  0  0  0  0
   26.1138  -20.5481  -10.7359 C   0  0  0  0  0  0  0  0  0  0  0  0
   26.4746  -21.2684   -9.4633 C   0  0  0  0  0  0  0  0  0  0  0  0
   27.0510  -20.3537   -8.4650 C   0  0  0  0  0  0  0  0  0  0  0  0
   26.8115  -19.0289   -8.3120 N   0  0  0  0  0  0  0  0  0  0  0  0
   27.5365  -18.5711   -7.2779 C   0  0  0  0  0  0  0  0  0  0  0  0
   28.2382  -19.6191   -6.7790 C   0  0  0  0  0  0  0  0  0  0  0  0
   29.1363  -19.7271   -5.7236 C   0  0  0  0  0  0  0  0  0  0  0  0
   29.7269  -20.9363   -5.4089 C   0  0  0  0  0  0  0  0  0  0  0  0
   29.4400  -22.0776   -6.1406 C   0  0  0  0  0  0  0  0  0  0  0  0
   28.5412  -21.9424   -7.1902 C   0  0  0  0  0  0  0  0  0  0  0  0
   27.9592  -20.7450   -7.4955 C   0  0  0  0  0  0  0  0  0  0  0  0
   27.3396  -20.1206  -11.4874 O   0  0  0  0  0  0  0  0  0  0  0  0
   27.6752  -18.7855  -11.6105 O   0  0  0  0  0  0  0  0  0  0  0  0
  2  3  1  0
  2  1  1  1
  4  3  1  0
  5  4  2  0
  6  7  1  0
  6  5  1  0
  7  8  2  0
  8  4  1  0
  9 10  2  0
  9  2  1  0
 11 12  1  0
 12 13  2  0
 14 15  1  0
 14 12  1  0
 16 15  1  0
 16 17  1  0
 18 17  1  6
 18 20  1  0
 18 19  1  0
 19  9  1  0
 20 21  2  0
 22 20  1  0
 22 23  1  0
 23 24  1  1
 24 25  1  0
 25 33  1  0
 26 25  2  0
 26 27  1  0
 27 28  1  0
 28 29  1  0
 29 30  2  0
 31 30  1  0
 32 31  2  0
 33 28  2  0
 33 32  1  0
 34 35  1  0
 34 23  1  0
 36 34  2  0
M  END
$$$$
