HRW.pdb
     RDKit          3D

 36 38  0  0  1  0  0  0  0  0999 V2000
   23.0921  -19.5646  -18.0623 N   0  0  0  0  0  0  0  0  0  0  0  0
   23.5562  -19.2032  -16.7590 C   0  0  1  0  0  0  0  0  0  0  0  0
   22.5728  -18.3684  -15.9949 C   0  0  0  0  0  0  0  0  0  0  0  0
   22.2864  -17.1558  -16.8206 C   0  0  0  0  0  0  0  0  0  0  0  0
   21.0855  -16.7515  -17.3494 C   0  0  0  0  0  0  0  0  0  0  0  0
   21.2699  -15.5825  -18.0347 N   0  0  0  0  0  0  0  0  0  0  0  0
   22.5682  -15.2791  -17.9217 C   0  0  0  0  0  0  0  0  0  0  0  0
   23.1983  -16.2363  -17.1800 N   0  0  0  0  0  0  0  0  0  0  0  0
   24.1403  -20.3332  -16.0378 C   0  0  0  0  0  0  0  0  0  0  0  0
   23.4231  -21.2770  -15.6639 O   0  0  0  0  0  0  0  0  0  0  0  0
   30.5851  -23.7898  -17.7166 N   0  0  0  0  0  0  0  0  0  0  0  0
   30.6886  -23.7284  -16.3068 C   0  0  0  0  0  0  0  0  0  0  0  0
   31.2761  -24.6904  -15.6632 N   0  0  0  0  0  0  0  0  0  0  0  0
   30.1655  -22.6483  -15.5855 N   0  0  0  0  0  0  0  0  0  0  0  0
   29.6807  -21.4332  -16.1674 C   0  0  0  0  0  0  0  0  0  0  0  0
   28.4174  -20.9346  -15.5050 C   0  0  0  0  0  0  0  0  0  0  0  0
   27.3109  -21.9683  -15.5257 C   0  0  0  0  0  0  0  0  0  0  0  0
   26.0484  -21.4290  -14.9217 C   0  0  2  0  0  0  0  0  0  0  0  0
   25.5286  -20.3969  -15.7410 N   0  0  0  0  0  0  0  0  0  0  0  0
   26.1742  -21.0979  -13.4798 C   0  0  0  0  0  0  0  0  0  0  0  0
   26.7493  -20.0330  -13.1656 O   0  0  0  0  0  0  0  0  0  0  0  0
   31.3758  -24.6371  -14.6204 N   0  0  0  0  0  0  0  0  0  0  0  0
   25.6632  -21.9484  -12.4730 C   0  0  1  0  0  0  0  0  0  0  0  0
   25.7044  -21.6342  -11.0617 C   0  0  0  0  0  0  0  0  0  0  0  0
   26.8782  -20.7393  -10.7615 C   0  0  0  0  0  0  0  0  0  0  0  0
   26.8757  -20.2902   -9.3602 C   0  0  0  0  0  0  0  0  0  0  0  0
   25.8088  -19.9635   -8.5916 N   0  0  0  0  0  0  0  0  0  0  0  0
   26.2427  -19.6110   -7.3701 C   0  0  0  0  0  0  0  0  0  0  0  0
   27.5948  -19.7165   -7.3739 C   0  0  0  0  0  0  0  0  0  0  0  0
   28.5550  -19.4828   -6.3963 C   0  0  0  0  0  0  0  0  0  0  0  0
   29.8993  -19.6716   -6.6556 C   0  0  0  0  0  0  0  0  0  0  0  0
   30.3281  -20.0991   -7.9020 C   0  0  0  0  0  0  0  0  0  0  0  0
   29.3494  -20.3238   -8.8609 C   0  0  0  0  0  0  0  0  0  0  0  0
   28.0220  -20.1371   -8.5984 C   0  0  0  0  0  0  0  0  0  0  0  0
   24.4145  -21.0090  -10.6198 O   0  0  0  0  0  0  0  0  0  0  0  0
   23.7579  -20.0854  -11.4111 O   0  0  0  0  0  0  0  0  0  0  0  0
  2  3  1  0
  2  1  1  6
  4  3  1  0
  5  4  2  0
  6  7  1  0
  6  5  1  0
  7  8  2  0
  8  4  1  0
  9 10  2  0
  9  2  1  0
 11 12  1  0
 12 13  2  0
 14 15  1  0
 14 12  1  0
 16 15  1  0
 16 17  1  0
 18 17  1  6
 18 20  1  0
 18 19  1  0
 19  9  1  0
 20 21  2  0
 22 20  1  0
 22 23  1  0
 23 24  1  1
 24 25  1  0
 25 33  1  0
 26 25  2  0
 26 27  1  0
 27 28  1  0
 28 29  1  0
 29 30  2  0
 31 30  1  0
 32 31  2  0
 33 28  2  0
 33 32  1  0
 34 35  1  0
 34 23  1  0
 36 34  2  0
M  END
$$$$
