HRW.pdb
     RDKit          3D

 36 38  0  0  1  0  0  0  0  0999 V2000
   20.1320  -21.1798  -13.8156 N   0  0  0  0  0  0  0  0  0  0  0  0
   21.0638  -20.2662  -13.2308 C   0  0  1  0  0  0  0  0  0  0  0  0
   20.4332  -19.3399  -12.2347 C   0  0  0  0  0  0  0  0  0  0  0  0
   19.3442  -18.6021  -12.9446 C   0  0  0  0  0  0  0  0  0  0  0  0
   18.0003  -18.5924  -12.6633 C   0  0  0  0  0  0  0  0  0  0  0  0
   17.3619  -17.7805  -13.5598 N   0  0  0  0  0  0  0  0  0  0  0  0
   18.3080  -17.3009  -14.3754 C   0  0  0  0  0  0  0  0  0  0  0  0
   19.5246  -17.7981  -14.0063 N   0  0  0  0  0  0  0  0  0  0  0  0
   22.3019  -20.9201  -12.8093 C   0  0  0  0  0  0  0  0  0  0  0  0
   22.3194  -21.6342  -11.7921 O   0  0  0  0  0  0  0  0  0  0  0  0
   29.0556  -22.9767  -17.5955 N   0  0  0  0  0  0  0  0  0  0  0  0
   27.9162  -23.6449  -17.0882 C   0  0  0  0  0  0  0  0  0  0  0  0
   27.4200  -24.6529  -17.7382 N   0  0  0  0  0  0  0  0  0  0  0  0
   27.3060  -23.2388  -15.8952 N   0  0  0  0  0  0  0  0  0  0  0  0
   27.9077  -22.3821  -14.9183 C   0  0  0  0  0  0  0  0  0  0  0  0
   26.9871  -22.0880  -13.7567 C   0  0  0  0  0  0  0  0  0  0  0  0
   25.5810  -21.7526  -14.2081 C   0  0  0  0  0  0  0  0  0  0  0  0
   24.7225  -21.3307  -13.0529 C   0  0  2  0  0  0  0  0  0  0  0  0
   23.5147  -20.7683  -13.5343 N   0  0  0  0  0  0  0  0  0  0  0  0
   25.4457  -20.5202  -12.0406 C   0  0  0  0  0  0  0  0  0  0  0  0
   25.6198  -19.3037  -12.2716 O   0  0  0  0  0  0  0  0  0  0  0  0
   26.6053  -25.1810  -17.3411 N   0  0  0  0  0  0  0  0  0  0  0  0
   25.9312  -21.0878  -10.8405 C   0  0  2  0  0  0  0  0  0  0  0  0
   26.8182  -20.3984   -9.9295 C   0  0  0  0  0  0  0  0  0  0  0  0
   26.3916  -20.6392   -8.5051 C   0  0  0  0  0  0  0  0  0  0  0  0
   27.2378  -19.9039   -7.5519 C   0  0  0  0  0  0  0  0  0  0  0  0
   27.4087  -18.5636   -7.4510 N   0  0  0  0  0  0  0  0  0  0  0  0
   28.2610  -18.3071   -6.4449 C   0  0  0  0  0  0  0  0  0  0  0  0
   28.6288  -19.4984   -5.9112 C   0  0  0  0  0  0  0  0  0  0  0  0
   29.4777  -19.8324   -4.8623 C   0  0  0  0  0  0  0  0  0  0  0  0
   29.6872  -21.1509   -4.5048 C   0  0  0  0  0  0  0  0  0  0  0  0
   29.0555  -22.1794   -5.1856 C   0  0  0  0  0  0  0  0  0  0  0  0
   28.2142  -21.8190   -6.2297 C   0  0  0  0  0  0  0  0  0  0  0  0
   28.0097  -20.5141   -6.5775 C   0  0  0  0  0  0  0  0  0  0  0  0
   28.2401  -20.8211  -10.1522 O   0  0  0  0  0  0  0  0  0  0  0  0
   29.2902  -19.9527   -9.9212 O   0  0  0  0  0  0  0  0  0  0  0  0
  2  3  1  0
  2  1  1  1
  4  3  1  0
  5  4  2  0
  6  7  1  0
  6  5  1  0
  7  8  2  0
  8  4  1  0
  9 10  2  0
  9  2  1  0
 11 12  1  0
 12 13  2  0
 14 15  1  0
 14 12  1  0
 16 15  1  0
 16 17  1  0
 18 17  1  6
 18 20  1  0
 18 19  1  0
 19  9  1  0
 20 21  2  0
 22 20  1  0
 22 23  1  0
 23 24  1  1
 24 25  1  0
 25 33  1  0
 26 25  2  0
 26 27  1  0
 27 28  1  0
 28 29  1  0
 29 30  2  0
 31 30  1  0
 32 31  2  0
 33 28  2  0
 33 32  1  0
 34 35  1  0
 34 23  1  0
 36 34  2  0
M  END
$$$$
