HRW.pdb
     RDKit          3D

 36 38  0  0  1  0  0  0  0  0999 V2000
   20.9874  -22.6728  -15.2307 N   0  0  0  0  0  0  0  0  0  0  0  0
   21.6447  -21.5581  -14.6221 C   0  0  1  0  0  0  0  0  0  0  0  0
   20.6904  -20.5481  -14.0590 C   0  0  0  0  0  0  0  0  0  0  0  0
   19.8758  -20.0261  -15.1985 C   0  0  0  0  0  0  0  0  0  0  0  0
   18.5702  -20.3130  -15.5119 C   0  0  0  0  0  0  0  0  0  0  0  0
   18.2161  -19.6152  -16.6335 N   0  0  0  0  0  0  0  0  0  0  0  0
   19.2944  -18.9108  -16.9963 C   0  0  0  0  0  0  0  0  0  0  0  0
   20.3151  -19.1557  -16.1235 N   0  0  0  0  0  0  0  0  0  0  0  0
   22.7442  -21.9639  -13.7477 C   0  0  0  0  0  0  0  0  0  0  0  0
   22.5568  -22.8079  -12.8547 O   0  0  0  0  0  0  0  0  0  0  0  0
   27.3583  -21.4579  -17.6265 N   0  0  0  0  0  0  0  0  0  0  0  0
   28.0965  -22.2835  -16.7459 C   0  0  0  0  0  0  0  0  0  0  0  0
   28.4526  -23.4722  -17.1264 N   0  0  0  0  0  0  0  0  0  0  0  0
   28.4508  -21.8457  -15.4639 N   0  0  0  0  0  0  0  0  0  0  0  0
   28.1508  -20.5521  -14.9286 C   0  0  0  0  0  0  0  0  0  0  0  0
   26.8036  -20.5034  -14.2458 C   0  0  0  0  0  0  0  0  0  0  0  0
   26.3886  -21.8520  -13.6959 C   0  0  0  0  0  0  0  0  0  0  0  0
   25.0779  -21.7667  -12.9718 C   0  0  2  0  0  0  0  0  0  0  0  0
   24.0497  -21.4189  -13.8822 N   0  0  0  0  0  0  0  0  0  0  0  0
   25.1363  -20.9514  -11.7323 C   0  0  0  0  0  0  0  0  0  0  0  0
   24.6236  -19.8110  -11.7499 O   0  0  0  0  0  0  0  0  0  0  0  0
   29.0426  -24.0680  -16.4962 N   0  0  0  0  0  0  0  0  0  0  0  0
   25.7485  -21.4324  -10.5525 C   0  0  2  0  0  0  0  0  0  0  0  0
   26.0254  -20.6052   -9.3988 C   0  0  0  0  0  0  0  0  0  0  0  0
   26.9621  -21.3184   -8.4593 C   0  0  0  0  0  0  0  0  0  0  0  0
   27.2792  -20.4975   -7.2799 C   0  0  0  0  0  0  0  0  0  0  0  0
   26.7374  -19.3084   -6.9220 N   0  0  0  0  0  0  0  0  0  0  0  0
   27.3026  -18.8993   -5.7741 C   0  0  0  0  0  0  0  0  0  0  0  0
   28.2085  -19.8407   -5.4100 C   0  0  0  0  0  0  0  0  0  0  0  0
   29.0712  -19.9398   -4.3245 C   0  0  0  0  0  0  0  0  0  0  0  0
   29.9123  -21.0264   -4.1771 C   0  0  0  0  0  0  0  0  0  0  0  0
   29.9196  -22.0496   -5.1116 C   0  0  0  0  0  0  0  0  0  0  0  0
   29.0499  -21.9257   -6.1868 C   0  0  0  0  0  0  0  0  0  0  0  0
   28.2196  -20.8502   -6.3263 C   0  0  0  0  0  0  0  0  0  0  0  0
   26.5814  -19.2771   -9.8198 O   0  0  0  0  0  0  0  0  0  0  0  0
   25.9067  -18.1008   -9.5527 O   0  0  0  0  0  0  0  0  0  0  0  0
  2  3  1  0
  2  1  1  1
  4  3  1  0
  5  4  2  0
  6  7  1  0
  6  5  1  0
  7  8  2  0
  8  4  1  0
  9 10  2  0
  9  2  1  0
 11 12  1  0
 12 13  2  0
 14 15  1  0
 14 12  1  0
 16 15  1  0
 16 17  1  0
 18 17  1  6
 18 20  1  0
 18 19  1  0
 19  9  1  0
 20 21  2  0
 22 20  1  0
 22 23  1  0
 23 24  1  1
 24 25  1  0
 25 33  1  0
 26 25  2  0
 26 27  1  0
 27 28  1  0
 28 29  1  0
 29 30  2  0
 31 30  1  0
 32 31  2  0
 33 28  2  0
 33 32  1  0
 34 35  1  0
 34 23  1  0
 36 34  2  0
M  END
$$$$
