HRW.pdb
     RDKit          3D

 36 38  0  0  1  0  0  0  0  0999 V2000
   28.6810  -28.2805  -19.2831 N   0  0  0  0  0  0  0  0  0  0  0  0
   28.0898  -28.7245  -18.0591 C   0  0  1  0  0  0  0  0  0  0  0  0
   27.0993  -27.7495  -17.4967 C   0  0  0  0  0  0  0  0  0  0  0  0
   27.8125  -26.4482  -17.3178 C   0  0  0  0  0  0  0  0  0  0  0  0
   28.6579  -26.0745  -16.3024 C   0  0  0  0  0  0  0  0  0  0  0  0
   29.0943  -24.7987  -16.5309 N   0  0  0  0  0  0  0  0  0  0  0  0
   28.5217  -24.4025  -17.6736 C   0  0  0  0  0  0  0  0  0  0  0  0
   27.7356  -25.4057  -18.1625 N   0  0  0  0  0  0  0  0  0  0  0  0
   27.6583  -30.1204  -18.1180 C   0  0  0  0  0  0  0  0  0  0  0  0
   27.2999  -30.6211  -19.1978 O   0  0  0  0  0  0  0  0  0  0  0  0
   32.6163  -32.3822  -16.6776 N   0  0  0  0  0  0  0  0  0  0  0  0
   32.6548  -33.7222  -17.1299 C   0  0  0  0  0  0  0  0  0  0  0  0
   33.6359  -34.1187  -17.8816 N   0  0  0  0  0  0  0  0  0  0  0  0
   31.6506  -34.6353  -16.7857 N   0  0  0  0  0  0  0  0  0  0  0  0
   30.4438  -34.3015  -16.0912 C   0  0  0  0  0  0  0  0  0  0  0  0
   29.5389  -33.3995  -16.8981 C   0  0  0  0  0  0  0  0  0  0  0  0
   28.2245  -33.1277  -16.1969 C   0  0  0  0  0  0  0  0  0  0  0  0
   27.3013  -32.3208  -17.0607 C   0  0  2  0  0  0  0  0  0  0  0  0
   27.6324  -30.9469  -16.9623 N   0  0  0  0  0  0  0  0  0  0  0  0
   25.8665  -32.6478  -16.8638 C   0  0  0  0  0  0  0  0  0  0  0  0
   25.2550  -32.0867  -15.9285 O   0  0  0  0  0  0  0  0  0  0  0  0
   33.7175  -35.1310  -18.1439 N   0  0  0  0  0  0  0  0  0  0  0  0
   25.1898  -33.5645  -17.7004 C   0  0  2  0  0  0  0  0  0  0  0  0
   23.8073  -33.9476  -17.5163 C   0  0  0  0  0  0  0  0  0  0  0  0
   23.3364  -34.7752  -18.6834 C   0  0  0  0  0  0  0  0  0  0  0  0
   21.8806  -34.9870  -18.6482 C   0  0  0  0  0  0  0  0  0  0  0  0
   20.9208  -34.1150  -18.2555 N   0  0  0  0  0  0  0  0  0  0  0  0
   19.7194  -34.7021  -18.3830 C   0  0  0  0  0  0  0  0  0  0  0  0
   19.9286  -35.9547  -18.8591 C   0  0  0  0  0  0  0  0  0  0  0  0
   19.0603  -36.9924  -19.1779 C   0  0  0  0  0  0  0  0  0  0  0  0
   19.5342  -38.1981  -19.6593 C   0  0  0  0  0  0  0  0  0  0  0  0
   20.8927  -38.4067  -19.8362 C   0  0  0  0  0  0  0  0  0  0  0  0
   21.7382  -37.3552  -19.5089 C   0  0  0  0  0  0  0  0  0  0  0  0
   21.2641  -36.1651  -19.0352 C   0  0  0  0  0  0  0  0  0  0  0  0
   23.6283  -34.6807  -16.2199 O   0  0  0  0  0  0  0  0  0  0  0  0
   22.6049  -34.3570  -15.3492 O   0  0  0  0  0  0  0  0  0  0  0  0
  2  3  1  0
  2  1  1  6
  4  3  1  0
  5  4  2  0
  6  7  1  0
  6  5  1  0
  7  8  2  0
  8  4  1  0
  9 10  2  0
  9  2  1  0
 11 12  1  0
 12 13  2  0
 14 15  1  0
 14 12  1  0
 16 15  1  0
 16 17  1  0
 18 17  1  1
 18 20  1  0
 18 19  1  0
 19  9  1  0
 20 21  2  0
 22 20  1  0
 22 23  1  0
 23 24  1  6
 24 25  1  0
 25 33  1  0
 26 25  2  0
 26 27  1  0
 27 28  1  0
 28 29  1  0
 29 30  2  0
 31 30  1  0
 32 31  2  0
 33 28  2  0
 33 32  1  0
 34 35  1  0
 34 23  1  0
 36 34  2  0
M  END
$$$$
