HRH.pdb
     RDKit          3D

 32 33  0  0  1  0  0  0  0  0999 V2000
    7.4272  -16.3809   17.6852 N   0  0  0  0  0  0  0  0  0  0  0  0
    8.2396  -15.7105   18.6595 C   0  0  1  0  0  0  0  0  0  0  0  0
    7.9194  -14.2412   18.6595 C   0  0  0  0  0  0  0  0  0  0  0  0
    8.0583  -13.7021   17.2876 C   0  0  0  0  0  0  0  0  0  0  0  0
    7.0963  -13.0351   16.5696 C   0  0  0  0  0  0  0  0  0  0  0  0
    7.6383  -12.7230   15.3657 N   0  0  0  0  0  0  0  0  0  0  0  0
    8.8980  -13.1783   15.3284 C   0  0  0  0  0  0  0  0  0  0  0  0
    9.1716  -13.7832   16.5033 N   0  0  0  0  0  0  0  0  0  0  0  0
    8.0865  -16.2945   20.0151 C   0  0  0  0  0  0  0  0  0  0  0  0
    6.9946  -16.7678   20.3550 O   0  0  0  0  0  0  0  0  0  0  0  0
   12.7541  -22.2859   19.5723 N   0  0  0  0  0  0  0  0  0  0  0  0
   12.4956  -21.0287   18.9726 C   0  0  0  0  0  0  0  0  0  0  0  0
   13.1045  -20.6489   17.8752 N   0  0  0  0  0  0  0  0  0  0  0  0
   11.5618  -20.0917   19.5123 N   0  0  0  0  0  0  0  0  0  0  0  0
   10.6072  -20.4253   20.5477 C   0  0  0  0  0  0  0  0  0  0  0  0
    9.6687  -19.3010   20.8536 C   0  0  0  0  0  0  0  0  0  0  0  0
   10.3067  -18.2616   21.7114 C   0  0  0  0  0  0  0  0  0  0  0  0
    9.3108  -17.1612   21.9867 C   0  0  2  0  0  0  0  0  0  0  0  0
    9.2060  -16.2831   20.8653 N   0  0  0  0  0  0  0  0  0  0  0  0
    9.8137  -16.3496   23.1584 C   0  0  0  0  0  0  0  0  0  0  0  0
   10.7950  -15.5862   22.9754 O   0  0  0  0  0  0  0  0  0  0  0  0
   12.8732  -19.6988   17.5178 N   0  0  0  0  0  0  0  0  0  0  0  0
    9.1728  -16.4774   24.3972 C   0  0  1  0  0  0  0  0  0  0  0  0
    9.6919  -15.7383   25.5512 C   0  0  0  0  0  0  0  0  0  0  0  0
    8.5533  -15.3863   26.4616 C   0  0  0  0  0  0  0  0  0  0  0  0
    7.6604  -14.3972   25.8238 C   0  0  0  0  0  0  0  0  0  0  0  0
    7.8743  -13.8258   24.5687 N   0  0  0  0  0  0  0  0  0  0  0  0
    6.8771  -12.9815   24.3033 C   0  0  0  0  0  0  0  0  0  0  0  0
    6.0234  -12.9787   25.3321 N   0  0  0  0  0  0  0  0  0  0  0  0
    6.5155  -13.8384   26.2358 C   0  0  0  0  0  0  0  0  0  0  0  0
   10.7377  -16.5823   26.2172 O   0  0  0  0  0  0  0  0  0  0  0  0
   11.4499  -15.9775   27.2659 O   0  0  0  0  0  0  0  0  0  0  0  0
  2  1  1  6
  2  3  1  0
  4  3  1  0
  5  4  2  0
  6  5  1  0
  7  6  1  0
  7  8  2  0
  8  4  1  0
  9  2  1  0
  9 10  2  0
 12 11  1  0
 13 12  2  0
 14 12  1  0
 15 14  1  0
 16 17  1  0
 16 15  1  0
 18 19  1  0
 18 17  1  6
 19  9  1  0
 20 18  1  0
 21 20  2  0
 22 20  1  0
 23 22  1  0
 23 24  1  1
 24 25  1  0
 25 26  2  0
 25 29  1  0
 26 27  1  0
 27 28  1  0
 29 28  2  0
 30 23  1  0
 30 31  1  0
 32 30  2  0
M  END
$$$$
