HRH.pdb
     RDKit          3D

 32 33  0  0  1  0  0  0  0  0999 V2000
    7.9413  -16.9172   19.3270 N   0  0  0  0  0  0  0  0  0  0  0  0
    8.8748  -16.2521   20.1902 C   0  0  1  0  0  0  0  0  0  0  0  0
    8.2695  -14.9730   20.6990 C   0  0  0  0  0  0  0  0  0  0  0  0
    8.1261  -14.0120   19.5818 C   0  0  0  0  0  0  0  0  0  0  0  0
    8.4111  -14.2470   18.2591 C   0  0  0  0  0  0  0  0  0  0  0  0
    8.1425  -13.1029   17.5813 N   0  0  0  0  0  0  0  0  0  0  0  0
    7.7036  -12.1804   18.4485 C   0  0  0  0  0  0  0  0  0  0  0  0
    7.6878  -12.7242   19.6835 N   0  0  0  0  0  0  0  0  0  0  0  0
    9.3199  -17.1191   21.3093 C   0  0  0  0  0  0  0  0  0  0  0  0
    8.5068  -17.8770   21.8536 O   0  0  0  0  0  0  0  0  0  0  0  0
   16.2525  -19.2920   19.7249 N   0  0  0  0  0  0  0  0  0  0  0  0
   15.1802  -20.1485   19.3737 C   0  0  0  0  0  0  0  0  0  0  0  0
   15.3853  -21.3263   18.8349 N   0  0  0  0  0  0  0  0  0  0  0  0
   13.8106  -19.7973   19.5788 N   0  0  0  0  0  0  0  0  0  0  0  0
   13.3888  -18.6835   20.4008 C   0  0  0  0  0  0  0  0  0  0  0  0
   13.1406  -19.0753   21.8232 C   0  0  0  0  0  0  0  0  0  0  0  0
   12.7105  -17.9137   22.6533 C   0  0  0  0  0  0  0  0  0  0  0  0
   11.2032  -17.8828   22.7261 C   0  0  2  0  0  0  0  0  0  0  0  0
   10.6659  -17.0388   21.7069 N   0  0  0  0  0  0  0  0  0  0  0  0
   10.8055  -17.2978   24.0619 C   0  0  0  0  0  0  0  0  0  0  0  0
   11.0264  -16.0777   24.2661 O   0  0  0  0  0  0  0  0  0  0  0  0
   14.5415  -21.9050   18.6424 N   0  0  0  0  0  0  0  0  0  0  0  0
   10.2100  -18.1311   25.0171 C   0  0  1  0  0  0  0  0  0  0  0  0
    9.8045  -17.5658   26.3068 C   0  0  0  0  0  0  0  0  0  0  0  0
    8.3070  -17.5204   26.3743 C   0  0  0  0  0  0  0  0  0  0  0  0
    7.7709  -16.5242   25.4243 C   0  0  0  0  0  0  0  0  0  0  0  0
    7.9930  -15.1488   25.5048 N   0  0  0  0  0  0  0  0  0  0  0  0
    7.3675  -14.5505   24.4905 C   0  0  0  0  0  0  0  0  0  0  0  0
    6.7476  -15.4777   23.7535 N   0  0  0  0  0  0  0  0  0  0  0  0
    7.0043  -16.6584   24.3347 C   0  0  0  0  0  0  0  0  0  0  0  0
   10.4170  -18.3952   27.3962 O   0  0  0  0  0  0  0  0  0  0  0  0
   10.1516  -17.9861   28.7133 O   0  0  0  0  0  0  0  0  0  0  0  0
  2  1  1  1
  2  3  1  0
  4  3  1  0
  5  4  2  0
  6  5  1  0
  7  6  1  0
  7  8  2  0
  8  4  1  0
  9  2  1  0
  9 10  2  0
 12 11  1  0
 13 12  2  0
 14 12  1  0
 15 14  1  0
 16 17  1  0
 16 15  1  0
 18 19  1  0
 18 17  1  1
 19  9  1  0
 20 18  1  0
 21 20  2  0
 22 20  1  0
 23 22  1  0
 23 24  1  6
 24 25  1  0
 25 26  2  0
 25 29  1  0
 26 27  1  0
 27 28  1  0
 29 28  2  0
 30 23  1  0
 30 31  1  0
 32 30  2  0
M  END
$$$$
