HRH.pdb
     RDKit          3D

 32 33  0  0  1  0  0  0  0  0999 V2000
   14.8300  -14.9187   15.2880 N   0  0  0  0  0  0  0  0  0  0  0  0
   14.8901  -14.9659   16.7208 C   0  0  1  0  0  0  0  0  0  0  0  0
   15.2127  -13.5990   17.2583 C   0  0  0  0  0  0  0  0  0  0  0  0
   16.6607  -13.3325   17.1025 C   0  0  0  0  0  0  0  0  0  0  0  0
   17.6225  -14.2361   16.7224 C   0  0  0  0  0  0  0  0  0  0  0  0
   18.8090  -13.5785   16.7114 N   0  0  0  0  0  0  0  0  0  0  0  0
   18.6002  -12.3051   17.0723 C   0  0  0  0  0  0  0  0  0  0  0  0
   17.2835  -12.1377   17.3163 N   0  0  0  0  0  0  0  0  0  0  0  0
   13.6397  -15.4974   17.3175 C   0  0  0  0  0  0  0  0  0  0  0  0
   12.5506  -15.2162   16.8012 O   0  0  0  0  0  0  0  0  0  0  0  0
    9.5132  -22.5872   22.3012 N   0  0  0  0  0  0  0  0  0  0  0  0
   10.6871  -21.9380   21.8459 C   0  0  0  0  0  0  0  0  0  0  0  0
   11.8125  -21.9960   22.5164 N   0  0  0  0  0  0  0  0  0  0  0  0
   10.7322  -21.1808   20.6352 N   0  0  0  0  0  0  0  0  0  0  0  0
   11.9243  -20.5138   20.1571 C   0  0  0  0  0  0  0  0  0  0  0  0
   11.7166  -19.0496   19.9302 C   0  0  0  0  0  0  0  0  0  0  0  0
   12.9249  -18.4005   19.3455 C   0  0  0  0  0  0  0  0  0  0  0  0
   12.6164  -16.9549   19.0396 C   0  0  2  0  0  0  0  0  0  0  0  0
   13.7505  -16.3084   18.4603 N   0  0  0  0  0  0  0  0  0  0  0  0
   12.3036  -16.2520   20.3406 C   0  0  0  0  0  0  0  0  0  0  0  0
   13.2633  -15.8916   21.0674 O   0  0  0  0  0  0  0  0  0  0  0  0
   12.6318  -21.5097   22.0966 N   0  0  0  0  0  0  0  0  0  0  0  0
   10.9648  -16.0299   20.6868 C   0  0  2  0  0  0  0  0  0  0  0  0
   10.6550  -15.1748   21.8359 C   0  0  0  0  0  0  0  0  0  0  0  0
    9.2017  -14.8068   21.7968 C   0  0  0  0  0  0  0  0  0  0  0  0
    8.8660  -14.1375   20.5233 C   0  0  0  0  0  0  0  0  0  0  0  0
    9.7800  -13.4571   19.7176 N   0  0  0  0  0  0  0  0  0  0  0  0
    9.1414  -12.9800   18.6487 C   0  0  0  0  0  0  0  0  0  0  0  0
    7.8509  -13.3205   18.7245 N   0  0  0  0  0  0  0  0  0  0  0  0
    7.7083  -14.0168   19.8614 C   0  0  0  0  0  0  0  0  0  0  0  0
   11.0419  -15.9094   23.0851 O   0  0  0  0  0  0  0  0  0  0  0  0
   11.5915  -17.1898   22.9088 O   0  0  0  0  0  0  0  0  0  0  0  0
  2  1  1  6
  2  3  1  0
  4  3  1  0
  5  4  2  0
  6  5  1  0
  7  6  1  0
  7  8  2  0
  8  4  1  0
  9  2  1  0
  9 10  2  0
 12 11  1  0
 13 12  2  0
 14 12  1  0
 15 14  1  0
 16 17  1  0
 16 15  1  0
 18 19  1  0
 18 17  1  1
 19  9  1  0
 20 18  1  0
 21 20  2  0
 22 20  1  0
 23 22  1  0
 23 24  1  6
 24 25  1  0
 25 26  2  0
 25 29  1  0
 26 27  1  0
 27 28  1  0
 29 28  2  0
 30 23  1  0
 30 31  1  0
 32 30  2  0
M  END
$$$$
