HRH.pdb
     RDKit          3D

 32 33  0  0  1  0  0  0  0  0999 V2000
    7.4558  -16.6160   19.4013 N   0  0  0  0  0  0  0  0  0  0  0  0
    8.3953  -15.9971   20.2918 C   0  0  1  0  0  0  0  0  0  0  0  0
    7.8994  -14.6316   20.6801 C   0  0  0  0  0  0  0  0  0  0  0  0
    8.1989  -13.6674   19.5972 C   0  0  0  0  0  0  0  0  0  0  0  0
    8.8378  -13.9404   18.4126 C   0  0  0  0  0  0  0  0  0  0  0  0
    8.9075  -12.7776   17.7170 N   0  0  0  0  0  0  0  0  0  0  0  0
    8.3319  -11.8072   18.4398 C   0  0  0  0  0  0  0  0  0  0  0  0
    7.8910  -12.3385   19.5994 N   0  0  0  0  0  0  0  0  0  0  0  0
    8.6670  -16.8313   21.4887 C   0  0  0  0  0  0  0  0  0  0  0  0
    7.7418  -17.4644   22.0130 O   0  0  0  0  0  0  0  0  0  0  0  0
   13.5972  -19.4255   18.1646 N   0  0  0  0  0  0  0  0  0  0  0  0
   12.5663  -20.3407   18.4912 C   0  0  0  0  0  0  0  0  0  0  0  0
   12.2206  -21.3100   17.6786 N   0  0  0  0  0  0  0  0  0  0  0  0
   11.8351  -20.2770   19.7169 N   0  0  0  0  0  0  0  0  0  0  0  0
   12.0592  -19.2641   20.7261 C   0  0  0  0  0  0  0  0  0  0  0  0
   11.1818  -19.4379   21.9254 C   0  0  0  0  0  0  0  0  0  0  0  0
   11.5002  -18.4496   22.9955 C   0  0  0  0  0  0  0  0  0  0  0  0
   10.3173  -17.5339   23.1975 C   0  0  2  0  0  0  0  0  0  0  0  0
    9.9834  -16.8648   21.9807 N   0  0  0  0  0  0  0  0  0  0  0  0
   10.7024  -16.4792   24.2093 C   0  0  0  0  0  0  0  0  0  0  0  0
   11.2178  -15.4127   23.7896 O   0  0  0  0  0  0  0  0  0  0  0  0
   11.4718  -21.9528   18.0104 N   0  0  0  0  0  0  0  0  0  0  0  0
   10.4730  -16.7272   25.5685 C   0  0  1  0  0  0  0  0  0  0  0  0
    9.7895  -15.7129   26.3757 C   0  0  0  0  0  0  0  0  0  0  0  0
    8.4572  -15.4092   25.7578 C   0  0  0  0  0  0  0  0  0  0  0  0
    7.7200  -14.4167   26.5665 C   0  0  0  0  0  0  0  0  0  0  0  0
    8.2966  -13.5942   27.5353 N   0  0  0  0  0  0  0  0  0  0  0  0
    7.3478  -12.8222   28.0661 C   0  0  0  0  0  0  0  0  0  0  0  0
    6.1784  -13.1072   27.4844 N   0  0  0  0  0  0  0  0  0  0  0  0
    6.4268  -14.0701   26.5850 C   0  0  0  0  0  0  0  0  0  0  0  0
    9.6823  -16.2258   27.7812 O   0  0  0  0  0  0  0  0  0  0  0  0
    9.3344  -17.5789   27.9247 O   0  0  0  0  0  0  0  0  0  0  0  0
  2  1  1  6
  2  3  1  0
  4  3  1  0
  5  4  2  0
  6  5  1  0
  7  6  1  0
  7  8  2  0
  8  4  1  0
  9  2  1  0
  9 10  2  0
 12 11  1  0
 13 12  2  0
 14 12  1  0
 15 14  1  0
 16 17  1  0
 16 15  1  0
 18 19  1  0
 18 17  1  6
 19  9  1  0
 20 18  1  0
 21 20  2  0
 22 20  1  0
 23 22  1  0
 23 24  1  6
 24 25  1  0
 25 26  2  0
 25 29  1  0
 26 27  1  0
 27 28  1  0
 29 28  2  0
 30 23  1  0
 30 31  1  0
 32 30  2  0
M  END
$$$$
