HRH.pdb
     RDKit          3D

 32 33  0  0  1  0  0  0  0  0999 V2000
    8.2636  -13.4446   18.4596 N   0  0  0  0  0  0  0  0  0  0  0  0
    9.0586  -14.1944   19.3894 C   0  0  1  0  0  0  0  0  0  0  0  0
   10.2286  -13.3634   19.8390 C   0  0  0  0  0  0  0  0  0  0  0  0
   11.4912  -14.0616   19.5067 C   0  0  0  0  0  0  0  0  0  0  0  0
   12.1688  -14.0028   18.3136 C   0  0  0  0  0  0  0  0  0  0  0  0
   13.2664  -14.7907   18.4363 N   0  0  0  0  0  0  0  0  0  0  0  0
   13.2782  -15.3262   19.6645 C   0  0  0  0  0  0  0  0  0  0  0  0
   12.1926  -14.8875   20.3355 N   0  0  0  0  0  0  0  0  0  0  0  0
    8.2639  -14.6754   20.5467 C   0  0  0  0  0  0  0  0  0  0  0  0
    7.5858  -13.8699   21.1972 O   0  0  0  0  0  0  0  0  0  0  0  0
    7.8080  -21.4406   25.6305 N   0  0  0  0  0  0  0  0  0  0  0  0
    6.5915  -21.6666   24.9406 C   0  0  0  0  0  0  0  0  0  0  0  0
    5.9586  -22.8126   25.0141 N   0  0  0  0  0  0  0  0  0  0  0  0
    5.9700  -20.6734   24.1230 N   0  0  0  0  0  0  0  0  0  0  0  0
    6.5885  -20.1150   22.9397 C   0  0  0  0  0  0  0  0  0  0  0  0
    6.8434  -18.6455   23.0586 C   0  0  0  0  0  0  0  0  0  0  0  0
    7.4121  -18.0763   21.8032 C   0  0  0  0  0  0  0  0  0  0  0  0
    7.6271  -16.5928   21.9803 C   0  0  2  0  0  0  0  0  0  0  0  0
    8.3185  -16.0454   20.8569 N   0  0  0  0  0  0  0  0  0  0  0  0
    8.4955  -16.3824   23.1994 C   0  0  0  0  0  0  0  0  0  0  0  0
    9.7366  -16.5392   23.0796 O   0  0  0  0  0  0  0  0  0  0  0  0
    5.0777  -22.8956   24.4653 N   0  0  0  0  0  0  0  0  0  0  0  0
    7.8896  -16.0235   24.4100 C   0  0  2  0  0  0  0  0  0  0  0  0
    8.7219  -15.8536   25.6041 C   0  0  0  0  0  0  0  0  0  0  0  0
    8.1714  -14.7299   26.4308 C   0  0  0  0  0  0  0  0  0  0  0  0
    9.0002  -14.5114   27.6341 C   0  0  0  0  0  0  0  0  0  0  0  0
   10.3102  -14.0307   27.6207 N   0  0  0  0  0  0  0  0  0  0  0  0
   10.7545  -13.9537   28.8756 C   0  0  0  0  0  0  0  0  0  0  0  0
    9.7897  -14.3640   29.7050 N   0  0  0  0  0  0  0  0  0  0  0  0
    8.7429  -14.6949   28.9353 C   0  0  0  0  0  0  0  0  0  0  0  0
    8.7600  -17.1603   26.3395 O   0  0  0  0  0  0  0  0  0  0  0  0
    9.9169  -17.4162   27.0936 O   0  0  0  0  0  0  0  0  0  0  0  0
  2  1  1  6
  2  3  1  0
  4  3  1  0
  5  4  2  0
  6  5  1  0
  7  6  1  0
  7  8  2  0
  8  4  1  0
  9  2  1  0
  9 10  2  0
 12 11  1  0
 13 12  2  0
 14 12  1  0
 15 14  1  0
 16 17  1  0
 16 15  1  0
 18 19  1  0
 18 17  1  6
 19  9  1  0
 20 18  1  0
 21 20  2  0
 22 20  1  0
 23 22  1  0
 23 24  1  1
 24 25  1  0
 25 26  2  0
 25 29  1  0
 26 27  1  0
 27 28  1  0
 29 28  2  0
 30 23  1  0
 30 31  1  0
 32 30  2  0
M  END
$$$$
