HRH.pdb
     RDKit          3D

 32 33  0  0  1  0  0  0  0  0999 V2000
   15.5763  -15.3989   12.7028 N   0  0  0  0  0  0  0  0  0  0  0  0
   16.1934  -16.1485   13.7592 C   0  0  1  0  0  0  0  0  0  0  0  0
   17.5697  -15.6050   14.0272 C   0  0  0  0  0  0  0  0  0  0  0  0
   18.4607  -15.9242   12.8886 C   0  0  0  0  0  0  0  0  0  0  0  0
   18.2844  -16.9284   11.9686 C   0  0  0  0  0  0  0  0  0  0  0  0
   19.3292  -16.8696   11.1052 N   0  0  0  0  0  0  0  0  0  0  0  0
   20.1346  -15.8628   11.4701 C   0  0  0  0  0  0  0  0  0  0  0  0
   19.6141  -15.2712   12.5658 N   0  0  0  0  0  0  0  0  0  0  0  0
   15.3699  -16.1606   14.9936 C   0  0  0  0  0  0  0  0  0  0  0  0
   14.8214  -15.1170   15.3705 O   0  0  0  0  0  0  0  0  0  0  0  0
    9.9846  -20.6273   15.1986 N   0  0  0  0  0  0  0  0  0  0  0  0
   10.6183  -20.3837   13.9552 C   0  0  0  0  0  0  0  0  0  0  0  0
    9.9497  -20.3867   12.8272 N   0  0  0  0  0  0  0  0  0  0  0  0
   12.0173  -20.1187   13.8389 N   0  0  0  0  0  0  0  0  0  0  0  0
   12.9227  -20.1103   14.9680 C   0  0  0  0  0  0  0  0  0  0  0  0
   12.7318  -18.9200   15.8540 C   0  0  0  0  0  0  0  0  0  0  0  0
   13.7740  -18.8455   16.9177 C   0  0  0  0  0  0  0  0  0  0  0  0
   14.4455  -17.4947   16.8652 C   0  0  2  0  0  0  0  0  0  0  0  0
   15.2485  -17.3755   15.6902 N   0  0  0  0  0  0  0  0  0  0  0  0
   15.3626  -17.3749   18.0607 C   0  0  0  0  0  0  0  0  0  0  0  0
   16.3011  -18.2027   18.1754 O   0  0  0  0  0  0  0  0  0  0  0  0
   10.5033  -20.2512   11.9559 N   0  0  0  0  0  0  0  0  0  0  0  0
   15.1343  -16.3533   18.9911 C   0  0  2  0  0  0  0  0  0  0  0  0
   14.7262  -16.7047   20.3540 C   0  0  0  0  0  0  0  0  0  0  0  0
   13.5393  -17.6193   20.2911 C   0  0  0  0  0  0  0  0  0  0  0  0
   13.0357  -17.9163   21.6477 C   0  0  0  0  0  0  0  0  0  0  0  0
   13.5117  -17.3264   22.8195 N   0  0  0  0  0  0  0  0  0  0  0  0
   12.8353  -17.8203   23.8570 C   0  0  0  0  0  0  0  0  0  0  0  0
   11.9396  -18.7067   23.4106 N   0  0  0  0  0  0  0  0  0  0  0  0
   12.0784  -18.7481   22.0776 C   0  0  0  0  0  0  0  0  0  0  0  0
   15.9035  -17.3168   21.0533 O   0  0  0  0  0  0  0  0  0  0  0  0
   16.7152  -18.1629   20.2800 O   0  0  0  0  0  0  0  0  0  0  0  0
  2  1  1  6
  2  3  1  0
  4  3  1  0
  5  4  2  0
  6  5  1  0
  7  6  1  0
  7  8  2  0
  8  4  1  0
  9  2  1  0
  9 10  2  0
 12 11  1  0
 13 12  2  0
 14 12  1  0
 15 14  1  0
 16 17  1  0
 16 15  1  0
 18 19  1  0
 18 17  1  6
 19  9  1  0
 20 18  1  0
 21 20  2  0
 22 20  1  0
 23 22  1  0
 23 24  1  6
 24 25  1  0
 25 26  2  0
 25 29  1  0
 26 27  1  0
 27 28  1  0
 29 28  2  0
 30 23  1  0
 30 31  1  0
 32 30  2  0
M  END
$$$$
