HRH.pdb
     RDKit          3D

 32 33  0  0  1  0  0  0  0  0999 V2000
   12.4106  -15.7215   13.1766 N   0  0  0  0  0  0  0  0  0  0  0  0
   12.2370  -16.3917   14.4333 C   0  0  1  0  0  0  0  0  0  0  0  0
   12.8883  -17.7461   14.3778 C   0  0  0  0  0  0  0  0  0  0  0  0
   12.1305  -18.6249   13.4584 C   0  0  0  0  0  0  0  0  0  0  0  0
   12.3933  -18.8368   12.1272 C   0  0  0  0  0  0  0  0  0  0  0  0
   11.4580  -19.7050   11.6667 N   0  0  0  0  0  0  0  0  0  0  0  0
   10.6354  -20.0276   12.6741 C   0  0  0  0  0  0  0  0  0  0  0  0
   11.0357  -19.3712   13.7832 N   0  0  0  0  0  0  0  0  0  0  0  0
   12.7541  -15.5923   15.5716 C   0  0  0  0  0  0  0  0  0  0  0  0
   13.8513  -15.0284   15.4715 O   0  0  0  0  0  0  0  0  0  0  0  0
    6.9584  -13.1101   16.7022 N   0  0  0  0  0  0  0  0  0  0  0  0
    7.4984  -14.4197   16.7209 C   0  0  0  0  0  0  0  0  0  0  0  0
    7.2634  -15.2774   15.7573 N   0  0  0  0  0  0  0  0  0  0  0  0
    8.3309  -14.8980   17.7789 N   0  0  0  0  0  0  0  0  0  0  0  0
    8.8721  -14.0440   18.8144 C   0  0  0  0  0  0  0  0  0  0  0  0
   10.2827  -13.6265   18.5418 C   0  0  0  0  0  0  0  0  0  0  0  0
   11.2579  -14.6978   18.8947 C   0  0  0  0  0  0  0  0  0  0  0  0
   12.3571  -14.7327   17.8608 C   0  0  2  0  0  0  0  0  0  0  0  0
   11.9622  -15.5106   16.7301 N   0  0  0  0  0  0  0  0  0  0  0  0
   13.5653  -15.4005   18.4766 C   0  0  0  0  0  0  0  0  0  0  0  0
   13.6210  -16.6559   18.4652 O   0  0  0  0  0  0  0  0  0  0  0  0
    7.7405  -16.2001   15.8268 N   0  0  0  0  0  0  0  0  0  0  0  0
   14.5714  -14.6016   19.0343 C   0  0  1  0  0  0  0  0  0  0  0  0
   15.7871  -15.2374   19.5492 C   0  0  0  0  0  0  0  0  0  0  0  0
   16.9435  -14.2981   19.3771 C   0  0  0  0  0  0  0  0  0  0  0  0
   18.2003  -14.9274   19.8316 C   0  0  0  0  0  0  0  0  0  0  0  0
   18.3007  -15.8258   20.8948 N   0  0  0  0  0  0  0  0  0  0  0  0
   19.5745  -16.1965   21.0278 C   0  0  0  0  0  0  0  0  0  0  0  0
   20.3076  -15.5777   20.0968 N   0  0  0  0  0  0  0  0  0  0  0  0
   19.4592  -14.8187   19.3883 C   0  0  0  0  0  0  0  0  0  0  0  0
   15.5474  -15.6186   20.9799 O   0  0  0  0  0  0  0  0  0  0  0  0
   16.2876  -16.7090   21.4655 O   0  0  0  0  0  0  0  0  0  0  0  0
  2  1  1  6
  2  3  1  0
  4  3  1  0
  5  4  2  0
  6  5  1  0
  7  6  1  0
  7  8  2  0
  8  4  1  0
  9  2  1  0
  9 10  2  0
 12 11  1  0
 13 12  2  0
 14 12  1  0
 15 14  1  0
 16 17  1  0
 16 15  1  0
 18 19  1  0
 18 17  1  1
 19  9  1  0
 20 18  1  0
 21 20  2  0
 22 20  1  0
 23 22  1  0
 23 24  1  1
 24 25  1  0
 25 26  2  0
 25 29  1  0
 26 27  1  0
 27 28  1  0
 29 28  2  0
 30 23  1  0
 30 31  1  0
 32 30  2  0
M  END
$$$$
