HRH.pdb
     RDKit          3D

 32 33  0  0  1  0  0  0  0  0999 V2000
    9.8504  -15.0052   20.2438 N   0  0  0  0  0  0  0  0  0  0  0  0
    8.7422  -14.6568   21.0859 C   0  0  1  0  0  0  0  0  0  0  0  0
    7.4534  -14.8877   20.3463 C   0  0  0  0  0  0  0  0  0  0  0  0
    7.4939  -14.1828   19.0449 C   0  0  0  0  0  0  0  0  0  0  0  0
    7.5315  -12.8236   18.8517 C   0  0  0  0  0  0  0  0  0  0  0  0
    7.5562  -12.6092   17.5123 N   0  0  0  0  0  0  0  0  0  0  0  0
    7.5350  -13.7932   16.8852 C   0  0  0  0  0  0  0  0  0  0  0  0
    7.4965  -14.7713   17.8142 N   0  0  0  0  0  0  0  0  0  0  0  0
    8.7629  -15.3938   22.3738 C   0  0  0  0  0  0  0  0  0  0  0  0
    7.7628  -15.3750   23.1028 O   0  0  0  0  0  0  0  0  0  0  0  0
   10.8938  -22.3125   20.3974 N   0  0  0  0  0  0  0  0  0  0  0  0
   12.0322  -21.6676   20.9406 C   0  0  0  0  0  0  0  0  0  0  0  0
   13.1854  -21.6608   20.3165 N   0  0  0  0  0  0  0  0  0  0  0  0
   12.0088  -20.9833   22.1945 N   0  0  0  0  0  0  0  0  0  0  0  0
   12.3082  -19.5748   22.3387 C   0  0  0  0  0  0  0  0  0  0  0  0
   11.0834  -18.7412   22.5470 C   0  0  0  0  0  0  0  0  0  0  0  0
   11.2025  -17.8685   23.7502 C   0  0  0  0  0  0  0  0  0  0  0  0
    9.9928  -16.9698   23.8369 C   0  0  2  0  0  0  0  0  0  0  0  0
    9.9359  -16.0903   22.7131 N   0  0  0  0  0  0  0  0  0  0  0  0
   10.1237  -16.1182   25.0787 C   0  0  0  0  0  0  0  0  0  0  0  0
   10.9123  -15.1404   25.0487 O   0  0  0  0  0  0  0  0  0  0  0  0
   13.9476  -21.0993   20.7498 N   0  0  0  0  0  0  0  0  0  0  0  0
    9.3670  -16.4480   26.2102 C   0  0  1  0  0  0  0  0  0  0  0  0
    9.4641  -15.6068   27.4062 C   0  0  0  0  0  0  0  0  0  0  0  0
    8.0856  -15.1976   27.8323 C   0  0  0  0  0  0  0  0  0  0  0  0
    7.4628  -14.3231   26.8177 C   0  0  0  0  0  0  0  0  0  0  0  0
    7.5627  -12.9313   26.7983 N   0  0  0  0  0  0  0  0  0  0  0  0
    6.8859  -12.4646   25.7485 C   0  0  0  0  0  0  0  0  0  0  0  0
    6.3496  -13.4932   25.0839 N   0  0  0  0  0  0  0  0  0  0  0  0
    6.7100  -14.6020   25.7460 C   0  0  0  0  0  0  0  0  0  0  0  0
   10.2017  -16.3755   28.4620 O   0  0  0  0  0  0  0  0  0  0  0  0
   10.5236  -15.6711   29.6337 O   0  0  0  0  0  0  0  0  0  0  0  0
  2  1  1  6
  2  3  1  0
  4  3  1  0
  5  4  2  0
  6  5  1  0
  7  6  1  0
  7  8  2  0
  8  4  1  0
  9  2  1  0
  9 10  2  0
 12 11  1  0
 13 12  2  0
 14 12  1  0
 15 14  1  0
 16 17  1  0
 16 15  1  0
 18 19  1  0
 18 17  1  6
 19  9  1  0
 20 18  1  0
 21 20  2  0
 22 20  1  0
 23 22  1  0
 23 24  1  6
 24 25  1  0
 25 26  2  0
 25 29  1  0
 26 27  1  0
 27 28  1  0
 29 28  2  0
 30 23  1  0
 30 31  1  0
 32 30  2  0
M  END
$$$$
