HRH.pdb
     RDKit          3D

 32 33  0  0  1  0  0  0  0  0999 V2000
    7.3093  -16.8472   17.1884 N   0  0  0  0  0  0  0  0  0  0  0  0
    8.1130  -16.2783   18.2320 C   0  0  1  0  0  0  0  0  0  0  0  0
    8.1621  -14.7836   18.0741 C   0  0  0  0  0  0  0  0  0  0  0  0
    8.6749  -14.4425   16.7277 C   0  0  0  0  0  0  0  0  0  0  0  0
    8.0457  -13.6668   15.7852 C   0  0  0  0  0  0  0  0  0  0  0  0
    8.8590  -13.6145   14.7006 N   0  0  0  0  0  0  0  0  0  0  0  0
    9.9616  -14.3328   14.9529 C   0  0  0  0  0  0  0  0  0  0  0  0
    9.8636  -14.8488   16.1960 N   0  0  0  0  0  0  0  0  0  0  0  0
    7.6319  -16.6612   19.5826 C   0  0  0  0  0  0  0  0  0  0  0  0
    6.4191  -16.6331   19.8281 O   0  0  0  0  0  0  0  0  0  0  0  0
    9.3706  -19.4997   27.7642 N   0  0  0  0  0  0  0  0  0  0  0  0
   10.0596  -19.9360   26.6058 C   0  0  0  0  0  0  0  0  0  0  0  0
   11.3583  -19.8022   26.4835 N   0  0  0  0  0  0  0  0  0  0  0  0
    9.3984  -20.5483   25.4972 N   0  0  0  0  0  0  0  0  0  0  0  0
    9.6557  -20.1889   24.1191 C   0  0  0  0  0  0  0  0  0  0  0  0
    8.7682  -19.0870   23.6330 C   0  0  0  0  0  0  0  0  0  0  0  0
    9.0785  -18.7024   22.2262 C   0  0  0  0  0  0  0  0  0  0  0  0
    8.2179  -17.5280   21.8281 C   0  0  2  0  0  0  0  0  0  0  0  0
    8.5902  -17.0440   20.5371 N   0  0  0  0  0  0  0  0  0  0  0  0
    8.4513  -16.4120   22.8204 C   0  0  0  0  0  0  0  0  0  0  0  0
    9.6074  -15.9275   22.9092 O   0  0  0  0  0  0  0  0  0  0  0  0
   11.7768  -20.1123   25.5821 N   0  0  0  0  0  0  0  0  0  0  0  0
    7.3783  -15.9620   23.6000 C   0  0  2  0  0  0  0  0  0  0  0  0
    7.6025  -14.8934   24.5774 C   0  0  0  0  0  0  0  0  0  0  0  0
    6.2783  -14.3408   25.0135 C   0  0  0  0  0  0  0  0  0  0  0  0
    6.4619  -13.2815   26.0267 C   0  0  0  0  0  0  0  0  0  0  0  0
    7.6983  -12.8351   26.4952 N   0  0  0  0  0  0  0  0  0  0  0  0
    7.4966  -11.8741   27.3973 C   0  0  0  0  0  0  0  0  0  0  0  0
    6.1818  -11.6762   27.5361 N   0  0  0  0  0  0  0  0  0  0  0  0
    5.5786  -12.5347   26.7013 C   0  0  0  0  0  0  0  0  0  0  0  0
    8.4068  -15.4560   25.7115 O   0  0  0  0  0  0  0  0  0  0  0  0
    9.5142  -14.6975   26.1250 O   0  0  0  0  0  0  0  0  0  0  0  0
  2  1  1  6
  2  3  1  0
  4  3  1  0
  5  4  2  0
  6  5  1  0
  7  6  1  0
  7  8  2  0
  8  4  1  0
  9  2  1  0
  9 10  2  0
 12 11  1  0
 13 12  2  0
 14 12  1  0
 15 14  1  0
 16 17  1  0
 16 15  1  0
 18 19  1  0
 18 17  1  1
 19  9  1  0
 20 18  1  0
 21 20  2  0
 22 20  1  0
 23 22  1  0
 23 24  1  1
 24 25  1  0
 25 26  2  0
 25 29  1  0
 26 27  1  0
 27 28  1  0
 29 28  2  0
 30 23  1  0
 30 31  1  0
 32 30  2  0
M  END
$$$$
