HRH.pdb
     RDKit          3D

 32 33  0  0  1  0  0  0  0  0999 V2000
    9.8002  -15.7307   18.0167 N   0  0  0  0  0  0  0  0  0  0  0  0
   10.7508  -14.7979   18.5503 C   0  0  1  0  0  0  0  0  0  0  0  0
   10.2007  -14.1780   19.8051 C   0  0  0  0  0  0  0  0  0  0  0  0
    8.8559  -13.6202   19.5358 C   0  0  0  0  0  0  0  0  0  0  0  0
    8.5744  -12.4162   18.9382 C   0  0  0  0  0  0  0  0  0  0  0  0
    7.2238  -12.2972   18.8919 N   0  0  0  0  0  0  0  0  0  0  0  0
    6.6752  -13.3891   19.4417 C   0  0  0  0  0  0  0  0  0  0  0  0
    7.6661  -14.2128   19.8428 N   0  0  0  0  0  0  0  0  0  0  0  0
   12.0742  -15.4233   18.7946 C   0  0  0  0  0  0  0  0  0  0  0  0
   12.1446  -16.4537   19.4767 O   0  0  0  0  0  0  0  0  0  0  0  0
   13.5801  -15.6390   13.6851 N   0  0  0  0  0  0  0  0  0  0  0  0
   14.8291  -16.0427   13.1522 C   0  0  0  0  0  0  0  0  0  0  0  0
   14.9187  -16.6815   12.0106 N   0  0  0  0  0  0  0  0  0  0  0  0
   16.0705  -15.7861   13.8112 N   0  0  0  0  0  0  0  0  0  0  0  0
   16.1792  -15.0202   15.0343 C   0  0  0  0  0  0  0  0  0  0  0  0
   15.3489  -15.5822   16.1448 C   0  0  0  0  0  0  0  0  0  0  0  0
   15.4724  -14.7773   17.3939 C   0  0  0  0  0  0  0  0  0  0  0  0
   14.5229  -15.3207   18.4339 C   0  0  2  0  0  0  0  0  0  0  0  0
   13.2056  -14.8074   18.2320 N   0  0  0  0  0  0  0  0  0  0  0  0
   14.9924  -14.8550   19.7931 C   0  0  0  0  0  0  0  0  0  0  0  0
   15.0379  -13.6190   20.0151 O   0  0  0  0  0  0  0  0  0  0  0  0
   15.8777  -16.9200   11.6830 N   0  0  0  0  0  0  0  0  0  0  0  0
   15.3579  -15.8113   20.7488 C   0  0  2  0  0  0  0  0  0  0  0  0
   15.8646  -15.3657   22.0497 C   0  0  0  0  0  0  0  0  0  0  0  0
   15.5516  -16.4076   23.0819 C   0  0  0  0  0  0  0  0  0  0  0  0
   14.0949  -16.4947   23.3118 C   0  0  0  0  0  0  0  0  0  0  0  0
   13.1623  -15.5568   22.8669 N   0  0  0  0  0  0  0  0  0  0  0  0
   11.9444  -15.9465   23.2447 C   0  0  0  0  0  0  0  0  0  0  0  0
   12.0446  -17.0979   23.9168 N   0  0  0  0  0  0  0  0  0  0  0  0
   13.3485  -17.4086   23.9447 C   0  0  0  0  0  0  0  0  0  0  0  0
   17.3338  -15.0959   21.9136 O   0  0  0  0  0  0  0  0  0  0  0  0
   17.9958  -14.6586   23.0725 O   0  0  0  0  0  0  0  0  0  0  0  0
  2  1  1  1
  2  3  1  0
  4  3  1  0
  5  4  2  0
  6  5  1  0
  7  6  1  0
  7  8  2  0
  8  4  1  0
  9  2  1  0
  9 10  2  0
 12 11  1  0
 13 12  2  0
 14 12  1  0
 15 14  1  0
 16 17  1  0
 16 15  1  0
 18 19  1  0
 18 17  1  6
 19  9  1  0
 20 18  1  0
 21 20  2  0
 22 20  1  0
 23 22  1  0
 23 24  1  6
 24 25  1  0
 25 26  2  0
 25 29  1  0
 26 27  1  0
 27 28  1  0
 29 28  2  0
 30 23  1  0
 30 31  1  0
 32 30  2  0
M  END
$$$$
