HRH.pdb
     RDKit          3D

 32 33  0  0  1  0  0  0  0  0999 V2000
   11.8062  -19.6814   14.5948 N   0  0  0  0  0  0  0  0  0  0  0  0
   11.0324  -20.1957   15.6882 C   0  0  1  0  0  0  0  0  0  0  0  0
   11.5008  -21.5832   16.0300 C   0  0  0  0  0  0  0  0  0  0  0  0
   11.1401  -22.5133   14.9360 C   0  0  0  0  0  0  0  0  0  0  0  0
    9.9992  -23.2729   14.8511 C   0  0  0  0  0  0  0  0  0  0  0  0
   10.0729  -23.9799   13.6955 N   0  0  0  0  0  0  0  0  0  0  0  0
   11.2209  -23.6749   13.0754 C   0  0  0  0  0  0  0  0  0  0  0  0
   11.8888  -22.7739   13.8259 N   0  0  0  0  0  0  0  0  0  0  0  0
   11.0768  -19.3053   16.8745 C   0  0  0  0  0  0  0  0  0  0  0  0
   12.1589  -18.8257   17.2364 O   0  0  0  0  0  0  0  0  0  0  0  0
    6.7335  -12.6488   19.4039 N   0  0  0  0  0  0  0  0  0  0  0  0
    7.5501  -13.0734   20.4809 C   0  0  0  0  0  0  0  0  0  0  0  0
    7.9952  -12.2324   21.3832 N   0  0  0  0  0  0  0  0  0  0  0  0
    7.9445  -14.4344   20.6627 N   0  0  0  0  0  0  0  0  0  0  0  0
    7.9319  -15.4160   19.5993 C   0  0  0  0  0  0  0  0  0  0  0  0
    8.3432  -16.7775   20.0634 C   0  0  0  0  0  0  0  0  0  0  0  0
    8.3719  -17.7618   18.9438 C   0  0  0  0  0  0  0  0  0  0  0  0
    9.8019  -18.1509   18.6575 C   0  0  2  0  0  0  0  0  0  0  0  0
    9.8691  -19.0431   17.5444 N   0  0  0  0  0  0  0  0  0  0  0  0
   10.3442  -18.8823   19.8640 C   0  0  0  0  0  0  0  0  0  0  0  0
   10.3170  -20.1386   19.8595 O   0  0  0  0  0  0  0  0  0  0  0  0
    8.6664  -12.6108   22.0833 N   0  0  0  0  0  0  0  0  0  0  0  0
   10.8532  -18.1384   20.9360 C   0  0  2  0  0  0  0  0  0  0  0  0
   12.0797  -18.5877   21.6004 C   0  0  0  0  0  0  0  0  0  0  0  0
   13.1882  -18.6542   20.5926 C   0  0  0  0  0  0  0  0  0  0  0  0
   14.4113  -19.2205   21.1974 C   0  0  0  0  0  0  0  0  0  0  0  0
   14.4265  -20.1898   22.2012 N   0  0  0  0  0  0  0  0  0  0  0  0
   15.6927  -20.4725   22.5090 C   0  0  0  0  0  0  0  0  0  0  0  0
   16.5022  -19.7284   21.7486 N   0  0  0  0  0  0  0  0  0  0  0  0
   15.7086  -18.9823   20.9668 C   0  0  0  0  0  0  0  0  0  0  0  0
   12.3707  -17.6485   22.7331 O   0  0  0  0  0  0  0  0  0  0  0  0
   13.4458  -17.9950   23.5678 O   0  0  0  0  0  0  0  0  0  0  0  0
  2  1  1  6
  2  3  1  0
  4  3  1  0
  5  4  2  0
  6  5  1  0
  7  6  1  0
  7  8  2  0
  8  4  1  0
  9  2  1  0
  9 10  2  0
 12 11  1  0
 13 12  2  0
 14 12  1  0
 15 14  1  0
 16 17  1  0
 16 15  1  0
 18 19  1  0
 18 17  1  1
 19  9  1  0
 20 18  1  0
 21 20  2  0
 22 20  1  0
 23 22  1  0
 23 24  1  6
 24 25  1  0
 25 26  2  0
 25 29  1  0
 26 27  1  0
 27 28  1  0
 29 28  2  0
 30 23  1  0
 30 31  1  0
 32 30  2  0
M  END
$$$$
