HRH.pdb
     RDKit          3D

 32 33  0  0  1  0  0  0  0  0999 V2000
    8.2945  -16.3853   19.2361 N   0  0  0  0  0  0  0  0  0  0  0  0
    8.6278  -15.5050   20.3190 C   0  0  1  0  0  0  0  0  0  0  0  0
    7.9942  -14.1605   20.0906 C   0  0  0  0  0  0  0  0  0  0  0  0
    7.8995  -13.8961   18.6369 C   0  0  0  0  0  0  0  0  0  0  0  0
    7.3786  -12.7732   18.0420 C   0  0  0  0  0  0  0  0  0  0  0  0
    7.4840  -12.9444   16.7003 N   0  0  0  0  0  0  0  0  0  0  0  0
    8.0518  -14.1341   16.4602 C   0  0  0  0  0  0  0  0  0  0  0  0
    8.3134  -14.7320   17.6415 N   0  0  0  0  0  0  0  0  0  0  0  0
    8.2400  -16.0656   21.6372 C   0  0  0  0  0  0  0  0  0  0  0  0
    7.0589  -16.3708   21.8460 O   0  0  0  0  0  0  0  0  0  0  0  0
   14.0675  -21.3896   22.3390 N   0  0  0  0  0  0  0  0  0  0  0  0
   14.2760  -20.0281   22.0075 C   0  0  0  0  0  0  0  0  0  0  0  0
   15.4095  -19.6066   21.5007 N   0  0  0  0  0  0  0  0  0  0  0  0
   13.2775  -19.0241   22.1976 N   0  0  0  0  0  0  0  0  0  0  0  0
   11.9823  -19.2905   22.7859 C   0  0  0  0  0  0  0  0  0  0  0  0
   11.1679  -18.0503   22.9783 C   0  0  0  0  0  0  0  0  0  0  0  0
    9.8468  -18.3439   23.6041 C   0  0  0  0  0  0  0  0  0  0  0  0
    9.0671  -17.0597   23.7502 C   0  0  2  0  0  0  0  0  0  0  0  0
    9.2474  -16.2266   22.6044 N   0  0  0  0  0  0  0  0  0  0  0  0
    9.6054  -16.3127   24.9488 C   0  0  0  0  0  0  0  0  0  0  0  0
   10.6819  -15.6774   24.8192 O   0  0  0  0  0  0  0  0  0  0  0  0
   15.4876  -18.5848   21.3170 N   0  0  0  0  0  0  0  0  0  0  0  0
    8.8903  -16.3558   26.1523 C   0  0  1  0  0  0  0  0  0  0  0  0
    9.4230  -15.6596   27.3267 C   0  0  0  0  0  0  0  0  0  0  0  0
    8.3320  -14.8399   27.9487 C   0  0  0  0  0  0  0  0  0  0  0  0
    8.0010  -13.6785   27.0979 C   0  0  0  0  0  0  0  0  0  0  0  0
    8.6511  -13.3547   25.9063 N   0  0  0  0  0  0  0  0  0  0  0  0
    8.0989  -12.2520   25.3992 C   0  0  0  0  0  0  0  0  0  0  0  0
    7.1173  -11.8442   26.2099 N   0  0  0  0  0  0  0  0  0  0  0  0
    7.0767  -12.7181   27.2260 C   0  0  0  0  0  0  0  0  0  0  0  0
    9.9934  -16.6848   28.2612 O   0  0  0  0  0  0  0  0  0  0  0  0
   10.8715  -16.2070   29.2477 O   0  0  0  0  0  0  0  0  0  0  0  0
  2  1  1  6
  2  3  1  0
  4  3  1  0
  5  4  2  0
  6  5  1  0
  7  6  1  0
  7  8  2  0
  8  4  1  0
  9  2  1  0
  9 10  2  0
 12 11  1  0
 13 12  2  0
 14 12  1  0
 15 14  1  0
 16 17  1  0
 16 15  1  0
 18 19  1  0
 18 17  1  6
 19  9  1  0
 20 18  1  0
 21 20  2  0
 22 20  1  0
 23 22  1  0
 23 24  1  1
 24 25  1  0
 25 26  2  0
 25 29  1  0
 26 27  1  0
 27 28  1  0
 29 28  2  0
 30 23  1  0
 30 31  1  0
 32 30  2  0
M  END
$$$$
