QRG.pdb
     RDKit          3D

 25 24  0  0  1  0  0  0  0  0999 V2000
   21.9097  -38.5351   -0.7597 N   0  0  0  0  0  0  0  0  0  0  0  0
   21.0223  -37.4281   -0.6942 C   0  0  0  0  0  0  0  0  0  0  0  0
   19.8264  -37.6508   -0.9852 O   0  0  0  0  0  0  0  0  0  0  0  0
   21.4717  -36.0999   -0.3129 C   0  0  0  0  0  0  0  0  0  0  0  0
   21.3294  -34.9970   -1.2821 C   0  0  0  0  0  0  0  0  0  0  0  0
   22.5284  -34.6025   -2.0687 C   0  0  2  0  0  0  0  0  0  0  0  0
   23.5882  -33.9776   -1.3560 N   0  0  0  0  0  0  0  0  0  0  0  0
   22.1647  -33.7433   -3.2268 C   0  0  0  0  0  0  0  0  0  0  0  0
   22.3515  -32.5063   -3.0863 O   0  0  0  0  0  0  0  0  0  0  0  0
   26.1081  -33.5087   -7.2711 N   0  0  0  0  0  0  0  0  0  0  0  0
   25.9862  -33.0163   -8.6069 C   0  0  0  0  0  0  0  0  0  0  0  0
   27.0050  -32.4706   -9.1790 N   0  0  0  0  0  0  0  0  0  0  0  0
   24.7391  -33.1433   -9.2621 N   0  0  0  0  0  0  0  0  0  0  0  0
   23.6667  -33.9496   -8.6966 C   0  0  0  0  0  0  0  0  0  0  0  0
   23.0902  -33.2509   -7.4846 C   0  0  0  0  0  0  0  0  0  0  0  0
   22.0015  -34.0558   -6.8408 C   0  0  0  0  0  0  0  0  0  0  0  0
   21.3998  -33.4267   -5.6191 C   0  0  2  0  0  0  0  0  0  0  0  0
   21.6429  -34.2398   -4.4163 N   0  0  0  0  0  0  0  0  0  0  0  0
   19.9043  -33.3174   -5.7581 C   0  0  0  0  0  0  0  0  0  0  0  0
   19.1531  -34.3059   -5.5594 O   0  0  0  0  0  0  0  0  0  0  0  0
   26.9508  -32.1683  -10.1694 N   0  0  0  0  0  0  0  0  0  0  0  0
   19.2710  -32.0997   -6.1189 C   0  0  0  0  0  0  0  0  0  0  0  0
   17.8459  -31.9734   -6.2718 C   0  0  0  0  0  0  0  0  0  0  0  0
   17.3211  -32.7416   -7.4193 O   0  0  0  0  0  0  0  0  0  0  0  0
   15.9410  -32.6905   -7.6267 O   0  0  0  0  0  0  0  0  0  0  0  0
  2  1  1  0
  2  4  1  0
  3  2  2  0
  5  4  1  0
  5  6  1  0
  6  8  1  0
  6  7  1  1
  8  9  2  0
 10 11  1  0
 11 13  1  0
 11 12  2  0
 13 14  1  0
 14 15  1  0
 17 16  1  6
 16 15  1  0
 18 17  1  0
 18  8  1  0
 19 20  2  0
 19 17  1  0
 21 19  1  0
 22 21  1  0
 23 24  1  0
 23 22  1  0
 25 23  2  0
M  END
$$$$
