QRG.pdb
     RDKit          3D

 25 24  0  0  1  0  0  0  0  0999 V2000
   26.6723  -23.3370  -17.4520 N   0  0  0  0  0  0  0  0  0  0  0  0
   27.4867  -22.8272  -16.4060 C   0  0  0  0  0  0  0  0  0  0  0  0
   28.7055  -23.1033  -16.4596 O   0  0  0  0  0  0  0  0  0  0  0  0
   26.9409  -22.0275  -15.3225 C   0  0  0  0  0  0  0  0  0  0  0  0
   25.4871  -21.7806  -15.2853 C   0  0  0  0  0  0  0  0  0  0  0  0
   24.6520  -22.6676  -14.4320 C   0  0  2  0  0  0  0  0  0  0  0  0
   24.7113  -24.0621  -14.7023 N   0  0  0  0  0  0  0  0  0  0  0  0
   23.2263  -22.2445  -14.4338 C   0  0  0  0  0  0  0  0  0  0  0  0
   22.5406  -22.5929  -15.4304 O   0  0  0  0  0  0  0  0  0  0  0  0
   18.4096  -25.1723   -8.7890 N   0  0  0  0  0  0  0  0  0  0  0  0
   18.6041  -25.8196  -10.0480 C   0  0  0  0  0  0  0  0  0  0  0  0
   18.1994  -27.0335  -10.2081 N   0  0  0  0  0  0  0  0  0  0  0  0
   19.2424  -25.1006  -11.0853 N   0  0  0  0  0  0  0  0  0  0  0  0
   19.5412  -23.6821  -10.9491 C   0  0  0  0  0  0  0  0  0  0  0  0
   20.2693  -23.1951  -12.1829 C   0  0  0  0  0  0  0  0  0  0  0  0
   20.5711  -21.7284  -12.1112 C   0  0  0  0  0  0  0  0  0  0  0  0
   21.2142  -21.1628  -13.3428 C   0  0  2  0  0  0  0  0  0  0  0  0
   22.6448  -21.5031  -13.4110 N   0  0  0  0  0  0  0  0  0  0  0  0
   21.1389  -19.6589  -13.3402 C   0  0  0  0  0  0  0  0  0  0  0  0
   21.8535  -18.9678  -12.5704 O   0  0  0  0  0  0  0  0  0  0  0  0
   18.3238  -27.5119  -11.1196 N   0  0  0  0  0  0  0  0  0  0  0  0
   20.2619  -18.9497  -14.2015 C   0  0  0  0  0  0  0  0  0  0  0  0
   20.1814  -17.5134  -14.2273 C   0  0  0  0  0  0  0  0  0  0  0  0
   19.1121  -17.0140  -15.1158 O   0  0  0  0  0  0  0  0  0  0  0  0
   17.8648  -16.7910  -14.5284 O   0  0  0  0  0  0  0  0  0  0  0  0
  2  1  1  0
  2  4  1  0
  3  2  2  0
  5  4  1  0
  5  6  1  0
  6  8  1  0
  6  7  1  6
  8  9  2  0
 10 11  1  0
 11 13  1  0
 11 12  2  0
 13 14  1  0
 14 15  1  0
 17 16  1  1
 16 15  1  0
 18 17  1  0
 18  8  1  0
 19 20  2  0
 19 17  1  0
 21 19  1  0
 22 21  1  0
 23 24  1  0
 23 22  1  0
 25 23  2  0
M  END
$$$$
