QRG.pdb
     RDKit          3D

 25 24  0  0  1  0  0  0  0  0999 V2000
   19.1444  -16.8033  -14.5085 N   0  0  0  0  0  0  0  0  0  0  0  0
   18.7526  -18.1463  -14.7536 C   0  0  0  0  0  0  0  0  0  0  0  0
   17.5272  -18.3564  -14.8901 O   0  0  0  0  0  0  0  0  0  0  0  0
   19.7182  -19.2287  -14.8400 C   0  0  0  0  0  0  0  0  0  0  0  0
   21.1523  -18.9134  -14.6989 C   0  0  0  0  0  0  0  0  0  0  0  0
   22.1322  -20.0064  -14.9383 C   0  0  2  0  0  0  0  0  0  0  0  0
   21.8668  -21.2561  -14.3146 N   0  0  0  0  0  0  0  0  0  0  0  0
   23.5157  -19.5869  -14.5897 C   0  0  0  0  0  0  0  0  0  0  0  0
   23.8439  -18.4157  -14.9145 O   0  0  0  0  0  0  0  0  0  0  0  0
   22.3060  -19.5839   -9.9010 N   0  0  0  0  0  0  0  0  0  0  0  0
   22.6960  -20.6932   -9.0891 C   0  0  0  0  0  0  0  0  0  0  0  0
   21.8031  -21.3291   -8.4098 N   0  0  0  0  0  0  0  0  0  0  0  0
   24.0620  -21.0583   -9.0560 N   0  0  0  0  0  0  0  0  0  0  0  0
   25.0641  -20.3056   -9.7971 C   0  0  0  0  0  0  0  0  0  0  0  0
   24.8931  -20.5545  -11.2798 C   0  0  0  0  0  0  0  0  0  0  0  0
   25.9414  -19.8518  -12.0890 C   0  0  0  0  0  0  0  0  0  0  0  0
   25.7950  -20.0117  -13.5733 C   0  0  2  0  0  0  0  0  0  0  0  0
   24.4277  -20.4132  -13.9421 N   0  0  0  0  0  0  0  0  0  0  0  0
   26.7048  -21.0974  -14.0843 C   0  0  0  0  0  0  0  0  0  0  0  0
   26.4342  -22.3135  -13.9150 O   0  0  0  0  0  0  0  0  0  0  0  0
   22.0753  -22.1193   -7.7961 N   0  0  0  0  0  0  0  0  0  0  0  0
   27.9073  -20.8041  -14.7786 C   0  0  0  0  0  0  0  0  0  0  0  0
   28.8081  -21.8225  -15.2495 C   0  0  0  0  0  0  0  0  0  0  0  0
   28.3652  -22.4398  -16.5164 O   0  0  0  0  0  0  0  0  0  0  0  0
   29.2066  -23.4090  -17.0669 O   0  0  0  0  0  0  0  0  0  0  0  0
  2  1  1  0
  2  4  1  0
  3  2  2  0
  5  4  1  0
  5  6  1  0
  6  8  1  0
  6  7  1  1
  8  9  2  0
 10 11  1  0
 11 13  1  0
 11 12  2  0
 13 14  1  0
 14 15  1  0
 17 16  1  1
 16 15  1  0
 18 17  1  0
 18  8  1  0
 19 20  2  0
 19 17  1  0
 21 19  1  0
 22 21  1  0
 23 24  1  0
 23 22  1  0
 25 23  2  0
M  END
$$$$
