QRG.pdb
     RDKit          3D

 25 24  0  0  1  0  0  0  0  0999 V2000
   18.8382  -17.9232  -13.0180 N   0  0  0  0  0  0  0  0  0  0  0  0
   18.4658  -19.0906  -13.7362 C   0  0  0  0  0  0  0  0  0  0  0  0
   17.2475  -19.2329  -13.9810 O   0  0  0  0  0  0  0  0  0  0  0  0
   19.4424  -20.0767  -14.1665 C   0  0  0  0  0  0  0  0  0  0  0  0
   20.8762  -19.7816  -13.9852 C   0  0  0  0  0  0  0  0  0  0  0  0
   21.5953  -19.1106  -15.1010 C   0  0  2  0  0  0  0  0  0  0  0  0
   21.9044  -19.9065  -16.2378 N   0  0  0  0  0  0  0  0  0  0  0  0
   22.8427  -18.4518  -14.6302 C   0  0  0  0  0  0  0  0  0  0  0  0
   22.9037  -18.1818  -13.4021 O   0  0  0  0  0  0  0  0  0  0  0  0
   28.9026  -21.4776  -13.2289 N   0  0  0  0  0  0  0  0  0  0  0  0
   28.2441  -20.9752  -12.0645 C   0  0  0  0  0  0  0  0  0  0  0  0
   28.8189  -21.0783  -10.9146 N   0  0  0  0  0  0  0  0  0  0  0  0
   26.9707  -20.3781  -12.2137 N   0  0  0  0  0  0  0  0  0  0  0  0
   26.4416  -20.0441  -13.5284 C   0  0  0  0  0  0  0  0  0  0  0  0
   26.9960  -18.7090  -13.9753 C   0  0  0  0  0  0  0  0  0  0  0  0
   26.3509  -18.2316  -15.2416 C   0  0  0  0  0  0  0  0  0  0  0  0
   25.1129  -17.4089  -15.0393 C   0  0  2  0  0  0  0  0  0  0  0  0
   23.9056  -18.1335  -15.4686 N   0  0  0  0  0  0  0  0  0  0  0  0
   25.1670  -16.1528  -15.8681 C   0  0  0  0  0  0  0  0  0  0  0  0
   24.7976  -16.1436  -17.0699 O   0  0  0  0  0  0  0  0  0  0  0  0
   28.4115  -20.6147  -10.0813 N   0  0  0  0  0  0  0  0  0  0  0  0
   25.6355  -14.9228  -15.3374 C   0  0  0  0  0  0  0  0  0  0  0  0
   25.7240  -13.7166  -16.1166 C   0  0  0  0  0  0  0  0  0  0  0  0
   26.7643  -13.7840  -17.1632 O   0  0  0  0  0  0  0  0  0  0  0  0
   26.5633  -12.9923  -18.2960 O   0  0  0  0  0  0  0  0  0  0  0  0
  2  1  1  0
  2  4  1  0
  3  2  2  0
  5  4  1  0
  5  6  1  0
  6  8  1  0
  6  7  1  6
  8  9  2  0
 10 11  1  0
 11 13  1  0
 11 12  2  0
 13 14  1  0
 14 15  1  0
 17 16  1  6
 16 15  1  0
 18 17  1  0
 18  8  1  0
 19 20  2  0
 19 17  1  0
 21 19  1  0
 22 21  1  0
 23 24  1  0
 23 22  1  0
 25 23  2  0
M  END
$$$$
