QRG.pdb
     RDKit          3D

 25 24  0  0  1  0  0  0  0  0999 V2000
   18.5070  -22.3777  -11.9211 N   0  0  0  0  0  0  0  0  0  0  0  0
   18.5398  -22.0568  -10.5380 C   0  0  0  0  0  0  0  0  0  0  0  0
   17.8853  -22.8007   -9.7746 O   0  0  0  0  0  0  0  0  0  0  0  0
   19.2897  -20.9223  -10.0262 C   0  0  0  0  0  0  0  0  0  0  0  0
   20.0385  -20.0793  -10.9772 C   0  0  0  0  0  0  0  0  0  0  0  0
   21.4297  -20.4807  -11.3174 C   0  0  2  0  0  0  0  0  0  0  0  0
   22.4019  -20.3689  -10.2859 N   0  0  0  0  0  0  0  0  0  0  0  0
   21.9287  -19.7606  -12.5191 C   0  0  0  0  0  0  0  0  0  0  0  0
   22.3382  -18.5842  -12.3365 O   0  0  0  0  0  0  0  0  0  0  0  0
   27.1196  -21.5676  -17.5473 N   0  0  0  0  0  0  0  0  0  0  0  0
   26.9889  -22.6824  -16.6632 C   0  0  0  0  0  0  0  0  0  0  0  0
   28.0402  -23.3405  -16.3099 N   0  0  0  0  0  0  0  0  0  0  0  0
   25.6978  -23.0312  -16.2027 N   0  0  0  0  0  0  0  0  0  0  0  0
   24.5137  -22.3186  -16.6607 C   0  0  0  0  0  0  0  0  0  0  0  0
   24.1027  -21.2962  -15.6237 C   0  0  0  0  0  0  0  0  0  0  0  0
   22.8965  -20.5171  -16.0544 C   0  0  0  0  0  0  0  0  0  0  0  0
   22.3464  -19.5911  -15.0102 C   0  0  2  0  0  0  0  0  0  0  0  0
   21.9567  -20.3199  -13.7920 N   0  0  0  0  0  0  0  0  0  0  0  0
   21.1007  -18.9071  -15.5081 C   0  0  0  0  0  0  0  0  0  0  0  0
   19.9563  -19.3596  -15.2504 O   0  0  0  0  0  0  0  0  0  0  0  0
   27.9595  -24.1560  -15.6745 N   0  0  0  0  0  0  0  0  0  0  0  0
   21.1555  -17.7236  -16.2894 C   0  0  0  0  0  0  0  0  0  0  0  0
   20.1636  -16.6845  -16.2076 C   0  0  0  0  0  0  0  0  0  0  0  0
   18.8344  -17.1207  -16.6822 O   0  0  0  0  0  0  0  0  0  0  0  0
   17.8234  -16.1573  -16.6810 O   0  0  0  0  0  0  0  0  0  0  0  0
  2  1  1  0
  2  4  1  0
  3  2  2  0
  5  4  1  0
  5  6  1  0
  6  8  1  0
  6  7  1  1
  8  9  2  0
 10 11  1  0
 11 13  1  0
 11 12  2  0
 13 14  1  0
 14 15  1  0
 17 16  1  6
 16 15  1  0
 18 17  1  0
 18  8  1  0
 19 20  2  0
 19 17  1  0
 21 19  1  0
 22 21  1  0
 23 24  1  0
 23 22  1  0
 25 23  2  0
M  END
$$$$
