QRG.pdb
     RDKit          3D

 25 24  0  0  1  0  0  0  0  0999 V2000
   21.8619  -20.7315  -11.4506 N   0  0  0  0  0  0  0  0  0  0  0  0
   22.1303  -20.7308  -10.0559 C   0  0  0  0  0  0  0  0  0  0  0  0
   21.1604  -20.9553   -9.2987 O   0  0  0  0  0  0  0  0  0  0  0  0
   23.4597  -20.4800   -9.5257 C   0  0  0  0  0  0  0  0  0  0  0  0
   24.5254  -20.0559  -10.4532 C   0  0  0  0  0  0  0  0  0  0  0  0
   25.2182  -21.1073  -11.2449 C   0  0  2  0  0  0  0  0  0  0  0  0
   26.4750  -21.5574  -10.7558 N   0  0  0  0  0  0  0  0  0  0  0  0
   25.3800  -20.7037  -12.6671 C   0  0  0  0  0  0  0  0  0  0  0  0
   26.1242  -19.7123  -12.8862 O   0  0  0  0  0  0  0  0  0  0  0  0
   29.0034  -25.2809  -16.2272 N   0  0  0  0  0  0  0  0  0  0  0  0
   27.5867  -25.3380  -16.4042 C   0  0  0  0  0  0  0  0  0  0  0  0
   26.9685  -26.4561  -16.2288 N   0  0  0  0  0  0  0  0  0  0  0  0
   26.9040  -24.1551  -16.7717 N   0  0  0  0  0  0  0  0  0  0  0  0
   27.5762  -22.8636  -16.7732 C   0  0  0  0  0  0  0  0  0  0  0  0
   26.9112  -21.9431  -15.7732 C   0  0  0  0  0  0  0  0  0  0  0  0
   25.4455  -21.7864  -16.0465 C   0  0  0  0  0  0  0  0  0  0  0  0
   24.7320  -20.8573  -15.1095 C   0  0  2  0  0  0  0  0  0  0  0  0
   24.7594  -21.3583  -13.7256 N   0  0  0  0  0  0  0  0  0  0  0  0
   23.2787  -20.7356  -15.4844 C   0  0  0  0  0  0  0  0  0  0  0  0
   22.4724  -21.6827  -15.3007 O   0  0  0  0  0  0  0  0  0  0  0  0
   25.9354  -26.5018  -16.3050 N   0  0  0  0  0  0  0  0  0  0  0  0
   22.7488  -19.5522  -16.0613 C   0  0  0  0  0  0  0  0  0  0  0  0
   21.3708  -19.4214  -16.4540 C   0  0  0  0  0  0  0  0  0  0  0  0
   20.4681  -19.1787  -15.3101 O   0  0  0  0  0  0  0  0  0  0  0  0
   19.1318  -18.9105  -15.6145 O   0  0  0  0  0  0  0  0  0  0  0  0
  2  1  1  0
  2  4  1  0
  3  2  2  0
  5  4  1  0
  5  6  1  0
  6  8  1  0
  6  7  1  1
  8  9  2  0
 10 11  1  0
 11 13  1  0
 11 12  2  0
 13 14  1  0
 14 15  1  0
 17 16  1  6
 16 15  1  0
 18 17  1  0
 18  8  1  0
 19 20  2  0
 19 17  1  0
 21 19  1  0
 22 21  1  0
 23 24  1  0
 23 22  1  0
 25 23  2  0
M  END
$$$$
