QRG.pdb
     RDKit          3D

 25 24  0  0  1  0  0  0  0  0999 V2000
   19.1901  -19.0446  -14.8991 N   0  0  0  0  0  0  0  0  0  0  0  0
   19.7678  -19.7411  -13.8043 C   0  0  0  0  0  0  0  0  0  0  0  0
   18.9762  -20.3217  -13.0292 O   0  0  0  0  0  0  0  0  0  0  0  0
   21.2037  -19.7805  -13.5854 C   0  0  0  0  0  0  0  0  0  0  0  0
   22.0806  -19.0116  -14.4885 C   0  0  0  0  0  0  0  0  0  0  0  0
   23.0787  -19.7627  -15.2958 C   0  0  2  0  0  0  0  0  0  0  0  0
   23.0523  -21.1806  -15.1943 N   0  0  0  0  0  0  0  0  0  0  0  0
   24.4643  -19.2940  -15.0270 C   0  0  0  0  0  0  0  0  0  0  0  0
   24.6381  -18.0474  -15.0013 O   0  0  0  0  0  0  0  0  0  0  0  0
   25.5100  -20.1558   -8.8846 N   0  0  0  0  0  0  0  0  0  0  0  0
   24.8955  -20.7463  -10.0315 C   0  0  0  0  0  0  0  0  0  0  0  0
   23.6091  -20.7959  -10.1089 N   0  0  0  0  0  0  0  0  0  0  0  0
   25.7271  -21.2636  -11.0519 N   0  0  0  0  0  0  0  0  0  0  0  0
   27.1512  -20.9633  -11.0914 C   0  0  0  0  0  0  0  0  0  0  0  0
   27.4176  -19.8985  -12.1329 C   0  0  0  0  0  0  0  0  0  0  0  0
   27.5890  -20.4858  -13.5015 C   0  0  0  0  0  0  0  0  0  0  0  0
   26.9246  -19.7107  -14.6007 C   0  0  2  0  0  0  0  0  0  0  0  0
   25.5366  -20.1530  -14.8120 N   0  0  0  0  0  0  0  0  0  0  0  0
   27.6382  -19.9243  -15.9094 C   0  0  0  0  0  0  0  0  0  0  0  0
   27.6891  -21.0576  -16.4514 O   0  0  0  0  0  0  0  0  0  0  0  0
   23.1497  -21.2440  -10.9233 N   0  0  0  0  0  0  0  0  0  0  0  0
   28.2863  -18.8628  -16.5930 C   0  0  0  0  0  0  0  0  0  0  0  0
   28.9785  -19.0423  -17.8415 C   0  0  0  0  0  0  0  0  0  0  0  0
   28.0841  -18.9452  -19.0132 O   0  0  0  0  0  0  0  0  0  0  0  0
   28.6851  -19.0561  -20.2689 O   0  0  0  0  0  0  0  0  0  0  0  0
  2  1  1  0
  2  4  1  0
  3  2  2  0
  5  4  1  0
  5  6  1  0
  6  8  1  0
  6  7  1  1
  8  9  2  0
 10 11  1  0
 11 13  1  0
 11 12  2  0
 13 14  1  0
 14 15  1  0
 17 16  1  1
 16 15  1  0
 18 17  1  0
 18  8  1  0
 19 20  2  0
 19 17  1  0
 21 19  1  0
 22 21  1  0
 23 24  1  0
 23 22  1  0
 25 23  2  0
M  END
$$$$
