QRG.pdb
     RDKit          3D

 25 24  0  0  1  0  0  0  0  0999 V2000
   25.1996  -17.4925  -19.2847 N   0  0  0  0  0  0  0  0  0  0  0  0
   25.3143  -16.2600  -18.5882 C   0  0  0  0  0  0  0  0  0  0  0  0
   26.4696  -15.9022  -18.2693 O   0  0  0  0  0  0  0  0  0  0  0  0
   24.1545  -15.4504  -18.2555 C   0  0  0  0  0  0  0  0  0  0  0  0
   22.8241  -15.8951  -18.7117 C   0  0  0  0  0  0  0  0  0  0  0  0
   21.7392  -15.9968  -17.6993 C   0  0  2  0  0  0  0  0  0  0  0  0
   21.9234  -15.2806  -16.4850 N   0  0  0  0  0  0  0  0  0  0  0  0
   21.4277  -17.4135  -17.3716 C   0  0  0  0  0  0  0  0  0  0  0  0
   21.0262  -18.1328  -18.3235 O   0  0  0  0  0  0  0  0  0  0  0  0
   26.7554  -22.9170  -16.9515 N   0  0  0  0  0  0  0  0  0  0  0  0
   25.4121  -23.3732  -16.7802 C   0  0  0  0  0  0  0  0  0  0  0  0
   25.1799  -24.6361  -16.6601 N   0  0  0  0  0  0  0  0  0  0  0  0
   24.3723  -22.4150  -16.7504 N   0  0  0  0  0  0  0  0  0  0  0  0
   24.6596  -20.9877  -16.7357 C   0  0  0  0  0  0  0  0  0  0  0  0
   23.3755  -20.2086  -16.9192 C   0  0  0  0  0  0  0  0  0  0  0  0
   22.5739  -20.1465  -15.6540 C   0  0  0  0  0  0  0  0  0  0  0  0
   21.2996  -19.3622  -15.7607 C   0  0  2  0  0  0  0  0  0  0  0  0
   21.5584  -17.9525  -16.0963 N   0  0  0  0  0  0  0  0  0  0  0  0
   20.5675  -19.3541  -14.4448 C   0  0  0  0  0  0  0  0  0  0  0  0
   21.0318  -18.7585  -13.4396 O   0  0  0  0  0  0  0  0  0  0  0  0
   24.2058  -24.9873  -16.6061 N   0  0  0  0  0  0  0  0  0  0  0  0
   19.3234  -20.0152  -14.2739 C   0  0  0  0  0  0  0  0  0  0  0  0
   18.5868  -19.9908  -13.0382 C   0  0  0  0  0  0  0  0  0  0  0  0
   18.2470  -21.3413  -12.5453 O   0  0  0  0  0  0  0  0  0  0  0  0
   17.4612  -21.4064  -11.3926 O   0  0  0  0  0  0  0  0  0  0  0  0
  2  1  1  0
  2  4  1  0
  3  2  2  0
  5  4  1  0
  5  6  1  0
  6  8  1  0
  6  7  1  1
  8  9  2  0
 10 11  1  0
 11 13  1  0
 11 12  2  0
 13 14  1  0
 14 15  1  0
 17 16  1  1
 16 15  1  0
 18 17  1  0
 18  8  1  0
 19 20  2  0
 19 17  1  0
 21 19  1  0
 22 21  1  0
 23 24  1  0
 23 22  1  0
 25 23  2  0
M  END
$$$$
