QRG.pdb
     RDKit          3D

 25 24  0  0  1  0  0  0  0  0999 V2000
   18.6226  -15.0258  -14.7896 N   0  0  0  0  0  0  0  0  0  0  0  0
   18.0335  -15.2255  -16.0664 C   0  0  0  0  0  0  0  0  0  0  0  0
   17.2850  -16.2201  -16.1886 O   0  0  0  0  0  0  0  0  0  0  0  0
   18.2838  -14.3277  -17.1812 C   0  0  0  0  0  0  0  0  0  0  0  0
   19.1371  -13.1446  -16.9618 C   0  0  0  0  0  0  0  0  0  0  0  0
   20.5855  -13.2626  -17.2788 C   0  0  2  0  0  0  0  0  0  0  0  0
   21.2014  -14.5167  -17.0156 N   0  0  0  0  0  0  0  0  0  0  0  0
   21.3797  -12.1956  -16.6137 C   0  0  0  0  0  0  0  0  0  0  0  0
   21.4023  -12.2168  -15.3552 O   0  0  0  0  0  0  0  0  0  0  0  0
   28.0727  -11.8191  -15.5168 N   0  0  0  0  0  0  0  0  0  0  0  0
   27.9678  -12.2434  -16.8772 C   0  0  0  0  0  0  0  0  0  0  0  0
   28.8567  -13.0401  -17.3652 N   0  0  0  0  0  0  0  0  0  0  0  0
   26.8831  -11.7685  -17.6507 N   0  0  0  0  0  0  0  0  0  0  0  0
   25.9406  -10.7966  -17.1150 C   0  0  0  0  0  0  0  0  0  0  0  0
   24.8822  -10.4897  -18.1518 C   0  0  0  0  0  0  0  0  0  0  0  0
   23.8469   -9.5396  -17.6293 C   0  0  0  0  0  0  0  0  0  0  0  0
   22.8689  -10.1491  -16.6689 C   0  0  2  0  0  0  0  0  0  0  0  0
   22.0726  -11.2096  -17.3078 N   0  0  0  0  0  0  0  0  0  0  0  0
   21.8847   -9.1174  -16.1847 C   0  0  0  0  0  0  0  0  0  0  0  0
   21.0957   -8.5413  -16.9762 O   0  0  0  0  0  0  0  0  0  0  0  0
   28.7921  -13.3577  -18.3502 N   0  0  0  0  0  0  0  0  0  0  0  0
   21.7989   -8.7450  -14.8180 C   0  0  0  0  0  0  0  0  0  0  0  0
   21.7489   -7.3751  -14.3811 C   0  0  0  0  0  0  0  0  0  0  0  0
   20.4006   -6.7833  -14.4995 O   0  0  0  0  0  0  0  0  0  0  0  0
   20.2234   -5.5156  -13.9411 O   0  0  0  0  0  0  0  0  0  0  0  0
  2  1  1  0
  2  4  1  0
  3  2  2  0
  5  4  1  0
  5  6  1  0
  6  8  1  0
  6  7  1  1
  8  9  2  0
 10 11  1  0
 11 13  1  0
 11 12  2  0
 13 14  1  0
 14 15  1  0
 17 16  1  6
 16 15  1  0
 18 17  1  0
 18  8  1  0
 19 20  2  0
 19 17  1  0
 21 19  1  0
 22 21  1  0
 23 24  1  0
 23 22  1  0
 25 23  2  0
M  END
$$$$
