QRG.pdb
     RDKit          3D

 25 24  0  0  1  0  0  0  0  0999 V2000
   22.4970  -18.8043  -13.9197 N   0  0  0  0  0  0  0  0  0  0  0  0
   22.1590  -18.7651  -15.2987 C   0  0  0  0  0  0  0  0  0  0  0  0
   20.9488  -18.9026  -15.5830 O   0  0  0  0  0  0  0  0  0  0  0  0
   23.1613  -18.5785  -16.3341 C   0  0  0  0  0  0  0  0  0  0  0  0
   24.5718  -18.4142  -15.9352 C   0  0  0  0  0  0  0  0  0  0  0  0
   25.5086  -19.5359  -16.2114 C   0  0  2  0  0  0  0  0  0  0  0  0
   25.1391  -20.4436  -17.2415 N   0  0  0  0  0  0  0  0  0  0  0  0
   25.8093  -20.3135  -14.9799 C   0  0  0  0  0  0  0  0  0  0  0  0
   25.0904  -21.3248  -14.7672 O   0  0  0  0  0  0  0  0  0  0  0  0
   32.5603  -22.5399   -9.6764 N   0  0  0  0  0  0  0  0  0  0  0  0
   32.3639  -22.6225  -11.0894 C   0  0  0  0  0  0  0  0  0  0  0  0
   33.1553  -23.3520  -11.7998 N   0  0  0  0  0  0  0  0  0  0  0  0
   31.2990  -21.8925  -11.6668 N   0  0  0  0  0  0  0  0  0  0  0  0
   30.3883  -21.1069  -10.8462 C   0  0  0  0  0  0  0  0  0  0  0  0
   28.9604  -21.3843  -11.2631 C   0  0  0  0  0  0  0  0  0  0  0  0
   28.5438  -20.5374  -12.4279 C   0  0  0  0  0  0  0  0  0  0  0  0
   27.1147  -20.7142  -12.8482 C   0  0  2  0  0  0  0  0  0  0  0  0
   26.8194  -19.9745  -14.0862 N   0  0  0  0  0  0  0  0  0  0  0  0
   26.1802  -20.1708  -11.8000 C   0  0  0  0  0  0  0  0  0  0  0  0
   26.5078  -19.2027  -11.0677 O   0  0  0  0  0  0  0  0  0  0  0  0
   33.0088  -23.4422  -12.8223 N   0  0  0  0  0  0  0  0  0  0  0  0
   24.8897  -20.7213  -11.5867 C   0  0  0  0  0  0  0  0  0  0  0  0
   24.0062  -20.2664  -10.5461 C   0  0  0  0  0  0  0  0  0  0  0  0
   22.6493  -20.8402  -10.6531 O   0  0  0  0  0  0  0  0  0  0  0  0
   21.7212  -20.4336   -9.6920 O   0  0  0  0  0  0  0  0  0  0  0  0
  2  1  1  0
  2  4  1  0
  3  2  2  0
  5  4  1  0
  5  6  1  0
  6  8  1  0
  6  7  1  6
  8  9  2  0
 10 11  1  0
 11 13  1  0
 11 12  2  0
 13 14  1  0
 14 15  1  0
 17 16  1  1
 16 15  1  0
 18 17  1  0
 18  8  1  0
 19 20  2  0
 19 17  1  0
 21 19  1  0
 22 21  1  0
 23 24  1  0
 23 22  1  0
 25 23  2  0
M  END
$$$$
