QRG.pdb
     RDKit          3D

 25 24  0  0  1  0  0  0  0  0999 V2000
   23.7086  -14.9227  -18.2091 N   0  0  0  0  0  0  0  0  0  0  0  0
   23.9475  -15.4419  -19.5094 C   0  0  0  0  0  0  0  0  0  0  0  0
   24.2813  -14.6178  -20.3890 O   0  0  0  0  0  0  0  0  0  0  0  0
   23.8106  -16.8563  -19.8130 C   0  0  0  0  0  0  0  0  0  0  0  0
   23.4235  -17.7804  -18.7304 C   0  0  0  0  0  0  0  0  0  0  0  0
   24.3469  -18.9011  -18.4085 C   0  0  2  0  0  0  0  0  0  0  0  0
   24.6708  -19.7922  -19.4680 N   0  0  0  0  0  0  0  0  0  0  0  0
   23.8580  -19.6978  -17.2518 C   0  0  0  0  0  0  0  0  0  0  0  0
   23.2131  -20.7438  -17.5254 O   0  0  0  0  0  0  0  0  0  0  0  0
   26.1561  -20.3050   -8.6033 N   0  0  0  0  0  0  0  0  0  0  0  0
   24.7556  -20.5876   -8.6253 C   0  0  0  0  0  0  0  0  0  0  0  0
   24.1306  -20.7918   -7.5159 N   0  0  0  0  0  0  0  0  0  0  0  0
   24.0962  -20.6365   -9.8756 N   0  0  0  0  0  0  0  0  0  0  0  0
   24.7491  -20.1767  -11.0931 C   0  0  0  0  0  0  0  0  0  0  0  0
   23.8480  -20.4335  -12.2813 C   0  0  0  0  0  0  0  0  0  0  0  0
   24.4024  -19.8404  -13.5416 C   0  0  0  0  0  0  0  0  0  0  0  0
   23.5779  -20.0985  -14.7679 C   0  0  2  0  0  0  0  0  0  0  0  0
   24.0787  -19.3405  -15.9261 N   0  0  0  0  0  0  0  0  0  0  0  0
   22.1551  -19.6530  -14.5565 C   0  0  0  0  0  0  0  0  0  0  0  0
   21.8483  -18.4342  -14.5183 O   0  0  0  0  0  0  0  0  0  0  0  0
   23.1171  -21.0109   -7.5176 N   0  0  0  0  0  0  0  0  0  0  0  0
   21.0946  -20.5812  -14.3900 C   0  0  0  0  0  0  0  0  0  0  0  0
   19.7577  -20.1873  -14.0329 C   0  0  0  0  0  0  0  0  0  0  0  0
   19.0138  -19.5912  -15.1614 O   0  0  0  0  0  0  0  0  0  0  0  0
   17.6767  -19.2643  -14.9254 O   0  0  0  0  0  0  0  0  0  0  0  0
  2  1  1  0
  2  4  1  0
  3  2  2  0
  5  4  1  0
  5  6  1  0
  6  8  1  0
  6  7  1  6
  8  9  2  0
 10 11  1  0
 11 13  1  0
 11 12  2  0
 13 14  1  0
 14 15  1  0
 17 16  1  1
 16 15  1  0
 18 17  1  0
 18  8  1  0
 19 20  2  0
 19 17  1  0
 21 19  1  0
 22 21  1  0
 23 24  1  0
 23 22  1  0
 25 23  2  0
M  END
$$$$
