RRW.pdb
     RDKit          3D

 37 38  0  0  1  0  0  0  0  0999 V2000
    8.5444  -14.4502   16.3049 N   0  0  0  0  0  0  0  0  0  0  0  0
    8.5254  -13.3929   17.2910 C   0  0  0  0  0  0  0  0  0  0  0  0
    7.8677  -12.3137   17.0799 N   0  0  0  0  0  0  0  0  0  0  0  0
    9.2410  -13.5491   18.5056 N   0  0  0  0  0  0  0  0  0  0  0  0
    8.7454  -14.3717   19.5801 C   0  0  0  0  0  0  0  0  0  0  0  0
    7.3991  -13.8689   20.0545 C   0  0  0  0  0  0  0  0  0  0  0  0
    6.9019  -14.6443   21.2402 C   0  0  0  0  0  0  0  0  0  0  0  0
    7.0141  -16.1183   21.0518 C   0  0  2  0  0  0  0  0  0  0  0  0
    5.6786  -16.6691   20.8157 N   0  0  0  0  0  0  0  0  0  0  0  0
    7.6500  -16.8397   22.1813 C   0  0  0  0  0  0  0  0  0  0  0  0
    7.0207  -17.1537   23.2140 O   0  0  0  0  0  0  0  0  0  0  0  0
    7.9095  -11.5238   17.7454 N   0  0  0  0  0  0  0  0  0  0  0  0
   11.9691  -20.5858   26.5064 C   0  0  0  0  0  0  0  0  0  0  0  0
   13.0866  -21.1060   25.8003 N   0  0  0  0  0  0  0  0  0  0  0  0
   14.1732  -21.3331   26.4803 N   0  0  0  0  0  0  0  0  0  0  0  0
   13.0387  -21.3698   24.4070 C   0  0  0  0  0  0  0  0  0  0  0  0
   12.6847  -20.3341   23.4722 C   0  0  0  0  0  0  0  0  0  0  0  0
   11.4433  -19.5892   23.8030 C   0  0  0  0  0  0  0  0  0  0  0  0
   10.8554  -18.7739   22.6990 C   0  0  2  0  0  0  0  0  0  0  0  0
    9.6474  -17.9744   23.2149 N   0  0  0  0  0  0  0  0  0  0  0  0
    9.0264  -17.2207   22.1558 C   0  0  0  0  0  0  0  0  0  0  0  0
   10.0425  -17.1084   24.3543 O   0  0  0  0  0  0  0  0  0  0  0  0
   10.8769  -16.1628   24.2145 N   0  0  0  0  0  0  0  0  0  0  0  0
   15.0193  -21.6972   26.0150 C   0  0  2  0  0  0  0  0  0  0  0  0
    9.5243  -17.2691   25.6716 C   0  0  0  0  0  0  0  0  0  0  0  0
   10.0547  -16.5320   26.8007 C   0  0  0  0  0  0  0  0  0  0  0  0
    8.9485  -15.9277   27.6394 C   0  0  0  0  0  0  0  0  0  0  0  0
    7.9848  -15.2245   26.7566 N   0  0  0  0  0  0  0  0  0  0  0  0
    7.0636  -15.7774   25.8664 C   0  0  0  0  0  0  0  0  0  0  0  0
    6.3831  -14.7831   25.2607 C   0  0  0  0  0  0  0  0  0  0  0  0
    6.8039  -13.5880   25.7021 C   0  0  0  0  0  0  0  0  0  0  0  0
    6.4410  -12.2929   25.4067 C   0  0  0  0  0  0  0  0  0  0  0  0
    7.0926  -11.2724   26.0588 C   0  0  0  0  0  0  0  0  0  0  0  0
    8.0857  -11.5220   26.9872 C   0  0  0  0  0  0  0  0  0  0  0  0
    8.4290  -12.8249   27.2638 C   0  0  0  0  0  0  0  0  0  0  0  0
    7.8068  -13.8618   26.6387 O   0  0  0  0  0  0  0  0  0  0  0  0
   10.8522  -17.4545   27.6234 O   0  0  0  0  0  0  0  0  0  0  0  0
  2  3  2  0
  2  1  1  0
  4  2  1  0
  5  4  1  0
  6  5  1  0
  7  6  1  0
  8 10  1  0
  8  7  1  0
  8  9  1  1
 10 20  1  0
 10 11  2  0
 12 13  1  0
 13 14  2  0
 15 13  1  0
 16 15  1  0
 17 16  1  0
 18 17  1  0
 19 18  1  6
 19 21  1  0
 20 19  1  0
 21 23  1  0
 21 22  2  0
 23 24  1  0
 24 35  1  0
 24 25  1  6
 26 25  1  0
 27 26  2  0
 28 29  1  0
 28 27  1  0
 29 34  2  0
 30 29  1  0
 30 31  2  0
 31 32  1  0
 32 33  2  0
 34 26  1  0
 34 33  1  0
 35 37  1  0
 36 35  2  0
M  END
$$$$
