RRW.pdb
     RDKit          3D

 37 38  0  0  1  0  0  0  0  0999 V2000
    6.2578  -13.9001   17.5043 N   0  0  0  0  0  0  0  0  0  0  0  0
    7.4140  -13.7960   16.6424 C   0  0  0  0  0  0  0  0  0  0  0  0
    7.4485  -12.9328   15.6961 N   0  0  0  0  0  0  0  0  0  0  0  0
    8.5231  -14.6568   16.8442 N   0  0  0  0  0  0  0  0  0  0  0  0
    8.3663  -16.0844   16.9632 C   0  0  0  0  0  0  0  0  0  0  0  0
    8.6477  -16.5318   18.3813 C   0  0  0  0  0  0  0  0  0  0  0  0
    9.7932  -15.7735   18.9870 C   0  0  0  0  0  0  0  0  0  0  0  0
   10.6252  -16.6150   19.8928 C   0  0  2  0  0  0  0  0  0  0  0  0
   10.8689  -17.9068   19.2491 N   0  0  0  0  0  0  0  0  0  0  0  0
   10.0419  -16.8392   21.2382 C   0  0  0  0  0  0  0  0  0  0  0  0
    9.7063  -15.8974   21.9875 O   0  0  0  0  0  0  0  0  0  0  0  0
    8.2536  -12.8807   15.0497 N   0  0  0  0  0  0  0  0  0  0  0  0
    6.6129  -19.9261   27.2908 C   0  0  0  0  0  0  0  0  0  0  0  0
    6.9111  -21.2987   27.0789 N   0  0  0  0  0  0  0  0  0  0  0  0
    5.9980  -22.1681   27.4031 N   0  0  0  0  0  0  0  0  0  0  0  0
    8.1529  -21.7234   26.5395 C   0  0  0  0  0  0  0  0  0  0  0  0
    8.4538  -21.5349   25.1446 C   0  0  0  0  0  0  0  0  0  0  0  0
    8.5938  -20.1189   24.7196 C   0  0  0  0  0  0  0  0  0  0  0  0
    9.2523  -19.8941   23.3986 C   0  0  2  0  0  0  0  0  0  0  0  0
    9.3069  -18.3903   23.0819 N   0  0  0  0  0  0  0  0  0  0  0  0
    9.8278  -18.1514   21.7601 C   0  0  0  0  0  0  0  0  0  0  0  0
   10.0790  -17.6652   24.1222 O   0  0  0  0  0  0  0  0  0  0  0  0
   11.3199  -17.4350   23.9915 N   0  0  0  0  0  0  0  0  0  0  0  0
    6.1643  -23.1787   27.2766 C   0  0  1  0  0  0  0  0  0  0  0  0
    9.4966  -17.1796   25.3282 C   0  0  0  0  0  0  0  0  0  0  0  0
   10.2630  -16.4316   26.3043 C   0  0  0  0  0  0  0  0  0  0  0  0
    9.8713  -14.9692   26.3166 C   0  0  0  0  0  0  0  0  0  0  0  0
    8.3935  -14.8524   26.3875 N   0  0  0  0  0  0  0  0  0  0  0  0
    7.4428  -15.8736   26.3774 C   0  0  0  0  0  0  0  0  0  0  0  0
    6.2109  -15.3311   26.4583 C   0  0  0  0  0  0  0  0  0  0  0  0
    6.2891  -13.9932   26.5222 C   0  0  0  0  0  0  0  0  0  0  0  0
    5.3429  -12.9969   26.6130 C   0  0  0  0  0  0  0  0  0  0  0  0
    5.7771  -11.6929   26.6592 C   0  0  0  0  0  0  0  0  0  0  0  0
    7.1213  -11.3737   26.6169 C   0  0  0  0  0  0  0  0  0  0  0  0
    8.0458  -12.3882   26.5261 C   0  0  0  0  0  0  0  0  0  0  0  0
    7.6547  -13.6911   26.4780 O   0  0  0  0  0  0  0  0  0  0  0  0
   10.0235  -17.0195   27.6313 O   0  0  0  0  0  0  0  0  0  0  0  0
  2  3  2  0
  2  1  1  0
  4  2  1  0
  5  4  1  0
  6  5  1  0
  7  6  1  0
  8 10  1  0
  8  7  1  0
  8  9  1  6
 10 20  1  0
 10 11  2  0
 12 13  1  0
 13 14  2  0
 15 13  1  0
 16 15  1  0
 17 16  1  0
 18 17  1  0
 19 18  1  6
 19 21  1  0
 20 19  1  0
 21 23  1  0
 21 22  2  0
 23 24  1  0
 24 35  1  0
 24 25  1  1
 26 25  1  0
 27 26  2  0
 28 29  1  0
 28 27  1  0
 29 34  2  0
 30 29  1  0
 30 31  2  0
 31 32  1  0
 32 33  2  0
 34 26  1  0
 34 33  1  0
 35 37  1  0
 36 35  2  0
M  END
$$$$
