RRW.pdb
     RDKit          3D

 37 38  0  0  1  0  0  0  0  0999 V2000
   12.5913  -25.3716   19.6211 N   0  0  0  0  0  0  0  0  0  0  0  0
   12.5434  -24.0248   20.1452 C   0  0  0  0  0  0  0  0  0  0  0  0
   13.0364  -23.7533   21.2962 N   0  0  0  0  0  0  0  0  0  0  0  0
   11.9452  -22.9916   19.3794 N   0  0  0  0  0  0  0  0  0  0  0  0
   11.9384  -21.6211   19.8249 C   0  0  0  0  0  0  0  0  0  0  0  0
   10.8205  -21.3928   20.8191 C   0  0  0  0  0  0  0  0  0  0  0  0
   10.9195  -20.0421   21.4672 C   0  0  0  0  0  0  0  0  0  0  0  0
   10.0502  -19.0244   20.8118 C   0  0  2  0  0  0  0  0  0  0  0  0
   10.2752  -19.0691   19.3661 N   0  0  0  0  0  0  0  0  0  0  0  0
   10.2486  -17.6366   21.2968 C   0  0  0  0  0  0  0  0  0  0  0  0
   11.3779  -17.1066   21.3650 O   0  0  0  0  0  0  0  0  0  0  0  0
   13.0062  -22.7927   21.6772 N   0  0  0  0  0  0  0  0  0  0  0  0
    6.9443  -14.3377   16.9336 C   0  0  0  0  0  0  0  0  0  0  0  0
    7.8947  -13.3428   17.2868 N   0  0  0  0  0  0  0  0  0  0  0  0
    7.6575  -12.1224   16.9008 N   0  0  0  0  0  0  0  0  0  0  0  0
    9.0648  -13.6508   18.0280 C   0  0  0  0  0  0  0  0  0  0  0  0
    9.0542  -13.6247   19.4670 C   0  0  0  0  0  0  0  0  0  0  0  0
    8.0705  -14.5375   20.1030 C   0  0  0  0  0  0  0  0  0  0  0  0
    8.1032  -14.5985   21.5944 C   0  0  2  0  0  0  0  0  0  0  0  0
    9.3082  -15.4297   22.0653 N   0  0  0  0  0  0  0  0  0  0  0  0
    9.1552  -16.8192   21.7168 C   0  0  0  0  0  0  0  0  0  0  0  0
    9.5336  -15.2442   23.5210 O   0  0  0  0  0  0  0  0  0  0  0  0
    9.8248  -14.1106   24.0109 N   0  0  0  0  0  0  0  0  0  0  0  0
    8.3222  -11.3630   17.1165 C   0  0  1  0  0  0  0  0  0  0  0  0
    9.4424  -16.3069   24.4654 C   0  0  0  0  0  0  0  0  0  0  0  0
    9.8701  -16.1507   25.8410 C   0  0  0  0  0  0  0  0  0  0  0  0
    8.7049  -16.2601   26.8015 C   0  0  0  0  0  0  0  0  0  0  0  0
    7.6543  -15.2840   26.4196 N   0  0  0  0  0  0  0  0  0  0  0  0
    6.4174  -15.5321   25.8233 C   0  0  0  0  0  0  0  0  0  0  0  0
    5.7697  -14.3627   25.6465 C   0  0  0  0  0  0  0  0  0  0  0  0
    6.5132  -13.3402   26.0960 C   0  0  0  0  0  0  0  0  0  0  0  0
    6.3125  -11.9788   26.1448 C   0  0  0  0  0  0  0  0  0  0  0  0
    7.3063  -11.1960   26.6841 C   0  0  0  0  0  0  0  0  0  0  0  0
    8.4794  -11.7440   27.1680 C   0  0  0  0  0  0  0  0  0  0  0  0
    8.6545  -13.1070   27.1072 C   0  0  0  0  0  0  0  0  0  0  0  0
    7.6937  -13.9146   26.5804 O   0  0  0  0  0  0  0  0  0  0  0  0
   10.8590  -17.1976   26.1408 O   0  0  0  0  0  0  0  0  0  0  0  0
  2  3  2  0
  2  1  1  0
  4  2  1  0
  5  4  1  0
  6  5  1  0
  7  6  1  0
  8 10  1  0
  8  7  1  0
  8  9  1  6
 10 20  1  0
 10 11  2  0
 12 13  1  0
 13 14  2  0
 15 13  1  0
 16 15  1  0
 17 16  1  0
 18 17  1  0
 19 18  1  6
 19 21  1  0
 20 19  1  0
 21 23  1  0
 21 22  2  0
 23 24  1  0
 24 35  1  0
 24 25  1  6
 26 25  1  0
 27 26  2  0
 28 29  1  0
 28 27  1  0
 29 34  2  0
 30 29  1  0
 30 31  2  0
 31 32  1  0
 32 33  2  0
 34 26  1  0
 34 33  1  0
 35 37  1  0
 36 35  2  0
M  END
$$$$
