RRW.pdb
     RDKit          3D

 37 38  0  0  1  0  0  0  0  0999 V2000
   16.7757  -20.2989   16.6671 N   0  0  0  0  0  0  0  0  0  0  0  0
   15.4552  -20.6071   16.1651 C   0  0  0  0  0  0  0  0  0  0  0  0
   15.2703  -21.6017   15.3788 N   0  0  0  0  0  0  0  0  0  0  0  0
   14.3512  -19.8021   16.5455 N   0  0  0  0  0  0  0  0  0  0  0  0
   14.4508  -18.8222   17.5976 C   0  0  0  0  0  0  0  0  0  0  0  0
   13.1111  -18.1582   17.8316 C   0  0  0  0  0  0  0  0  0  0  0  0
   13.2595  -16.8358   18.5269 C   0  0  0  0  0  0  0  0  0  0  0  0
   13.3776  -16.9736   20.0060 C   0  0  2  0  0  0  0  0  0  0  0  0
   13.9533  -18.2833   20.3158 N   0  0  0  0  0  0  0  0  0  0  0  0
   12.1025  -16.8104   20.7463 C   0  0  0  0  0  0  0  0  0  0  0  0
   11.3587  -15.8191   20.5877 O   0  0  0  0  0  0  0  0  0  0  0  0
   14.3265  -21.8387   15.0300 N   0  0  0  0  0  0  0  0  0  0  0  0
    4.5110  -18.2558   23.7726 C   0  0  0  0  0  0  0  0  0  0  0  0
    5.1486  -18.1441   22.5082 N   0  0  0  0  0  0  0  0  0  0  0  0
    4.9818  -17.0346   21.8479 N   0  0  0  0  0  0  0  0  0  0  0  0
    5.9371  -19.1933   21.9688 C   0  0  0  0  0  0  0  0  0  0  0  0
    7.1272  -19.6423   22.6425 C   0  0  0  0  0  0  0  0  0  0  0  0
    8.1614  -18.5971   22.8508 C   0  0  0  0  0  0  0  0  0  0  0  0
    9.4640  -18.8175   22.1553 C   0  0  2  0  0  0  0  0  0  0  0  0
   10.4145  -17.6386   22.4227 N   0  0  0  0  0  0  0  0  0  0  0  0
   11.6463  -17.7814   21.6893 C   0  0  0  0  0  0  0  0  0  0  0  0
   10.6514  -17.4790   23.8796 O   0  0  0  0  0  0  0  0  0  0  0  0
   11.4122  -18.2661   24.5211 N   0  0  0  0  0  0  0  0  0  0  0  0
    5.3250  -16.9414   20.8792 C   0  0  2  0  0  0  0  0  0  0  0  0
   10.0528  -16.4469   24.6581 C   0  0  0  0  0  0  0  0  0  0  0  0
   10.3224  -16.2983   26.0739 C   0  0  0  0  0  0  0  0  0  0  0  0
    9.8215  -14.9695   26.5990 C   0  0  0  0  0  0  0  0  0  0  0  0
    8.4381  -14.7352   26.1155 N   0  0  0  0  0  0  0  0  0  0  0  0
    7.5052  -15.6735   25.6724 C   0  0  0  0  0  0  0  0  0  0  0  0
    6.3697  -15.0360   25.3222 C   0  0  0  0  0  0  0  0  0  0  0  0
    6.4957  -13.7134   25.5091 C   0  0  0  0  0  0  0  0  0  0  0  0
    5.6464  -12.6480   25.3093 C   0  0  0  0  0  0  0  0  0  0  0  0
    6.1056  -11.3874   25.6116 C   0  0  0  0  0  0  0  0  0  0  0  0
    7.3804  -11.1781   26.1031 C   0  0  0  0  0  0  0  0  0  0  0  0
    8.2085  -12.2597   26.2934 C   0  0  0  0  0  0  0  0  0  0  0  0
    7.7899  -13.5226   26.0057 O   0  0  0  0  0  0  0  0  0  0  0  0
    9.6564  -17.3967   26.7906 O   0  0  0  0  0  0  0  0  0  0  0  0
  2  3  2  0
  2  1  1  0
  4  2  1  0
  5  4  1  0
  6  5  1  0
  7  6  1  0
  8 10  1  0
  8  7  1  0
  8  9  1  6
 10 20  1  0
 10 11  2  0
 12 13  1  0
 13 14  2  0
 15 13  1  0
 16 15  1  0
 17 16  1  0
 18 17  1  0
 19 18  1  6
 19 21  1  0
 20 19  1  0
 21 23  1  0
 21 22  2  0
 23 24  1  0
 24 35  1  0
 24 25  1  1
 26 25  1  0
 27 26  2  0
 28 29  1  0
 28 27  1  0
 29 34  2  0
 30 29  1  0
 30 31  2  0
 31 32  1  0
 32 33  2  0
 34 26  1  0
 34 33  1  0
 35 37  1  0
 36 35  2  0
M  END
$$$$
