RRW.pdb
     RDKit          3D

 37 38  0  0  1  0  0  0  0  0999 V2000
    7.5354  -15.2747   16.4890 N   0  0  0  0  0  0  0  0  0  0  0  0
    7.9308  -13.9615   16.0308 C   0  0  0  0  0  0  0  0  0  0  0  0
    8.6817  -13.8269   15.0014 N   0  0  0  0  0  0  0  0  0  0  0  0
    7.4841  -12.8087   16.7258 N   0  0  0  0  0  0  0  0  0  0  0  0
    7.9513  -12.4909   18.0516 C   0  0  0  0  0  0  0  0  0  0  0  0
    7.3749  -13.4585   19.0624 C   0  0  0  0  0  0  0  0  0  0  0  0
    8.4017  -13.8874   20.0704 C   0  0  0  0  0  0  0  0  0  0  0  0
    8.8315  -15.3025   19.8875 C   0  0  2  0  0  0  0  0  0  0  0  0
    7.8645  -15.9841   19.0255 N   0  0  0  0  0  0  0  0  0  0  0  0
    8.9909  -16.0685   21.1479 C   0  0  0  0  0  0  0  0  0  0  0  0
    8.0165  -16.5366   21.7743 O   0  0  0  0  0  0  0  0  0  0  0  0
    8.9583  -12.8909   14.6606 N   0  0  0  0  0  0  0  0  0  0  0  0
   12.0034  -22.2927   25.1298 C   0  0  0  0  0  0  0  0  0  0  0  0
   12.9351  -21.3352   25.6125 N   0  0  0  0  0  0  0  0  0  0  0  0
   13.1574  -21.3079   26.8949 N   0  0  0  0  0  0  0  0  0  0  0  0
   13.6034  -20.4331   24.7449 C   0  0  0  0  0  0  0  0  0  0  0  0
   13.0331  -20.0743   23.4729 C   0  0  0  0  0  0  0  0  0  0  0  0
   11.8249  -19.2142   23.5482 C   0  0  0  0  0  0  0  0  0  0  0  0
   11.7509  -18.1012   22.5558 C   0  0  2  0  0  0  0  0  0  0  0  0
   10.4807  -17.2662   22.7884 N   0  0  0  0  0  0  0  0  0  0  0  0
   10.2740  -16.3182   21.7235 C   0  0  0  0  0  0  0  0  0  0  0  0
   10.5255  -16.6066   24.1177 O   0  0  0  0  0  0  0  0  0  0  0  0
   11.1249  -15.5022   24.2936 N   0  0  0  0  0  0  0  0  0  0  0  0
   13.7758  -20.5920   27.3073 C   0  0  2  0  0  0  0  0  0  0  0  0
    9.9095  -17.1532   25.2801 C   0  0  0  0  0  0  0  0  0  0  0  0
   10.0325  -16.5271   26.5810 C   0  0  0  0  0  0  0  0  0  0  0  0
    8.7139  -16.5263   27.3248 C   0  0  0  0  0  0  0  0  0  0  0  0
    7.7382  -15.6720   26.6032 N   0  0  0  0  0  0  0  0  0  0  0  0
    6.6804  -16.0680   25.7840 C   0  0  0  0  0  0  0  0  0  0  0  0
    6.0422  -14.9720   25.3259 C   0  0  0  0  0  0  0  0  0  0  0  0
    6.6214  -13.8580   25.7987 C   0  0  0  0  0  0  0  0  0  0  0  0
    6.3591  -12.5163   25.6338 C   0  0  0  0  0  0  0  0  0  0  0  0
    7.1714  -11.6130   26.2783 C   0  0  0  0  0  0  0  0  0  0  0  0
    8.2255  -12.0231   27.0729 C   0  0  0  0  0  0  0  0  0  0  0  0
    8.4657  -13.3694   27.2207 C   0  0  0  0  0  0  0  0  0  0  0  0
    7.6837  -14.2937   26.5986 O   0  0  0  0  0  0  0  0  0  0  0  0
   11.0390  -17.2666   27.3582 O   0  0  0  0  0  0  0  0  0  0  0  0
  2  3  2  0
  2  1  1  0
  4  2  1  0
  5  4  1  0
  6  5  1  0
  7  6  1  0
  8 10  1  0
  8  7  1  0
  8  9  1  6
 10 20  1  0
 10 11  2  0
 12 13  1  0
 13 14  2  0
 15 13  1  0
 16 15  1  0
 17 16  1  0
 18 17  1  0
 19 18  1  6
 19 21  1  0
 20 19  1  0
 21 23  1  0
 21 22  2  0
 23 24  1  0
 24 35  1  0
 24 25  1  1
 26 25  1  0
 27 26  2  0
 28 29  1  0
 28 27  1  0
 29 34  2  0
 30 29  1  0
 30 31  2  0
 31 32  1  0
 32 33  2  0
 34 26  1  0
 34 33  1  0
 35 37  1  0
 36 35  2  0
M  END
$$$$
