RRW.pdb
     RDKit          3D

 37 38  0  0  1  0  0  0  0  0999 V2000
    7.6979  -13.8556   16.4188 N   0  0  0  0  0  0  0  0  0  0  0  0
    8.2292  -13.3692   17.6725 C   0  0  0  0  0  0  0  0  0  0  0  0
    9.2426  -12.5854   17.6929 N   0  0  0  0  0  0  0  0  0  0  0  0
    7.6244  -13.7618   18.8939 N   0  0  0  0  0  0  0  0  0  0  0  0
    8.1308  -13.3219   20.1694 C   0  0  0  0  0  0  0  0  0  0  0  0
    7.4115  -14.0295   21.2974 C   0  0  0  0  0  0  0  0  0  0  0  0
    6.5271  -15.1312   20.7889 C   0  0  0  0  0  0  0  0  0  0  0  0
    7.2698  -16.4007   20.5491 C   0  0  2  0  0  0  0  0  0  0  0  0
    6.3253  -17.4248   20.0998 N   0  0  0  0  0  0  0  0  0  0  0  0
    8.0227  -16.9081   21.7222 C   0  0  0  0  0  0  0  0  0  0  0  0
    7.4558  -17.2767   22.7729 O   0  0  0  0  0  0  0  0  0  0  0  0
    9.6532  -12.2661   18.5864 N   0  0  0  0  0  0  0  0  0  0  0  0
   14.4915  -14.7479   21.8801 C   0  0  0  0  0  0  0  0  0  0  0  0
   14.4474  -15.0190   20.4864 N   0  0  0  0  0  0  0  0  0  0  0  0
   14.8068  -14.0643   19.6777 N   0  0  0  0  0  0  0  0  0  0  0  0
   14.0265  -16.2752   19.9782 C   0  0  0  0  0  0  0  0  0  0  0  0
   13.5020  -17.2876   20.8565 C   0  0  0  0  0  0  0  0  0  0  0  0
   12.1918  -16.9626   21.4756 C   0  0  0  0  0  0  0  0  0  0  0  0
   11.6001  -18.0195   22.3483 C   0  0  1  0  0  0  0  0  0  0  0  0
   10.1896  -17.6062   22.8004 N   0  0  0  0  0  0  0  0  0  0  0  0
    9.4476  -17.0063   21.7210 C   0  0  0  0  0  0  0  0  0  0  0  0
   10.2613  -16.7162   23.9866 O   0  0  0  0  0  0  0  0  0  0  0  0
   10.6669  -15.5174   23.8965 N   0  0  0  0  0  0  0  0  0  0  0  0
   14.7911  -14.2058   18.6556 C   0  0  2  0  0  0  0  0  0  0  0  0
    9.8866  -17.1320   25.2967 C   0  0  0  0  0  0  0  0  0  0  0  0
   10.0628  -16.2774   26.4535 C   0  0  0  0  0  0  0  0  0  0  0  0
    8.7778  -16.1360   27.2414 C   0  0  0  0  0  0  0  0  0  0  0  0
    7.7600  -15.4460   26.4103 N   0  0  0  0  0  0  0  0  0  0  0  0
    6.7240  -16.0098   25.6649 C   0  0  0  0  0  0  0  0  0  0  0  0
    6.0309  -15.0256   25.0570 C   0  0  0  0  0  0  0  0  0  0  0  0
    6.5526  -13.8269   25.3589 C   0  0  0  0  0  0  0  0  0  0  0  0
    6.2223  -12.5384   25.0028 C   0  0  0  0  0  0  0  0  0  0  0  0
    6.9874  -11.5112   25.5034 C   0  0  0  0  0  0  0  0  0  0  0  0
    8.0608  -11.7478   26.3416 C   0  0  0  0  0  0  0  0  0  0  0  0
    8.3692  -13.0444   26.6816 C   0  0  0  0  0  0  0  0  0  0  0  0
    7.6354  -14.0876   26.2060 O   0  0  0  0  0  0  0  0  0  0  0  0
   11.1061  -16.8639   27.3087 O   0  0  0  0  0  0  0  0  0  0  0  0
  2  3  2  0
  2  1  1  0
  4  2  1  0
  5  4  1  0
  6  5  1  0
  7  6  1  0
  8 10  1  0
  8  7  1  0
  8  9  1  1
 10 20  1  0
 10 11  2  0
 12 13  1  0
 13 14  2  0
 15 13  1  0
 16 15  1  0
 17 16  1  0
 18 17  1  0
 19 18  1  6
 19 21  1  0
 20 19  1  0
 21 23  1  0
 21 22  2  0
 23 24  1  0
 24 35  1  0
 24 25  1  6
 26 25  1  0
 27 26  2  0
 28 29  1  0
 28 27  1  0
 29 34  2  0
 30 29  1  0
 30 31  2  0
 31 32  1  0
 32 33  2  0
 34 26  1  0
 34 33  1  0
 35 37  1  0
 36 35  2  0
M  END
$$$$
