RRW.pdb
     RDKit          3D

 37 38  0  0  1  0  0  0  0  0999 V2000
    5.5651  -25.6753   22.1629 N   0  0  0  0  0  0  0  0  0  0  0  0
    4.7925  -25.5271   23.3761 C   0  0  0  0  0  0  0  0  0  0  0  0
    4.0526  -26.4831   23.8009 N   0  0  0  0  0  0  0  0  0  0  0  0
    4.8525  -24.3123   24.1057 N   0  0  0  0  0  0  0  0  0  0  0  0
    5.4104  -23.1108   23.5382 C   0  0  0  0  0  0  0  0  0  0  0  0
    6.9118  -23.0840   23.7260 C   0  0  0  0  0  0  0  0  0  0  0  0
    7.5290  -21.8661   23.1014 C   0  0  0  0  0  0  0  0  0  0  0  0
    6.7595  -20.6217   23.3846 C   0  0  2  0  0  0  0  0  0  0  0  0
    5.5019  -20.6613   22.6366 N   0  0  0  0  0  0  0  0  0  0  0  0
    7.4793  -19.3637   23.0685 C   0  0  0  0  0  0  0  0  0  0  0  0
    8.6565  -19.1566   23.4326 O   0  0  0  0  0  0  0  0  0  0  0  0
    3.4633  -26.3689   24.6425 N   0  0  0  0  0  0  0  0  0  0  0  0
    7.8704  -13.4057   16.8890 C   0  0  0  0  0  0  0  0  0  0  0  0
    8.1986  -12.6595   18.0523 N   0  0  0  0  0  0  0  0  0  0  0  0
    8.5187  -11.4079   17.8919 N   0  0  0  0  0  0  0  0  0  0  0  0
    8.1868  -13.2413   19.3464 C   0  0  0  0  0  0  0  0  0  0  0  0
    7.4371  -14.4417   19.6083 C   0  0  0  0  0  0  0  0  0  0  0  0
    7.3054  -14.7975   21.0441 C   0  0  0  0  0  0  0  0  0  0  0  0
    6.5865  -16.0723   21.3393 C   0  0  2  0  0  0  0  0  0  0  0  0
    7.5147  -17.0443   22.0865 N   0  0  0  0  0  0  0  0  0  0  0  0
    6.8671  -18.3088   22.3252 C   0  0  0  0  0  0  0  0  0  0  0  0
    8.0121  -16.4295   23.3430 O   0  0  0  0  0  0  0  0  0  0  0  0
    7.2510  -15.7545   24.1012 N   0  0  0  0  0  0  0  0  0  0  0  0
    8.9117  -10.8603   18.6733 C   0  0  2  0  0  0  0  0  0  0  0  0
    9.3604  -16.5474   23.7878 C   0  0  0  0  0  0  0  0  0  0  0  0
    9.8682  -15.7847   24.9103 C   0  0  0  0  0  0  0  0  0  0  0  0
    9.1730  -16.1644   26.2006 C   0  0  0  0  0  0  0  0  0  0  0  0
    7.9057  -15.4020   26.3238 N   0  0  0  0  0  0  0  0  0  0  0  0
    6.5974  -15.8723   26.2057 C   0  0  0  0  0  0  0  0  0  0  0  0
    5.7411  -14.8466   26.3877 C   0  0  0  0  0  0  0  0  0  0  0  0
    6.4126  -13.7090   26.6226 C   0  0  0  0  0  0  0  0  0  0  0  0
    6.0156  -12.4131   26.8661 C   0  0  0  0  0  0  0  0  0  0  0  0
    6.9898  -11.4641   27.0699 C   0  0  0  0  0  0  0  0  0  0  0  0
    8.3338  -11.7849   27.0349 C   0  0  0  0  0  0  0  0  0  0  0  0
    8.7033  -13.0870   26.7897 C   0  0  0  0  0  0  0  0  0  0  0  0
    7.7681  -14.0542   26.5830 O   0  0  0  0  0  0  0  0  0  0  0  0
   11.3114  -16.0424   25.0310 O   0  0  0  0  0  0  0  0  0  0  0  0
  2  3  2  0
  2  1  1  0
  4  2  1  0
  5  4  1  0
  6  5  1  0
  7  6  1  0
  8 10  1  0
  8  7  1  0
  8  9  1  6
 10 20  1  0
 10 11  2  0
 12 13  1  0
 13 14  2  0
 15 13  1  0
 16 15  1  0
 17 16  1  0
 18 17  1  0
 19 18  1  6
 19 21  1  0
 20 19  1  0
 21 23  1  0
 21 22  2  0
 23 24  1  0
 24 35  1  0
 24 25  1  1
 26 25  1  0
 27 26  2  0
 28 29  1  0
 28 27  1  0
 29 34  2  0
 30 29  1  0
 30 31  2  0
 31 32  1  0
 32 33  2  0
 34 26  1  0
 34 33  1  0
 35 37  1  0
 36 35  2  0
M  END
$$$$
