RRW.pdb
     RDKit          3D

 37 38  0  0  1  0  0  0  0  0999 V2000
    7.3611  -14.6204   14.3020 N   0  0  0  0  0  0  0  0  0  0  0  0
    8.0763  -13.3662   14.2230 C   0  0  0  0  0  0  0  0  0  0  0  0
    8.5384  -12.9465   13.1040 N   0  0  0  0  0  0  0  0  0  0  0  0
    8.2698  -12.5904   15.3944 N   0  0  0  0  0  0  0  0  0  0  0  0
    8.5304  -13.1980   16.6749 C   0  0  0  0  0  0  0  0  0  0  0  0
    7.3300  -13.9953   17.1371 C   0  0  0  0  0  0  0  0  0  0  0  0
    7.3442  -14.2115   18.6228 C   0  0  0  0  0  0  0  0  0  0  0  0
    8.6069  -14.8426   19.1002 C   0  0  2  0  0  0  0  0  0  0  0  0
    9.1242  -15.7215   18.0502 N   0  0  0  0  0  0  0  0  0  0  0  0
    8.4759  -15.6105   20.3627 C   0  0  0  0  0  0  0  0  0  0  0  0
    8.0185  -15.1043   21.4094 O   0  0  0  0  0  0  0  0  0  0  0  0
    8.9635  -12.0079   13.0199 N   0  0  0  0  0  0  0  0  0  0  0  0
   12.0001  -22.2558   21.5806 C   0  0  0  0  0  0  0  0  0  0  0  0
   11.7969  -22.1861   22.9848 N   0  0  0  0  0  0  0  0  0  0  0  0
   12.7651  -22.5962   23.7523 N   0  0  0  0  0  0  0  0  0  0  0  0
   10.5898  -21.6949   23.5460 C   0  0  0  0  0  0  0  0  0  0  0  0
    9.4607  -21.3838   22.7092 C   0  0  0  0  0  0  0  0  0  0  0  0
    9.0256  -19.9644   22.7463 C   0  0  0  0  0  0  0  0  0  0  0  0
    9.1554  -19.2063   21.4667 C   0  0  2  0  0  0  0  0  0  0  0  0
    8.8150  -17.7236   21.6912 N   0  0  0  0  0  0  0  0  0  0  0  0
    8.8666  -16.9811   20.4578 C   0  0  0  0  0  0  0  0  0  0  0  0
    9.6986  -17.1365   22.7299 O   0  0  0  0  0  0  0  0  0  0  0  0
   10.9221  -16.8895   22.5017 N   0  0  0  0  0  0  0  0  0  0  0  0
   12.6725  -22.5645   24.7796 C   0  0  2  0  0  0  0  0  0  0  0  0
    9.2493  -16.8103   24.0418 C   0  0  0  0  0  0  0  0  0  0  0  0
   10.1531  -16.3231   25.0642 C   0  0  0  0  0  0  0  0  0  0  0  0
    9.8907  -14.8683   25.3911 C   0  0  0  0  0  0  0  0  0  0  0  0
    8.4549  -14.6850   25.7186 N   0  0  0  0  0  0  0  0  0  0  0  0
    7.4375  -15.6399   25.7160 C   0  0  0  0  0  0  0  0  0  0  0  0
    6.2784  -15.0514   26.0748 C   0  0  0  0  0  0  0  0  0  0  0  0
    6.4692  -13.7459   26.3184 C   0  0  0  0  0  0  0  0  0  0  0  0
    5.6283  -12.7266   26.7061 C   0  0  0  0  0  0  0  0  0  0  0  0
    6.1643  -11.4707   26.8693 C   0  0  0  0  0  0  0  0  0  0  0  0
    7.5068  -11.2213   26.6546 C   0  0  0  0  0  0  0  0  0  0  0  0
    8.3249  -12.2573   26.2679 C   0  0  0  0  0  0  0  0  0  0  0  0
    7.8311  -13.5141   26.0960 O   0  0  0  0  0  0  0  0  0  0  0  0
    9.9717  -17.1426   26.2722 O   0  0  0  0  0  0  0  0  0  0  0  0
  2  3  2  0
  2  1  1  0
  4  2  1  0
  5  4  1  0
  6  5  1  0
  7  6  1  0
  8 10  1  0
  8  7  1  0
  8  9  1  6
 10 20  1  0
 10 11  2  0
 12 13  1  0
 13 14  2  0
 15 13  1  0
 16 15  1  0
 17 16  1  0
 18 17  1  0
 19 18  1  6
 19 21  1  0
 20 19  1  0
 21 23  1  0
 21 22  2  0
 23 24  1  0
 24 35  1  0
 24 25  1  1
 26 25  1  0
 27 26  2  0
 28 29  1  0
 28 27  1  0
 29 34  2  0
 30 29  1  0
 30 31  2  0
 31 32  1  0
 32 33  2  0
 34 26  1  0
 34 33  1  0
 35 37  1  0
 36 35  2  0
M  END
$$$$
