RRW.pdb
     RDKit          3D

 37 38  0  0  1  0  0  0  0  0999 V2000
    7.7338  -12.2201   14.8853 N   0  0  0  0  0  0  0  0  0  0  0  0
    8.2121  -13.1177   15.9130 C   0  0  0  0  0  0  0  0  0  0  0  0
    9.2504  -13.8423   15.7166 N   0  0  0  0  0  0  0  0  0  0  0  0
    7.5272  -13.1988   17.1523 N   0  0  0  0  0  0  0  0  0  0  0  0
    8.1620  -13.7113   18.3402 C   0  0  0  0  0  0  0  0  0  0  0  0
    8.6217  -15.1366   18.1223 C   0  0  0  0  0  0  0  0  0  0  0  0
    9.3464  -15.6770   19.3211 C   0  0  0  0  0  0  0  0  0  0  0  0
    9.0519  -17.1164   19.5708 C   0  0  2  0  0  0  0  0  0  0  0  0
    7.9678  -17.5395   18.6830 N   0  0  0  0  0  0  0  0  0  0  0  0
    8.6927  -17.4401   20.9732 C   0  0  0  0  0  0  0  0  0  0  0  0
    7.5779  -17.1566   21.4610 O   0  0  0  0  0  0  0  0  0  0  0  0
    9.6546  -14.4140   16.4773 N   0  0  0  0  0  0  0  0  0  0  0  0
   10.1856  -24.5052   25.8841 C   0  0  0  0  0  0  0  0  0  0  0  0
    9.0069  -24.1388   25.1811 N   0  0  0  0  0  0  0  0  0  0  0  0
    8.2269  -25.0991   24.7759 N   0  0  0  0  0  0  0  0  0  0  0  0
    8.6791  -22.7834   24.9186 C   0  0  0  0  0  0  0  0  0  0  0  0
    9.5877  -21.7238   25.2700 C   0  0  0  0  0  0  0  0  0  0  0  0
    9.1732  -20.3694   24.8238 C   0  0  0  0  0  0  0  0  0  0  0  0
    9.6327  -19.9591   23.4638 C   0  0  2  0  0  0  0  0  0  0  0  0
    9.2470  -18.4955   23.1923 N   0  0  0  0  0  0  0  0  0  0  0  0
    9.6039  -18.0987   21.8541 C   0  0  0  0  0  0  0  0  0  0  0  0
    9.8441  -17.5998   24.2147 O   0  0  0  0  0  0  0  0  0  0  0  0
   11.0280  -17.1575   24.1031 N   0  0  0  0  0  0  0  0  0  0  0  0
    7.3636  -24.8903   24.2504 C   0  0  1  0  0  0  0  0  0  0  0  0
    9.1460  -17.1743   25.3814 C   0  0  0  0  0  0  0  0  0  0  0  0
    9.7568  -16.3070   26.3684 C   0  0  0  0  0  0  0  0  0  0  0  0
    8.7250  -15.7223   27.3095 C   0  0  0  0  0  0  0  0  0  0  0  0
    7.7139  -14.9667   26.5291 N   0  0  0  0  0  0  0  0  0  0  0  0
    6.5451  -15.4440   25.9350 C   0  0  0  0  0  0  0  0  0  0  0  0
    5.9130  -14.4232   25.3210 C   0  0  0  0  0  0  0  0  0  0  0  0
    6.6022  -13.2823   25.4746 C   0  0  0  0  0  0  0  0  0  0  0  0
    6.3911  -11.9892   25.0510 C   0  0  0  0  0  0  0  0  0  0  0  0
    7.3214  -11.0354   25.3918 C   0  0  0  0  0  0  0  0  0  0  0  0
    8.4420  -11.3489   26.1378 C   0  0  0  0  0  0  0  0  0  0  0  0
    8.6289  -12.6483   26.5482 C   0  0  0  0  0  0  0  0  0  0  0  0
    7.7302  -13.6202   26.2305 O   0  0  0  0  0  0  0  0  0  0  0  0
   10.7362  -17.0934   27.1340 O   0  0  0  0  0  0  0  0  0  0  0  0
  2  3  2  0
  2  1  1  0
  4  2  1  0
  5  4  1  0
  6  5  1  0
  7  6  1  0
  8 10  1  0
  8  7  1  0
  8  9  1  6
 10 20  1  0
 10 11  2  0
 12 13  1  0
 13 14  2  0
 15 13  1  0
 16 15  1  0
 17 16  1  0
 18 17  1  0
 19 18  1  6
 19 21  1  0
 20 19  1  0
 21 23  1  0
 21 22  2  0
 23 24  1  0
 24 35  1  0
 24 25  1  1
 26 25  1  0
 27 26  2  0
 28 29  1  0
 28 27  1  0
 29 34  2  0
 30 29  1  0
 30 31  2  0
 31 32  1  0
 32 33  2  0
 34 26  1  0
 34 33  1  0
 35 37  1  0
 36 35  2  0
M  END
$$$$
