RRW.pdb
     RDKit          3D

 37 38  0  0  1  0  0  0  0  0999 V2000
    3.4144  -23.2994   15.9343 N   0  0  0  0  0  0  0  0  0  0  0  0
    4.0743  -23.5372   17.1987 C   0  0  0  0  0  0  0  0  0  0  0  0
    3.9493  -24.6616   17.8001 N   0  0  0  0  0  0  0  0  0  0  0  0
    4.8690  -22.5172   17.7815 N   0  0  0  0  0  0  0  0  0  0  0  0
    6.1632  -22.7936   18.3520 C   0  0  0  0  0  0  0  0  0  0  0  0
    6.0175  -23.3399   19.7558 C   0  0  0  0  0  0  0  0  0  0  0  0
    7.0791  -22.8060   20.6736 C   0  0  0  0  0  0  0  0  0  0  0  0
    6.6140  -21.6372   21.4727 C   0  0  2  0  0  0  0  0  0  0  0  0
    5.9654  -20.6783   20.5769 N   0  0  0  0  0  0  0  0  0  0  0  0
    7.6807  -20.9485   22.2397 C   0  0  0  0  0  0  0  0  0  0  0  0
    8.2044  -21.4508   23.2568 O   0  0  0  0  0  0  0  0  0  0  0  0
    4.5602  -24.9129   18.5954 N   0  0  0  0  0  0  0  0  0  0  0  0
   14.7041  -19.9696   22.3105 C   0  0  0  0  0  0  0  0  0  0  0  0
   14.6177  -20.3157   20.9356 N   0  0  0  0  0  0  0  0  0  0  0  0
   15.4761  -21.1817   20.4797 N   0  0  0  0  0  0  0  0  0  0  0  0
   13.6422  -19.7460   20.0770 C   0  0  0  0  0  0  0  0  0  0  0  0
   12.7996  -18.6704   20.5297 C   0  0  0  0  0  0  0  0  0  0  0  0
   11.8774  -19.0214   21.6395 C   0  0  0  0  0  0  0  0  0  0  0  0
   10.5546  -19.5853   21.2377 C   0  0  1  0  0  0  0  0  0  0  0  0
    9.4740  -19.1794   22.2536 N   0  0  0  0  0  0  0  0  0  0  0  0
    8.1755  -19.6636   21.8597 C   0  0  0  0  0  0  0  0  0  0  0  0
    9.4785  -17.7094   22.4616 O   0  0  0  0  0  0  0  0  0  0  0  0
    9.7320  -16.9034   21.5150 N   0  0  0  0  0  0  0  0  0  0  0  0
   15.4910  -21.4320   19.4787 C   0  0  2  0  0  0  0  0  0  0  0  0
    9.2033  -17.0993   23.7192 C   0  0  0  0  0  0  0  0  0  0  0  0
    9.2403  -15.6621   23.9001 C   0  0  0  0  0  0  0  0  0  0  0  0
    8.4909  -15.2389   25.1457 C   0  0  0  0  0  0  0  0  0  0  0  0
    9.1828  -15.7720   26.3455 N   0  0  0  0  0  0  0  0  0  0  0  0
    9.5420  -17.0914   26.6231 C   0  0  0  0  0  0  0  0  0  0  0  0
   10.1530  -17.1395   27.8244 C   0  0  0  0  0  0  0  0  0  0  0  0
   10.2212  -15.9143   28.3670 C   0  0  0  0  0  0  0  0  0  0  0  0
   10.7352  -15.4352   29.5513 C   0  0  0  0  0  0  0  0  0  0  0  0
   10.6360  -14.0867   29.8025 C   0  0  0  0  0  0  0  0  0  0  0  0
   10.0404  -13.2229   28.9027 C   0  0  0  0  0  0  0  0  0  0  0  0
    9.5350  -13.7276   27.7272 C   0  0  0  0  0  0  0  0  0  0  0  0
    9.6143  -15.0564   27.4430 O   0  0  0  0  0  0  0  0  0  0  0  0
   10.6468  -15.2436   24.0022 O   0  0  0  0  0  0  0  0  0  0  0  0
  2  3  2  0
  2  1  1  0
  4  2  1  0
  5  4  1  0
  6  5  1  0
  7  6  1  0
  8 10  1  0
  8  7  1  0
  8  9  1  6
 10 20  1  0
 10 11  2  0
 12 13  1  0
 13 14  2  0
 15 13  1  0
 16 15  1  0
 17 16  1  0
 18 17  1  0
 19 18  1  1
 19 21  1  0
 20 19  1  0
 21 23  1  0
 21 22  2  0
 23 24  1  0
 24 35  1  0
 24 25  1  6
 26 25  1  0
 27 26  2  0
 28 29  1  0
 28 27  1  0
 29 34  2  0
 30 29  1  0
 30 31  2  0
 31 32  1  0
 32 33  2  0
 34 26  1  0
 34 33  1  0
 35 37  1  0
 36 35  2  0
M  END
$$$$
