RRW.pdb
     RDKit          3D

 37 38  0  0  1  0  0  0  0  0999 V2000
    9.2341  -14.3449   16.6572 N   0  0  0  0  0  0  0  0  0  0  0  0
    8.4189  -13.2025   17.0051 C   0  0  0  0  0  0  0  0  0  0  0  0
    7.8033  -12.5383   16.0987 N   0  0  0  0  0  0  0  0  0  0  0  0
    8.2975  -12.8107   18.3628 N   0  0  0  0  0  0  0  0  0  0  0  0
    7.1112  -13.0898   19.1320 C   0  0  0  0  0  0  0  0  0  0  0  0
    6.9243  -14.5828   19.2946 C   0  0  0  0  0  0  0  0  0  0  0  0
    7.9009  -15.1620   20.2770 C   0  0  0  0  0  0  0  0  0  0  0  0
    7.7057  -16.6242   20.4882 C   0  0  2  0  0  0  0  0  0  0  0  0
    6.3219  -16.8630   20.9014 N   0  0  0  0  0  0  0  0  0  0  0  0
    8.6260  -17.2345   21.4787 C   0  0  0  0  0  0  0  0  0  0  0  0
    8.2598  -17.5385   22.6339 O   0  0  0  0  0  0  0  0  0  0  0  0
    7.1919  -11.7412   16.3428 N   0  0  0  0  0  0  0  0  0  0  0  0
   16.3988  -18.8270   20.3227 C   0  0  0  0  0  0  0  0  0  0  0  0
   16.5307  -19.1629   21.6966 N   0  0  0  0  0  0  0  0  0  0  0  0
   17.7077  -19.0297   22.2366 N   0  0  0  0  0  0  0  0  0  0  0  0
   15.4332  -19.6309   22.4645 C   0  0  0  0  0  0  0  0  0  0  0  0
   14.2168  -20.0607   21.8263 C   0  0  0  0  0  0  0  0  0  0  0  0
   12.9750  -19.4579   22.3741 C   0  0  0  0  0  0  0  0  0  0  0  0
   12.1509  -18.6685   21.4114 C   0  0  2  0  0  0  0  0  0  0  0  0
   10.8988  -18.1163   22.1129 N   0  0  0  0  0  0  0  0  0  0  0  0
    9.9925  -17.5126   21.1697 C   0  0  0  0  0  0  0  0  0  0  0  0
   11.2795  -17.1758   23.1968 O   0  0  0  0  0  0  0  0  0  0  0  0
   11.8084  -16.0500   22.9467 N   0  0  0  0  0  0  0  0  0  0  0  0
   17.8821  -19.3434   23.2041 C   0  0  2  0  0  0  0  0  0  0  0  0
   11.0841  -17.4595   24.5791 C   0  0  0  0  0  0  0  0  0  0  0  0
   10.7253  -16.4282   25.5316 C   0  0  0  0  0  0  0  0  0  0  0  0
    9.5118  -15.6468   25.0743 C   0  0  0  0  0  0  0  0  0  0  0  0
    9.2006  -14.5885   26.0672 N   0  0  0  0  0  0  0  0  0  0  0  0
    9.7975  -14.3630   27.3080 C   0  0  0  0  0  0  0  0  0  0  0  0
    9.2140  -13.2965   27.8916 C   0  0  0  0  0  0  0  0  0  0  0  0
    8.2530  -12.7948   27.1012 C   0  0  0  0  0  0  0  0  0  0  0  0
    7.3829  -11.7354   27.2315 C   0  0  0  0  0  0  0  0  0  0  0  0
    6.5007  -11.4911   26.2052 C   0  0  0  0  0  0  0  0  0  0  0  0
    6.4748  -12.2767   25.0683 C   0  0  0  0  0  0  0  0  0  0  0  0
    7.3547  -13.3288   24.9635 C   0  0  0  0  0  0  0  0  0  0  0  0
    8.2427  -13.6021   25.9584 O   0  0  0  0  0  0  0  0  0  0  0  0
   10.4428  -17.0694   26.8249 O   0  0  0  0  0  0  0  0  0  0  0  0
  2  3  2  0
  2  1  1  0
  4  2  1  0
  5  4  1  0
  6  5  1  0
  7  6  1  0
  8 10  1  0
  8  7  1  0
  8  9  1  1
 10 20  1  0
 10 11  2  0
 12 13  1  0
 13 14  2  0
 15 13  1  0
 16 15  1  0
 17 16  1  0
 18 17  1  0
 19 18  1  6
 19 21  1  0
 20 19  1  0
 21 23  1  0
 21 22  2  0
 23 24  1  0
 24 35  1  0
 24 25  1  6
 26 25  1  0
 27 26  2  0
 28 29  1  0
 28 27  1  0
 29 34  2  0
 30 29  1  0
 30 31  2  0
 31 32  1  0
 32 33  2  0
 34 26  1  0
 34 33  1  0
 35 37  1  0
 36 35  2  0
M  END
$$$$
