LCP.pdb
     RDKit          3D

 22 22  0  0  1  0  0  0  0  0999 V2000
    9.7861  -13.6381   19.9375 C   0  0  0  0  0  0  0  0  0  0  0  0
    8.5457  -13.9152   19.1039 C   0  0  2  0  0  0  0  0  0  0  0  0
    8.1453  -12.5755   18.4831 C   0  0  0  0  0  0  0  0  0  0  0  0
    7.3839  -14.3499   19.9657 C   0  0  0  0  0  0  0  0  0  0  0  0
    7.7493  -15.6475   20.6200 C   0  0  2  0  0  0  0  0  0  0  0  0
    7.3688  -16.7365   19.7647 N   0  0  0  0  0  0  0  0  0  0  0  0
    7.0880  -15.8091   21.9439 C   0  0  0  0  0  0  0  0  0  0  0  0
    5.8439  -16.0127   22.0381 O   0  0  0  0  0  0  0  0  0  0  0  0
    7.8291  -15.7400   23.1309 N   0  0  0  0  0  0  0  0  0  0  0  0
    7.2011  -15.8898   24.4698 C   0  0  1  0  0  0  0  0  0  0  0  0
    7.0753  -17.4064   24.6053 C   0  0  0  0  0  0  0  0  0  0  0  0
    6.5169  -17.8461   26.2781 S   0  0  0  0  0  0  0  0  0  0  0  0
    8.0883  -15.3575   25.5070 C   0  0  0  0  0  0  0  0  0  0  0  0
    9.0403  -16.2114   25.8141 O   0  0  0  0  0  0  0  0  0  0  0  0
    8.0586  -14.1290   26.1786 N   0  0  0  0  0  0  0  0  0  0  0  0
    7.2751  -13.0019   25.5501 C   0  0  0  0  0  0  0  0  0  0  0  0
    6.3656  -12.6888   26.7151 C   0  0  0  0  0  0  0  0  0  0  0  0
    7.1711  -12.9870   27.9536 C   0  0  0  0  0  0  0  0  0  0  0  0
    8.5046  -13.4598   27.3299 C   0  0  1  0  0  0  0  0  0  0  0  0
    9.3534  -14.0340   28.3172 C   0  0  0  0  0  0  0  0  0  0  0  0
   10.0336  -13.4307   29.1304 O   0  0  0  0  0  0  0  0  0  0  0  0
    9.4337  -15.4450   28.3830 O   0  0  0  0  0  0  0  0  0  0  0  0
  2  1  1  1
  2  3  1  0
  4  2  1  0
  5  4  1  0
  5  7  1  0
  5  6  1  6
  7  8  2  0
  7  9  1  0
  9 10  1  0
 10 11  1  1
 11 12  1  0
 13 10  1  0
 13 15  1  0
 14 13  2  0
 15 16  1  0
 17 16  1  0
 18 17  1  0
 19 18  1  0
 19 15  1  0
 19 20  1  1
 20 22  1  0
 21 20  2  0
M  END
$$$$
