LCP.pdb
     RDKit          3D

 22 22  0  0  1  0  0  0  0  0999 V2000
    0.9706  -28.2815   26.3753 C   0  0  0  0  0  0  0  0  0  0  0  0
    2.0390  -27.5889   27.2052 C   0  0  2  0  0  0  0  0  0  0  0  0
    2.2359  -28.4558   28.4501 C   0  0  0  0  0  0  0  0  0  0  0  0
    1.5721  -26.2386   27.6954 C   0  0  0  0  0  0  0  0  0  0  0  0
    1.2261  -25.4034   26.5004 C   0  0  2  0  0  0  0  0  0  0  0  0
    2.4339  -24.9360   25.8797 N   0  0  0  0  0  0  0  0  0  0  0  0
    0.3777  -24.2355   26.8640 C   0  0  0  0  0  0  0  0  0  0  0  0
    0.5129  -23.6430   27.9725 O   0  0  0  0  0  0  0  0  0  0  0  0
   -0.6010  -23.7560   25.9836 N   0  0  0  0  0  0  0  0  0  0  0  0
   -1.4618  -22.5894   26.3111 C   0  0  1  0  0  0  0  0  0  0  0  0
   -1.3889  -21.7582   25.0312 C   0  0  0  0  0  0  0  0  0  0  0  0
   -2.4080  -20.2619   25.1917 S   0  0  0  0  0  0  0  0  0  0  0  0
   -2.8378  -23.0288   26.5554 C   0  0  0  0  0  0  0  0  0  0  0  0
   -3.3771  -23.5528   25.4763 O   0  0  0  0  0  0  0  0  0  0  0  0
   -3.6129  -22.9675   27.7201 N   0  0  0  0  0  0  0  0  0  0  0  0
   -2.9206  -22.5890   29.0073 C   0  0  0  0  0  0  0  0  0  0  0  0
   -3.7927  -21.4164   29.3905 C   0  0  0  0  0  0  0  0  0  0  0  0
   -5.1690  -21.7442   28.8710 C   0  0  0  0  0  0  0  0  0  0  0  0
   -4.9162  -23.1235   28.2194 C   0  0  1  0  0  0  0  0  0  0  0  0
   -6.0342  -23.5307   27.4389 C   0  0  0  0  0  0  0  0  0  0  0  0
   -6.7846  -24.4628   27.6757 O   0  0  0  0  0  0  0  0  0  0  0  0
   -6.3259  -22.7966   26.2651 O   0  0  0  0  0  0  0  0  0  0  0  0
  2  1  1  6
  2  3  1  0
  4  2  1  0
  5  4  1  0
  5  7  1  0
  5  6  1  1
  7  8  2  0
  7  9  1  0
  9 10  1  0
 10 11  1  6
 11 12  1  0
 13 10  1  0
 13 15  1  0
 14 13  2  0
 15 16  1  0
 17 16  1  0
 18 17  1  0
 19 18  1  0
 19 15  1  0
 19 20  1  6
 20 22  1  0
 21 20  2  0
M  END
$$$$
