LCP.pdb
     RDKit          3D

 22 22  0  0  1  0  0  0  0  0999 V2000
    9.5199  -13.2516   20.1712 C   0  0  0  0  0  0  0  0  0  0  0  0
    8.2604  -13.5083   19.3602 C   0  0  2  0  0  0  0  0  0  0  0  0
    7.7978  -12.1411   18.8531 C   0  0  0  0  0  0  0  0  0  0  0  0
    7.1431  -14.0427   20.2249 C   0  0  0  0  0  0  0  0  0  0  0  0
    7.6003  -15.3350   20.8304 C   0  0  2  0  0  0  0  0  0  0  0  0
    7.1263  -16.4299   20.0311 N   0  0  0  0  0  0  0  0  0  0  0  0
    7.1114  -15.4992   22.2269 C   0  0  0  0  0  0  0  0  0  0  0  0
    5.8775  -15.5905   22.4863 O   0  0  0  0  0  0  0  0  0  0  0  0
    8.0095  -15.5579   23.3006 N   0  0  0  0  0  0  0  0  0  0  0  0
    7.5741  -15.8845   24.6838 C   0  0  1  0  0  0  0  0  0  0  0  0
    7.1210  -17.3375   24.5507 C   0  0  0  0  0  0  0  0  0  0  0  0
    6.7748  -18.0431   26.1896 S   0  0  0  0  0  0  0  0  0  0  0  0
    8.7074  -15.7869   25.6071 C   0  0  0  0  0  0  0  0  0  0  0  0
    9.5191  -16.8148   25.4870 O   0  0  0  0  0  0  0  0  0  0  0  0
    9.0233  -14.8000   26.5491 N   0  0  0  0  0  0  0  0  0  0  0  0
    8.5256  -13.3978   26.2937 C   0  0  0  0  0  0  0  0  0  0  0  0
    7.7807  -13.1880   27.5912 C   0  0  0  0  0  0  0  0  0  0  0  0
    8.5396  -13.9744   28.6292 C   0  0  0  0  0  0  0  0  0  0  0  0
    9.6780  -14.5724   27.7705 C   0  0  1  0  0  0  0  0  0  0  0  0
   10.3965  -15.5634   28.4961 C   0  0  0  0  0  0  0  0  0  0  0  0
   11.3041  -15.3691   29.2875 O   0  0  0  0  0  0  0  0  0  0  0  0
   10.0413  -16.9184   28.2972 O   0  0  0  0  0  0  0  0  0  0  0  0
  2  1  1  1
  2  3  1  0
  4  2  1  0
  5  4  1  0
  5  7  1  0
  5  6  1  6
  7  8  2  0
  7  9  1  0
  9 10  1  0
 10 11  1  6
 11 12  1  0
 13 10  1  0
 13 15  1  0
 14 13  2  0
 15 16  1  0
 17 16  1  0
 18 17  1  0
 19 18  1  0
 19 15  1  0
 19 20  1  1
 20 22  1  0
 21 20  2  0
M  END
$$$$
