LCP.pdb
     RDKit          3D

 22 22  0  0  1  0  0  0  0  0999 V2000
    5.9450  -12.3421   25.6017 C   0  0  0  0  0  0  0  0  0  0  0  0
    6.5105  -13.0091   26.8448 C   0  0  2  0  0  0  0  0  0  0  0  0
    7.3824  -11.9556   27.5307 C   0  0  0  0  0  0  0  0  0  0  0  0
    7.4271  -14.1562   26.4906 C   0  0  0  0  0  0  0  0  0  0  0  0
    6.6831  -15.0817   25.5766 C   0  0  2  0  0  0  0  0  0  0  0  0
    5.8630  -15.9652   26.3572 N   0  0  0  0  0  0  0  0  0  0  0  0
    7.6047  -15.8878   24.7298 C   0  0  0  0  0  0  0  0  0  0  0  0
    8.0868  -16.9825   25.1388 O   0  0  0  0  0  0  0  0  0  0  0  0
    7.9668  -15.4544   23.4476 N   0  0  0  0  0  0  0  0  0  0  0  0
    8.8686  -16.2427   22.5675 C   0  0  1  0  0  0  0  0  0  0  0  0
    8.6171  -15.6180   21.1960 C   0  0  0  0  0  0  0  0  0  0  0  0
    6.9208  -15.9677   20.6450 S   0  0  0  0  0  0  0  0  0  0  0  0
   10.2641  -16.0472   22.9681 C   0  0  0  0  0  0  0  0  0  0  0  0
   10.6423  -14.7975   22.8098 O   0  0  0  0  0  0  0  0  0  0  0  0
   11.1977  -16.9634   23.4683 N   0  0  0  0  0  0  0  0  0  0  0  0
   10.6779  -18.1285   24.2755 C   0  0  0  0  0  0  0  0  0  0  0  0
   11.2911  -19.2481   23.4675 C   0  0  0  0  0  0  0  0  0  0  0  0
   12.5887  -18.7008   22.9307 C   0  0  0  0  0  0  0  0  0  0  0  0
   12.5676  -17.2691   23.5144 C   0  0  1  0  0  0  0  0  0  0  0  0
   13.5915  -16.4680   22.9358 C   0  0  0  0  0  0  0  0  0  0  0  0
   14.7173  -16.2999   23.3742 O   0  0  0  0  0  0  0  0  0  0  0  0
   13.2992  -15.7877   21.7302 O   0  0  0  0  0  0  0  0  0  0  0  0
  2  1  1  6
  2  3  1  0
  4  2  1  0
  5  4  1  0
  5  7  1  0
  5  6  1  1
  7  8  2  0
  7  9  1  0
  9 10  1  0
 10 11  1  6
 11 12  1  0
 13 10  1  0
 13 15  1  0
 14 13  2  0
 15 16  1  0
 17 16  1  0
 18 17  1  0
 19 18  1  0
 19 15  1  0
 19 20  1  6
 20 22  1  0
 21 20  2  0
M  END
$$$$
