LCP.pdb
     RDKit          3D

 22 22  0  0  1  0  0  0  0  0999 V2000
    8.8152  -19.5651   26.5799 C   0  0  0  0  0  0  0  0  0  0  0  0
    9.0208  -20.2550   25.2413 C   0  0  2  0  0  0  0  0  0  0  0  0
   10.5046  -20.0938   24.9058 C   0  0  0  0  0  0  0  0  0  0  0  0
    8.2565  -19.5631   24.1374 C   0  0  0  0  0  0  0  0  0  0  0  0
    6.9385  -19.1162   24.6928 C   0  0  2  0  0  0  0  0  0  0  0  0
    5.9116  -20.0305   24.2780 N   0  0  0  0  0  0  0  0  0  0  0  0
    6.5824  -17.7421   24.2443 C   0  0  0  0  0  0  0  0  0  0  0  0
    5.9075  -17.5465   23.1935 O   0  0  0  0  0  0  0  0  0  0  0  0
    6.9869  -16.6191   24.9778 N   0  0  0  0  0  0  0  0  0  0  0  0
    6.9641  -15.2467   24.4073 C   0  0  1  0  0  0  0  0  0  0  0  0
    7.1420  -14.3726   25.6477 C   0  0  0  0  0  0  0  0  0  0  0  0
    7.2539  -12.6213   25.1746 S   0  0  0  0  0  0  0  0  0  0  0  0
    8.0901  -15.0622   23.4883 C   0  0  0  0  0  0  0  0  0  0  0  0
    9.2412  -15.2935   24.0812 O   0  0  0  0  0  0  0  0  0  0  0  0
    8.1033  -14.6917   22.1379 N   0  0  0  0  0  0  0  0  0  0  0  0
    6.7798  -14.6181   21.4152 C   0  0  0  0  0  0  0  0  0  0  0  0
    6.8760  -13.1931   20.9228 C   0  0  0  0  0  0  0  0  0  0  0  0
    8.3423  -12.9437   20.6786 C   0  0  0  0  0  0  0  0  0  0  0  0
    8.9435  -14.3108   21.0791 C   0  0  1  0  0  0  0  0  0  0  0  0
   10.3622  -14.2385   21.1627 C   0  0  0  0  0  0  0  0  0  0  0  0
   11.1314  -13.9807   20.2519 O   0  0  0  0  0  0  0  0  0  0  0  0
   10.9657  -14.4865   22.4181 O   0  0  0  0  0  0  0  0  0  0  0  0
  2  1  1  1
  2  3  1  0
  4  2  1  0
  5  4  1  0
  5  7  1  0
  5  6  1  6
  7  8  2  0
  7  9  1  0
  9 10  1  0
 10 11  1  1
 11 12  1  0
 13 10  1  0
 13 15  1  0
 14 13  2  0
 15 16  1  0
 17 16  1  0
 18 17  1  0
 19 18  1  0
 19 15  1  0
 19 20  1  1
 20 22  1  0
 21 20  2  0
M  END
$$$$
