LCP.pdb
     RDKit          3D

 22 22  0  0  1  0  0  0  0  0999 V2000
    9.3697  -20.1914   25.4057 C   0  0  0  0  0  0  0  0  0  0  0  0
    8.8481  -20.6779   24.0636 C   0  0  2  0  0  0  0  0  0  0  0  0
   10.0831  -21.0263   23.2308 C   0  0  0  0  0  0  0  0  0  0  0  0
    8.1268  -19.5801   23.3178 C   0  0  0  0  0  0  0  0  0  0  0  0
    7.0223  -19.0705   24.1929 C   0  0  2  0  0  0  0  0  0  0  0  0
    5.8547  -19.8865   24.0108 N   0  0  0  0  0  0  0  0  0  0  0  0
    6.6821  -17.6529   23.8914 C   0  0  0  0  0  0  0  0  0  0  0  0
    5.7971  -17.3550   23.0393 O   0  0  0  0  0  0  0  0  0  0  0  0
    7.3363  -16.6016   24.5467 N   0  0  0  0  0  0  0  0  0  0  0  0
    7.2399  -15.1929   24.0822 C   0  0  1  0  0  0  0  0  0  0  0  0
    7.4935  -14.4057   25.3668 C   0  0  0  0  0  0  0  0  0  0  0  0
    7.5936  -12.6268   25.0073 S   0  0  0  0  0  0  0  0  0  0  0  0
    8.2875  -14.9122   23.0974 C   0  0  0  0  0  0  0  0  0  0  0  0
    9.4879  -15.1000   23.6012 O   0  0  0  0  0  0  0  0  0  0  0  0
    8.1867  -14.4926   21.7652 N   0  0  0  0  0  0  0  0  0  0  0  0
    6.8112  -14.4429   21.1450 C   0  0  0  0  0  0  0  0  0  0  0  0
    6.8202  -12.9983   20.7030 C   0  0  0  0  0  0  0  0  0  0  0  0
    8.2544  -12.6848   20.3617 C   0  0  0  0  0  0  0  0  0  0  0  0
    8.9315  -14.0418   20.6632 C   0  0  1  0  0  0  0  0  0  0  0  0
   10.3490  -13.9189   20.6453 C   0  0  0  0  0  0  0  0  0  0  0  0
   11.0399  -13.6152   19.6869 O   0  0  0  0  0  0  0  0  0  0  0  0
   11.0514  -14.1688   21.8478 O   0  0  0  0  0  0  0  0  0  0  0  0
  2  1  1  1
  2  3  1  0
  4  2  1  0
  5  4  1  0
  5  7  1  0
  5  6  1  6
  7  8  2  0
  7  9  1  0
  9 10  1  0
 10 11  1  1
 11 12  1  0
 13 10  1  0
 13 15  1  0
 14 13  2  0
 15 16  1  0
 17 16  1  0
 18 17  1  0
 19 18  1  0
 19 15  1  0
 19 20  1  1
 20 22  1  0
 21 20  2  0
M  END
$$$$
