LCP.pdb
     RDKit          3D

 22 22  0  0  1  0  0  0  0  0999 V2000
    9.6210  -13.3965   20.0810 C   0  0  0  0  0  0  0  0  0  0  0  0
    8.5013  -13.7441   19.1138 C   0  0  2  0  0  0  0  0  0  0  0  0
    8.0734  -12.4240   18.4700 C   0  0  0  0  0  0  0  0  0  0  0  0
    7.2882  -14.2780   19.8383 C   0  0  0  0  0  0  0  0  0  0  0  0
    7.7023  -15.4982   20.6032 C   0  0  2  0  0  0  0  0  0  0  0  0
    7.3448  -16.6724   19.8576 N   0  0  0  0  0  0  0  0  0  0  0  0
    7.0634  -15.5567   21.9465 C   0  0  0  0  0  0  0  0  0  0  0  0
    5.8142  -15.7010   22.0760 O   0  0  0  0  0  0  0  0  0  0  0  0
    7.8321  -15.4529   23.1133 N   0  0  0  0  0  0  0  0  0  0  0  0
    7.2783  -15.7544   24.4593 C   0  0  1  0  0  0  0  0  0  0  0  0
    7.0174  -17.2575   24.3777 C   0  0  0  0  0  0  0  0  0  0  0  0
    6.6438  -17.9235   26.0270 S   0  0  0  0  0  0  0  0  0  0  0  0
    8.2757  -15.4658   25.4928 C   0  0  0  0  0  0  0  0  0  0  0  0
    9.2177  -16.3831   25.5255 O   0  0  0  0  0  0  0  0  0  0  0  0
    8.3545  -14.4029   26.4011 N   0  0  0  0  0  0  0  0  0  0  0  0
    7.6191  -13.1293   26.0599 C   0  0  0  0  0  0  0  0  0  0  0  0
    6.7829  -13.0146   27.3129 C   0  0  0  0  0  0  0  0  0  0  0  0
    7.6203  -13.6056   28.4180 C   0  0  0  0  0  0  0  0  0  0  0  0
    8.8922  -14.0113   27.6380 C   0  0  1  0  0  0  0  0  0  0  0  0
    9.7440  -14.8223   28.4389 C   0  0  0  0  0  0  0  0  0  0  0  0
    9.8660  -16.0342   28.3727 O   0  0  0  0  0  0  0  0  0  0  0  0
   10.5399  -14.1825   29.4182 O   0  0  0  0  0  0  0  0  0  0  0  0
  2  1  1  1
  2  3  1  0
  4  2  1  0
  5  4  1  0
  5  7  1  0
  5  6  1  6
  7  8  2  0
  7  9  1  0
  9 10  1  0
 10 11  1  6
 11 12  1  0
 13 10  1  0
 13 15  1  0
 14 13  2  0
 15 16  1  0
 17 16  1  0
 18 17  1  0
 19 18  1  0
 19 15  1  0
 19 20  1  1
 20 22  1  0
 21 20  2  0
M  END
$$$$
