LCP.pdb
     RDKit          3D

 22 22  0  0  1  0  0  0  0  0999 V2000
    9.1855  -14.3210   18.6571 C   0  0  0  0  0  0  0  0  0  0  0  0
    7.8316  -13.8599   19.1713 C   0  0  2  0  0  0  0  0  0  0  0  0
    7.4325  -12.6668   18.3010 C   0  0  0  0  0  0  0  0  0  0  0  0
    7.9230  -13.3428   20.5876 C   0  0  0  0  0  0  0  0  0  0  0  0
    8.3685  -14.4710   21.4674 C   0  0  2  0  0  0  0  0  0  0  0  0
    7.4651  -15.5773   21.3183 N   0  0  0  0  0  0  0  0  0  0  0  0
    8.4227  -14.0716   22.9005 C   0  0  0  0  0  0  0  0  0  0  0  0
    9.1100  -13.0819   23.2828 O   0  0  0  0  0  0  0  0  0  0  0  0
    7.7096  -14.7848   23.8730 N   0  0  0  0  0  0  0  0  0  0  0  0
    7.6938  -14.3801   25.3031 C   0  0  1  0  0  0  0  0  0  0  0  0
    6.2170  -14.5223   25.6681 C   0  0  0  0  0  0  0  0  0  0  0  0
    5.7606  -13.3037   26.9370 S   0  0  0  0  0  0  0  0  0  0  0  0
    8.5064  -15.3034   26.0991 C   0  0  0  0  0  0  0  0  0  0  0  0
    8.1238  -16.5508   25.9331 O   0  0  0  0  0  0  0  0  0  0  0  0
    9.5762  -15.0486   26.9660 N   0  0  0  0  0  0  0  0  0  0  0  0
   10.2212  -13.6849   26.9064 C   0  0  0  0  0  0  0  0  0  0  0  0
   10.0685  -13.3046   28.3605 C   0  0  0  0  0  0  0  0  0  0  0  0
   10.1633  -14.5958   29.1323 C   0  0  0  0  0  0  0  0  0  0  0  0
   10.3646  -15.6107   27.9832 C   0  0  1  0  0  0  0  0  0  0  0  0
   10.2369  -16.9469   28.4557 C   0  0  0  0  0  0  0  0  0  0  0  0
   11.1398  -17.6701   28.8425 O   0  0  0  0  0  0  0  0  0  0  0  0
    8.9425  -17.5170   28.4902 O   0  0  0  0  0  0  0  0  0  0  0  0
  2  1  1  6
  2  3  1  0
  4  2  1  0
  5  4  1  0
  5  7  1  0
  5  6  1  1
  7  8  2  0
  7  9  1  0
  9 10  1  0
 10 11  1  1
 11 12  1  0
 13 10  1  0
 13 15  1  0
 14 13  2  0
 15 16  1  0
 17 16  1  0
 18 17  1  0
 19 18  1  0
 19 15  1  0
 19 20  1  1
 20 22  1  0
 21 20  2  0
M  END
$$$$
