LCP.pdb
     RDKit          3D

 22 22  0  0  1  0  0  0  0  0999 V2000
    7.1766  -17.8559   20.1485 C   0  0  0  0  0  0  0  0  0  0  0  0
    8.6790  -17.6671   20.2799 C   0  0  2  0  0  0  0  0  0  0  0  0
    9.2642  -19.0648   20.4900 C   0  0  0  0  0  0  0  0  0  0  0  0
    9.0319  -16.8676   21.5118 C   0  0  0  0  0  0  0  0  0  0  0  0
    8.4260  -15.5042   21.3716 C   0  0  2  0  0  0  0  0  0  0  0  0
    9.0267  -14.8280   20.2561 N   0  0  0  0  0  0  0  0  0  0  0  0
    8.6106  -14.6838   22.6001 C   0  0  0  0  0  0  0  0  0  0  0  0
    9.6750  -14.0328   22.8034 O   0  0  0  0  0  0  0  0  0  0  0  0
    7.6046  -14.6087   23.5722 N   0  0  0  0  0  0  0  0  0  0  0  0
    7.7991  -13.8996   24.8640 C   0  0  1  0  0  0  0  0  0  0  0  0
    6.3749  -13.4821   25.2269 C   0  0  0  0  0  0  0  0  0  0  0  0
    6.3229  -12.8217   26.9194 S   0  0  0  0  0  0  0  0  0  0  0  0
    8.3322  -14.8204   25.8712 C   0  0  0  0  0  0  0  0  0  0  0  0
    7.6597  -15.9504   25.8977 O   0  0  0  0  0  0  0  0  0  0  0  0
    9.4025  -14.6656   26.7609 N   0  0  0  0  0  0  0  0  0  0  0  0
   10.2109  -13.3935   26.6752 C   0  0  0  0  0  0  0  0  0  0  0  0
   10.0684  -12.9441   28.1105 C   0  0  0  0  0  0  0  0  0  0  0  0
    9.9845  -14.2079   28.9275 C   0  0  0  0  0  0  0  0  0  0  0  0
   10.0895  -15.2814   27.8197 C   0  0  1  0  0  0  0  0  0  0  0  0
    9.7871  -16.5739   28.3325 C   0  0  0  0  0  0  0  0  0  0  0  0
    8.7608  -17.2068   28.1480 O   0  0  0  0  0  0  0  0  0  0  0  0
   10.7584  -17.2103   29.1407 O   0  0  0  0  0  0  0  0  0  0  0  0
  2  1  1  1
  2  3  1  0
  4  2  1  0
  5  4  1  0
  5  7  1  0
  5  6  1  6
  7  8  2  0
  7  9  1  0
  9 10  1  0
 10 11  1  1
 11 12  1  0
 13 10  1  0
 13 15  1  0
 14 13  2  0
 15 16  1  0
 17 16  1  0
 18 17  1  0
 19 18  1  0
 19 15  1  0
 19 20  1  1
 20 22  1  0
 21 20  2  0
M  END
$$$$
