LCP.pdb
     RDKit          3D

 22 22  0  0  1  0  0  0  0  0999 V2000
    9.6831  -13.4295   20.0100 C   0  0  0  0  0  0  0  0  0  0  0  0
    8.5945  -13.7220   18.9904 C   0  0  2  0  0  0  0  0  0  0  0  0
    8.1629  -12.3650   18.4313 C   0  0  0  0  0  0  0  0  0  0  0  0
    7.3715  -14.3232   19.6418 C   0  0  0  0  0  0  0  0  0  0  0  0
    7.8018  -15.5349   20.4112 C   0  0  2  0  0  0  0  0  0  0  0  0
    7.5091  -16.7144   19.6459 N   0  0  0  0  0  0  0  0  0  0  0  0
    7.1218  -15.6261   21.7324 C   0  0  0  0  0  0  0  0  0  0  0  0
    5.8842  -15.8680   21.8208 O   0  0  0  0  0  0  0  0  0  0  0  0
    7.8375  -15.4454   22.9232 N   0  0  0  0  0  0  0  0  0  0  0  0
    7.2166  -15.6352   24.2603 C   0  0  1  0  0  0  0  0  0  0  0  0
    7.0649  -17.1535   24.3390 C   0  0  0  0  0  0  0  0  0  0  0  0
    6.5575  -17.6508   26.0120 S   0  0  0  0  0  0  0  0  0  0  0  0
    8.1205  -15.1584   25.3100 C   0  0  0  0  0  0  0  0  0  0  0  0
    9.1507  -15.9616   25.4628 O   0  0  0  0  0  0  0  0  0  0  0  0
    8.0375  -14.0248   26.1280 N   0  0  0  0  0  0  0  0  0  0  0  0
    7.2575  -12.8397   25.6117 C   0  0  0  0  0  0  0  0  0  0  0  0
    6.2941  -12.6896   26.7657 C   0  0  0  0  0  0  0  0  0  0  0  0
    7.0537  -13.1288   27.9912 C   0  0  0  0  0  0  0  0  0  0  0  0
    8.4214  -13.4988   27.3722 C   0  0  1  0  0  0  0  0  0  0  0  0
    9.2403  -14.1795   28.3162 C   0  0  0  0  0  0  0  0  0  0  0  0
    9.4151  -15.3844   28.3910 O   0  0  0  0  0  0  0  0  0  0  0  0
    9.9322  -13.4028   29.2753 O   0  0  0  0  0  0  0  0  0  0  0  0
  2  1  1  1
  2  3  1  0
  4  2  1  0
  5  4  1  0
  5  7  1  0
  5  6  1  6
  7  8  2  0
  7  9  1  0
  9 10  1  0
 10 11  1  1
 11 12  1  0
 13 10  1  0
 13 15  1  0
 14 13  2  0
 15 16  1  0
 17 16  1  0
 18 17  1  0
 19 18  1  0
 19 15  1  0
 19 20  1  1
 20 22  1  0
 21 20  2  0
M  END
$$$$
