LCP.pdb
     RDKit          3D

 22 22  0  0  1  0  0  0  0  0999 V2000
    7.8527  -12.7966   20.7845 C   0  0  0  0  0  0  0  0  0  0  0  0
    8.4690  -13.2957   19.4879 C   0  0  2  0  0  0  0  0  0  0  0  0
    7.9236  -12.3884   18.3835 C   0  0  0  0  0  0  0  0  0  0  0  0
    8.0070  -14.6951   19.1567 C   0  0  0  0  0  0  0  0  0  0  0  0
    8.4449  -15.6044   20.2644 C   0  0  2  0  0  0  0  0  0  0  0  0
    8.3921  -16.9665   19.8121 N   0  0  0  0  0  0  0  0  0  0  0  0
    7.5928  -15.4564   21.4761 C   0  0  0  0  0  0  0  0  0  0  0  0
    6.3311  -15.4810   21.4010 O   0  0  0  0  0  0  0  0  0  0  0  0
    8.1674  -15.2845   22.7423 N   0  0  0  0  0  0  0  0  0  0  0  0
    7.3724  -15.3763   23.9949 C   0  0  1  0  0  0  0  0  0  0  0  0
    6.9278  -16.8381   23.9950 C   0  0  0  0  0  0  0  0  0  0  0  0
    6.2750  -17.2988   25.6275 S   0  0  0  0  0  0  0  0  0  0  0  0
    8.2236  -15.1027   25.1554 C   0  0  0  0  0  0  0  0  0  0  0  0
    9.0892  -16.0716   25.3596 O   0  0  0  0  0  0  0  0  0  0  0  0
    8.2367  -14.0080   26.0286 N   0  0  0  0  0  0  0  0  0  0  0  0
    7.6818  -12.6979   25.5235 C   0  0  0  0  0  0  0  0  0  0  0  0
    6.6569  -12.4595   26.6076 C   0  0  0  0  0  0  0  0  0  0  0  0
    7.2398  -13.0622   27.8601 C   0  0  0  0  0  0  0  0  0  0  0  0
    8.5869  -13.6024   27.3267 C   0  0  1  0  0  0  0  0  0  0  0  0
    9.2170  -14.4396   28.2895 C   0  0  0  0  0  0  0  0  0  0  0  0
    9.1144  -15.6519   28.3763 O   0  0  0  0  0  0  0  0  0  0  0  0
   10.0519  -13.8282   29.2544 O   0  0  0  0  0  0  0  0  0  0  0  0
  2  1  1  1
  2  3  1  0
  4  2  1  0
  5  4  1  0
  5  7  1  0
  5  6  1  6
  7  8  2  0
  7  9  1  0
  9 10  1  0
 10 11  1  1
 11 12  1  0
 13 10  1  0
 13 15  1  0
 14 13  2  0
 15 16  1  0
 17 16  1  0
 18 17  1  0
 19 18  1  0
 19 15  1  0
 19 20  1  1
 20 22  1  0
 21 20  2  0
M  END
$$$$
