LCP.pdb
     RDKit          3D

 22 22  0  0  1  0  0  0  0  0999 V2000
    9.8744  -12.9673   19.6851 C   0  0  0  0  0  0  0  0  0  0  0  0
    8.5630  -13.4999   19.1314 C   0  0  2  0  0  0  0  0  0  0  0  0
    7.9826  -12.3790   18.2669 C   0  0  0  0  0  0  0  0  0  0  0  0
    7.5589  -13.7537   20.2308 C   0  0  0  0  0  0  0  0  0  0  0  0
    8.1821  -14.6864   21.2244 C   0  0  2  0  0  0  0  0  0  0  0  0
    7.7634  -16.0312   20.9436 N   0  0  0  0  0  0  0  0  0  0  0  0
    7.8106  -14.3389   22.6234 C   0  0  0  0  0  0  0  0  0  0  0  0
    6.9239  -13.4733   22.8738 O   0  0  0  0  0  0  0  0  0  0  0  0
    8.4363  -14.9644   23.7098 N   0  0  0  0  0  0  0  0  0  0  0  0
    7.9284  -14.8365   25.1009 C   0  0  1  0  0  0  0  0  0  0  0  0
    6.5729  -15.5368   25.0210 C   0  0  0  0  0  0  0  0  0  0  0  0
    5.7694  -15.5440   26.6512 S   0  0  0  0  0  0  0  0  0  0  0  0
    8.8134  -15.5441   26.0295 C   0  0  0  0  0  0  0  0  0  0  0  0
    8.7002  -16.8487   25.9065 O   0  0  0  0  0  0  0  0  0  0  0  0
    9.7131  -15.0440   26.9790 N   0  0  0  0  0  0  0  0  0  0  0  0
   10.1525  -13.6060   26.8435 C   0  0  0  0  0  0  0  0  0  0  0  0
    9.7590  -13.1242   28.2203 C   0  0  0  0  0  0  0  0  0  0  0  0
    9.9425  -14.3080   29.1349 C   0  0  0  0  0  0  0  0  0  0  0  0
   10.4376  -15.3782   28.1347 C   0  0  1  0  0  0  0  0  0  0  0  0
   10.4482  -16.6689   28.7335 C   0  0  0  0  0  0  0  0  0  0  0  0
   11.3436  -17.1496   29.4081 O   0  0  0  0  0  0  0  0  0  0  0  0
    9.3176  -17.4978   28.5420 O   0  0  0  0  0  0  0  0  0  0  0  0
  2  1  1  1
  2  3  1  0
  4  2  1  0
  5  4  1  0
  5  7  1  0
  5  6  1  6
  7  8  2  0
  7  9  1  0
  9 10  1  0
 10 11  1  6
 11 12  1  0
 13 10  1  0
 13 15  1  0
 14 13  2  0
 15 16  1  0
 17 16  1  0
 18 17  1  0
 19 18  1  0
 19 15  1  0
 19 20  1  1
 20 22  1  0
 21 20  2  0
M  END
$$$$
