QFM.pdb
     RDKit          3D

 29 29  0  0  1  0  0  0  0  0999 V2000
   23.7575  -28.6274  -18.5518 N   0  0  0  0  0  0  0  0  0  0  0  0
   23.1943  -27.4808  -19.1571 C   0  0  0  0  0  0  0  0  0  0  0  0
   22.7008  -27.5789  -20.3028 O   0  0  0  0  0  0  0  0  0  0  0  0
   23.1676  -26.1654  -18.4829 C   0  0  0  0  0  0  0  0  0  0  0  0
   23.6887  -26.2517  -17.0640 C   0  0  0  0  0  0  0  0  0  0  0  0
   25.1405  -25.8351  -17.0996 C   0  0  2  0  0  0  0  0  0  0  0  0
   25.9342  -27.0355  -16.9248 N   0  0  0  0  0  0  0  0  0  0  0  0
   25.4835  -24.9023  -15.9996 C   0  0  0  0  0  0  0  0  0  0  0  0
   25.3448  -25.2311  -14.8092 O   0  0  0  0  0  0  0  0  0  0  0  0
   25.9850  -23.5944  -16.2777 N   0  0  0  0  0  0  0  0  0  0  0  0
   26.2689  -22.6367  -15.2152 C   0  0  1  0  0  0  0  0  0  0  0  0
   27.0879  -21.5239  -15.8790 C   0  0  0  0  0  0  0  0  0  0  0  0
   27.4112  -20.4560  -14.9185 C   0  0  0  0  0  0  0  0  0  0  0  0
   28.5072  -20.5465  -14.0793 C   0  0  0  0  0  0  0  0  0  0  0  0
   28.8026  -19.5318  -13.1761 C   0  0  0  0  0  0  0  0  0  0  0  0
   28.0088  -18.4175  -13.1006 C   0  0  0  0  0  0  0  0  0  0  0  0
   26.9260  -18.3128  -13.9197 C   0  0  0  0  0  0  0  0  0  0  0  0
   26.6283  -19.3264  -14.8241 C   0  0  0  0  0  0  0  0  0  0  0  0
   25.0359  -22.1028  -14.6124 C   0  0  0  0  0  0  0  0  0  0  0  0
   23.9250  -22.0618  -15.2435 O   0  0  0  0  0  0  0  0  0  0  0  0
   21.9742  -20.6891   -7.3510 C   0  0  0  0  0  0  0  0  0  0  0  0
   23.3102  -21.1014   -8.4432 S   0  0  0  0  0  0  0  0  0  0  0  0
   23.0244  -20.9144  -10.1880 C   0  0  0  0  0  0  0  0  0  0  0  0
   24.1371  -21.3012  -11.0895 C   0  0  0  0  0  0  0  0  0  0  0  0
   23.9240  -21.1515  -12.5464 C   0  0  2  0  0  0  0  0  0  0  0  0
   25.0789  -21.6153  -13.2816 N   0  0  0  0  0  0  0  0  0  0  0  0
   23.4605  -19.8323  -12.9716 C   0  0  0  0  0  0  0  0  0  0  0  0
   24.2802  -18.9639  -13.3366 O   0  0  0  0  0  0  0  0  0  0  0  0
   22.1150  -19.4898  -12.9893 O   0  0  0  0  0  0  0  0  0  0  0  0
  2  3  2  0
  2  1  1  0
  4  2  1  0
  5  4  1  0
  5  6  1  0
  6  8  1  0
  6  7  1  1
  8  9  2  0
 10 11  1  0
 10  8  1  0
 11 12  1  6
 12 13  1  0
 13 18  2  0
 14 15  2  0
 14 13  1  0
 15 16  1  0
 16 17  2  0
 18 17  1  0
 19 20  2  0
 19 11  1  0
 21 22  1  0
 22 23  1  0
 23 24  1  0
 25 24  1  1
 25 27  1  0
 25 26  1  0
 26 19  1  0
 27 29  1  0
 28 27  2  0
M  END
$$$$
