QFM.pdb
     RDKit          3D

 29 29  0  0  1  0  0  0  0  0999 V2000
   27.8117  -18.0147  -16.0219 N   0  0  0  0  0  0  0  0  0  0  0  0
   27.8166  -18.6888  -17.2644 C   0  0  0  0  0  0  0  0  0  0  0  0
   28.4622  -18.2001  -18.2184 O   0  0  0  0  0  0  0  0  0  0  0  0
   27.0836  -19.9549  -17.4779 C   0  0  0  0  0  0  0  0  0  0  0  0
   26.4279  -20.4450  -16.2043 C   0  0  0  0  0  0  0  0  0  0  0  0
   27.4842  -21.1884  -15.4205 C   0  0  2  0  0  0  0  0  0  0  0  0
   27.6477  -22.4854  -16.0468 N   0  0  0  0  0  0  0  0  0  0  0  0
   27.0820  -21.4142  -14.0116 C   0  0  0  0  0  0  0  0  0  0  0  0
   26.0762  -22.0870  -13.7286 O   0  0  0  0  0  0  0  0  0  0  0  0
   27.8420  -20.8630  -12.9355 N   0  0  0  0  0  0  0  0  0  0  0  0
   27.3614  -20.8930  -11.5590 C   0  0  1  0  0  0  0  0  0  0  0  0
   28.4578  -20.2140  -10.7305 C   0  0  0  0  0  0  0  0  0  0  0  0
   28.0782  -20.1324   -9.3104 C   0  0  0  0  0  0  0  0  0  0  0  0
   27.2966  -19.0971   -8.8297 C   0  0  0  0  0  0  0  0  0  0  0  0
   26.9445  -19.0303   -7.4866 C   0  0  0  0  0  0  0  0  0  0  0  0
   27.3679  -19.9944   -6.6097 C   0  0  0  0  0  0  0  0  0  0  0  0
   28.1380  -21.0203   -7.0666 C   0  0  0  0  0  0  0  0  0  0  0  0
   28.4916  -21.0894   -8.4098 C   0  0  0  0  0  0  0  0  0  0  0  0
   26.0731  -20.1951  -11.4111 C   0  0  0  0  0  0  0  0  0  0  0  0
   25.8504  -19.0478  -11.9289 O   0  0  0  0  0  0  0  0  0  0  0  0
   21.7204  -21.8171  -14.7407 C   0  0  0  0  0  0  0  0  0  0  0  0
   20.7732  -20.8407  -13.6017 S   0  0  0  0  0  0  0  0  0  0  0  0
   21.5580  -20.3791  -12.0746 C   0  0  0  0  0  0  0  0  0  0  0  0
   22.9820  -20.7634  -11.9158 C   0  0  0  0  0  0  0  0  0  0  0  0
   23.6621  -20.3746  -10.6601 C   0  0  2  0  0  0  0  0  0  0  0  0
   25.0383  -20.8164  -10.6670 N   0  0  0  0  0  0  0  0  0  0  0  0
   22.9483  -20.7285   -9.4348 C   0  0  0  0  0  0  0  0  0  0  0  0
   21.8691  -20.1685   -9.1501 O   0  0  0  0  0  0  0  0  0  0  0  0
   23.4268  -21.6840   -8.5483 O   0  0  0  0  0  0  0  0  0  0  0  0
  2  3  2  0
  2  1  1  0
  4  2  1  0
  5  4  1  0
  5  6  1  0
  6  8  1  0
  6  7  1  6
  8  9  2  0
 10 11  1  0
 10  8  1  0
 11 12  1  1
 12 13  1  0
 13 18  2  0
 14 15  2  0
 14 13  1  0
 15 16  1  0
 16 17  2  0
 18 17  1  0
 19 20  2  0
 19 11  1  0
 21 22  1  0
 22 23  1  0
 23 24  1  0
 25 24  1  6
 25 27  1  0
 25 26  1  0
 26 19  1  0
 27 29  1  0
 28 27  2  0
M  END
$$$$
