QFM.pdb
     RDKit          3D

 29 29  0  0  1  0  0  0  0  0999 V2000
   27.7609  -21.4256  -16.6591 N   0  0  0  0  0  0  0  0  0  0  0  0
   26.9939  -21.1480  -17.8136 C   0  0  0  0  0  0  0  0  0  0  0  0
   27.5285  -20.5375  -18.7661 O   0  0  0  0  0  0  0  0  0  0  0  0
   25.5777  -21.5545  -17.9363 C   0  0  0  0  0  0  0  0  0  0  0  0
   25.1564  -22.4682  -16.8051 C   0  0  0  0  0  0  0  0  0  0  0  0
   25.3219  -21.6888  -15.5215 C   0  0  2  0  0  0  0  0  0  0  0  0
   26.5877  -22.0884  -14.9389 N   0  0  0  0  0  0  0  0  0  0  0  0
   24.2553  -21.9942  -14.5383 C   0  0  0  0  0  0  0  0  0  0  0  0
   24.1125  -23.1395  -14.0776 O   0  0  0  0  0  0  0  0  0  0  0  0
   23.3582  -20.9770  -14.0908 N   0  0  0  0  0  0  0  0  0  0  0  0
   22.3752  -21.2243  -13.0424 C   0  0  1  0  0  0  0  0  0  0  0  0
   22.5386  -20.0669  -12.0507 C   0  0  0  0  0  0  0  0  0  0  0  0
   23.5415  -20.3859  -11.0212 C   0  0  0  0  0  0  0  0  0  0  0  0
   24.8973  -20.2995  -11.2820 C   0  0  0  0  0  0  0  0  0  0  0  0
   25.8353  -20.6034  -10.3021 C   0  0  0  0  0  0  0  0  0  0  0  0
   25.4312  -20.9962   -9.0530 C   0  0  0  0  0  0  0  0  0  0  0  0
   24.1002  -21.0864   -8.7799 C   0  0  0  0  0  0  0  0  0  0  0  0
   23.1599  -20.7830   -9.7585 C   0  0  0  0  0  0  0  0  0  0  0  0
   21.0038  -21.2783  -13.5763 C   0  0  0  0  0  0  0  0  0  0  0  0
   20.5696  -20.4416  -14.4397 O   0  0  0  0  0  0  0  0  0  0  0  0
   17.6392  -27.0297  -13.1067 C   0  0  0  0  0  0  0  0  0  0  0  0
   16.3903  -25.8504  -13.5513 S   0  0  0  0  0  0  0  0  0  0  0  0
   16.8960  -24.1552  -13.7291 C   0  0  0  0  0  0  0  0  0  0  0  0
   18.2937  -23.8347  -13.3493 C   0  0  0  0  0  0  0  0  0  0  0  0
   18.7557  -22.4420  -13.5434 C   0  0  2  0  0  0  0  0  0  0  0  0
   20.1292  -22.2958  -13.1176 N   0  0  0  0  0  0  0  0  0  0  0  0
   17.8700  -21.4149  -12.9988 C   0  0  0  0  0  0  0  0  0  0  0  0
   18.0159  -21.0149  -11.8249 O   0  0  0  0  0  0  0  0  0  0  0  0
   16.8462  -20.8474  -13.7456 O   0  0  0  0  0  0  0  0  0  0  0  0
  2  3  2  0
  2  1  1  0
  4  2  1  0
  5  4  1  0
  5  6  1  0
  6  8  1  0
  6  7  1  1
  8  9  2  0
 10 11  1  0
 10  8  1  0
 11 12  1  1
 12 13  1  0
 13 18  2  0
 14 15  2  0
 14 13  1  0
 15 16  1  0
 16 17  2  0
 18 17  1  0
 19 20  2  0
 19 11  1  0
 21 22  1  0
 22 23  1  0
 23 24  1  0
 25 24  1  1
 25 27  1  0
 25 26  1  0
 26 19  1  0
 27 29  1  0
 28 27  2  0
M  END
$$$$
