QFM.pdb
     RDKit          3D

 29 29  0  0  1  0  0  0  0  0999 V2000
   26.9324  -17.3489  -13.7554 N   0  0  0  0  0  0  0  0  0  0  0  0
   26.7173  -18.1117  -14.9259 C   0  0  0  0  0  0  0  0  0  0  0  0
   27.1313  -17.6725  -16.0221 O   0  0  0  0  0  0  0  0  0  0  0  0
   26.0181  -19.4141  -14.9014 C   0  0  0  0  0  0  0  0  0  0  0  0
   25.6469  -19.8249  -13.4923 C   0  0  0  0  0  0  0  0  0  0  0  0
   26.8358  -20.5589  -12.9176 C   0  0  2  0  0  0  0  0  0  0  0  0
   26.9818  -21.7904  -13.6683 N   0  0  0  0  0  0  0  0  0  0  0  0
   26.6379  -20.9186  -11.4931 C   0  0  0  0  0  0  0  0  0  0  0  0
   25.9528  -21.9026  -11.1662 O   0  0  0  0  0  0  0  0  0  0  0  0
   27.2314  -20.1417  -10.4520 N   0  0  0  0  0  0  0  0  0  0  0  0
   26.9988  -20.4370   -9.0430 C   0  0  1  0  0  0  0  0  0  0  0  0
   28.0393  -19.6118   -8.2775 C   0  0  0  0  0  0  0  0  0  0  0  0
   27.8665  -19.7552   -6.8225 C   0  0  0  0  0  0  0  0  0  0  0  0
   27.2849  -18.7566   -6.0620 C   0  0  0  0  0  0  0  0  0  0  0  0
   27.1271  -18.9030   -4.6887 C   0  0  0  0  0  0  0  0  0  0  0  0
   27.5472  -20.0458   -4.0601 C   0  0  0  0  0  0  0  0  0  0  0  0
   28.1218  -21.0385   -4.7941 C   0  0  0  0  0  0  0  0  0  0  0  0
   28.2808  -20.8945   -6.1681 C   0  0  0  0  0  0  0  0  0  0  0  0
   25.6304  -20.0870   -8.6264 C   0  0  0  0  0  0  0  0  0  0  0  0
   25.1026  -18.9522   -8.8868 O   0  0  0  0  0  0  0  0  0  0  0  0
   21.2950  -21.5893  -11.9817 C   0  0  0  0  0  0  0  0  0  0  0  0
   20.4664  -20.8006  -10.6256 S   0  0  0  0  0  0  0  0  0  0  0  0
   21.2642  -20.8583   -9.0378 C   0  0  0  0  0  0  0  0  0  0  0  0
   22.7438  -20.9651   -9.0403 C   0  0  0  0  0  0  0  0  0  0  0  0
   23.4339  -20.9718   -7.7310 C   0  0  2  0  0  0  0  0  0  0  0  0
   24.8666  -21.0424   -7.9094 N   0  0  0  0  0  0  0  0  0  0  0  0
   22.9234  -21.9451   -6.7676 C   0  0  0  0  0  0  0  0  0  0  0  0
   23.6319  -22.9092   -6.4102 O   0  0  0  0  0  0  0  0  0  0  0  0
   21.6531  -21.8454   -6.2160 O   0  0  0  0  0  0  0  0  0  0  0  0
  2  3  2  0
  2  1  1  0
  4  2  1  0
  5  4  1  0
  5  6  1  0
  6  8  1  0
  6  7  1  6
  8  9  2  0
 10 11  1  0
 10  8  1  0
 11 12  1  1
 12 13  1  0
 13 18  2  0
 14 15  2  0
 14 13  1  0
 15 16  1  0
 16 17  2  0
 18 17  1  0
 19 20  2  0
 19 11  1  0
 21 22  1  0
 22 23  1  0
 23 24  1  0
 25 24  1  6
 25 27  1  0
 25 26  1  0
 26 19  1  0
 27 29  1  0
 28 27  2  0
M  END
$$$$
