QFM.pdb
     RDKit          3D

 29 29  0  0  1  0  0  0  0  0999 V2000
   14.4268  -24.0379    5.3035 N   0  0  0  0  0  0  0  0  0  0  0  0
   13.4183  -23.1127    4.9498 C   0  0  0  0  0  0  0  0  0  0  0  0
   12.5434  -22.8153    5.7936 O   0  0  0  0  0  0  0  0  0  0  0  0
   13.3598  -22.4819    3.6140 C   0  0  0  0  0  0  0  0  0  0  0  0
   14.4681  -22.9788    2.7101 C   0  0  0  0  0  0  0  0  0  0  0  0
   14.7591  -21.8759    1.7194 C   0  0  2  0  0  0  0  0  0  0  0  0
   14.7822  -22.4798    0.4018 N   0  0  0  0  0  0  0  0  0  0  0  0
   16.0816  -21.2476    1.9519 C   0  0  0  0  0  0  0  0  0  0  0  0
   17.1308  -21.9099    1.8820 O   0  0  0  0  0  0  0  0  0  0  0  0
   16.1878  -19.8581    2.2641 N   0  0  0  0  0  0  0  0  0  0  0  0
   17.4705  -19.2321    2.5633 C   0  0  1  0  0  0  0  0  0  0  0  0
   17.5731  -18.0381    1.6075 C   0  0  0  0  0  0  0  0  0  0  0  0
   18.8765  -17.3654    1.7344 C   0  0  0  0  0  0  0  0  0  0  0  0
   18.9794  -16.0758    2.2243 C   0  0  0  0  0  0  0  0  0  0  0  0
   20.2156  -15.4506    2.3394 C   0  0  0  0  0  0  0  0  0  0  0  0
   21.3610  -16.1043    1.9675 C   0  0  0  0  0  0  0  0  0  0  0  0
   21.2772  -17.3743    1.4831 C   0  0  0  0  0  0  0  0  0  0  0  0
   20.0417  -18.0020    1.3670 C   0  0  0  0  0  0  0  0  0  0  0  0
   17.5564  -18.7985    3.9680 C   0  0  0  0  0  0  0  0  0  0  0  0
   16.5617  -18.2942    4.5929 O   0  0  0  0  0  0  0  0  0  0  0  0
   21.9021  -21.3557    8.8674 C   0  0  0  0  0  0  0  0  0  0  0  0
   22.0589  -19.6109    8.5868 S   0  0  0  0  0  0  0  0  0  0  0  0
   20.6392  -18.7581    7.9401 C   0  0  0  0  0  0  0  0  0  0  0  0
   20.3241  -18.9821    6.5079 C   0  0  0  0  0  0  0  0  0  0  0  0
   19.0276  -18.4774    6.0031 C   0  0  2  0  0  0  0  0  0  0  0  0
   18.7872  -18.9447    4.6565 N   0  0  0  0  0  0  0  0  0  0  0  0
   18.8197  -17.0394    6.1609 C   0  0  0  0  0  0  0  0  0  0  0  0
   19.3739  -16.2336    5.3845 O   0  0  0  0  0  0  0  0  0  0  0  0
   18.0129  -16.5128    7.1608 O   0  0  0  0  0  0  0  0  0  0  0  0
  2  3  2  0
  2  1  1  0
  4  2  1  0
  5  4  1  0
  5  6  1  0
  6  8  1  0
  6  7  1  6
  8  9  2  0
 10 11  1  0
 10  8  1  0
 11 12  1  6
 12 13  1  0
 13 18  2  0
 14 15  2  0
 14 13  1  0
 15 16  1  0
 16 17  2  0
 18 17  1  0
 19 20  2  0
 19 11  1  0
 21 22  1  0
 22 23  1  0
 23 24  1  0
 25 24  1  6
 25 27  1  0
 25 26  1  0
 26 19  1  0
 27 29  1  0
 28 27  2  0
M  END
$$$$
