QFM.pdb
     RDKit          3D

 29 29  0  0  1  0  0  0  0  0999 V2000
   26.5938  -29.7809  -16.7291 N   0  0  0  0  0  0  0  0  0  0  0  0
   27.9452  -29.4123  -16.9196 C   0  0  0  0  0  0  0  0  0  0  0  0
   28.7303  -30.2321  -17.4462 O   0  0  0  0  0  0  0  0  0  0  0  0
   28.4660  -28.0884  -16.5173 C   0  0  0  0  0  0  0  0  0  0  0  0
   27.3750  -27.2053  -15.9496 C   0  0  0  0  0  0  0  0  0  0  0  0
   26.8793  -26.3328  -17.0789 C   0  0  2  0  0  0  0  0  0  0  0  0
   27.8917  -25.3225  -17.3148 N   0  0  0  0  0  0  0  0  0  0  0  0
   25.6164  -25.6360  -16.7366 C   0  0  0  0  0  0  0  0  0  0  0  0
   25.6222  -24.5616  -16.1121 O   0  0  0  0  0  0  0  0  0  0  0  0
   24.3524  -26.1816  -17.1163 N   0  0  0  0  0  0  0  0  0  0  0  0
   23.1070  -25.4491  -16.9187 C   0  0  1  0  0  0  0  0  0  0  0  0
   22.5576  -25.1939  -18.3268 C   0  0  0  0  0  0  0  0  0  0  0  0
   23.2776  -24.0926  -18.9874 C   0  0  0  0  0  0  0  0  0  0  0  0
   22.8543  -22.7807  -18.8720 C   0  0  0  0  0  0  0  0  0  0  0  0
   23.5421  -21.7490  -19.5005 C   0  0  0  0  0  0  0  0  0  0  0  0
   24.6581  -22.0148  -20.2499 C   0  0  0  0  0  0  0  0  0  0  0  0
   25.0881  -23.3009  -20.3736 C   0  0  0  0  0  0  0  0  0  0  0  0
   24.4019  -24.3348  -19.7459 C   0  0  0  0  0  0  0  0  0  0  0  0
   22.1458  -26.2090  -16.1019 C   0  0  0  0  0  0  0  0  0  0  0  0
   21.9462  -27.4613  -16.2639 O   0  0  0  0  0  0  0  0  0  0  0  0
   21.5954  -29.1862  -12.0498 C   0  0  0  0  0  0  0  0  0  0  0  0
   20.3384  -28.2778  -11.1880 S   0  0  0  0  0  0  0  0  0  0  0  0
   19.9202  -26.6680  -11.8162 C   0  0  0  0  0  0  0  0  0  0  0  0
   20.8381  -26.0897  -12.8279 C   0  0  0  0  0  0  0  0  0  0  0  0
   20.4234  -26.1535  -14.2473 C   0  0  2  0  0  0  0  0  0  0  0  0
   21.4124  -25.5292  -15.0966 N   0  0  0  0  0  0  0  0  0  0  0  0
   19.0612  -25.6965  -14.5150 C   0  0  0  0  0  0  0  0  0  0  0  0
   18.8268  -24.4825  -14.6898 O   0  0  0  0  0  0  0  0  0  0  0  0
   17.9863  -26.5725  -14.5860 O   0  0  0  0  0  0  0  0  0  0  0  0
  2  3  2  0
  2  1  1  0
  4  2  1  0
  5  4  1  0
  5  6  1  0
  6  8  1  0
  6  7  1  1
  8  9  2  0
 10 11  1  0
 10  8  1  0
 11 12  1  6
 12 13  1  0
 13 18  2  0
 14 15  2  0
 14 13  1  0
 15 16  1  0
 16 17  2  0
 18 17  1  0
 19 20  2  0
 19 11  1  0
 21 22  1  0
 22 23  1  0
 23 24  1  0
 25 24  1  1
 25 27  1  0
 25 26  1  0
 26 19  1  0
 27 29  1  0
 28 27  2  0
M  END
$$$$
