QFM.pdb
     RDKit          3D

 29 29  0  0  1  0  0  0  0  0999 V2000
   26.7584  -18.6622  -17.5603 N   0  0  0  0  0  0  0  0  0  0  0  0
   27.7186  -19.0525  -18.5217 C   0  0  0  0  0  0  0  0  0  0  0  0
   28.3487  -18.1690  -19.1446 O   0  0  0  0  0  0  0  0  0  0  0  0
   28.0056  -20.4721  -18.8186 C   0  0  0  0  0  0  0  0  0  0  0  0
   27.1747  -21.4035  -17.9618 C   0  0  0  0  0  0  0  0  0  0  0  0
   27.8994  -21.5584  -16.6452 C   0  0  2  0  0  0  0  0  0  0  0  0
   28.7104  -22.7560  -16.7418 N   0  0  0  0  0  0  0  0  0  0  0  0
   26.9649  -21.7358  -15.5081 C   0  0  0  0  0  0  0  0  0  0  0  0
   26.5475  -22.8613  -15.1868 O   0  0  0  0  0  0  0  0  0  0  0  0
   26.5162  -20.6140  -14.7467 N   0  0  0  0  0  0  0  0  0  0  0  0
   25.7583  -20.7755  -13.5113 C   0  0  1  0  0  0  0  0  0  0  0  0
   26.4114  -19.8205  -12.5057 C   0  0  0  0  0  0  0  0  0  0  0  0
   27.6532  -20.3917  -11.9587 C   0  0  0  0  0  0  0  0  0  0  0  0
   28.8635  -20.2496  -12.6133 C   0  0  0  0  0  0  0  0  0  0  0  0
   30.0297  -20.7934  -12.0872 C   0  0  0  0  0  0  0  0  0  0  0  0
   30.0009  -21.4839  -10.9040 C   0  0  0  0  0  0  0  0  0  0  0  0
   28.8175  -21.6329  -10.2470 C   0  0  0  0  0  0  0  0  0  0  0  0
   27.6495  -21.0898  -10.7711 C   0  0  0  0  0  0  0  0  0  0  0  0
   24.3319  -20.4599  -13.6961 C   0  0  0  0  0  0  0  0  0  0  0  0
   23.9226  -19.2904  -14.0111 O   0  0  0  0  0  0  0  0  0  0  0  0
   18.6923  -23.0829  -17.3933 C   0  0  0  0  0  0  0  0  0  0  0  0
   20.1036  -23.2621  -16.3332 S   0  0  0  0  0  0  0  0  0  0  0  0
   20.0280  -22.4840  -14.7363 C   0  0  0  0  0  0  0  0  0  0  0  0
   21.2517  -22.5591  -13.9012 C   0  0  0  0  0  0  0  0  0  0  0  0
   21.9430  -21.2903  -13.5806 C   0  0  2  0  0  0  0  0  0  0  0  0
   23.3734  -21.4896  -13.5192 N   0  0  0  0  0  0  0  0  0  0  0  0
   21.4104  -20.5701  -12.4258 C   0  0  0  0  0  0  0  0  0  0  0  0
   22.1411  -20.3272  -11.4428 O   0  0  0  0  0  0  0  0  0  0  0  0
   20.0942  -20.1315  -12.3687 O   0  0  0  0  0  0  0  0  0  0  0  0
  2  3  2  0
  2  1  1  0
  4  2  1  0
  5  4  1  0
  5  6  1  0
  6  8  1  0
  6  7  1  6
  8  9  2  0
 10 11  1  0
 10  8  1  0
 11 12  1  1
 12 13  1  0
 13 18  2  0
 14 15  2  0
 14 13  1  0
 15 16  1  0
 16 17  2  0
 18 17  1  0
 19 20  2  0
 19 11  1  0
 21 22  1  0
 22 23  1  0
 23 24  1  0
 25 24  1  1
 25 27  1  0
 25 26  1  0
 26 19  1  0
 27 29  1  0
 28 27  2  0
M  END
$$$$
