QFM.pdb
     RDKit          3D

 29 29  0  0  1  0  0  0  0  0999 V2000
   27.8800  -23.1699  -20.9424 N   0  0  0  0  0  0  0  0  0  0  0  0
   27.2221  -22.1198  -20.2621 C   0  0  0  0  0  0  0  0  0  0  0  0
   25.9823  -22.0007  -20.3823 O   0  0  0  0  0  0  0  0  0  0  0  0
   27.9490  -21.1540  -19.4109 C   0  0  0  0  0  0  0  0  0  0  0  0
   27.2329  -20.9127  -18.0990 C   0  0  0  0  0  0  0  0  0  0  0  0
   27.8614  -21.8302  -17.0765 C   0  0  2  0  0  0  0  0  0  0  0  0
   27.9842  -23.1367  -17.6925 N   0  0  0  0  0  0  0  0  0  0  0  0
   27.0206  -21.9792  -15.8646 C   0  0  0  0  0  0  0  0  0  0  0  0
   26.1349  -22.8484  -15.7977 O   0  0  0  0  0  0  0  0  0  0  0  0
   27.2053  -21.1248  -14.7352 N   0  0  0  0  0  0  0  0  0  0  0  0
   26.3712  -21.2324  -13.5439 C   0  0  1  0  0  0  0  0  0  0  0  0
   27.1556  -20.5252  -12.4330 C   0  0  0  0  0  0  0  0  0  0  0  0
   26.4269  -20.5716  -11.1546 C   0  0  0  0  0  0  0  0  0  0  0  0
   25.6277  -19.5214  -10.7399 C   0  0  0  0  0  0  0  0  0  0  0  0
   24.9444  -19.5763   -9.5306 C   0  0  0  0  0  0  0  0  0  0  0  0
   25.0510  -20.6782   -8.7229 C   0  0  0  0  0  0  0  0  0  0  0  0
   25.8337  -21.7207   -9.1164 C   0  0  0  0  0  0  0  0  0  0  0  0
   26.5183  -21.6682  -10.3257 C   0  0  0  0  0  0  0  0  0  0  0  0
   25.0498  -20.6126  -13.7400 C   0  0  0  0  0  0  0  0  0  0  0  0
   24.9087  -19.4253  -14.1923 O   0  0  0  0  0  0  0  0  0  0  0  0
   17.5428  -22.0415  -15.6391 C   0  0  0  0  0  0  0  0  0  0  0  0
   19.2422  -22.4900  -15.3967 S   0  0  0  0  0  0  0  0  0  0  0  0
   20.2594  -21.3619  -14.4727 C   0  0  0  0  0  0  0  0  0  0  0  0
   21.6904  -21.7243  -14.3258 C   0  0  0  0  0  0  0  0  0  0  0  0
   22.5404  -20.8416  -13.4957 C   0  0  2  0  0  0  0  0  0  0  0  0
   23.8880  -21.3582  -13.4161 N   0  0  0  0  0  0  0  0  0  0  0  0
   21.9794  -20.4891  -12.1930 C   0  0  0  0  0  0  0  0  0  0  0  0
   22.1955  -21.2113  -11.1975 O   0  0  0  0  0  0  0  0  0  0  0  0
   21.1962  -19.3581  -12.0051 O   0  0  0  0  0  0  0  0  0  0  0  0
  2  3  2  0
  2  1  1  0
  4  2  1  0
  5  4  1  0
  5  6  1  0
  6  8  1  0
  6  7  1  6
  8  9  2  0
 10 11  1  0
 10  8  1  0
 11 12  1  1
 12 13  1  0
 13 18  2  0
 14 15  2  0
 14 13  1  0
 15 16  1  0
 16 17  2  0
 18 17  1  0
 19 20  2  0
 19 11  1  0
 21 22  1  0
 22 23  1  0
 23 24  1  0
 25 24  1  1
 25 27  1  0
 25 26  1  0
 26 19  1  0
 27 29  1  0
 28 27  2  0
M  END
$$$$
