QFM.pdb
     RDKit          3D

 29 29  0  0  1  0  0  0  0  0999 V2000
   25.8156  -18.4752  -17.5944 N   0  0  0  0  0  0  0  0  0  0  0  0
   25.4030  -19.2702  -18.6881 C   0  0  0  0  0  0  0  0  0  0  0  0
   25.6845  -18.8990  -19.8494 O   0  0  0  0  0  0  0  0  0  0  0  0
   24.6482  -20.5286  -18.5083 C   0  0  0  0  0  0  0  0  0  0  0  0
   24.4900  -20.8837  -17.0451 C   0  0  0  0  0  0  0  0  0  0  0  0
   25.8634  -21.2383  -16.5248 C   0  0  2  0  0  0  0  0  0  0  0  0
   26.3209  -22.3904  -17.2763 N   0  0  0  0  0  0  0  0  0  0  0  0
   25.8401  -21.6141  -15.0909 C   0  0  0  0  0  0  0  0  0  0  0  0
   25.2423  -22.6315  -14.7011 O   0  0  0  0  0  0  0  0  0  0  0  0
   26.5067  -20.8146  -14.1131 N   0  0  0  0  0  0  0  0  0  0  0  0
   26.2395  -20.9608  -12.6870 C   0  0  1  0  0  0  0  0  0  0  0  0
   27.3072  -20.1146  -11.9844 C   0  0  0  0  0  0  0  0  0  0  0  0
   27.1556  -20.1742  -10.5212 C   0  0  0  0  0  0  0  0  0  0  0  0
   26.4701  -19.1947   -9.8253 C   0  0  0  0  0  0  0  0  0  0  0  0
   26.3335  -19.2615   -8.4435 C   0  0  0  0  0  0  0  0  0  0  0  0
   26.8786  -20.3048   -7.7420 C   0  0  0  0  0  0  0  0  0  0  0  0
   27.5565  -21.2773   -8.4120 C   0  0  0  0  0  0  0  0  0  0  0  0
   27.6946  -21.2130   -9.7942 C   0  0  0  0  0  0  0  0  0  0  0  0
   24.8836  -20.5088  -12.3324 C   0  0  0  0  0  0  0  0  0  0  0  0
   24.4101  -19.3870  -12.7218 O   0  0  0  0  0  0  0  0  0  0  0  0
   19.6225  -22.9889  -14.2034 C   0  0  0  0  0  0  0  0  0  0  0  0
   19.1387  -22.5465  -12.5548 S   0  0  0  0  0  0  0  0  0  0  0  0
   20.2996  -21.6090  -11.5881 C   0  0  0  0  0  0  0  0  0  0  0  0
   21.7370  -21.8147  -11.8915 C   0  0  0  0  0  0  0  0  0  0  0  0
   22.7216  -21.0236  -11.1200 C   0  0  2  0  0  0  0  0  0  0  0  0
   24.0696  -21.3471  -11.5292 N   0  0  0  0  0  0  0  0  0  0  0  0
   22.5364  -21.0494   -9.6705 C   0  0  0  0  0  0  0  0  0  0  0  0
   23.4090  -21.5528   -8.9326 O   0  0  0  0  0  0  0  0  0  0  0  0
   21.4051  -20.5262   -9.0586 O   0  0  0  0  0  0  0  0  0  0  0  0
  2  3  2  0
  2  1  1  0
  4  2  1  0
  5  4  1  0
  5  6  1  0
  6  8  1  0
  6  7  1  6
  8  9  2  0
 10 11  1  0
 10  8  1  0
 11 12  1  1
 12 13  1  0
 13 18  2  0
 14 15  2  0
 14 13  1  0
 15 16  1  0
 16 17  2  0
 18 17  1  0
 19 20  2  0
 19 11  1  0
 21 22  1  0
 22 23  1  0
 23 24  1  0
 25 24  1  6
 25 27  1  0
 25 26  1  0
 26 19  1  0
 27 29  1  0
 28 27  2  0
M  END
$$$$
