QFM.pdb
     RDKit          3D

 29 29  0  0  1  0  0  0  0  0999 V2000
   21.4624  -23.0099  -12.9723 N   0  0  0  0  0  0  0  0  0  0  0  0
   20.3507  -22.7293  -12.1454 C   0  0  0  0  0  0  0  0  0  0  0  0
   19.3977  -23.5395  -12.1129 O   0  0  0  0  0  0  0  0  0  0  0  0
   20.2734  -21.5086  -11.3150 C   0  0  0  0  0  0  0  0  0  0  0  0
   21.5072  -20.6450  -11.4710 C   0  0  0  0  0  0  0  0  0  0  0  0
   22.4715  -21.0499  -10.3808 C   0  0  2  0  0  0  0  0  0  0  0  0
   21.8845  -20.6452   -9.1187 N   0  0  0  0  0  0  0  0  0  0  0  0
   23.7816  -20.3681  -10.5092 C   0  0  0  0  0  0  0  0  0  0  0  0
   23.8562  -19.1733  -10.8427 O   0  0  0  0  0  0  0  0  0  0  0  0
   24.9999  -21.0676  -10.2522 N   0  0  0  0  0  0  0  0  0  0  0  0
   26.2810  -20.5970  -10.7660 C   0  0  1  0  0  0  0  0  0  0  0  0
   27.3415  -21.2410   -9.8658 C   0  0  0  0  0  0  0  0  0  0  0  0
   27.4603  -20.5231   -8.5860 C   0  0  0  0  0  0  0  0  0  0  0  0
   28.2539  -21.0027   -7.5594 C   0  0  0  0  0  0  0  0  0  0  0  0
   28.3582  -20.3162   -6.3551 C   0  0  0  0  0  0  0  0  0  0  0  0
   27.6727  -19.1455   -6.1623 C   0  0  0  0  0  0  0  0  0  0  0  0
   26.8870  -18.6597   -7.1628 C   0  0  0  0  0  0  0  0  0  0  0  0
   26.7810  -19.3444   -8.3685 C   0  0  0  0  0  0  0  0  0  0  0  0
   26.4797  -20.9733  -12.1758 C   0  0  0  0  0  0  0  0  0  0  0  0
   26.3405  -22.1739  -12.5922 O   0  0  0  0  0  0  0  0  0  0  0  0
   25.0060  -17.8369  -19.2553 C   0  0  0  0  0  0  0  0  0  0  0  0
   25.1640  -17.7744  -17.4893 S   0  0  0  0  0  0  0  0  0  0  0  0
   25.9529  -19.1538  -16.6919 C   0  0  0  0  0  0  0  0  0  0  0  0
   26.0853  -19.0824  -15.2161 C   0  0  0  0  0  0  0  0  0  0  0  0
   26.8509  -20.1553  -14.5428 C   0  0  2  0  0  0  0  0  0  0  0  0
   26.8389  -19.9685  -13.1095 N   0  0  0  0  0  0  0  0  0  0  0  0
   28.1879  -20.3935  -15.0828 C   0  0  0  0  0  0  0  0  0  0  0  0
   28.3299  -20.8319  -16.2433 O   0  0  0  0  0  0  0  0  0  0  0  0
   29.3390  -20.1487  -14.3459 O   0  0  0  0  0  0  0  0  0  0  0  0
  2  3  2  0
  2  1  1  0
  4  2  1  0
  5  4  1  0
  5  6  1  0
  6  8  1  0
  6  7  1  1
  8  9  2  0
 10 11  1  0
 10  8  1  0
 11 12  1  1
 12 13  1  0
 13 18  2  0
 14 15  2  0
 14 13  1  0
 15 16  1  0
 16 17  2  0
 18 17  1  0
 19 20  2  0
 19 11  1  0
 21 22  1  0
 22 23  1  0
 23 24  1  0
 25 24  1  6
 25 27  1  0
 25 26  1  0
 26 19  1  0
 27 29  1  0
 28 27  2  0
M  END
$$$$
