QFM.pdb
     RDKit          3D

 29 29  0  0  1  0  0  0  0  0999 V2000
   28.0586  -18.5945  -15.2698 N   0  0  0  0  0  0  0  0  0  0  0  0
   26.7163  -18.4949  -14.8380 C   0  0  0  0  0  0  0  0  0  0  0  0
   26.2985  -17.3997  -14.3999 O   0  0  0  0  0  0  0  0  0  0  0  0
   25.7852  -19.6422  -14.8854 C   0  0  0  0  0  0  0  0  0  0  0  0
   25.4254  -20.1304  -13.4982 C   0  0  0  0  0  0  0  0  0  0  0  0
   26.6976  -20.6451  -12.8664 C   0  0  2  0  0  0  0  0  0  0  0  0
   27.0409  -21.8809  -13.5419 N   0  0  0  0  0  0  0  0  0  0  0  0
   26.5249  -20.9501  -11.4260 C   0  0  0  0  0  0  0  0  0  0  0  0
   25.8189  -21.9008  -11.0488 O   0  0  0  0  0  0  0  0  0  0  0  0
   27.1675  -20.1572  -10.4270 N   0  0  0  0  0  0  0  0  0  0  0  0
   27.0192  -20.4424   -9.0046 C   0  0  1  0  0  0  0  0  0  0  0  0
   28.1363  -19.6529   -8.3129 C   0  0  0  0  0  0  0  0  0  0  0  0
   28.0437  -19.7718   -6.8484 C   0  0  0  0  0  0  0  0  0  0  0  0
   28.4455  -20.9200   -6.1898 C   0  0  0  0  0  0  0  0  0  0  0  0
   28.3532  -21.0210   -4.8064 C   0  0  0  0  0  0  0  0  0  0  0  0
   27.8597  -19.9788   -4.0662 C   0  0  0  0  0  0  0  0  0  0  0  0
   27.4597  -18.8413   -4.6991 C   0  0  0  0  0  0  0  0  0  0  0  0
   27.5510  -18.7378   -6.0829 C   0  0  0  0  0  0  0  0  0  0  0  0
   25.6945  -20.0445   -8.4992 C   0  0  0  0  0  0  0  0  0  0  0  0
   25.2253  -18.8658   -8.6564 O   0  0  0  0  0  0  0  0  0  0  0  0
   21.0102  -20.5697  -11.7845 C   0  0  0  0  0  0  0  0  0  0  0  0
   20.3986  -21.3788  -10.3288 S   0  0  0  0  0  0  0  0  0  0  0  0
   21.2608  -21.0751   -8.8039 C   0  0  0  0  0  0  0  0  0  0  0  0
   22.7425  -21.1214   -8.8570 C   0  0  0  0  0  0  0  0  0  0  0  0
   23.4824  -20.8829   -7.5975 C   0  0  2  0  0  0  0  0  0  0  0  0
   24.9069  -21.0024   -7.8118 N   0  0  0  0  0  0  0  0  0  0  0  0
   23.0058  -21.6464   -6.4460 C   0  0  0  0  0  0  0  0  0  0  0  0
   23.6995  -22.5697   -5.9712 O   0  0  0  0  0  0  0  0  0  0  0  0
   21.7846  -21.3861   -5.8386 O   0  0  0  0  0  0  0  0  0  0  0  0
  2  3  2  0
  2  1  1  0
  4  2  1  0
  5  4  1  0
  5  6  1  0
  6  8  1  0
  6  7  1  6
  8  9  2  0
 10 11  1  0
 10  8  1  0
 11 12  1  1
 12 13  1  0
 13 18  2  0
 14 15  2  0
 14 13  1  0
 15 16  1  0
 16 17  2  0
 18 17  1  0
 19 20  2  0
 19 11  1  0
 21 22  1  0
 22 23  1  0
 23 24  1  0
 25 24  1  6
 25 27  1  0
 25 26  1  0
 26 19  1  0
 27 29  1  0
 28 27  2  0
M  END
$$$$
