QFM.pdb
     RDKit          3D

 29 29  0  0  1  0  0  0  0  0999 V2000
   10.1744  -17.5169    8.5148 N   0  0  0  0  0  0  0  0  0  0  0  0
    9.9562  -16.1939    8.0672 C   0  0  0  0  0  0  0  0  0  0  0  0
    9.0188  -15.5309    8.5648 O   0  0  0  0  0  0  0  0  0  0  0  0
   10.7987  -15.5634    7.0288 C   0  0  0  0  0  0  0  0  0  0  0  0
   11.9738  -16.4401    6.6512 C   0  0  0  0  0  0  0  0  0  0  0  0
   11.9834  -16.5423    5.1439 C   0  0  2  0  0  0  0  0  0  0  0  0
   10.9383  -17.4755    4.7719 N   0  0  0  0  0  0  0  0  0  0  0  0
   13.2675  -17.0718    4.6258 C   0  0  0  0  0  0  0  0  0  0  0  0
   13.4333  -18.2888    4.4367 O   0  0  0  0  0  0  0  0  0  0  0  0
   14.3547  -16.1948    4.3280 N   0  0  0  0  0  0  0  0  0  0  0  0
   15.6366  -16.6945    3.8446 C   0  0  1  0  0  0  0  0  0  0  0  0
   16.1801  -15.5961    2.9237 C   0  0  0  0  0  0  0  0  0  0  0  0
   17.4532  -16.0016    2.3056 C   0  0  0  0  0  0  0  0  0  0  0  0
   17.5522  -17.1516    1.5430 C   0  0  0  0  0  0  0  0  0  0  0  0
   18.7599  -17.5246    0.9644 C   0  0  0  0  0  0  0  0  0  0  0  0
   19.8802  -16.7555    1.1400 C   0  0  0  0  0  0  0  0  0  0  0  0
   19.7998  -15.6204    1.8879 C   0  0  0  0  0  0  0  0  0  0  0  0
   18.5929  -15.2449    2.4679 C   0  0  0  0  0  0  0  0  0  0  0  0
   16.5700  -16.9732    4.9490 C   0  0  0  0  0  0  0  0  0  0  0  0
   16.7584  -16.1539    5.9121 O   0  0  0  0  0  0  0  0  0  0  0  0
   16.7370  -22.0978    9.3156 C   0  0  0  0  0  0  0  0  0  0  0  0
   17.7836  -20.6716    9.4516 S   0  0  0  0  0  0  0  0  0  0  0  0
   18.5581  -20.0837    7.9631 C   0  0  0  0  0  0  0  0  0  0  0  0
   17.6628  -19.5057    6.9311 C   0  0  0  0  0  0  0  0  0  0  0  0
   18.2591  -18.5712    5.9505 C   0  0  2  0  0  0  0  0  0  0  0  0
   17.2883  -18.1957    4.9475 N   0  0  0  0  0  0  0  0  0  0  0  0
   19.5369  -18.9998    5.3852 C   0  0  0  0  0  0  0  0  0  0  0  0
   19.5857  -19.4893    4.2375 O   0  0  0  0  0  0  0  0  0  0  0  0
   20.7316  -18.8851    6.0833 O   0  0  0  0  0  0  0  0  0  0  0  0
  2  3  2  0
  2  1  1  0
  4  2  1  0
  5  4  1  0
  5  6  1  0
  6  8  1  0
  6  7  1  1
  8  9  2  0
 10 11  1  0
 10  8  1  0
 11 12  1  6
 12 13  1  0
 13 18  2  0
 14 15  2  0
 14 13  1  0
 15 16  1  0
 16 17  2  0
 18 17  1  0
 19 20  2  0
 19 11  1  0
 21 22  1  0
 22 23  1  0
 23 24  1  0
 25 24  1  6
 25 27  1  0
 25 26  1  0
 26 19  1  0
 27 29  1  0
 28 27  2  0
M  END
$$$$
