QFM.pdb
     RDKit          3D

 29 29  0  0  1  0  0  0  0  0999 V2000
   24.5072  -24.7379  -19.5712 N   0  0  0  0  0  0  0  0  0  0  0  0
   23.3176  -23.9762  -19.5159 C   0  0  0  0  0  0  0  0  0  0  0  0
   22.4380  -24.1589  -20.3869 O   0  0  0  0  0  0  0  0  0  0  0  0
   23.0748  -22.9680  -18.4623 C   0  0  0  0  0  0  0  0  0  0  0  0
   24.1640  -22.9820  -17.4108 C   0  0  0  0  0  0  0  0  0  0  0  0
   24.4495  -21.5429  -17.0501 C   0  0  2  0  0  0  0  0  0  0  0  0
   25.1636  -20.9558  -18.1667 N   0  0  0  0  0  0  0  0  0  0  0  0
   25.3121  -21.4260  -15.8501 C   0  0  0  0  0  0  0  0  0  0  0  0
   26.3533  -22.0950  -15.7374 O   0  0  0  0  0  0  0  0  0  0  0  0
   24.9698  -20.5376  -14.7855 N   0  0  0  0  0  0  0  0  0  0  0  0
   25.8603  -20.3148  -13.6524 C   0  0  1  0  0  0  0  0  0  0  0  0
   26.0822  -18.7990  -13.6015 C   0  0  0  0  0  0  0  0  0  0  0  0
   26.9677  -18.3540  -14.6903 C   0  0  0  0  0  0  0  0  0  0  0  0
   26.5130  -17.5207  -15.6966 C   0  0  0  0  0  0  0  0  0  0  0  0
   27.3583  -17.1071  -16.7198 C   0  0  0  0  0  0  0  0  0  0  0  0
   28.6645  -17.5199  -16.7500 C   0  0  0  0  0  0  0  0  0  0  0  0
   29.1280  -18.3403  -15.7669 C   0  0  0  0  0  0  0  0  0  0  0  0
   28.2845  -18.7555  -14.7422 C   0  0  0  0  0  0  0  0  0  0  0  0
   25.2814  -20.8107  -12.3924 C   0  0  0  0  0  0  0  0  0  0  0  0
   24.0389  -21.0844  -12.2685 O   0  0  0  0  0  0  0  0  0  0  0  0
   29.2872  -19.5894   -7.1862 C   0  0  0  0  0  0  0  0  0  0  0  0
   27.7209  -19.9797   -6.4499 S   0  0  0  0  0  0  0  0  0  0  0  0
   26.3989  -20.4449   -7.5438 C   0  0  0  0  0  0  0  0  0  0  0  0
   26.7388  -20.5700   -8.9824 C   0  0  0  0  0  0  0  0  0  0  0  0
   25.6750  -21.0331   -9.9014 C   0  0  2  0  0  0  0  0  0  0  0  0
   26.1315  -20.9928  -11.2723 N   0  0  0  0  0  0  0  0  0  0  0  0
   24.3717  -20.4006   -9.7081 C   0  0  0  0  0  0  0  0  0  0  0  0
   24.0782  -19.3591  -10.3312 O   0  0  0  0  0  0  0  0  0  0  0  0
   23.4188  -20.9174   -8.8405 O   0  0  0  0  0  0  0  0  0  0  0  0
  2  3  2  0
  2  1  1  0
  4  2  1  0
  5  4  1  0
  5  6  1  0
  6  8  1  0
  6  7  1  6
  8  9  2  0
 10 11  1  0
 10  8  1  0
 11 12  1  1
 12 13  1  0
 13 18  2  0
 14 15  2  0
 14 13  1  0
 15 16  1  0
 16 17  2  0
 18 17  1  0
 19 20  2  0
 19 11  1  0
 21 22  1  0
 22 23  1  0
 23 24  1  0
 25 24  1  1
 25 27  1  0
 25 26  1  0
 26 19  1  0
 27 29  1  0
 28 27  2  0
M  END
$$$$
