QFM.pdb
     RDKit          3D

 29 29  0  0  1  0  0  0  0  0999 V2000
   20.8678  -19.4783  -14.0304 N   0  0  0  0  0  0  0  0  0  0  0  0
   20.3052  -19.4650  -15.3272 C   0  0  0  0  0  0  0  0  0  0  0  0
   19.1901  -18.9244  -15.5003 O   0  0  0  0  0  0  0  0  0  0  0  0
   20.9895  -20.0690  -16.4902 C   0  0  0  0  0  0  0  0  0  0  0  0
   22.3412  -20.6370  -16.1129 C   0  0  0  0  0  0  0  0  0  0  0  0
   23.3325  -19.4986  -16.1745 C   0  0  2  0  0  0  0  0  0  0  0  0
   23.6927  -19.3202  -17.5673 N   0  0  0  0  0  0  0  0  0  0  0  0
   24.5743  -19.7948  -15.4209 C   0  0  0  0  0  0  0  0  0  0  0  0
   25.3065  -20.7486  -15.7347 O   0  0  0  0  0  0  0  0  0  0  0  0
   24.9660  -18.9891  -14.3086 N   0  0  0  0  0  0  0  0  0  0  0  0
   26.1106  -19.3341  -13.4733 C   0  0  1  0  0  0  0  0  0  0  0  0
   27.0369  -18.1140  -13.5288 C   0  0  0  0  0  0  0  0  0  0  0  0
   27.6187  -17.9483  -14.8710 C   0  0  0  0  0  0  0  0  0  0  0  0
   28.7544  -18.6377  -15.2564 C   0  0  0  0  0  0  0  0  0  0  0  0
   29.2950  -18.4730  -16.5265 C   0  0  0  0  0  0  0  0  0  0  0  0
   28.7091  -17.6199  -17.4246 C   0  0  0  0  0  0  0  0  0  0  0  0
   27.5906  -16.9336  -17.0610 C   0  0  0  0  0  0  0  0  0  0  0  0
   27.0478  -17.0965  -15.7911 C   0  0  0  0  0  0  0  0  0  0  0  0
   25.7098  -19.6356  -12.0887 C   0  0  0  0  0  0  0  0  0  0  0  0
   24.8505  -18.9333  -11.4543 O   0  0  0  0  0  0  0  0  0  0  0  0
   29.4057  -20.1620   -6.4754 C   0  0  0  0  0  0  0  0  0  0  0  0
   27.7157  -19.6325   -6.5818 S   0  0  0  0  0  0  0  0  0  0  0  0
   26.6457  -20.5354   -7.6776 C   0  0  0  0  0  0  0  0  0  0  0  0
   26.9056  -20.3894   -9.1308 C   0  0  0  0  0  0  0  0  0  0  0  0
   26.0207  -21.1226  -10.0635 C   0  0  2  0  0  0  0  0  0  0  0  0
   26.2970  -20.7463  -11.4315 N   0  0  0  0  0  0  0  0  0  0  0  0
   24.5986  -21.0806   -9.7292 C   0  0  0  0  0  0  0  0  0  0  0  0
   23.7528  -20.8075  -10.6063 O   0  0  0  0  0  0  0  0  0  0  0  0
   24.1310  -21.3370   -8.4472 O   0  0  0  0  0  0  0  0  0  0  0  0
  2  3  2  0
  2  1  1  0
  4  2  1  0
  5  4  1  0
  5  6  1  0
  6  8  1  0
  6  7  1  6
  8  9  2  0
 10 11  1  0
 10  8  1  0
 11 12  1  1
 12 13  1  0
 13 18  2  0
 14 15  2  0
 14 13  1  0
 15 16  1  0
 16 17  2  0
 18 17  1  0
 19 20  2  0
 19 11  1  0
 21 22  1  0
 22 23  1  0
 23 24  1  0
 25 24  1  1
 25 27  1  0
 25 26  1  0
 26 19  1  0
 27 29  1  0
 28 27  2  0
M  END
$$$$
