HWK.pdb
     RDKit          3D

 34 36  0  0  1  0  0  0  0  0999 V2000
   10.8709  -16.1762   18.4915 N   0  0  0  0  0  0  0  0  0  0  0  0
    9.7606  -16.6744   19.2599 C   0  0  1  0  0  0  0  0  0  0  0  0
    9.7420  -18.2004   19.2299 C   0  0  0  0  0  0  0  0  0  0  0  0
    9.4484  -18.6338   17.8452 C   0  0  0  0  0  0  0  0  0  0  0  0
   10.3437  -19.0815   16.9056 C   0  0  0  0  0  0  0  0  0  0  0  0
    9.6176  -19.3653   15.7838 N   0  0  0  0  0  0  0  0  0  0  0  0
    8.3142  -19.1049   16.0118 C   0  0  0  0  0  0  0  0  0  0  0  0
    8.2354  -18.6551   17.2897 N   0  0  0  0  0  0  0  0  0  0  0  0
    9.8692  -16.2421   20.6624 C   0  0  0  0  0  0  0  0  0  0  0  0
   10.9527  -16.0237   21.2541 O   0  0  0  0  0  0  0  0  0  0  0  0
    8.6507  -16.0636   21.3783 N   0  0  0  0  0  0  0  0  0  0  0  0
    8.6167  -15.7457   22.7711 C   0  0  1  0  0  0  0  0  0  0  0  0
    7.2202  -15.3168   23.1496 C   0  0  0  0  0  0  0  0  0  0  0  0
    7.0120  -14.9848   24.5487 C   0  0  0  0  0  0  0  0  0  0  0  0
    6.5388  -15.8497   25.5435 C   0  0  0  0  0  0  0  0  0  0  0  0
    6.4449  -15.1899   26.7067 N   0  0  0  0  0  0  0  0  0  0  0  0
    6.8415  -13.9202   26.5083 C   0  0  0  0  0  0  0  0  0  0  0  0
    6.9446  -12.8506   27.3564 C   0  0  0  0  0  0  0  0  0  0  0  0
    7.3996  -11.6193   26.9127 C   0  0  0  0  0  0  0  0  0  0  0  0
    7.7577  -11.4641   25.5882 C   0  0  0  0  0  0  0  0  0  0  0  0
    7.6499  -12.5399   24.7511 C   0  0  0  0  0  0  0  0  0  0  0  0
    7.1924  -13.7765   25.1948 C   0  0  0  0  0  0  0  0  0  0  0  0
    9.1151  -16.8613   23.5663 C   0  0  0  0  0  0  0  0  0  0  0  0
    8.7891  -18.0368   23.2928 O   0  0  0  0  0  0  0  0  0  0  0  0
    9.9910  -16.6618   24.6822 N   0  0  0  0  0  0  0  0  0  0  0  0
   10.4252  -17.8122   25.4490 C   0  0  1  0  0  0  0  0  0  0  0  0
   11.8317  -18.1687   25.0180 C   0  0  0  0  0  0  0  0  0  0  0  0
   12.2767  -19.3694   25.7778 C   0  0  0  0  0  0  0  0  0  0  0  0
   13.7087  -19.7620   25.4664 C   0  0  0  0  0  0  0  0  0  0  0  0
   14.0157  -20.9694   26.3590 C   0  0  0  0  0  0  0  0  0  0  0  0
   14.5255  -20.4216   27.6056 N   0  0  0  0  0  0  0  0  0  0  0  0
   10.4474  -17.4584   26.8902 C   0  0  0  0  0  0  0  0  0  0  0  0
   10.2054  -18.3587   27.7360 O   0  0  0  0  0  0  0  0  0  0  0  0
   10.7193  -16.1901   27.3795 O   0  0  0  0  0  0  0  0  0  0  0  0
  2  1  1  6
  2  3  1  0
  3  4  1  0
  4  5  2  0
  4  8  1  0
  5  6  1  0
  6  7  1  0
  8  7  2  0
  9 10  2  0
  9  2  1  0
 11  9  1  0
 12 13  1  1
 12 11  1  0
 13 14  1  0
 14 15  2  0
 14 22  1  0
 15 16  1  0
 16 17  1  0
 17 18  2  0
 19 18  1  0
 20 19  2  0
 21 22  2  0
 21 20  1  0
 22 17  1  0
 23 12  1  0
 24 23  2  0
 25 23  1  0
 26 25  1  0
 26 27  1  6
 27 28  1  0
 29 28  1  0
 29 30  1  0
 30 31  1  0
 32 26  1  0
 32 34  1  0
 33 32  2  0
M  END
$$$$
