HWK.pdb
     RDKit          3D

 34 36  0  0  1  0  0  0  0  0999 V2000
    9.6677  -16.6628   19.8224 N   0  0  0  0  0  0  0  0  0  0  0  0
    8.9691  -16.5923   21.0787 C   0  0  1  0  0  0  0  0  0  0  0  0
    8.0503  -17.8008   21.2387 C   0  0  0  0  0  0  0  0  0  0  0  0
    7.2730  -17.9614   19.9892 C   0  0  0  0  0  0  0  0  0  0  0  0
    7.3953  -17.2312   18.8330 C   0  0  0  0  0  0  0  0  0  0  0  0
    6.4764  -17.7362   17.9574 N   0  0  0  0  0  0  0  0  0  0  0  0
    5.8024  -18.7467   18.5433 C   0  0  0  0  0  0  0  0  0  0  0  0
    6.3117  -18.8663   19.7956 N   0  0  0  0  0  0  0  0  0  0  0  0
    9.9229  -16.5868   22.1992 C   0  0  0  0  0  0  0  0  0  0  0  0
   11.0923  -17.0344   22.1358 O   0  0  0  0  0  0  0  0  0  0  0  0
    9.4694  -16.0298   23.4294 N   0  0  0  0  0  0  0  0  0  0  0  0
   10.3123  -15.9122   24.5773 C   0  0  1  0  0  0  0  0  0  0  0  0
    9.8610  -14.7357   25.4076 C   0  0  0  0  0  0  0  0  0  0  0  0
    8.4262  -14.5187   25.4799 C   0  0  0  0  0  0  0  0  0  0  0  0
    7.4306  -15.4535   25.1689 C   0  0  0  0  0  0  0  0  0  0  0  0
    6.2226  -14.8926   25.3218 N   0  0  0  0  0  0  0  0  0  0  0  0
    6.3925  -13.6205   25.7236 C   0  0  0  0  0  0  0  0  0  0  0  0
    5.4981  -12.6293   26.0266 C   0  0  0  0  0  0  0  0  0  0  0  0
    5.9222  -11.3759   26.4379 C   0  0  0  0  0  0  0  0  0  0  0  0
    7.2742  -11.1175   26.5459 C   0  0  0  0  0  0  0  0  0  0  0  0
    8.1574  -12.1156   26.2402 C   0  0  0  0  0  0  0  0  0  0  0  0
    7.7334  -13.3742   25.8262 C   0  0  0  0  0  0  0  0  0  0  0  0
   10.3479  -17.1658   25.3206 C   0  0  0  0  0  0  0  0  0  0  0  0
    9.3643  -17.9376   25.3192 O   0  0  0  0  0  0  0  0  0  0  0  0
   11.4983  -17.5641   26.0756 N   0  0  0  0  0  0  0  0  0  0  0  0
   11.5285  -18.8878   26.6646 C   0  0  1  0  0  0  0  0  0  0  0  0
   12.9550  -19.3927   26.6285 C   0  0  0  0  0  0  0  0  0  0  0  0
   13.0112  -20.7207   27.2997 C   0  0  0  0  0  0  0  0  0  0  0  0
   14.4133  -21.2986   27.3384 C   0  0  0  0  0  0  0  0  0  0  0  0
   14.2875  -22.6572   28.0362 C   0  0  0  0  0  0  0  0  0  0  0  0
   15.6359  -23.1979   28.0974 N   0  0  0  0  0  0  0  0  0  0  0  0
   11.0925  -18.8024   28.0807 C   0  0  0  0  0  0  0  0  0  0  0  0
   11.0293  -19.8620   28.7571 O   0  0  0  0  0  0  0  0  0  0  0  0
   10.7450  -17.6232   28.7217 O   0  0  0  0  0  0  0  0  0  0  0  0
  2  1  1  6
  2  3  1  0
  3  4  1  0
  4  5  2  0
  4  8  1  0
  5  6  1  0
  6  7  1  0
  8  7  2  0
  9 10  2  0
  9  2  1  0
 11  9  1  0
 12 13  1  1
 12 11  1  0
 13 14  1  0
 14 15  2  0
 14 22  1  0
 15 16  1  0
 16 17  1  0
 17 18  2  0
 19 18  1  0
 20 19  2  0
 21 22  2  0
 21 20  1  0
 22 17  1  0
 23 12  1  0
 24 23  2  0
 25 23  1  0
 26 25  1  0
 26 27  1  1
 27 28  1  0
 29 28  1  0
 29 30  1  0
 30 31  1  0
 32 26  1  0
 32 34  1  0
 33 32  2  0
M  END
$$$$
