HWK.pdb
     RDKit          3D

 34 36  0  0  1  0  0  0  0  0999 V2000
    8.9406  -17.6116   19.0295 N   0  0  0  0  0  0  0  0  0  0  0  0
   10.1003  -16.7859   19.2410 C   0  0  1  0  0  0  0  0  0  0  0  0
   10.1651  -15.6881   18.1823 C   0  0  0  0  0  0  0  0  0  0  0  0
   10.1663  -16.3295   16.8482 C   0  0  0  0  0  0  0  0  0  0  0  0
   10.1310  -17.6736   16.5706 C   0  0  0  0  0  0  0  0  0  0  0  0
   10.1469  -17.7881   15.2095 N   0  0  0  0  0  0  0  0  0  0  0  0
   10.1906  -16.5601   14.6536 C   0  0  0  0  0  0  0  0  0  0  0  0
   10.2018  -15.6775   15.6845 N   0  0  0  0  0  0  0  0  0  0  0  0
   10.0433  -16.1467   20.5652 C   0  0  0  0  0  0  0  0  0  0  0  0
   10.9232  -15.3770   21.0183 O   0  0  0  0  0  0  0  0  0  0  0  0
    8.9036  -16.4322   21.3706 N   0  0  0  0  0  0  0  0  0  0  0  0
    8.7754  -15.9649   22.7149 C   0  0  1  0  0  0  0  0  0  0  0  0
    7.3850  -15.4155   22.9202 C   0  0  0  0  0  0  0  0  0  0  0  0
    7.0659  -14.9740   24.2672 C   0  0  0  0  0  0  0  0  0  0  0  0
    6.4801  -15.7494   25.2758 C   0  0  0  0  0  0  0  0  0  0  0  0
    6.3060  -15.0018   26.3749 N   0  0  0  0  0  0  0  0  0  0  0  0
    6.7589  -13.7612   26.1212 C   0  0  0  0  0  0  0  0  0  0  0  0
    6.8217  -12.6337   26.8951 C   0  0  0  0  0  0  0  0  0  0  0  0
    7.3529  -11.4512   26.4057 C   0  0  0  0  0  0  0  0  0  0  0  0
    7.8302  -11.4053   25.1109 C   0  0  0  0  0  0  0  0  0  0  0  0
    7.7617  -12.5378   24.3479 C   0  0  0  0  0  0  0  0  0  0  0  0
    7.2278  -13.7255   24.8374 C   0  0  0  0  0  0  0  0  0  0  0  0
    9.1281  -17.0161   23.6614 C   0  0  0  0  0  0  0  0  0  0  0  0
    8.5798  -18.1382   23.6035 O   0  0  0  0  0  0  0  0  0  0  0  0
   10.1077  -16.8122   24.6866 N   0  0  0  0  0  0  0  0  0  0  0  0
   10.4341  -17.9097   25.5749 C   0  0  1  0  0  0  0  0  0  0  0  0
   11.8923  -18.2644   25.3777 C   0  0  0  0  0  0  0  0  0  0  0  0
   12.2204  -19.4385   26.2327 C   0  0  0  0  0  0  0  0  0  0  0  0
   13.6191  -19.9712   25.9846 C   0  0  0  0  0  0  0  0  0  0  0  0
   13.7554  -21.2174   26.8661 C   0  0  0  0  0  0  0  0  0  0  0  0
   15.0873  -21.7410   26.6092 N   0  0  0  0  0  0  0  0  0  0  0  0
   10.2387  -17.4751   26.9804 C   0  0  0  0  0  0  0  0  0  0  0  0
    9.7741  -18.3017   27.8082 O   0  0  0  0  0  0  0  0  0  0  0  0
   10.5353  -16.2065   27.4546 O   0  0  0  0  0  0  0  0  0  0  0  0
  2  1  1  6
  2  3  1  0
  3  4  1  0
  4  5  2  0
  4  8  1  0
  5  6  1  0
  6  7  1  0
  8  7  2  0
  9 10  2  0
  9  2  1  0
 11  9  1  0
 12 13  1  1
 12 11  1  0
 13 14  1  0
 14 15  2  0
 14 22  1  0
 15 16  1  0
 16 17  1  0
 17 18  2  0
 19 18  1  0
 20 19  2  0
 21 22  2  0
 21 20  1  0
 22 17  1  0
 23 12  1  0
 24 23  2  0
 25 23  1  0
 26 25  1  0
 26 27  1  1
 27 28  1  0
 29 28  1  0
 29 30  1  0
 30 31  1  0
 32 26  1  0
 32 34  1  0
 33 32  2  0
M  END
$$$$
