HWK.pdb
     RDKit          3D

 34 36  0  0  1  0  0  0  0  0999 V2000
    8.3659  -12.8229   17.9807 N   0  0  0  0  0  0  0  0  0  0  0  0
    8.1902  -14.1437   18.5248 C   0  0  1  0  0  0  0  0  0  0  0  0
    9.0567  -15.1453   17.7659 C   0  0  0  0  0  0  0  0  0  0  0  0
    8.6256  -15.1525   16.3498 C   0  0  0  0  0  0  0  0  0  0  0  0
    7.3918  -14.8111   15.8535 C   0  0  0  0  0  0  0  0  0  0  0  0
    7.4623  -14.9703   14.4986 N   0  0  0  0  0  0  0  0  0  0  0  0
    8.6956  -15.3962   14.1576 C   0  0  0  0  0  0  0  0  0  0  0  0
    9.3943  -15.5009   15.3163 N   0  0  0  0  0  0  0  0  0  0  0  0
    8.5847  -14.1738   19.9422 C   0  0  0  0  0  0  0  0  0  0  0  0
    9.5972  -13.5993   20.4078 O   0  0  0  0  0  0  0  0  0  0  0  0
    7.7464  -14.9082   20.8294 N   0  0  0  0  0  0  0  0  0  0  0  0
    7.9657  -14.9446   22.2410 C   0  0  1  0  0  0  0  0  0  0  0  0
    6.6379  -14.8594   22.9531 C   0  0  0  0  0  0  0  0  0  0  0  0
    6.6963  -14.7440   24.4003 C   0  0  0  0  0  0  0  0  0  0  0  0
    6.4809  -15.7757   25.3227 C   0  0  0  0  0  0  0  0  0  0  0  0
    6.5857  -15.2944   26.5695 N   0  0  0  0  0  0  0  0  0  0  0  0
    6.8635  -13.9806   26.4959 C   0  0  0  0  0  0  0  0  0  0  0  0
    7.0751  -13.0344   27.4624 C   0  0  0  0  0  0  0  0  0  0  0  0
    7.3629  -11.7193   27.1339 C   0  0  0  0  0  0  0  0  0  0  0  0
    7.4390  -11.3518   25.8052 C   0  0  0  0  0  0  0  0  0  0  0  0
    7.2254  -12.3059   24.8493 C   0  0  0  0  0  0  0  0  0  0  0  0
    6.9354  -13.6264   25.1773 C   0  0  0  0  0  0  0  0  0  0  0  0
    8.7466  -16.1188   22.6108 C   0  0  0  0  0  0  0  0  0  0  0  0
    8.4766  -17.2421   22.1330 O   0  0  0  0  0  0  0  0  0  0  0  0
    9.8454  -16.0377   23.5264 N   0  0  0  0  0  0  0  0  0  0  0  0
   10.6212  -17.2306   23.8003 C   0  0  1  0  0  0  0  0  0  0  0  0
   12.0874  -16.8942   23.6321 C   0  0  0  0  0  0  0  0  0  0  0  0
   12.8901  -18.1317   23.8351 C   0  0  0  0  0  0  0  0  0  0  0  0
   14.3659  -17.9260   23.5500 C   0  0  0  0  0  0  0  0  0  0  0  0
   15.0297  -19.2894   23.7721 C   0  0  0  0  0  0  0  0  0  0  0  0
   16.4544  -19.0729   23.5792 N   0  0  0  0  0  0  0  0  0  0  0  0
   10.3905  -17.6516   25.2047 C   0  0  0  0  0  0  0  0  0  0  0  0
   10.7362  -18.8112   25.5512 O   0  0  0  0  0  0  0  0  0  0  0  0
    9.8135  -16.8486   26.1765 O   0  0  0  0  0  0  0  0  0  0  0  0
  2  1  1  6
  2  3  1  0
  3  4  1  0
  4  5  2  0
  4  8  1  0
  5  6  1  0
  6  7  1  0
  8  7  2  0
  9 10  2  0
  9  2  1  0
 11  9  1  0
 12 13  1  1
 12 11  1  0
 13 14  1  0
 14 15  2  0
 14 22  1  0
 15 16  1  0
 16 17  1  0
 17 18  2  0
 19 18  1  0
 20 19  2  0
 21 22  2  0
 21 20  1  0
 22 17  1  0
 23 12  1  0
 24 23  2  0
 25 23  1  0
 26 25  1  0
 26 27  1  1
 27 28  1  0
 29 28  1  0
 29 30  1  0
 30 31  1  0
 32 26  1  0
 32 34  1  0
 33 32  2  0
M  END
$$$$
