HWK.pdb
     RDKit          3D

 34 36  0  0  1  0  0  0  0  0999 V2000
    9.8322  -17.6310   20.0130 N   0  0  0  0  0  0  0  0  0  0  0  0
   10.5162  -16.3646   20.0166 C   0  0  1  0  0  0  0  0  0  0  0  0
   10.0499  -15.5111   18.8401 C   0  0  0  0  0  0  0  0  0  0  0  0
   10.2552  -16.2850   17.5951 C   0  0  0  0  0  0  0  0  0  0  0  0
    9.3075  -16.6306   16.6639 C   0  0  0  0  0  0  0  0  0  0  0  0
    9.9587  -17.3370   15.6928 N   0  0  0  0  0  0  0  0  0  0  0  0
   11.2677  -17.4307   16.0038 C   0  0  0  0  0  0  0  0  0  0  0  0
   11.4256  -16.7743   17.1811 N   0  0  0  0  0  0  0  0  0  0  0  0
   10.2338  -15.6298   21.2599 C   0  0  0  0  0  0  0  0  0  0  0  0
   10.7863  -14.5530   21.5870 O   0  0  0  0  0  0  0  0  0  0  0  0
    9.2634  -16.1947   22.1366 N   0  0  0  0  0  0  0  0  0  0  0  0
    8.9569  -15.6278   23.4119 C   0  0  1  0  0  0  0  0  0  0  0  0
    7.4608  -15.4815   23.5448 C   0  0  0  0  0  0  0  0  0  0  0  0
    6.9817  -14.9477   24.8084 C   0  0  0  0  0  0  0  0  0  0  0  0
    6.2584  -15.6479   25.7821 C   0  0  0  0  0  0  0  0  0  0  0  0
    5.9602  -14.8267   26.7989 N   0  0  0  0  0  0  0  0  0  0  0  0
    6.4646  -13.6104   26.5250 C   0  0  0  0  0  0  0  0  0  0  0  0
    6.4496  -12.4344   27.2256 C   0  0  0  0  0  0  0  0  0  0  0  0
    7.0605  -11.2928   26.7322 C   0  0  0  0  0  0  0  0  0  0  0  0
    7.6990  -11.3384   25.5088 C   0  0  0  0  0  0  0  0  0  0  0  0
    7.7068  -12.5187   24.8186 C   0  0  0  0  0  0  0  0  0  0  0  0
    7.0931  -13.6655   25.3121 C   0  0  0  0  0  0  0  0  0  0  0  0
    9.5592  -16.4128   24.4826 C   0  0  0  0  0  0  0  0  0  0  0  0
    9.3199  -16.1484   25.6809 O   0  0  0  0  0  0  0  0  0  0  0  0
   10.4404  -17.5093   24.2118 N   0  0  0  0  0  0  0  0  0  0  0  0
   11.0679  -18.1972   25.3222 C   0  0  1  0  0  0  0  0  0  0  0  0
   11.0576  -19.6822   25.0295 C   0  0  0  0  0  0  0  0  0  0  0  0
   11.7230  -20.3975   26.1532 C   0  0  0  0  0  0  0  0  0  0  0  0
   11.7185  -21.9039   25.9732 C   0  0  0  0  0  0  0  0  0  0  0  0
   12.4273  -22.4754   27.2059 C   0  0  0  0  0  0  0  0  0  0  0  0
   12.5403  -23.9058   26.9708 N   0  0  0  0  0  0  0  0  0  0  0  0
   12.4775  -17.7482   25.4412 C   0  0  0  0  0  0  0  0  0  0  0  0
   13.1142  -18.0317   26.4893 O   0  0  0  0  0  0  0  0  0  0  0  0
   13.1535  -17.0291   24.4676 O   0  0  0  0  0  0  0  0  0  0  0  0
  2  1  1  1
  2  3  1  0
  3  4  1  0
  4  5  2  0
  4  8  1  0
  5  6  1  0
  6  7  1  0
  8  7  2  0
  9 10  2  0
  9  2  1  0
 11  9  1  0
 12 13  1  1
 12 11  1  0
 13 14  1  0
 14 15  2  0
 14 22  1  0
 15 16  1  0
 16 17  1  0
 17 18  2  0
 19 18  1  0
 20 19  2  0
 21 22  2  0
 21 20  1  0
 22 17  1  0
 23 12  1  0
 24 23  2  0
 25 23  1  0
 26 25  1  0
 26 27  1  6
 27 28  1  0
 29 28  1  0
 29 30  1  0
 30 31  1  0
 32 26  1  0
 32 34  1  0
 33 32  2  0
M  END
$$$$
