HWK.pdb
     RDKit          3D

 34 36  0  0  1  0  0  0  0  0999 V2000
    8.0743  -16.3806   20.8532 N   0  0  0  0  0  0  0  0  0  0  0  0
    9.4754  -16.5270   20.5584 C   0  0  1  0  0  0  0  0  0  0  0  0
    9.8927  -15.5333   19.4775 C   0  0  0  0  0  0  0  0  0  0  0  0
    8.7078  -14.7281   19.1050 C   0  0  0  0  0  0  0  0  0  0  0  0
    8.0828  -13.7676   19.8612 C   0  0  0  0  0  0  0  0  0  0  0  0
    7.0433  -13.2988   19.1090 N   0  0  0  0  0  0  0  0  0  0  0  0
    7.0174  -13.9421   17.9240 C   0  0  0  0  0  0  0  0  0  0  0  0
    8.0535  -14.8183   17.9455 N   0  0  0  0  0  0  0  0  0  0  0  0
   10.2846  -16.2680   21.7599 C   0  0  0  0  0  0  0  0  0  0  0  0
   11.5357  -16.1859   21.7669 O   0  0  0  0  0  0  0  0  0  0  0  0
    9.5812  -16.1002   22.9873 N   0  0  0  0  0  0  0  0  0  0  0  0
   10.2457  -15.8352   24.2243 C   0  0  1  0  0  0  0  0  0  0  0  0
    9.7744  -14.5087   24.7681 C   0  0  0  0  0  0  0  0  0  0  0  0
    8.4108  -14.4724   25.2682 C   0  0  0  0  0  0  0  0  0  0  0  0
    7.4509  -15.4829   25.1303 C   0  0  0  0  0  0  0  0  0  0  0  0
    6.2977  -15.0880   25.6883 N   0  0  0  0  0  0  0  0  0  0  0  0
    6.4692  -13.8516   26.1887 C   0  0  0  0  0  0  0  0  0  0  0  0
    5.6222  -13.0094   26.8575 C   0  0  0  0  0  0  0  0  0  0  0  0
    6.0401  -11.7622   27.2932 C   0  0  0  0  0  0  0  0  0  0  0  0
    7.3374  -11.3568   27.0497 C   0  0  0  0  0  0  0  0  0  0  0  0
    8.1736  -12.2069   26.3805 C   0  0  0  0  0  0  0  0  0  0  0  0
    7.7553  -13.4590   25.9416 C   0  0  0  0  0  0  0  0  0  0  0  0
   10.0605  -16.9413   25.1556 C   0  0  0  0  0  0  0  0  0  0  0  0
    8.9950  -17.5951   25.1674 O   0  0  0  0  0  0  0  0  0  0  0  0
   11.0799  -17.3239   26.0866 N   0  0  0  0  0  0  0  0  0  0  0  0
   10.9254  -18.5582   26.8299 C   0  0  1  0  0  0  0  0  0  0  0  0
   12.2322  -19.3193   26.7662 C   0  0  0  0  0  0  0  0  0  0  0  0
   12.0569  -20.6319   27.4470 C   0  0  0  0  0  0  0  0  0  0  0  0
   13.3457  -21.4285   27.5241 C   0  0  0  0  0  0  0  0  0  0  0  0
   12.9657  -22.7823   28.1337 C   0  0  0  0  0  0  0  0  0  0  0  0
   14.1875  -23.5704   28.1420 N   0  0  0  0  0  0  0  0  0  0  0  0
   10.6318  -18.2402   28.2495 C   0  0  0  0  0  0  0  0  0  0  0  0
   11.0105  -17.1316   28.7099 O   0  0  0  0  0  0  0  0  0  0  0  0
    9.9608  -19.0877   29.1177 O   0  0  0  0  0  0  0  0  0  0  0  0
  2  1  1  1
  2  3  1  0
  3  4  1  0
  4  5  2  0
  4  8  1  0
  5  6  1  0
  6  7  1  0
  8  7  2  0
  9 10  2  0
  9  2  1  0
 11  9  1  0
 12 13  1  1
 12 11  1  0
 13 14  1  0
 14 15  2  0
 14 22  1  0
 15 16  1  0
 16 17  1  0
 17 18  2  0
 19 18  1  0
 20 19  2  0
 21 22  2  0
 21 20  1  0
 22 17  1  0
 23 12  1  0
 24 23  2  0
 25 23  1  0
 26 25  1  0
 26 27  1  1
 27 28  1  0
 29 28  1  0
 29 30  1  0
 30 31  1  0
 32 26  1  0
 32 34  1  0
 33 32  2  0
M  END
$$$$
