HWK.pdb
     RDKit          3D

 34 36  0  0  1  0  0  0  0  0999 V2000
   10.2496  -16.4655   20.1805 N   0  0  0  0  0  0  0  0  0  0  0  0
   10.4547  -17.4417   21.2179 C   0  0  1  0  0  0  0  0  0  0  0  0
   11.8251  -18.0957   21.0621 C   0  0  0  0  0  0  0  0  0  0  0  0
   11.8256  -18.8784   19.8057 C   0  0  0  0  0  0  0  0  0  0  0  0
   12.0627  -18.4140   18.5356 C   0  0  0  0  0  0  0  0  0  0  0  0
   11.9587  -19.4925   17.7036 N   0  0  0  0  0  0  0  0  0  0  0  0
   11.6669  -20.5934   18.4259 C   0  0  0  0  0  0  0  0  0  0  0  0
   11.5900  -20.1890   19.7191 N   0  0  0  0  0  0  0  0  0  0  0  0
   10.3955  -16.8054   22.5434 C   0  0  0  0  0  0  0  0  0  0  0  0
   11.0982  -15.8270   22.8911 O   0  0  0  0  0  0  0  0  0  0  0  0
    9.4705  -17.3504   23.4797 N   0  0  0  0  0  0  0  0  0  0  0  0
    9.2888  -16.8045   24.7877 C   0  0  1  0  0  0  0  0  0  0  0  0
    7.8365  -16.4409   24.9778 C   0  0  0  0  0  0  0  0  0  0  0  0
    7.4713  -15.0757   24.6405 C   0  0  0  0  0  0  0  0  0  0  0  0
    7.2190  -14.5794   23.3553 C   0  0  0  0  0  0  0  0  0  0  0  0
    6.9420  -13.2695   23.4246 N   0  0  0  0  0  0  0  0  0  0  0  0
    7.0035  -12.8897   24.7133 C   0  0  0  0  0  0  0  0  0  0  0  0
    6.7995  -11.6805   25.3217 C   0  0  0  0  0  0  0  0  0  0  0  0
    6.9112  -11.5359   26.6953 C   0  0  0  0  0  0  0  0  0  0  0  0
    7.2346  -12.6322   27.4699 C   0  0  0  0  0  0  0  0  0  0  0  0
    7.4362  -13.8343   26.8504 C   0  0  0  0  0  0  0  0  0  0  0  0
    7.3254  -13.9810   25.4714 C   0  0  0  0  0  0  0  0  0  0  0  0
    9.7937  -17.7209   25.8029 C   0  0  0  0  0  0  0  0  0  0  0  0
    9.2434  -18.8268   25.9959 O   0  0  0  0  0  0  0  0  0  0  0  0
   10.9300  -17.3987   26.6136 N   0  0  0  0  0  0  0  0  0  0  0  0
   11.3582  -18.3397   27.6291 C   0  0  1  0  0  0  0  0  0  0  0  0
   12.8715  -18.3532   27.6580 C   0  0  0  0  0  0  0  0  0  0  0  0
   13.3538  -19.5822   26.9695 C   0  0  0  0  0  0  0  0  0  0  0  0
   14.8674  -19.6756   26.9298 C   0  0  0  0  0  0  0  0  0  0  0  0
   15.1872  -21.0038   26.2353 C   0  0  0  0  0  0  0  0  0  0  0  0
   16.6357  -21.0513   26.1181 N   0  0  0  0  0  0  0  0  0  0  0  0
   10.8637  -17.8878   28.9535 C   0  0  0  0  0  0  0  0  0  0  0  0
   11.1813  -18.5519   29.9744 O   0  0  0  0  0  0  0  0  0  0  0  0
   10.0659  -16.7712   29.1504 O   0  0  0  0  0  0  0  0  0  0  0  0
  2  1  1  6
  2  3  1  0
  3  4  1  0
  4  5  2  0
  4  8  1  0
  5  6  1  0
  6  7  1  0
  8  7  2  0
  9 10  2  0
  9  2  1  0
 11  9  1  0
 12 13  1  1
 12 11  1  0
 13 14  1  0
 14 15  2  0
 14 22  1  0
 15 16  1  0
 16 17  1  0
 17 18  2  0
 19 18  1  0
 20 19  2  0
 21 22  2  0
 21 20  1  0
 22 17  1  0
 23 12  1  0
 24 23  2  0
 25 23  1  0
 26 25  1  0
 26 27  1  1
 27 28  1  0
 29 28  1  0
 29 30  1  0
 30 31  1  0
 32 26  1  0
 32 34  1  0
 33 32  2  0
M  END
$$$$
