HWK.pdb
     RDKit          3D

 34 36  0  0  1  0  0  0  0  0999 V2000
    7.8272  -13.1579   20.1124 N   0  0  0  0  0  0  0  0  0  0  0  0
    8.0723  -14.5353   20.4503 C   0  0  1  0  0  0  0  0  0  0  0  0
    8.8889  -15.2097   19.3510 C   0  0  0  0  0  0  0  0  0  0  0  0
    8.1238  -15.1256   18.0866 C   0  0  0  0  0  0  0  0  0  0  0  0
    7.2334  -14.1485   17.7158 C   0  0  0  0  0  0  0  0  0  0  0  0
    6.7796  -14.4899   16.4734 N   0  0  0  0  0  0  0  0  0  0  0  0
    7.3643  -15.6395   16.0793 C   0  0  0  0  0  0  0  0  0  0  0  0
    8.1887  -16.0117   17.0911 N   0  0  0  0  0  0  0  0  0  0  0  0
    8.8273  -14.6305   21.7098 C   0  0  0  0  0  0  0  0  0  0  0  0
    9.7558  -13.8551   22.0391 O   0  0  0  0  0  0  0  0  0  0  0  0
    8.4627  -15.6791   22.6024 N   0  0  0  0  0  0  0  0  0  0  0  0
    9.1583  -15.9234   23.8265 C   0  0  1  0  0  0  0  0  0  0  0  0
    8.1656  -16.3162   24.8931 C   0  0  0  0  0  0  0  0  0  0  0  0
    7.2190  -15.2891   25.2930 C   0  0  0  0  0  0  0  0  0  0  0  0
    5.8225  -15.3886   25.2517 C   0  0  0  0  0  0  0  0  0  0  0  0
    5.2764  -14.2367   25.6667 N   0  0  0  0  0  0  0  0  0  0  0  0
    6.2686  -13.3845   25.9797 C   0  0  0  0  0  0  0  0  0  0  0  0
    6.2564  -12.1005   26.4544 C   0  0  0  0  0  0  0  0  0  0  0  0
    7.4329  -11.4174   26.7177 C   0  0  0  0  0  0  0  0  0  0  0  0
    8.6448  -12.0416   26.4982 C   0  0  0  0  0  0  0  0  0  0  0  0
    8.6437  -13.3240   26.0237 C   0  0  0  0  0  0  0  0  0  0  0  0
    7.4635  -14.0108   25.7580 C   0  0  0  0  0  0  0  0  0  0  0  0
   10.2164  -16.9068   23.6302 C   0  0  0  0  0  0  0  0  0  0  0  0
    9.9454  -18.0753   23.2776 O   0  0  0  0  0  0  0  0  0  0  0  0
   11.5971  -16.5810   23.8293 N   0  0  0  0  0  0  0  0  0  0  0  0
   12.5944  -17.6203   23.6705 C   0  0  1  0  0  0  0  0  0  0  0  0
   13.9264  -16.9621   23.3816 C   0  0  0  0  0  0  0  0  0  0  0  0
   14.9568  -18.0220   23.2030 C   0  0  0  0  0  0  0  0  0  0  0  0
   16.3181  -17.4602   22.8386 C   0  0  0  0  0  0  0  0  0  0  0  0
   17.2313  -18.6738   22.6340 C   0  0  0  0  0  0  0  0  0  0  0  0
   18.5507  -18.1336   22.3484 N   0  0  0  0  0  0  0  0  0  0  0  0
   12.7093  -18.3848   24.9374 C   0  0  0  0  0  0  0  0  0  0  0  0
   13.2409  -19.5253   24.9075 O   0  0  0  0  0  0  0  0  0  0  0  0
   12.2672  -17.9271   26.1692 O   0  0  0  0  0  0  0  0  0  0  0  0
  2  1  1  6
  2  3  1  0
  3  4  1  0
  4  5  2  0
  4  8  1  0
  5  6  1  0
  6  7  1  0
  8  7  2  0
  9 10  2  0
  9  2  1  0
 11  9  1  0
 12 13  1  1
 12 11  1  0
 13 14  1  0
 14 15  2  0
 14 22  1  0
 15 16  1  0
 16 17  1  0
 17 18  2  0
 19 18  1  0
 20 19  2  0
 21 22  2  0
 21 20  1  0
 22 17  1  0
 23 12  1  0
 24 23  2  0
 25 23  1  0
 26 25  1  0
 26 27  1  1
 27 28  1  0
 29 28  1  0
 29 30  1  0
 30 31  1  0
 32 26  1  0
 32 34  1  0
 33 32  2  0
M  END
$$$$
