HWK.pdb
     RDKit          3D

 34 36  0  0  1  0  0  0  0  0999 V2000
    7.9840  -16.6577   20.9767 N   0  0  0  0  0  0  0  0  0  0  0  0
    9.0631  -15.7244   21.1661 C   0  0  1  0  0  0  0  0  0  0  0  0
    8.6428  -14.3323   20.7020 C   0  0  0  0  0  0  0  0  0  0  0  0
    8.4752  -14.3643   19.2315 C   0  0  0  0  0  0  0  0  0  0  0  0
    8.6423  -15.4423   18.3979 C   0  0  0  0  0  0  0  0  0  0  0  0
    8.3802  -14.9976   17.1332 N   0  0  0  0  0  0  0  0  0  0  0  0
    8.0602  -13.6880   17.1723 C   0  0  0  0  0  0  0  0  0  0  0  0
    8.1258  -13.3206   18.4771 N   0  0  0  0  0  0  0  0  0  0  0  0
    9.4316  -15.6444   22.5885 C   0  0  0  0  0  0  0  0  0  0  0  0
   10.3078  -14.8761   23.0509 O   0  0  0  0  0  0  0  0  0  0  0  0
    8.7337  -16.5040   23.4848 N   0  0  0  0  0  0  0  0  0  0  0  0
    9.0894  -16.6300   24.8630 C   0  0  1  0  0  0  0  0  0  0  0  0
    7.8477  -16.5023   25.7111 C   0  0  0  0  0  0  0  0  0  0  0  0
    7.1244  -15.2473   25.5985 C   0  0  0  0  0  0  0  0  0  0  0  0
    5.8904  -15.0567   24.9641 C   0  0  0  0  0  0  0  0  0  0  0  0
    5.5449  -13.7631   25.0304 N   0  0  0  0  0  0  0  0  0  0  0  0
    6.5113  -13.0982   25.6880 C   0  0  0  0  0  0  0  0  0  0  0  0
    6.6445  -11.7795   26.0304 C   0  0  0  0  0  0  0  0  0  0  0  0
    7.7485  -11.3245   26.7335 C   0  0  0  0  0  0  0  0  0  0  0  0
    8.7370  -12.2170   27.0982 C   0  0  0  0  0  0  0  0  0  0  0  0
    8.5925  -13.5314   26.7501 C   0  0  0  0  0  0  0  0  0  0  0  0
    7.4852  -13.9896   26.0435 C   0  0  0  0  0  0  0  0  0  0  0  0
    9.8236  -17.8681   25.0943 C   0  0  0  0  0  0  0  0  0  0  0  0
    9.3193  -18.9741   24.8018 O   0  0  0  0  0  0  0  0  0  0  0  0
   11.1400  -17.8716   25.6592 N   0  0  0  0  0  0  0  0  0  0  0  0
   11.7960  -19.1403   25.9046 C   0  0  1  0  0  0  0  0  0  0  0  0
   13.2924  -18.9241   25.8344 C   0  0  0  0  0  0  0  0  0  0  0  0
   13.9754  -20.2360   26.0060 C   0  0  0  0  0  0  0  0  0  0  0  0
   15.4774  -20.1442   25.8128 C   0  0  0  0  0  0  0  0  0  0  0  0
   15.9988  -21.5832   25.8912 C   0  0  0  0  0  0  0  0  0  0  0  0
   17.4240  -21.5042   25.6146 N   0  0  0  0  0  0  0  0  0  0  0  0
   11.4497  -19.6136   27.2680 C   0  0  0  0  0  0  0  0  0  0  0  0
   11.1798  -18.7595   28.1523 O   0  0  0  0  0  0  0  0  0  0  0  0
   11.4012  -20.9473   27.6434 O   0  0  0  0  0  0  0  0  0  0  0  0
  2  1  1  1
  2  3  1  0
  3  4  1  0
  4  5  2  0
  4  8  1  0
  5  6  1  0
  6  7  1  0
  8  7  2  0
  9 10  2  0
  9  2  1  0
 11  9  1  0
 12 13  1  1
 12 11  1  0
 13 14  1  0
 14 15  2  0
 14 22  1  0
 15 16  1  0
 16 17  1  0
 17 18  2  0
 19 18  1  0
 20 19  2  0
 21 22  2  0
 21 20  1  0
 22 17  1  0
 23 12  1  0
 24 23  2  0
 25 23  1  0
 26 25  1  0
 26 27  1  1
 27 28  1  0
 29 28  1  0
 29 30  1  0
 30 31  1  0
 32 26  1  0
 32 34  1  0
 33 32  2  0
M  END
$$$$
