HWK.pdb
     RDKit          3D

 34 36  0  0  1  0  0  0  0  0999 V2000
    8.0611  -16.8855   21.1344 N   0  0  0  0  0  0  0  0  0  0  0  0
    8.8630  -15.7300   21.4398 C   0  0  1  0  0  0  0  0  0  0  0  0
    8.0979  -14.4535   21.1001 C   0  0  0  0  0  0  0  0  0  0  0  0
    8.0463  -14.3216   19.6266 C   0  0  0  0  0  0  0  0  0  0  0  0
    8.5528  -15.1931   18.6945 C   0  0  0  0  0  0  0  0  0  0  0  0
    8.2685  -14.6582   17.4701 N   0  0  0  0  0  0  0  0  0  0  0  0
    7.6076  -13.4934   17.6287 C   0  0  0  0  0  0  0  0  0  0  0  0
    7.4827  -13.3076   18.9672 N   0  0  0  0  0  0  0  0  0  0  0  0
    9.1983  -15.6992   22.8723 C   0  0  0  0  0  0  0  0  0  0  0  0
    9.8884  -14.8066   23.4190 O   0  0  0  0  0  0  0  0  0  0  0  0
    8.6942  -16.7623   23.6755 N   0  0  0  0  0  0  0  0  0  0  0  0
    8.9460  -16.8514   25.0792 C   0  0  1  0  0  0  0  0  0  0  0  0
    7.6494  -16.6701   25.8298 C   0  0  0  0  0  0  0  0  0  0  0  0
    7.0630  -15.3418   25.7788 C   0  0  0  0  0  0  0  0  0  0  0  0
    5.7850  -15.0183   25.3056 C   0  0  0  0  0  0  0  0  0  0  0  0
    5.5987  -13.6929   25.3818 N   0  0  0  0  0  0  0  0  0  0  0  0
    6.7121  -13.1357   25.8901 C   0  0  0  0  0  0  0  0  0  0  0  0
    7.0366  -11.8370   26.1770 C   0  0  0  0  0  0  0  0  0  0  0  0
    8.2679  -11.5036   26.7181 C   0  0  0  0  0  0  0  0  0  0  0  0
    9.1895  -12.4993   26.9747 C   0  0  0  0  0  0  0  0  0  0  0  0
    8.8536  -13.7923   26.6835 C   0  0  0  0  0  0  0  0  0  0  0  0
    7.6182  -14.1287   26.1394 C   0  0  0  0  0  0  0  0  0  0  0  0
    9.6322  -18.0966   25.4014 C   0  0  0  0  0  0  0  0  0  0  0  0
    9.0020  -19.1743   25.4693 O   0  0  0  0  0  0  0  0  0  0  0  0
   11.0422  -18.1397   25.6505 N   0  0  0  0  0  0  0  0  0  0  0  0
   11.6514  -19.4000   26.0252 C   0  0  1  0  0  0  0  0  0  0  0  0
   13.1466  -19.2863   25.8190 C   0  0  0  0  0  0  0  0  0  0  0  0
   13.7748  -20.6009   26.1258 C   0  0  0  0  0  0  0  0  0  0  0  0
   15.2906  -20.5481   26.0913 C   0  0  0  0  0  0  0  0  0  0  0  0
   15.7675  -21.9564   26.4628 C   0  0  0  0  0  0  0  0  0  0  0  0
   17.2202  -21.9037   26.4331 N   0  0  0  0  0  0  0  0  0  0  0  0
   11.3906  -19.6603   27.4629 C   0  0  0  0  0  0  0  0  0  0  0  0
   11.2595  -20.8521   27.8459 O   0  0  0  0  0  0  0  0  0  0  0  0
   11.2794  -18.6716   28.4285 O   0  0  0  0  0  0  0  0  0  0  0  0
  2  1  1  1
  2  3  1  0
  3  4  1  0
  4  5  2  0
  4  8  1  0
  5  6  1  0
  6  7  1  0
  8  7  2  0
  9 10  2  0
  9  2  1  0
 11  9  1  0
 12 13  1  1
 12 11  1  0
 13 14  1  0
 14 15  2  0
 14 22  1  0
 15 16  1  0
 16 17  1  0
 17 18  2  0
 19 18  1  0
 20 19  2  0
 21 22  2  0
 21 20  1  0
 22 17  1  0
 23 12  1  0
 24 23  2  0
 25 23  1  0
 26 25  1  0
 26 27  1  1
 27 28  1  0
 29 28  1  0
 29 30  1  0
 30 31  1  0
 32 26  1  0
 32 34  1  0
 33 32  2  0
M  END
$$$$
