HWK.pdb
     RDKit          3D

 34 36  0  0  1  0  0  0  0  0999 V2000
    8.3490  -13.5324   20.5654 N   0  0  0  0  0  0  0  0  0  0  0  0
    8.3435  -14.9097   20.9833 C   0  0  1  0  0  0  0  0  0  0  0  0
    9.1219  -15.7652   19.9873 C   0  0  0  0  0  0  0  0  0  0  0  0
    8.4915  -15.6171   18.6562 C   0  0  0  0  0  0  0  0  0  0  0  0
    7.5544  -14.6878   18.2776 C   0  0  0  0  0  0  0  0  0  0  0  0
    7.2714  -14.9365   16.9646 N   0  0  0  0  0  0  0  0  0  0  0  0
    8.0046  -15.9838   16.5352 C   0  0  0  0  0  0  0  0  0  0  0  0
    8.7488  -16.3860   17.5964 N   0  0  0  0  0  0  0  0  0  0  0  0
    8.9760  -15.0498   22.3046 C   0  0  0  0  0  0  0  0  0  0  0  0
    9.9372  -14.3528   22.7070 O   0  0  0  0  0  0  0  0  0  0  0  0
    8.4453  -16.0484   23.1709 N   0  0  0  0  0  0  0  0  0  0  0  0
    8.9720  -16.2925   24.4766 C   0  0  1  0  0  0  0  0  0  0  0  0
    7.8369  -16.3418   25.4699 C   0  0  0  0  0  0  0  0  0  0  0  0
    7.0552  -15.1247   25.6063 C   0  0  0  0  0  0  0  0  0  0  0  0
    5.7133  -14.9572   25.2420 C   0  0  0  0  0  0  0  0  0  0  0  0
    5.3354  -13.6938   25.4832 N   0  0  0  0  0  0  0  0  0  0  0  0
    6.3851  -13.0265   25.9946 C   0  0  0  0  0  0  0  0  0  0  0  0
    6.5297  -11.7317   26.4150 C   0  0  0  0  0  0  0  0  0  0  0  0
    7.7316  -11.2690   26.9263 C   0  0  0  0  0  0  0  0  0  0  0  0
    8.8082  -12.1291   27.0154 C   0  0  0  0  0  0  0  0  0  0  0  0
    8.6512  -13.4197   26.5920 C   0  0  0  0  0  0  0  0  0  0  0  0
    7.4455  -13.8855   26.0776 C   0  0  0  0  0  0  0  0  0  0  0  0
    9.7987  -17.4932   24.4823 C   0  0  0  0  0  0  0  0  0  0  0  0
    9.4111  -18.5386   23.9166 O   0  0  0  0  0  0  0  0  0  0  0  0
   11.0771  -17.5273   25.1279 N   0  0  0  0  0  0  0  0  0  0  0  0
   11.8135  -18.7749   25.1632 C   0  0  1  0  0  0  0  0  0  0  0  0
   13.2905  -18.4541   25.2435 C   0  0  0  0  0  0  0  0  0  0  0  0
   14.0609  -19.7278   25.2081 C   0  0  0  0  0  0  0  0  0  0  0  0
   15.5614  -19.5046   25.1928 C   0  0  0  0  0  0  0  0  0  0  0  0
   16.1917  -20.8989   25.1064 C   0  0  0  0  0  0  0  0  0  0  0  0
   17.6171  -20.6790   24.9227 N   0  0  0  0  0  0  0  0  0  0  0  0
   11.4278  -19.5355   26.3779 C   0  0  0  0  0  0  0  0  0  0  0  0
   11.7213  -20.7578   26.4426 O   0  0  0  0  0  0  0  0  0  0  0  0
   10.7582  -18.9894   27.4621 O   0  0  0  0  0  0  0  0  0  0  0  0
  2  1  1  6
  2  3  1  0
  3  4  1  0
  4  5  2  0
  4  8  1  0
  5  6  1  0
  6  7  1  0
  8  7  2  0
  9 10  2  0
  9  2  1  0
 11  9  1  0
 12 13  1  1
 12 11  1  0
 13 14  1  0
 14 15  2  0
 14 22  1  0
 15 16  1  0
 16 17  1  0
 17 18  2  0
 19 18  1  0
 20 19  2  0
 21 22  2  0
 21 20  1  0
 22 17  1  0
 23 12  1  0
 24 23  2  0
 25 23  1  0
 26 25  1  0
 26 27  1  1
 27 28  1  0
 29 28  1  0
 29 30  1  0
 30 31  1  0
 32 26  1  0
 32 34  1  0
 33 32  2  0
M  END
$$$$
