HWK.pdb
     RDKit          3D

 34 36  0  0  1  0  0  0  0  0999 V2000
    9.5340  -17.5761   19.3855 N   0  0  0  0  0  0  0  0  0  0  0  0
   10.7588  -16.9503   19.8095 C   0  0  1  0  0  0  0  0  0  0  0  0
   11.2224  -15.9389   18.7645 C   0  0  0  0  0  0  0  0  0  0  0  0
   11.2994  -16.6260   17.4557 C   0  0  0  0  0  0  0  0  0  0  0  0
   12.1476  -17.6450   17.0990 C   0  0  0  0  0  0  0  0  0  0  0  0
   11.8543  -17.9562   15.8016 N   0  0  0  0  0  0  0  0  0  0  0  0
   10.8581  -17.1612   15.3607 C   0  0  0  0  0  0  0  0  0  0  0  0
   10.5331  -16.3497   16.3988 N   0  0  0  0  0  0  0  0  0  0  0  0
   10.5606  -16.2398   21.0828 C   0  0  0  0  0  0  0  0  0  0  0  0
   11.4457  -15.5689   21.6645 O   0  0  0  0  0  0  0  0  0  0  0  0
    9.2694  -16.3305   21.6777 N   0  0  0  0  0  0  0  0  0  0  0  0
    8.9986  -15.8664   23.0018 C   0  0  1  0  0  0  0  0  0  0  0  0
    7.6054  -15.2885   23.0513 C   0  0  0  0  0  0  0  0  0  0  0  0
    7.1043  -14.9434   24.3706 C   0  0  0  0  0  0  0  0  0  0  0  0
    6.3674  -15.7776   25.2208 C   0  0  0  0  0  0  0  0  0  0  0  0
    6.0502  -15.1123   26.3407 N   0  0  0  0  0  0  0  0  0  0  0  0
    6.5554  -13.8689   26.2539 C   0  0  0  0  0  0  0  0  0  0  0  0
    6.5254  -12.8067   27.1169 C   0  0  0  0  0  0  0  0  0  0  0  0
    7.1409  -11.6053   26.8040 C   0  0  0  0  0  0  0  0  0  0  0  0
    7.7993  -11.4730   25.5975 C   0  0  0  0  0  0  0  0  0  0  0  0
    7.8218  -12.5410   24.7441 C   0  0  0  0  0  0  0  0  0  0  0  0
    7.2036  -13.7476   25.0563 C   0  0  0  0  0  0  0  0  0  0  0  0
    9.2194  -16.9290   23.9752 C   0  0  0  0  0  0  0  0  0  0  0  0
    8.6338  -18.0281   23.8652 O   0  0  0  0  0  0  0  0  0  0  0  0
   10.1074  -16.7626   25.0870 N   0  0  0  0  0  0  0  0  0  0  0  0
   10.3430  -17.8855   25.9722 C   0  0  1  0  0  0  0  0  0  0  0  0
   11.7316  -18.4230   25.7004 C   0  0  0  0  0  0  0  0  0  0  0  0
   11.9908  -19.5680   26.6164 C   0  0  0  0  0  0  0  0  0  0  0  0
   13.3923  -20.1300   26.4695 C   0  0  0  0  0  0  0  0  0  0  0  0
   13.4708  -21.3178   27.4348 C   0  0  0  0  0  0  0  0  0  0  0  0
   14.7833  -21.9090   27.2300 N   0  0  0  0  0  0  0  0  0  0  0  0
   10.2836  -17.4186   27.3798 C   0  0  0  0  0  0  0  0  0  0  0  0
   10.4582  -16.1949   27.6171 O   0  0  0  0  0  0  0  0  0  0  0  0
   10.0461  -18.2445   28.4677 O   0  0  0  0  0  0  0  0  0  0  0  0
  2  1  1  6
  2  3  1  0
  3  4  1  0
  4  5  2  0
  4  8  1  0
  5  6  1  0
  6  7  1  0
  8  7  2  0
  9 10  2  0
  9  2  1  0
 11  9  1  0
 12 13  1  6
 12 11  1  0
 13 14  1  0
 14 15  2  0
 14 22  1  0
 15 16  1  0
 16 17  1  0
 17 18  2  0
 19 18  1  0
 20 19  2  0
 21 22  2  0
 21 20  1  0
 22 17  1  0
 23 12  1  0
 24 23  2  0
 25 23  1  0
 26 25  1  0
 26 27  1  6
 27 28  1  0
 29 28  1  0
 29 30  1  0
 30 31  1  0
 32 26  1  0
 32 34  1  0
 33 32  2  0
M  END
$$$$
