EQS.pdb
     RDKit          3D

 25 24  0  0  1  0  0  0  0  0999 V2000
   22.9351  -12.1197  -17.0176 N   0  0  0  0  0  0  0  0  0  0  0  0
   23.1262  -11.1536  -15.9411 C   0  0  1  0  0  0  0  0  0  0  0  0
   24.6151  -10.8823  -15.8850 C   0  0  0  0  0  0  0  0  0  0  0  0
   25.3318  -12.0999  -15.3367 C   0  0  0  0  0  0  0  0  0  0  0  0
   25.9387  -12.8320  -16.4671 C   0  0  0  0  0  0  0  0  0  0  0  0
   25.2868  -13.6696  -17.1065 O   0  0  0  0  0  0  0  0  0  0  0  0
   22.3454   -9.9448  -16.3027 C   0  0  0  0  0  0  0  0  0  0  0  0
   22.2042   -9.5506  -17.4911 O   0  0  0  0  0  0  0  0  0  0  0  0
   27.2828  -12.5511  -16.8056 O   0  0  0  0  0  0  0  0  0  0  0  0
   17.8884  -11.3465  -15.0534 N   0  0  0  0  0  0  0  0  0  0  0  0
   17.8831   -9.9429  -14.7948 C   0  0  0  0  0  0  0  0  0  0  0  0
   17.2020   -9.5271  -13.8400 O   0  0  0  0  0  0  0  0  0  0  0  0
   18.7002   -9.0953  -15.6972 C   0  0  0  0  0  0  0  0  0  0  0  0
   19.5691   -8.1242  -14.9585 C   0  0  0  0  0  0  0  0  0  0  0  0
   20.9407   -7.9618  -15.6268 C   0  0  2  0  0  0  0  0  0  0  0  0
   21.6949   -9.1415  -15.2986 N   0  0  0  0  0  0  0  0  0  0  0  0
   21.5201   -6.7271  -15.0514 C   0  0  0  0  0  0  0  0  0  0  0  0
   22.0646   -6.8373  -13.9255 O   0  0  0  0  0  0  0  0  0  0  0  0
   23.0878   -2.2262  -15.4583 O   0  0  0  0  0  0  0  0  0  0  0  0
   22.3061   -3.2002  -16.0817 C   0  0  0  0  0  0  0  0  0  0  0  0
   22.1755   -4.3346  -15.1012 C   0  0  2  0  0  0  0  0  0  0  0  0
   21.4974   -5.4711  -15.6770 N   0  0  0  0  0  0  0  0  0  0  0  0
   21.4603   -3.8336  -13.8809 C   0  0  0  0  0  0  0  0  0  0  0  0
   20.2121   -3.9055  -13.8510 O   0  0  0  0  0  0  0  0  0  0  0  0
   22.1767   -3.3049  -12.8110 O   0  0  0  0  0  0  0  0  0  0  0  0
  2  1  1  6
  2  7  1  0
  3  2  1  0
  4  3  1  0
  5  4  1  0
  5  6  2  0
  7  8  2  0
  9  5  1  0
 10 11  1  0
 11 12  2  0
 13 11  1  0
 13 14  1  0
 15 14  1  1
 16  7  1  0
 16 15  1  0
 17 18  2  0
 17 15  1  0
 19 20  1  0
 21 20  1  6
 21 22  1  0
 21 23  1  0
 22 17  1  0
 23 25  1  0
 24 23  2  0
M  END
$$$$
