EQS.pdb
     RDKit          3D

 25 24  0  0  1  0  0  0  0  0999 V2000
   17.3398  -11.3265  -18.1403 N   0  0  0  0  0  0  0  0  0  0  0  0
   17.0025  -10.7301  -16.8522 C   0  0  1  0  0  0  0  0  0  0  0  0
   17.4751  -11.7135  -15.8019 C   0  0  0  0  0  0  0  0  0  0  0  0
   16.6210  -12.9641  -15.8579 C   0  0  0  0  0  0  0  0  0  0  0  0
   16.9566  -13.8105  -14.6947 C   0  0  0  0  0  0  0  0  0  0  0  0
   17.8295  -13.4642  -13.8863 O   0  0  0  0  0  0  0  0  0  0  0  0
   17.7208   -9.4340  -16.7757 C   0  0  0  0  0  0  0  0  0  0  0  0
   18.5503   -9.0580  -17.6465 O   0  0  0  0  0  0  0  0  0  0  0  0
   16.2541  -15.0258  -14.5228 O   0  0  0  0  0  0  0  0  0  0  0  0
   13.6604   -5.5908  -16.7044 N   0  0  0  0  0  0  0  0  0  0  0  0
   14.8094   -5.2846  -15.9153 C   0  0  0  0  0  0  0  0  0  0  0  0
   14.6567   -4.5543  -14.9193 O   0  0  0  0  0  0  0  0  0  0  0  0
   16.0980   -5.8717  -16.3572 C   0  0  0  0  0  0  0  0  0  0  0  0
   16.9939   -6.2410  -15.2150 C   0  0  0  0  0  0  0  0  0  0  0  0
   18.1019   -7.2101  -15.6481 C   0  0  2  0  0  0  0  0  0  0  0  0
   17.5063   -8.5186  -15.6836 N   0  0  0  0  0  0  0  0  0  0  0  0
   19.1625   -7.0858  -14.6230 C   0  0  0  0  0  0  0  0  0  0  0  0
   19.0469   -7.8153  -13.6079 O   0  0  0  0  0  0  0  0  0  0  0  0
   22.8004   -7.0597  -15.2930 O   0  0  0  0  0  0  0  0  0  0  0  0
   22.3445   -7.2781  -13.9919 C   0  0  0  0  0  0  0  0  0  0  0  0
   21.3064   -6.2225  -13.7206 C   0  0  2  0  0  0  0  0  0  0  0  0
   20.2637   -6.2211  -14.7185 N   0  0  0  0  0  0  0  0  0  0  0  0
   21.9884   -4.8882  -13.6427 C   0  0  0  0  0  0  0  0  0  0  0  0
   21.7525   -4.0460  -14.5366 O   0  0  0  0  0  0  0  0  0  0  0  0
   22.8599   -4.6018  -12.5958 O   0  0  0  0  0  0  0  0  0  0  0  0
  2  1  1  6
  2  7  1  0
  3  2  1  0
  4  3  1  0
  5  4  1  0
  5  6  2  0
  7  8  2  0
  9  5  1  0
 10 11  1  0
 11 12  2  0
 13 11  1  0
 13 14  1  0
 15 14  1  1
 16  7  1  0
 16 15  1  0
 17 18  2  0
 17 15  1  0
 19 20  1  0
 21 20  1  6
 21 22  1  0
 21 23  1  0
 22 17  1  0
 23 25  1  0
 24 23  2  0
M  END
$$$$
