EQS.pdb
     RDKit          3D

 25 24  0  0  1  0  0  0  0  0999 V2000
   25.6277  -20.8378  -14.2936 N   0  0  0  0  0  0  0  0  0  0  0  0
   25.7396  -19.5610  -14.9908 C   0  0  1  0  0  0  0  0  0  0  0  0
   26.6492  -19.8121  -16.1753 C   0  0  0  0  0  0  0  0  0  0  0  0
   27.5299  -21.0126  -15.8925 C   0  0  0  0  0  0  0  0  0  0  0  0
   28.3547  -21.2780  -17.0889 C   0  0  0  0  0  0  0  0  0  0  0  0
   28.2765  -20.5518  -18.0898 O   0  0  0  0  0  0  0  0  0  0  0  0
   24.3683  -19.1737  -15.4043 C   0  0  0  0  0  0  0  0  0  0  0  0
   24.1262  -18.1557  -16.1062 O   0  0  0  0  0  0  0  0  0  0  0  0
   29.2403  -22.3803  -17.0635 O   0  0  0  0  0  0  0  0  0  0  0  0
   18.2346  -21.0809  -17.8093 N   0  0  0  0  0  0  0  0  0  0  0  0
   19.3572  -21.4985  -17.0333 C   0  0  0  0  0  0  0  0  0  0  0  0
   20.0062  -22.4842  -17.4277 O   0  0  0  0  0  0  0  0  0  0  0  0
   19.6541  -20.7107  -15.8119 C   0  0  0  0  0  0  0  0  0  0  0  0
   21.0557  -20.9025  -15.3195 C   0  0  0  0  0  0  0  0  0  0  0  0
   21.8855  -19.6178  -15.4429 C   0  0  2  0  0  0  0  0  0  0  0  0
   23.2185  -19.9528  -15.0197 N   0  0  0  0  0  0  0  0  0  0  0  0
   21.2281  -18.6325  -14.5551 C   0  0  0  0  0  0  0  0  0  0  0  0
   21.8984  -18.2310  -13.5725 O   0  0  0  0  0  0  0  0  0  0  0  0
   20.1629  -14.5256  -14.5460 O   0  0  0  0  0  0  0  0  0  0  0  0
   20.4920  -15.7762  -15.0714 C   0  0  0  0  0  0  0  0  0  0  0  0
   19.5920  -16.7742  -14.3935 C   0  0  2  0  0  0  0  0  0  0  0  0
   19.9305  -18.1326  -14.7444 N   0  0  0  0  0  0  0  0  0  0  0  0
   18.1696  -16.4570  -14.7505 C   0  0  0  0  0  0  0  0  0  0  0  0
   17.7498  -16.7940  -15.8793 O   0  0  0  0  0  0  0  0  0  0  0  0
   17.3428  -15.8048  -13.8402 O   0  0  0  0  0  0  0  0  0  0  0  0
  2  1  1  6
  2  7  1  0
  3  2  1  0
  4  3  1  0
  5  4  1  0
  5  6  2  0
  7  8  2  0
  9  5  1  0
 10 11  1  0
 11 12  2  0
 13 11  1  0
 13 14  1  0
 15 14  1  1
 16  7  1  0
 16 15  1  0
 17 18  2  0
 17 15  1  0
 19 20  1  0
 21 20  1  6
 21 22  1  0
 21 23  1  0
 22 17  1  0
 23 25  1  0
 24 23  2  0
M  END
$$$$
