EQS.pdb
     RDKit          3D

 25 24  0  0  1  0  0  0  0  0999 V2000
   14.9342   -8.8125   -8.6380 N   0  0  0  0  0  0  0  0  0  0  0  0
   15.1915   -7.6662   -9.5032 C   0  0  1  0  0  0  0  0  0  0  0  0
   15.1366   -6.4473   -8.6060 C   0  0  0  0  0  0  0  0  0  0  0  0
   13.6910   -6.0757   -8.3437 C   0  0  0  0  0  0  0  0  0  0  0  0
   13.6667   -4.8923   -7.4600 C   0  0  0  0  0  0  0  0  0  0  0  0
   13.2934   -4.9851   -6.2821 O   0  0  0  0  0  0  0  0  0  0  0  0
   16.5351   -7.8684  -10.0991 C   0  0  0  0  0  0  0  0  0  0  0  0
   17.5481   -8.1767   -9.4161 O   0  0  0  0  0  0  0  0  0  0  0  0
   14.0841   -3.6493   -7.9897 O   0  0  0  0  0  0  0  0  0  0  0  0
   16.1381  -10.5646  -14.8755 N   0  0  0  0  0  0  0  0  0  0  0  0
   16.6262  -11.2170  -13.7038 C   0  0  0  0  0  0  0  0  0  0  0  0
   16.2975  -12.4022  -13.5149 O   0  0  0  0  0  0  0  0  0  0  0  0
   17.4925  -10.4150  -12.8056 C   0  0  0  0  0  0  0  0  0  0  0  0
   17.6913   -9.0105  -13.2866 C   0  0  0  0  0  0  0  0  0  0  0  0
   18.0154   -8.0519  -12.1332 C   0  0  2  0  0  0  0  0  0  0  0  0
   16.7599   -7.7210  -11.5149 N   0  0  0  0  0  0  0  0  0  0  0  0
   18.6763   -6.8848  -12.7595 C   0  0  0  0  0  0  0  0  0  0  0  0
   17.9215   -6.0324  -13.2885 O   0  0  0  0  0  0  0  0  0  0  0  0
   22.7435   -6.4105  -12.9991 O   0  0  0  0  0  0  0  0  0  0  0  0
   22.0154   -5.2198  -12.9803 C   0  0  0  0  0  0  0  0  0  0  0  0
   20.6387   -5.5534  -13.4891 C   0  0  2  0  0  0  0  0  0  0  0  0
   20.0643   -6.6804  -12.7943 N   0  0  0  0  0  0  0  0  0  0  0  0
   20.7219   -5.8077  -14.9655 C   0  0  0  0  0  0  0  0  0  0  0  0
   20.4906   -6.9631  -15.3845 O   0  0  0  0  0  0  0  0  0  0  0  0
   21.0471   -4.7761  -15.8415 O   0  0  0  0  0  0  0  0  0  0  0  0
  2  1  1  1
  2  7  1  0
  3  2  1  0
  4  3  1  0
  5  4  1  0
  5  6  2  0
  7  8  2  0
  9  5  1  0
 10 11  1  0
 11 12  2  0
 13 11  1  0
 13 14  1  0
 15 14  1  6
 16  7  1  0
 16 15  1  0
 17 18  2  0
 17 15  1  0
 19 20  1  0
 21 20  1  1
 21 22  1  0
 21 23  1  0
 22 17  1  0
 23 25  1  0
 24 23  2  0
M  END
$$$$
