EQS.pdb
     RDKit          3D

 25 24  0  0  1  0  0  0  0  0999 V2000
   17.2958  -12.2125  -13.8922 N   0  0  0  0  0  0  0  0  0  0  0  0
   17.0697  -11.4457  -15.1126 C   0  0  1  0  0  0  0  0  0  0  0  0
   15.6422  -11.7352  -15.5274 C   0  0  0  0  0  0  0  0  0  0  0  0
   15.5120  -13.1957  -15.9102 C   0  0  0  0  0  0  0  0  0  0  0  0
   14.3383  -13.3431  -16.7949 C   0  0  0  0  0  0  0  0  0  0  0  0
   14.0471  -12.4637  -17.6179 O   0  0  0  0  0  0  0  0  0  0  0  0
   17.2792  -10.0174  -14.7697 C   0  0  0  0  0  0  0  0  0  0  0  0
   17.2742   -9.0981  -15.6314 O   0  0  0  0  0  0  0  0  0  0  0  0
   13.5554  -14.5155  -16.6830 O   0  0  0  0  0  0  0  0  0  0  0  0
   16.4082   -7.6395   -9.0581 N   0  0  0  0  0  0  0  0  0  0  0  0
   16.8866   -6.4741   -9.7288 C   0  0  0  0  0  0  0  0  0  0  0  0
   16.9151   -5.4045   -9.0935 O   0  0  0  0  0  0  0  0  0  0  0  0
   17.3129   -6.6440  -11.1394 C   0  0  0  0  0  0  0  0  0  0  0  0
   17.2393   -8.0659  -11.6047 C   0  0  0  0  0  0  0  0  0  0  0  0
   17.7117   -8.2171  -13.0567 C   0  0  2  0  0  0  0  0  0  0  0  0
   17.5038   -9.5955  -13.4101 N   0  0  0  0  0  0  0  0  0  0  0  0
   19.1407   -7.8310  -13.0525 C   0  0  0  0  0  0  0  0  0  0  0  0
   19.9258   -8.6005  -12.4461 O   0  0  0  0  0  0  0  0  0  0  0  0
   21.4388   -7.6345  -15.6961 O   0  0  0  0  0  0  0  0  0  0  0  0
   21.5734   -6.3552  -15.1540 C   0  0  0  0  0  0  0  0  0  0  0  0
   21.0775   -6.4386  -13.7353 C   0  0  2  0  0  0  0  0  0  0  0  0
   19.6564   -6.6829  -13.6732 N   0  0  0  0  0  0  0  0  0  0  0  0
   21.4443   -5.1695  -13.0239 C   0  0  0  0  0  0  0  0  0  0  0  0
   20.5243   -4.4085  -12.6516 O   0  0  0  0  0  0  0  0  0  0  0  0
   22.7792   -4.8551  -12.7858 O   0  0  0  0  0  0  0  0  0  0  0  0
  2  1  1  1
  2  7  1  0
  3  2  1  0
  4  3  1  0
  5  4  1  0
  5  6  2  0
  7  8  2  0
  9  5  1  0
 10 11  1  0
 11 12  2  0
 13 11  1  0
 13 14  1  0
 15 14  1  1
 16  7  1  0
 16 15  1  0
 17 18  2  0
 17 15  1  0
 19 20  1  0
 21 20  1  6
 21 22  1  0
 21 23  1  0
 22 17  1  0
 23 25  1  0
 24 23  2  0
M  END
$$$$
