EQS.pdb
     RDKit          3D

 25 24  0  0  1  0  0  0  0  0999 V2000
   17.8831  -10.8417  -15.1040 N   0  0  0  0  0  0  0  0  0  0  0  0
   19.1843  -10.5671  -15.7040 C   0  0  1  0  0  0  0  0  0  0  0  0
   19.1867  -11.2836  -17.0383 C   0  0  0  0  0  0  0  0  0  0  0  0
   18.5437  -12.6470  -16.8826 C   0  0  0  0  0  0  0  0  0  0  0  0
   19.1687  -13.5707  -17.8512 C   0  0  0  0  0  0  0  0  0  0  0  0
   20.3864  -13.7973  -17.8200 O   0  0  0  0  0  0  0  0  0  0  0  0
   19.2881   -9.0946  -15.8539 C   0  0  0  0  0  0  0  0  0  0  0  0
   20.2953   -8.5262  -16.3539 O   0  0  0  0  0  0  0  0  0  0  0  0
   18.3422  -14.1945  -18.8145 O   0  0  0  0  0  0  0  0  0  0  0  0
   14.2959   -5.3110  -15.6654 N   0  0  0  0  0  0  0  0  0  0  0  0
   15.3204   -4.3436  -15.8914 C   0  0  0  0  0  0  0  0  0  0  0  0
   14.9762   -3.1680  -16.1103 O   0  0  0  0  0  0  0  0  0  0  0  0
   16.7206   -4.8311  -15.8437 C   0  0  0  0  0  0  0  0  0  0  0  0
   16.8176   -6.3067  -15.6049 C   0  0  0  0  0  0  0  0  0  0  0  0
   18.2713   -6.7964  -15.6371 C   0  0  2  0  0  0  0  0  0  0  0  0
   18.2256   -8.2187  -15.4288 N   0  0  0  0  0  0  0  0  0  0  0  0
   18.9589   -6.0742  -14.5431 C   0  0  0  0  0  0  0  0  0  0  0  0
   18.8596   -6.5729  -13.3952 O   0  0  0  0  0  0  0  0  0  0  0  0
   23.0819   -5.5414  -13.5921 O   0  0  0  0  0  0  0  0  0  0  0  0
   21.9342   -5.8087  -14.3403 C   0  0  0  0  0  0  0  0  0  0  0  0
   20.9622   -4.6989  -14.0419 C   0  0  2  0  0  0  0  0  0  0  0  0
   19.6983   -4.8932  -14.7110 N   0  0  0  0  0  0  0  0  0  0  0  0
   21.5906   -3.3934  -14.4321 C   0  0  0  0  0  0  0  0  0  0  0  0
   21.4103   -2.9700  -15.5950 O   0  0  0  0  0  0  0  0  0  0  0  0
   22.3530   -2.6758  -13.5149 O   0  0  0  0  0  0  0  0  0  0  0  0
  2  1  1  6
  2  7  1  0
  3  2  1  0
  4  3  1  0
  5  4  1  0
  5  6  2  0
  7  8  2  0
  9  5  1  0
 10 11  1  0
 11 12  2  0
 13 11  1  0
 13 14  1  0
 15 14  1  1
 16  7  1  0
 16 15  1  0
 17 18  2  0
 17 15  1  0
 19 20  1  0
 21 20  1  6
 21 22  1  0
 21 23  1  0
 22 17  1  0
 23 25  1  0
 24 23  2  0
M  END
$$$$
