EQS.pdb
     RDKit          3D

 25 24  0  0  1  0  0  0  0  0999 V2000
   13.6237  -10.8047  -12.6146 N   0  0  0  0  0  0  0  0  0  0  0  0
   14.8849  -10.3216  -12.0626 C   0  0  1  0  0  0  0  0  0  0  0  0
   15.8148  -10.1423  -13.2444 C   0  0  0  0  0  0  0  0  0  0  0  0
   16.2044  -11.5001  -13.7933 C   0  0  0  0  0  0  0  0  0  0  0  0
   17.2547  -12.0702  -12.9249 C   0  0  0  0  0  0  0  0  0  0  0  0
   18.0723  -11.3378  -12.3501 O   0  0  0  0  0  0  0  0  0  0  0  0
   14.5921   -9.0398  -11.3752 C   0  0  0  0  0  0  0  0  0  0  0  0
   13.7493   -8.2082  -11.8062 O   0  0  0  0  0  0  0  0  0  0  0  0
   17.3027  -13.4742  -12.7616 O   0  0  0  0  0  0  0  0  0  0  0  0
   12.0170   -7.9429   -7.5114 N   0  0  0  0  0  0  0  0  0  0  0  0
   12.6987   -6.8369   -6.9207 C   0  0  0  0  0  0  0  0  0  0  0  0
   12.0312   -6.0308   -6.2476 O   0  0  0  0  0  0  0  0  0  0  0  0
   14.1592   -6.7463   -7.1640 C   0  0  0  0  0  0  0  0  0  0  0  0
   14.6862   -7.8826   -7.9853 C   0  0  0  0  0  0  0  0  0  0  0  0
   14.9488   -7.4642   -9.4379 C   0  0  2  0  0  0  0  0  0  0  0  0
   15.2662   -8.6687  -10.1567 N   0  0  0  0  0  0  0  0  0  0  0  0
   16.0801   -6.5113   -9.3793 C   0  0  0  0  0  0  0  0  0  0  0  0
   17.2313   -7.0045   -9.4661 O   0  0  0  0  0  0  0  0  0  0  0  0
   17.7709   -3.6594  -11.9982 O   0  0  0  0  0  0  0  0  0  0  0  0
   16.8169   -4.5092  -11.4360 C   0  0  0  0  0  0  0  0  0  0  0  0
   16.7922   -4.2070   -9.9617 C   0  0  2  0  0  0  0  0  0  0  0  0
   15.9433   -5.1219   -9.2368 N   0  0  0  0  0  0  0  0  0  0  0  0
   16.3504   -2.7858   -9.7710 C   0  0  0  0  0  0  0  0  0  0  0  0
   15.1284   -2.5282   -9.8374 O   0  0  0  0  0  0  0  0  0  0  0  0
   17.2848   -1.7840   -9.5242 O   0  0  0  0  0  0  0  0  0  0  0  0
  2  1  1  6
  2  7  1  0
  3  2  1  0
  4  3  1  0
  5  4  1  0
  5  6  2  0
  7  8  2  0
  9  5  1  0
 10 11  1  0
 11 12  2  0
 13 11  1  0
 13 14  1  0
 15 14  1  1
 16  7  1  0
 16 15  1  0
 17 18  2  0
 17 15  1  0
 19 20  1  0
 21 20  1  6
 21 22  1  0
 21 23  1  0
 22 17  1  0
 23 25  1  0
 24 23  2  0
M  END
$$$$
