EQS.pdb
     RDKit          3D

 25 24  0  0  1  0  0  0  0  0999 V2000
   23.2272  -30.0772  -10.3988 N   0  0  0  0  0  0  0  0  0  0  0  0
   21.8654  -29.8631  -10.8767 C   0  0  1  0  0  0  0  0  0  0  0  0
   20.9957  -30.8312  -10.1023 C   0  0  0  0  0  0  0  0  0  0  0  0
   21.0447  -32.1951  -10.7613 C   0  0  0  0  0  0  0  0  0  0  0  0
   20.2123  -33.1250   -9.9711 C   0  0  0  0  0  0  0  0  0  0  0  0
   19.0741  -33.4376  -10.3482 O   0  0  0  0  0  0  0  0  0  0  0  0
   21.5259  -28.4471  -10.5916 C   0  0  0  0  0  0  0  0  0  0  0  0
   22.0697  -27.7848   -9.6679 O   0  0  0  0  0  0  0  0  0  0  0  0
   20.7475  -33.6541   -8.7738 O   0  0  0  0  0  0  0  0  0  0  0  0
   19.5704  -24.6331  -15.0203 N   0  0  0  0  0  0  0  0  0  0  0  0
   19.5792  -23.7167  -13.9262 C   0  0  0  0  0  0  0  0  0  0  0  0
   19.4230  -22.5076  -14.1753 O   0  0  0  0  0  0  0  0  0  0  0  0
   19.7750  -24.2941  -12.5739 C   0  0  0  0  0  0  0  0  0  0  0  0
   19.9812  -25.7776  -12.5964 C   0  0  0  0  0  0  0  0  0  0  0  0
   20.2930  -26.3324  -11.2003 C   0  0  2  0  0  0  0  0  0  0  0  0
   20.5393  -27.7393  -11.3678 N   0  0  0  0  0  0  0  0  0  0  0  0
   19.0921  -26.0496  -10.3824 C   0  0  0  0  0  0  0  0  0  0  0  0
   18.0540  -26.6933  -10.6724 O   0  0  0  0  0  0  0  0  0  0  0  0
   19.0028  -25.0068   -6.5497 O   0  0  0  0  0  0  0  0  0  0  0  0
   18.1121  -24.2046   -7.2650 C   0  0  0  0  0  0  0  0  0  0  0  0
   17.8416  -24.9188   -8.5620 C   0  0  2  0  0  0  0  0  0  0  0  0
   19.0481  -25.1264   -9.3262 N   0  0  0  0  0  0  0  0  0  0  0  0
   16.8311  -24.1302   -9.3418 C   0  0  0  0  0  0  0  0  0  0  0  0
   17.2346  -23.4075  -10.2793 O   0  0  0  0  0  0  0  0  0  0  0  0
   15.4780  -24.2085   -9.0244 O   0  0  0  0  0  0  0  0  0  0  0  0
  2  1  1  1
  2  7  1  0
  3  2  1  0
  4  3  1  0
  5  4  1  0
  5  6  2  0
  7  8  2  0
  9  5  1  0
 10 11  1  0
 11 12  2  0
 13 11  1  0
 13 14  1  0
 15 14  1  6
 16  7  1  0
 16 15  1  0
 17 18  2  0
 17 15  1  0
 19 20  1  0
 21 20  1  1
 21 22  1  0
 21 23  1  0
 22 17  1  0
 23 25  1  0
 24 23  2  0
M  END
$$$$
