EQS.pdb
     RDKit          3D

 25 24  0  0  1  0  0  0  0  0999 V2000
   18.8484  -12.8434  -17.3402 N   0  0  0  0  0  0  0  0  0  0  0  0
   18.4059  -11.4813  -17.6190 C   0  0  1  0  0  0  0  0  0  0  0  0
   17.1642  -11.2670  -16.7789 C   0  0  0  0  0  0  0  0  0  0  0  0
   17.3395  -11.9430  -15.4339 C   0  0  0  0  0  0  0  0  0  0  0  0
   16.1059  -11.7418  -14.6466 C   0  0  0  0  0  0  0  0  0  0  0  0
   15.1334  -11.1442  -15.1288 O   0  0  0  0  0  0  0  0  0  0  0  0
   19.5159  -10.5784  -17.2263 C   0  0  0  0  0  0  0  0  0  0  0  0
   20.2781  -10.8137  -16.2509 O   0  0  0  0  0  0  0  0  0  0  0  0
   16.0594  -12.2517  -13.3283 O   0  0  0  0  0  0  0  0  0  0  0  0
   19.5184   -8.2722  -20.8926 N   0  0  0  0  0  0  0  0  0  0  0  0
   20.8965   -8.6098  -21.0469 C   0  0  0  0  0  0  0  0  0  0  0  0
   21.2488   -9.1577  -22.1071 O   0  0  0  0  0  0  0  0  0  0  0  0
   21.7964   -8.2730  -19.9168 C   0  0  0  0  0  0  0  0  0  0  0  0
   21.0930   -7.5619  -18.8018 C   0  0  0  0  0  0  0  0  0  0  0  0
   20.8653   -8.4790  -17.5929 C   0  0  2  0  0  0  0  0  0  0  0  0
   19.7882   -9.3625  -17.9503 N   0  0  0  0  0  0  0  0  0  0  0  0
   20.5247   -7.5783  -16.4686 C   0  0  0  0  0  0  0  0  0  0  0  0
   19.3414   -7.1612  -16.4253 O   0  0  0  0  0  0  0  0  0  0  0  0
   20.8954   -8.0029  -12.7935 O   0  0  0  0  0  0  0  0  0  0  0  0
   21.5343   -6.7908  -13.0602 C   0  0  0  0  0  0  0  0  0  0  0  0
   21.0106   -6.3156  -14.3889 C   0  0  2  0  0  0  0  0  0  0  0  0
   21.4262   -7.1743  -15.4718 N   0  0  0  0  0  0  0  0  0  0  0  0
   21.4674   -4.9031  -14.6068 C   0  0  0  0  0  0  0  0  0  0  0  0
   22.1981   -4.6591  -15.5920 O   0  0  0  0  0  0  0  0  0  0  0  0
   21.0807   -3.8936  -13.7299 O   0  0  0  0  0  0  0  0  0  0  0  0
  2  1  1  1
  2  7  1  0
  3  2  1  0
  4  3  1  0
  5  4  1  0
  5  6  2  0
  7  8  2  0
  9  5  1  0
 10 11  1  0
 11 12  2  0
 13 11  1  0
 13 14  1  0
 15 14  1  6
 16  7  1  0
 16 15  1  0
 17 18  2  0
 17 15  1  0
 19 20  1  0
 21 20  1  1
 21 22  1  0
 21 23  1  0
 22 17  1  0
 23 25  1  0
 24 23  2  0
M  END
$$$$
