EQS.pdb
     RDKit          3D

 25 24  0  0  1  0  0  0  0  0999 V2000
   13.9460   -9.5441   -9.7411 N   0  0  0  0  0  0  0  0  0  0  0  0
   14.7164   -8.3710  -10.1399 C   0  0  1  0  0  0  0  0  0  0  0  0
   15.6402   -8.0656   -8.9793 C   0  0  0  0  0  0  0  0  0  0  0  0
   15.0721   -6.9188   -8.1676 C   0  0  0  0  0  0  0  0  0  0  0  0
   15.8880   -5.7150   -8.4268 C   0  0  0  0  0  0  0  0  0  0  0  0
   17.1257   -5.7745   -8.4347 O   0  0  0  0  0  0  0  0  0  0  0  0
   15.4589   -8.7404  -11.3702 C   0  0  0  0  0  0  0  0  0  0  0  0
   15.8411   -9.9164  -11.6126 O   0  0  0  0  0  0  0  0  0  0  0  0
   15.2221   -4.4913   -8.6701 O   0  0  0  0  0  0  0  0  0  0  0  0
   15.5027   -5.3183  -16.6052 N   0  0  0  0  0  0  0  0  0  0  0  0
   16.4599   -6.3122  -16.9697 C   0  0  0  0  0  0  0  0  0  0  0  0
   16.8935   -6.3061  -18.1361 O   0  0  0  0  0  0  0  0  0  0  0  0
   16.8579   -7.2744  -15.9132 C   0  0  0  0  0  0  0  0  0  0  0  0
   16.1464   -7.0441  -14.6153 C   0  0  0  0  0  0  0  0  0  0  0  0
   16.5276   -8.0916  -13.5610 C   0  0  2  0  0  0  0  0  0  0  0  0
   15.7896   -7.7590  -12.3723 N   0  0  0  0  0  0  0  0  0  0  0  0
   17.9921   -7.9654  -13.3860 C   0  0  0  0  0  0  0  0  0  0  0  0
   18.3871   -7.0478  -12.6256 O   0  0  0  0  0  0  0  0  0  0  0  0
   22.5145   -9.3628  -14.1903 O   0  0  0  0  0  0  0  0  0  0  0  0
   21.1781   -9.6755  -14.4448 C   0  0  0  0  0  0  0  0  0  0  0  0
   20.3566   -8.5839  -13.8133 C   0  0  2  0  0  0  0  0  0  0  0  0
   18.9415   -8.7929  -14.0051 N   0  0  0  0  0  0  0  0  0  0  0  0
   20.7948   -7.2654  -14.3797 C   0  0  0  0  0  0  0  0  0  0  0  0
   20.3860   -6.9403  -15.5161 O   0  0  0  0  0  0  0  0  0  0  0  0
   21.6348   -6.4287  -13.6503 O   0  0  0  0  0  0  0  0  0  0  0  0
  2  1  1  1
  2  7  1  0
  3  2  1  0
  4  3  1  0
  5  4  1  0
  5  6  2  0
  7  8  2  0
  9  5  1  0
 10 11  1  0
 11 12  2  0
 13 11  1  0
 13 14  1  0
 15 14  1  6
 16  7  1  0
 16 15  1  0
 17 18  2  0
 17 15  1  0
 19 20  1  0
 21 20  1  6
 21 22  1  0
 21 23  1  0
 22 17  1  0
 23 25  1  0
 24 23  2  0
M  END
$$$$
