EQS.pdb
     RDKit          3D

 25 24  0  0  1  0  0  0  0  0999 V2000
   18.7981  -13.5251  -15.8771 N   0  0  0  0  0  0  0  0  0  0  0  0
   18.3246  -12.1871  -16.2148 C   0  0  1  0  0  0  0  0  0  0  0  0
   17.1632  -11.9093  -15.2833 C   0  0  0  0  0  0  0  0  0  0  0  0
   15.9672  -12.7401  -15.7028 C   0  0  0  0  0  0  0  0  0  0  0  0
   14.8467  -12.4395  -14.7883 C   0  0  0  0  0  0  0  0  0  0  0  0
   14.4614  -11.2747  -14.6152 O   0  0  0  0  0  0  0  0  0  0  0  0
   19.4606  -11.2588  -15.9929 C   0  0  0  0  0  0  0  0  0  0  0  0
   20.4992  -11.5863  -15.3592 O   0  0  0  0  0  0  0  0  0  0  0  0
   14.2204  -13.5151  -14.1167 O   0  0  0  0  0  0  0  0  0  0  0  0
   21.5976   -7.4658  -20.1496 N   0  0  0  0  0  0  0  0  0  0  0  0
   22.4384   -7.0669  -19.0676 C   0  0  0  0  0  0  0  0  0  0  0  0
   23.3970   -6.3143  -19.3190 O   0  0  0  0  0  0  0  0  0  0  0  0
   22.0902   -7.5904  -17.7240 C   0  0  0  0  0  0  0  0  0  0  0  0
   20.9027   -8.5032  -17.7425 C   0  0  0  0  0  0  0  0  0  0  0  0
   20.5494   -9.0098  -16.3380 C   0  0  2  0  0  0  0  0  0  0  0  0
   19.4387   -9.9092  -16.4979 N   0  0  0  0  0  0  0  0  0  0  0  0
   20.2064   -7.8019  -15.5539 C   0  0  0  0  0  0  0  0  0  0  0  0
   19.3503   -7.0335  -16.0569 O   0  0  0  0  0  0  0  0  0  0  0  0
   22.9646   -4.6064  -14.1799 O   0  0  0  0  0  0  0  0  0  0  0  0
   22.5158   -5.8143  -14.7163 C   0  0  0  0  0  0  0  0  0  0  0  0
   21.2197   -6.1346  -14.0213 C   0  0  2  0  0  0  0  0  0  0  0  0
   20.7684   -7.4746  -14.3104 N   0  0  0  0  0  0  0  0  0  0  0  0
   20.1950   -5.1152  -14.4242 C   0  0  0  0  0  0  0  0  0  0  0  0
   19.8333   -5.0756  -15.6207 O   0  0  0  0  0  0  0  0  0  0  0  0
   19.6630   -4.2396  -13.4820 O   0  0  0  0  0  0  0  0  0  0  0  0
  2  1  1  1
  2  7  1  0
  3  2  1  0
  4  3  1  0
  5  4  1  0
  5  6  2  0
  7  8  2  0
  9  5  1  0
 10 11  1  0
 11 12  2  0
 13 11  1  0
 13 14  1  0
 15 14  1  6
 16  7  1  0
 16 15  1  0
 17 18  2  0
 17 15  1  0
 19 20  1  0
 21 20  1  6
 21 22  1  0
 21 23  1  0
 22 17  1  0
 23 25  1  0
 24 23  2  0
M  END
$$$$
