EQS.pdb
     RDKit          3D

 25 24  0  0  1  0  0  0  0  0999 V2000
   21.1293  -11.6338  -15.6322 N   0  0  0  0  0  0  0  0  0  0  0  0
   20.5758  -10.8421  -16.7256 C   0  0  1  0  0  0  0  0  0  0  0  0
   19.5306  -11.7172  -17.3854 C   0  0  0  0  0  0  0  0  0  0  0  0
   18.7349  -12.4460  -16.3212 C   0  0  0  0  0  0  0  0  0  0  0  0
   17.7765  -13.3482  -16.9917 C   0  0  0  0  0  0  0  0  0  0  0  0
   18.0677  -14.5311  -17.2186 O   0  0  0  0  0  0  0  0  0  0  0  0
   19.9892   -9.6211  -16.1201 C   0  0  0  0  0  0  0  0  0  0  0  0
   19.4463   -8.7112  -16.8020 O   0  0  0  0  0  0  0  0  0  0  0  0
   16.5148  -12.8303  -17.3659 O   0  0  0  0  0  0  0  0  0  0  0  0
   17.2840   -9.6068  -10.7094 N   0  0  0  0  0  0  0  0  0  0  0  0
   16.6042   -9.6912  -11.9614 C   0  0  0  0  0  0  0  0  0  0  0  0
   15.4729  -10.2092  -11.9784 O   0  0  0  0  0  0  0  0  0  0  0  0
   17.3147   -9.1470  -13.1444 C   0  0  0  0  0  0  0  0  0  0  0  0
   18.7079   -8.6941  -12.8317 C   0  0  0  0  0  0  0  0  0  0  0  0
   19.4519   -8.2252  -14.0890 C   0  0  2  0  0  0  0  0  0  0  0  0
   20.0083   -9.4045  -14.6955 N   0  0  0  0  0  0  0  0  0  0  0  0
   20.4852   -7.2794  -13.6105 C   0  0  0  0  0  0  0  0  0  0  0  0
   21.5414   -7.7867  -13.1597 O   0  0  0  0  0  0  0  0  0  0  0  0
   23.2959   -4.4271  -15.1697 O   0  0  0  0  0  0  0  0  0  0  0  0
   22.2286   -5.3242  -15.1004 C   0  0  0  0  0  0  0  0  0  0  0  0
   21.5032   -5.0261  -13.8158 C   0  0  2  0  0  0  0  0  0  0  0  0
   20.3559   -5.8821  -13.6320 N   0  0  0  0  0  0  0  0  0  0  0  0
   21.1094   -3.5782  -13.8124 C   0  0  0  0  0  0  0  0  0  0  0  0
   21.9384   -2.7368  -13.4014 O   0  0  0  0  0  0  0  0  0  0  0  0
   19.8502   -3.1889  -14.2599 O   0  0  0  0  0  0  0  0  0  0  0  0
  2  1  1  1
  2  7  1  0
  3  2  1  0
  4  3  1  0
  5  4  1  0
  5  6  2  0
  7  8  2  0
  9  5  1  0
 10 11  1  0
 11 12  2  0
 13 11  1  0
 13 14  1  0
 15 14  1  1
 16  7  1  0
 16 15  1  0
 17 18  2  0
 17 15  1  0
 19 20  1  0
 21 20  1  6
 21 22  1  0
 21 23  1  0
 22 17  1  0
 23 25  1  0
 24 23  2  0
M  END
$$$$
