EQS.pdb
     RDKit          3D

 25 24  0  0  1  0  0  0  0  0999 V2000
   21.1812  -13.6182  -16.4971 N   0  0  0  0  0  0  0  0  0  0  0  0
   20.7543  -12.2415  -16.7233 C   0  0  1  0  0  0  0  0  0  0  0  0
   19.2958  -12.1864  -16.3192 C   0  0  0  0  0  0  0  0  0  0  0  0
   18.5040  -13.1825  -17.1423 C   0  0  0  0  0  0  0  0  0  0  0  0
   18.0497  -14.2683  -16.2497 C   0  0  0  0  0  0  0  0  0  0  0  0
   17.2310  -14.0487  -15.3458 O   0  0  0  0  0  0  0  0  0  0  0  0
   21.6092  -11.3792  -15.8706 C   0  0  0  0  0  0  0  0  0  0  0  0
   21.6252  -11.4595  -14.6133 O   0  0  0  0  0  0  0  0  0  0  0  0
   18.5691  -15.5677  -16.4539 O   0  0  0  0  0  0  0  0  0  0  0  0
   27.2690  -10.2761  -16.7427 N   0  0  0  0  0  0  0  0  0  0  0  0
   26.6794  -11.2122  -15.8411 C   0  0  0  0  0  0  0  0  0  0  0  0
   27.3715  -12.1745  -15.4624 O   0  0  0  0  0  0  0  0  0  0  0  0
   25.2781  -10.9511  -15.4304 C   0  0  0  0  0  0  0  0  0  0  0  0
   24.7212   -9.6922  -16.0209 C   0  0  0  0  0  0  0  0  0  0  0  0
   23.2521   -9.4800  -15.6325 C   0  0  2  0  0  0  0  0  0  0  0  0
   22.4828  -10.3858  -16.4424 N   0  0  0  0  0  0  0  0  0  0  0  0
   22.9647   -8.0576  -15.9246 C   0  0  0  0  0  0  0  0  0  0  0  0
   22.7401   -7.7679  -17.1253 O   0  0  0  0  0  0  0  0  0  0  0  0
   20.5272   -4.5097  -15.9367 O   0  0  0  0  0  0  0  0  0  0  0  0
   20.9130   -5.8028  -15.5794 C   0  0  0  0  0  0  0  0  0  0  0  0
   22.3832   -5.7377  -15.2640 C   0  0  2  0  0  0  0  0  0  0  0  0
   22.9286   -7.0389  -14.9599 N   0  0  0  0  0  0  0  0  0  0  0  0
   22.5876   -4.7812  -14.1262 C   0  0  0  0  0  0  0  0  0  0  0  0
   22.5661   -5.2309  -12.9594 O   0  0  0  0  0  0  0  0  0  0  0  0
   22.7978   -3.4274  -14.3721 O   0  0  0  0  0  0  0  0  0  0  0  0
  2  1  1  1
  2  7  1  0
  3  2  1  0
  4  3  1  0
  5  4  1  0
  5  6  2  0
  7  8  2  0
  9  5  1  0
 10 11  1  0
 11 12  2  0
 13 11  1  0
 13 14  1  0
 15 14  1  6
 16  7  1  0
 16 15  1  0
 17 18  2  0
 17 15  1  0
 19 20  1  0
 21 20  1  1
 21 22  1  0
 21 23  1  0
 22 17  1  0
 23 25  1  0
 24 23  2  0
M  END
$$$$
