EQS.pdb
     RDKit          3D

 25 24  0  0  1  0  0  0  0  0999 V2000
   18.8876  -12.4359  -15.7800 N   0  0  0  0  0  0  0  0  0  0  0  0
   18.1499  -11.2948  -16.3114 C   0  0  1  0  0  0  0  0  0  0  0  0
   16.7037  -11.7367  -16.3948 C   0  0  0  0  0  0  0  0  0  0  0  0
   16.5381  -12.7150  -17.5403 C   0  0  0  0  0  0  0  0  0  0  0  0
   15.1394  -13.1902  -17.5491 C   0  0  0  0  0  0  0  0  0  0  0  0
   14.2786  -12.6224  -18.2359 O   0  0  0  0  0  0  0  0  0  0  0  0
   18.3436  -10.1742  -15.3583 C   0  0  0  0  0  0  0  0  0  0  0  0
   17.8694  -10.1781  -14.1909 O   0  0  0  0  0  0  0  0  0  0  0  0
   14.8063  -14.3132  -16.7566 O   0  0  0  0  0  0  0  0  0  0  0  0
   23.2011   -6.5856  -14.5872 N   0  0  0  0  0  0  0  0  0  0  0  0
   22.2506   -5.7718  -13.9009 C   0  0  0  0  0  0  0  0  0  0  0  0
   22.6700   -4.7722  -13.2899 O   0  0  0  0  0  0  0  0  0  0  0  0
   20.8308   -6.1946  -13.9787 C   0  0  0  0  0  0  0  0  0  0  0  0
   20.6293   -7.4107  -14.8297 C   0  0  0  0  0  0  0  0  0  0  0  0
   19.1554   -7.8342  -14.8812 C   0  0  2  0  0  0  0  0  0  0  0  0
   19.0968   -9.0003  -15.7208 N   0  0  0  0  0  0  0  0  0  0  0  0
   18.4283   -6.6765  -15.4489 C   0  0  0  0  0  0  0  0  0  0  0  0
   18.6610   -6.4060  -16.6526 O   0  0  0  0  0  0  0  0  0  0  0  0
   14.7783   -3.7354  -15.7453 O   0  0  0  0  0  0  0  0  0  0  0  0
   15.3472   -4.7953  -15.0373 C   0  0  0  0  0  0  0  0  0  0  0  0
   16.8146   -4.7935  -15.3722 C   0  0  2  0  0  0  0  0  0  0  0  0
   17.5151   -5.8837  -14.7369 N   0  0  0  0  0  0  0  0  0  0  0  0
   17.3951   -3.4677  -14.9761 C   0  0  0  0  0  0  0  0  0  0  0  0
   17.9485   -3.3701  -13.8588 O   0  0  0  0  0  0  0  0  0  0  0  0
   17.3173   -2.3779  -15.8385 O   0  0  0  0  0  0  0  0  0  0  0  0
  2  1  1  1
  2  7  1  0
  3  2  1  0
  4  3  1  0
  5  4  1  0
  5  6  2  0
  7  8  2  0
  9  5  1  0
 10 11  1  0
 11 12  2  0
 13 11  1  0
 13 14  1  0
 15 14  1  6
 16  7  1  0
 16 15  1  0
 17 18  2  0
 17 15  1  0
 19 20  1  0
 21 20  1  1
 21 22  1  0
 21 23  1  0
 22 17  1  0
 23 25  1  0
 24 23  2  0
M  END
$$$$
