LFH.pdb
     RDKit          3D

 30 31  0  0  1  0  0  0  0  0999 V2000
   29.7054  -19.1520  -19.4147 C   0  0  0  0  0  0  0  0  0  0  0  0
   28.2994  -18.6421  -19.4915 C   0  0  1  0  0  0  0  0  0  0  0  0
   27.9219  -18.5042  -20.9507 C   0  0  0  0  0  0  0  0  0  0  0  0
   27.3585  -19.5588  -18.7539 C   0  0  0  0  0  0  0  0  0  0  0  0
   26.3663  -18.8265  -17.9134 C   0  0  2  0  0  0  0  0  0  0  0  0
   26.8926  -17.5100  -17.6115 N   0  0  0  0  0  0  0  0  0  0  0  0
   26.1621  -19.6036  -16.6458 C   0  0  0  0  0  0  0  0  0  0  0  0
   25.8507  -20.8364  -16.6918 O   0  0  0  0  0  0  0  0  0  0  0  0
   26.3118  -18.9798  -15.3767 N   0  0  0  0  0  0  0  0  0  0  0  0
   25.9864  -19.7116  -14.1979 C   0  0  1  0  0  0  0  0  0  0  0  0
   26.6376  -19.1883  -12.9545 C   0  0  0  0  0  0  0  0  0  0  0  0
   26.3061  -19.9268  -11.7436 C   0  0  0  0  0  0  0  0  0  0  0  0
   26.9504  -21.0887  -11.3993 C   0  0  0  0  0  0  0  0  0  0  0  0
   26.6327  -21.7921  -10.2426 C   0  0  0  0  0  0  0  0  0  0  0  0
   25.6523  -21.3255   -9.4140 C   0  0  0  0  0  0  0  0  0  0  0  0
   24.9824  -20.1554   -9.7325 C   0  0  0  0  0  0  0  0  0  0  0  0
   25.3207  -19.4689  -10.8991 C   0  0  0  0  0  0  0  0  0  0  0  0
   24.4948  -19.7351  -13.9804 C   0  0  0  0  0  0  0  0  0  0  0  0
   23.7917  -18.7168  -14.1772 O   0  0  0  0  0  0  0  0  0  0  0  0
   23.8396  -20.9210  -13.5426 N   0  0  0  0  0  0  0  0  0  0  0  0
   22.3828  -21.0143  -13.4422 C   0  0  1  0  0  0  0  0  0  0  0  0
   21.8371  -22.1030  -14.2925 C   0  0  0  0  0  0  0  0  0  0  0  0
   20.3633  -22.1409  -14.2072 C   0  0  0  0  0  0  0  0  0  0  0  0
   19.4797  -21.3792  -13.4690 C   0  0  0  0  0  0  0  0  0  0  0  0
   18.2347  -21.8111  -13.7175 N   0  0  0  0  0  0  0  0  0  0  0  0
   18.2824  -22.8231  -14.5883 C   0  0  0  0  0  0  0  0  0  0  0  0
   19.5804  -23.0158  -14.8797 N   0  0  0  0  0  0  0  0  0  0  0  0
   21.9588  -21.0958  -12.0301 C   0  0  0  0  0  0  0  0  0  0  0  0
   20.7898  -20.4542  -11.6448 O   0  0  0  0  0  0  0  0  0  0  0  0
   22.5979  -21.7144  -11.1569 O   0  0  0  0  0  0  0  0  0  0  0  0
  2  3  1  6
  2  1  1  0
  4  2  1  0
  5  4  1  0
  5  6  1  1
  7  5  1  0
  7  8  2  0
  9  7  1  0
 10  9  1  0
 10 11  1  1
 12 11  1  0
 12 17  1  0
 13 12  2  0
 14 13  1  0
 14 15  2  0
 15 16  1  0
 16 17  2  0
 18 10  1  0
 19 18  2  0
 20 18  1  0
 21 20  1  0
 21 22  1  6
 22 23  1  0
 23 27  1  0
 24 23  2  0
 24 25  1  0
 25 26  1  0
 27 26  2  0
 28 21  1  0
 28 29  1  0
 30 28  2  0
M  END
$$$$
