LFH.pdb
     RDKit          3D

 30 31  0  0  1  0  0  0  0  0999 V2000
   25.2462  -22.1469  -20.1707 C   0  0  0  0  0  0  0  0  0  0  0  0
   26.3927  -22.1216  -19.2075 C   0  0  1  0  0  0  0  0  0  0  0  0
   27.0967  -20.7883  -19.3402 C   0  0  0  0  0  0  0  0  0  0  0  0
   25.9125  -22.3637  -17.8002 C   0  0  0  0  0  0  0  0  0  0  0  0
   26.9894  -22.2070  -16.7790 C   0  0  2  0  0  0  0  0  0  0  0  0
   27.8656  -23.3599  -16.8447 N   0  0  0  0  0  0  0  0  0  0  0  0
   26.3441  -22.1259  -15.4265 C   0  0  0  0  0  0  0  0  0  0  0  0
   25.2634  -22.7552  -15.1922 O   0  0  0  0  0  0  0  0  0  0  0  0
   26.9252  -21.3481  -14.3875 N   0  0  0  0  0  0  0  0  0  0  0  0
   26.2631  -21.2612  -13.1285 C   0  0  1  0  0  0  0  0  0  0  0  0
   27.0831  -20.6231  -12.0494 C   0  0  0  0  0  0  0  0  0  0  0  0
   26.4031  -20.5023  -10.7670 C   0  0  0  0  0  0  0  0  0  0  0  0
   25.8921  -19.3084  -10.3228 C   0  0  0  0  0  0  0  0  0  0  0  0
   25.2429  -19.1952   -9.0983 C   0  0  0  0  0  0  0  0  0  0  0  0
   25.1016  -20.2961   -8.3023 C   0  0  0  0  0  0  0  0  0  0  0  0
   25.6061  -21.5165   -8.7213 C   0  0  0  0  0  0  0  0  0  0  0  0
   26.2531  -21.6027   -9.9543 C   0  0  0  0  0  0  0  0  0  0  0  0
   24.9699  -20.4972  -13.2585 C   0  0  0  0  0  0  0  0  0  0  0  0
   24.9300  -19.3737  -13.8118 O   0  0  0  0  0  0  0  0  0  0  0  0
   23.7514  -21.0334  -12.7534 N   0  0  0  0  0  0  0  0  0  0  0  0
   22.4915  -20.2913  -12.8092 C   0  0  1  0  0  0  0  0  0  0  0  0
   21.7990  -20.4719  -14.1106 C   0  0  0  0  0  0  0  0  0  0  0  0
   20.5834  -19.6357  -14.1738 C   0  0  0  0  0  0  0  0  0  0  0  0
   20.0589  -18.7319  -13.2715 C   0  0  0  0  0  0  0  0  0  0  0  0
   18.9189  -18.2387  -13.7770 N   0  0  0  0  0  0  0  0  0  0  0  0
   18.6886  -18.7907  -14.9715 C   0  0  0  0  0  0  0  0  0  0  0  0
   19.7059  -19.6383  -15.2036 N   0  0  0  0  0  0  0  0  0  0  0  0
   21.6465  -20.6042  -11.6394 C   0  0  0  0  0  0  0  0  0  0  0  0
   20.6837  -19.6855  -11.2451 O   0  0  0  0  0  0  0  0  0  0  0  0
   21.7505  -21.6570  -10.9804 O   0  0  0  0  0  0  0  0  0  0  0  0
  2  3  1  1
  2  1  1  0
  4  2  1  0
  5  4  1  0
  5  6  1  1
  7  5  1  0
  7  8  2  0
  9  7  1  0
 10  9  1  0
 10 11  1  1
 12 11  1  0
 12 17  1  0
 13 12  2  0
 14 13  1  0
 14 15  2  0
 15 16  1  0
 16 17  2  0
 18 10  1  0
 19 18  2  0
 20 18  1  0
 21 20  1  0
 21 22  1  6
 22 23  1  0
 23 27  1  0
 24 23  2  0
 24 25  1  0
 25 26  1  0
 27 26  2  0
 28 21  1  0
 28 29  1  0
 30 28  2  0
M  END
$$$$
