LFH.pdb
     RDKit          3D

 30 31  0  0  1  0  0  0  0  0999 V2000
   28.6608  -19.3716  -18.2822 C   0  0  0  0  0  0  0  0  0  0  0  0
   27.9787  -18.8929  -17.0378 C   0  0  1  0  0  0  0  0  0  0  0  0
   27.3540  -17.5447  -17.3258 C   0  0  0  0  0  0  0  0  0  0  0  0
   26.9560  -19.8956  -16.5707 C   0  0  0  0  0  0  0  0  0  0  0  0
   27.5620  -21.0726  -15.8818 C   0  0  2  0  0  0  0  0  0  0  0  0
   27.4605  -22.2263  -16.7535 N   0  0  0  0  0  0  0  0  0  0  0  0
   26.7992  -21.3163  -14.6125 C   0  0  0  0  0  0  0  0  0  0  0  0
   25.6741  -21.9096  -14.6437 O   0  0  0  0  0  0  0  0  0  0  0  0
   27.3169  -20.8906  -13.3583 N   0  0  0  0  0  0  0  0  0  0  0  0
   26.5136  -21.0303  -12.1894 C   0  0  1  0  0  0  0  0  0  0  0  0
   27.1975  -20.6111  -10.9243 C   0  0  0  0  0  0  0  0  0  0  0  0
   26.3300  -20.5700   -9.7549 C   0  0  0  0  0  0  0  0  0  0  0  0
   25.2467  -21.4020   -9.6217 C   0  0  0  0  0  0  0  0  0  0  0  0
   24.4198  -21.3615   -8.5044 C   0  0  0  0  0  0  0  0  0  0  0  0
   24.6806  -20.4723   -7.5009 C   0  0  0  0  0  0  0  0  0  0  0  0
   25.7665  -19.6182   -7.6042 C   0  0  0  0  0  0  0  0  0  0  0  0
   26.5802  -19.6796   -8.7359 C   0  0  0  0  0  0  0  0  0  0  0  0
   25.2360  -20.2414  -12.3238 C   0  0  0  0  0  0  0  0  0  0  0  0
   25.2521  -19.0089  -12.5489 O   0  0  0  0  0  0  0  0  0  0  0  0
   23.9685  -20.8778  -12.1979 N   0  0  0  0  0  0  0  0  0  0  0  0
   22.7111  -20.1541  -12.3886 C   0  0  1  0  0  0  0  0  0  0  0  0
   22.5344  -19.7110  -13.7951 C   0  0  0  0  0  0  0  0  0  0  0  0
   21.2492  -19.0024  -13.9601 C   0  0  0  0  0  0  0  0  0  0  0  0
   20.3793  -18.4769  -13.0257 C   0  0  0  0  0  0  0  0  0  0  0  0
   19.3305  -17.9466  -13.6716 N   0  0  0  0  0  0  0  0  0  0  0  0
   19.4915  -18.1106  -14.9876 C   0  0  0  0  0  0  0  0  0  0  0  0
   20.6606  -18.7533  -15.1525 N   0  0  0  0  0  0  0  0  0  0  0  0
   21.5722  -20.9351  -11.8655 C   0  0  0  0  0  0  0  0  0  0  0  0
   20.4391  -20.2587  -11.4352 O   0  0  0  0  0  0  0  0  0  0  0  0
   21.5717  -22.1790  -11.7883 O   0  0  0  0  0  0  0  0  0  0  0  0
  2  3  1  6
  2  1  1  0
  4  2  1  0
  5  4  1  0
  5  6  1  6
  7  5  1  0
  7  8  2  0
  9  7  1  0
 10  9  1  0
 10 11  1  1
 12 11  1  0
 12 17  1  0
 13 12  2  0
 14 13  1  0
 14 15  2  0
 15 16  1  0
 16 17  2  0
 18 10  1  0
 19 18  2  0
 20 18  1  0
 21 20  1  0
 21 22  1  6
 22 23  1  0
 23 27  1  0
 24 23  2  0
 24 25  1  0
 25 26  1  0
 27 26  2  0
 28 21  1  0
 28 29  1  0
 30 28  2  0
M  END
$$$$
