LFH.pdb
     RDKit          3D

 30 31  0  0  1  0  0  0  0  0999 V2000
   28.6583  -23.6089  -19.0160 C   0  0  0  0  0  0  0  0  0  0  0  0
   28.1559  -22.3045  -18.4784 C   0  0  1  0  0  0  0  0  0  0  0  0
   27.4547  -21.5662  -19.5983 C   0  0  0  0  0  0  0  0  0  0  0  0
   27.2453  -22.5288  -17.2994 C   0  0  0  0  0  0  0  0  0  0  0  0
   26.6904  -21.2619  -16.7387 C   0  0  2  0  0  0  0  0  0  0  0  0
   27.6764  -20.2111  -16.8964 N   0  0  0  0  0  0  0  0  0  0  0  0
   26.3993  -21.4820  -15.2830 C   0  0  0  0  0  0  0  0  0  0  0  0
   25.7646  -22.5178  -14.9048 O   0  0  0  0  0  0  0  0  0  0  0  0
   26.8249  -20.5417  -14.3048 N   0  0  0  0  0  0  0  0  0  0  0  0
   26.4637  -20.7433  -12.9409 C   0  0  1  0  0  0  0  0  0  0  0  0
   27.3284  -20.0066  -11.9644 C   0  0  0  0  0  0  0  0  0  0  0  0
   26.9851  -20.2304  -10.5667 C   0  0  0  0  0  0  0  0  0  0  0  0
   27.3321  -21.3827   -9.9067 C   0  0  0  0  0  0  0  0  0  0  0  0
   27.0038  -21.5944   -8.5721 C   0  0  0  0  0  0  0  0  0  0  0  0
   26.3155  -20.6362   -7.8837 C   0  0  0  0  0  0  0  0  0  0  0  0
   25.9502  -19.4613   -8.5207 C   0  0  0  0  0  0  0  0  0  0  0  0
   26.2921  -19.2741   -9.8603 C   0  0  0  0  0  0  0  0  0  0  0  0
   25.0299  -20.3416  -12.7049 C   0  0  0  0  0  0  0  0  0  0  0  0
   24.6024  -19.2170  -13.0551 O   0  0  0  0  0  0  0  0  0  0  0  0
   24.1166  -21.2331  -12.0737 N   0  0  0  0  0  0  0  0  0  0  0  0
   22.7473  -20.8388  -11.7409 C   0  0  1  0  0  0  0  0  0  0  0  0
   21.7428  -21.6604  -12.4633 C   0  0  0  0  0  0  0  0  0  0  0  0
   21.5033  -21.1190  -13.8162 C   0  0  0  0  0  0  0  0  0  0  0  0
   21.9706  -19.9729  -14.4280 C   0  0  0  0  0  0  0  0  0  0  0  0
   21.4506  -19.9071  -15.6623 N   0  0  0  0  0  0  0  0  0  0  0  0
   20.6653  -20.9678  -15.8694 C   0  0  0  0  0  0  0  0  0  0  0  0
   20.7040  -21.6982  -14.7415 N   0  0  0  0  0  0  0  0  0  0  0  0
   22.5502  -20.8126  -10.2777 C   0  0  0  0  0  0  0  0  0  0  0  0
   21.3944  -20.2368   -9.7689 O   0  0  0  0  0  0  0  0  0  0  0  0
   23.3715  -21.2831   -9.4667 O   0  0  0  0  0  0  0  0  0  0  0  0
  2  3  1  6
  2  1  1  0
  4  2  1  0
  5  4  1  0
  5  6  1  1
  7  5  1  0
  7  8  2  0
  9  7  1  0
 10  9  1  0
 10 11  1  1
 12 11  1  0
 12 17  1  0
 13 12  2  0
 14 13  1  0
 14 15  2  0
 15 16  1  0
 16 17  2  0
 18 10  1  0
 19 18  2  0
 20 18  1  0
 21 20  1  0
 21 22  1  6
 22 23  1  0
 23 27  1  0
 24 23  2  0
 24 25  1  0
 25 26  1  0
 27 26  2  0
 28 21  1  0
 28 29  1  0
 30 28  2  0
M  END
$$$$
