LFH.pdb
     RDKit          3D

 30 31  0  0  1  0  0  0  0  0999 V2000
   27.5564  -17.9109  -15.1249 C   0  0  0  0  0  0  0  0  0  0  0  0
   28.3484  -18.7734  -14.1913 C   0  0  1  0  0  0  0  0  0  0  0  0
   29.3996  -17.9127  -13.5241 C   0  0  0  0  0  0  0  0  0  0  0  0
   27.4464  -19.4375  -13.1838 C   0  0  0  0  0  0  0  0  0  0  0  0
   28.1911  -20.2457  -12.1742 C   0  0  2  0  0  0  0  0  0  0  0  0
   28.8288  -21.3598  -12.8474 N   0  0  0  0  0  0  0  0  0  0  0  0
   27.2067  -20.7506  -11.1602 C   0  0  0  0  0  0  0  0  0  0  0  0
   26.6855  -21.9040  -11.2905 O   0  0  0  0  0  0  0  0  0  0  0  0
   26.8401  -19.9536  -10.0410 N   0  0  0  0  0  0  0  0  0  0  0  0
   25.6646  -20.2835   -9.3057 C   0  0  1  0  0  0  0  0  0  0  0  0
   25.5901  -19.6437   -7.9533 C   0  0  0  0  0  0  0  0  0  0  0  0
   26.7738  -19.8396   -7.1275 C   0  0  0  0  0  0  0  0  0  0  0  0
   27.7541  -18.8849   -7.0209 C   0  0  0  0  0  0  0  0  0  0  0  0
   28.8833  -19.0737   -6.2317 C   0  0  0  0  0  0  0  0  0  0  0  0
   29.0360  -20.2389   -5.5355 C   0  0  0  0  0  0  0  0  0  0  0  0
   28.0646  -21.2231   -5.6213 C   0  0  0  0  0  0  0  0  0  0  0  0
   26.9413  -21.0082   -6.4203 C   0  0  0  0  0  0  0  0  0  0  0  0
   24.4280  -19.9048  -10.0805 C   0  0  0  0  0  0  0  0  0  0  0  0
   24.4432  -18.9708  -10.9156 O   0  0  0  0  0  0  0  0  0  0  0  0
   23.2017  -20.6010   -9.8837 N   0  0  0  0  0  0  0  0  0  0  0  0
   22.3502  -21.0101  -11.0013 C   0  0  1  0  0  0  0  0  0  0  0  0
   23.0317  -21.9867  -11.8888 C   0  0  0  0  0  0  0  0  0  0  0  0
   22.1434  -22.3909  -12.9972 C   0  0  0  0  0  0  0  0  0  0  0  0
   20.8096  -22.1223  -13.2317 C   0  0  0  0  0  0  0  0  0  0  0  0
   20.4460  -22.7334  -14.3687 N   0  0  0  0  0  0  0  0  0  0  0  0
   21.4954  -23.3861  -14.8761 C   0  0  0  0  0  0  0  0  0  0  0  0
   22.5220  -23.1717  -14.0352 N   0  0  0  0  0  0  0  0  0  0  0  0
   21.0329  -21.4684  -10.5163 C   0  0  0  0  0  0  0  0  0  0  0  0
   20.9842  -22.4916   -9.5797 O   0  0  0  0  0  0  0  0  0  0  0  0
   19.9526  -20.9832  -10.9047 O   0  0  0  0  0  0  0  0  0  0  0  0
  2  3  1  1
  2  1  1  0
  4  2  1  0
  5  4  1  0
  5  6  1  6
  7  5  1  0
  7  8  2  0
  9  7  1  0
 10  9  1  0
 10 11  1  1
 12 11  1  0
 12 17  1  0
 13 12  2  0
 14 13  1  0
 14 15  2  0
 15 16  1  0
 16 17  2  0
 18 10  1  0
 19 18  2  0
 20 18  1  0
 21 20  1  0
 21 22  1  1
 22 23  1  0
 23 27  1  0
 24 23  2  0
 24 25  1  0
 25 26  1  0
 27 26  2  0
 28 21  1  0
 28 29  1  0
 30 28  2  0
M  END
$$$$
