LFH.pdb
     RDKit          3D

 30 31  0  0  1  0  0  0  0  0999 V2000
   23.3370  -11.1596  -14.9706 C   0  0  0  0  0  0  0  0  0  0  0  0
   22.0284  -11.2332  -15.6951 C   0  0  1  0  0  0  0  0  0  0  0  0
   21.4198  -12.5957  -15.4419 C   0  0  0  0  0  0  0  0  0  0  0  0
   21.1124  -10.1204  -15.2565 C   0  0  0  0  0  0  0  0  0  0  0  0
   19.8000  -10.1280  -15.9667 C   0  0  2  0  0  0  0  0  0  0  0  0
   20.0221   -9.7967  -17.3603 N   0  0  0  0  0  0  0  0  0  0  0  0
   18.9150   -9.0988  -15.3265 C   0  0  0  0  0  0  0  0  0  0  0  0
   19.0131   -7.8737  -15.6559 O   0  0  0  0  0  0  0  0  0  0  0  0
   17.9559   -9.4716  -14.3451 N   0  0  0  0  0  0  0  0  0  0  0  0
   17.1035   -8.4738  -13.7894 C   0  0  1  0  0  0  0  0  0  0  0  0
   15.6830   -8.9142  -13.6102 C   0  0  0  0  0  0  0  0  0  0  0  0
   14.7749   -7.8605  -13.1782 C   0  0  0  0  0  0  0  0  0  0  0  0
   14.2396   -7.8327  -11.9147 C   0  0  0  0  0  0  0  0  0  0  0  0
   13.3731   -6.8257  -11.5039 C   0  0  0  0  0  0  0  0  0  0  0  0
   13.0350   -5.8272  -12.3725 C   0  0  0  0  0  0  0  0  0  0  0  0
   13.5580   -5.8258  -13.6554 C   0  0  0  0  0  0  0  0  0  0  0  0
   14.4252   -6.8479  -14.0420 C   0  0  0  0  0  0  0  0  0  0  0  0
   17.6291   -8.0068  -12.4558 C   0  0  0  0  0  0  0  0  0  0  0  0
   17.9859   -8.8228  -11.5744 O   0  0  0  0  0  0  0  0  0  0  0  0
   17.7349   -6.6184  -12.1586 N   0  0  0  0  0  0  0  0  0  0  0  0
   18.2561   -6.1330  -10.8803 C   0  0  1  0  0  0  0  0  0  0  0  0
   19.2855   -5.0786  -11.0659 C   0  0  0  0  0  0  0  0  0  0  0  0
   20.3216   -5.5248  -12.0190 C   0  0  0  0  0  0  0  0  0  0  0  0
   20.4055   -6.6618  -12.7975 C   0  0  0  0  0  0  0  0  0  0  0  0
   21.5561   -6.6227  -13.4853 N   0  0  0  0  0  0  0  0  0  0  0  0
   22.2174   -5.5031  -13.1792 C   0  0  0  0  0  0  0  0  0  0  0  0
   21.4588   -4.8427  -12.2874 N   0  0  0  0  0  0  0  0  0  0  0  0
   17.1539   -5.7340   -9.9822 C   0  0  0  0  0  0  0  0  0  0  0  0
   17.3877   -5.6917   -8.6147 O   0  0  0  0  0  0  0  0  0  0  0  0
   16.0151   -5.4302  -10.3875 O   0  0  0  0  0  0  0  0  0  0  0  0
  2  3  1  1
  2  1  1  0
  4  2  1  0
  5  4  1  0
  5  6  1  6
  7  5  1  0
  7  8  2  0
  9  7  1  0
 10  9  1  0
 10 11  1  1
 12 11  1  0
 12 17  1  0
 13 12  2  0
 14 13  1  0
 14 15  2  0
 15 16  1  0
 16 17  2  0
 18 10  1  0
 19 18  2  0
 20 18  1  0
 21 20  1  0
 21 22  1  6
 22 23  1  0
 23 27  1  0
 24 23  2  0
 24 25  1  0
 25 26  1  0
 27 26  2  0
 28 21  1  0
 28 29  1  0
 30 28  2  0
M  END
$$$$
