LFH.pdb
     RDKit          3D

 30 31  0  0  1  0  0  0  0  0999 V2000
   32.9669  -22.6072   -8.5220 C   0  0  0  0  0  0  0  0  0  0  0  0
   32.1503  -22.0732   -9.6581 C   0  0  1  0  0  0  0  0  0  0  0  0
   32.5838  -22.7748  -10.9272 C   0  0  0  0  0  0  0  0  0  0  0  0
   30.6793  -22.2578   -9.3907 C   0  0  0  0  0  0  0  0  0  0  0  0
   29.8124  -21.6633  -10.4501 C   0  0  2  0  0  0  0  0  0  0  0  0
   30.2224  -20.2908  -10.6721 N   0  0  0  0  0  0  0  0  0  0  0  0
   28.3909  -21.7060   -9.9706 C   0  0  0  0  0  0  0  0  0  0  0  0
   27.8348  -22.8202   -9.7097 O   0  0  0  0  0  0  0  0  0  0  0  0
   27.6433  -20.5084   -9.8003 N   0  0  0  0  0  0  0  0  0  0  0  0
   26.3020  -20.5860   -9.3250 C   0  0  1  0  0  0  0  0  0  0  0  0
   25.9898  -19.6275   -8.2170 C   0  0  0  0  0  0  0  0  0  0  0  0
   26.7978  -19.8074   -7.0185 C   0  0  0  0  0  0  0  0  0  0  0  0
   26.5382  -20.8001   -6.1070 C   0  0  0  0  0  0  0  0  0  0  0  0
   27.3110  -20.9705   -4.9635 C   0  0  0  0  0  0  0  0  0  0  0  0
   28.3635  -20.1328   -4.7264 C   0  0  0  0  0  0  0  0  0  0  0  0
   28.6525  -19.1204   -5.6268 C   0  0  0  0  0  0  0  0  0  0  0  0
   27.8613  -18.9713   -6.7662 C   0  0  0  0  0  0  0  0  0  0  0  0
   25.3245  -20.3501  -10.4483 C   0  0  0  0  0  0  0  0  0  0  0  0
   25.4951  -19.4256  -11.2767 O   0  0  0  0  0  0  0  0  0  0  0  0
   24.1739  -21.1750  -10.6000 N   0  0  0  0  0  0  0  0  0  0  0  0
   23.1934  -20.9562  -11.6639 C   0  0  1  0  0  0  0  0  0  0  0  0
   23.0315  -22.1562  -12.5238 C   0  0  0  0  0  0  0  0  0  0  0  0
   23.6787  -21.9482  -13.8349 C   0  0  0  0  0  0  0  0  0  0  0  0
   24.2890  -20.8344  -14.3761 C   0  0  0  0  0  0  0  0  0  0  0  0
   24.7076  -21.1375  -15.6136 N   0  0  0  0  0  0  0  0  0  0  0  0
   24.3898  -22.4052  -15.8906 C   0  0  0  0  0  0  0  0  0  0  0  0
   23.7648  -22.8891  -14.8033 N   0  0  0  0  0  0  0  0  0  0  0  0
   21.9225  -20.4484  -11.1092 C   0  0  0  0  0  0  0  0  0  0  0  0
   21.0350  -19.7996  -11.9565 O   0  0  0  0  0  0  0  0  0  0  0  0
   21.5994  -20.5712   -9.9117 O   0  0  0  0  0  0  0  0  0  0  0  0
  2  3  1  6
  2  1  1  0
  4  2  1  0
  5  4  1  0
  5  6  1  1
  7  5  1  0
  7  8  2  0
  9  7  1  0
 10  9  1  0
 10 11  1  1
 12 11  1  0
 12 17  1  0
 13 12  2  0
 14 13  1  0
 14 15  2  0
 15 16  1  0
 16 17  2  0
 18 10  1  0
 19 18  2  0
 20 18  1  0
 21 20  1  0
 21 22  1  1
 22 23  1  0
 23 27  1  0
 24 23  2  0
 24 25  1  0
 25 26  1  0
 27 26  2  0
 28 21  1  0
 28 29  1  0
 30 28  2  0
M  END
$$$$
