LFH.pdb
     RDKit          3D

 30 31  0  0  1  0  0  0  0  0999 V2000
   12.2858   -8.4857   -8.0603 C   0  0  0  0  0  0  0  0  0  0  0  0
   13.0082   -7.2196   -7.7170 C   0  0  1  0  0  0  0  0  0  0  0  0
   13.7466   -7.4312   -6.4128 C   0  0  0  0  0  0  0  0  0  0  0  0
   13.9411   -6.8191   -8.8301 C   0  0  0  0  0  0  0  0  0  0  0  0
   14.7068   -5.5731   -8.5326 C   0  0  2  0  0  0  0  0  0  0  0  0
   13.7867   -4.4531   -8.5165 N   0  0  0  0  0  0  0  0  0  0  0  0
   15.7311   -5.3837   -9.6129 C   0  0  0  0  0  0  0  0  0  0  0  0
   15.3752   -5.0146  -10.7773 O   0  0  0  0  0  0  0  0  0  0  0  0
   17.1111   -5.6123   -9.3565 N   0  0  0  0  0  0  0  0  0  0  0  0
   18.0434   -5.5235  -10.4307 C   0  0  1  0  0  0  0  0  0  0  0  0
   19.4307   -5.1502  -10.0066 C   0  0  0  0  0  0  0  0  0  0  0  0
   20.3689   -4.9678  -11.1058 C   0  0  0  0  0  0  0  0  0  0  0  0
   20.4378   -3.7968  -11.8182 C   0  0  0  0  0  0  0  0  0  0  0  0
   21.3344   -3.6245  -12.8671 C   0  0  0  0  0  0  0  0  0  0  0  0
   22.1783   -4.6420  -13.2107 C   0  0  0  0  0  0  0  0  0  0  0  0
   22.1342   -5.8373  -12.5116 C   0  0  0  0  0  0  0  0  0  0  0  0
   21.2253   -5.9840  -11.4634 C   0  0  0  0  0  0  0  0  0  0  0  0
   18.1109   -6.8263  -11.1864 C   0  0  0  0  0  0  0  0  0  0  0  0
   18.2037   -7.9228  -10.5871 O   0  0  0  0  0  0  0  0  0  0  0  0
   18.0712   -6.8475  -12.6095 N   0  0  0  0  0  0  0  0  0  0  0  0
   18.1076   -8.0964  -13.3712 C   0  0  1  0  0  0  0  0  0  0  0  0
   16.8168   -8.8275  -13.2991 C   0  0  0  0  0  0  0  0  0  0  0  0
   16.8644  -10.0504  -14.1258 C   0  0  0  0  0  0  0  0  0  0  0  0
   17.8585  -10.9945  -14.2884 C   0  0  0  0  0  0  0  0  0  0  0  0
   17.4330  -11.9132  -15.1678 N   0  0  0  0  0  0  0  0  0  0  0  0
   16.2019  -11.5967  -15.5785 C   0  0  0  0  0  0  0  0  0  0  0  0
   15.8653  -10.4630  -14.9394 N   0  0  0  0  0  0  0  0  0  0  0  0
   18.5765   -7.8557  -14.7507 C   0  0  0  0  0  0  0  0  0  0  0  0
   19.7640   -8.4426  -15.1652 O   0  0  0  0  0  0  0  0  0  0  0  0
   17.9596   -7.1485  -15.5708 O   0  0  0  0  0  0  0  0  0  0  0  0
  2  3  1  1
  2  1  1  0
  4  2  1  0
  5  4  1  0
  5  6  1  6
  7  5  1  0
  7  8  2  0
  9  7  1  0
 10  9  1  0
 10 11  1  1
 12 11  1  0
 12 17  1  0
 13 12  2  0
 14 13  1  0
 14 15  2  0
 15 16  1  0
 16 17  2  0
 18 10  1  0
 19 18  2  0
 20 18  1  0
 21 20  1  0
 21 22  1  6
 22 23  1  0
 23 27  1  0
 24 23  2  0
 24 25  1  0
 25 26  1  0
 27 26  2  0
 28 21  1  0
 28 29  1  0
 30 28  2  0
M  END
$$$$
