LFH.pdb
     RDKit          3D

 30 31  0  0  1  0  0  0  0  0999 V2000
   26.4907  -20.6744  -19.7619 C   0  0  0  0  0  0  0  0  0  0  0  0
   27.3068  -21.5006  -18.8164 C   0  0  1  0  0  0  0  0  0  0  0  0
   28.6189  -20.7870  -18.5710 C   0  0  0  0  0  0  0  0  0  0  0  0
   26.5537  -21.7444  -17.5345 C   0  0  0  0  0  0  0  0  0  0  0  0
   27.3492  -22.4997  -16.5227 C   0  0  2  0  0  0  0  0  0  0  0  0
   27.4207  -23.8894  -16.9286 N   0  0  0  0  0  0  0  0  0  0  0  0
   26.6527  -22.3843  -15.1983 C   0  0  0  0  0  0  0  0  0  0  0  0
   25.6368  -23.1063  -14.9423 O   0  0  0  0  0  0  0  0  0  0  0  0
   27.1128  -21.4707  -14.2105 N   0  0  0  0  0  0  0  0  0  0  0  0
   26.3812  -21.3316  -12.9953 C   0  0  1  0  0  0  0  0  0  0  0  0
   27.1709  -20.7340  -11.8715 C   0  0  0  0  0  0  0  0  0  0  0  0
   26.3992  -20.4737  -10.6638 C   0  0  0  0  0  0  0  0  0  0  0  0
   26.0721  -19.2008  -10.2684 C   0  0  0  0  0  0  0  0  0  0  0  0
   25.3349  -18.9544   -9.1153 C   0  0  0  0  0  0  0  0  0  0  0  0
   24.9166  -20.0001   -8.3425 C   0  0  0  0  0  0  0  0  0  0  0  0
   25.2300  -21.2976   -8.7137 C   0  0  0  0  0  0  0  0  0  0  0  0
   25.9709  -21.5171   -9.8754 C   0  0  0  0  0  0  0  0  0  0  0  0
   25.1475  -20.4920  -13.2096 C   0  0  0  0  0  0  0  0  0  0  0  0
   25.2224  -19.3317  -13.6766 O   0  0  0  0  0  0  0  0  0  0  0  0
   23.8561  -20.9961  -12.8853 N   0  0  0  0  0  0  0  0  0  0  0  0
   22.6325  -20.2470  -13.1732 C   0  0  1  0  0  0  0  0  0  0  0  0
   22.3000  -20.2636  -14.6206 C   0  0  0  0  0  0  0  0  0  0  0  0
   21.0932  -19.4549  -14.8867 C   0  0  0  0  0  0  0  0  0  0  0  0
   20.2529  -18.7741  -14.0286 C   0  0  0  0  0  0  0  0  0  0  0  0
   19.2772  -18.2047  -14.7513 N   0  0  0  0  0  0  0  0  0  0  0  0
   19.4568  -18.4931  -16.0432 C   0  0  0  0  0  0  0  0  0  0  0  0
   20.5631  -19.2533  -16.1150 N   0  0  0  0  0  0  0  0  0  0  0  0
   21.5258  -20.6970  -12.3053 C   0  0  0  0  0  0  0  0  0  0  0  0
   20.5964  -19.7632  -11.8685 O   0  0  0  0  0  0  0  0  0  0  0  0
   21.3783  -21.8795  -11.9400 O   0  0  0  0  0  0  0  0  0  0  0  0
  2  3  1  1
  2  1  1  0
  4  2  1  0
  5  4  1  0
  5  6  1  6
  7  5  1  0
  7  8  2  0
  9  7  1  0
 10  9  1  0
 10 11  1  1
 12 11  1  0
 12 17  1  0
 13 12  2  0
 14 13  1  0
 14 15  2  0
 15 16  1  0
 16 17  2  0
 18 10  1  0
 19 18  2  0
 20 18  1  0
 21 20  1  0
 21 22  1  6
 22 23  1  0
 23 27  1  0
 24 23  2  0
 24 25  1  0
 25 26  1  0
 27 26  2  0
 28 21  1  0
 28 29  1  0
 30 28  2  0
M  END
$$$$
