LFH.pdb
     RDKit          3D

 30 31  0  0  1  0  0  0  0  0999 V2000
   25.1241  -25.0099  -19.2683 C   0  0  0  0  0  0  0  0  0  0  0  0
   26.0551  -24.2285  -18.3934 C   0  0  1  0  0  0  0  0  0  0  0  0
   26.6951  -23.1415  -19.2299 C   0  0  0  0  0  0  0  0  0  0  0  0
   25.3215  -23.6622  -17.2056 C   0  0  0  0  0  0  0  0  0  0  0  0
   26.0515  -23.8581  -15.9187 C   0  0  2  0  0  0  0  0  0  0  0  0
   26.0665  -25.2725  -15.6019 N   0  0  0  0  0  0  0  0  0  0  0  0
   25.3255  -23.0973  -14.8480 C   0  0  0  0  0  0  0  0  0  0  0  0
   24.3354  -23.6229  -14.2462 O   0  0  0  0  0  0  0  0  0  0  0  0
   25.7286  -21.7818  -14.4884 N   0  0  0  0  0  0  0  0  0  0  0  0
   25.0142  -21.0885  -13.4685 C   0  0  1  0  0  0  0  0  0  0  0  0
   25.8312  -20.0694  -12.7351 C   0  0  0  0  0  0  0  0  0  0  0  0
   26.0634  -20.3797  -11.3310 C   0  0  0  0  0  0  0  0  0  0  0  0
   27.2059  -21.0083  -10.9030 C   0  0  0  0  0  0  0  0  0  0  0  0
   27.4259  -21.3033   -9.5620 C   0  0  0  0  0  0  0  0  0  0  0  0
   26.4861  -20.9637   -8.6308 C   0  0  0  0  0  0  0  0  0  0  0  0
   25.3216  -20.3281   -9.0298 C   0  0  0  0  0  0  0  0  0  0  0  0
   25.1257  -20.0435  -10.3815 C   0  0  0  0  0  0  0  0  0  0  0  0
   23.7998  -20.4028  -14.0412 C   0  0  0  0  0  0  0  0  0  0  0  0
   23.8341  -19.8478  -15.1640 O   0  0  0  0  0  0  0  0  0  0  0  0
   22.5736  -20.3661  -13.3184 N   0  0  0  0  0  0  0  0  0  0  0  0
   21.2771  -20.2623  -13.9888 C   0  0  1  0  0  0  0  0  0  0  0  0
   21.0880  -21.3346  -14.9989 C   0  0  0  0  0  0  0  0  0  0  0  0
   19.8657  -21.0931  -15.7918 C   0  0  0  0  0  0  0  0  0  0  0  0
   18.8854  -20.1283  -15.6721 C   0  0  0  0  0  0  0  0  0  0  0  0
   17.9619  -20.3399  -16.6212 N   0  0  0  0  0  0  0  0  0  0  0  0
   18.3099  -21.4052  -17.3484 C   0  0  0  0  0  0  0  0  0  0  0  0
   19.4684  -21.8557  -16.8364 N   0  0  0  0  0  0  0  0  0  0  0  0
   20.1819  -20.1776  -13.0019 C   0  0  0  0  0  0  0  0  0  0  0  0
   19.2873  -19.1196  -13.0851 O   0  0  0  0  0  0  0  0  0  0  0  0
   20.0146  -21.0108  -12.0902 O   0  0  0  0  0  0  0  0  0  0  0  0
  2  3  1  6
  2  1  1  0
  4  2  1  0
  5  4  1  0
  5  6  1  1
  7  5  1  0
  7  8  2  0
  9  7  1  0
 10  9  1  0
 10 11  1  6
 12 11  1  0
 12 17  1  0
 13 12  2  0
 14 13  1  0
 14 15  2  0
 15 16  1  0
 16 17  2  0
 18 10  1  0
 19 18  2  0
 20 18  1  0
 21 20  1  0
 21 22  1  6
 22 23  1  0
 23 27  1  0
 24 23  2  0
 24 25  1  0
 25 26  1  0
 27 26  2  0
 28 21  1  0
 28 29  1  0
 30 28  2  0
M  END
$$$$
