LFH.pdb
     RDKit          3D

 30 31  0  0  1  0  0  0  0  0999 V2000
   26.1067  -19.1238  -19.7890 C   0  0  0  0  0  0  0  0  0  0  0  0
   27.1808  -19.8669  -19.0562 C   0  0  1  0  0  0  0  0  0  0  0  0
   28.4052  -18.9805  -18.9786 C   0  0  0  0  0  0  0  0  0  0  0  0
   26.7036  -20.2836  -17.6893 C   0  0  0  0  0  0  0  0  0  0  0  0
   27.7631  -20.9513  -16.8777 C   0  0  2  0  0  0  0  0  0  0  0  0
   28.1197  -22.2031  -17.5157 N   0  0  0  0  0  0  0  0  0  0  0  0
   27.2095  -21.2103  -15.5070 C   0  0  0  0  0  0  0  0  0  0  0  0
   26.3984  -22.1713  -15.3134 O   0  0  0  0  0  0  0  0  0  0  0  0
   27.5791  -20.3907  -14.4052 N   0  0  0  0  0  0  0  0  0  0  0  0
   26.9964  -20.6360  -13.1280 C   0  0  1  0  0  0  0  0  0  0  0  0
   27.6711  -19.9170  -12.0002 C   0  0  0  0  0  0  0  0  0  0  0  0
   27.0848  -20.1654  -10.6902 C   0  0  0  0  0  0  0  0  0  0  0  0
   27.3513  -21.3075   -9.9772 C   0  0  0  0  0  0  0  0  0  0  0  0
   26.7909  -21.5426   -8.7265 C   0  0  0  0  0  0  0  0  0  0  0  0
   25.9478  -20.6186   -8.1776 C   0  0  0  0  0  0  0  0  0  0  0  0
   25.6580  -19.4549   -8.8713 C   0  0  0  0  0  0  0  0  0  0  0  0
   26.2337  -19.2437  -10.1244 C   0  0  0  0  0  0  0  0  0  0  0  0
   25.5366  -20.2593  -13.1273 C   0  0  0  0  0  0  0  0  0  0  0  0
   25.1303  -19.2264  -13.7088 O   0  0  0  0  0  0  0  0  0  0  0  0
   24.5738  -21.0704  -12.4623 N   0  0  0  0  0  0  0  0  0  0  0  0
   23.1380  -20.7997  -12.5432 C   0  0  1  0  0  0  0  0  0  0  0  0
   22.4937  -21.5514  -13.6503 C   0  0  0  0  0  0  0  0  0  0  0  0
   21.9435  -20.6232  -14.6586 C   0  0  0  0  0  0  0  0  0  0  0  0
   21.8365  -19.2468  -14.6584 C   0  0  0  0  0  0  0  0  0  0  0  0
   21.2416  -18.8660  -15.7984 N   0  0  0  0  0  0  0  0  0  0  0  0
   20.9609  -19.9454  -16.5337 C   0  0  0  0  0  0  0  0  0  0  0  0
   21.3914  -21.0083  -15.8322 N   0  0  0  0  0  0  0  0  0  0  0  0
   22.4910  -21.0052  -11.2318 C   0  0  0  0  0  0  0  0  0  0  0  0
   21.2525  -20.4236  -10.9988 O   0  0  0  0  0  0  0  0  0  0  0  0
   22.9998  -21.6780  -10.3142 O   0  0  0  0  0  0  0  0  0  0  0  0
  2  3  1  1
  2  1  1  0
  4  2  1  0
  5  4  1  0
  5  6  1  6
  7  5  1  0
  7  8  2  0
  9  7  1  0
 10  9  1  0
 10 11  1  1
 12 11  1  0
 12 17  1  0
 13 12  2  0
 14 13  1  0
 14 15  2  0
 15 16  1  0
 16 17  2  0
 18 10  1  0
 19 18  2  0
 20 18  1  0
 21 20  1  0
 21 22  1  6
 22 23  1  0
 23 27  1  0
 24 23  2  0
 24 25  1  0
 25 26  1  0
 27 26  2  0
 28 21  1  0
 28 29  1  0
 30 28  2  0
M  END
$$$$
