LFH.pdb
     RDKit          3D

 30 31  0  0  1  0  0  0  0  0999 V2000
   28.8810  -24.0378  -18.5142 C   0  0  0  0  0  0  0  0  0  0  0  0
   28.4309  -22.6919  -18.0356 C   0  0  1  0  0  0  0  0  0  0  0  0
   27.9063  -21.9149  -19.2238 C   0  0  0  0  0  0  0  0  0  0  0  0
   27.3914  -22.8306  -16.9540 C   0  0  0  0  0  0  0  0  0  0  0  0
   26.8897  -21.5177  -16.4522 C   0  0  2  0  0  0  0  0  0  0  0  0
   27.9628  -20.5466  -16.5339 N   0  0  0  0  0  0  0  0  0  0  0  0
   26.4615  -21.6946  -15.0248 C   0  0  0  0  0  0  0  0  0  0  0  0
   25.6219  -22.5986  -14.7139 O   0  0  0  0  0  0  0  0  0  0  0  0
   26.9831  -20.8593  -13.9989 N   0  0  0  0  0  0  0  0  0  0  0  0
   26.4454  -20.9541  -12.6825 C   0  0  1  0  0  0  0  0  0  0  0  0
   27.3090  -20.3398  -11.6239 C   0  0  0  0  0  0  0  0  0  0  0  0
   26.7276  -20.3533  -10.2884 C   0  0  0  0  0  0  0  0  0  0  0  0
   26.8321  -21.4420   -9.4592 C   0  0  0  0  0  0  0  0  0  0  0  0
   26.2766  -21.4528   -8.1844 C   0  0  0  0  0  0  0  0  0  0  0  0
   25.6038  -20.3546   -7.7295 C   0  0  0  0  0  0  0  0  0  0  0  0
   25.4803  -19.2390   -8.5416 C   0  0  0  0  0  0  0  0  0  0  0  0
   26.0470  -19.2543   -9.8164 C   0  0  0  0  0  0  0  0  0  0  0  0
   25.0825  -20.3130  -12.6165 C   0  0  0  0  0  0  0  0  0  0  0  0
   24.8766  -19.1707  -13.0884 O   0  0  0  0  0  0  0  0  0  0  0  0
   23.9855  -20.9907  -12.0127 N   0  0  0  0  0  0  0  0  0  0  0  0
   22.6197  -20.4689  -12.0715 C   0  0  1  0  0  0  0  0  0  0  0  0
   21.8561  -21.0416  -13.2094 C   0  0  0  0  0  0  0  0  0  0  0  0
   20.4723  -20.5259  -13.2197 C   0  0  0  0  0  0  0  0  0  0  0  0
   19.2708  -21.1534  -12.9571 C   0  0  0  0  0  0  0  0  0  0  0  0
   18.2813  -20.2629  -13.1193 N   0  0  0  0  0  0  0  0  0  0  0  0
   18.7997  -19.0847  -13.4767 C   0  0  0  0  0  0  0  0  0  0  0  0
   20.1319  -19.2551  -13.5350 N   0  0  0  0  0  0  0  0  0  0  0  0
   21.9437  -20.6209  -10.7675 C   0  0  0  0  0  0  0  0  0  0  0  0
   20.9862  -19.6865  -10.3977 O   0  0  0  0  0  0  0  0  0  0  0  0
   22.1873  -21.5500   -9.9732 O   0  0  0  0  0  0  0  0  0  0  0  0
  2  3  1  6
  2  1  1  0
  4  2  1  0
  5  4  1  0
  5  6  1  1
  7  5  1  0
  7  8  2  0
  9  7  1  0
 10  9  1  0
 10 11  1  1
 12 11  1  0
 12 17  1  0
 13 12  2  0
 14 13  1  0
 14 15  2  0
 15 16  1  0
 16 17  2  0
 18 10  1  0
 19 18  2  0
 20 18  1  0
 21 20  1  0
 21 22  1  6
 22 23  1  0
 23 27  1  0
 24 23  2  0
 24 25  1  0
 25 26  1  0
 27 26  2  0
 28 21  1  0
 28 29  1  0
 30 28  2  0
M  END
$$$$
