LFH.pdb
     RDKit          3D

 30 31  0  0  1  0  0  0  0  0999 V2000
   30.1695  -17.7607  -16.5680 C   0  0  0  0  0  0  0  0  0  0  0  0
   28.7718  -17.4613  -16.1212 C   0  0  1  0  0  0  0  0  0  0  0  0
   27.9161  -17.2402  -17.3498 C   0  0  0  0  0  0  0  0  0  0  0  0
   28.2372  -18.5753  -15.2593 C   0  0  0  0  0  0  0  0  0  0  0  0
   26.7953  -18.4073  -14.9131 C   0  0  2  0  0  0  0  0  0  0  0  0
   26.6380  -17.1836  -14.1523 N   0  0  0  0  0  0  0  0  0  0  0  0
   26.3715  -19.5864  -14.0870 C   0  0  0  0  0  0  0  0  0  0  0  0
   26.6062  -20.7702  -14.4902 O   0  0  0  0  0  0  0  0  0  0  0  0
   25.7032  -19.4034  -12.8452 N   0  0  0  0  0  0  0  0  0  0  0  0
   25.2343  -20.5444  -12.1316 C   0  0  1  0  0  0  0  0  0  0  0  0
   24.9204  -20.2779  -10.6913 C   0  0  0  0  0  0  0  0  0  0  0  0
   26.0834  -20.2568   -9.8146 C   0  0  0  0  0  0  0  0  0  0  0  0
   27.2761  -20.8339  -10.1723 C   0  0  0  0  0  0  0  0  0  0  0  0
   28.3854  -20.8124   -9.3340 C   0  0  0  0  0  0  0  0  0  0  0  0
   28.3012  -20.2024   -8.1148 C   0  0  0  0  0  0  0  0  0  0  0  0
   27.1116  -19.6101   -7.7233 C   0  0  0  0  0  0  0  0  0  0  0  0
   26.0136  -19.6459   -8.5834 C   0  0  0  0  0  0  0  0  0  0  0  0
   24.0037  -21.1153  -12.7894 C   0  0  0  0  0  0  0  0  0  0  0  0
   23.1237  -20.3714  -13.2814 O   0  0  0  0  0  0  0  0  0  0  0  0
   23.8057  -22.5229  -12.8701 N   0  0  0  0  0  0  0  0  0  0  0  0
   22.6595  -23.1097  -13.5652 C   0  0  1  0  0  0  0  0  0  0  0  0
   22.8462  -24.5620  -13.8139 C   0  0  0  0  0  0  0  0  0  0  0  0
   23.6780  -24.7818  -15.0142 C   0  0  0  0  0  0  0  0  0  0  0  0
   24.2227  -23.8873  -15.9138 C   0  0  0  0  0  0  0  0  0  0  0  0
   24.8851  -24.5784  -16.8530 N   0  0  0  0  0  0  0  0  0  0  0  0
   24.7878  -25.8850  -16.5928 C   0  0  0  0  0  0  0  0  0  0  0  0
   24.0522  -25.9982  -15.4733 N   0  0  0  0  0  0  0  0  0  0  0  0
   21.4000  -22.7850  -12.8660 C   0  0  0  0  0  0  0  0  0  0  0  0
   21.4307  -22.5805  -11.4935 O   0  0  0  0  0  0  0  0  0  0  0  0
   20.3010  -22.6833  -13.4451 O   0  0  0  0  0  0  0  0  0  0  0  0
  2  3  1  6
  2  1  1  0
  4  2  1  0
  5  4  1  0
  5  6  1  1
  7  5  1  0
  7  8  2  0
  9  7  1  0
 10  9  1  0
 10 11  1  1
 12 11  1  0
 12 17  1  0
 13 12  2  0
 14 13  1  0
 14 15  2  0
 15 16  1  0
 16 17  2  0
 18 10  1  0
 19 18  2  0
 20 18  1  0
 21 20  1  0
 21 22  1  1
 22 23  1  0
 23 27  1  0
 24 23  2  0
 24 25  1  0
 25 26  1  0
 27 26  2  0
 28 21  1  0
 28 29  1  0
 30 28  2  0
M  END
$$$$
