LFH.pdb
     RDKit          3D

 30 31  0  0  1  0  0  0  0  0999 V2000
   26.6527  -19.3914  -21.5674 C   0  0  0  0  0  0  0  0  0  0  0  0
   25.7823  -18.7664  -20.5211 C   0  0  1  0  0  0  0  0  0  0  0  0
   24.5371  -18.2313  -21.1950 C   0  0  0  0  0  0  0  0  0  0  0  0
   25.4501  -19.7613  -19.4396 C   0  0  0  0  0  0  0  0  0  0  0  0
   26.2873  -19.5966  -18.2153 C   0  0  2  0  0  0  0  0  0  0  0  0
   27.4811  -20.4070  -18.3543 N   0  0  0  0  0  0  0  0  0  0  0  0
   25.4852  -20.0581  -17.0338 C   0  0  0  0  0  0  0  0  0  0  0  0
   25.3701  -21.2999  -16.7818 O   0  0  0  0  0  0  0  0  0  0  0  0
   24.8422  -19.1211  -16.1790 N   0  0  0  0  0  0  0  0  0  0  0  0
   24.2150  -19.5829  -14.9855 C   0  0  1  0  0  0  0  0  0  0  0  0
   24.8589  -19.0891  -13.7263 C   0  0  0  0  0  0  0  0  0  0  0  0
   26.1469  -19.7003  -13.4278 C   0  0  0  0  0  0  0  0  0  0  0  0
   26.2638  -20.7814  -12.5905 C   0  0  0  0  0  0  0  0  0  0  0  0
   27.4944  -21.3638  -12.3071 C   0  0  0  0  0  0  0  0  0  0  0  0
   28.6299  -20.8560  -12.8712 C   0  0  0  0  0  0  0  0  0  0  0  0
   28.5466  -19.7651  -13.7211 C   0  0  0  0  0  0  0  0  0  0  0  0
   27.2995  -19.1997  -13.9888 C   0  0  0  0  0  0  0  0  0  0  0  0
   22.7598  -19.1896  -14.9621 C   0  0  0  0  0  0  0  0  0  0  0  0
   22.3974  -18.0185  -15.2209 O   0  0  0  0  0  0  0  0  0  0  0  0
   21.7512  -20.1427  -14.6433 N   0  0  0  0  0  0  0  0  0  0  0  0
   20.3262  -19.8128  -14.6864 C   0  0  1  0  0  0  0  0  0  0  0  0
   19.4884  -21.0086  -14.9587 C   0  0  0  0  0  0  0  0  0  0  0  0
   19.5379  -21.3634  -16.3913 C   0  0  0  0  0  0  0  0  0  0  0  0
   20.0950  -20.7033  -17.4683 C   0  0  0  0  0  0  0  0  0  0  0  0
   19.8586  -21.4211  -18.5761 N   0  0  0  0  0  0  0  0  0  0  0  0
   19.1698  -22.5194  -18.2538 C   0  0  0  0  0  0  0  0  0  0  0  0
   18.9799  -22.4750  -16.9238 N   0  0  0  0  0  0  0  0  0  0  0  0
   19.9233  -19.0698  -13.4755 C   0  0  0  0  0  0  0  0  0  0  0  0
   18.8198  -18.2306  -13.5422 O   0  0  0  0  0  0  0  0  0  0  0  0
   20.5244  -19.1552  -12.3870 O   0  0  0  0  0  0  0  0  0  0  0  0
  2  3  1  6
  2  1  1  0
  4  2  1  0
  5  4  1  0
  5  6  1  6
  7  5  1  0
  7  8  2  0
  9  7  1  0
 10  9  1  0
 10 11  1  1
 12 11  1  0
 12 17  1  0
 13 12  2  0
 14 13  1  0
 14 15  2  0
 15 16  1  0
 16 17  2  0
 18 10  1  0
 19 18  2  0
 20 18  1  0
 21 20  1  0
 21 22  1  1
 22 23  1  0
 23 27  1  0
 24 23  2  0
 24 25  1  0
 25 26  1  0
 27 26  2  0
 28 21  1  0
 28 29  1  0
 30 28  2  0
M  END
$$$$
