ETY.pdb
     RDKit          3D

 29 29  0  0  1  0  0  0  0  0999 V2000
    8.8165  -13.1269   20.2603 N   0  0  0  0  0  0  0  0  0  0  0  0
    7.7049  -13.9555   19.9122 C   0  0  1  0  0  0  0  0  0  0  0  0
    7.5676  -14.3344   18.4860 C   0  0  0  0  0  0  0  0  0  0  0  0
    8.3243  -13.5594   17.4802 C   0  0  0  0  0  0  0  0  0  0  0  0
    8.9092  -14.2807   16.3533 C   0  0  0  0  0  0  0  0  0  0  0  0
   10.0969  -14.6286   16.3308 O   0  0  0  0  0  0  0  0  0  0  0  0
    7.6084  -15.1486   20.8215 C   0  0  0  0  0  0  0  0  0  0  0  0
    6.9331  -16.1769   20.4825 O   0  0  0  0  0  0  0  0  0  0  0  0
    8.1008  -14.5858   15.2700 O   0  0  0  0  0  0  0  0  0  0  0  0
    8.2340  -18.0284   20.9855 C   0  0  0  0  0  0  0  0  0  0  0  0
    8.9409  -17.5240   22.2181 C   0  0  1  0  0  0  0  0  0  0  0  0
   10.2085  -17.0957   21.8823 O   0  0  0  0  0  0  0  0  0  0  0  0
    8.2092  -16.4007   22.8926 C   0  0  2  0  0  0  0  0  0  0  0  0
    8.2610  -15.1724   22.0803 N   0  0  0  0  0  0  0  0  0  0  0  0
    8.9564  -16.0899   24.1539 C   0  0  0  0  0  0  0  0  0  0  0  0
   10.0220  -15.3954   24.1327 O   0  0  0  0  0  0  0  0  0  0  0  0
    6.2291  -10.7196   25.6553 O   0  0  0  0  0  0  0  0  0  0  0  0
    6.7041  -11.9169   26.1339 C   0  0  0  0  0  0  0  0  0  0  0  0
    7.9945  -11.9994   26.6266 C   0  0  0  0  0  0  0  0  0  0  0  0
    8.4882  -13.2013   27.1132 C   0  0  0  0  0  0  0  0  0  0  0  0
    7.6874  -14.3068   27.1022 C   0  0  0  0  0  0  0  0  0  0  0  0
    8.1986  -15.5914   27.5990 C   0  0  0  0  0  0  0  0  0  0  0  0
    9.2249  -16.1379   26.6437 C   0  0  2  0  0  0  0  0  0  0  0  0
    8.5315  -16.5390   25.4142 N   0  0  0  0  0  0  0  0  0  0  0  0
    9.9796  -17.2899   27.1690 C   0  0  0  0  0  0  0  0  0  0  0  0
    9.9263  -18.4977   26.4989 O   0  0  0  0  0  0  0  0  0  0  0  0
    6.4097  -14.2253   26.6143 C   0  0  0  0  0  0  0  0  0  0  0  0
    5.8875  -13.0365   26.1206 C   0  0  0  0  0  0  0  0  0  0  0  0
   10.6816  -17.2433   28.2069 O   0  0  0  0  0  0  0  0  0  0  0  0
  2  1  1  6
  3  2  1  0
  3  4  1  0
  4  5  1  0
  5  9  1  0
  5  6  2  0
  7  8  2  0
  7  2  1  0
 11 10  1  6
 11 13  1  0
 11 12  1  0
 13 14  1  6
 14  7  1  0
 15 13  1  0
 16 15  2  0
 18 17  1  0
 19 18  2  0
 20 19  1  0
 21 27  1  0
 21 20  2  0
 22 21  1  0
 23 22  1  1
 23 24  1  0
 24 15  1  0
 25 23  1  0
 26 25  1  0
 27 28  2  0
 28 18  1  0
 29 25  2  0
M  END
$$$$
