ETY.pdb
     RDKit          3D

 29 29  0  0  1  0  0  0  0  0999 V2000
    9.6162  -16.9485   17.2150 N   0  0  0  0  0  0  0  0  0  0  0  0
   10.0756  -17.2744   18.5288 C   0  0  1  0  0  0  0  0  0  0  0  0
   11.4617  -17.7846   18.6505 C   0  0  0  0  0  0  0  0  0  0  0  0
   11.8692  -18.9154   17.7903 C   0  0  0  0  0  0  0  0  0  0  0  0
   12.7755  -19.9140   18.3503 C   0  0  0  0  0  0  0  0  0  0  0  0
   13.1908  -20.8776   17.6936 O   0  0  0  0  0  0  0  0  0  0  0  0
    9.8025  -16.1557   19.4950 C   0  0  0  0  0  0  0  0  0  0  0  0
   10.3749  -15.0229   19.3633 O   0  0  0  0  0  0  0  0  0  0  0  0
   13.1842  -19.7743   19.6669 O   0  0  0  0  0  0  0  0  0  0  0  0
    6.7303  -14.1524   20.2084 C   0  0  0  0  0  0  0  0  0  0  0  0
    7.1793  -14.8276   21.4796 C   0  0  1  0  0  0  0  0  0  0  0  0
    6.4441  -15.9780   21.6775 O   0  0  0  0  0  0  0  0  0  0  0  0
    8.6388  -15.1769   21.4713 C   0  0  2  0  0  0  0  0  0  0  0  0
    8.9043  -16.3199   20.5800 N   0  0  0  0  0  0  0  0  0  0  0  0
    8.9820  -15.6459   22.8527 C   0  0  0  0  0  0  0  0  0  0  0  0
    9.1047  -16.8847   23.1149 O   0  0  0  0  0  0  0  0  0  0  0  0
   11.1039  -15.8830   31.2870 O   0  0  0  0  0  0  0  0  0  0  0  0
   10.8297  -15.4499   30.0121 C   0  0  0  0  0  0  0  0  0  0  0  0
   10.1871  -14.2398   29.8183 C   0  0  0  0  0  0  0  0  0  0  0  0
    9.9037  -13.7892   28.5370 C   0  0  0  0  0  0  0  0  0  0  0  0
   10.2652  -14.5521   27.4643 C   0  0  0  0  0  0  0  0  0  0  0  0
    9.9591  -14.0981   26.1010 C   0  0  0  0  0  0  0  0  0  0  0  0
    9.4372  -15.2486   25.2834 C   0  0  2  0  0  0  0  0  0  0  0  0
    9.1857  -14.7603   23.9227 N   0  0  0  0  0  0  0  0  0  0  0  0
    8.2014  -15.8505   25.8155 C   0  0  0  0  0  0  0  0  0  0  0  0
    8.2828  -16.9914   26.5917 O   0  0  0  0  0  0  0  0  0  0  0  0
   10.9013  -15.7503   27.6561 C   0  0  0  0  0  0  0  0  0  0  0  0
   11.1986  -16.2279   28.9263 C   0  0  0  0  0  0  0  0  0  0  0  0
    7.0569  -15.3839   25.6046 O   0  0  0  0  0  0  0  0  0  0  0  0
  2  1  1  6
  3  2  1  0
  3  4  1  0
  4  5  1  0
  5  9  1  0
  5  6  2  0
  7  8  2  0
  7  2  1  0
 11 10  1  6
 11 13  1  0
 11 12  1  0
 13 14  1  6
 14  7  1  0
 15 13  1  0
 16 15  2  0
 18 17  1  0
 19 18  2  0
 20 19  1  0
 21 27  1  0
 21 20  2  0
 22 21  1  0
 23 22  1  1
 23 24  1  0
 24 15  1  0
 25 23  1  0
 26 25  1  0
 27 28  2  0
 28 18  1  0
 29 25  2  0
M  END
$$$$
