ETY.pdb
     RDKit          3D

 29 29  0  0  1  0  0  0  0  0999 V2000
   10.3155  -16.8850   17.3604 N   0  0  0  0  0  0  0  0  0  0  0  0
    9.8285  -17.4576   18.5763 C   0  0  1  0  0  0  0  0  0  0  0  0
   10.5287  -18.6619   19.0816 C   0  0  0  0  0  0  0  0  0  0  0  0
   11.9153  -18.5114   19.5711 C   0  0  0  0  0  0  0  0  0  0  0  0
   12.6332  -19.7138   19.9849 C   0  0  0  0  0  0  0  0  0  0  0  0
   12.1591  -20.8496   19.8534 O   0  0  0  0  0  0  0  0  0  0  0  0
    9.6672  -16.4125   19.6448 C   0  0  0  0  0  0  0  0  0  0  0  0
   10.5752  -15.5392   19.8483 O   0  0  0  0  0  0  0  0  0  0  0  0
   13.8927  -19.5740   20.5454 O   0  0  0  0  0  0  0  0  0  0  0  0
    6.2644  -14.2830   20.2603 C   0  0  0  0  0  0  0  0  0  0  0  0
    6.8586  -14.8819   21.5099 C   0  0  1  0  0  0  0  0  0  0  0  0
    6.1690  -16.0282   21.8471 O   0  0  0  0  0  0  0  0  0  0  0  0
    8.3148  -15.2141   21.3631 C   0  0  2  0  0  0  0  0  0  0  0  0
    8.5071  -16.3614   20.4586 N   0  0  0  0  0  0  0  0  0  0  0  0
    8.7956  -15.6674   22.7082 C   0  0  0  0  0  0  0  0  0  0  0  0
    9.0665  -16.8901   22.9319 O   0  0  0  0  0  0  0  0  0  0  0  0
   11.0343  -15.7238   31.1332 O   0  0  0  0  0  0  0  0  0  0  0  0
   10.7696  -15.3288   29.8440 C   0  0  0  0  0  0  0  0  0  0  0  0
    9.8282  -14.3434   29.6042 C   0  0  0  0  0  0  0  0  0  0  0  0
    9.5503  -13.9340   28.3080 C   0  0  0  0  0  0  0  0  0  0  0  0
   10.2156  -14.5134   27.2664 C   0  0  0  0  0  0  0  0  0  0  0  0
    9.9229  -14.1035   25.8863 C   0  0  0  0  0  0  0  0  0  0  0  0
    9.3584  -15.2663   25.1157 C   0  0  2  0  0  0  0  0  0  0  0  0
    8.9734  -14.7838   23.7844 N   0  0  0  0  0  0  0  0  0  0  0  0
    8.1909  -15.8993   25.7551 C   0  0  0  0  0  0  0  0  0  0  0  0
    8.3748  -17.0180   26.5460 O   0  0  0  0  0  0  0  0  0  0  0  0
   11.1476  -15.4892   27.5036 C   0  0  0  0  0  0  0  0  0  0  0  0
   11.4475  -15.9200   28.7897 C   0  0  0  0  0  0  0  0  0  0  0  0
    7.0168  -15.4791   25.6246 O   0  0  0  0  0  0  0  0  0  0  0  0
  2  1  1  6
  3  2  1  0
  3  4  1  0
  4  5  1  0
  5  9  1  0
  5  6  2  0
  7  8  2  0
  7  2  1  0
 11 10  1  6
 11 13  1  0
 11 12  1  0
 13 14  1  6
 14  7  1  0
 15 13  1  0
 16 15  2  0
 18 17  1  0
 19 18  2  0
 20 19  1  0
 21 27  1  0
 21 20  2  0
 22 21  1  0
 23 22  1  1
 23 24  1  0
 24 15  1  0
 25 23  1  0
 26 25  1  0
 27 28  2  0
 28 18  1  0
 29 25  2  0
M  END
$$$$
