ETY.pdb
     RDKit          3D

 29 29  0  0  1  0  0  0  0  0999 V2000
   12.2727  -18.6082   17.0376 N   0  0  0  0  0  0  0  0  0  0  0  0
   12.6580  -18.2793   18.3744 C   0  0  1  0  0  0  0  0  0  0  0  0
   14.0068  -17.6948   18.5622 C   0  0  0  0  0  0  0  0  0  0  0  0
   15.1076  -18.5924   18.9713 C   0  0  0  0  0  0  0  0  0  0  0  0
   16.4400  -18.0172   19.1338 C   0  0  0  0  0  0  0  0  0  0  0  0
   17.3119  -18.5470   19.8347 O   0  0  0  0  0  0  0  0  0  0  0  0
   11.5950  -17.4713   19.0650 C   0  0  0  0  0  0  0  0  0  0  0  0
   11.3375  -16.2772   18.6959 O   0  0  0  0  0  0  0  0  0  0  0  0
   16.7358  -16.8336   18.4767 O   0  0  0  0  0  0  0  0  0  0  0  0
    7.9602  -17.8042   19.1055 C   0  0  0  0  0  0  0  0  0  0  0  0
    8.4306  -17.8543   20.5371 C   0  0  1  0  0  0  0  0  0  0  0  0
    8.5102  -19.1674   20.9526 O   0  0  0  0  0  0  0  0  0  0  0  0
    9.7652  -17.1977   20.7368 C   0  0  2  0  0  0  0  0  0  0  0  0
   10.8460  -18.0052   20.1442 N   0  0  0  0  0  0  0  0  0  0  0  0
   10.0265  -17.1827   22.2123 C   0  0  0  0  0  0  0  0  0  0  0  0
   11.2128  -17.2178   22.6704 O   0  0  0  0  0  0  0  0  0  0  0  0
   10.6239  -14.2960   30.1249 O   0  0  0  0  0  0  0  0  0  0  0  0
   10.4332  -14.5889   28.7960 C   0  0  0  0  0  0  0  0  0  0  0  0
    9.4422  -13.9387   28.0820 C   0  0  0  0  0  0  0  0  0  0  0  0
    9.2377  -14.2237   26.7396 C   0  0  0  0  0  0  0  0  0  0  0  0
   10.0252  -15.1547   26.1259 C   0  0  0  0  0  0  0  0  0  0  0  0
    9.8127  -15.4805   24.7093 C   0  0  0  0  0  0  0  0  0  0  0  0
    9.2716  -16.8789   24.5811 C   0  0  2  0  0  0  0  0  0  0  0  0
    8.9942  -17.1293   23.1621 N   0  0  0  0  0  0  0  0  0  0  0  0
    8.0452  -17.1211   25.3620 C   0  0  0  0  0  0  0  0  0  0  0  0
    8.1237  -17.8345   26.5434 O   0  0  0  0  0  0  0  0  0  0  0  0
   11.0064  -15.7986   26.8328 C   0  0  0  0  0  0  0  0  0  0  0  0
   11.2351  -15.5348   28.1774 C   0  0  0  0  0  0  0  0  0  0  0  0
    6.9114  -16.7129   25.0158 O   0  0  0  0  0  0  0  0  0  0  0  0
  2  1  1  6
  3  2  1  0
  3  4  1  0
  4  5  1  0
  5  9  1  0
  5  6  2  0
  7  8  2  0
  7  2  1  0
 11 10  1  6
 11 13  1  0
 11 12  1  0
 13 14  1  6
 14  7  1  0
 15 13  1  0
 16 15  2  0
 18 17  1  0
 19 18  2  0
 20 19  1  0
 21 27  1  0
 21 20  2  0
 22 21  1  0
 23 22  1  6
 23 24  1  0
 24 15  1  0
 25 23  1  0
 26 25  1  0
 27 28  2  0
 28 18  1  0
 29 25  2  0
M  END
$$$$
