ETY.pdb
     RDKit          3D

 29 29  0  0  1  0  0  0  0  0999 V2000
    9.5685  -18.9011   20.5102 N   0  0  0  0  0  0  0  0  0  0  0  0
   10.4806  -17.9098   20.0318 C   0  0  1  0  0  0  0  0  0  0  0  0
   10.7434  -17.8838   18.5736 C   0  0  0  0  0  0  0  0  0  0  0  0
   11.1811  -19.1348   17.9192 C   0  0  0  0  0  0  0  0  0  0  0  0
   11.3858  -19.1197   16.4734 C   0  0  0  0  0  0  0  0  0  0  0  0
   12.5051  -19.2418   15.9591 O   0  0  0  0  0  0  0  0  0  0  0  0
   10.1333  -16.5474   20.5638 C   0  0  0  0  0  0  0  0  0  0  0  0
   10.8882  -15.5440   20.3360 O   0  0  0  0  0  0  0  0  0  0  0  0
   10.2830  -18.9627   15.6492 O   0  0  0  0  0  0  0  0  0  0  0  0
    6.8124  -14.3017   20.2101 C   0  0  0  0  0  0  0  0  0  0  0  0
    7.1814  -14.6709   21.6246 C   0  0  1  0  0  0  0  0  0  0  0  0
    6.4535  -15.7740   22.0201 O   0  0  0  0  0  0  0  0  0  0  0  0
    8.6435  -14.9668   21.7886 C   0  0  2  0  0  0  0  0  0  0  0  0
    8.9615  -16.3314   21.3326 N   0  0  0  0  0  0  0  0  0  0  0  0
    8.9288  -14.9492   23.2597 C   0  0  0  0  0  0  0  0  0  0  0  0
    8.8318  -13.8757   23.9354 O   0  0  0  0  0  0  0  0  0  0  0  0
    6.7153  -10.7261   27.2844 O   0  0  0  0  0  0  0  0  0  0  0  0
    6.9823  -12.0266   26.9303 C   0  0  0  0  0  0  0  0  0  0  0  0
    7.6890  -12.8450   27.7937 C   0  0  0  0  0  0  0  0  0  0  0  0
    7.9662  -14.1604   27.4502 C   0  0  0  0  0  0  0  0  0  0  0  0
    7.5343  -14.6432   26.2486 C   0  0  0  0  0  0  0  0  0  0  0  0
    7.8322  -16.0288   25.8616 C   0  0  0  0  0  0  0  0  0  0  0  0
    9.2708  -16.1431   25.4348 C   0  0  2  0  0  0  0  0  0  0  0  0
    9.3135  -16.0980   23.9687 N   0  0  0  0  0  0  0  0  0  0  0  0
    9.9380  -17.3728   25.8988 C   0  0  0  0  0  0  0  0  0  0  0  0
   10.2717  -17.5003   27.2342 O   0  0  0  0  0  0  0  0  0  0  0  0
    6.8346  -13.8330   25.3936 C   0  0  0  0  0  0  0  0  0  0  0  0
    6.5419  -12.5123   25.7094 C   0  0  0  0  0  0  0  0  0  0  0  0
   10.2285  -18.3306   25.1438 O   0  0  0  0  0  0  0  0  0  0  0  0
  2  1  1  6
  3  2  1  0
  3  4  1  0
  4  5  1  0
  5  9  1  0
  5  6  2  0
  7  8  2  0
  7  2  1  0
 11 10  1  6
 11 13  1  0
 11 12  1  0
 13 14  1  1
 14  7  1  0
 15 13  1  0
 16 15  2  0
 18 17  1  0
 19 18  2  0
 20 19  1  0
 21 27  1  0
 21 20  2  0
 22 21  1  0
 23 22  1  6
 23 24  1  0
 24 15  1  0
 25 23  1  0
 26 25  1  0
 27 28  2  0
 28 18  1  0
 29 25  2  0
M  END
$$$$
