ETY.pdb
     RDKit          3D

 29 29  0  0  1  0  0  0  0  0999 V2000
    8.5651  -18.8969   18.4633 N   0  0  0  0  0  0  0  0  0  0  0  0
    9.8918  -18.5001   18.8182 C   0  0  1  0  0  0  0  0  0  0  0  0
   10.8825  -18.4035   17.7203 C   0  0  0  0  0  0  0  0  0  0  0  0
   10.5103  -17.6463   16.5066 C   0  0  0  0  0  0  0  0  0  0  0  0
   11.4891  -17.5525   15.4270 C   0  0  0  0  0  0  0  0  0  0  0  0
   12.5159  -16.8673   15.5182 O   0  0  0  0  0  0  0  0  0  0  0  0
    9.8807  -17.2645   19.6743 C   0  0  0  0  0  0  0  0  0  0  0  0
   10.9421  -16.5770   19.8448 O   0  0  0  0  0  0  0  0  0  0  0  0
   11.2564  -18.2589   14.2578 O   0  0  0  0  0  0  0  0  0  0  0  0
    7.0726  -14.2533   19.7377 C   0  0  0  0  0  0  0  0  0  0  0  0
    7.3855  -14.8914   21.0674 C   0  0  1  0  0  0  0  0  0  0  0  0
    6.4106  -15.8168   21.3778 O   0  0  0  0  0  0  0  0  0  0  0  0
    8.7250  -15.5678   21.0899 C   0  0  2  0  0  0  0  0  0  0  0  0
    8.6969  -16.8229   20.3182 N   0  0  0  0  0  0  0  0  0  0  0  0
    8.9878  -15.9659   22.5106 C   0  0  0  0  0  0  0  0  0  0  0  0
    8.8762  -17.1765   22.8855 O   0  0  0  0  0  0  0  0  0  0  0  0
   10.4661  -15.6094   31.0893 O   0  0  0  0  0  0  0  0  0  0  0  0
   10.3468  -15.2744   29.7620 C   0  0  0  0  0  0  0  0  0  0  0  0
    9.5608  -14.1978   29.3906 C   0  0  0  0  0  0  0  0  0  0  0  0
    9.4307  -13.8475   28.0544 C   0  0  0  0  0  0  0  0  0  0  0  0
   10.0869  -14.5762   27.1048 C   0  0  0  0  0  0  0  0  0  0  0  0
    9.9482  -14.2292   25.6840 C   0  0  0  0  0  0  0  0  0  0  0  0
    9.4757  -15.4288   24.9078 C   0  0  2  0  0  0  0  0  0  0  0  0
    9.3672  -15.0416   23.4966 N   0  0  0  0  0  0  0  0  0  0  0  0
    8.1795  -15.9641   25.3617 C   0  0  0  0  0  0  0  0  0  0  0  0
    7.0129  -15.3268   24.9829 O   0  0  0  0  0  0  0  0  0  0  0  0
   10.8651  -15.6423   27.4724 C   0  0  0  0  0  0  0  0  0  0  0  0
   11.0148  -16.0172   28.8016 C   0  0  0  0  0  0  0  0  0  0  0  0
    8.0651  -16.9820   26.0847 O   0  0  0  0  0  0  0  0  0  0  0  0
  2  1  1  6
  3  2  1  0
  3  4  1  0
  4  5  1  0
  5  9  1  0
  5  6  2  0
  7  8  2  0
  7  2  1  0
 11 10  1  6
 11 13  1  0
 11 12  1  0
 13 14  1  6
 14  7  1  0
 15 13  1  0
 16 15  2  0
 18 17  1  0
 19 18  2  0
 20 19  1  0
 21 27  1  0
 21 20  2  0
 22 21  1  0
 23 22  1  1
 23 24  1  0
 24 15  1  0
 25 23  1  0
 26 25  1  0
 27 28  2  0
 28 18  1  0
 29 25  2  0
M  END
$$$$
