ETY.pdb
     RDKit          3D

 29 29  0  0  1  0  0  0  0  0999 V2000
   10.2990  -20.1069   20.0935 N   0  0  0  0  0  0  0  0  0  0  0  0
   11.4056  -20.7143   20.7642 C   0  0  1  0  0  0  0  0  0  0  0  0
   12.5259  -21.1914   19.9196 C   0  0  0  0  0  0  0  0  0  0  0  0
   12.7325  -20.5502   18.6038 C   0  0  0  0  0  0  0  0  0  0  0  0
   13.8475  -21.0114   17.7813 C   0  0  0  0  0  0  0  0  0  0  0  0
   13.6814  -21.5754   16.6921 O   0  0  0  0  0  0  0  0  0  0  0  0
   11.8864  -19.8616   21.9050 C   0  0  0  0  0  0  0  0  0  0  0  0
   13.1149  -19.5300   22.0016 O   0  0  0  0  0  0  0  0  0  0  0  0
   15.1389  -20.8081   18.2408 O   0  0  0  0  0  0  0  0  0  0  0  0
   10.9266  -16.3330   23.0884 C   0  0  0  0  0  0  0  0  0  0  0  0
   10.7171  -17.3326   24.1975 C   0  0  1  0  0  0  0  0  0  0  0  0
    9.3810  -17.6680   24.2722 O   0  0  0  0  0  0  0  0  0  0  0  0
   11.5247  -18.5844   24.0159 C   0  0  2  0  0  0  0  0  0  0  0  0
   10.9964  -19.3988   22.9072 N   0  0  0  0  0  0  0  0  0  0  0  0
   11.3370  -19.4070   25.2544 C   0  0  0  0  0  0  0  0  0  0  0  0
   10.7495  -20.5346   25.2121 O   0  0  0  0  0  0  0  0  0  0  0  0
   11.3274  -24.4410   31.9240 O   0  0  0  0  0  0  0  0  0  0  0  0
   11.5380  -23.6393   30.8282 C   0  0  0  0  0  0  0  0  0  0  0  0
   12.7710  -23.0406   30.6385 C   0  0  0  0  0  0  0  0  0  0  0  0
   12.9987  -22.2285   29.5368 C   0  0  0  0  0  0  0  0  0  0  0  0
   11.9925  -22.0238   28.6374 C   0  0  0  0  0  0  0  0  0  0  0  0
   12.2108  -21.1544   27.4734 C   0  0  0  0  0  0  0  0  0  0  0  0
   11.5824  -19.8085   27.7146 C   0  0  2  0  0  0  0  0  0  0  0  0
   11.7915  -18.9892   26.5152 N   0  0  0  0  0  0  0  0  0  0  0  0
   12.1232  -19.0954   28.8857 C   0  0  0  0  0  0  0  0  0  0  0  0
   11.6528  -19.4091   30.1470 O   0  0  0  0  0  0  0  0  0  0  0  0
   10.7715  -22.6163   28.8251 C   0  0  0  0  0  0  0  0  0  0  0  0
   10.5134  -23.4342   29.9178 C   0  0  0  0  0  0  0  0  0  0  0  0
   13.0011  -18.2035   28.8092 O   0  0  0  0  0  0  0  0  0  0  0  0
  2  1  1  6
  3  2  1  0
  3  4  1  0
  4  5  1  0
  5  9  1  0
  5  6  2  0
  7  8  2  0
  7  2  1  0
 11 10  1  6
 11 13  1  0
 11 12  1  0
 13 14  1  6
 14  7  1  0
 15 13  1  0
 16 15  2  0
 18 17  1  0
 19 18  2  0
 20 19  1  0
 21 27  1  0
 21 20  2  0
 22 21  1  0
 23 22  1  6
 23 24  1  0
 24 15  1  0
 25 23  1  0
 26 25  1  0
 27 28  2  0
 28 18  1  0
 29 25  2  0
M  END
$$$$
