ETY.pdb
     RDKit          3D

 29 29  0  0  1  0  0  0  0  0999 V2000
    7.9214  -19.2630   19.4869 N   0  0  0  0  0  0  0  0  0  0  0  0
    9.2595  -18.8306   19.7439 C   0  0  1  0  0  0  0  0  0  0  0  0
   10.2980  -19.2374   18.7681 C   0  0  0  0  0  0  0  0  0  0  0  0
   10.4719  -18.4192   17.5494 C   0  0  0  0  0  0  0  0  0  0  0  0
   11.4819  -18.8347   16.5801 C   0  0  0  0  0  0  0  0  0  0  0  0
   11.9878  -19.9644   16.5898 O   0  0  0  0  0  0  0  0  0  0  0  0
    9.3097  -17.3567   20.0352 C   0  0  0  0  0  0  0  0  0  0  0  0
    9.7611  -16.5338   19.1706 O   0  0  0  0  0  0  0  0  0  0  0  0
   11.8868  -17.9273   15.6143 O   0  0  0  0  0  0  0  0  0  0  0  0
    6.7429  -14.8107   20.1805 C   0  0  0  0  0  0  0  0  0  0  0  0
    7.4083  -14.8737   21.5319 C   0  0  1  0  0  0  0  0  0  0  0  0
    6.6821  -15.6967   22.3677 O   0  0  0  0  0  0  0  0  0  0  0  0
    8.8222  -15.3723   21.4643 C   0  0  2  0  0  0  0  0  0  0  0  0
    8.8595  -16.8330   21.2737 N   0  0  0  0  0  0  0  0  0  0  0  0
    9.4381  -15.1181   22.8067 C   0  0  0  0  0  0  0  0  0  0  0  0
    9.4716  -13.9475   23.3036 O   0  0  0  0  0  0  0  0  0  0  0  0
   10.8355  -14.6620   31.1023 O   0  0  0  0  0  0  0  0  0  0  0  0
   10.4650  -14.8500   29.7926 C   0  0  0  0  0  0  0  0  0  0  0  0
   10.2551  -13.7561   28.9716 C   0  0  0  0  0  0  0  0  0  0  0  0
    9.8807  -13.9301   27.6469 C   0  0  0  0  0  0  0  0  0  0  0  0
    9.7203  -15.1943   27.1576 C   0  0  0  0  0  0  0  0  0  0  0  0
    9.3090  -15.3971   25.7619 C   0  0  0  0  0  0  0  0  0  0  0  0
   10.4764  -15.8912   24.9509 C   0  0  2  0  0  0  0  0  0  0  0  0
   10.0053  -16.1405   23.5837 N   0  0  0  0  0  0  0  0  0  0  0  0
   11.0959  -17.1201   25.4786 C   0  0  0  0  0  0  0  0  0  0  0  0
   12.2455  -17.0263   26.2406 O   0  0  0  0  0  0  0  0  0  0  0  0
    9.9279  -16.2775   27.9705 C   0  0  0  0  0  0  0  0  0  0  0  0
   10.3032  -16.1354   29.3004 C   0  0  0  0  0  0  0  0  0  0  0  0
   10.6373  -18.2693   25.2763 O   0  0  0  0  0  0  0  0  0  0  0  0
  2  1  1  6
  3  2  1  0
  3  4  1  0
  4  5  1  0
  5  9  1  0
  5  6  2  0
  7  8  2  0
  7  2  1  0
 11 10  1  6
 11 13  1  0
 11 12  1  0
 13 14  1  1
 14  7  1  0
 15 13  1  0
 16 15  2  0
 18 17  1  0
 19 18  2  0
 20 19  1  0
 21 27  1  0
 21 20  2  0
 22 21  1  0
 23 22  1  1
 23 24  1  0
 24 15  1  0
 25 23  1  0
 26 25  1  0
 27 28  2  0
 28 18  1  0
 29 25  2  0
M  END
$$$$
