ETY.pdb
     RDKit          3D

 29 29  0  0  1  0  0  0  0  0999 V2000
    9.8235  -18.9667   18.8443 N   0  0  0  0  0  0  0  0  0  0  0  0
   10.4692  -17.7469   18.4720 C   0  0  1  0  0  0  0  0  0  0  0  0
   10.4009  -17.3573   17.0438 C   0  0  0  0  0  0  0  0  0  0  0  0
   11.5573  -17.6691   16.1774 C   0  0  0  0  0  0  0  0  0  0  0  0
   11.3042  -18.3518   14.9116 C   0  0  0  0  0  0  0  0  0  0  0  0
   11.0062  -19.5516   14.8513 O   0  0  0  0  0  0  0  0  0  0  0  0
   10.0691  -16.6187   19.3812 C   0  0  0  0  0  0  0  0  0  0  0  0
   10.4966  -15.4332   19.1803 O   0  0  0  0  0  0  0  0  0  0  0  0
   11.4022  -17.6256   13.7355 O   0  0  0  0  0  0  0  0  0  0  0  0
    6.7836  -15.0049   20.0006 C   0  0  0  0  0  0  0  0  0  0  0  0
    7.3163  -15.5103   21.3174 C   0  0  1  0  0  0  0  0  0  0  0  0
    6.7261  -16.7193   21.6223 O   0  0  0  0  0  0  0  0  0  0  0  0
    8.8073  -15.6817   21.3172 C   0  0  2  0  0  0  0  0  0  0  0  0
    9.2075  -16.8316   20.4872 N   0  0  0  0  0  0  0  0  0  0  0  0
    9.2056  -16.0297   22.7193 C   0  0  0  0  0  0  0  0  0  0  0  0
    9.5314  -17.2184   23.0344 O   0  0  0  0  0  0  0  0  0  0  0  0
   10.7454  -15.5610   31.2815 O   0  0  0  0  0  0  0  0  0  0  0  0
   10.4840  -15.2309   29.9735 C   0  0  0  0  0  0  0  0  0  0  0  0
    9.4552  -14.3547   29.6759 C   0  0  0  0  0  0  0  0  0  0  0  0
    9.1793  -14.0119   28.3601 C   0  0  0  0  0  0  0  0  0  0  0  0
    9.9340  -14.5479   27.3569 C   0  0  0  0  0  0  0  0  0  0  0  0
    9.6461  -14.2084   25.9568 C   0  0  0  0  0  0  0  0  0  0  0  0
    9.5378  -15.4657   25.1370 C   0  0  2  0  0  0  0  0  0  0  0  0
    9.2427  -15.0798   23.7523 N   0  0  0  0  0  0  0  0  0  0  0  0
    8.5007  -16.4012   25.6080 C   0  0  0  0  0  0  0  0  0  0  0  0
    8.8693  -17.4946   26.3691 O   0  0  0  0  0  0  0  0  0  0  0  0
   10.9526  -15.4156   27.6514 C   0  0  0  0  0  0  0  0  0  0  0  0
   11.2528  -15.7777   28.9584 C   0  0  0  0  0  0  0  0  0  0  0  0
    7.2798  -16.2657   25.3571 O   0  0  0  0  0  0  0  0  0  0  0  0
  2  1  1  6
  3  2  1  0
  3  4  1  0
  4  5  1  0
  5  9  1  0
  5  6  2  0
  7  8  2  0
  7  2  1  0
 11 10  1  6
 11 13  1  0
 11 12  1  0
 13 14  1  6
 14  7  1  0
 15 13  1  0
 16 15  2  0
 18 17  1  0
 19 18  2  0
 20 19  1  0
 21 27  1  0
 21 20  2  0
 22 21  1  0
 23 22  1  1
 23 24  1  0
 24 15  1  0
 25 23  1  0
 26 25  1  0
 27 28  2  0
 28 18  1  0
 29 25  2  0
M  END
$$$$
