ETY.pdb
     RDKit          3D

 29 29  0  0  1  0  0  0  0  0999 V2000
   13.1581  -18.3964   18.8432 N   0  0  0  0  0  0  0  0  0  0  0  0
   12.6329  -17.1746   18.3190 C   0  0  1  0  0  0  0  0  0  0  0  0
   12.3761  -17.1226   16.8603 C   0  0  0  0  0  0  0  0  0  0  0  0
   13.2725  -17.8834   15.9645 C   0  0  0  0  0  0  0  0  0  0  0  0
   12.9200  -17.9701   14.5501 C   0  0  0  0  0  0  0  0  0  0  0  0
   13.2572  -17.1094   13.7269 O   0  0  0  0  0  0  0  0  0  0  0  0
   11.4470  -16.7050   19.1146 C   0  0  0  0  0  0  0  0  0  0  0  0
   10.6765  -15.7930   18.6643 O   0  0  0  0  0  0  0  0  0  0  0  0
   12.1799  -19.0585   14.1168 O   0  0  0  0  0  0  0  0  0  0  0  0
    8.1757  -17.7986   19.8081 C   0  0  0  0  0  0  0  0  0  0  0  0
    8.8565  -17.6918   21.1491 C   0  0  1  0  0  0  0  0  0  0  0  0
    9.3200  -18.9331   21.5334 O   0  0  0  0  0  0  0  0  0  0  0  0
   10.0023  -16.7225   21.1470 C   0  0  2  0  0  0  0  0  0  0  0  0
   11.1455  -17.2565   20.3858 N   0  0  0  0  0  0  0  0  0  0  0  0
   10.4737  -16.6027   22.5645 C   0  0  0  0  0  0  0  0  0  0  0  0
   11.5003  -17.2342   22.9716 O   0  0  0  0  0  0  0  0  0  0  0  0
   10.7697  -14.7481   31.0757 O   0  0  0  0  0  0  0  0  0  0  0  0
   10.4234  -14.7560   29.7459 C   0  0  0  0  0  0  0  0  0  0  0  0
    9.5621  -15.7256   29.2635 C   0  0  0  0  0  0  0  0  0  0  0  0
    9.2032  -15.7464   27.9234 C   0  0  0  0  0  0  0  0  0  0  0  0
    9.7086  -14.7988   27.0808 C   0  0  0  0  0  0  0  0  0  0  0  0
    9.3518  -14.8148   25.6557 C   0  0  0  0  0  0  0  0  0  0  0  0
   10.2696  -15.7444   24.9087 C   0  0  2  0  0  0  0  0  0  0  0  0
    9.8212  -15.7988   23.5125 N   0  0  0  0  0  0  0  0  0  0  0  0
   10.3116  -17.1128   25.4550 C   0  0  0  0  0  0  0  0  0  0  0  0
    9.2724  -17.9830   25.1840 O   0  0  0  0  0  0  0  0  0  0  0  0
   10.5615  -13.8387   27.5583 C   0  0  0  0  0  0  0  0  0  0  0  0
   10.9391  -13.7920   28.8943 C   0  0  0  0  0  0  0  0  0  0  0  0
   11.2494  -17.5469   26.1649 O   0  0  0  0  0  0  0  0  0  0  0  0
  2  1  1  1
  3  2  1  0
  3  4  1  0
  4  5  1  0
  5  9  1  0
  5  6  2  0
  7  8  2  0
  7  2  1  0
 11 10  1  6
 11 13  1  0
 11 12  1  0
 13 14  1  6
 14  7  1  0
 15 13  1  0
 16 15  2  0
 18 17  1  0
 19 18  2  0
 20 19  1  0
 21 27  1  0
 21 20  2  0
 22 21  1  0
 23 22  1  1
 23 24  1  0
 24 15  1  0
 25 23  1  0
 26 25  1  0
 27 28  2  0
 28 18  1  0
 29 25  2  0
M  END
$$$$
