PYI.pdb
     RDKit          3D

 28 29  0  0  1  0  0  0  0  0999 V2000
    9.7256  -18.1355   19.8962 N   0  0  0  0  0  0  0  0  0  0  0  0
    9.8167  -18.4862   18.4705 C   0  0  0  0  0  0  0  0  0  0  0  0
    9.4933  -17.1919   17.7353 C   0  0  0  0  0  0  0  0  0  0  0  0
    9.4883  -16.1277   18.8151 C   0  0  0  0  0  0  0  0  0  0  0  0
   10.3050  -16.8110   19.8824 C   0  0  1  0  0  0  0  0  0  0  0  0
   10.2764  -16.1455   21.1768 C   0  0  0  0  0  0  0  0  0  0  0  0
   11.2267  -15.4142   21.5368 O   0  0  0  0  0  0  0  0  0  0  0  0
    5.6074  -11.7210   27.3611 O   0  0  0  0  0  0  0  0  0  0  0  0
    6.0598  -12.5404   26.3295 C   0  0  0  0  0  0  0  0  0  0  0  0
    6.8022  -12.0457   25.2777 C   0  0  0  0  0  0  0  0  0  0  0  0
    7.2633  -12.8351   24.2423 C   0  0  0  0  0  0  0  0  0  0  0  0
    6.9884  -14.1821   24.2269 C   0  0  0  0  0  0  0  0  0  0  0  0
    7.4359  -15.1075   23.1942 C   0  0  0  0  0  0  0  0  0  0  0  0
    8.8982  -15.3788   23.1734 C   0  0  2  0  0  0  0  0  0  0  0  0
    9.1658  -16.3262   22.0357 N   0  0  0  0  0  0  0  0  0  0  0  0
    9.3580  -16.0916   24.3549 C   0  0  0  0  0  0  0  0  0  0  0  0
    9.6328  -17.3446   24.2441 O   0  0  0  0  0  0  0  0  0  0  0  0
    6.2456  -14.6987   25.2711 C   0  0  0  0  0  0  0  0  0  0  0  0
    5.7979  -13.8933   26.2896 C   0  0  0  0  0  0  0  0  0  0  0  0
   11.1656  -12.9382   28.4124 C   0  0  0  0  0  0  0  0  0  0  0  0
   10.9619  -13.9572   27.3428 C   0  0  0  0  0  0  0  0  0  0  0  0
   10.4168  -15.2633   27.7673 C   0  0  2  0  0  0  0  0  0  0  0  0
   11.0747  -15.8554   29.0015 C   0  0  0  0  0  0  0  0  0  0  0  0
   10.1303  -16.2875   26.7167 C   0  0  2  0  0  0  0  0  0  0  0  0
    9.5311  -15.4967   25.6073 N   0  0  0  0  0  0  0  0  0  0  0  0
    9.3327  -17.4248   27.0957 C   0  0  0  0  0  0  0  0  0  0  0  0
    9.8656  -18.6280   27.5018 O   0  0  0  0  0  0  0  0  0  0  0  0
    8.0778  -17.3596   27.0673 O   0  0  0  0  0  0  0  0  0  0  0  0
  1  2  1  0
  3  2  1  0
  4  5  1  0
  4  3  1  0
  5  1  1  0
  6 15  1  0
  5  6  1  1
  7  6  2  0
  9  8  1  0
 10  9  2  0
 11 10  1  0
 12 11  2  0
 12 18  1  0
 14 13  1  1
 13 12  1  0
 14 15  1  0
 16 17  2  0
 16 14  1  0
 18 19  2  0
 19  9  1  0
 21 20  1  0
 21 22  1  0
 22 23  1  1
 24 22  1  0
 24 25  1  6
 25 16  1  0
 26 24  1  0
 27 26  1  0
 28 26  2  0
M  END
$$$$
