PYI.pdb
     RDKit          3D

 28 29  0  0  1  0  0  0  0  0999 V2000
    8.6662  -15.1714   19.3000 N   0  0  0  0  0  0  0  0  0  0  0  0
    8.8506  -14.3990   18.0617 C   0  0  0  0  0  0  0  0  0  0  0  0
    7.6263  -13.4957   17.9867 C   0  0  0  0  0  0  0  0  0  0  0  0
    6.9538  -13.6474   19.3369 C   0  0  0  0  0  0  0  0  0  0  0  0
    8.1054  -14.1579   20.1652 C   0  0  1  0  0  0  0  0  0  0  0  0
    7.7244  -14.6550   21.4794 C   0  0  0  0  0  0  0  0  0  0  0  0
    7.0984  -13.9228   22.2790 O   0  0  0  0  0  0  0  0  0  0  0  0
    7.4381  -20.4326   28.3135 O   0  0  0  0  0  0  0  0  0  0  0  0
    7.6516  -19.8066   27.0877 C   0  0  0  0  0  0  0  0  0  0  0  0
    8.9162  -19.4731   26.6498 C   0  0  0  0  0  0  0  0  0  0  0  0
    9.1565  -18.8523   25.4395 C   0  0  0  0  0  0  0  0  0  0  0  0
    8.1093  -18.5375   24.6061 C   0  0  0  0  0  0  0  0  0  0  0  0
    8.2495  -17.8968   23.3049 C   0  0  0  0  0  0  0  0  0  0  0  0
    7.7003  -16.5175   23.2125 C   0  0  2  0  0  0  0  0  0  0  0  0
    8.0641  -15.9764   21.8567 N   0  0  0  0  0  0  0  0  0  0  0  0
    8.3236  -15.5967   24.1500 C   0  0  0  0  0  0  0  0  0  0  0  0
    9.4655  -15.0889   23.8399 O   0  0  0  0  0  0  0  0  0  0  0  0
    6.8336  -18.8626   25.0255 C   0  0  0  0  0  0  0  0  0  0  0  0
    6.6198  -19.4796   26.2337 C   0  0  0  0  0  0  0  0  0  0  0  0
    5.7488  -11.4259   26.1834 C   0  0  0  0  0  0  0  0  0  0  0  0
    6.9233  -12.2382   25.7538 C   0  0  0  0  0  0  0  0  0  0  0  0
    7.3606  -13.3086   26.6737 C   0  0  2  0  0  0  0  0  0  0  0  0
    7.5088  -12.8793   28.1230 C   0  0  0  0  0  0  0  0  0  0  0  0
    8.4542  -14.2247   26.2269 C   0  0  2  0  0  0  0  0  0  0  0  0
    7.7534  -15.2179   25.3681 N   0  0  0  0  0  0  0  0  0  0  0  0
    9.2703  -14.8334   27.2451 C   0  0  0  0  0  0  0  0  0  0  0  0
    9.1987  -16.1665   27.5832 O   0  0  0  0  0  0  0  0  0  0  0  0
   10.1057  -14.1466   27.8857 O   0  0  0  0  0  0  0  0  0  0  0  0
  1  2  1  0
  3  2  1  0
  4  5  1  0
  4  3  1  0
  5  1  1  0
  6 15  1  0
  5  6  1  1
  7  6  2  0
  9  8  1  0
 10  9  2  0
 11 10  1  0
 12 11  2  0
 12 18  1  0
 14 13  1  6
 13 12  1  0
 14 15  1  0
 16 17  2  0
 16 14  1  0
 18 19  2  0
 19  9  1  0
 21 20  1  0
 21 22  1  0
 22 23  1  1
 24 22  1  0
 24 25  1  1
 25 16  1  0
 26 24  1  0
 27 26  1  0
 28 26  2  0
M  END
$$$$
