PYI.pdb
     RDKit          3D

 28 29  0  0  1  0  0  0  0  0999 V2000
    8.8457  -15.5224   19.1305 N   0  0  0  0  0  0  0  0  0  0  0  0
    9.0966  -14.8603   17.8410 C   0  0  0  0  0  0  0  0  0  0  0  0
    7.8662  -13.9926   17.6093 C   0  0  0  0  0  0  0  0  0  0  0  0
    7.1120  -14.0366   18.9237 C   0  0  0  0  0  0  0  0  0  0  0  0
    8.2164  -14.4473   19.8641 C   0  0  1  0  0  0  0  0  0  0  0  0
    7.7605  -14.8324   21.1920 C   0  0  0  0  0  0  0  0  0  0  0  0
    7.1319  -14.0207   21.9085 O   0  0  0  0  0  0  0  0  0  0  0  0
    7.6528  -19.9322   28.5383 O   0  0  0  0  0  0  0  0  0  0  0  0
    7.7176  -19.4606   27.2293 C   0  0  0  0  0  0  0  0  0  0  0  0
    6.5989  -19.3813   26.4266 C   0  0  0  0  0  0  0  0  0  0  0  0
    6.6345  -18.9179   25.1259 C   0  0  0  0  0  0  0  0  0  0  0  0
    7.8242  -18.5074   24.5725 C   0  0  0  0  0  0  0  0  0  0  0  0
    7.9735  -17.9895   23.2187 C   0  0  0  0  0  0  0  0  0  0  0  0
    7.5278  -16.5840   23.0225 C   0  0  2  0  0  0  0  0  0  0  0  0
    8.0297  -16.1346   21.6773 N   0  0  0  0  0  0  0  0  0  0  0  0
    8.1390  -15.6602   23.9651 C   0  0  0  0  0  0  0  0  0  0  0  0
    9.3943  -15.4024   23.8412 O   0  0  0  0  0  0  0  0  0  0  0  0
    8.9578  -18.5786   25.3592 C   0  0  0  0  0  0  0  0  0  0  0  0
    8.8971  -19.0434   26.6502 C   0  0  0  0  0  0  0  0  0  0  0  0
    6.6106  -10.5826   26.7878 C   0  0  0  0  0  0  0  0  0  0  0  0
    7.6130  -11.6817   26.6826 C   0  0  0  0  0  0  0  0  0  0  0  0
    7.2034  -12.8814   25.9235 C   0  0  2  0  0  0  0  0  0  0  0  0
    5.7652  -13.3148   26.1481 C   0  0  0  0  0  0  0  0  0  0  0  0
    8.1515  -14.0352   25.8552 C   0  0  2  0  0  0  0  0  0  0  0  0
    7.4435  -15.0230   24.9960 N   0  0  0  0  0  0  0  0  0  0  0  0
    8.6103  -14.5946   27.1001 C   0  0  0  0  0  0  0  0  0  0  0  0
    9.6473  -14.0665   27.8366 O   0  0  0  0  0  0  0  0  0  0  0  0
    8.0634  -15.6213   27.5761 O   0  0  0  0  0  0  0  0  0  0  0  0
  1  2  1  0
  3  2  1  0
  4  5  1  0
  4  3  1  0
  5  1  1  0
  6 15  1  0
  5  6  1  1
  7  6  2  0
  9  8  1  0
 10  9  2  0
 11 10  1  0
 12 11  2  0
 12 18  1  0
 14 13  1  1
 13 12  1  0
 14 15  1  0
 16 17  2  0
 16 14  1  0
 18 19  2  0
 19  9  1  0
 21 20  1  0
 21 22  1  0
 22 23  1  1
 24 22  1  0
 24 25  1  6
 25 16  1  0
 26 24  1  0
 27 26  1  0
 28 26  2  0
M  END
$$$$
