PYI.pdb
     RDKit          3D

 28 29  0  0  1  0  0  0  0  0999 V2000
    8.9122  -17.6904   19.1810 N   0  0  0  0  0  0  0  0  0  0  0  0
    8.9512  -17.5848   17.7143 C   0  0  0  0  0  0  0  0  0  0  0  0
    7.5092  -17.3046   17.3110 C   0  0  0  0  0  0  0  0  0  0  0  0
    6.7936  -17.0199   18.6168 C   0  0  0  0  0  0  0  0  0  0  0  0
    7.9597  -16.6499   19.4978 C   0  0  1  0  0  0  0  0  0  0  0  0
    7.6366  -16.5632   20.9147 C   0  0  0  0  0  0  0  0  0  0  0  0
    6.8515  -15.6831   21.3349 O   0  0  0  0  0  0  0  0  0  0  0  0
    7.5201  -19.4838   29.4043 O   0  0  0  0  0  0  0  0  0  0  0  0
    7.7004  -19.3228   28.0326 C   0  0  0  0  0  0  0  0  0  0  0  0
    8.9300  -19.0132   27.4901 C   0  0  0  0  0  0  0  0  0  0  0  0
    9.1370  -18.8480   26.1345 C   0  0  0  0  0  0  0  0  0  0  0  0
    8.0904  -18.9920   25.2546 C   0  0  0  0  0  0  0  0  0  0  0  0
    8.1989  -18.8541   23.8081 C   0  0  0  0  0  0  0  0  0  0  0  0
    7.7674  -17.5402   23.2602 C   0  0  2  0  0  0  0  0  0  0  0  0
    8.2141  -17.4807   21.8248 N   0  0  0  0  0  0  0  0  0  0  0  0
    8.4361  -16.4155   23.8953 C   0  0  0  0  0  0  0  0  0  0  0  0
    9.6591  -16.1718   23.5750 O   0  0  0  0  0  0  0  0  0  0  0  0
    6.8493  -19.3019   25.7769 C   0  0  0  0  0  0  0  0  0  0  0  0
    6.6684  -19.4611   27.1290 C   0  0  0  0  0  0  0  0  0  0  0  0
    5.9391  -12.1213   26.9312 C   0  0  0  0  0  0  0  0  0  0  0  0
    6.5629  -13.4130   26.5239 C   0  0  0  0  0  0  0  0  0  0  0  0
    7.6485  -13.3384   25.5242 C   0  0  2  0  0  0  0  0  0  0  0  0
    7.2190  -12.8362   24.1566 C   0  0  0  0  0  0  0  0  0  0  0  0
    8.6194  -14.4723   25.4455 C   0  0  2  0  0  0  0  0  0  0  0  0
    7.8284  -15.5718   24.8287 N   0  0  0  0  0  0  0  0  0  0  0  0
    9.2829  -14.8661   26.6613 C   0  0  0  0  0  0  0  0  0  0  0  0
   10.3124  -14.1521   27.2331 O   0  0  0  0  0  0  0  0  0  0  0  0
    8.9360  -15.9124   27.2652 O   0  0  0  0  0  0  0  0  0  0  0  0
  1  2  1  0
  3  2  1  0
  4  5  1  0
  4  3  1  0
  5  1  1  0
  6 15  1  0
  5  6  1  1
  7  6  2  0
  9  8  1  0
 10  9  2  0
 11 10  1  0
 12 11  2  0
 12 18  1  0
 14 13  1  1
 13 12  1  0
 14 15  1  0
 16 17  2  0
 16 14  1  0
 18 19  2  0
 19  9  1  0
 21 20  1  0
 21 22  1  0
 22 23  1  6
 24 22  1  0
 24 25  1  1
 25 16  1  0
 26 24  1  0
 27 26  1  0
 28 26  2  0
M  END
$$$$
