PYI.pdb
     RDKit          3D

 28 29  0  0  1  0  0  0  0  0999 V2000
    8.6938  -15.2154   19.3901 N   0  0  0  0  0  0  0  0  0  0  0  0
    8.9568  -14.4255   18.1773 C   0  0  0  0  0  0  0  0  0  0  0  0
    7.7588  -13.4919   18.0599 C   0  0  0  0  0  0  0  0  0  0  0  0
    7.0173  -13.6517   19.3725 C   0  0  0  0  0  0  0  0  0  0  0  0
    8.1146  -14.2044   20.2461 C   0  0  1  0  0  0  0  0  0  0  0  0
    7.6580  -14.7157   21.5304 C   0  0  0  0  0  0  0  0  0  0  0  0
    7.0490  -13.9705   22.3312 O   0  0  0  0  0  0  0  0  0  0  0  0
    7.0943  -20.6924   28.2026 O   0  0  0  0  0  0  0  0  0  0  0  0
    7.2915  -20.0407   26.9875 C   0  0  0  0  0  0  0  0  0  0  0  0
    8.5229  -19.5402   26.6199 C   0  0  0  0  0  0  0  0  0  0  0  0
    8.7464  -18.8900   25.4219 C   0  0  0  0  0  0  0  0  0  0  0  0
    7.7155  -18.7160   24.5291 C   0  0  0  0  0  0  0  0  0  0  0  0
    7.8424  -18.0593   23.2345 C   0  0  0  0  0  0  0  0  0  0  0  0
    7.4976  -16.6124   23.2187 C   0  0  2  0  0  0  0  0  0  0  0  0
    7.9040  -16.0659   21.8771 N   0  0  0  0  0  0  0  0  0  0  0  0
    8.2704  -15.8364   24.1758 C   0  0  0  0  0  0  0  0  0  0  0  0
    9.4846  -15.5306   23.8760 O   0  0  0  0  0  0  0  0  0  0  0  0
    6.4729  -19.2095   24.8775 C   0  0  0  0  0  0  0  0  0  0  0  0
    6.2753  -19.8525   26.0749 C   0  0  0  0  0  0  0  0  0  0  0  0
    5.8942  -11.7390   26.1446 C   0  0  0  0  0  0  0  0  0  0  0  0
    6.8783  -12.7507   25.6630 C   0  0  0  0  0  0  0  0  0  0  0  0
    7.6843  -13.4346   26.6955 C   0  0  2  0  0  0  0  0  0  0  0  0
    8.2951  -12.5139   27.7376 C   0  0  0  0  0  0  0  0  0  0  0  0
    8.6179  -14.5191   26.2632 C   0  0  2  0  0  0  0  0  0  0  0  0
    7.7720  -15.3904   25.4027 N   0  0  0  0  0  0  0  0  0  0  0  0
    9.3157  -15.2460   27.2917 C   0  0  0  0  0  0  0  0  0  0  0  0
   10.4775  -14.8027   27.8836 O   0  0  0  0  0  0  0  0  0  0  0  0
    8.8758  -16.3503   27.7002 O   0  0  0  0  0  0  0  0  0  0  0  0
  1  2  1  0
  3  2  1  0
  4  5  1  0
  4  3  1  0
  5  1  1  0
  6 15  1  0
  5  6  1  1
  7  6  2  0
  9  8  1  0
 10  9  2  0
 11 10  1  0
 12 11  2  0
 12 18  1  0
 14 13  1  6
 13 12  1  0
 14 15  1  0
 16 17  2  0
 16 14  1  0
 18 19  2  0
 19  9  1  0
 21 20  1  0
 21 22  1  0
 22 23  1  6
 24 22  1  0
 24 25  1  1
 25 16  1  0
 26 24  1  0
 27 26  1  0
 28 26  2  0
M  END
$$$$
