PYI.pdb
     RDKit          3D

 28 29  0  0  1  0  0  0  0  0999 V2000
    9.6535  -18.1878   19.9436 N   0  0  0  0  0  0  0  0  0  0  0  0
    9.9516  -18.7511   18.6178 C   0  0  0  0  0  0  0  0  0  0  0  0
   10.1842  -17.5366   17.7282 C   0  0  0  0  0  0  0  0  0  0  0  0
   10.2475  -16.3643   18.6873 C   0  0  0  0  0  0  0  0  0  0  0  0
   10.5772  -17.0761   19.9748 C   0  0  1  0  0  0  0  0  0  0  0  0
   10.4567  -16.2474   21.1656 C   0  0  0  0  0  0  0  0  0  0  0  0
   11.2575  -15.3068   21.3693 O   0  0  0  0  0  0  0  0  0  0  0  0
    5.5328  -11.7469   27.0377 O   0  0  0  0  0  0  0  0  0  0  0  0
    6.0415  -12.6260   26.0845 C   0  0  0  0  0  0  0  0  0  0  0  0
    6.6318  -12.1783   24.9212 C   0  0  0  0  0  0  0  0  0  0  0  0
    7.1441  -13.0273   23.9596 C   0  0  0  0  0  0  0  0  0  0  0  0
    7.0803  -14.3891   24.1375 C   0  0  0  0  0  0  0  0  0  0  0  0
    7.6005  -15.3730   23.1970 C   0  0  0  0  0  0  0  0  0  0  0  0
    9.0813  -15.5120   23.1758 C   0  0  2  0  0  0  0  0  0  0  0  0
    9.4263  -16.5066   22.1009 N   0  0  0  0  0  0  0  0  0  0  0  0
    9.6118  -16.0983   24.3965 C   0  0  0  0  0  0  0  0  0  0  0  0
    9.9695  -17.3349   24.3750 O   0  0  0  0  0  0  0  0  0  0  0  0
    6.4926  -14.8594   25.2961 C   0  0  0  0  0  0  0  0  0  0  0  0
    5.9899  -13.9951   26.2378 C   0  0  0  0  0  0  0  0  0  0  0  0
   10.8442  -12.5935   28.4314 C   0  0  0  0  0  0  0  0  0  0  0  0
   10.9084  -13.6672   27.3986 C   0  0  0  0  0  0  0  0  0  0  0  0
   10.4442  -15.0089   27.8080 C   0  0  2  0  0  0  0  0  0  0  0  0
   11.0135  -15.5030   29.1265 C   0  0  0  0  0  0  0  0  0  0  0  0
   10.3734  -16.0822   26.7699 C   0  0  2  0  0  0  0  0  0  0  0  0
    9.7684  -15.3973   25.5951 N   0  0  0  0  0  0  0  0  0  0  0  0
    9.6987  -17.3048   27.1212 C   0  0  0  0  0  0  0  0  0  0  0  0
    8.3426  -17.4957   26.9756 O   0  0  0  0  0  0  0  0  0  0  0  0
   10.3445  -18.2754   27.5911 O   0  0  0  0  0  0  0  0  0  0  0  0
  1  2  1  0
  3  2  1  0
  4  5  1  0
  4  3  1  0
  5  1  1  0
  6 15  1  0
  5  6  1  1
  7  6  2  0
  9  8  1  0
 10  9  2  0
 11 10  1  0
 12 11  2  0
 12 18  1  0
 14 13  1  1
 13 12  1  0
 14 15  1  0
 16 17  2  0
 16 14  1  0
 18 19  2  0
 19  9  1  0
 21 20  1  0
 21 22  1  0
 22 23  1  1
 24 22  1  0
 24 25  1  6
 25 16  1  0
 26 24  1  0
 27 26  1  0
 28 26  2  0
M  END
$$$$
