PYI.pdb
     RDKit          3D

 28 29  0  0  1  0  0  0  0  0999 V2000
    9.1976  -16.9448   19.3316 N   0  0  0  0  0  0  0  0  0  0  0  0
    9.2970  -16.7878   17.8724 C   0  0  0  0  0  0  0  0  0  0  0  0
    7.8544  -16.8182   17.3839 C   0  0  0  0  0  0  0  0  0  0  0  0
    7.0195  -16.7378   18.6467 C   0  0  0  0  0  0  0  0  0  0  0  0
    8.0224  -16.1487   19.6059 C   0  0  1  0  0  0  0  0  0  0  0  0
    7.6068  -16.1788   21.0008 C   0  0  0  0  0  0  0  0  0  0  0  0
    6.5991  -15.5386   21.3779 O   0  0  0  0  0  0  0  0  0  0  0  0
    7.8874  -19.4427   29.3738 O   0  0  0  0  0  0  0  0  0  0  0  0
    7.9956  -19.2084   28.0051 C   0  0  0  0  0  0  0  0  0  0  0  0
    6.9225  -19.3605   27.1522 C   0  0  0  0  0  0  0  0  0  0  0  0
    7.0016  -19.1351   25.7918 C   0  0  0  0  0  0  0  0  0  0  0  0
    8.1907  -18.7389   25.2266 C   0  0  0  0  0  0  0  0  0  0  0  0
    8.3824  -18.4607   23.8092 C   0  0  0  0  0  0  0  0  0  0  0  0
    7.8389  -17.1590   23.3372 C   0  0  2  0  0  0  0  0  0  0  0  0
    8.3474  -16.9376   21.9386 N   0  0  0  0  0  0  0  0  0  0  0  0
    8.3496  -16.0257   24.0925 C   0  0  0  0  0  0  0  0  0  0  0  0
    9.5783  -15.6811   23.9213 O   0  0  0  0  0  0  0  0  0  0  0  0
    9.2790  -18.5806   26.0630 C   0  0  0  0  0  0  0  0  0  0  0  0
    9.1755  -18.8110   27.4130 C   0  0  0  0  0  0  0  0  0  0  0  0
    6.3915  -10.7628   26.3399 C   0  0  0  0  0  0  0  0  0  0  0  0
    7.4916  -11.7686   26.2974 C   0  0  0  0  0  0  0  0  0  0  0  0
    7.1574  -13.0924   25.7325 C   0  0  2  0  0  0  0  0  0  0  0  0
    5.7939  -13.6280   26.1330 C   0  0  0  0  0  0  0  0  0  0  0  0
    8.2152  -14.1487   25.7271 C   0  0  2  0  0  0  0  0  0  0  0  0
    7.5836  -15.2766   24.9895 N   0  0  0  0  0  0  0  0  0  0  0  0
    8.7692  -14.5426   26.9964 C   0  0  0  0  0  0  0  0  0  0  0  0
    9.7892  -13.8645   27.6260 O   0  0  0  0  0  0  0  0  0  0  0  0
    8.3281  -15.5552   27.5964 O   0  0  0  0  0  0  0  0  0  0  0  0
  1  2  1  0
  3  2  1  0
  4  5  1  0
  4  3  1  0
  5  1  1  0
  6 15  1  0
  5  6  1  1
  7  6  2  0
  9  8  1  0
 10  9  2  0
 11 10  1  0
 12 11  2  0
 12 18  1  0
 14 13  1  1
 13 12  1  0
 14 15  1  0
 16 17  2  0
 16 14  1  0
 18 19  2  0
 19  9  1  0
 21 20  1  0
 21 22  1  0
 22 23  1  1
 24 22  1  0
 24 25  1  1
 25 16  1  0
 26 24  1  0
 27 26  1  0
 28 26  2  0
M  END
$$$$
