PYI.pdb
     RDKit          3D

 28 29  0  0  1  0  0  0  0  0999 V2000
    6.4699  -18.1727   21.5987 N   0  0  0  0  0  0  0  0  0  0  0  0
    5.6571  -19.2039   20.9356 C   0  0  0  0  0  0  0  0  0  0  0  0
    6.1110  -19.1745   19.4818 C   0  0  0  0  0  0  0  0  0  0  0  0
    7.3417  -18.2892   19.4815 C   0  0  0  0  0  0  0  0  0  0  0  0
    7.7391  -18.3654   20.9338 C   0  0  1  0  0  0  0  0  0  0  0  0
    8.7586  -17.4036   21.3273 C   0  0  0  0  0  0  0  0  0  0  0  0
    9.9618  -17.6002   21.0426 O   0  0  0  0  0  0  0  0  0  0  0  0
    7.7960  -13.5226   16.3707 O   0  0  0  0  0  0  0  0  0  0  0  0
    8.0321  -13.6006   17.7412 C   0  0  0  0  0  0  0  0  0  0  0  0
    7.0194  -13.4502   18.6653 C   0  0  0  0  0  0  0  0  0  0  0  0
    7.2252  -13.5227   20.0292 C   0  0  0  0  0  0  0  0  0  0  0  0
    8.4865  -13.7549   20.5248 C   0  0  0  0  0  0  0  0  0  0  0  0
    8.8134  -13.8642   21.9405 C   0  0  0  0  0  0  0  0  0  0  0  0
    9.3951  -15.1673   22.3604 C   0  0  2  0  0  0  0  0  0  0  0  0
    8.3873  -16.2367   22.0375 N   0  0  0  0  0  0  0  0  0  0  0  0
    9.5808  -15.2662   23.7995 C   0  0  0  0  0  0  0  0  0  0  0  0
   10.5002  -14.5507   24.3475 O   0  0  0  0  0  0  0  0  0  0  0  0
    9.5161  -13.9084   19.6163 C   0  0  0  0  0  0  0  0  0  0  0  0
    9.2865  -13.8318   18.2644 C   0  0  0  0  0  0  0  0  0  0  0  0
    7.4231  -12.2530   27.2257 C   0  0  0  0  0  0  0  0  0  0  0  0
    8.3548  -13.4036   27.0472 C   0  0  0  0  0  0  0  0  0  0  0  0
    7.9632  -14.4253   26.0541 C   0  0  2  0  0  0  0  0  0  0  0  0
    6.4654  -14.5686   25.8471 C   0  0  0  0  0  0  0  0  0  0  0  0
    8.6733  -15.7406   26.0721 C   0  0  2  0  0  0  0  0  0  0  0  0
    8.8130  -16.0857   24.6311 N   0  0  0  0  0  0  0  0  0  0  0  0
    8.0915  -16.8006   26.8538 C   0  0  0  0  0  0  0  0  0  0  0  0
    8.3106  -16.9603   28.2040 O   0  0  0  0  0  0  0  0  0  0  0  0
    7.3375  -17.6491   26.3139 O   0  0  0  0  0  0  0  0  0  0  0  0
  1  2  1  0
  3  2  1  0
  4  5  1  0
  4  3  1  0
  5  1  1  0
  6 15  1  0
  5  6  1  1
  7  6  2  0
  9  8  1  0
 10  9  2  0
 11 10  1  0
 12 11  2  0
 12 18  1  0
 14 13  1  1
 13 12  1  0
 14 15  1  0
 16 17  2  0
 16 14  1  0
 18 19  2  0
 19  9  1  0
 21 20  1  0
 21 22  1  0
 22 23  1  1
 24 22  1  0
 24 25  1  6
 25 16  1  0
 26 24  1  0
 27 26  1  0
 28 26  2  0
M  END
$$$$
