PYI.pdb
     RDKit          3D

 28 29  0  0  1  0  0  0  0  0999 V2000
    9.0123  -15.0496   18.8524 N   0  0  0  0  0  0  0  0  0  0  0  0
    9.1469  -14.3284   17.5774 C   0  0  0  0  0  0  0  0  0  0  0  0
    7.8441  -13.5517   17.4362 C   0  0  0  0  0  0  0  0  0  0  0  0
    7.1625  -13.6969   18.7826 C   0  0  0  0  0  0  0  0  0  0  0  0
    8.3409  -14.0510   19.6538 C   0  0  1  0  0  0  0  0  0  0  0  0
    7.9829  -14.5134   20.9870 C   0  0  0  0  0  0  0  0  0  0  0  0
    7.3337  -13.7757   21.7628 O   0  0  0  0  0  0  0  0  0  0  0  0
    7.3265  -20.4457   27.6897 O   0  0  0  0  0  0  0  0  0  0  0  0
    7.5931  -19.7871   26.4916 C   0  0  0  0  0  0  0  0  0  0  0  0
    8.8167  -19.2041   26.2367 C   0  0  0  0  0  0  0  0  0  0  0  0
    9.1079  -18.5452   25.0582 C   0  0  0  0  0  0  0  0  0  0  0  0
    8.1570  -18.4469   24.0700 C   0  0  0  0  0  0  0  0  0  0  0  0
    8.3610  -17.7886   22.7862 C   0  0  0  0  0  0  0  0  0  0  0  0
    7.8708  -16.3866   22.7051 C   0  0  2  0  0  0  0  0  0  0  0  0
    8.3715  -15.8072   21.4101 N   0  0  0  0  0  0  0  0  0  0  0  0
    8.4409  -15.5280   23.7313 C   0  0  0  0  0  0  0  0  0  0  0  0
    9.6401  -15.0899   23.5644 O   0  0  0  0  0  0  0  0  0  0  0  0
    6.9237  -19.0239   24.3047 C   0  0  0  0  0  0  0  0  0  0  0  0
    6.6578  -19.6738   25.4851 C   0  0  0  0  0  0  0  0  0  0  0  0
    6.5829  -11.1338   27.3762 C   0  0  0  0  0  0  0  0  0  0  0  0
    7.6918  -12.0709   27.0359 C   0  0  0  0  0  0  0  0  0  0  0  0
    7.3434  -13.2293   26.1873 C   0  0  2  0  0  0  0  0  0  0  0  0
    6.0284  -13.9024   26.5401 C   0  0  0  0  0  0  0  0  0  0  0  0
    8.4207  -14.2075   25.8454 C   0  0  2  0  0  0  0  0  0  0  0  0
    7.7618  -15.1378   24.8885 N   0  0  0  0  0  0  0  0  0  0  0  0
    9.0742  -14.8858   26.9345 C   0  0  0  0  0  0  0  0  0  0  0  0
   10.1151  -14.3436   27.6550 O   0  0  0  0  0  0  0  0  0  0  0  0
    8.7072  -16.0376   27.2785 O   0  0  0  0  0  0  0  0  0  0  0  0
  1  2  1  0
  3  2  1  0
  4  5  1  0
  4  3  1  0
  5  1  1  0
  6 15  1  0
  5  6  1  1
  7  6  2  0
  9  8  1  0
 10  9  2  0
 11 10  1  0
 12 11  2  0
 12 18  1  0
 14 13  1  1
 13 12  1  0
 14 15  1  0
 16 17  2  0
 16 14  1  0
 18 19  2  0
 19  9  1  0
 21 20  1  0
 21 22  1  0
 22 23  1  1
 24 22  1  0
 24 25  1  6
 25 16  1  0
 26 24  1  0
 27 26  1  0
 28 26  2  0
M  END
$$$$
