PYI.pdb
     RDKit          3D

 28 29  0  0  1  0  0  0  0  0999 V2000
    9.2855  -17.9549   19.8135 N   0  0  0  0  0  0  0  0  0  0  0  0
    9.4781  -18.4222   18.4320 C   0  0  0  0  0  0  0  0  0  0  0  0
    9.6384  -17.1470   17.6143 C   0  0  0  0  0  0  0  0  0  0  0  0
    9.7766  -16.0443   18.6454 C   0  0  0  0  0  0  0  0  0  0  0  0
   10.2080  -16.8423   19.8495 C   0  0  1  0  0  0  0  0  0  0  0  0
   10.1816  -16.0997   21.1014 C   0  0  0  0  0  0  0  0  0  0  0  0
   11.0413  -15.2208   21.3374 O   0  0  0  0  0  0  0  0  0  0  0  0
    5.7714  -11.5911   27.3102 O   0  0  0  0  0  0  0  0  0  0  0  0
    6.1811  -12.4906   26.3288 C   0  0  0  0  0  0  0  0  0  0  0  0
    5.9728  -13.8484   26.4516 C   0  0  0  0  0  0  0  0  0  0  0  0
    6.3685  -14.7623   25.4945 C   0  0  0  0  0  0  0  0  0  0  0  0
    7.0025  -14.3337   24.3523 C   0  0  0  0  0  0  0  0  0  0  0  0
    7.4486  -15.2071   23.2746 C   0  0  0  0  0  0  0  0  0  0  0  0
    8.9171  -15.4344   23.2066 C   0  0  2  0  0  0  0  0  0  0  0  0
    9.1762  -16.3730   22.0597 N   0  0  0  0  0  0  0  0  0  0  0  0
    9.4357  -16.1334   24.3719 C   0  0  0  0  0  0  0  0  0  0  0  0
    9.8984  -17.3245   24.2140 O   0  0  0  0  0  0  0  0  0  0  0  0
    7.2216  -12.9771   24.2090 C   0  0  0  0  0  0  0  0  0  0  0  0
    6.8190  -12.0876   25.1749 C   0  0  0  0  0  0  0  0  0  0  0  0
   10.4772  -12.9309   28.6430 C   0  0  0  0  0  0  0  0  0  0  0  0
   10.6666  -13.9390   27.5606 C   0  0  0  0  0  0  0  0  0  0  0  0
   10.2368  -15.3208   27.8597 C   0  0  2  0  0  0  0  0  0  0  0  0
   10.8158  -15.9036   29.1371 C   0  0  0  0  0  0  0  0  0  0  0  0
   10.1966  -16.3092   26.7390 C   0  0  2  0  0  0  0  0  0  0  0  0
    9.4733  -15.5868   25.6573 N   0  0  0  0  0  0  0  0  0  0  0  0
    9.6448  -17.6097   27.0177 C   0  0  0  0  0  0  0  0  0  0  0  0
    8.3136  -17.9233   26.8556 O   0  0  0  0  0  0  0  0  0  0  0  0
   10.3827  -18.5377   27.4349 O   0  0  0  0  0  0  0  0  0  0  0  0
  1  2  1  0
  3  2  1  0
  4  5  1  0
  4  3  1  0
  5  1  1  0
  6 15  1  0
  5  6  1  1
  7  6  2  0
  9  8  1  0
 10  9  2  0
 11 10  1  0
 12 11  2  0
 12 18  1  0
 14 13  1  1
 13 12  1  0
 14 15  1  0
 16 17  2  0
 16 14  1  0
 18 19  2  0
 19  9  1  0
 21 20  1  0
 21 22  1  0
 22 23  1  1
 24 22  1  0
 24 25  1  6
 25 16  1  0
 26 24  1  0
 27 26  1  0
 28 26  2  0
M  END
$$$$
