PYI.pdb
     RDKit          3D

 28 29  0  0  1  0  0  0  0  0999 V2000
    8.5131  -15.5761   19.6096 N   0  0  0  0  0  0  0  0  0  0  0  0
    8.8082  -14.8503   18.3645 C   0  0  0  0  0  0  0  0  0  0  0  0
    7.6387  -13.8893   18.1939 C   0  0  0  0  0  0  0  0  0  0  0  0
    6.8826  -13.9677   19.5056 C   0  0  0  0  0  0  0  0  0  0  0  0
    7.9568  -14.5110   20.4134 C   0  0  1  0  0  0  0  0  0  0  0  0
    7.4755  -14.9498   21.7154 C   0  0  0  0  0  0  0  0  0  0  0  0
    6.8734  -14.1543   22.4718 O   0  0  0  0  0  0  0  0  0  0  0  0
    7.6413  -20.4157   28.8182 O   0  0  0  0  0  0  0  0  0  0  0  0
    7.6156  -19.8739   27.5352 C   0  0  0  0  0  0  0  0  0  0  0  0
    6.4339  -19.5325   26.9114 C   0  0  0  0  0  0  0  0  0  0  0  0
    6.3794  -18.9940   25.6407 C   0  0  0  0  0  0  0  0  0  0  0  0
    7.5386  -18.7737   24.9349 C   0  0  0  0  0  0  0  0  0  0  0  0
    7.5977  -18.1991   23.5971 C   0  0  0  0  0  0  0  0  0  0  0  0
    7.3333  -16.7374   23.5204 C   0  0  2  0  0  0  0  0  0  0  0  0
    7.6897  -16.2862   22.1300 N   0  0  0  0  0  0  0  0  0  0  0  0
    8.2027  -15.9590   24.3885 C   0  0  0  0  0  0  0  0  0  0  0  0
    9.4035  -15.7165   23.9920 O   0  0  0  0  0  0  0  0  0  0  0  0
    8.7340  -19.1088   25.5411 C   0  0  0  0  0  0  0  0  0  0  0  0
    8.7626  -19.6434   26.8059 C   0  0  0  0  0  0  0  0  0  0  0  0
    6.1658  -11.7296   26.5693 C   0  0  0  0  0  0  0  0  0  0  0  0
    7.0706  -12.7632   25.9892 C   0  0  0  0  0  0  0  0  0  0  0  0
    7.9254  -13.5042   26.9398 C   0  0  2  0  0  0  0  0  0  0  0  0
    8.6614  -12.6340   27.9436 C   0  0  0  0  0  0  0  0  0  0  0  0
    8.7690  -14.6204   26.4135 C   0  0  2  0  0  0  0  0  0  0  0  0
    7.8117  -15.4460   25.6280 N   0  0  0  0  0  0  0  0  0  0  0  0
    9.5281  -15.3877   27.3665 C   0  0  0  0  0  0  0  0  0  0  0  0
   10.8224  -15.0873   27.7287 O   0  0  0  0  0  0  0  0  0  0  0  0
    9.0206  -16.3951   27.9209 O   0  0  0  0  0  0  0  0  0  0  0  0
  1  2  1  0
  3  2  1  0
  4  5  1  0
  4  3  1  0
  5  1  1  0
  6 15  1  0
  5  6  1  1
  7  6  2  0
  9  8  1  0
 10  9  2  0
 11 10  1  0
 12 11  2  0
 12 18  1  0
 14 13  1  6
 13 12  1  0
 14 15  1  0
 16 17  2  0
 16 14  1  0
 18 19  2  0
 19  9  1  0
 21 20  1  0
 21 22  1  0
 22 23  1  6
 24 22  1  0
 24 25  1  1
 25 16  1  0
 26 24  1  0
 27 26  1  0
 28 26  2  0
M  END
$$$$
