PYI.pdb
     RDKit          3D

 28 29  0  0  1  0  0  0  0  0999 V2000
    8.9081  -15.2026   19.1352 N   0  0  0  0  0  0  0  0  0  0  0  0
    9.1628  -14.4521   17.8958 C   0  0  0  0  0  0  0  0  0  0  0  0
    7.8989  -13.6302   17.6781 C   0  0  0  0  0  0  0  0  0  0  0  0
    7.1110  -13.7893   18.9635 C   0  0  0  0  0  0  0  0  0  0  0  0
    8.2071  -14.2047   19.9116 C   0  0  1  0  0  0  0  0  0  0  0  0
    7.7331  -14.6908   21.1994 C   0  0  0  0  0  0  0  0  0  0  0  0
    6.9845  -13.9823   21.9100 O   0  0  0  0  0  0  0  0  0  0  0  0
    7.7102  -20.1982   28.2793 O   0  0  0  0  0  0  0  0  0  0  0  0
    7.8123  -19.6368   27.0087 C   0  0  0  0  0  0  0  0  0  0  0  0
    6.7298  -19.5564   26.1579 C   0  0  0  0  0  0  0  0  0  0  0  0
    6.8027  -19.0051   24.8936 C   0  0  0  0  0  0  0  0  0  0  0  0
    7.9949  -18.5025   24.4283 C   0  0  0  0  0  0  0  0  0  0  0  0
    8.1810  -17.8880   23.1202 C   0  0  0  0  0  0  0  0  0  0  0  0
    7.6923  -16.4883   22.9996 C   0  0  2  0  0  0  0  0  0  0  0  0
    8.1214  -15.9746   21.6522 N   0  0  0  0  0  0  0  0  0  0  0  0
    8.3226  -15.5854   23.9498 C   0  0  0  0  0  0  0  0  0  0  0  0
    9.4962  -15.1324   23.6760 O   0  0  0  0  0  0  0  0  0  0  0  0
    9.0925  -18.5731   25.2644 C   0  0  0  0  0  0  0  0  0  0  0  0
    8.9951  -19.1263   26.5177 C   0  0  0  0  0  0  0  0  0  0  0  0
    6.6343  -11.0493   27.4782 C   0  0  0  0  0  0  0  0  0  0  0  0
    7.7325  -12.0003   27.1416 C   0  0  0  0  0  0  0  0  0  0  0  0
    7.3571  -13.1950   26.3574 C   0  0  2  0  0  0  0  0  0  0  0  0
    6.0683  -13.8660   26.7997 C   0  0  0  0  0  0  0  0  0  0  0  0
    8.4280  -14.1759   26.0029 C   0  0  2  0  0  0  0  0  0  0  0  0
    7.7271  -15.1680   25.1430 N   0  0  0  0  0  0  0  0  0  0  0  0
    9.1600  -14.7821   27.0846 C   0  0  0  0  0  0  0  0  0  0  0  0
    9.0584  -16.1136   27.4215 O   0  0  0  0  0  0  0  0  0  0  0  0
    9.9444  -14.0946   27.7859 O   0  0  0  0  0  0  0  0  0  0  0  0
  1  2  1  0
  3  2  1  0
  4  5  1  0
  4  3  1  0
  5  1  1  0
  6 15  1  0
  5  6  1  1
  7  6  2  0
  9  8  1  0
 10  9  2  0
 11 10  1  0
 12 11  2  0
 12 18  1  0
 14 13  1  1
 13 12  1  0
 14 15  1  0
 16 17  2  0
 16 14  1  0
 18 19  2  0
 19  9  1  0
 21 20  1  0
 21 22  1  0
 22 23  1  1
 24 22  1  0
 24 25  1  1
 25 16  1  0
 26 24  1  0
 27 26  1  0
 28 26  2  0
M  END
$$$$
