PYI.pdb
     RDKit          3D

 28 29  0  0  1  0  0  0  0  0999 V2000
    8.8340  -15.3018   19.1448 N   0  0  0  0  0  0  0  0  0  0  0  0
    9.0325  -14.5743   17.8817 C   0  0  0  0  0  0  0  0  0  0  0  0
    7.8534  -13.6131   17.8029 C   0  0  0  0  0  0  0  0  0  0  0  0
    7.2005  -13.6933   19.1687 C   0  0  0  0  0  0  0  0  0  0  0  0
    8.3411  -14.2378   19.9905 C   0  0  1  0  0  0  0  0  0  0  0  0
    7.9614  -14.6784   21.3251 C   0  0  0  0  0  0  0  0  0  0  0  0
    7.4228  -13.8828   22.1279 O   0  0  0  0  0  0  0  0  0  0  0  0
    7.2319  -20.3996   28.1904 O   0  0  0  0  0  0  0  0  0  0  0  0
    7.4797  -19.7928   26.9614 C   0  0  0  0  0  0  0  0  0  0  0  0
    8.7419  -19.3734   26.5966 C   0  0  0  0  0  0  0  0  0  0  0  0
    9.0157  -18.7692   25.3851 C   0  0  0  0  0  0  0  0  0  0  0  0
    8.0065  -18.5605   24.4750 C   0  0  0  0  0  0  0  0  0  0  0  0
    8.1854  -17.9469   23.1655 C   0  0  0  0  0  0  0  0  0  0  0  0
    7.7735  -16.5208   23.0696 C   0  0  2  0  0  0  0  0  0  0  0  0
    8.2027  -16.0165   21.7187 N   0  0  0  0  0  0  0  0  0  0  0  0
    8.4729  -15.6653   24.0153 C   0  0  0  0  0  0  0  0  0  0  0  0
    9.7414  -15.5009   23.8680 O   0  0  0  0  0  0  0  0  0  0  0  0
    6.7339  -18.9729   24.8202 C   0  0  0  0  0  0  0  0  0  0  0  0
    6.4863  -19.5713   26.0314 C   0  0  0  0  0  0  0  0  0  0  0  0
    5.9076  -11.5078   26.9189 C   0  0  0  0  0  0  0  0  0  0  0  0
    6.5478  -12.8324   26.6751 C   0  0  0  0  0  0  0  0  0  0  0  0
    7.8354  -12.8225   25.9503 C   0  0  2  0  0  0  0  0  0  0  0  0
    7.8005  -12.1222   24.6031 C   0  0  0  0  0  0  0  0  0  0  0  0
    8.6469  -14.0778   25.9291 C   0  0  2  0  0  0  0  0  0  0  0  0
    7.8499  -14.9986   25.0735 N   0  0  0  0  0  0  0  0  0  0  0  0
    9.0113  -14.6564   27.1963 C   0  0  0  0  0  0  0  0  0  0  0  0
    8.5246  -15.8614   27.6519 O   0  0  0  0  0  0  0  0  0  0  0  0
    9.8134  -14.0620   27.9599 O   0  0  0  0  0  0  0  0  0  0  0  0
  1  2  1  0
  3  2  1  0
  4  5  1  0
  4  3  1  0
  5  1  1  0
  6 15  1  0
  5  6  1  1
  7  6  2  0
  9  8  1  0
 10  9  2  0
 11 10  1  0
 12 11  2  0
 12 18  1  0
 14 13  1  1
 13 12  1  0
 14 15  1  0
 16 17  2  0
 16 14  1  0
 18 19  2  0
 19  9  1  0
 21 20  1  0
 21 22  1  0
 22 23  1  6
 24 22  1  0
 24 25  1  6
 25 16  1  0
 26 24  1  0
 27 26  1  0
 28 26  2  0
M  END
$$$$
