PYI.pdb
     RDKit          3D

 28 29  0  0  1  0  0  0  0  0999 V2000
   10.0594  -18.4027   20.3192 N   0  0  0  0  0  0  0  0  0  0  0  0
   10.4464  -19.0460   19.0542 C   0  0  0  0  0  0  0  0  0  0  0  0
   11.0441  -17.9211   18.2186 C   0  0  0  0  0  0  0  0  0  0  0  0
   11.1817  -16.7586   19.1819 C   0  0  0  0  0  0  0  0  0  0  0  0
   11.1636  -17.4874   20.5015 C   0  0  1  0  0  0  0  0  0  0  0  0
   11.0208  -16.6210   21.6627 C   0  0  0  0  0  0  0  0  0  0  0  0
   11.8820  -15.7478   21.9140 O   0  0  0  0  0  0  0  0  0  0  0  0
    6.8042  -12.7709   18.5121 O   0  0  0  0  0  0  0  0  0  0  0  0
    7.1104  -13.4298   19.7005 C   0  0  0  0  0  0  0  0  0  0  0  0
    6.6734  -14.7126   19.9565 C   0  0  0  0  0  0  0  0  0  0  0  0
    6.9622  -15.3891   21.1256 C   0  0  0  0  0  0  0  0  0  0  0  0
    7.7190  -14.7860   22.1022 C   0  0  0  0  0  0  0  0  0  0  0  0
    8.0940  -15.4109   23.3640 C   0  0  0  0  0  0  0  0  0  0  0  0
    9.5433  -15.7068   23.5213 C   0  0  2  0  0  0  0  0  0  0  0  0
    9.8998  -16.7666   22.5146 N   0  0  0  0  0  0  0  0  0  0  0  0
    9.8617  -16.3064   24.8076 C   0  0  0  0  0  0  0  0  0  0  0  0
   10.0879  -17.5731   24.8519 O   0  0  0  0  0  0  0  0  0  0  0  0
    8.1670  -13.5005   21.8665 C   0  0  0  0  0  0  0  0  0  0  0  0
    7.8665  -12.8481   20.6958 C   0  0  0  0  0  0  0  0  0  0  0  0
    9.7565  -13.5042   29.8728 C   0  0  0  0  0  0  0  0  0  0  0  0
    9.5268  -14.3316   28.6537 C   0  0  0  0  0  0  0  0  0  0  0  0
   10.6545  -15.1726   28.2016 C   0  0  2  0  0  0  0  0  0  0  0  0
   11.9174  -14.4059   27.8494 C   0  0  0  0  0  0  0  0  0  0  0  0
   10.3697  -16.2879   27.2478 C   0  0  2  0  0  0  0  0  0  0  0  0
    9.9483  -15.5887   26.0034 N   0  0  0  0  0  0  0  0  0  0  0  0
    9.4394  -17.3029   27.6690 C   0  0  0  0  0  0  0  0  0  0  0  0
    8.1785  -17.4499   27.1349 O   0  0  0  0  0  0  0  0  0  0  0  0
    9.7540  -18.1191   28.5716 O   0  0  0  0  0  0  0  0  0  0  0  0
  1  2  1  0
  3  2  1  0
  4  5  1  0
  4  3  1  0
  5  1  1  0
  6 15  1  0
  5  6  1  1
  7  6  2  0
  9  8  1  0
 10  9  2  0
 11 10  1  0
 12 11  2  0
 12 18  1  0
 14 13  1  1
 13 12  1  0
 14 15  1  0
 16 17  2  0
 16 14  1  0
 18 19  2  0
 19  9  1  0
 21 20  1  0
 21 22  1  0
 22 23  1  6
 24 22  1  0
 24 25  1  6
 25 16  1  0
 26 24  1  0
 27 26  1  0
 28 26  2  0
M  END
$$$$
