PYI.pdb
     RDKit          3D

 28 29  0  0  1  0  0  0  0  0999 V2000
    8.8362  -15.1949   18.8523 N   0  0  0  0  0  0  0  0  0  0  0  0
    9.0534  -14.4299   17.6147 C   0  0  0  0  0  0  0  0  0  0  0  0
    7.8607  -13.4857   17.5327 C   0  0  0  0  0  0  0  0  0  0  0  0
    7.1761  -13.6138   18.8792 C   0  0  0  0  0  0  0  0  0  0  0  0
    8.3053  -14.1626   19.7140 C   0  0  1  0  0  0  0  0  0  0  0  0
    7.9005  -14.6457   21.0263 C   0  0  0  0  0  0  0  0  0  0  0  0
    7.3549  -13.8740   21.8474 O   0  0  0  0  0  0  0  0  0  0  0  0
    7.2807  -20.5239   27.7649 O   0  0  0  0  0  0  0  0  0  0  0  0
    7.4629  -19.9027   26.5316 C   0  0  0  0  0  0  0  0  0  0  0  0
    6.4214  -19.7203   25.6461 C   0  0  0  0  0  0  0  0  0  0  0  0
    6.5738  -19.1080   24.4174 C   0  0  0  0  0  0  0  0  0  0  0  0
    7.8080  -18.6456   24.0258 C   0  0  0  0  0  0  0  0  0  0  0  0
    8.0782  -17.9739   22.7613 C   0  0  0  0  0  0  0  0  0  0  0  0
    7.6414  -16.5539   22.6892 C   0  0  2  0  0  0  0  0  0  0  0  0
    8.1252  -15.9985   21.3773 N   0  0  0  0  0  0  0  0  0  0  0  0
    8.2757  -15.7154   23.6942 C   0  0  0  0  0  0  0  0  0  0  0  0
    9.5266  -15.4412   23.5602 O   0  0  0  0  0  0  0  0  0  0  0  0
    8.8657  -18.8183   24.8978 C   0  0  0  0  0  0  0  0  0  0  0  0
    8.6892  -19.4306   26.1144 C   0  0  0  0  0  0  0  0  0  0  0  0
    6.7151  -11.0269   27.1637 C   0  0  0  0  0  0  0  0  0  0  0  0
    7.7512  -12.0574   26.8668 C   0  0  0  0  0  0  0  0  0  0  0  0
    7.3393  -13.1802   25.9990 C   0  0  2  0  0  0  0  0  0  0  0  0
    5.9473  -13.7202   26.2770 C   0  0  0  0  0  0  0  0  0  0  0  0
    8.3334  -14.2605   25.7174 C   0  0  2  0  0  0  0  0  0  0  0  0
    7.6071  -15.1770   24.7967 N   0  0  0  0  0  0  0  0  0  0  0  0
    8.9176  -14.9383   26.8455 C   0  0  0  0  0  0  0  0  0  0  0  0
   10.0162  -14.4693   27.5309 O   0  0  0  0  0  0  0  0  0  0  0  0
    8.4306  -16.0205   27.2595 O   0  0  0  0  0  0  0  0  0  0  0  0
  1  2  1  0
  3  2  1  0
  4  5  1  0
  4  3  1  0
  5  1  1  0
  6 15  1  0
  5  6  1  1
  7  6  2  0
  9  8  1  0
 10  9  2  0
 11 10  1  0
 12 11  2  0
 12 18  1  0
 14 13  1  1
 13 12  1  0
 14 15  1  0
 16 17  2  0
 16 14  1  0
 18 19  2  0
 19  9  1  0
 21 20  1  0
 21 22  1  0
 22 23  1  1
 24 22  1  0
 24 25  1  6
 25 16  1  0
 26 24  1  0
 27 26  1  0
 28 26  2  0
M  END
$$$$
