PYI.pdb
     RDKit          3D

 28 29  0  0  1  0  0  0  0  0999 V2000
    8.0454  -15.9338   19.1025 N   0  0  0  0  0  0  0  0  0  0  0  0
    7.8629  -15.8037   17.6487 C   0  0  0  0  0  0  0  0  0  0  0  0
    7.9696  -14.3079   17.3807 C   0  0  0  0  0  0  0  0  0  0  0  0
    8.4611  -13.7176   18.6877 C   0  0  0  0  0  0  0  0  0  0  0  0
    9.0676  -14.9378   19.3330 C   0  0  1  0  0  0  0  0  0  0  0  0
    9.4113  -14.7649   20.7370 C   0  0  0  0  0  0  0  0  0  0  0  0
   10.4555  -14.1576   21.0659 O   0  0  0  0  0  0  0  0  0  0  0  0
    5.8363  -11.4514   28.0622 O   0  0  0  0  0  0  0  0  0  0  0  0
    6.1231  -12.1556   26.8952 C   0  0  0  0  0  0  0  0  0  0  0  0
    5.9369  -13.5190   26.8020 C   0  0  0  0  0  0  0  0  0  0  0  0
    6.2128  -14.2419   25.6579 C   0  0  0  0  0  0  0  0  0  0  0  0
    6.6969  -13.6050   24.5397 C   0  0  0  0  0  0  0  0  0  0  0  0
    7.0076  -14.2659   23.2788 C   0  0  0  0  0  0  0  0  0  0  0  0
    8.4382  -14.6235   23.0836 C   0  0  2  0  0  0  0  0  0  0  0  0
    8.5584  -15.2873   21.7388 N   0  0  0  0  0  0  0  0  0  0  0  0
    8.9038  -15.6279   24.0269 C   0  0  0  0  0  0  0  0  0  0  0  0
    8.9654  -16.8527   23.6345 O   0  0  0  0  0  0  0  0  0  0  0  0
    6.8912  -12.2390   24.6114 C   0  0  0  0  0  0  0  0  0  0  0  0
    6.6096  -11.5418   25.7607 C   0  0  0  0  0  0  0  0  0  0  0  0
   10.6084  -14.2269   29.3044 C   0  0  0  0  0  0  0  0  0  0  0  0
    9.8320  -14.8981   28.2226 C   0  0  0  0  0  0  0  0  0  0  0  0
   10.6052  -15.7020   27.2533 C   0  0  2  0  0  0  0  0  0  0  0  0
   11.8678  -15.0335   26.7378 C   0  0  0  0  0  0  0  0  0  0  0  0
    9.8595  -16.4330   26.1837 C   0  0  2  0  0  0  0  0  0  0  0  0
    9.3005  -15.3445   25.3364 N   0  0  0  0  0  0  0  0  0  0  0  0
    8.8688  -17.3917   26.5992 C   0  0  0  0  0  0  0  0  0  0  0  0
    9.1710  -18.5638   27.2561 O   0  0  0  0  0  0  0  0  0  0  0  0
    7.6501  -17.1879   26.3686 O   0  0  0  0  0  0  0  0  0  0  0  0
  1  2  1  0
  3  2  1  0
  4  5  1  0
  4  3  1  0
  5  1  1  0
  6 15  1  0
  5  6  1  1
  7  6  2  0
  9  8  1  0
 10  9  2  0
 11 10  1  0
 12 11  2  0
 12 18  1  0
 14 13  1  1
 13 12  1  0
 14 15  1  0
 16 17  2  0
 16 14  1  0
 18 19  2  0
 19  9  1  0
 21 20  1  0
 21 22  1  0
 22 23  1  6
 24 22  1  0
 24 25  1  6
 25 16  1  0
 26 24  1  0
 27 26  1  0
 28 26  2  0
M  END
$$$$
