PYI.pdb
     RDKit          3D

 28 29  0  0  1  0  0  0  0  0999 V2000
    6.3079  -19.1864   21.1692 N   0  0  0  0  0  0  0  0  0  0  0  0
    4.9375  -19.6939   21.3376 C   0  0  0  0  0  0  0  0  0  0  0  0
    4.5308  -19.2448   22.7352 C   0  0  0  0  0  0  0  0  0  0  0  0
    5.6250  -18.2873   23.1646 C   0  0  0  0  0  0  0  0  0  0  0  0
    6.1989  -17.9024   21.8246 C   0  0  1  0  0  0  0  0  0  0  0  0
    7.4571  -17.1737   21.8986 C   0  0  0  0  0  0  0  0  0  0  0  0
    8.5460  -17.7659   21.7222 O   0  0  0  0  0  0  0  0  0  0  0  0
    8.1644  -13.7355   15.9583 O   0  0  0  0  0  0  0  0  0  0  0  0
    8.2650  -13.7331   17.3476 C   0  0  0  0  0  0  0  0  0  0  0  0
    9.4385  -14.0604   17.9941 C   0  0  0  0  0  0  0  0  0  0  0  0
    9.5661  -14.0663   19.3695 C   0  0  0  0  0  0  0  0  0  0  0  0
    8.4933  -13.7350   20.1629 C   0  0  0  0  0  0  0  0  0  0  0  0
    8.5207  -13.6950   21.6193 C   0  0  0  0  0  0  0  0  0  0  0  0
    8.7325  -15.0069   22.2877 C   0  0  2  0  0  0  0  0  0  0  0  0
    7.4500  -15.7849   22.1722 N   0  0  0  0  0  0  0  0  0  0  0  0
    8.9537  -14.8826   23.7199 C   0  0  0  0  0  0  0  0  0  0  0  0
   10.0785  -14.4049   24.1252 O   0  0  0  0  0  0  0  0  0  0  0  0
    7.3076  -13.4040   19.5357 C   0  0  0  0  0  0  0  0  0  0  0  0
    7.2051  -13.4056   18.1661 C   0  0  0  0  0  0  0  0  0  0  0  0
    5.8699  -12.0510   26.0191 C   0  0  0  0  0  0  0  0  0  0  0  0
    6.9376  -12.9953   25.5811 C   0  0  0  0  0  0  0  0  0  0  0  0
    7.3886  -13.9921   26.5743 C   0  0  2  0  0  0  0  0  0  0  0  0
    7.7440  -13.4176   27.9345 C   0  0  0  0  0  0  0  0  0  0  0  0
    8.3394  -15.0565   26.1294 C   0  0  2  0  0  0  0  0  0  0  0  0
    8.0131  -15.2413   24.6891 N   0  0  0  0  0  0  0  0  0  0  0  0
    8.3501  -16.2914   26.8698 C   0  0  0  0  0  0  0  0  0  0  0  0
    9.2321  -16.5586   27.8932 O   0  0  0  0  0  0  0  0  0  0  0  0
    7.5278  -17.2026   26.5991 O   0  0  0  0  0  0  0  0  0  0  0  0
  1  2  1  0
  3  2  1  0
  4  5  1  0
  4  3  1  0
  5  1  1  0
  6 15  1  0
  5  6  1  1
  7  6  2  0
  9  8  1  0
 10  9  2  0
 11 10  1  0
 12 11  2  0
 12 18  1  0
 14 13  1  1
 13 12  1  0
 14 15  1  0
 16 17  2  0
 16 14  1  0
 18 19  2  0
 19  9  1  0
 21 20  1  0
 21 22  1  0
 22 23  1  1
 24 22  1  0
 24 25  1  6
 25 16  1  0
 26 24  1  0
 27 26  1  0
 28 26  2  0
M  END
$$$$
