RLQ.pdb
     RDKit          3D

 29 28  0  0  1  0  0  0  0  0999 V2000
    7.9772  -14.7511   15.5930 N   0  0  0  0  0  0  0  0  0  0  0  0
    8.1242  -13.5018   16.2432 C   0  0  0  0  0  0  0  0  0  0  0  0
    8.1993  -12.3886   15.5927 N   0  0  0  0  0  0  0  0  0  0  0  0
    8.1946  -13.4350   17.6663 N   0  0  0  0  0  0  0  0  0  0  0  0
    8.7501  -14.5153   18.4561 C   0  0  0  0  0  0  0  0  0  0  0  0
    7.6248  -15.0091   19.3833 C   0  0  0  0  0  0  0  0  0  0  0  0
    7.9028  -14.6242   20.8026 C   0  0  0  0  0  0  0  0  0  0  0  0
    8.4225  -15.7564   21.6136 C   0  0  2  0  0  0  0  0  0  0  0  0
    7.4456  -16.8508   21.5896 N   0  0  0  0  0  0  0  0  0  0  0  0
    8.7927  -15.4208   23.0063 C   0  0  0  0  0  0  0  0  0  0  0  0
    9.9791  -15.2205   23.3346 O   0  0  0  0  0  0  0  0  0  0  0  0
    8.3616  -11.4770   16.0604 C   0  0  0  0  0  0  0  0  0  0  0  0
    5.5933  -12.2704   26.1514 C   0  0  1  0  0  0  0  0  0  0  0  0
    6.7981  -12.8884   25.5458 C   0  0  0  0  0  0  0  0  0  0  0  0
    7.9965  -11.9775   25.7440 C   0  0  0  0  0  0  0  0  0  0  0  0
    7.0977  -14.2253   26.0993 C   0  0  2  0  0  0  0  0  0  0  0  0
    8.1867  -15.0097   25.4375 N   0  0  0  0  0  0  0  0  0  0  0  0
    7.8207  -15.3082   24.0441 C   0  0  0  0  0  0  0  0  0  0  0  0
    8.5900  -16.2585   26.0836 O   0  0  0  0  0  0  0  0  0  0  0  0
    7.9045  -17.3347   25.9515 N   0  0  0  0  0  0  0  0  0  0  0  0
   14.3133  -19.4806   25.4219 C   0  0  0  0  0  0  0  0  0  0  0  0
   12.9035  -19.4026   25.2837 O   0  0  0  0  0  0  0  0  0  0  0  0
   12.2372  -20.3538   24.8054 C   0  0  0  0  0  0  0  0  0  0  0  0
   12.2625  -18.1329   25.7368 C   0  0  0  0  0  0  0  0  0  0  0  0
   10.7997  -18.4264   25.9858 C   0  0  1  0  0  0  0  0  0  0  0  0
   10.2993  -17.7145   27.2353 N   0  0  0  0  0  0  0  0  0  0  0  0
    9.7492  -16.4184   26.8996 C   0  0  0  0  0  0  0  0  0  0  0  0
   11.3326  -17.6692   28.2839 O   0  0  0  0  0  0  0  0  0  0  0  0
   11.4437  -18.6223   29.1267 O   0  0  0  0  0  0  0  0  0  0  0  0
  2  1  1  0
  2  3  2  0
  4  2  1  0
  5  4  1  0
  6  5  1  0
  7  6  1  0
  8 10  1  0
  8  7  1  0
  8  9  1  1
 10 11  2  0
 13 12  1  6
 14 13  1  0
 15 13  1  0
 16 15  1  6
 17 16  1  0
 17 10  1  0
 18 16  1  0
 18 19  2  0
 20 21  1  0
 21 23  1  0
 21 22  2  0
 23 24  1  0
 25 24  1  6
 25 26  1  0
 25 27  1  0
 26 18  1  0
 27 28  2  0
 27 29  1  0
M  END
$$$$
