RLQ.pdb
     RDKit          3D

 29 28  0  0  1  0  0  0  0  0999 V2000
    8.4142  -13.9345   16.8995 N   0  0  0  0  0  0  0  0  0  0  0  0
    8.1324  -13.1951   18.0739 C   0  0  0  0  0  0  0  0  0  0  0  0
    8.2773  -11.9133   18.1351 N   0  0  0  0  0  0  0  0  0  0  0  0
    7.6699  -13.8590   19.2486 N   0  0  0  0  0  0  0  0  0  0  0  0
    7.4244  -15.2868   19.2738 C   0  0  0  0  0  0  0  0  0  0  0  0
    8.7242  -15.9503   19.7636 C   0  0  0  0  0  0  0  0  0  0  0  0
    9.1517  -15.3699   21.0752 C   0  0  0  0  0  0  0  0  0  0  0  0
    8.8825  -16.2784   22.2205 C   0  0  2  0  0  0  0  0  0  0  0  0
    7.4925  -16.7422   22.1475 N   0  0  0  0  0  0  0  0  0  0  0  0
    9.1729  -15.7154   23.5577 C   0  0  0  0  0  0  0  0  0  0  0  0
   10.3183  -15.3320   23.8683 O   0  0  0  0  0  0  0  0  0  0  0  0
    8.0802  -11.3683   18.9954 C   0  0  0  0  0  0  0  0  0  0  0  0
    5.5253  -12.5083   25.8078 C   0  0  1  0  0  0  0  0  0  0  0  0
    6.8424  -13.0751   25.4282 C   0  0  0  0  0  0  0  0  0  0  0  0
    7.8896  -11.9758   25.4159 C   0  0  0  0  0  0  0  0  0  0  0  0
    7.2800  -14.1632   26.3272 C   0  0  2  0  0  0  0  0  0  0  0  0
    8.4425  -14.9924   25.8795 N   0  0  0  0  0  0  0  0  0  0  0  0
    8.1665  -15.5806   24.5595 C   0  0  0  0  0  0  0  0  0  0  0  0
    8.8772  -16.0627   26.7769 O   0  0  0  0  0  0  0  0  0  0  0  0
    9.1776  -15.8309   28.0023 N   0  0  0  0  0  0  0  0  0  0  0  0
    7.5218  -22.0681   27.2866 C   0  0  0  0  0  0  0  0  0  0  0  0
    6.6337  -20.9980   27.5675 O   0  0  0  0  0  0  0  0  0  0  0  0
    5.4410  -21.2054   27.9024 C   0  0  0  0  0  0  0  0  0  0  0  0
    7.1954  -19.6206   27.4427 C   0  0  0  0  0  0  0  0  0  0  0  0
    8.6577  -19.7575   27.0810 C   0  0  2  0  0  0  0  0  0  0  0  0
    9.4143  -18.4625   27.3431 N   0  0  0  0  0  0  0  0  0  0  0  0
    9.0079  -17.4347   26.4085 C   0  0  0  0  0  0  0  0  0  0  0  0
   10.8697  -18.6846   27.3878 O   0  0  0  0  0  0  0  0  0  0  0  0
   11.6189  -18.2674   26.4414 O   0  0  0  0  0  0  0  0  0  0  0  0
  2  1  1  0
  2  3  2  0
  4  2  1  0
  5  4  1  0
  6  5  1  0
  7  6  1  0
  8 10  1  0
  8  7  1  0
  8  9  1  1
 10 11  2  0
 13 12  1  6
 14 13  1  0
 15 13  1  0
 16 15  1  6
 17 16  1  0
 17 10  1  0
 18 16  1  0
 18 19  2  0
 20 21  1  0
 21 23  1  0
 21 22  2  0
 23 24  1  0
 25 24  1  1
 25 26  1  0
 25 27  1  0
 26 18  1  0
 27 28  2  0
 27 29  1  0
M  END
$$$$
