RLQ.pdb
     RDKit          3D

 29 28  0  0  1  0  0  0  0  0999 V2000
   11.7976  -23.1755   18.9469 N   0  0  0  0  0  0  0  0  0  0  0  0
   11.3905  -23.2204   17.5914 C   0  0  0  0  0  0  0  0  0  0  0  0
   11.1838  -24.3325   16.9682 N   0  0  0  0  0  0  0  0  0  0  0  0
   11.1920  -22.0124   16.8593 N   0  0  0  0  0  0  0  0  0  0  0  0
   11.6252  -20.7279   17.3709 C   0  0  0  0  0  0  0  0  0  0  0  0
   10.6774  -20.3714   18.5304 C   0  0  0  0  0  0  0  0  0  0  0  0
   11.1587  -19.1503   19.2495 C   0  0  0  0  0  0  0  0  0  0  0  0
   10.5573  -17.8979   18.7209 C   0  0  2  0  0  0  0  0  0  0  0  0
   11.2134  -17.5482   17.4561 N   0  0  0  0  0  0  0  0  0  0  0  0
   10.5726  -16.7464   19.6500 C   0  0  0  0  0  0  0  0  0  0  0  0
   11.6346  -16.1657   19.9501 O   0  0  0  0  0  0  0  0  0  0  0  0
   10.8915  -24.3708   15.9737 C   0  0  0  0  0  0  0  0  0  0  0  0
    6.0767  -13.5625   19.9936 C   0  0  1  0  0  0  0  0  0  0  0  0
    7.4882  -14.0076   19.8948 C   0  0  0  0  0  0  0  0  0  0  0  0
    8.3399  -12.8888   19.3218 C   0  0  0  0  0  0  0  0  0  0  0  0
    8.0470  -14.4374   21.1935 C   0  0  2  0  0  0  0  0  0  0  0  0
    9.3913  -15.0945   21.1741 N   0  0  0  0  0  0  0  0  0  0  0  0
    9.3820  -16.2395   20.2503 C   0  0  0  0  0  0  0  0  0  0  0  0
    9.9266  -15.5456   22.4585 O   0  0  0  0  0  0  0  0  0  0  0  0
   10.1544  -14.7238   23.4169 N   0  0  0  0  0  0  0  0  0  0  0  0
   10.6950  -21.3632   24.5206 C   0  0  0  0  0  0  0  0  0  0  0  0
   11.3161  -20.7074   25.6146 O   0  0  0  0  0  0  0  0  0  0  0  0
   11.7855  -21.3515   26.5855 C   0  0  0  0  0  0  0  0  0  0  0  0
   11.3790  -19.2176   25.5452 C   0  0  0  0  0  0  0  0  0  0  0  0
   10.7835  -18.7993   24.2192 C   0  0  2  0  0  0  0  0  0  0  0  0
   10.8264  -17.2870   24.0479 N   0  0  0  0  0  0  0  0  0  0  0  0
   10.2406  -16.8990   22.7824 C   0  0  0  0  0  0  0  0  0  0  0  0
   12.1828  -16.7552   24.2640 O   0  0  0  0  0  0  0  0  0  0  0  0
   12.5789  -16.4461   25.4381 O   0  0  0  0  0  0  0  0  0  0  0  0
  2  1  1  0
  2  3  2  0
  4  2  1  0
  5  4  1  0
  6  5  1  0
  7  6  1  0
  8 10  1  0
  8  7  1  0
  8  9  1  6
 10 11  2  0
 13 12  1  6
 14 13  1  0
 15 13  1  0
 16 15  1  6
 17 16  1  0
 17 10  1  0
 18 16  1  0
 18 19  2  0
 20 21  1  0
 21 23  1  0
 21 22  2  0
 23 24  1  0
 25 24  1  1
 25 26  1  0
 25 27  1  0
 26 18  1  0
 27 28  2  0
 27 29  1  0
M  END
$$$$
