RLQ.pdb
     RDKit          3D

 29 28  0  0  1  0  0  0  0  0999 V2000
    8.6432  -14.2244   17.0610 N   0  0  0  0  0  0  0  0  0  0  0  0
    8.5154  -13.2596   18.0895 C   0  0  0  0  0  0  0  0  0  0  0  0
    8.4541  -11.9929   17.8453 N   0  0  0  0  0  0  0  0  0  0  0  0
    8.4487  -13.6676   19.4547 N   0  0  0  0  0  0  0  0  0  0  0  0
    7.5329  -14.6978   19.9012 C   0  0  0  0  0  0  0  0  0  0  0  0
    8.2149  -16.0486   19.6179 C   0  0  0  0  0  0  0  0  0  0  0  0
    9.4481  -16.2027   20.4517 C   0  0  0  0  0  0  0  0  0  0  0  0
    9.1721  -16.8145   21.7780 C   0  0  2  0  0  0  0  0  0  0  0  0
    7.8008  -17.3361   21.7888 N   0  0  0  0  0  0  0  0  0  0  0  0
    9.4015  -15.9317   22.9431 C   0  0  0  0  0  0  0  0  0  0  0  0
   10.5010  -15.3740   23.1312 O   0  0  0  0  0  0  0  0  0  0  0  0
    8.3719  -11.2816   18.5958 C   0  0  0  0  0  0  0  0  0  0  0  0
    8.1405  -11.7899   26.1738 C   0  0  2  0  0  0  0  0  0  0  0  0
    7.3046  -12.9977   26.3804 C   0  0  0  0  0  0  0  0  0  0  0  0
    5.8722  -12.5865   26.6715 C   0  0  0  0  0  0  0  0  0  0  0  0
    7.3285  -13.9174   25.2240 C   0  0  1  0  0  0  0  0  0  0  0  0
    8.5750  -14.7184   25.0148 N   0  0  0  0  0  0  0  0  0  0  0  0
    8.3854  -15.6709   23.9097 C   0  0  0  0  0  0  0  0  0  0  0  0
    9.0922  -15.4525   26.1696 O   0  0  0  0  0  0  0  0  0  0  0  0
    9.8323  -14.8842   27.0499 N   0  0  0  0  0  0  0  0  0  0  0  0
    9.5348  -21.4794   25.4199 C   0  0  0  0  0  0  0  0  0  0  0  0
   10.5564  -21.3830   26.3995 O   0  0  0  0  0  0  0  0  0  0  0  0
   11.2671  -22.3721   26.7064 C   0  0  0  0  0  0  0  0  0  0  0  0
   10.7363  -20.0467   27.0400 C   0  0  0  0  0  0  0  0  0  0  0  0
    9.7313  -19.1046   26.4152 C   0  0  2  0  0  0  0  0  0  0  0  0
    9.8327  -17.7104   27.0188 N   0  0  0  0  0  0  0  0  0  0  0  0
    8.8394  -16.8299   26.4416 C   0  0  0  0  0  0  0  0  0  0  0  0
   11.2074  -17.1866   26.9452 O   0  0  0  0  0  0  0  0  0  0  0  0
   11.6850  -16.7722   25.8357 O   0  0  0  0  0  0  0  0  0  0  0  0
  2  1  1  0
  2  3  2  0
  4  2  1  0
  5  4  1  0
  6  5  1  0
  7  6  1  0
  8 10  1  0
  8  7  1  0
  8  9  1  6
 10 11  2  0
 13 12  1  1
 14 13  1  0
 15 13  1  0
 16 15  1  6
 17 16  1  0
 17 10  1  0
 18 16  1  0
 18 19  2  0
 20 21  1  0
 21 23  1  0
 21 22  2  0
 23 24  1  0
 25 24  1  1
 25 26  1  0
 25 27  1  0
 26 18  1  0
 27 28  2  0
 27 29  1  0
M  END
$$$$
