RLQ.pdb
     RDKit          3D

 29 28  0  0  1  0  0  0  0  0999 V2000
    9.6098  -14.3714   17.7713 N   0  0  0  0  0  0  0  0  0  0  0  0
    8.4601  -13.7341   17.2447 C   0  0  0  0  0  0  0  0  0  0  0  0
    8.2636  -13.6016   15.9751 N   0  0  0  0  0  0  0  0  0  0  0  0
    7.4638  -13.2092   18.1202 N   0  0  0  0  0  0  0  0  0  0  0  0
    7.6210  -13.2341   19.5603 C   0  0  0  0  0  0  0  0  0  0  0  0
    7.7402  -14.7142   19.9666 C   0  0  0  0  0  0  0  0  0  0  0  0
    8.7986  -14.8920   21.0095 C   0  0  0  0  0  0  0  0  0  0  0  0
    8.3428  -15.7228   22.1548 C   0  0  2  0  0  0  0  0  0  0  0  0
    6.8824  -15.8528   22.1010 N   0  0  0  0  0  0  0  0  0  0  0  0
    8.7738  -15.2526   23.4899 C   0  0  0  0  0  0  0  0  0  0  0  0
    9.9742  -15.0325   23.7467 O   0  0  0  0  0  0  0  0  0  0  0  0
    7.4517  -13.0871   15.5852 C   0  0  0  0  0  0  0  0  0  0  0  0
    5.6412  -11.8512   26.2203 C   0  0  1  0  0  0  0  0  0  0  0  0
    6.8350  -12.5386   25.6705 C   0  0  0  0  0  0  0  0  0  0  0  0
    7.9792  -11.5497   25.5348 C   0  0  0  0  0  0  0  0  0  0  0  0
    7.2689  -13.6847   26.4962 C   0  0  2  0  0  0  0  0  0  0  0  0
    8.2759  -14.6153   25.8968 N   0  0  0  0  0  0  0  0  0  0  0  0
    7.8474  -15.0261   24.5506 C   0  0  0  0  0  0  0  0  0  0  0  0
    8.6032  -15.8186   26.6613 O   0  0  0  0  0  0  0  0  0  0  0  0
    9.1602  -15.7503   27.8149 N   0  0  0  0  0  0  0  0  0  0  0  0
    6.9357  -21.8959   26.3655 C   0  0  0  0  0  0  0  0  0  0  0  0
    6.7277  -21.4274   27.6883 O   0  0  0  0  0  0  0  0  0  0  0  0
    6.1857  -22.1483   28.5625 C   0  0  0  0  0  0  0  0  0  0  0  0
    7.1873  -20.0372   27.9789 C   0  0  0  0  0  0  0  0  0  0  0  0
    7.8011  -19.4874   26.7105 C   0  0  2  0  0  0  0  0  0  0  0  0
    8.7259  -18.3151   27.0083 N   0  0  0  0  0  0  0  0  0  0  0  0
    8.3467  -17.1544   26.2311 C   0  0  0  0  0  0  0  0  0  0  0  0
   10.1425  -18.6918   26.8633 O   0  0  0  0  0  0  0  0  0  0  0  0
   10.7906  -18.3838   25.8069 O   0  0  0  0  0  0  0  0  0  0  0  0
  2  1  1  0
  2  3  2  0
  4  2  1  0
  5  4  1  0
  6  5  1  0
  7  6  1  0
  8 10  1  0
  8  7  1  0
  8  9  1  1
 10 11  2  0
 13 12  1  6
 14 13  1  0
 15 13  1  0
 16 15  1  6
 17 16  1  0
 17 10  1  0
 18 16  1  0
 18 19  2  0
 20 21  1  0
 21 23  1  0
 21 22  2  0
 23 24  1  0
 25 24  1  1
 25 26  1  0
 25 27  1  0
 26 18  1  0
 27 28  2  0
 27 29  1  0
M  END
$$$$
