RLQ.pdb
     RDKit          3D

 29 28  0  0  1  0  0  0  0  0999 V2000
    8.0252  -12.2851   16.6391 N   0  0  0  0  0  0  0  0  0  0  0  0
    8.2562  -13.6399   16.2981 C   0  0  0  0  0  0  0  0  0  0  0  0
    8.3130  -14.0443   15.0729 N   0  0  0  0  0  0  0  0  0  0  0  0
    8.4374  -14.6184   17.3200 N   0  0  0  0  0  0  0  0  0  0  0  0
    7.3832  -14.9501   18.2570 C   0  0  0  0  0  0  0  0  0  0  0  0
    7.8473  -14.4541   19.6385 C   0  0  0  0  0  0  0  0  0  0  0  0
    9.1278  -15.1193   20.0356 C   0  0  0  0  0  0  0  0  0  0  0  0
    8.9422  -16.1253   21.1141 C   0  0  2  0  0  0  0  0  0  0  0  0
    7.5882  -16.6825   21.0214 N   0  0  0  0  0  0  0  0  0  0  0  0
    9.2121  -15.6407   22.4858 C   0  0  0  0  0  0  0  0  0  0  0  0
   10.3763  -15.4711   22.8995 O   0  0  0  0  0  0  0  0  0  0  0  0
    8.4998  -15.0323   14.8177 C   0  0  0  0  0  0  0  0  0  0  0  0
    8.3275  -12.2073   26.5206 C   0  0  2  0  0  0  0  0  0  0  0  0
    7.4032  -13.3668   26.5590 C   0  0  0  0  0  0  0  0  0  0  0  0
    6.0379  -12.9185   27.0491 C   0  0  0  0  0  0  0  0  0  0  0  0
    7.2623  -14.0326   25.2473 C   0  0  1  0  0  0  0  0  0  0  0  0
    8.4254  -14.8404   24.7635 N   0  0  0  0  0  0  0  0  0  0  0  0
    8.1634  -15.3424   23.4056 C   0  0  0  0  0  0  0  0  0  0  0  0
    8.8412  -15.9680   25.5973 O   0  0  0  0  0  0  0  0  0  0  0  0
    8.3529  -17.1424   25.4305 N   0  0  0  0  0  0  0  0  0  0  0  0
   13.8036  -19.2892   25.4023 C   0  0  0  0  0  0  0  0  0  0  0  0
   12.4512  -19.4733   25.0151 O   0  0  0  0  0  0  0  0  0  0  0  0
   12.1487  -19.9500   23.8931 C   0  0  0  0  0  0  0  0  0  0  0  0
   11.4158  -19.0703   26.0120 C   0  0  0  0  0  0  0  0  0  0  0  0
   11.5216  -17.5728   26.1966 C   0  0  2  0  0  0  0  0  0  0  0  0
   10.4754  -17.0627   27.1782 N   0  0  0  0  0  0  0  0  0  0  0  0
    9.8032  -15.8954   26.6482 C   0  0  0  0  0  0  0  0  0  0  0  0
   11.0446  -16.8630   28.5219 O   0  0  0  0  0  0  0  0  0  0  0  0
   11.5136  -15.7258   28.8652 O   0  0  0  0  0  0  0  0  0  0  0  0
  2  1  1  0
  2  3  2  0
  4  2  1  0
  5  4  1  0
  6  5  1  0
  7  6  1  0
  8 10  1  0
  8  7  1  0
  8  9  1  1
 10 11  2  0
 13 12  1  1
 14 13  1  0
 15 13  1  0
 16 15  1  6
 17 16  1  0
 17 10  1  0
 18 16  1  0
 18 19  2  0
 20 21  1  0
 21 23  1  0
 21 22  2  0
 23 24  1  0
 25 24  1  6
 25 26  1  0
 25 27  1  0
 26 18  1  0
 27 28  2  0
 27 29  1  0
M  END
$$$$
