RLQ.pdb
     RDKit          3D

 29 28  0  0  1  0  0  0  0  0999 V2000
    8.7082  -12.0992   17.5428 N   0  0  0  0  0  0  0  0  0  0  0  0
    8.2745  -13.3619   17.0708 C   0  0  0  0  0  0  0  0  0  0  0  0
    8.8125  -13.9399   16.0488 N   0  0  0  0  0  0  0  0  0  0  0  0
    7.2081  -14.0471   17.7249 N   0  0  0  0  0  0  0  0  0  0  0  0
    7.1354  -14.1482   19.1685 C   0  0  0  0  0  0  0  0  0  0  0  0
    8.1221  -15.2541   19.5846 C   0  0  0  0  0  0  0  0  0  0  0  0
    8.8089  -14.8947   20.8648 C   0  0  0  0  0  0  0  0  0  0  0  0
    8.6800  -15.9515   21.9022 C   0  0  2  0  0  0  0  0  0  0  0  0
    7.3047  -16.4621   21.8974 N   0  0  0  0  0  0  0  0  0  0  0  0
    9.0805  -15.5499   23.2689 C   0  0  0  0  0  0  0  0  0  0  0  0
   10.2367  -15.1551   23.5193 O   0  0  0  0  0  0  0  0  0  0  0  0
    8.4601  -14.8358   15.6628 C   0  0  0  0  0  0  0  0  0  0  0  0
    5.9635  -12.4748   26.2526 C   0  0  1  0  0  0  0  0  0  0  0  0
    7.1761  -13.1178   25.6903 C   0  0  0  0  0  0  0  0  0  0  0  0
    8.3481  -12.1553   25.7641 C   0  0  0  0  0  0  0  0  0  0  0  0
    7.5288  -14.3780   26.3767 C   0  0  2  0  0  0  0  0  0  0  0  0
    8.5773  -15.2331   25.7374 N   0  0  0  0  0  0  0  0  0  0  0  0
    8.1733  -15.5915   24.3689 C   0  0  0  0  0  0  0  0  0  0  0  0
    8.9515  -16.4596   26.4413 O   0  0  0  0  0  0  0  0  0  0  0  0
    8.0668  -17.2756   26.8852 N   0  0  0  0  0  0  0  0  0  0  0  0
   13.6626  -20.1588   25.6559 C   0  0  0  0  0  0  0  0  0  0  0  0
   12.7888  -19.5574   24.7138 O   0  0  0  0  0  0  0  0  0  0  0  0
   12.9827  -19.6640   23.4774 C   0  0  0  0  0  0  0  0  0  0  0  0
   11.6335  -18.7957   25.2737 C   0  0  0  0  0  0  0  0  0  0  0  0
   11.7538  -18.8312   26.7810 C   0  0  2  0  0  0  0  0  0  0  0  0
   10.6093  -18.0767   27.4437 N   0  0  0  0  0  0  0  0  0  0  0  0
   10.2911  -16.8755   26.7013 C   0  0  0  0  0  0  0  0  0  0  0  0
   10.8716  -17.8408   28.8737 O   0  0  0  0  0  0  0  0  0  0  0  0
   10.9739  -16.6511   29.3268 O   0  0  0  0  0  0  0  0  0  0  0  0
  2  1  1  0
  2  3  2  0
  4  2  1  0
  5  4  1  0
  6  5  1  0
  7  6  1  0
  8 10  1  0
  8  7  1  0
  8  9  1  1
 10 11  2  0
 13 12  1  6
 14 13  1  0
 15 13  1  0
 16 15  1  6
 17 16  1  0
 17 10  1  0
 18 16  1  0
 18 19  2  0
 20 21  1  0
 21 23  1  0
 21 22  2  0
 23 24  1  0
 25 24  1  6
 25 26  1  0
 25 27  1  0
 26 18  1  0
 27 28  2  0
 27 29  1  0
M  END
$$$$
