RLQ.pdb
     RDKit          3D

 29 28  0  0  1  0  0  0  0  0999 V2000
    9.5743  -13.5757   18.7279 N   0  0  0  0  0  0  0  0  0  0  0  0
    8.5563  -12.6575   19.0826 C   0  0  0  0  0  0  0  0  0  0  0  0
    8.7566  -11.3820   19.1148 N   0  0  0  0  0  0  0  0  0  0  0  0
    7.2520  -13.1246   19.4216 N   0  0  0  0  0  0  0  0  0  0  0  0
    6.9222  -14.5355   19.4268 C   0  0  0  0  0  0  0  0  0  0  0  0
    7.2216  -15.0543   20.8450 C   0  0  0  0  0  0  0  0  0  0  0  0
    8.3890  -15.9907   20.8292 C   0  0  0  0  0  0  0  0  0  0  0  0
    8.5516  -16.7277   22.1098 C   0  0  2  0  0  0  0  0  0  0  0  0
    7.2914  -17.4042   22.4365 N   0  0  0  0  0  0  0  0  0  0  0  0
    9.0164  -15.9137   23.2547 C   0  0  0  0  0  0  0  0  0  0  0  0
   10.1279  -15.3482   23.2432 O   0  0  0  0  0  0  0  0  0  0  0  0
    8.0356  -10.7103   19.4390 C   0  0  0  0  0  0  0  0  0  0  0  0
    5.4583  -12.8910   26.2608 C   0  0  1  0  0  0  0  0  0  0  0  0
    6.6465  -13.3488   25.5001 C   0  0  0  0  0  0  0  0  0  0  0  0
    7.4927  -12.1527   25.1017 C   0  0  0  0  0  0  0  0  0  0  0  0
    7.4763  -14.3106   26.2551 C   0  0  2  0  0  0  0  0  0  0  0  0
    8.6635  -14.8880   25.5505 N   0  0  0  0  0  0  0  0  0  0  0  0
    8.2251  -15.7313   24.4274 C   0  0  0  0  0  0  0  0  0  0  0  0
    9.6054  -15.6584   26.3623 O   0  0  0  0  0  0  0  0  0  0  0  0
    9.9643  -15.2647   27.5293 N   0  0  0  0  0  0  0  0  0  0  0  0
   10.6935  -20.0696   29.6611 C   0  0  0  0  0  0  0  0  0  0  0  0
    9.5233  -20.1062   28.8599 O   0  0  0  0  0  0  0  0  0  0  0  0
    8.6921  -21.0431   28.9545 C   0  0  0  0  0  0  0  0  0  0  0  0
    9.3386  -18.9743   27.9045 C   0  0  0  0  0  0  0  0  0  0  0  0
   10.4768  -18.0031   28.1256 C   0  0  1  0  0  0  0  0  0  0  0  0
   11.1349  -17.6153   26.8085 N   0  0  0  0  0  0  0  0  0  0  0  0
   10.2067  -16.8902   25.9671 C   0  0  0  0  0  0  0  0  0  0  0  0
   11.7532  -18.7779   26.1485 O   0  0  0  0  0  0  0  0  0  0  0  0
   11.3453  -19.1658   25.0021 O   0  0  0  0  0  0  0  0  0  0  0  0
  2  1  1  0
  2  3  2  0
  4  2  1  0
  5  4  1  0
  6  5  1  0
  7  6  1  0
  8 10  1  0
  8  7  1  0
  8  9  1  1
 10 11  2  0
 13 12  1  6
 14 13  1  0
 15 13  1  0
 16 15  1  6
 17 16  1  0
 17 10  1  0
 18 16  1  0
 18 19  2  0
 20 21  1  0
 21 23  1  0
 21 22  2  0
 23 24  1  0
 25 24  1  1
 25 26  1  0
 25 27  1  0
 26 18  1  0
 27 28  2  0
 27 29  1  0
M  END
$$$$
