RLQ.pdb
     RDKit          3D

 29 28  0  0  1  0  0  0  0  0999 V2000
    9.7436  -14.0635   16.3476 N   0  0  0  0  0  0  0  0  0  0  0  0
    8.3456  -14.0293   16.5703 C   0  0  0  0  0  0  0  0  0  0  0  0
    7.5040  -14.5930   15.7691 N   0  0  0  0  0  0  0  0  0  0  0  0
    7.8149  -13.3574   17.7111 N   0  0  0  0  0  0  0  0  0  0  0  0
    8.6724  -12.7763   18.7242 C   0  0  0  0  0  0  0  0  0  0  0  0
    9.2682  -13.9486   19.5246 C   0  0  0  0  0  0  0  0  0  0  0  0
    8.9705  -13.7974   20.9834 C   0  0  0  0  0  0  0  0  0  0  0  0
    8.9096  -15.1009   21.6954 C   0  0  2  0  0  0  0  0  0  0  0  0
    7.6455  -15.7683   21.3652 N   0  0  0  0  0  0  0  0  0  0  0  0
    9.0927  -15.0309   23.1620 C   0  0  0  0  0  0  0  0  0  0  0  0
   10.2244  -14.9108   23.6721 O   0  0  0  0  0  0  0  0  0  0  0  0
    6.5031  -14.7219   16.0090 C   0  0  0  0  0  0  0  0  0  0  0  0
    5.6043  -12.2075   26.2279 C   0  0  1  0  0  0  0  0  0  0  0  0
    6.8383  -12.8253   25.6841 C   0  0  0  0  0  0  0  0  0  0  0  0
    8.0474  -12.0043   26.0958 C   0  0  0  0  0  0  0  0  0  0  0  0
    7.0204  -14.2251   26.1211 C   0  0  2  0  0  0  0  0  0  0  0  0
    8.1649  -14.9828   25.5251 N   0  0  0  0  0  0  0  0  0  0  0  0
    7.9932  -15.0964   24.0683 C   0  0  0  0  0  0  0  0  0  0  0  0
    8.4264  -16.3182   26.0618 O   0  0  0  0  0  0  0  0  0  0  0  0
    7.6099  -17.2895   25.8728 N   0  0  0  0  0  0  0  0  0  0  0  0
   11.0498  -21.2478   25.6092 C   0  0  0  0  0  0  0  0  0  0  0  0
   11.7494  -20.1490   25.0473 O   0  0  0  0  0  0  0  0  0  0  0  0
   12.7998  -20.3124   24.3782 C   0  0  0  0  0  0  0  0  0  0  0  0
   11.1685  -18.7966   25.2957 C   0  0  0  0  0  0  0  0  0  0  0  0
    9.8917  -18.9885   26.0835 C   0  0  1  0  0  0  0  0  0  0  0  0
    9.8266  -18.0355   27.2693 N   0  0  0  0  0  0  0  0  0  0  0  0
    9.5765  -16.6813   26.8237 C   0  0  0  0  0  0  0  0  0  0  0  0
   11.0097  -18.1679   28.1366 O   0  0  0  0  0  0  0  0  0  0  0  0
   11.2076  -19.2382   28.8048 O   0  0  0  0  0  0  0  0  0  0  0  0
  2  1  1  0
  2  3  2  0
  4  2  1  0
  5  4  1  0
  6  5  1  0
  7  6  1  0
  8 10  1  0
  8  7  1  0
  8  9  1  1
 10 11  2  0
 13 12  1  6
 14 13  1  0
 15 13  1  0
 16 15  1  6
 17 16  1  0
 17 10  1  0
 18 16  1  0
 18 19  2  0
 20 21  1  0
 21 23  1  0
 21 22  2  0
 23 24  1  0
 25 24  1  1
 25 26  1  0
 25 27  1  0
 26 18  1  0
 27 28  2  0
 27 29  1  0
M  END
$$$$
