RLQ.pdb
     RDKit          3D

 29 28  0  0  1  0  0  0  0  0999 V2000
    7.8240  -13.8314   17.1667 N   0  0  0  0  0  0  0  0  0  0  0  0
    8.8796  -13.2342   17.8976 C   0  0  0  0  0  0  0  0  0  0  0  0
    8.9727  -11.9561   18.0579 N   0  0  0  0  0  0  0  0  0  0  0  0
    9.8922  -14.0445   18.4914 N   0  0  0  0  0  0  0  0  0  0  0  0
    9.9137  -15.4840   18.3279 C   0  0  0  0  0  0  0  0  0  0  0  0
    8.9017  -16.0586   19.3356 C   0  0  0  0  0  0  0  0  0  0  0  0
    9.1402  -15.4969   20.7021 C   0  0  0  0  0  0  0  0  0  0  0  0
    8.7108  -16.4197   21.7856 C   0  0  2  0  0  0  0  0  0  0  0  0
    7.2623  -16.6312   21.6884 N   0  0  0  0  0  0  0  0  0  0  0  0
    9.0847  -16.0054   23.1559 C   0  0  0  0  0  0  0  0  0  0  0  0
   10.2775  -15.9425   23.5147 O   0  0  0  0  0  0  0  0  0  0  0  0
    9.7621  -11.5115   18.5632 C   0  0  0  0  0  0  0  0  0  0  0  0
    5.7338  -12.6628   25.9942 C   0  0  1  0  0  0  0  0  0  0  0  0
    6.9950  -13.2391   25.4677 C   0  0  0  0  0  0  0  0  0  0  0  0
    8.1176  -12.2257   25.6026 C   0  0  0  0  0  0  0  0  0  0  0  0
    7.3798  -14.4946   26.1455 C   0  0  2  0  0  0  0  0  0  0  0  0
    8.4718  -15.3022   25.5175 N   0  0  0  0  0  0  0  0  0  0  0  0
    8.1092  -15.6573   24.1366 C   0  0  0  0  0  0  0  0  0  0  0  0
    8.8769  -16.5232   26.2139 O   0  0  0  0  0  0  0  0  0  0  0  0
    8.5655  -17.6851   25.7683 N   0  0  0  0  0  0  0  0  0  0  0  0
   12.5340  -18.0353   24.2656 C   0  0  0  0  0  0  0  0  0  0  0  0
   11.9318  -19.2595   24.6547 O   0  0  0  0  0  0  0  0  0  0  0  0
   12.0564  -20.3011   23.9639 C   0  0  0  0  0  0  0  0  0  0  0  0
   11.1469  -19.2378   25.9242 C   0  0  0  0  0  0  0  0  0  0  0  0
   11.4915  -17.9559   26.6494 C   0  0  2  0  0  0  0  0  0  0  0  0
   10.4993  -17.6715   27.7687 N   0  0  0  0  0  0  0  0  0  0  0  0
    9.6389  -16.5611   27.4194 C   0  0  0  0  0  0  0  0  0  0  0  0
   11.1771  -17.5139   29.0668 O   0  0  0  0  0  0  0  0  0  0  0  0
   11.8683  -18.4690   29.5578 O   0  0  0  0  0  0  0  0  0  0  0  0
  2  1  1  0
  2  3  2  0
  4  2  1  0
  5  4  1  0
  6  5  1  0
  7  6  1  0
  8 10  1  0
  8  7  1  0
  8  9  1  1
 10 11  2  0
 13 12  1  6
 14 13  1  0
 15 13  1  0
 16 15  1  6
 17 16  1  0
 17 10  1  0
 18 16  1  0
 18 19  2  0
 20 21  1  0
 21 23  1  0
 21 22  2  0
 23 24  1  0
 25 24  1  6
 25 26  1  0
 25 27  1  0
 26 18  1  0
 27 28  2  0
 27 29  1  0
M  END
$$$$
