RLQ.pdb
     RDKit          3D

 29 28  0  0  1  0  0  0  0  0999 V2000
    8.7612  -12.7278   15.3454 N   0  0  0  0  0  0  0  0  0  0  0  0
    8.5043  -14.0956   15.0843 C   0  0  0  0  0  0  0  0  0  0  0  0
    8.8740  -14.6715   13.9890 N   0  0  0  0  0  0  0  0  0  0  0  0
    7.8153  -14.8944   16.0444 N   0  0  0  0  0  0  0  0  0  0  0  0
    7.5348  -14.4115   17.3813 C   0  0  0  0  0  0  0  0  0  0  0  0
    8.8902  -14.2905   18.1012 C   0  0  0  0  0  0  0  0  0  0  0  0
    8.7003  -13.8182   19.5085 C   0  0  0  0  0  0  0  0  0  0  0  0
    8.4305  -14.9310   20.4565 C   0  0  2  0  0  0  0  0  0  0  0  0
    7.0346  -15.3579   20.3089 N   0  0  0  0  0  0  0  0  0  0  0  0
    8.7389  -14.6439   21.8748 C   0  0  0  0  0  0  0  0  0  0  0  0
    9.8968  -14.3673   22.2465 O   0  0  0  0  0  0  0  0  0  0  0  0
    8.7794  -15.6929   13.8343 C   0  0  0  0  0  0  0  0  0  0  0  0
    8.1994  -12.0388   26.4235 C   0  0  2  0  0  0  0  0  0  0  0  0
    7.0723  -12.9836   26.2301 C   0  0  0  0  0  0  0  0  0  0  0  0
    5.7758  -12.3342   26.6803 C   0  0  0  0  0  0  0  0  0  0  0  0
    6.9368  -13.4371   24.8303 C   0  0  1  0  0  0  0  0  0  0  0  0
    8.0229  -14.3123   24.2883 N   0  0  0  0  0  0  0  0  0  0  0  0
    7.7366  -14.6672   22.8895 C   0  0  0  0  0  0  0  0  0  0  0  0
    8.3110  -15.5431   25.0243 O   0  0  0  0  0  0  0  0  0  0  0  0
    7.4486  -16.4884   25.1155 N   0  0  0  0  0  0  0  0  0  0  0  0
   13.4712  -18.5158   25.0457 C   0  0  0  0  0  0  0  0  0  0  0  0
   12.4762  -18.6011   24.0381 O   0  0  0  0  0  0  0  0  0  0  0  0
   12.7443  -19.0195   22.8845 C   0  0  0  0  0  0  0  0  0  0  0  0
   11.1014  -18.1677   24.4259 C   0  0  0  0  0  0  0  0  0  0  0  0
   11.1756  -17.6327   25.8388 C   0  0  2  0  0  0  0  0  0  0  0  0
    9.8233  -17.1081   26.3017 N   0  0  0  0  0  0  0  0  0  0  0  0
    9.5378  -15.8251   25.6955 C   0  0  0  0  0  0  0  0  0  0  0  0
    9.7152  -17.1097   27.7706 O   0  0  0  0  0  0  0  0  0  0  0  0
    9.6661  -16.0103   28.4186 O   0  0  0  0  0  0  0  0  0  0  0  0
  2  1  1  0
  2  3  2  0
  4  2  1  0
  5  4  1  0
  6  5  1  0
  7  6  1  0
  8 10  1  0
  8  7  1  0
  8  9  1  1
 10 11  2  0
 13 12  1  1
 14 13  1  0
 15 13  1  0
 16 15  1  6
 17 16  1  0
 17 10  1  0
 18 16  1  0
 18 19  2  0
 20 21  1  0
 21 23  1  0
 21 22  2  0
 23 24  1  0
 25 24  1  6
 25 26  1  0
 25 27  1  0
 26 18  1  0
 27 28  2  0
 27 29  1  0
M  END
$$$$
