RLQ.pdb
     RDKit          3D

 29 28  0  0  1  0  0  0  0  0999 V2000
    7.0571  -13.2353   17.5912 N   0  0  0  0  0  0  0  0  0  0  0  0
    8.2968  -13.6643   17.0579 C   0  0  0  0  0  0  0  0  0  0  0  0
    8.6632  -13.3867   15.8510 N   0  0  0  0  0  0  0  0  0  0  0  0
    9.1965  -14.4316   17.8557 N   0  0  0  0  0  0  0  0  0  0  0  0
    8.7580  -15.5966   18.5972 C   0  0  0  0  0  0  0  0  0  0  0  0
    8.0707  -15.0761   19.8726 C   0  0  0  0  0  0  0  0  0  0  0  0
    9.0766  -14.8365   20.9544 C   0  0  0  0  0  0  0  0  0  0  0  0
    8.9762  -15.8238   22.0611 C   0  0  2  0  0  0  0  0  0  0  0  0
    7.6795  -16.5051   21.9790 N   0  0  0  0  0  0  0  0  0  0  0  0
    9.1910  -15.2772   23.4192 C   0  0  0  0  0  0  0  0  0  0  0  0
   10.2206  -14.6352   23.7077 O   0  0  0  0  0  0  0  0  0  0  0  0
    9.5544  -13.7279   15.4443 C   0  0  0  0  0  0  0  0  0  0  0  0
    5.4740  -12.7167   26.3179 C   0  0  1  0  0  0  0  0  0  0  0  0
    6.7941  -13.1511   25.7996 C   0  0  0  0  0  0  0  0  0  0  0  0
    7.8139  -12.0445   26.0015 C   0  0  0  0  0  0  0  0  0  0  0  0
    7.2808  -14.3927   26.4363 C   0  0  2  0  0  0  0  0  0  0  0  0
    8.5034  -15.0262   25.8505 N   0  0  0  0  0  0  0  0  0  0  0  0
    8.2395  -15.4525   24.4674 C   0  0  0  0  0  0  0  0  0  0  0  0
    9.0760  -16.1585   26.5784 O   0  0  0  0  0  0  0  0  0  0  0  0
    8.9360  -16.2808   27.8476 N   0  0  0  0  0  0  0  0  0  0  0  0
   11.5339  -21.3907   24.3046 C   0  0  0  0  0  0  0  0  0  0  0  0
   10.2255  -20.9206   24.0221 O   0  0  0  0  0  0  0  0  0  0  0  0
    9.5356  -21.4159   23.0967 C   0  0  0  0  0  0  0  0  0  0  0  0
    9.7199  -19.8107   24.8828 C   0  0  0  0  0  0  0  0  0  0  0  0
   10.8273  -19.4413   25.8446 C   0  0  2  0  0  0  0  0  0  0  0  0
   10.4082  -18.2945   26.7542 N   0  0  0  0  0  0  0  0  0  0  0  0
    9.8233  -17.2180   25.9833 C   0  0  0  0  0  0  0  0  0  0  0  0
   11.5116  -17.8672   27.6313 O   0  0  0  0  0  0  0  0  0  0  0  0
   12.1063  -16.7549   27.4305 O   0  0  0  0  0  0  0  0  0  0  0  0
  2  1  1  0
  2  3  2  0
  4  2  1  0
  5  4  1  0
  6  5  1  0
  7  6  1  0
  8 10  1  0
  8  7  1  0
  8  9  1  1
 10 11  2  0
 13 12  1  6
 14 13  1  0
 15 13  1  0
 16 15  1  6
 17 16  1  0
 17 10  1  0
 18 16  1  0
 18 19  2  0
 20 21  1  0
 21 23  1  0
 21 22  2  0
 23 24  1  0
 25 24  1  1
 25 26  1  0
 25 27  1  0
 26 18  1  0
 27 28  2  0
 27 29  1  0
M  END
$$$$
