RLQ.pdb
     RDKit          3D

 29 28  0  0  1  0  0  0  0  0999 V2000
   13.1130  -19.5037   13.7253 N   0  0  0  0  0  0  0  0  0  0  0  0
   12.0607  -20.1347   14.4322 C   0  0  0  0  0  0  0  0  0  0  0  0
   12.2594  -21.1475   15.2086 N   0  0  0  0  0  0  0  0  0  0  0  0
   10.7218  -19.6594   14.3051 N   0  0  0  0  0  0  0  0  0  0  0  0
   10.2802  -18.4368   14.9451 C   0  0  0  0  0  0  0  0  0  0  0  0
   11.1128  -18.2853   16.2311 C   0  0  0  0  0  0  0  0  0  0  0  0
   10.6517  -17.1016   17.0223 C   0  0  0  0  0  0  0  0  0  0  0  0
   10.2903  -17.4512   18.4212 C   0  0  2  0  0  0  0  0  0  0  0  0
    8.9205  -17.9761   18.4451 N   0  0  0  0  0  0  0  0  0  0  0  0
   10.4456  -16.3592   19.4075 C   0  0  0  0  0  0  0  0  0  0  0  0
   11.5578  -15.8453   19.6405 O   0  0  0  0  0  0  0  0  0  0  0  0
   11.4884  -21.6300   15.7073 C   0  0  0  0  0  0  0  0  0  0  0  0
    6.2268  -13.0498   20.3609 C   0  0  1  0  0  0  0  0  0  0  0  0
    7.5990  -13.5629   20.1286 C   0  0  0  0  0  0  0  0  0  0  0  0
    8.4503  -12.4800   19.4900 C   0  0  0  0  0  0  0  0  0  0  0  0
    8.2517  -14.0378   21.3663 C   0  0  2  0  0  0  0  0  0  0  0  0
    9.5051  -14.8406   21.2121 N   0  0  0  0  0  0  0  0  0  0  0  0
    9.3401  -15.8367   20.1420 C   0  0  0  0  0  0  0  0  0  0  0  0
   10.0034  -15.5262   22.4043 O   0  0  0  0  0  0  0  0  0  0  0  0
   10.4787  -14.8765   23.4031 N   0  0  0  0  0  0  0  0  0  0  0  0
   10.0788  -21.6176   24.0816 C   0  0  0  0  0  0  0  0  0  0  0  0
   11.4471  -21.2430   24.0637 O   0  0  0  0  0  0  0  0  0  0  0  0
   12.3615  -22.0889   24.2249 C   0  0  0  0  0  0  0  0  0  0  0  0
   11.7348  -19.7949   23.8435 C   0  0  0  0  0  0  0  0  0  0  0  0
   10.4073  -19.0865   23.6893 C   0  0  1  0  0  0  0  0  0  0  0  0
   10.5770  -17.5751   23.7613 N   0  0  0  0  0  0  0  0  0  0  0  0
   10.0138  -16.9409   22.5883 C   0  0  0  0  0  0  0  0  0  0  0  0
   11.9759  -17.1988   24.0277 O   0  0  0  0  0  0  0  0  0  0  0  0
   12.4372  -17.2178   25.2185 O   0  0  0  0  0  0  0  0  0  0  0  0
  2  1  1  0
  2  3  2  0
  4  2  1  0
  5  4  1  0
  6  5  1  0
  7  6  1  0
  8 10  1  0
  8  7  1  0
  8  9  1  6
 10 11  2  0
 13 12  1  6
 14 13  1  0
 15 13  1  0
 16 15  1  6
 17 16  1  0
 17 10  1  0
 18 16  1  0
 18 19  2  0
 20 21  1  0
 21 23  1  0
 21 22  2  0
 23 24  1  0
 25 24  1  1
 25 26  1  0
 25 27  1  0
 26 18  1  0
 27 28  2  0
 27 29  1  0
M  END
$$$$
