YED.pdb
     RDKit          3D

 30 30  0  0  1  0  0  0  0  0999 V2000
   21.7348  -27.3012   -2.0112 O   0  0  0  0  0  0  0  0  0  0  0  0
   22.6679  -28.2659   -1.6713 C   0  0  0  0  0  0  0  0  0  0  0  0
   22.4244  -29.1314   -0.6233 C   0  0  0  0  0  0  0  0  0  0  0  0
   23.3218  -30.1017   -0.2514 C   0  0  0  0  0  0  0  0  0  0  0  0
   24.5055  -30.2168   -0.9475 C   0  0  0  0  0  0  0  0  0  0  0  0
   25.4675  -31.2618   -0.5448 C   0  0  0  0  0  0  0  0  0  0  0  0
   25.4443  -32.4576   -1.4425 C   0  0  2  0  0  0  0  0  0  0  0  0
   24.0778  -32.7067   -1.8534 N   0  0  0  0  0  0  0  0  0  0  0  0
   26.0412  -33.6621   -0.7991 C   0  0  0  0  0  0  0  0  0  0  0  0
   25.3589  -34.3316    0.0176 O   0  0  0  0  0  0  0  0  0  0  0  0
   24.7891  -29.3721   -2.0026 C   0  0  0  0  0  0  0  0  0  0  0  0
   23.8628  -28.4162   -2.3392 C   0  0  0  0  0  0  0  0  0  0  0  0
   27.3554  -34.0401   -1.1060 N   0  0  0  0  0  0  0  0  0  0  0  0
   28.1385  -35.0824   -0.5270 C   0  0  1  0  0  0  0  0  0  0  0  0
   29.4151  -35.4180   -1.2553 C   0  0  0  0  0  0  0  0  0  0  0  0
   29.2792  -35.9753   -2.6213 C   0  0  0  0  0  0  0  0  0  0  0  0
   30.5904  -36.3020   -3.2842 C   0  0  0  0  0  0  0  0  0  0  0  0
   31.6149  -35.6395   -3.0606 O   0  0  0  0  0  0  0  0  0  0  0  0
   28.4135  -34.9094    0.8976 C   0  0  0  0  0  0  0  0  0  0  0  0
   28.8928  -33.8159    1.3700 O   0  0  0  0  0  0  0  0  0  0  0  0
   30.6913  -37.3634   -4.1743 O   0  0  0  0  0  0  0  0  0  0  0  0
   28.1529  -35.9631    1.8153 N   0  0  0  0  0  0  0  0  0  0  0  0
   28.4392  -35.7805    3.2344 C   0  0  1  0  0  0  0  0  0  0  0  0
   27.1311  -36.0255    3.9866 C   0  0  0  0  0  0  0  0  0  0  0  0
   27.4508  -36.0103    5.4434 C   0  0  0  0  0  0  0  0  0  0  0  0
   28.6391  -35.7439    5.8123 O   0  0  0  0  0  0  0  0  0  0  0  0
   29.4889  -36.7489    3.6165 C   0  0  0  0  0  0  0  0  0  0  0  0
   30.0206  -36.6784    4.7521 O   0  0  0  0  0  0  0  0  0  0  0  0
   26.4379  -36.2898    6.3594 O   0  0  0  0  0  0  0  0  0  0  0  0
   29.8883  -37.7256    2.7408 O   0  0  0  0  0  0  0  0  0  0  0  0
  2  1  1  0
  3  2  2  0
  4  3  1  0
  5 11  1  0
  5  4  2  0
  6  5  1  0
  7  9  1  0
  7  6  1  0
  7  8  1  1
  9 10  2  0
 11 12  2  0
 12  2  1  0
 13 14  1  0
 13  9  1  0
 14 15  1  6
 15 16  1  0
 16 17  1  0
 17 21  1  0
 17 18  2  0
 19 14  1  0
 20 19  2  0
 22 19  1  0
 23 27  1  0
 23 22  1  0
 23 24  1  1
 25 24  1  0
 26 25  2  0
 27 30  1  0
 28 27  2  0
 29 25  1  0
M  END
$$$$
