YED.pdb
     RDKit          3D

 30 30  0  0  1  0  0  0  0  0999 V2000
   20.6959  -19.8848  -14.1514 O   0  0  0  0  0  0  0  0  0  0  0  0
   20.5389  -18.5843  -14.5995 C   0  0  0  0  0  0  0  0  0  0  0  0
   21.5239  -17.6447  -14.3688 C   0  0  0  0  0  0  0  0  0  0  0  0
   21.4095  -16.3442  -14.7942 C   0  0  0  0  0  0  0  0  0  0  0  0
   20.2735  -15.9633  -15.4750 C   0  0  0  0  0  0  0  0  0  0  0  0
   20.1545  -14.5642  -15.9312 C   0  0  0  0  0  0  0  0  0  0  0  0
   20.4611  -14.3933  -17.3849 C   0  0  2  0  0  0  0  0  0  0  0  0
   21.8676  -14.6641  -17.6006 N   0  0  0  0  0  0  0  0  0  0  0  0
   20.0898  -13.0405  -17.8881 C   0  0  0  0  0  0  0  0  0  0  0  0
   20.9210  -12.1003  -17.8110 O   0  0  0  0  0  0  0  0  0  0  0  0
   19.2640  -16.8711  -15.7276 C   0  0  0  0  0  0  0  0  0  0  0  0
   19.4210  -18.1607  -15.2833 C   0  0  0  0  0  0  0  0  0  0  0  0
   18.8206  -12.8242  -18.4417 N   0  0  0  0  0  0  0  0  0  0  0  0
   18.2779  -11.6181  -18.9761 C   0  0  1  0  0  0  0  0  0  0  0  0
   17.1346  -11.7917  -19.9433 C   0  0  0  0  0  0  0  0  0  0  0  0
   16.6097  -10.5642  -20.5858 C   0  0  0  0  0  0  0  0  0  0  0  0
   15.4790  -10.8107  -21.5481 C   0  0  0  0  0  0  0  0  0  0  0  0
   14.3087  -10.9379  -21.1575 O   0  0  0  0  0  0  0  0  0  0  0  0
   17.9266  -10.6177  -17.9707 C   0  0  0  0  0  0  0  0  0  0  0  0
   17.4897  -10.9454  -16.8087 O   0  0  0  0  0  0  0  0  0  0  0  0
   15.7161  -10.9049  -22.9135 O   0  0  0  0  0  0  0  0  0  0  0  0
   18.0621   -9.2316  -18.2549 N   0  0  0  0  0  0  0  0  0  0  0  0
   17.7284   -8.2430  -17.2349 C   0  0  1  0  0  0  0  0  0  0  0  0
   19.0141   -7.9515  -16.4612 C   0  0  0  0  0  0  0  0  0  0  0  0
   18.7106   -6.8519  -15.5000 C   0  0  0  0  0  0  0  0  0  0  0  0
   18.8568   -5.6451  -15.8759 O   0  0  0  0  0  0  0  0  0  0  0  0
   17.2070   -7.0401  -17.9184 C   0  0  0  0  0  0  0  0  0  0  0  0
   17.5117   -6.8212  -19.1170 O   0  0  0  0  0  0  0  0  0  0  0  0
   18.2763   -7.1787  -14.2163 O   0  0  0  0  0  0  0  0  0  0  0  0
   16.3921   -6.1595  -17.2547 O   0  0  0  0  0  0  0  0  0  0  0  0
  2  1  1  0
  3  2  2  0
  4  3  1  0
  5 11  1  0
  5  4  2  0
  6  5  1  0
  7  9  1  0
  7  6  1  0
  7  8  1  1
  9 10  2  0
 11 12  2  0
 12  2  1  0
 13 14  1  0
 13  9  1  0
 14 15  1  1
 15 16  1  0
 16 17  1  0
 17 21  1  0
 17 18  2  0
 19 14  1  0
 20 19  2  0
 22 19  1  0
 23 27  1  0
 23 22  1  0
 23 24  1  6
 25 24  1  0
 26 25  2  0
 27 30  1  0
 28 27  2  0
 29 25  1  0
M  END
$$$$
