YED.pdb
     RDKit          3D

 30 30  0  0  1  0  0  0  0  0999 V2000
   26.3130  -20.5236   -7.3831 O   0  0  0  0  0  0  0  0  0  0  0  0
   25.9518  -20.4358   -8.7168 C   0  0  0  0  0  0  0  0  0  0  0  0
   26.9208  -20.4050   -9.7000 C   0  0  0  0  0  0  0  0  0  0  0  0
   26.6079  -20.3175  -11.0340 C   0  0  0  0  0  0  0  0  0  0  0  0
   25.2821  -20.2589  -11.4051 C   0  0  0  0  0  0  0  0  0  0  0  0
   24.9498  -20.1654  -12.8405 C   0  0  0  0  0  0  0  0  0  0  0  0
   24.3444  -21.4196  -13.3853 C   0  0  2  0  0  0  0  0  0  0  0  0
   25.3913  -22.4051  -13.5617 N   0  0  0  0  0  0  0  0  0  0  0  0
   23.6043  -21.1865  -14.6577 C   0  0  0  0  0  0  0  0  0  0  0  0
   24.2217  -21.2332  -15.7520 O   0  0  0  0  0  0  0  0  0  0  0  0
   24.2809  -20.2874  -10.4543 C   0  0  0  0  0  0  0  0  0  0  0  0
   24.6401  -20.3750   -9.1321 C   0  0  0  0  0  0  0  0  0  0  0  0
   22.2293  -20.9168  -14.6277 N   0  0  0  0  0  0  0  0  0  0  0  0
   21.3138  -20.8450  -15.7192 C   0  0  1  0  0  0  0  0  0  0  0  0
   20.2226  -21.8853  -15.7224 C   0  0  0  0  0  0  0  0  0  0  0  0
   19.3385  -21.9311  -14.5344 C   0  0  0  0  0  0  0  0  0  0  0  0
   18.2316  -22.9463  -14.6319 C   0  0  0  0  0  0  0  0  0  0  0  0
   17.1485  -22.6775  -15.1732 O   0  0  0  0  0  0  0  0  0  0  0  0
   20.7343  -19.5209  -15.9339 C   0  0  0  0  0  0  0  0  0  0  0  0
   20.2578  -18.8221  -14.9679 O   0  0  0  0  0  0  0  0  0  0  0  0
   18.3924  -24.2245  -14.1127 O   0  0  0  0  0  0  0  0  0  0  0  0
   20.6820  -18.9599  -17.2388 N   0  0  0  0  0  0  0  0  0  0  0  0
   20.0967  -17.6386  -17.4407 C   0  0  1  0  0  0  0  0  0  0  0  0
   20.4241  -17.2219  -18.8745 C   0  0  0  0  0  0  0  0  0  0  0  0
   19.9668  -15.8117  -19.0391 C   0  0  0  0  0  0  0  0  0  0  0  0
   19.4214  -15.2202  -18.0533 O   0  0  0  0  0  0  0  0  0  0  0  0
   18.6398  -17.7452  -17.2126 C   0  0  0  0  0  0  0  0  0  0  0  0
   18.0111  -18.7429  -17.6445 O   0  0  0  0  0  0  0  0  0  0  0  0
   20.1493  -15.1825  -20.2695 O   0  0  0  0  0  0  0  0  0  0  0  0
   17.9672  -16.7629  -16.5322 O   0  0  0  0  0  0  0  0  0  0  0  0
  2  1  1  0
  3  2  2  0
  4  3  1  0
  5 11  1  0
  5  4  2  0
  6  5  1  0
  7  9  1  0
  7  6  1  0
  7  8  1  6
  9 10  2  0
 11 12  2  0
 12  2  1  0
 13 14  1  0
 13  9  1  0
 14 15  1  1
 15 16  1  0
 16 17  1  0
 17 21  1  0
 17 18  2  0
 19 14  1  0
 20 19  2  0
 22 19  1  0
 23 27  1  0
 23 22  1  0
 23 24  1  6
 25 24  1  0
 26 25  2  0
 27 30  1  0
 28 27  2  0
 29 25  1  0
M  END
$$$$
