YED.pdb
     RDKit          3D

 30 30  0  0  1  0  0  0  0  0999 V2000
   15.9953  -17.1296  -20.0410 O   0  0  0  0  0  0  0  0  0  0  0  0
   17.0817  -17.8334  -19.5498 C   0  0  0  0  0  0  0  0  0  0  0  0
   18.2580  -17.8901  -20.2706 C   0  0  0  0  0  0  0  0  0  0  0  0
   19.3592  -18.5769  -19.8221 C   0  0  0  0  0  0  0  0  0  0  0  0
   19.2889  -19.2315  -18.6115 C   0  0  0  0  0  0  0  0  0  0  0  0
   20.4752  -19.9683  -18.1325 C   0  0  0  0  0  0  0  0  0  0  0  0
   21.1216  -19.3303  -16.9446 C   0  0  2  0  0  0  0  0  0  0  0  0
   21.5283  -17.9862  -17.2997 N   0  0  0  0  0  0  0  0  0  0  0  0
   22.2741  -20.1237  -16.4311 C   0  0  0  0  0  0  0  0  0  0  0  0
   22.1172  -21.3411  -16.1592 O   0  0  0  0  0  0  0  0  0  0  0  0
   18.1319  -19.2001  -17.8581 C   0  0  0  0  0  0  0  0  0  0  0  0
   17.0553  -18.5015  -18.3458 C   0  0  0  0  0  0  0  0  0  0  0  0
   23.5218  -19.5104  -16.2539 N   0  0  0  0  0  0  0  0  0  0  0  0
   24.7478  -20.0984  -15.8228 C   0  0  1  0  0  0  0  0  0  0  0  0
   25.9439  -19.8247  -16.6987 C   0  0  0  0  0  0  0  0  0  0  0  0
   27.2145  -20.4872  -16.3221 C   0  0  0  0  0  0  0  0  0  0  0  0
   28.3370  -20.2624  -17.2992 C   0  0  0  0  0  0  0  0  0  0  0  0
   28.1900  -19.5543  -18.3069 O   0  0  0  0  0  0  0  0  0  0  0  0
   25.0865  -19.8311  -14.4267 C   0  0  0  0  0  0  0  0  0  0  0  0
   25.2779  -18.6391  -13.9894 O   0  0  0  0  0  0  0  0  0  0  0  0
   29.5805  -20.8480  -17.0994 O   0  0  0  0  0  0  0  0  0  0  0  0
   25.2146  -20.9000  -13.4986 N   0  0  0  0  0  0  0  0  0  0  0  0
   25.6206  -20.6263  -12.1241 C   0  0  1  0  0  0  0  0  0  0  0  0
   24.6618  -21.3961  -11.2159 C   0  0  0  0  0  0  0  0  0  0  0  0
   25.0724  -21.1224   -9.8083 C   0  0  0  0  0  0  0  0  0  0  0  0
   25.9388  -20.2183   -9.5823 O   0  0  0  0  0  0  0  0  0  0  0  0
   27.0196  -21.0768  -11.9632 C   0  0  0  0  0  0  0  0  0  0  0  0
   27.5378  -21.8266  -12.8272 O   0  0  0  0  0  0  0  0  0  0  0  0
   24.4955  -21.8665   -8.7804 O   0  0  0  0  0  0  0  0  0  0  0  0
   27.7582  -20.6827  -10.8772 O   0  0  0  0  0  0  0  0  0  0  0  0
  2  1  1  0
  3  2  2  0
  4  3  1  0
  5 11  1  0
  5  4  2  0
  6  5  1  0
  7  9  1  0
  7  6  1  0
  7  8  1  6
  9 10  2  0
 11 12  2  0
 12  2  1  0
 13 14  1  0
 13  9  1  0
 14 15  1  6
 15 16  1  0
 16 17  1  0
 17 21  1  0
 17 18  2  0
 19 14  1  0
 20 19  2  0
 22 19  1  0
 23 27  1  0
 23 22  1  0
 23 24  1  1
 25 24  1  0
 26 25  2  0
 27 30  1  0
 28 27  2  0
 29 25  1  0
M  END
$$$$
