YED.pdb
     RDKit          3D

 30 30  0  0  1  0  0  0  0  0999 V2000
   29.0894  -20.3210   -5.0120 O   0  0  0  0  0  0  0  0  0  0  0  0
   28.5726  -20.2297   -6.2932 C   0  0  0  0  0  0  0  0  0  0  0  0
   29.2839  -20.7256   -7.3678 C   0  0  0  0  0  0  0  0  0  0  0  0
   28.8101  -20.6555   -8.6546 C   0  0  0  0  0  0  0  0  0  0  0  0
   27.5831  -20.0710   -8.8821 C   0  0  0  0  0  0  0  0  0  0  0  0
   27.0770  -19.9981  -10.2671 C   0  0  0  0  0  0  0  0  0  0  0  0
   25.9432  -20.9378  -10.5274 C   0  0  2  0  0  0  0  0  0  0  0  0
   26.4700  -22.2809  -10.6565 N   0  0  0  0  0  0  0  0  0  0  0  0
   25.1509  -20.5523  -11.7294 C   0  0  0  0  0  0  0  0  0  0  0  0
   24.6607  -19.3969  -11.8049 O   0  0  0  0  0  0  0  0  0  0  0  0
   26.8384  -19.5627   -7.8361 C   0  0  0  0  0  0  0  0  0  0  0  0
   27.3516  -19.6542   -6.5658 C   0  0  0  0  0  0  0  0  0  0  0  0
   24.9565  -21.4765  -12.7649 N   0  0  0  0  0  0  0  0  0  0  0  0
   24.2659  -21.2953  -13.9998 C   0  0  1  0  0  0  0  0  0  0  0  0
   25.1188  -21.3782  -15.2402 C   0  0  0  0  0  0  0  0  0  0  0  0
   26.3649  -20.5768  -15.2501 C   0  0  0  0  0  0  0  0  0  0  0  0
   26.4563  -19.5985  -16.3902 C   0  0  0  0  0  0  0  0  0  0  0  0
   25.5496  -19.4916  -17.2297 O   0  0  0  0  0  0  0  0  0  0  0  0
   23.0818  -22.1367  -14.1574 C   0  0  0  0  0  0  0  0  0  0  0  0
   23.0984  -23.3919  -13.8874 O   0  0  0  0  0  0  0  0  0  0  0  0
   27.5694  -18.7807  -16.5369 O   0  0  0  0  0  0  0  0  0  0  0  0
   21.8585  -21.5803  -14.6203 N   0  0  0  0  0  0  0  0  0  0  0  0
   20.5878  -22.1353  -14.1659 C   0  0  1  0  0  0  0  0  0  0  0  0
   20.5238  -21.9192  -12.6540 C   0  0  0  0  0  0  0  0  0  0  0  0
   19.6608  -22.9975  -12.0906 C   0  0  0  0  0  0  0  0  0  0  0  0
   19.3444  -22.9551  -10.8589 O   0  0  0  0  0  0  0  0  0  0  0  0
   19.5008  -21.4267  -14.8744 C   0  0  0  0  0  0  0  0  0  0  0  0
   19.5655  -20.1825  -15.0328 O   0  0  0  0  0  0  0  0  0  0  0  0
   19.2263  -24.0218  -12.9304 O   0  0  0  0  0  0  0  0  0  0  0  0
   18.4205  -22.1166  -15.3613 O   0  0  0  0  0  0  0  0  0  0  0  0
  2  1  1  0
  3  2  2  0
  4  3  1  0
  5 11  1  0
  5  4  2  0
  6  5  1  0
  7  9  1  0
  7  6  1  0
  7  8  1  6
  9 10  2  0
 11 12  2  0
 12  2  1  0
 13 14  1  0
 13  9  1  0
 14 15  1  6
 15 16  1  0
 16 17  1  0
 17 21  1  0
 17 18  2  0
 19 14  1  0
 20 19  2  0
 22 19  1  0
 23 27  1  0
 23 22  1  0
 23 24  1  1
 25 24  1  0
 26 25  2  0
 27 30  1  0
 28 27  2  0
 29 25  1  0
M  END
$$$$
