YED.pdb
     RDKit          3D

 30 30  0  0  1  0  0  0  0  0999 V2000
   18.1646  -15.1264  -18.5357 O   0  0  0  0  0  0  0  0  0  0  0  0
   18.2692  -13.8396  -18.0355 C   0  0  0  0  0  0  0  0  0  0  0  0
   19.1959  -12.9614  -18.5612 C   0  0  0  0  0  0  0  0  0  0  0  0
   19.3345  -11.6773  -18.0952 C   0  0  0  0  0  0  0  0  0  0  0  0
   18.5210  -11.2496  -17.0684 C   0  0  0  0  0  0  0  0  0  0  0  0
   18.6727   -9.8680  -16.5705 C   0  0  0  0  0  0  0  0  0  0  0  0
   19.9132   -9.6700  -15.7592 C   0  0  2  0  0  0  0  0  0  0  0  0
   19.8744  -10.5647  -14.6206 N   0  0  0  0  0  0  0  0  0  0  0  0
   20.0884   -8.2547  -15.3262 C   0  0  0  0  0  0  0  0  0  0  0  0
   19.3678   -7.7942  -14.4045 O   0  0  0  0  0  0  0  0  0  0  0  0
   17.5804  -12.0951  -16.5139 C   0  0  0  0  0  0  0  0  0  0  0  0
   17.4771  -13.3708  -17.0110 C   0  0  0  0  0  0  0  0  0  0  0  0
   21.0513   -7.4475  -15.9470 N   0  0  0  0  0  0  0  0  0  0  0  0
   21.3969   -6.0942  -15.6573 C   0  0  1  0  0  0  0  0  0  0  0  0
   22.6949   -5.6124  -16.2540 C   0  0  0  0  0  0  0  0  0  0  0  0
   23.9106   -6.3956  -15.9320 C   0  0  0  0  0  0  0  0  0  0  0  0
   25.1612   -5.8897  -16.5994 C   0  0  0  0  0  0  0  0  0  0  0  0
   26.0384   -6.6646  -17.0096 O   0  0  0  0  0  0  0  0  0  0  0  0
   20.3366   -5.1283  -15.9361 C   0  0  0  0  0  0  0  0  0  0  0  0
   19.6538   -5.1625  -17.0230 O   0  0  0  0  0  0  0  0  0  0  0  0
   25.3712   -4.5280  -16.7754 O   0  0  0  0  0  0  0  0  0  0  0  0
   20.0254   -4.1082  -14.9966 N   0  0  0  0  0  0  0  0  0  0  0  0
   18.9828   -3.1331  -15.2987 C   0  0  1  0  0  0  0  0  0  0  0  0
   17.8264   -3.4066  -14.3370 C   0  0  0  0  0  0  0  0  0  0  0  0
   16.8421   -2.2985  -14.5045 C   0  0  0  0  0  0  0  0  0  0  0  0
   16.7770   -1.3906  -13.6153 O   0  0  0  0  0  0  0  0  0  0  0  0
   19.5531   -1.7821  -15.1109 C   0  0  0  0  0  0  0  0  0  0  0  0
   18.9343   -0.7773  -15.5407 O   0  0  0  0  0  0  0  0  0  0  0  0
   16.0207   -2.2902  -15.6307 O   0  0  0  0  0  0  0  0  0  0  0  0
   20.7540   -1.6154  -14.4704 O   0  0  0  0  0  0  0  0  0  0  0  0
  2  1  1  0
  3  2  2  0
  4  3  1  0
  5 11  1  0
  5  4  2  0
  6  5  1  0
  7  9  1  0
  7  6  1  0
  7  8  1  1
  9 10  2  0
 11 12  2  0
 12  2  1  0
 13 14  1  0
 13  9  1  0
 14 15  1  6
 15 16  1  0
 16 17  1  0
 17 21  1  0
 17 18  2  0
 19 14  1  0
 20 19  2  0
 22 19  1  0
 23 27  1  0
 23 22  1  0
 23 24  1  1
 25 24  1  0
 26 25  2  0
 27 30  1  0
 28 27  2  0
 29 25  1  0
M  END
$$$$
