YED.pdb
     RDKit          3D

 30 30  0  0  1  0  0  0  0  0999 V2000
   15.9464  -14.3677  -21.2410 O   0  0  0  0  0  0  0  0  0  0  0  0
   16.0280  -13.2456  -20.4340 C   0  0  0  0  0  0  0  0  0  0  0  0
   17.2304  -12.5844  -20.2805 C   0  0  0  0  0  0  0  0  0  0  0  0
   17.3570  -11.4691  -19.4898 C   0  0  0  0  0  0  0  0  0  0  0  0
   16.2468  -10.9925  -18.8270 C   0  0  0  0  0  0  0  0  0  0  0  0
   16.3869   -9.7928  -17.9782 C   0  0  0  0  0  0  0  0  0  0  0  0
   17.0716  -10.0710  -16.6781 C   0  0  2  0  0  0  0  0  0  0  0  0
   16.2821  -11.0273  -15.9296 N   0  0  0  0  0  0  0  0  0  0  0  0
   17.3099   -8.8316  -15.8854 C   0  0  0  0  0  0  0  0  0  0  0  0
   16.4251   -8.4240  -15.0905 O   0  0  0  0  0  0  0  0  0  0  0  0
   15.0246  -11.6231  -18.9529 C   0  0  0  0  0  0  0  0  0  0  0  0
   14.9446  -12.7355  -19.7538 C   0  0  0  0  0  0  0  0  0  0  0  0
   18.5140   -8.1293  -16.0304 N   0  0  0  0  0  0  0  0  0  0  0  0
   18.8982   -6.8916  -15.4342 C   0  0  1  0  0  0  0  0  0  0  0  0
   20.2590   -6.8769  -14.7854 C   0  0  0  0  0  0  0  0  0  0  0  0
   20.6434   -5.6404  -14.0655 C   0  0  0  0  0  0  0  0  0  0  0  0
   22.0451   -5.6598  -13.5176 C   0  0  0  0  0  0  0  0  0  0  0  0
   22.5160   -4.6919  -12.9013 O   0  0  0  0  0  0  0  0  0  0  0  0
   18.7560   -5.7308  -16.3100 C   0  0  0  0  0  0  0  0  0  0  0  0
   19.2537   -5.7064  -17.4934 O   0  0  0  0  0  0  0  0  0  0  0  0
   22.8594   -6.7719  -13.6891 O   0  0  0  0  0  0  0  0  0  0  0  0
   18.0506   -4.5779  -15.8701 N   0  0  0  0  0  0  0  0  0  0  0  0
   17.9346   -3.4166  -16.7460 C   0  0  1  0  0  0  0  0  0  0  0  0
   16.4797   -2.9526  -16.6783 C   0  0  0  0  0  0  0  0  0  0  0  0
   16.3507   -1.7727  -17.5818 C   0  0  0  0  0  0  0  0  0  0  0  0
   17.3749   -1.3682  -18.2194 O   0  0  0  0  0  0  0  0  0  0  0  0
   18.8707   -2.3816  -16.2581 C   0  0  0  0  0  0  0  0  0  0  0  0
   18.9517   -1.2803  -16.8563 O   0  0  0  0  0  0  0  0  0  0  0  0
   15.1111   -1.1462  -17.7006 O   0  0  0  0  0  0  0  0  0  0  0  0
   19.6529   -2.6132  -15.1559 O   0  0  0  0  0  0  0  0  0  0  0  0
  2  1  1  0
  3  2  2  0
  4  3  1  0
  5 11  1  0
  5  4  2  0
  6  5  1  0
  7  9  1  0
  7  6  1  0
  7  8  1  1
  9 10  2  0
 11 12  2  0
 12  2  1  0
 13 14  1  0
 13  9  1  0
 14 15  1  6
 15 16  1  0
 16 17  1  0
 17 21  1  0
 17 18  2  0
 19 14  1  0
 20 19  2  0
 22 19  1  0
 23 27  1  0
 23 22  1  0
 23 24  1  1
 25 24  1  0
 26 25  2  0
 27 30  1  0
 28 27  2  0
 29 25  1  0
M  END
$$$$
