YED.pdb
     RDKit          3D

 30 30  0  0  1  0  0  0  0  0999 V2000
   20.3808  -20.3756  -14.6530 O   0  0  0  0  0  0  0  0  0  0  0  0
   20.6725  -19.0638  -14.9862 C   0  0  0  0  0  0  0  0  0  0  0  0
   19.7439  -18.0662  -14.7647 C   0  0  0  0  0  0  0  0  0  0  0  0
   19.9905  -16.7530  -15.0806 C   0  0  0  0  0  0  0  0  0  0  0  0
   21.2059  -16.4183  -15.6371 C   0  0  0  0  0  0  0  0  0  0  0  0
   21.4674  -15.0051  -15.9749 C   0  0  0  0  0  0  0  0  0  0  0  0
   20.8205  -14.5785  -17.2539 C   0  0  2  0  0  0  0  0  0  0  0  0
   21.4065  -15.3277  -18.3464 N   0  0  0  0  0  0  0  0  0  0  0  0
   20.9342  -13.1106  -17.4856 C   0  0  0  0  0  0  0  0  0  0  0  0
   22.0077  -12.6349  -17.9352 O   0  0  0  0  0  0  0  0  0  0  0  0
   22.1634  -17.3846  -15.8752 C   0  0  0  0  0  0  0  0  0  0  0  0
   21.8734  -18.6851  -15.5440 C   0  0  0  0  0  0  0  0  0  0  0  0
   19.8484  -12.2715  -17.2011 N   0  0  0  0  0  0  0  0  0  0  0  0
   19.7029  -10.8805  -17.4818 C   0  0  1  0  0  0  0  0  0  0  0  0
   18.4471  -10.4940  -18.2210 C   0  0  0  0  0  0  0  0  0  0  0  0
   18.2638  -11.0685  -19.5743 C   0  0  0  0  0  0  0  0  0  0  0  0
   16.8928  -10.8472  -20.1544 C   0  0  0  0  0  0  0  0  0  0  0  0
   16.0117  -10.2397  -19.5276 O   0  0  0  0  0  0  0  0  0  0  0  0
   19.8811  -10.0097  -16.3221 C   0  0  0  0  0  0  0  0  0  0  0  0
   19.5352  -10.3719  -15.1398 O   0  0  0  0  0  0  0  0  0  0  0  0
   16.5716  -11.3224  -21.4195 O   0  0  0  0  0  0  0  0  0  0  0  0
   20.4528   -8.7170  -16.4723 N   0  0  0  0  0  0  0  0  0  0  0  0
   20.6907   -7.8848  -15.2976 C   0  0  1  0  0  0  0  0  0  0  0  0
   21.6509   -6.7753  -15.7263 C   0  0  0  0  0  0  0  0  0  0  0  0
   21.9224   -5.9376  -14.5223 C   0  0  0  0  0  0  0  0  0  0  0  0
   21.4991   -6.3303  -13.3885 O   0  0  0  0  0  0  0  0  0  0  0  0
   19.3887   -7.3486  -14.8469 C   0  0  0  0  0  0  0  0  0  0  0  0
   18.5695   -6.9065  -15.6899 O   0  0  0  0  0  0  0  0  0  0  0  0
   22.6315   -4.7472  -14.6746 O   0  0  0  0  0  0  0  0  0  0  0  0
   19.0665   -7.3296  -13.5142 O   0  0  0  0  0  0  0  0  0  0  0  0
  2  1  1  0
  3  2  2  0
  4  3  1  0
  5 11  1  0
  5  4  2  0
  6  5  1  0
  7  9  1  0
  7  6  1  0
  7  8  1  6
  9 10  2  0
 11 12  2  0
 12  2  1  0
 13 14  1  0
 13  9  1  0
 14 15  1  1
 15 16  1  0
 16 17  1  0
 17 21  1  0
 17 18  2  0
 19 14  1  0
 20 19  2  0
 22 19  1  0
 23 27  1  0
 23 22  1  0
 23 24  1  6
 25 24  1  0
 26 25  2  0
 27 30  1  0
 28 27  2  0
 29 25  1  0
M  END
$$$$
