YED.pdb
     RDKit          3D

 30 30  0  0  1  0  0  0  0  0999 V2000
   14.9707  -13.9189  -17.2671 O   0  0  0  0  0  0  0  0  0  0  0  0
   15.6150  -12.7287  -16.9750 C   0  0  0  0  0  0  0  0  0  0  0  0
   16.9930  -12.6831  -16.9003 C   0  0  0  0  0  0  0  0  0  0  0  0
   17.6727  -11.5253  -16.6127 C   0  0  0  0  0  0  0  0  0  0  0  0
   16.9562  -10.3692  -16.3915 C   0  0  0  0  0  0  0  0  0  0  0  0
   17.6908   -9.1263  -16.0830 C   0  0  0  0  0  0  0  0  0  0  0  0
   18.5992   -9.2597  -14.9026 C   0  0  2  0  0  0  0  0  0  0  0  0
   17.8039   -9.5790  -13.7348 N   0  0  0  0  0  0  0  0  0  0  0  0
   19.4202   -8.0364  -14.6770 C   0  0  0  0  0  0  0  0  0  0  0  0
   19.0843   -7.2204  -13.7815 O   0  0  0  0  0  0  0  0  0  0  0  0
   15.5767  -10.3701  -16.4569 C   0  0  0  0  0  0  0  0  0  0  0  0
   14.9388  -11.5508  -16.7471 C   0  0  0  0  0  0  0  0  0  0  0  0
   20.5574   -7.8028  -15.4620 N   0  0  0  0  0  0  0  0  0  0  0  0
   21.5202   -6.7571  -15.3424 C   0  0  1  0  0  0  0  0  0  0  0  0
   22.8722   -7.0458  -15.9438 C   0  0  0  0  0  0  0  0  0  0  0  0
   23.5804   -8.2500  -15.4504 C   0  0  0  0  0  0  0  0  0  0  0  0
   24.9230   -8.4780  -16.0912 C   0  0  0  0  0  0  0  0  0  0  0  0
   25.0757   -9.3019  -17.0057 O   0  0  0  0  0  0  0  0  0  0  0  0
   21.0487   -5.4492  -15.7922 C   0  0  0  0  0  0  0  0  0  0  0  0
   20.6599   -5.2443  -16.9986 O   0  0  0  0  0  0  0  0  0  0  0  0
   26.0400   -7.7666  -15.6723 O   0  0  0  0  0  0  0  0  0  0  0  0
   21.0054   -4.3499  -14.8923 N   0  0  0  0  0  0  0  0  0  0  0  0
   20.5802   -3.0370  -15.3661 C   0  0  1  0  0  0  0  0  0  0  0  0
   19.2341   -2.7406  -14.7054 C   0  0  0  0  0  0  0  0  0  0  0  0
   18.1779   -3.3530  -15.5624 C   0  0  0  0  0  0  0  0  0  0  0  0
   18.3451   -3.3808  -16.8235 O   0  0  0  0  0  0  0  0  0  0  0  0
   21.6161   -2.0552  -14.9804 C   0  0  0  0  0  0  0  0  0  0  0  0
   21.4649   -0.8419  -15.2677 O   0  0  0  0  0  0  0  0  0  0  0  0
   17.0369   -3.8765  -14.9565 O   0  0  0  0  0  0  0  0  0  0  0  0
   22.7427   -2.4575  -14.3103 O   0  0  0  0  0  0  0  0  0  0  0  0
  2  1  1  0
  3  2  2  0
  4  3  1  0
  5 11  1  0
  5  4  2  0
  6  5  1  0
  7  9  1  0
  7  6  1  0
  7  8  1  1
  9 10  2  0
 11 12  2  0
 12  2  1  0
 13 14  1  0
 13  9  1  0
 14 15  1  6
 15 16  1  0
 16 17  1  0
 17 21  1  0
 17 18  2  0
 19 14  1  0
 20 19  2  0
 22 19  1  0
 23 27  1  0
 23 22  1  0
 23 24  1  1
 25 24  1  0
 26 25  2  0
 27 30  1  0
 28 27  2  0
 29 25  1  0
M  END
$$$$
