YED.pdb
     RDKit          3D

 30 30  0  0  1  0  0  0  0  0999 V2000
   24.1615  -18.1477  -14.8736 O   0  0  0  0  0  0  0  0  0  0  0  0
   23.9032  -16.7993  -15.0527 C   0  0  0  0  0  0  0  0  0  0  0  0
   24.9024  -15.8669  -14.8561 C   0  0  0  0  0  0  0  0  0  0  0  0
   24.6903  -14.5204  -15.0214 C   0  0  0  0  0  0  0  0  0  0  0  0
   23.4381  -14.0841  -15.3967 C   0  0  0  0  0  0  0  0  0  0  0  0
   23.2143  -12.6356  -15.5738 C   0  0  0  0  0  0  0  0  0  0  0  0
   22.8642  -12.2640  -16.9794 C   0  0  2  0  0  0  0  0  0  0  0  0
   23.9832  -12.5870  -17.8405 N   0  0  0  0  0  0  0  0  0  0  0  0
   22.4818  -10.8293  -17.1087 C   0  0  0  0  0  0  0  0  0  0  0  0
   23.3717   -9.9668  -17.3209 O   0  0  0  0  0  0  0  0  0  0  0  0
   22.4103  -14.9827  -15.6043 C   0  0  0  0  0  0  0  0  0  0  0  0
   22.6676  -16.3197  -15.4269 C   0  0  0  0  0  0  0  0  0  0  0  0
   21.1374  -10.4506  -16.9927 N   0  0  0  0  0  0  0  0  0  0  0  0
   20.5702   -9.1454  -17.0907 C   0  0  1  0  0  0  0  0  0  0  0  0
   19.1118   -9.0967  -17.4695 C   0  0  0  0  0  0  0  0  0  0  0  0
   18.1819   -9.9148  -16.6564 C   0  0  0  0  0  0  0  0  0  0  0  0
   16.8702   -9.2393  -16.3588 C   0  0  0  0  0  0  0  0  0  0  0  0
   15.9173   -9.2916  -17.1509 O   0  0  0  0  0  0  0  0  0  0  0  0
   20.8063   -8.2964  -15.9251 C   0  0  0  0  0  0  0  0  0  0  0  0
   20.8569   -8.7744  -14.7345 O   0  0  0  0  0  0  0  0  0  0  0  0
   16.6881   -8.5305  -15.1782 O   0  0  0  0  0  0  0  0  0  0  0  0
   20.9907   -6.8955  -16.0791 N   0  0  0  0  0  0  0  0  0  0  0  0
   21.1421   -6.0470  -14.9017 C   0  0  1  0  0  0  0  0  0  0  0  0
   21.8776   -4.7858  -15.3546 C   0  0  0  0  0  0  0  0  0  0  0  0
   22.0533   -3.9218  -14.1514 C   0  0  0  0  0  0  0  0  0  0  0  0
   21.7181   -2.6961  -14.2170 O   0  0  0  0  0  0  0  0  0  0  0  0
   19.7921   -5.7451  -14.3801 C   0  0  0  0  0  0  0  0  0  0  0  0
   19.6536   -5.3515  -13.1955 O   0  0  0  0  0  0  0  0  0  0  0  0
   22.5811   -4.4825  -12.9894 O   0  0  0  0  0  0  0  0  0  0  0  0
   18.6874   -5.8912  -15.1792 O   0  0  0  0  0  0  0  0  0  0  0  0
  2  1  1  0
  3  2  2  0
  4  3  1  0
  5 11  1  0
  5  4  2  0
  6  5  1  0
  7  9  1  0
  7  6  1  0
  7  8  1  6
  9 10  2  0
 11 12  2  0
 12  2  1  0
 13 14  1  0
 13  9  1  0
 14 15  1  1
 15 16  1  0
 16 17  1  0
 17 21  1  0
 17 18  2  0
 19 14  1  0
 20 19  2  0
 22 19  1  0
 23 27  1  0
 23 22  1  0
 23 24  1  6
 25 24  1  0
 26 25  2  0
 27 30  1  0
 28 27  2  0
 29 25  1  0
M  END
$$$$
