YED.pdb
     RDKit          3D

 30 30  0  0  1  0  0  0  0  0999 V2000
   23.4902   -7.8404   -7.4621 O   0  0  0  0  0  0  0  0  0  0  0  0
   22.6502   -7.7534   -8.5593 C   0  0  0  0  0  0  0  0  0  0  0  0
   21.8569   -6.6382   -8.7419 C   0  0  0  0  0  0  0  0  0  0  0  0
   21.0091   -6.5104   -9.8144 C   0  0  0  0  0  0  0  0  0  0  0  0
   20.9479   -7.5290  -10.7406 C   0  0  0  0  0  0  0  0  0  0  0  0
   20.0355   -7.3875  -11.8926 C   0  0  0  0  0  0  0  0  0  0  0  0
   18.6059   -7.2127  -11.4904 C   0  0  2  0  0  0  0  0  0  0  0  0
   18.0917   -8.4856  -11.0281 N   0  0  0  0  0  0  0  0  0  0  0  0
   17.7688   -6.6627  -12.5940 C   0  0  0  0  0  0  0  0  0  0  0  0
   17.1894   -7.4500  -13.3847 O   0  0  0  0  0  0  0  0  0  0  0  0
   21.7246   -8.6617  -10.5966 C   0  0  0  0  0  0  0  0  0  0  0  0
   22.5575   -8.7468   -9.5085 C   0  0  0  0  0  0  0  0  0  0  0  0
   17.6332   -5.2759  -12.7445 N   0  0  0  0  0  0  0  0  0  0  0  0
   16.9517   -4.5557  -13.7700 C   0  0  1  0  0  0  0  0  0  0  0  0
   16.2484   -3.2987  -13.3247 C   0  0  0  0  0  0  0  0  0  0  0  0
   15.4345   -2.5918  -14.3410 C   0  0  0  0  0  0  0  0  0  0  0  0
   14.7391   -1.3616  -13.8230 C   0  0  0  0  0  0  0  0  0  0  0  0
   14.9129   -0.9557  -12.6640 O   0  0  0  0  0  0  0  0  0  0  0  0
   17.7644   -4.2748  -14.9514 C   0  0  0  0  0  0  0  0  0  0  0  0
   18.9818   -3.8769  -14.8607 O   0  0  0  0  0  0  0  0  0  0  0  0
   13.8739   -0.6398  -14.6352 O   0  0  0  0  0  0  0  0  0  0  0  0
   17.2219   -4.4380  -16.2550 N   0  0  0  0  0  0  0  0  0  0  0  0
   18.0529   -4.1828  -17.4269 C   0  0  1  0  0  0  0  0  0  0  0  0
   17.7328   -5.2768  -18.4454 C   0  0  0  0  0  0  0  0  0  0  0  0
   18.8800   -5.3432  -19.3964 C   0  0  0  0  0  0  0  0  0  0  0  0
   19.8461   -4.5269  -19.2567 O   0  0  0  0  0  0  0  0  0  0  0  0
   17.7211   -2.8353  -17.9370 C   0  0  0  0  0  0  0  0  0  0  0  0
   16.5890   -2.3420  -17.7083 O   0  0  0  0  0  0  0  0  0  0  0  0
   18.8601   -6.2977  -20.4121 O   0  0  0  0  0  0  0  0  0  0  0  0
   18.6398   -2.1176  -18.6588 O   0  0  0  0  0  0  0  0  0  0  0  0
  2  1  1  0
  3  2  2  0
  4  3  1  0
  5 11  1  0
  5  4  2  0
  6  5  1  0
  7  9  1  0
  7  6  1  0
  7  8  1  6
  9 10  2  0
 11 12  2  0
 12  2  1  0
 13 14  1  0
 13  9  1  0
 14 15  1  1
 15 16  1  0
 16 17  1  0
 17 21  1  0
 17 18  2  0
 19 14  1  0
 20 19  2  0
 22 19  1  0
 23 27  1  0
 23 22  1  0
 23 24  1  6
 25 24  1  0
 26 25  2  0
 27 30  1  0
 28 27  2  0
 29 25  1  0
M  END
$$$$
