YED.pdb
     RDKit          3D

 30 30  0  0  1  0  0  0  0  0999 V2000
   30.3207  -20.0100   -3.8145 O   0  0  0  0  0  0  0  0  0  0  0  0
   29.2632  -19.9977   -4.7080 C   0  0  0  0  0  0  0  0  0  0  0  0
   28.8850  -21.1572   -5.3552 C   0  0  0  0  0  0  0  0  0  0  0  0
   27.8434  -21.1904   -6.2493 C   0  0  0  0  0  0  0  0  0  0  0  0
   27.1513  -20.0276   -6.5096 C   0  0  0  0  0  0  0  0  0  0  0  0
   26.0317  -20.0676   -7.4711 C   0  0  0  0  0  0  0  0  0  0  0  0
   26.4341  -20.5752   -8.8190 C   0  0  2  0  0  0  0  0  0  0  0  0
   27.7901  -20.1463   -9.0939 N   0  0  0  0  0  0  0  0  0  0  0  0
   25.5012  -20.1331   -9.8939 C   0  0  0  0  0  0  0  0  0  0  0  0
   24.8189  -19.0894   -9.7326 O   0  0  0  0  0  0  0  0  0  0  0  0
   27.4959  -18.8457   -5.8839 C   0  0  0  0  0  0  0  0  0  0  0  0
   28.5445  -18.8591   -4.9977 C   0  0  0  0  0  0  0  0  0  0  0  0
   25.3891  -20.8809  -11.0739 N   0  0  0  0  0  0  0  0  0  0  0  0
   24.7018  -20.5440  -12.2775 C   0  0  1  0  0  0  0  0  0  0  0  0
   25.5205  -20.6314  -13.5404 C   0  0  0  0  0  0  0  0  0  0  0  0
   26.1446  -21.9404  -13.8438 C   0  0  0  0  0  0  0  0  0  0  0  0
   27.0018  -21.9397  -15.0809 C   0  0  0  0  0  0  0  0  0  0  0  0
   27.1098  -20.9325  -15.7967 O   0  0  0  0  0  0  0  0  0  0  0  0
   23.4322  -21.2432  -12.4627 C   0  0  0  0  0  0  0  0  0  0  0  0
   23.3101  -22.5019  -12.2404 O   0  0  0  0  0  0  0  0  0  0  0  0
   27.7018  -23.0777  -15.4606 O   0  0  0  0  0  0  0  0  0  0  0  0
   22.2780  -20.5383  -12.8999 N   0  0  0  0  0  0  0  0  0  0  0  0
   21.0124  -21.2452  -13.0664 C   0  0  1  0  0  0  0  0  0  0  0  0
   19.9016  -20.2021  -12.9451 C   0  0  0  0  0  0  0  0  0  0  0  0
   18.7004  -20.8985  -12.4001 C   0  0  0  0  0  0  0  0  0  0  0  0
   18.7412  -22.1590  -12.2305 O   0  0  0  0  0  0  0  0  0  0  0  0
   21.0229  -21.8928  -14.3954 C   0  0  0  0  0  0  0  0  0  0  0  0
   21.7200  -21.4085  -15.3210 O   0  0  0  0  0  0  0  0  0  0  0  0
   17.5665  -20.1479  -12.0932 O   0  0  0  0  0  0  0  0  0  0  0  0
   20.2771  -23.0199  -14.6273 O   0  0  0  0  0  0  0  0  0  0  0  0
  2  1  1  0
  3  2  2  0
  4  3  1  0
  5 11  1  0
  5  4  2  0
  6  5  1  0
  7  9  1  0
  7  6  1  0
  7  8  1  6
  9 10  2  0
 11 12  2  0
 12  2  1  0
 13 14  1  0
 13  9  1  0
 14 15  1  6
 15 16  1  0
 16 17  1  0
 17 21  1  0
 17 18  2  0
 19 14  1  0
 20 19  2  0
 22 19  1  0
 23 27  1  0
 23 22  1  0
 23 24  1  6
 25 24  1  0
 26 25  2  0
 27 30  1  0
 28 27  2  0
 29 25  1  0
M  END
$$$$
