YED.pdb
     RDKit          3D

 30 30  0  0  1  0  0  0  0  0999 V2000
   30.2842  -11.4547  -16.2288 O   0  0  0  0  0  0  0  0  0  0  0  0
   29.0713  -10.7886  -16.1836 C   0  0  0  0  0  0  0  0  0  0  0  0
   28.8406   -9.7057  -17.0085 C   0  0  0  0  0  0  0  0  0  0  0  0
   27.6536   -9.0155  -16.9961 C   0  0  0  0  0  0  0  0  0  0  0  0
   26.6582   -9.4170  -16.1318 C   0  0  0  0  0  0  0  0  0  0  0  0
   25.3833   -8.6727  -16.1219 C   0  0  0  0  0  0  0  0  0  0  0  0
   24.2551   -9.4338  -16.7415 C   0  0  2  0  0  0  0  0  0  0  0  0
   24.7043   -9.9931  -17.9999 N   0  0  0  0  0  0  0  0  0  0  0  0
   23.0388   -8.5932  -16.9295 C   0  0  0  0  0  0  0  0  0  0  0  0
   22.9813   -7.7930  -17.8975 O   0  0  0  0  0  0  0  0  0  0  0  0
   26.8468  -10.4953  -15.2898 C   0  0  0  0  0  0  0  0  0  0  0  0
   28.0498  -11.1555  -15.3358 C   0  0  0  0  0  0  0  0  0  0  0  0
   21.9700   -8.6983  -16.0290 N   0  0  0  0  0  0  0  0  0  0  0  0
   20.6981   -8.0545  -16.0804 C   0  0  1  0  0  0  0  0  0  0  0  0
   19.5339   -8.8738  -15.5842 C   0  0  0  0  0  0  0  0  0  0  0  0
   18.1827   -8.2931  -15.7635 C   0  0  0  0  0  0  0  0  0  0  0  0
   17.0693   -9.1523  -15.2273 C   0  0  0  0  0  0  0  0  0  0  0  0
   15.9791   -8.6675  -14.8886 O   0  0  0  0  0  0  0  0  0  0  0  0
   20.6677   -6.7297  -15.4648 C   0  0  0  0  0  0  0  0  0  0  0  0
   21.1939   -6.5011  -14.3161 O   0  0  0  0  0  0  0  0  0  0  0  0
   17.2329  -10.5252  -15.0939 O   0  0  0  0  0  0  0  0  0  0  0  0
   20.0458   -5.6392  -16.1314 N   0  0  0  0  0  0  0  0  0  0  0  0
   20.0815   -4.3067  -15.5378 C   0  0  1  0  0  0  0  0  0  0  0  0
   20.5952   -3.3533  -16.6166 C   0  0  0  0  0  0  0  0  0  0  0  0
   20.5766   -1.9794  -16.0361 C   0  0  0  0  0  0  0  0  0  0  0  0
   20.9225   -1.8170  -14.8224 O   0  0  0  0  0  0  0  0  0  0  0  0
   18.7109   -3.9645  -15.1016 C   0  0  0  0  0  0  0  0  0  0  0  0
   17.7266   -4.5487  -15.6184 O   0  0  0  0  0  0  0  0  0  0  0  0
   20.1792   -0.9125  -16.8404 O   0  0  0  0  0  0  0  0  0  0  0  0
   18.5039   -3.0134  -14.1358 O   0  0  0  0  0  0  0  0  0  0  0  0
  2  1  1  0
  3  2  2  0
  4  3  1  0
  5 11  1  0
  5  4  2  0
  6  5  1  0
  7  9  1  0
  7  6  1  0
  7  8  1  6
  9 10  2  0
 11 12  2  0
 12  2  1  0
 13 14  1  0
 13  9  1  0
 14 15  1  1
 15 16  1  0
 16 17  1  0
 17 21  1  0
 17 18  2  0
 19 14  1  0
 20 19  2  0
 22 19  1  0
 23 27  1  0
 23 22  1  0
 23 24  1  6
 25 24  1  0
 26 25  2  0
 27 30  1  0
 28 27  2  0
 29 25  1  0
M  END
$$$$
