YED.pdb
     RDKit          3D

 30 30  0  0  1  0  0  0  0  0999 V2000
   14.4103  -14.9835   -9.5864 O   0  0  0  0  0  0  0  0  0  0  0  0
   14.6687  -13.7183  -10.0860 C   0  0  0  0  0  0  0  0  0  0  0  0
   15.9538  -13.3589  -10.4407 C   0  0  0  0  0  0  0  0  0  0  0  0
   16.2552  -12.1155  -10.9389 C   0  0  0  0  0  0  0  0  0  0  0  0
   15.2413  -11.1947  -11.0910 C   0  0  0  0  0  0  0  0  0  0  0  0
   15.5694   -9.8590  -11.6276 C   0  0  0  0  0  0  0  0  0  0  0  0
   16.1749   -8.9494  -10.6066 C   0  0  2  0  0  0  0  0  0  0  0  0
   15.2029   -8.7095   -9.5597 N   0  0  0  0  0  0  0  0  0  0  0  0
   16.6543   -7.6691  -11.2000 C   0  0  0  0  0  0  0  0  0  0  0  0
   15.9868   -6.6175  -11.0284 O   0  0  0  0  0  0  0  0  0  0  0  0
   13.9416  -11.5128  -10.7492 C   0  0  0  0  0  0  0  0  0  0  0  0
   13.6864  -12.7678  -10.2543 C   0  0  0  0  0  0  0  0  0  0  0  0
   17.8416   -7.6444  -11.9441 N   0  0  0  0  0  0  0  0  0  0  0  0
   18.3682   -6.5861  -12.7425 C   0  0  1  0  0  0  0  0  0  0  0  0
   19.8178   -6.7249  -13.1327 C   0  0  0  0  0  0  0  0  0  0  0  0
   20.8225   -6.2451  -12.1552 C   0  0  0  0  0  0  0  0  0  0  0  0
   22.2477   -6.4011  -12.6134 C   0  0  0  0  0  0  0  0  0  0  0  0
   23.0188   -5.4320  -12.6810 O   0  0  0  0  0  0  0  0  0  0  0  0
   17.5678   -6.2651  -13.9221 C   0  0  0  0  0  0  0  0  0  0  0  0
   17.0407   -7.1779  -14.6553 O   0  0  0  0  0  0  0  0  0  0  0  0
   22.7443   -7.6459  -12.9781 O   0  0  0  0  0  0  0  0  0  0  0  0
   17.3457   -4.9120  -14.2962 N   0  0  0  0  0  0  0  0  0  0  0  0
   16.4866   -4.6026  -15.4344 C   0  0  1  0  0  0  0  0  0  0  0  0
   15.0778   -5.0687  -15.0673 C   0  0  0  0  0  0  0  0  0  0  0  0
   14.1672   -4.6242  -16.1619 C   0  0  0  0  0  0  0  0  0  0  0  0
   14.6604   -4.0265  -17.1711 O   0  0  0  0  0  0  0  0  0  0  0  0
   16.5456   -3.1438  -15.6674 C   0  0  0  0  0  0  0  0  0  0  0  0
   16.1546   -2.6697  -16.7627 O   0  0  0  0  0  0  0  0  0  0  0  0
   12.8009   -4.8756  -16.0467 O   0  0  0  0  0  0  0  0  0  0  0  0
   17.0241   -2.3018  -14.6967 O   0  0  0  0  0  0  0  0  0  0  0  0
  2  1  1  0
  3  2  2  0
  4  3  1  0
  5 11  1  0
  5  4  2  0
  6  5  1  0
  7  9  1  0
  7  6  1  0
  7  8  1  1
  9 10  2  0
 11 12  2  0
 12  2  1  0
 13 14  1  0
 13  9  1  0
 14 15  1  6
 15 16  1  0
 16 17  1  0
 17 21  1  0
 17 18  2  0
 19 14  1  0
 20 19  2  0
 22 19  1  0
 23 27  1  0
 23 22  1  0
 23 24  1  1
 25 24  1  0
 26 25  2  0
 27 30  1  0
 28 27  2  0
 29 25  1  0
M  END
$$$$
