EYM.pdb
     RDKit          3D

 30 30  0  0  1  0  0  0  0  0999 V2000
   10.0255  -16.1253   14.7181 N   0  0  0  0  0  0  0  0  0  0  0  0
   10.6410  -17.1672   15.5632 C   0  0  1  0  0  0  0  0  0  0  0  0
   11.8831  -17.6853   14.9158 C   0  0  0  0  0  0  0  0  0  0  0  0
   11.9583  -17.3662   13.4540 C   0  0  0  0  0  0  0  0  0  0  0  0
   13.2221  -17.9643   12.8905 C   0  0  0  0  0  0  0  0  0  0  0  0
   13.2031  -18.6494   11.8361 O   0  0  0  0  0  0  0  0  0  0  0  0
   10.9595  -16.5355   16.8509 C   0  0  0  0  0  0  0  0  0  0  0  0
   11.2551  -15.3237   16.8938 O   0  0  0  0  0  0  0  0  0  0  0  0
   14.4316  -17.7680   13.5281 O   0  0  0  0  0  0  0  0  0  0  0  0
   11.7293  -16.1815   25.7010 O   0  0  0  0  0  0  0  0  0  0  0  0
   11.3754  -16.4631   24.3720 C   0  0  0  0  0  0  0  0  0  0  0  0
   11.9041  -17.5834   23.7851 C   0  0  0  0  0  0  0  0  0  0  0  0
   11.5825  -17.8996   22.4762 C   0  0  0  0  0  0  0  0  0  0  0  0
   10.7136  -17.0601   21.7688 C   0  0  0  0  0  0  0  0  0  0  0  0
   10.4211  -17.4059   20.3695 C   0  0  0  0  0  0  0  0  0  0  0  0
   11.1692  -16.6256   19.3665 C   0  0  2  0  0  0  0  0  0  0  0  0
   10.9411  -17.2647   18.0513 N   0  0  0  0  0  0  0  0  0  0  0  0
   12.6009  -16.4422   19.5204 C   0  0  0  0  0  0  0  0  0  0  0  0
   13.3449  -17.4269   19.1432 O   0  0  0  0  0  0  0  0  0  0  0  0
   10.2064  -15.9434   22.4018 C   0  0  0  0  0  0  0  0  0  0  0  0
   10.5227  -15.6287   23.6950 C   0  0  0  0  0  0  0  0  0  0  0  0
   18.9349  -12.5059   18.0669 C   0  0  0  0  0  0  0  0  0  0  0  0
   17.1703  -12.3995   18.4735 S   0  0  0  0  0  0  0  0  0  0  0  0
   16.6696  -13.9996   19.1649 C   0  0  0  0  0  0  0  0  0  0  0  0
   15.1826  -14.0150   19.2594 C   0  0  0  0  0  0  0  0  0  0  0  0
   14.7170  -15.2526   19.9662 C   0  0  2  0  0  0  0  0  0  0  0  0
   13.2669  -15.2974   20.0342 N   0  0  0  0  0  0  0  0  0  0  0  0
   15.2962  -15.3198   21.3163 C   0  0  0  0  0  0  0  0  0  0  0  0
   16.5252  -15.4741   21.5369 O   0  0  0  0  0  0  0  0  0  0  0  0
   14.4192  -15.2032   22.4087 O   0  0  0  0  0  0  0  0  0  0  0  0
  2  7  1  0
  2  3  1  0
  2  1  1  6
  3  4  1  0
  4  5  1  0
  5  6  2  0
  7  8  2  0
  9  5  1  0
 10 11  1  0
 11 21  2  0
 12 13  2  0
 12 11  1  0
 13 14  1  0
 14 15  1  0
 14 20  2  0
 16 15  1  1
 16 18  1  0
 17 16  1  0
 17  7  1  0
 18 19  2  0
 18 27  1  0
 21 20  1  0
 22 23  1  0
 23 24  1  0
 24 25  1  0
 26 25  1  1
 26 28  1  0
 27 26  1  0
 28 29  2  0
 28 30  1  0
M  END
$$$$
