EYM.pdb
     RDKit          3D

 30 30  0  0  1  0  0  0  0  0999 V2000
   10.6457  -16.8928   18.2410 N   0  0  0  0  0  0  0  0  0  0  0  0
   10.0432  -17.6546   19.3525 C   0  0  1  0  0  0  0  0  0  0  0  0
   10.8598  -18.8709   19.6427 C   0  0  0  0  0  0  0  0  0  0  0  0
   12.0160  -19.0375   18.7047 C   0  0  0  0  0  0  0  0  0  0  0  0
   12.7807  -20.2776   19.0916 C   0  0  0  0  0  0  0  0  0  0  0  0
   13.9826  -20.2128   19.4562 O   0  0  0  0  0  0  0  0  0  0  0  0
   10.0235  -16.7604   20.5181 C   0  0  0  0  0  0  0  0  0  0  0  0
   10.9107  -15.8929   20.6524 O   0  0  0  0  0  0  0  0  0  0  0  0
   12.1691  -21.5154   19.0517 O   0  0  0  0  0  0  0  0  0  0  0  0
    5.8797  -11.9748   26.7080 O   0  0  0  0  0  0  0  0  0  0  0  0
    6.2474  -12.9035   25.7217 C   0  0  0  0  0  0  0  0  0  0  0  0
    6.9284  -12.4459   24.6237 C   0  0  0  0  0  0  0  0  0  0  0  0
    7.3108  -13.3266   23.6262 C   0  0  0  0  0  0  0  0  0  0  0  0
    6.9913  -14.6832   23.7594 C   0  0  0  0  0  0  0  0  0  0  0  0
    7.3810  -15.5854   22.6651 C   0  0  0  0  0  0  0  0  0  0  0  0
    8.8319  -15.8136   22.5340 C   0  0  2  0  0  0  0  0  0  0  0  0
    9.0226  -16.8541   21.4991 N   0  0  0  0  0  0  0  0  0  0  0  0
    9.6054  -16.2079   23.6973 C   0  0  0  0  0  0  0  0  0  0  0  0
    9.8638  -17.4674   23.8091 O   0  0  0  0  0  0  0  0  0  0  0  0
    6.3045  -15.0970   24.8828 C   0  0  0  0  0  0  0  0  0  0  0  0
    5.9254  -14.2287   25.8696 C   0  0  0  0  0  0  0  0  0  0  0  0
   10.1268  -13.1068   29.1518 C   0  0  0  0  0  0  0  0  0  0  0  0
   10.5928  -14.7495   29.7642 S   0  0  0  0  0  0  0  0  0  0  0  0
   11.0148  -15.7712   28.3265 C   0  0  0  0  0  0  0  0  0  0  0  0
   10.3457  -15.1833   27.1318 C   0  0  0  0  0  0  0  0  0  0  0  0
   10.6896  -15.9683   25.9016 C   0  0  2  0  0  0  0  0  0  0  0  0
   10.1106  -15.3582   24.7175 N   0  0  0  0  0  0  0  0  0  0  0  0
   10.2326  -17.3595   26.0374 C   0  0  0  0  0  0  0  0  0  0  0  0
    9.0464  -17.7232   25.8287 O   0  0  0  0  0  0  0  0  0  0  0  0
   11.1815  -18.3233   26.4202 O   0  0  0  0  0  0  0  0  0  0  0  0
  2  7  1  0
  2  3  1  0
  2  1  1  6
  3  4  1  0
  4  5  1  0
  5  6  2  0
  7  8  2  0
  9  5  1  0
 10 11  1  0
 11 21  2  0
 12 13  2  0
 12 11  1  0
 13 14  1  0
 14 15  1  0
 14 20  2  0
 16 15  1  1
 16 18  1  0
 17 16  1  0
 17  7  1  0
 18 19  2  0
 18 27  1  0
 21 20  1  0
 22 23  1  0
 23 24  1  0
 24 25  1  0
 26 25  1  1
 26 28  1  0
 27 26  1  0
 28 29  2  0
 28 30  1  0
M  END
$$$$
