EYM.pdb
     RDKit          3D

 30 30  0  0  1  0  0  0  0  0999 V2000
   10.0356  -17.1744   18.5970 N   0  0  0  0  0  0  0  0  0  0  0  0
    8.8104  -16.3614   18.7260 C   0  0  1  0  0  0  0  0  0  0  0  0
    7.8467  -16.7097   17.6396 C   0  0  0  0  0  0  0  0  0  0  0  0
    8.3870  -17.7270   16.6817 C   0  0  0  0  0  0  0  0  0  0  0  0
    7.3465  -18.0009   15.6259 C   0  0  0  0  0  0  0  0  0  0  0  0
    7.2746  -17.2971   14.5861 O   0  0  0  0  0  0  0  0  0  0  0  0
    8.2332  -16.6699   20.0414 C   0  0  0  0  0  0  0  0  0  0  0  0
    7.1368  -16.1735   20.3722 O   0  0  0  0  0  0  0  0  0  0  0  0
    6.4478  -19.0377   15.7842 O   0  0  0  0  0  0  0  0  0  0  0  0
    7.3363  -20.9287   27.7933 O   0  0  0  0  0  0  0  0  0  0  0  0
    7.7360  -20.4770   26.5257 C   0  0  0  0  0  0  0  0  0  0  0  0
    6.7989  -20.4422   25.5259 C   0  0  0  0  0  0  0  0  0  0  0  0
    7.1491  -20.0039   24.2602 C   0  0  0  0  0  0  0  0  0  0  0  0
    8.4683  -19.5998   24.0226 C   0  0  0  0  0  0  0  0  0  0  0  0
    8.8149  -19.1737   22.6582 C   0  0  0  0  0  0  0  0  0  0  0  0
    8.3218  -17.8364   22.2801 C   0  0  2  0  0  0  0  0  0  0  0  0
    8.8874  -17.5180   20.9501 N   0  0  0  0  0  0  0  0  0  0  0  0
    8.5821  -16.7025   23.1481 C   0  0  0  0  0  0  0  0  0  0  0  0
    9.7359  -16.1391   23.0184 O   0  0  0  0  0  0  0  0  0  0  0  0
    9.3766  -19.6525   25.0604 C   0  0  0  0  0  0  0  0  0  0  0  0
    9.0332  -20.0853   26.3119 C   0  0  0  0  0  0  0  0  0  0  0  0
    6.4689  -10.8049   27.8135 C   0  0  0  0  0  0  0  0  0  0  0  0
    5.9526  -12.0290   26.5784 S   0  0  0  0  0  0  0  0  0  0  0  0
    7.4134  -13.0060   26.1309 C   0  0  0  0  0  0  0  0  0  0  0  0
    6.9640  -14.1404   25.2755 C   0  0  0  0  0  0  0  0  0  0  0  0
    8.1381  -14.9695   24.8486 C   0  0  2  0  0  0  0  0  0  0  0  0
    7.7039  -16.1464   24.1165 N   0  0  0  0  0  0  0  0  0  0  0  0
    8.9415  -15.3596   26.0169 C   0  0  0  0  0  0  0  0  0  0  0  0
    9.6761  -14.5596   26.6518 O   0  0  0  0  0  0  0  0  0  0  0  0
    8.8749  -16.6997   26.4361 O   0  0  0  0  0  0  0  0  0  0  0  0
  2  7  1  0
  2  3  1  0
  2  1  1  6
  3  4  1  0
  4  5  1  0
  5  6  2  0
  7  8  2  0
  9  5  1  0
 10 11  1  0
 11 21  2  0
 12 13  2  0
 12 11  1  0
 13 14  1  0
 14 15  1  0
 14 20  2  0
 16 15  1  1
 16 18  1  0
 17 16  1  0
 17  7  1  0
 18 19  2  0
 18 27  1  0
 21 20  1  0
 22 23  1  0
 23 24  1  0
 24 25  1  0
 26 25  1  1
 26 28  1  0
 27 26  1  0
 28 29  2  0
 28 30  1  0
M  END
$$$$
