EYM.pdb
     RDKit          3D

 30 30  0  0  1  0  0  0  0  0999 V2000
    6.6104  -18.9472   18.7279 N   0  0  0  0  0  0  0  0  0  0  0  0
    7.7103  -18.2243   19.3960 C   0  0  1  0  0  0  0  0  0  0  0  0
    7.8510  -16.8551   18.8164 C   0  0  0  0  0  0  0  0  0  0  0  0
    7.9964  -16.8626   17.3254 C   0  0  0  0  0  0  0  0  0  0  0  0
    9.3484  -17.4278   16.9719 C   0  0  0  0  0  0  0  0  0  0  0  0
   10.3923  -17.0224   17.5443 O   0  0  0  0  0  0  0  0  0  0  0  0
    7.3615  -18.1443   20.8210 C   0  0  0  0  0  0  0  0  0  0  0  0
    6.2358  -17.7285   21.1641 O   0  0  0  0  0  0  0  0  0  0  0  0
    9.4640  -18.4084   16.0060 O   0  0  0  0  0  0  0  0  0  0  0  0
    7.8186  -19.9605   29.4773 O   0  0  0  0  0  0  0  0  0  0  0  0
    8.0370  -19.8608   28.0941 C   0  0  0  0  0  0  0  0  0  0  0  0
    6.9718  -20.0600   27.2548 C   0  0  0  0  0  0  0  0  0  0  0  0
    7.1415  -19.9716   25.8836 C   0  0  0  0  0  0  0  0  0  0  0  0
    8.4120  -19.6769   25.3745 C   0  0  0  0  0  0  0  0  0  0  0  0
    8.5648  -19.6255   23.9125 C   0  0  0  0  0  0  0  0  0  0  0  0
    7.9296  -18.4650   23.2612 C   0  0  2  0  0  0  0  0  0  0  0  0
    8.2694  -18.5268   21.8222 N   0  0  0  0  0  0  0  0  0  0  0  0
    8.2356  -17.1240   23.7249 C   0  0  0  0  0  0  0  0  0  0  0  0
    9.3561  -16.6247   23.3242 O   0  0  0  0  0  0  0  0  0  0  0  0
    9.4541  -19.4844   26.2588 C   0  0  0  0  0  0  0  0  0  0  0  0
    9.2890  -19.5714   27.6140 C   0  0  0  0  0  0  0  0  0  0  0  0
    6.3180  -10.1385   26.6968 C   0  0  0  0  0  0  0  0  0  0  0  0
    5.7238  -11.7599   26.1412 S   0  0  0  0  0  0  0  0  0  0  0  0
    7.1721  -12.7382   25.6573 C   0  0  0  0  0  0  0  0  0  0  0  0
    6.6974  -14.0877   25.2401 C   0  0  0  0  0  0  0  0  0  0  0  0
    7.8530  -14.9336   24.7964 C   0  0  2  0  0  0  0  0  0  0  0  0
    7.4340  -16.3048   24.5643 N   0  0  0  0  0  0  0  0  0  0  0  0
    8.9330  -14.8891   25.7936 C   0  0  0  0  0  0  0  0  0  0  0  0
    9.6555  -13.8778   25.9888 O   0  0  0  0  0  0  0  0  0  0  0  0
    9.1581  -16.0438   26.5630 O   0  0  0  0  0  0  0  0  0  0  0  0
  2  7  1  0
  2  3  1  0
  2  1  1  6
  3  4  1  0
  4  5  1  0
  5  6  2  0
  7  8  2  0
  9  5  1  0
 10 11  1  0
 11 21  2  0
 12 13  2  0
 12 11  1  0
 13 14  1  0
 14 15  1  0
 14 20  2  0
 16 15  1  1
 16 18  1  0
 17 16  1  0
 17  7  1  0
 18 19  2  0
 18 27  1  0
 21 20  1  0
 22 23  1  0
 23 24  1  0
 24 25  1  0
 26 25  1  1
 26 28  1  0
 27 26  1  0
 28 29  2  0
 28 30  1  0
M  END
$$$$
