EYM.pdb
     RDKit          3D

 30 30  0  0  1  0  0  0  0  0999 V2000
    8.7831  -18.3325   19.9746 N   0  0  0  0  0  0  0  0  0  0  0  0
   10.2306  -18.1497   20.1984 C   0  0  1  0  0  0  0  0  0  0  0  0
   10.9213  -17.8869   18.9007 C   0  0  0  0  0  0  0  0  0  0  0  0
   10.1795  -18.4367   17.7208 C   0  0  0  0  0  0  0  0  0  0  0  0
   10.9701  -18.1448   16.4709 C   0  0  0  0  0  0  0  0  0  0  0  0
   12.0829  -18.6925   16.2630 O   0  0  0  0  0  0  0  0  0  0  0  0
   10.3785  -16.9989   21.0999 C   0  0  0  0  0  0  0  0  0  0  0  0
   11.5173  -16.6015   21.4208 O   0  0  0  0  0  0  0  0  0  0  0  0
   10.4813  -17.2641   15.5258 O   0  0  0  0  0  0  0  0  0  0  0  0
    7.4145  -13.3993   16.5727 O   0  0  0  0  0  0  0  0  0  0  0  0
    7.5842  -13.6322   17.9467 C   0  0  0  0  0  0  0  0  0  0  0  0
    8.3817  -12.7715   18.6552 C   0  0  0  0  0  0  0  0  0  0  0  0
    8.5772  -12.9633   20.0123 C   0  0  0  0  0  0  0  0  0  0  0  0
    7.9497  -14.0446   20.6424 C   0  0  0  0  0  0  0  0  0  0  0  0
    8.2072  -14.2398   22.0773 C   0  0  0  0  0  0  0  0  0  0  0  0
    9.3867  -15.0675   22.3907 C   0  0  2  0  0  0  0  0  0  0  0  0
    9.2613  -16.3236   21.6184 N   0  0  0  0  0  0  0  0  0  0  0  0
    9.6660  -15.4281   23.7687 C   0  0  0  0  0  0  0  0  0  0  0  0
   10.6587  -14.8206   24.3263 O   0  0  0  0  0  0  0  0  0  0  0  0
    7.1560  -14.8843   19.8876 C   0  0  0  0  0  0  0  0  0  0  0  0
    6.9613  -14.6971   18.5465 C   0  0  0  0  0  0  0  0  0  0  0  0
    7.0476  -11.4308   27.0049 C   0  0  0  0  0  0  0  0  0  0  0  0
    6.0057  -12.9109   26.8858 S   0  0  0  0  0  0  0  0  0  0  0  0
    7.0798  -14.3562   27.1002 C   0  0  0  0  0  0  0  0  0  0  0  0
    7.5719  -14.7675   25.7552 C   0  0  0  0  0  0  0  0  0  0  0  0
    8.4858  -15.9503   25.8727 C   0  0  2  0  0  0  0  0  0  0  0  0
    8.9626  -16.3699   24.5665 N   0  0  0  0  0  0  0  0  0  0  0  0
    7.8008  -17.0615   26.5500 C   0  0  0  0  0  0  0  0  0  0  0  0
    7.5616  -17.0790   27.7850 O   0  0  0  0  0  0  0  0  0  0  0  0
    7.3967  -18.1545   25.7640 O   0  0  0  0  0  0  0  0  0  0  0  0
  2  7  1  0
  2  3  1  0
  2  1  1  6
  3  4  1  0
  4  5  1  0
  5  6  2  0
  7  8  2  0
  9  5  1  0
 10 11  1  0
 11 21  2  0
 12 13  2  0
 12 11  1  0
 13 14  1  0
 14 15  1  0
 14 20  2  0
 16 15  1  1
 16 18  1  0
 17 16  1  0
 17  7  1  0
 18 19  2  0
 18 27  1  0
 21 20  1  0
 22 23  1  0
 23 24  1  0
 24 25  1  0
 26 25  1  6
 26 28  1  0
 27 26  1  0
 28 29  2  0
 28 30  1  0
M  END
$$$$
