EYM.pdb
     RDKit          3D

 30 30  0  0  1  0  0  0  0  0999 V2000
    7.3313  -20.3081   18.9570 N   0  0  0  0  0  0  0  0  0  0  0  0
    8.2185  -19.2760   19.5283 C   0  0  1  0  0  0  0  0  0  0  0  0
    8.1967  -18.0509   18.6745 C   0  0  0  0  0  0  0  0  0  0  0  0
    8.1292  -18.3590   17.2100 C   0  0  0  0  0  0  0  0  0  0  0  0
    8.0799  -17.0626   16.4424 C   0  0  0  0  0  0  0  0  0  0  0  0
    8.1737  -15.9550   17.0308 O   0  0  0  0  0  0  0  0  0  0  0  0
    7.7070  -18.9734   20.8720 C   0  0  0  0  0  0  0  0  0  0  0  0
    6.4782  -18.8628   21.0602 O   0  0  0  0  0  0  0  0  0  0  0  0
    7.9298  -17.0697   15.0694 O   0  0  0  0  0  0  0  0  0  0  0  0
    4.9768  -23.5156   25.9917 O   0  0  0  0  0  0  0  0  0  0  0  0
    5.8735  -22.5223   25.5674 C   0  0  0  0  0  0  0  0  0  0  0  0
    6.5548  -22.7237   24.3951 C   0  0  0  0  0  0  0  0  0  0  0  0
    7.4493  -21.7706   23.9387 C   0  0  0  0  0  0  0  0  0  0  0  0
    7.6431  -20.6060   24.6914 C   0  0  0  0  0  0  0  0  0  0  0  0
    8.6264  -19.6308   24.1962 C   0  0  0  0  0  0  0  0  0  0  0  0
    8.0706  -18.5678   23.3385 C   0  0  2  0  0  0  0  0  0  0  0  0
    8.5715  -18.8022   21.9658 N   0  0  0  0  0  0  0  0  0  0  0  0
    8.3236  -17.1760   23.6638 C   0  0  0  0  0  0  0  0  0  0  0  0
    9.5188  -16.7460   23.4355 O   0  0  0  0  0  0  0  0  0  0  0  0
    6.9345  -20.4477   25.8651 C   0  0  0  0  0  0  0  0  0  0  0  0
    6.0502  -21.3881   26.3183 C   0  0  0  0  0  0  0  0  0  0  0  0
    6.5093  -10.0267   26.3101 C   0  0  0  0  0  0  0  0  0  0  0  0
    5.8771  -11.6862   25.9403 S   0  0  0  0  0  0  0  0  0  0  0  0
    7.2905  -12.7178   25.4639 C   0  0  0  0  0  0  0  0  0  0  0  0
    6.7691  -14.0526   25.0554 C   0  0  0  0  0  0  0  0  0  0  0  0
    7.8961  -14.9464   24.6324 C   0  0  2  0  0  0  0  0  0  0  0  0
    7.3984  -16.2402   24.1989 N   0  0  0  0  0  0  0  0  0  0  0  0
    8.8603  -15.1096   25.7309 C   0  0  0  0  0  0  0  0  0  0  0  0
    8.7778  -16.0188   26.5966 O   0  0  0  0  0  0  0  0  0  0  0  0
    9.9255  -14.1955   25.8049 O   0  0  0  0  0  0  0  0  0  0  0  0
  2  7  1  0
  2  3  1  0
  2  1  1  6
  3  4  1  0
  4  5  1  0
  5  6  2  0
  7  8  2  0
  9  5  1  0
 10 11  1  0
 11 21  2  0
 12 13  2  0
 12 11  1  0
 13 14  1  0
 14 15  1  0
 14 20  2  0
 16 15  1  1
 16 18  1  0
 17 16  1  0
 17  7  1  0
 18 19  2  0
 18 27  1  0
 21 20  1  0
 22 23  1  0
 23 24  1  0
 24 25  1  0
 26 25  1  1
 26 28  1  0
 27 26  1  0
 28 29  2  0
 28 30  1  0
M  END
$$$$
