EYM.pdb
     RDKit          3D

 30 30  0  0  1  0  0  0  0  0999 V2000
   11.5048  -16.7467   18.9016 N   0  0  0  0  0  0  0  0  0  0  0  0
   10.7412  -17.5488   19.8774 C   0  0  1  0  0  0  0  0  0  0  0  0
   11.5104  -18.7739   20.2484 C   0  0  0  0  0  0  0  0  0  0  0  0
   12.7006  -19.0067   19.3689 C   0  0  0  0  0  0  0  0  0  0  0  0
   13.1072  -20.4544   19.4747 C   0  0  0  0  0  0  0  0  0  0  0  0
   14.1460  -20.7940   20.0969 O   0  0  0  0  0  0  0  0  0  0  0  0
   10.5337  -16.6972   21.0566 C   0  0  0  0  0  0  0  0  0  0  0  0
   11.3909  -15.8451   21.3679 O   0  0  0  0  0  0  0  0  0  0  0  0
   12.3393  -21.4398   18.8854 O   0  0  0  0  0  0  0  0  0  0  0  0
    6.0700  -11.9622   26.9635 O   0  0  0  0  0  0  0  0  0  0  0  0
    6.4851  -12.8124   25.9264 C   0  0  0  0  0  0  0  0  0  0  0  0
    6.1967  -14.1484   26.0303 C   0  0  0  0  0  0  0  0  0  0  0  0
    6.5872  -15.0233   25.0309 C   0  0  0  0  0  0  0  0  0  0  0  0
    7.2769  -14.5215   23.9207 C   0  0  0  0  0  0  0  0  0  0  0  0
    7.7081  -15.4833   22.8948 C   0  0  0  0  0  0  0  0  0  0  0  0
    9.1169  -15.9077   22.9930 C   0  0  2  0  0  0  0  0  0  0  0  0
    9.3840  -16.8152   21.8549 N   0  0  0  0  0  0  0  0  0  0  0  0
    9.5864  -16.5678   24.1975 C   0  0  0  0  0  0  0  0  0  0  0  0
   10.0027  -17.7812   24.0564 O   0  0  0  0  0  0  0  0  0  0  0  0
    7.5446  -13.1689   23.8603 C   0  0  0  0  0  0  0  0  0  0  0  0
    7.1599  -12.3023   24.8465 C   0  0  0  0  0  0  0  0  0  0  0  0
    9.5677  -13.4747   29.0534 C   0  0  0  0  0  0  0  0  0  0  0  0
   11.2395  -13.6202   28.3648 S   0  0  0  0  0  0  0  0  0  0  0  0
   11.5641  -15.3817   28.0810 C   0  0  0  0  0  0  0  0  0  0  0  0
   10.2563  -16.0609   27.8600 C   0  0  0  0  0  0  0  0  0  0  0  0
   10.2674  -16.8043   26.5580 C   0  0  2  0  0  0  0  0  0  0  0  0
    9.6413  -16.0208   25.5074 N   0  0  0  0  0  0  0  0  0  0  0  0
    9.5902  -18.1016   26.7032 C   0  0  0  0  0  0  0  0  0  0  0  0
    9.8421  -19.1002   25.9805 O   0  0  0  0  0  0  0  0  0  0  0  0
    8.6128  -18.2184   27.7068 O   0  0  0  0  0  0  0  0  0  0  0  0
  2  7  1  0
  2  3  1  0
  2  1  1  6
  3  4  1  0
  4  5  1  0
  5  6  2  0
  7  8  2  0
  9  5  1  0
 10 11  1  0
 11 21  2  0
 12 13  2  0
 12 11  1  0
 13 14  1  0
 14 15  1  0
 14 20  2  0
 16 15  1  1
 16 18  1  0
 17 16  1  0
 17  7  1  0
 18 19  2  0
 18 27  1  0
 21 20  1  0
 22 23  1  0
 23 24  1  0
 24 25  1  0
 26 25  1  1
 26 28  1  0
 27 26  1  0
 28 29  2  0
 28 30  1  0
M  END
$$$$
