EYM.pdb
     RDKit          3D

 30 30  0  0  1  0  0  0  0  0999 V2000
    8.7775  -20.5580   19.1859 N   0  0  0  0  0  0  0  0  0  0  0  0
    9.1281  -19.1822   19.5895 C   0  0  1  0  0  0  0  0  0  0  0  0
    8.5412  -18.2004   18.6293 C   0  0  0  0  0  0  0  0  0  0  0  0
    9.0164  -18.4014   17.2228 C   0  0  0  0  0  0  0  0  0  0  0  0
    8.5045  -17.2684   16.3704 C   0  0  0  0  0  0  0  0  0  0  0  0
    9.2651  -16.3371   16.0020 O   0  0  0  0  0  0  0  0  0  0  0  0
    8.5712  -18.9796   20.9340 C   0  0  0  0  0  0  0  0  0  0  0  0
    7.3504  -18.7623   21.0761 O   0  0  0  0  0  0  0  0  0  0  0  0
    7.1809  -17.2341   15.9768 O   0  0  0  0  0  0  0  0  0  0  0  0
    7.9874  -19.7237   29.7202 O   0  0  0  0  0  0  0  0  0  0  0  0
    8.3286  -19.7750   28.3595 C   0  0  0  0  0  0  0  0  0  0  0  0
    9.6463  -19.6172   28.0164 C   0  0  0  0  0  0  0  0  0  0  0  0
   10.0281  -19.6605   26.6863 C   0  0  0  0  0  0  0  0  0  0  0  0
    9.0502  -19.8672   25.7059 C   0  0  0  0  0  0  0  0  0  0  0  0
    9.4850  -19.8723   24.3007 C   0  0  0  0  0  0  0  0  0  0  0  0
    8.8316  -18.8656   23.4439 C   0  0  2  0  0  0  0  0  0  0  0  0
    9.3828  -19.0237   22.0796 N   0  0  0  0  0  0  0  0  0  0  0  0
    8.9215  -17.4590   23.7909 C   0  0  0  0  0  0  0  0  0  0  0  0
   10.0465  -16.8804   23.5361 O   0  0  0  0  0  0  0  0  0  0  0  0
    7.7364  -20.0208   26.0996 C   0  0  0  0  0  0  0  0  0  0  0  0
    7.3566  -19.9783   27.4131 C   0  0  0  0  0  0  0  0  0  0  0  0
    6.3243  -10.6122   26.5675 C   0  0  0  0  0  0  0  0  0  0  0  0
    5.9010  -12.1491   25.7019 S   0  0  0  0  0  0  0  0  0  0  0  0
    7.3643  -13.2196   25.7382 C   0  0  0  0  0  0  0  0  0  0  0  0
    7.0032  -14.5146   25.0954 C   0  0  0  0  0  0  0  0  0  0  0  0
    8.2393  -15.2962   24.7650 C   0  0  2  0  0  0  0  0  0  0  0  0
    7.9057  -16.6544   24.3732 N   0  0  0  0  0  0  0  0  0  0  0  0
    9.1614  -15.3047   25.9107 C   0  0  0  0  0  0  0  0  0  0  0  0
    9.1504  -16.1915   26.8031 O   0  0  0  0  0  0  0  0  0  0  0  0
   10.0997  -14.2619   26.0004 O   0  0  0  0  0  0  0  0  0  0  0  0
  2  7  1  0
  2  3  1  0
  2  1  1  6
  3  4  1  0
  4  5  1  0
  5  6  2  0
  7  8  2  0
  9  5  1  0
 10 11  1  0
 11 21  2  0
 12 13  2  0
 12 11  1  0
 13 14  1  0
 14 15  1  0
 14 20  2  0
 16 15  1  1
 16 18  1  0
 17 16  1  0
 17  7  1  0
 18 19  2  0
 18 27  1  0
 21 20  1  0
 22 23  1  0
 23 24  1  0
 24 25  1  0
 26 25  1  1
 26 28  1  0
 27 26  1  0
 28 29  2  0
 28 30  1  0
M  END
$$$$
