EYM.pdb
     RDKit          3D

 30 30  0  0  1  0  0  0  0  0999 V2000
    9.4579  -18.8686   19.5758 N   0  0  0  0  0  0  0  0  0  0  0  0
   10.6785  -18.0429   19.6591 C   0  0  1  0  0  0  0  0  0  0  0  0
   10.9656  -17.4165   18.3342 C   0  0  0  0  0  0  0  0  0  0  0  0
   10.1406  -17.9914   17.2237 C   0  0  0  0  0  0  0  0  0  0  0  0
   10.4553  -17.2489   15.9501 C   0  0  0  0  0  0  0  0  0  0  0  0
   11.5794  -17.3553   15.3965 O   0  0  0  0  0  0  0  0  0  0  0  0
   10.4225  -17.0082   20.6704 C   0  0  0  0  0  0  0  0  0  0  0  0
   11.2417  -16.0809   20.8337 O   0  0  0  0  0  0  0  0  0  0  0  0
    9.5065  -16.4329   15.3654 O   0  0  0  0  0  0  0  0  0  0  0  0
    6.0747  -12.2816   26.7466 O   0  0  0  0  0  0  0  0  0  0  0  0
    6.4615  -13.1128   25.6835 C   0  0  0  0  0  0  0  0  0  0  0  0
    6.2642  -14.4630   25.8131 C   0  0  0  0  0  0  0  0  0  0  0  0
    6.6308  -15.3202   24.7896 C   0  0  0  0  0  0  0  0  0  0  0  0
    7.2024  -14.7859   23.6286 C   0  0  0  0  0  0  0  0  0  0  0  0
    7.6129  -15.7275   22.5758 C   0  0  0  0  0  0  0  0  0  0  0  0
    9.0483  -16.0650   22.5684 C   0  0  2  0  0  0  0  0  0  0  0  0
    9.2678  -17.0321   21.4699 N   0  0  0  0  0  0  0  0  0  0  0  0
    9.6638  -16.6140   23.7629 C   0  0  0  0  0  0  0  0  0  0  0  0
    9.9831  -17.8635   23.7161 O   0  0  0  0  0  0  0  0  0  0  0  0
    7.3814  -13.4200   23.5440 C   0  0  0  0  0  0  0  0  0  0  0  0
    7.0200  -12.5709   24.5540 C   0  0  0  0  0  0  0  0  0  0  0  0
    9.7195  -12.8686   29.6820 C   0  0  0  0  0  0  0  0  0  0  0  0
   11.0626  -13.7834   28.8758 S   0  0  0  0  0  0  0  0  0  0  0  0
   10.3104  -14.9233   27.6826 C   0  0  0  0  0  0  0  0  0  0  0  0
   11.4058  -15.5430   26.8847 C   0  0  0  0  0  0  0  0  0  0  0  0
   10.8475  -16.5533   25.9279 C   0  0  2  0  0  0  0  0  0  0  0  0
    9.9556  -15.9238   24.9698 N   0  0  0  0  0  0  0  0  0  0  0  0
   10.1452  -17.6183   26.6595 C   0  0  0  0  0  0  0  0  0  0  0  0
   10.7349  -18.5001   27.3360 O   0  0  0  0  0  0  0  0  0  0  0  0
    8.7413  -17.6396   26.5918 O   0  0  0  0  0  0  0  0  0  0  0  0
  2  7  1  0
  2  3  1  0
  2  1  1  6
  3  4  1  0
  4  5  1  0
  5  6  2  0
  7  8  2  0
  9  5  1  0
 10 11  1  0
 11 21  2  0
 12 13  2  0
 12 11  1  0
 13 14  1  0
 14 15  1  0
 14 20  2  0
 16 15  1  1
 16 18  1  0
 17 16  1  0
 17  7  1  0
 18 19  2  0
 18 27  1  0
 21 20  1  0
 22 23  1  0
 23 24  1  0
 24 25  1  0
 26 25  1  1
 26 28  1  0
 27 26  1  0
 28 29  2  0
 28 30  1  0
M  END
$$$$
