EYM.pdb
     RDKit          3D

 30 30  0  0  1  0  0  0  0  0999 V2000
   11.0823  -16.7621   18.5846 N   0  0  0  0  0  0  0  0  0  0  0  0
   10.4570  -17.5696   19.6503 C   0  0  1  0  0  0  0  0  0  0  0  0
   11.3052  -18.7599   19.9568 C   0  0  0  0  0  0  0  0  0  0  0  0
   12.7630  -18.5195   19.7087 C   0  0  0  0  0  0  0  0  0  0  0  0
   13.5233  -19.7841   20.0168 C   0  0  0  0  0  0  0  0  0  0  0  0
   14.2807  -19.8597   21.0179 O   0  0  0  0  0  0  0  0  0  0  0  0
   10.3462  -16.7015   20.8305 C   0  0  0  0  0  0  0  0  0  0  0  0
   11.2191  -15.8374   21.0520 O   0  0  0  0  0  0  0  0  0  0  0  0
   13.3996  -20.8897   19.1981 O   0  0  0  0  0  0  0  0  0  0  0  0
    5.9910  -12.2416   27.1276 O   0  0  0  0  0  0  0  0  0  0  0  0
    6.3956  -13.0797   26.0766 C   0  0  0  0  0  0  0  0  0  0  0  0
    7.1227  -12.5292   25.0533 C   0  0  0  0  0  0  0  0  0  0  0  0
    7.5425  -13.3186   23.9962 C   0  0  0  0  0  0  0  0  0  0  0  0
    7.2131  -14.6793   23.9924 C   0  0  0  0  0  0  0  0  0  0  0  0
    7.6443  -15.4813   22.8373 C   0  0  0  0  0  0  0  0  0  0  0  0
    9.0688  -15.8624   22.8415 C   0  0  2  0  0  0  0  0  0  0  0  0
    9.2729  -16.8169   21.7292 N   0  0  0  0  0  0  0  0  0  0  0  0
    9.6520  -16.4500   24.0338 C   0  0  0  0  0  0  0  0  0  0  0  0
    9.4148  -17.7041   24.2250 O   0  0  0  0  0  0  0  0  0  0  0  0
    6.4794  -15.1884   25.0448 C   0  0  0  0  0  0  0  0  0  0  0  0
    6.0633  -14.4105   26.0903 C   0  0  0  0  0  0  0  0  0  0  0  0
    9.3478  -13.0677   28.6312 C   0  0  0  0  0  0  0  0  0  0  0  0
   10.7563  -13.8975   29.4174 S   0  0  0  0  0  0  0  0  0  0  0  0
   11.3310  -15.1926   28.2855 C   0  0  0  0  0  0  0  0  0  0  0  0
   10.1878  -15.5813   27.4123 C   0  0  0  0  0  0  0  0  0  0  0  0
   10.6627  -16.4490   26.2856 C   0  0  2  0  0  0  0  0  0  0  0  0
   10.4568  -15.7959   25.0047 N   0  0  0  0  0  0  0  0  0  0  0  0
    9.9751  -17.7486   26.3151 C   0  0  0  0  0  0  0  0  0  0  0  0
    8.9661  -18.0154   25.6125 O   0  0  0  0  0  0  0  0  0  0  0  0
   10.4829  -18.7358   27.1774 O   0  0  0  0  0  0  0  0  0  0  0  0
  2  7  1  0
  2  3  1  0
  2  1  1  6
  3  4  1  0
  4  5  1  0
  5  6  2  0
  7  8  2  0
  9  5  1  0
 10 11  1  0
 11 21  2  0
 12 13  2  0
 12 11  1  0
 13 14  1  0
 14 15  1  0
 14 20  2  0
 16 15  1  1
 16 18  1  0
 17 16  1  0
 17  7  1  0
 18 19  2  0
 18 27  1  0
 21 20  1  0
 22 23  1  0
 23 24  1  0
 24 25  1  0
 26 25  1  1
 26 28  1  0
 27 26  1  0
 28 29  2  0
 28 30  1  0
M  END
$$$$
