EYM.pdb
     RDKit          3D

 30 30  0  0  1  0  0  0  0  0999 V2000
    9.5547  -19.1031   19.8370 N   0  0  0  0  0  0  0  0  0  0  0  0
   10.5787  -18.0608   19.6280 C   0  0  1  0  0  0  0  0  0  0  0  0
   10.4635  -17.4974   18.2497 C   0  0  0  0  0  0  0  0  0  0  0  0
   11.1482  -18.3369   17.2149 C   0  0  0  0  0  0  0  0  0  0  0  0
   11.7670  -17.4280   16.1837 C   0  0  0  0  0  0  0  0  0  0  0  0
   11.0822  -16.9517   15.2425 O   0  0  0  0  0  0  0  0  0  0  0  0
   10.3315  -17.0161   20.6311 C   0  0  0  0  0  0  0  0  0  0  0  0
   11.0961  -16.0325   20.7072 O   0  0  0  0  0  0  0  0  0  0  0  0
   13.1069  -17.1006   16.2562 O   0  0  0  0  0  0  0  0  0  0  0  0
    5.8230  -11.9999   26.3457 O   0  0  0  0  0  0  0  0  0  0  0  0
    6.2599  -12.9396   25.3987 C   0  0  0  0  0  0  0  0  0  0  0  0
    6.9262  -12.4812   24.2920 C   0  0  0  0  0  0  0  0  0  0  0  0
    7.3749  -13.3725   23.3323 C   0  0  0  0  0  0  0  0  0  0  0  0
    7.1371  -14.7405   23.5123 C   0  0  0  0  0  0  0  0  0  0  0  0
    7.5958  -15.6562   22.4567 C   0  0  0  0  0  0  0  0  0  0  0  0
    9.0069  -16.0711   22.5630 C   0  0  2  0  0  0  0  0  0  0  0  0
    9.2458  -17.0923   21.5190 N   0  0  0  0  0  0  0  0  0  0  0  0
    9.5069  -16.6037   23.8174 C   0  0  0  0  0  0  0  0  0  0  0  0
   10.2632  -17.6459   23.7324 O   0  0  0  0  0  0  0  0  0  0  0  0
    6.4620  -15.1545   24.6426 C   0  0  0  0  0  0  0  0  0  0  0  0
    6.0175  -14.2758   25.5922 C   0  0  0  0  0  0  0  0  0  0  0  0
    9.5460  -13.2004   29.1008 C   0  0  0  0  0  0  0  0  0  0  0  0
   10.7427  -14.4196   29.7105 S   0  0  0  0  0  0  0  0  0  0  0  0
   11.0407  -15.6104   28.3755 C   0  0  0  0  0  0  0  0  0  0  0  0
   10.0618  -15.3350   27.2862 C   0  0  0  0  0  0  0  0  0  0  0  0
   10.2809  -16.2736   26.1377 C   0  0  2  0  0  0  0  0  0  0  0  0
    9.2579  -16.0986   25.1217 N   0  0  0  0  0  0  0  0  0  0  0  0
   10.3010  -17.6659   26.6109 C   0  0  0  0  0  0  0  0  0  0  0  0
   11.3012  -18.1980   27.1581 O   0  0  0  0  0  0  0  0  0  0  0  0
    9.1345  -18.4306   26.4372 O   0  0  0  0  0  0  0  0  0  0  0  0
  2  7  1  0
  2  3  1  0
  2  1  1  6
  3  4  1  0
  4  5  1  0
  5  6  2  0
  7  8  2  0
  9  5  1  0
 10 11  1  0
 11 21  2  0
 12 13  2  0
 12 11  1  0
 13 14  1  0
 14 15  1  0
 14 20  2  0
 16 15  1  1
 16 18  1  0
 17 16  1  0
 17  7  1  0
 18 19  2  0
 18 27  1  0
 21 20  1  0
 22 23  1  0
 23 24  1  0
 24 25  1  0
 26 25  1  1
 26 28  1  0
 27 26  1  0
 28 29  2  0
 28 30  1  0
M  END
$$$$
