EYM.pdb
     RDKit          3D

 30 30  0  0  1  0  0  0  0  0999 V2000
   10.3028  -17.0146   18.3260 N   0  0  0  0  0  0  0  0  0  0  0  0
   10.2538  -17.8004   19.5746 C   0  0  1  0  0  0  0  0  0  0  0  0
   11.4854  -18.6351   19.7041 C   0  0  0  0  0  0  0  0  0  0  0  0
   12.1603  -18.8905   18.3912 C   0  0  0  0  0  0  0  0  0  0  0  0
   13.4086  -19.6993   18.6359 C   0  0  0  0  0  0  0  0  0  0  0  0
   14.4463  -19.1669   19.1066 O   0  0  0  0  0  0  0  0  0  0  0  0
   10.1699  -16.8358   20.6797 C   0  0  0  0  0  0  0  0  0  0  0  0
   10.9788  -15.8874   20.7413 O   0  0  0  0  0  0  0  0  0  0  0  0
   13.4336  -21.0494   18.3451 O   0  0  0  0  0  0  0  0  0  0  0  0
    6.1328  -12.0147   26.8871 O   0  0  0  0  0  0  0  0  0  0  0  0
    6.4946  -12.9133   25.8710 C   0  0  0  0  0  0  0  0  0  0  0  0
    7.2833  -12.4515   24.8494 C   0  0  0  0  0  0  0  0  0  0  0  0
    7.6641  -13.3028   23.8262 C   0  0  0  0  0  0  0  0  0  0  0  0
    7.2319  -14.6342   23.8546 C   0  0  0  0  0  0  0  0  0  0  0  0
    7.6251  -15.5020   22.7341 C   0  0  0  0  0  0  0  0  0  0  0  0
    9.0339  -15.9375   22.7492 C   0  0  2  0  0  0  0  0  0  0  0  0
    9.1933  -16.9511   21.6828 N   0  0  0  0  0  0  0  0  0  0  0  0
    9.6023  -16.4901   23.9653 C   0  0  0  0  0  0  0  0  0  0  0  0
    9.2317  -17.6870   24.2743 O   0  0  0  0  0  0  0  0  0  0  0  0
    6.4392  -15.0533   24.9038 C   0  0  0  0  0  0  0  0  0  0  0  0
    6.0614  -14.2141   25.9159 C   0  0  0  0  0  0  0  0  0  0  0  0
   10.0604  -12.1402   28.9867 C   0  0  0  0  0  0  0  0  0  0  0  0
    9.8389  -13.9401   28.9447 S   0  0  0  0  0  0  0  0  0  0  0  0
   10.6384  -14.5558   27.4379 C   0  0  0  0  0  0  0  0  0  0  0  0
   10.2429  -15.9810   27.2566 C   0  0  0  0  0  0  0  0  0  0  0  0
   10.9197  -16.5615   26.0512 C   0  0  2  0  0  0  0  0  0  0  0  0
   10.5228  -15.8585   24.8438 N   0  0  0  0  0  0  0  0  0  0  0  0
   10.6150  -17.9954   25.9335 C   0  0  0  0  0  0  0  0  0  0  0  0
   11.3783  -18.9033   26.3529 O   0  0  0  0  0  0  0  0  0  0  0  0
    9.4033  -18.3563   25.3189 O   0  0  0  0  0  0  0  0  0  0  0  0
  2  7  1  0
  2  3  1  0
  2  1  1  6
  3  4  1  0
  4  5  1  0
  5  6  2  0
  7  8  2  0
  9  5  1  0
 10 11  1  0
 11 21  2  0
 12 13  2  0
 12 11  1  0
 13 14  1  0
 14 15  1  0
 14 20  2  0
 16 15  1  1
 16 18  1  0
 17 16  1  0
 17  7  1  0
 18 19  2  0
 18 27  1  0
 21 20  1  0
 22 23  1  0
 23 24  1  0
 24 25  1  0
 26 25  1  1
 26 28  1  0
 27 26  1  0
 28 29  2  0
 28 30  1  0
M  END
$$$$
