CWK.pdb
     RDKit          3D

 30 31  0  0  1  0  0  0  0  0999 V2000
    7.8201  -13.0141   18.0396 N   0  0  0  0  0  0  0  0  0  0  0  0
    7.5289  -14.3094   18.6699 C   0  0  1  0  0  0  0  0  0  0  0  0
    8.2143  -15.3644   17.8287 C   0  0  0  0  0  0  0  0  0  0  0  0
    7.9774  -16.9800   18.6160 S   0  0  0  0  0  0  0  0  0  0  0  0
    8.0894  -14.2507   20.0428 C   0  0  0  0  0  0  0  0  0  0  0  0
    9.1704  -13.6665   20.3106 O   0  0  0  0  0  0  0  0  0  0  0  0
    7.4125  -14.8687   21.1495 N   0  0  0  0  0  0  0  0  0  0  0  0
    7.9610  -14.8253   22.4914 C   0  0  1  0  0  0  0  0  0  0  0  0
    6.7969  -14.8291   23.4583 C   0  0  0  0  0  0  0  0  0  0  0  0
    7.2032  -14.5474   24.8357 C   0  0  0  0  0  0  0  0  0  0  0  0
    7.6726  -15.4725   25.7414 C   0  0  0  0  0  0  0  0  0  0  0  0
    7.9380  -14.8292   26.8935 N   0  0  0  0  0  0  0  0  0  0  0  0
    7.6638  -13.5127   26.7901 C   0  0  0  0  0  0  0  0  0  0  0  0
    7.7686  -12.4647   27.6798 C   0  0  0  0  0  0  0  0  0  0  0  0
    7.3952  -11.2099   27.2427 C   0  0  0  0  0  0  0  0  0  0  0  0
    6.9342  -11.0357   25.9502 C   0  0  0  0  0  0  0  0  0  0  0  0
    6.8235  -12.0732   25.0486 C   0  0  0  0  0  0  0  0  0  0  0  0
    7.1969  -13.3336   25.4824 C   0  0  0  0  0  0  0  0  0  0  0  0
    8.9058  -15.9213   22.7420 C   0  0  0  0  0  0  0  0  0  0  0  0
    8.5777  -17.0959   22.4363 O   0  0  0  0  0  0  0  0  0  0  0  0
   10.1913  -15.7426   23.3177 N   0  0  0  0  0  0  0  0  0  0  0  0
   11.1606  -16.8641   23.4046 C   0  0  1  0  0  0  0  0  0  0  0  0
   12.5117  -16.3559   22.9200 C   0  0  0  0  0  0  0  0  0  0  0  0
   13.5008  -17.4616   22.9018 C   0  0  0  0  0  0  0  0  0  0  0  0
   14.8892  -17.0558   22.4899 C   0  0  0  0  0  0  0  0  0  0  0  0
   15.8856  -18.1470   22.4599 C   0  0  0  0  0  0  0  0  0  0  0  0
   16.3446  -18.5096   21.1566 N   0  0  0  0  0  0  0  0  0  0  0  0
   11.1767  -17.3421   24.7888 C   0  0  0  0  0  0  0  0  0  0  0  0
   10.6624  -16.7650   25.7739 O   0  0  0  0  0  0  0  0  0  0  0  0
   11.8285  -18.5663   25.0580 O   0  0  0  0  0  0  0  0  0  0  0  0
  2  1  1  6
  2  5  1  0
  3  2  1  0
  4  3  1  0
  5  6  2  0
  7  5  1  0
  7  8  1  0
  8  9  1  1
  9 10  1  0
 10 11  2  0
 11 12  1  0
 13 14  2  0
 13 12  1  0
 15 14  1  0
 16 15  2  0
 17 16  1  0
 17 18  2  0
 18 10  1  0
 18 13  1  0
 19 21  1  0
 19  8  1  0
 20 19  2  0
 22 23  1  1
 22 28  1  0
 22 21  1  0
 24 23  1  0
 25 24  1  0
 26 25  1  0
 27 26  1  0
 28 30  1  0
 29 28  2  0
M  END
$$$$
