CWK.pdb
     RDKit          3D

 30 31  0  0  1  0  0  0  0  0999 V2000
    6.6452  -15.5047   19.8969 N   0  0  0  0  0  0  0  0  0  0  0  0
    6.9609  -16.7202   20.6604 C   0  0  1  0  0  0  0  0  0  0  0  0
    7.5852  -17.6944   19.6850 C   0  0  0  0  0  0  0  0  0  0  0  0
    7.9028  -19.2571   20.5472 S   0  0  0  0  0  0  0  0  0  0  0  0
    7.9147  -16.3193   21.7242 C   0  0  0  0  0  0  0  0  0  0  0  0
    8.8069  -15.4513   21.5445 O   0  0  0  0  0  0  0  0  0  0  0  0
    7.8635  -16.9136   23.0315 N   0  0  0  0  0  0  0  0  0  0  0  0
    8.8264  -16.5658   24.0588 C   0  0  1  0  0  0  0  0  0  0  0  0
    8.0882  -16.5284   25.3793 C   0  0  0  0  0  0  0  0  0  0  0  0
    7.2262  -15.3534   25.5138 C   0  0  0  0  0  0  0  0  0  0  0  0
    5.8514  -15.3509   25.4352 C   0  0  0  0  0  0  0  0  0  0  0  0
    5.4272  -14.0853   25.6088 N   0  0  0  0  0  0  0  0  0  0  0  0
    6.4654  -13.2459   25.7999 C   0  0  0  0  0  0  0  0  0  0  0  0
    6.5390  -11.8864   26.0172 C   0  0  0  0  0  0  0  0  0  0  0  0
    7.7906  -11.3272   26.1771 C   0  0  0  0  0  0  0  0  0  0  0  0
    8.9185  -12.1257   26.1170 C   0  0  0  0  0  0  0  0  0  0  0  0
    8.8619  -13.4863   25.9005 C   0  0  0  0  0  0  0  0  0  0  0  0
    7.6087  -14.0518   25.7396 C   0  0  0  0  0  0  0  0  0  0  0  0
    9.9734  -17.4827   24.0796 C   0  0  0  0  0  0  0  0  0  0  0  0
    9.7711  -18.7202   23.9880 O   0  0  0  0  0  0  0  0  0  0  0  0
   11.3235  -17.0595   24.1986 N   0  0  0  0  0  0  0  0  0  0  0  0
   12.4449  -18.0308   24.1365 C   0  0  1  0  0  0  0  0  0  0  0  0
   13.5434  -17.4254   23.2732 C   0  0  0  0  0  0  0  0  0  0  0  0
   14.7014  -18.3493   23.1916 C   0  0  0  0  0  0  0  0  0  0  0  0
   15.9012  -17.7912   22.4768 C   0  0  0  0  0  0  0  0  0  0  0  0
   17.0575  -18.7056   22.3704 C   0  0  0  0  0  0  0  0  0  0  0  0
   18.1491  -18.2104   21.5933 N   0  0  0  0  0  0  0  0  0  0  0  0
   12.8698  -18.3195   25.5080 C   0  0  0  0  0  0  0  0  0  0  0  0
   12.7367  -17.5617   26.4959 O   0  0  0  0  0  0  0  0  0  0  0  0
   13.4899  -19.5637   25.7599 O   0  0  0  0  0  0  0  0  0  0  0  0
  2  1  1  6
  2  5  1  0
  3  2  1  0
  4  3  1  0
  5  6  2  0
  7  5  1  0
  7  8  1  0
  8  9  1  1
  9 10  1  0
 10 11  2  0
 11 12  1  0
 13 14  2  0
 13 12  1  0
 15 14  1  0
 16 15  2  0
 17 16  1  0
 17 18  2  0
 18 10  1  0
 18 13  1  0
 19 21  1  0
 19  8  1  0
 20 19  2  0
 22 23  1  6
 22 28  1  0
 22 21  1  0
 24 23  1  0
 25 24  1  0
 26 25  1  0
 27 26  1  0
 28 30  1  0
 29 28  2  0
M  END
$$$$
