CWK.pdb
     RDKit          3D

 30 31  0  0  1  0  0  0  0  0999 V2000
    6.9974  -15.7021   19.8647 N   0  0  0  0  0  0  0  0  0  0  0  0
    7.0972  -16.6215   21.0070 C   0  0  1  0  0  0  0  0  0  0  0  0
    7.4376  -17.9824   20.4392 C   0  0  0  0  0  0  0  0  0  0  0  0
    8.7374  -17.7831   19.1914 S   0  0  0  0  0  0  0  0  0  0  0  0
    8.1804  -16.1022   21.8783 C   0  0  0  0  0  0  0  0  0  0  0  0
    9.0943  -15.3512   21.4513 O   0  0  0  0  0  0  0  0  0  0  0  0
    8.2375  -16.4383   23.2743 N   0  0  0  0  0  0  0  0  0  0  0  0
    9.3025  -15.9473   24.1276 C   0  0  1  0  0  0  0  0  0  0  0  0
    8.7955  -15.9830   25.5530 C   0  0  0  0  0  0  0  0  0  0  0  0
    7.6585  -15.0881   25.7728 C   0  0  0  0  0  0  0  0  0  0  0  0
    6.3410  -15.4733   25.8835 C   0  0  0  0  0  0  0  0  0  0  0  0
    5.5995  -14.3673   26.0796 N   0  0  0  0  0  0  0  0  0  0  0  0
    6.3714  -13.2616   26.1037 C   0  0  0  0  0  0  0  0  0  0  0  0
    6.0817  -11.9242   26.2720 C   0  0  0  0  0  0  0  0  0  0  0  0
    7.1324  -11.0297   26.2436 C   0  0  0  0  0  0  0  0  0  0  0  0
    8.4242  -11.4850   26.0508 C   0  0  0  0  0  0  0  0  0  0  0  0
    8.7305  -12.8187   25.8809 C   0  0  0  0  0  0  0  0  0  0  0  0
    7.6801  -13.7197   25.9088 C   0  0  0  0  0  0  0  0  0  0  0  0
   10.5488  -16.7045   23.9532 C   0  0  0  0  0  0  0  0  0  0  0  0
   10.4898  -17.9417   23.7377 O   0  0  0  0  0  0  0  0  0  0  0  0
   11.8430  -16.1237   24.0125 N   0  0  0  0  0  0  0  0  0  0  0  0
   13.0630  -16.9295   23.7535 C   0  0  1  0  0  0  0  0  0  0  0  0
   14.1127  -16.0101   23.1441 C   0  0  0  0  0  0  0  0  0  0  0  0
   15.3942  -16.7371   22.9693 C   0  0  0  0  0  0  0  0  0  0  0  0
   16.5450  -15.8815   22.5158 C   0  0  0  0  0  0  0  0  0  0  0  0
   17.8325  -16.5879   22.3492 C   0  0  0  0  0  0  0  0  0  0  0  0
   18.9309  -15.7584   21.9668 N   0  0  0  0  0  0  0  0  0  0  0  0
   13.4806  -17.5377   25.0186 C   0  0  0  0  0  0  0  0  0  0  0  0
   13.1906  -17.1267   26.1653 O   0  0  0  0  0  0  0  0  0  0  0  0
   14.2862  -18.6969   24.9608 O   0  0  0  0  0  0  0  0  0  0  0  0
  2  1  1  6
  2  5  1  0
  3  2  1  0
  4  3  1  0
  5  6  2  0
  7  5  1  0
  7  8  1  0
  8  9  1  1
  9 10  1  0
 10 11  2  0
 11 12  1  0
 13 14  2  0
 13 12  1  0
 15 14  1  0
 16 15  2  0
 17 16  1  0
 17 18  2  0
 18 10  1  0
 18 13  1  0
 19 21  1  0
 19  8  1  0
 20 19  2  0
 22 23  1  1
 22 28  1  0
 22 21  1  0
 24 23  1  0
 25 24  1  0
 26 25  1  0
 27 26  1  0
 28 30  1  0
 29 28  2  0
M  END
$$$$
