CWK.pdb
     RDKit          3D

 30 31  0  0  1  0  0  0  0  0999 V2000
    7.4865  -15.8782   19.5434 N   0  0  0  0  0  0  0  0  0  0  0  0
    7.2955  -16.7195   20.7332 C   0  0  1  0  0  0  0  0  0  0  0  0
    7.6554  -18.1322   20.3272 C   0  0  0  0  0  0  0  0  0  0  0  0
    9.3637  -18.1455   19.7209 S   0  0  0  0  0  0  0  0  0  0  0  0
    8.2122  -16.1963   21.7764 C   0  0  0  0  0  0  0  0  0  0  0  0
    9.0265  -15.2630   21.5588 O   0  0  0  0  0  0  0  0  0  0  0  0
    8.2131  -16.7403   23.1064 N   0  0  0  0  0  0  0  0  0  0  0  0
    9.1186  -16.2454   24.1255 C   0  0  1  0  0  0  0  0  0  0  0  0
    8.3950  -16.3224   25.4524 C   0  0  0  0  0  0  0  0  0  0  0  0
    7.3199  -15.3364   25.5697 C   0  0  0  0  0  0  0  0  0  0  0  0
    5.9727  -15.5971   25.4531 C   0  0  0  0  0  0  0  0  0  0  0  0
    5.3087  -14.4387   25.6223 N   0  0  0  0  0  0  0  0  0  0  0  0
    6.1608  -13.4175   25.8468 C   0  0  0  0  0  0  0  0  0  0  0  0
    5.9659  -12.0717   26.0738 C   0  0  0  0  0  0  0  0  0  0  0  0
    7.0820  -11.2843   26.2714 C   0  0  0  0  0  0  0  0  0  0  0  0
    8.3436  -11.8505   26.2379 C   0  0  0  0  0  0  0  0  0  0  0  0
    8.5554  -13.1942   26.0121 C   0  0  0  0  0  0  0  0  0  0  0  0
    7.4390  -13.9881   25.8134 C   0  0  0  0  0  0  0  0  0  0  0  0
   10.3948  -16.9720   24.1361 C   0  0  0  0  0  0  0  0  0  0  0  0
   10.3849  -18.2286   24.1769 O   0  0  0  0  0  0  0  0  0  0  0  0
   11.6660  -16.3404   24.1029 N   0  0  0  0  0  0  0  0  0  0  0  0
   12.9220  -17.1310   24.1502 C   0  0  1  0  0  0  0  0  0  0  0  0
   14.0889  -16.1706   23.9650 C   0  0  0  0  0  0  0  0  0  0  0  0
   15.1499  -16.8027   23.1428 C   0  0  0  0  0  0  0  0  0  0  0  0
   15.7142  -15.9232   22.0611 C   0  0  0  0  0  0  0  0  0  0  0  0
   16.6275  -16.5934   21.1118 C   0  0  0  0  0  0  0  0  0  0  0  0
   17.1732  -15.7463   20.0992 N   0  0  0  0  0  0  0  0  0  0  0  0
   12.9543  -17.8533   25.4238 C   0  0  0  0  0  0  0  0  0  0  0  0
   13.5349  -18.9416   25.6395 O   0  0  0  0  0  0  0  0  0  0  0  0
   12.2727  -17.2855   26.5234 O   0  0  0  0  0  0  0  0  0  0  0  0
  2  1  1  6
  2  5  1  0
  3  2  1  0
  4  3  1  0
  5  6  2  0
  7  5  1  0
  7  8  1  0
  8  9  1  1
  9 10  1  0
 10 11  2  0
 11 12  1  0
 13 14  2  0
 13 12  1  0
 15 14  1  0
 16 15  2  0
 17 16  1  0
 17 18  2  0
 18 10  1  0
 18 13  1  0
 19 21  1  0
 19  8  1  0
 20 19  2  0
 22 23  1  1
 22 28  1  0
 22 21  1  0
 24 23  1  0
 25 24  1  0
 26 25  1  0
 27 26  1  0
 28 30  1  0
 29 28  2  0
M  END
$$$$
