CWK.pdb
     RDKit          3D

 30 31  0  0  1  0  0  0  0  0999 V2000
    6.8193  -19.6534   25.4511 N   0  0  0  0  0  0  0  0  0  0  0  0
    6.8092  -19.4720   23.9927 C   0  0  1  0  0  0  0  0  0  0  0  0
    5.3768  -19.1782   23.6026 C   0  0  0  0  0  0  0  0  0  0  0  0
    4.3918  -20.6827   23.8311 S   0  0  0  0  0  0  0  0  0  0  0  0
    7.7053  -18.3259   23.6998 C   0  0  0  0  0  0  0  0  0  0  0  0
    7.9215  -17.9141   22.5314 O   0  0  0  0  0  0  0  0  0  0  0  0
    8.3796  -17.6206   24.7548 N   0  0  0  0  0  0  0  0  0  0  0  0
    9.3209  -16.5545   24.4707 C   0  0  1  0  0  0  0  0  0  0  0  0
    9.0407  -15.4298   25.4437 C   0  0  0  0  0  0  0  0  0  0  0  0
    7.8903  -14.6146   25.0516 C   0  0  0  0  0  0  0  0  0  0  0  0
    6.7638  -14.3937   25.8123 C   0  0  0  0  0  0  0  0  0  0  0  0
    5.9376  -13.5963   25.1103 N   0  0  0  0  0  0  0  0  0  0  0  0
    6.4697  -13.2778   23.9126 C   0  0  0  0  0  0  0  0  0  0  0  0
    6.0154  -12.5054   22.8648 C   0  0  0  0  0  0  0  0  0  0  0  0
    6.8285  -12.3822   21.7564 C   0  0  0  0  0  0  0  0  0  0  0  0
    8.0541  -13.0226   21.7222 C   0  0  0  0  0  0  0  0  0  0  0  0
    8.5227  -13.7985   22.7613 C   0  0  0  0  0  0  0  0  0  0  0  0
    7.7107  -13.9249   23.8753 C   0  0  0  0  0  0  0  0  0  0  0  0
   10.7148  -17.0137   24.5258 C   0  0  0  0  0  0  0  0  0  0  0  0
   11.0433  -17.8757   25.3800 O   0  0  0  0  0  0  0  0  0  0  0  0
   11.7388  -16.5414   23.6631 N   0  0  0  0  0  0  0  0  0  0  0  0
   13.0329  -17.2585   23.5366 C   0  0  1  0  0  0  0  0  0  0  0  0
   13.5200  -17.0994   22.1028 C   0  0  0  0  0  0  0  0  0  0  0  0
   14.8638  -17.7082   21.9454 C   0  0  0  0  0  0  0  0  0  0  0  0
   15.4415  -17.6063   20.5606 C   0  0  0  0  0  0  0  0  0  0  0  0
   16.7725  -18.2235   20.3822 C   0  0  0  0  0  0  0  0  0  0  0  0
   17.2417  -18.2673   19.0337 N   0  0  0  0  0  0  0  0  0  0  0  0
   13.9545  -16.7080   24.5328 C   0  0  0  0  0  0  0  0  0  0  0  0
   13.8666  -15.5834   25.0764 O   0  0  0  0  0  0  0  0  0  0  0  0
   15.0513  -17.5049   24.9306 O   0  0  0  0  0  0  0  0  0  0  0  0
  2  1  1  1
  2  5  1  0
  3  2  1  0
  4  3  1  0
  5  6  2  0
  7  5  1  0
  7  8  1  0
  8  9  1  1
  9 10  1  0
 10 11  2  0
 11 12  1  0
 13 14  2  0
 13 12  1  0
 15 14  1  0
 16 15  2  0
 17 16  1  0
 17 18  2  0
 18 10  1  0
 18 13  1  0
 19 21  1  0
 19  8  1  0
 20 19  2  0
 22 23  1  6
 22 28  1  0
 22 21  1  0
 24 23  1  0
 25 24  1  0
 26 25  1  0
 27 26  1  0
 28 30  1  0
 29 28  2  0
M  END
$$$$
