CWK.pdb
     RDKit          3D

 30 31  0  0  1  0  0  0  0  0999 V2000
    6.9545  -14.5509   19.9959 N   0  0  0  0  0  0  0  0  0  0  0  0
    6.6612  -15.5684   21.0150 C   0  0  1  0  0  0  0  0  0  0  0  0
    6.5308  -16.8876   20.2850 C   0  0  0  0  0  0  0  0  0  0  0  0
    8.1390  -17.3160   19.5665 S   0  0  0  0  0  0  0  0  0  0  0  0
    7.8086  -15.5716   21.9563 C   0  0  0  0  0  0  0  0  0  0  0  0
    8.8551  -14.9044   21.7536 O   0  0  0  0  0  0  0  0  0  0  0  0
    7.7778  -16.3500   23.1638 N   0  0  0  0  0  0  0  0  0  0  0  0
    8.8563  -16.2880   24.1314 C   0  0  1  0  0  0  0  0  0  0  0  0
    8.2290  -16.2156   25.5067 C   0  0  0  0  0  0  0  0  0  0  0  0
    7.3694  -15.0435   25.6767 C   0  0  0  0  0  0  0  0  0  0  0  0
    5.9936  -15.0391   25.6166 C   0  0  0  0  0  0  0  0  0  0  0  0
    5.5723  -13.7773   25.8217 N   0  0  0  0  0  0  0  0  0  0  0  0
    6.6134  -12.9421   26.0158 C   0  0  0  0  0  0  0  0  0  0  0  0
    6.6904  -11.5873   26.2596 C   0  0  0  0  0  0  0  0  0  0  0  0
    7.9443  -11.0316   26.4140 C   0  0  0  0  0  0  0  0  0  0  0  0
    9.0710  -11.8289   26.3225 C   0  0  0  0  0  0  0  0  0  0  0  0
    9.0109  -13.1848   26.0792 C   0  0  0  0  0  0  0  0  0  0  0  0
    7.7554  -13.7468   25.9237 C   0  0  0  0  0  0  0  0  0  0  0  0
    9.7904  -17.4131   23.9962 C   0  0  0  0  0  0  0  0  0  0  0  0
    9.3398  -18.5868   23.9875 O   0  0  0  0  0  0  0  0  0  0  0  0
   11.1969  -17.2640   23.8720 N   0  0  0  0  0  0  0  0  0  0  0  0
   12.0996  -18.4429   23.8574 C   0  0  1  0  0  0  0  0  0  0  0  0
   13.3627  -18.0581   23.0990 C   0  0  0  0  0  0  0  0  0  0  0  0
   13.0905  -18.0012   21.6417 C   0  0  0  0  0  0  0  0  0  0  0  0
   14.3051  -17.7747   20.7841 C   0  0  0  0  0  0  0  0  0  0  0  0
   14.0437  -17.6547   19.3344 C   0  0  0  0  0  0  0  0  0  0  0  0
   15.2004  -17.4185   18.5301 N   0  0  0  0  0  0  0  0  0  0  0  0
   12.3476  -18.8401   25.2450 C   0  0  0  0  0  0  0  0  0  0  0  0
   12.8778  -19.9101   25.6219 O   0  0  0  0  0  0  0  0  0  0  0  0
   11.9594  -17.9463   26.2680 O   0  0  0  0  0  0  0  0  0  0  0  0
  2  1  1  6
  2  5  1  0
  3  2  1  0
  4  3  1  0
  5  6  2  0
  7  5  1  0
  7  8  1  0
  8  9  1  1
  9 10  1  0
 10 11  2  0
 11 12  1  0
 13 14  2  0
 13 12  1  0
 15 14  1  0
 16 15  2  0
 17 16  1  0
 17 18  2  0
 18 10  1  0
 18 13  1  0
 19 21  1  0
 19  8  1  0
 20 19  2  0
 22 23  1  1
 22 28  1  0
 22 21  1  0
 24 23  1  0
 25 24  1  0
 26 25  1  0
 27 26  1  0
 28 30  1  0
 29 28  2  0
M  END
$$$$
