CWK.pdb
     RDKit          3D

 30 31  0  0  1  0  0  0  0  0999 V2000
    9.2252  -15.7045   17.6324 N   0  0  0  0  0  0  0  0  0  0  0  0
    8.0887  -16.0577   18.4947 C   0  0  1  0  0  0  0  0  0  0  0  0
    7.8540  -17.5420   18.3156 C   0  0  0  0  0  0  0  0  0  0  0  0
    9.3677  -18.4291   18.7712 S   0  0  0  0  0  0  0  0  0  0  0  0
    8.4901  -15.7280   19.8848 C   0  0  0  0  0  0  0  0  0  0  0  0
    9.6747  -15.4486   20.2015 O   0  0  0  0  0  0  0  0  0  0  0  0
    7.5286  -15.7120   20.9526 N   0  0  0  0  0  0  0  0  0  0  0  0
    7.9230  -15.4408   22.3217 C   0  0  1  0  0  0  0  0  0  0  0  0
    6.6605  -15.1854   23.1160 C   0  0  0  0  0  0  0  0  0  0  0  0
    6.9228  -14.9452   24.5356 C   0  0  0  0  0  0  0  0  0  0  0  0
    7.0159  -15.9122   25.5116 C   0  0  0  0  0  0  0  0  0  0  0  0
    7.2643  -15.2980   26.6832 N   0  0  0  0  0  0  0  0  0  0  0  0
    7.3402  -13.9607   26.5253 C   0  0  0  0  0  0  0  0  0  0  0  0
    7.5717  -12.9280   27.4089 C   0  0  0  0  0  0  0  0  0  0  0  0
    7.5850  -11.6425   26.9068 C   0  0  0  0  0  0  0  0  0  0  0  0
    7.3703  -11.4237   25.5580 C   0  0  0  0  0  0  0  0  0  0  0  0
    7.1374  -12.4453   24.6616 C   0  0  0  0  0  0  0  0  0  0  0  0
    7.1232  -13.7365   25.1604 C   0  0  0  0  0  0  0  0  0  0  0  0
    8.7381  -16.5220   22.8904 C   0  0  0  0  0  0  0  0  0  0  0  0
    8.4226  -17.7162   22.6562 O   0  0  0  0  0  0  0  0  0  0  0  0
    9.8820  -16.3074   23.7038 N   0  0  0  0  0  0  0  0  0  0  0  0
   10.7912  -17.4238   24.0667 C   0  0  1  0  0  0  0  0  0  0  0  0
   12.1273  -17.1848   23.3767 C   0  0  0  0  0  0  0  0  0  0  0  0
   13.0899  -18.2556   23.7345 C   0  0  0  0  0  0  0  0  0  0  0  0
   14.4419  -18.1266   23.0884 C   0  0  0  0  0  0  0  0  0  0  0  0
   15.3835  -19.2322   23.3631 C   0  0  0  0  0  0  0  0  0  0  0  0
   16.0501  -19.1579   24.6244 N   0  0  0  0  0  0  0  0  0  0  0  0
   10.8867  -17.4730   25.5273 C   0  0  0  0  0  0  0  0  0  0  0  0
   11.4823  -18.3467   26.1980 O   0  0  0  0  0  0  0  0  0  0  0  0
   10.2543  -16.4481   26.2661 O   0  0  0  0  0  0  0  0  0  0  0  0
  2  1  1  6
  2  5  1  0
  3  2  1  0
  4  3  1  0
  5  6  2  0
  7  5  1  0
  7  8  1  0
  8  9  1  1
  9 10  1  0
 10 11  2  0
 11 12  1  0
 13 14  2  0
 13 12  1  0
 15 14  1  0
 16 15  2  0
 17 16  1  0
 17 18  2  0
 18 10  1  0
 18 13  1  0
 19 21  1  0
 19  8  1  0
 20 19  2  0
 22 23  1  6
 22 28  1  0
 22 21  1  0
 24 23  1  0
 25 24  1  0
 26 25  1  0
 27 26  1  0
 28 30  1  0
 29 28  2  0
M  END
$$$$
