CWK.pdb
     RDKit          3D

 30 31  0  0  1  0  0  0  0  0999 V2000
    7.9041  -17.0592   19.7297 N   0  0  0  0  0  0  0  0  0  0  0  0
    8.0497  -15.5977   19.6761 C   0  0  1  0  0  0  0  0  0  0  0  0
    6.6670  -15.0332   19.4317 C   0  0  0  0  0  0  0  0  0  0  0  0
    5.5592  -15.6219   20.7403 S   0  0  0  0  0  0  0  0  0  0  0  0
    8.5919  -15.1752   20.9913 C   0  0  0  0  0  0  0  0  0  0  0  0
    8.9333  -13.9898   21.2360 O   0  0  0  0  0  0  0  0  0  0  0  0
    8.7554  -16.1158   22.0653 N   0  0  0  0  0  0  0  0  0  0  0  0
    9.3148  -15.7162   23.3422 C   0  0  1  0  0  0  0  0  0  0  0  0
    8.4960  -16.3839   24.4258 C   0  0  0  0  0  0  0  0  0  0  0  0
    7.5701  -15.4625   25.0856 C   0  0  0  0  0  0  0  0  0  0  0  0
    6.2995  -15.7708   25.5179 C   0  0  0  0  0  0  0  0  0  0  0  0
    5.7681  -14.6644   26.0702 N   0  0  0  0  0  0  0  0  0  0  0  0
    6.6349  -13.6321   26.0224 C   0  0  0  0  0  0  0  0  0  0  0  0
    6.5531  -12.3239   26.4498 C   0  0  0  0  0  0  0  0  0  0  0  0
    7.6481  -11.5097   26.2427 C   0  0  0  0  0  0  0  0  0  0  0  0
    8.7783  -12.0133   25.6243 C   0  0  0  0  0  0  0  0  0  0  0  0
    8.8758  -13.3188   25.1911 C   0  0  0  0  0  0  0  0  0  0  0  0
    7.7801  -14.1394   25.3967 C   0  0  0  0  0  0  0  0  0  0  0  0
   10.7463  -16.0276   23.4445 C   0  0  0  0  0  0  0  0  0  0  0  0
   11.2904  -16.7152   22.5434 O   0  0  0  0  0  0  0  0  0  0  0  0
   11.5761  -15.5969   24.5131 N   0  0  0  0  0  0  0  0  0  0  0  0
   12.2594  -16.5716   25.4007 C   0  0  1  0  0  0  0  0  0  0  0  0
   11.1899  -17.3557   26.1488 C   0  0  0  0  0  0  0  0  0  0  0  0
   11.8093  -18.4554   26.9287 C   0  0  0  0  0  0  0  0  0  0  0  0
   10.8396  -19.2840   27.7256 C   0  0  0  0  0  0  0  0  0  0  0  0
   11.4385  -20.3942   28.4958 C   0  0  0  0  0  0  0  0  0  0  0  0
   10.5292  -21.1032   29.3392 N   0  0  0  0  0  0  0  0  0  0  0  0
   13.1265  -17.4097   24.5697 C   0  0  0  0  0  0  0  0  0  0  0  0
   14.3787  -17.4058   24.5732 O   0  0  0  0  0  0  0  0  0  0  0  0
   12.5118  -18.3132   23.6742 O   0  0  0  0  0  0  0  0  0  0  0  0
  2  1  1  1
  2  5  1  0
  3  2  1  0
  4  3  1  0
  5  6  2  0
  7  5  1  0
  7  8  1  0
  8  9  1  1
  9 10  1  0
 10 11  2  0
 11 12  1  0
 13 14  2  0
 13 12  1  0
 15 14  1  0
 16 15  2  0
 17 16  1  0
 17 18  2  0
 18 10  1  0
 18 13  1  0
 19 21  1  0
 19  8  1  0
 20 19  2  0
 22 23  1  6
 22 28  1  0
 22 21  1  0
 24 23  1  0
 25 24  1  0
 26 25  1  0
 27 26  1  0
 28 30  1  0
 29 28  2  0
M  END
$$$$
