CWK.pdb
     RDKit          3D

 30 31  0  0  1  0  0  0  0  0999 V2000
    7.1791  -15.4124   19.7391 N   0  0  0  0  0  0  0  0  0  0  0  0
    7.1138  -16.3738   20.8488 C   0  0  1  0  0  0  0  0  0  0  0  0
    7.3915  -17.7385   20.2566 C   0  0  0  0  0  0  0  0  0  0  0  0
    9.0755  -17.7494   19.5857 S   0  0  0  0  0  0  0  0  0  0  0  0
    8.1603  -15.9729   21.8217 C   0  0  0  0  0  0  0  0  0  0  0  0
    9.1242  -15.2263   21.5132 O   0  0  0  0  0  0  0  0  0  0  0  0
    8.1215  -16.4263   23.1848 N   0  0  0  0  0  0  0  0  0  0  0  0
    9.1268  -16.0175   24.1468 C   0  0  1  0  0  0  0  0  0  0  0  0
    8.4845  -16.0503   25.5167 C   0  0  0  0  0  0  0  0  0  0  0  0
    7.4384  -15.0393   25.6765 C   0  0  0  0  0  0  0  0  0  0  0  0
    6.0818  -15.2756   25.6605 C   0  0  0  0  0  0  0  0  0  0  0  0
    5.4526  -14.0992   25.8385 N   0  0  0  0  0  0  0  0  0  0  0  0
    6.3369  -13.0896   25.9724 C   0  0  0  0  0  0  0  0  0  0  0  0
    6.1830  -11.7339   26.1702 C   0  0  0  0  0  0  0  0  0  0  0  0
    7.3244  -10.9640   26.2665 C   0  0  0  0  0  0  0  0  0  0  0  0
    8.5700  -11.5569   26.1645 C   0  0  0  0  0  0  0  0  0  0  0  0
    8.7408  -12.9107   25.9667 C   0  0  0  0  0  0  0  0  0  0  0  0
    7.5989  -13.6871   25.8695 C   0  0  0  0  0  0  0  0  0  0  0  0
   10.3377  -16.8451   24.0719 C   0  0  0  0  0  0  0  0  0  0  0  0
   10.2263  -18.0753   23.8378 O   0  0  0  0  0  0  0  0  0  0  0  0
   11.6533  -16.3414   24.2492 N   0  0  0  0  0  0  0  0  0  0  0  0
   12.8436  -17.2090   24.0614 C   0  0  1  0  0  0  0  0  0  0  0  0
   13.9823  -16.3393   23.5462 C   0  0  0  0  0  0  0  0  0  0  0  0
   15.1980  -17.1607   23.3261 C   0  0  0  0  0  0  0  0  0  0  0  0
   15.9683  -16.8215   22.0797 C   0  0  0  0  0  0  0  0  0  0  0  0
   17.1955  -17.6147   21.8577 C   0  0  0  0  0  0  0  0  0  0  0  0
   18.0315  -17.1490   20.7971 N   0  0  0  0  0  0  0  0  0  0  0  0
   13.1359  -17.8593   25.3406 C   0  0  0  0  0  0  0  0  0  0  0  0
   13.8852  -18.8480   25.5107 O   0  0  0  0  0  0  0  0  0  0  0  0
   12.5249  -17.3372   26.5026 O   0  0  0  0  0  0  0  0  0  0  0  0
  2  1  1  6
  2  5  1  0
  3  2  1  0
  4  3  1  0
  5  6  2  0
  7  5  1  0
  7  8  1  0
  8  9  1  1
  9 10  1  0
 10 11  2  0
 11 12  1  0
 13 14  2  0
 13 12  1  0
 15 14  1  0
 16 15  2  0
 17 16  1  0
 17 18  2  0
 18 10  1  0
 18 13  1  0
 19 21  1  0
 19  8  1  0
 20 19  2  0
 22 23  1  1
 22 28  1  0
 22 21  1  0
 24 23  1  0
 25 24  1  0
 26 25  1  0
 27 26  1  0
 28 30  1  0
 29 28  2  0
M  END
$$$$
