CWK.pdb
     RDKit          3D

 30 31  0  0  1  0  0  0  0  0999 V2000
    6.6672  -16.0723   19.9081 N   0  0  0  0  0  0  0  0  0  0  0  0
    7.0896  -17.0003   20.9666 C   0  0  1  0  0  0  0  0  0  0  0  0
    7.7804  -18.1574   20.2781 C   0  0  0  0  0  0  0  0  0  0  0  0
    9.0827  -17.4998   19.2020 S   0  0  0  0  0  0  0  0  0  0  0  0
    8.0193  -16.2487   21.8458 C   0  0  0  0  0  0  0  0  0  0  0  0
    8.6403  -15.2252   21.4606 O   0  0  0  0  0  0  0  0  0  0  0  0
    8.2583  -16.6616   23.2014 N   0  0  0  0  0  0  0  0  0  0  0  0
    9.2678  -16.0193   24.0209 C   0  0  1  0  0  0  0  0  0  0  0  0
    8.7408  -15.9744   25.4387 C   0  0  0  0  0  0  0  0  0  0  0  0
    7.5711  -15.1065   25.5814 C   0  0  0  0  0  0  0  0  0  0  0  0
    6.2565  -15.5061   25.4888 C   0  0  0  0  0  0  0  0  0  0  0  0
    5.4786  -14.4238   25.6765 N   0  0  0  0  0  0  0  0  0  0  0  0
    6.2237  -13.3200   25.8903 C   0  0  0  0  0  0  0  0  0  0  0  0
    5.8938  -12.0027   26.1280 C   0  0  0  0  0  0  0  0  0  0  0  0
    6.9252  -11.1036   26.3088 C   0  0  0  0  0  0  0  0  0  0  0  0
    8.2381  -11.5349   26.2486 C   0  0  0  0  0  0  0  0  0  0  0  0
    8.5846  -12.8484   26.0118 C   0  0  0  0  0  0  0  0  0  0  0  0
    7.5535  -13.7539   25.8300 C   0  0  0  0  0  0  0  0  0  0  0  0
   10.5713  -16.6891   23.9247 C   0  0  0  0  0  0  0  0  0  0  0  0
   10.6222  -17.9438   23.9863 O   0  0  0  0  0  0  0  0  0  0  0  0
   11.8040  -16.0032   23.7637 N   0  0  0  0  0  0  0  0  0  0  0  0
   13.0821  -16.7413   23.6006 C   0  0  1  0  0  0  0  0  0  0  0  0
   14.1098  -15.7786   23.0213 C   0  0  0  0  0  0  0  0  0  0  0  0
   15.4305  -16.4446   22.9055 C   0  0  0  0  0  0  0  0  0  0  0  0
   16.5390  -15.5592   22.4062 C   0  0  0  0  0  0  0  0  0  0  0  0
   17.8638  -16.2046   22.2942 C   0  0  0  0  0  0  0  0  0  0  0  0
   18.8611  -15.4248   21.6324 N   0  0  0  0  0  0  0  0  0  0  0  0
   13.4602  -17.2855   24.9066 C   0  0  0  0  0  0  0  0  0  0  0  0
   13.1985  -16.7774   26.0207 O   0  0  0  0  0  0  0  0  0  0  0  0
   14.1886  -18.4959   24.9327 O   0  0  0  0  0  0  0  0  0  0  0  0
  2  1  1  6
  2  5  1  0
  3  2  1  0
  4  3  1  0
  5  6  2  0
  7  5  1  0
  7  8  1  0
  8  9  1  1
  9 10  1  0
 10 11  2  0
 11 12  1  0
 13 14  2  0
 13 12  1  0
 15 14  1  0
 16 15  2  0
 17 16  1  0
 17 18  2  0
 18 10  1  0
 18 13  1  0
 19 21  1  0
 19  8  1  0
 20 19  2  0
 22 23  1  1
 22 28  1  0
 22 21  1  0
 24 23  1  0
 25 24  1  0
 26 25  1  0
 27 26  1  0
 28 30  1  0
 29 28  2  0
M  END
$$$$
