CWK.pdb
     RDKit          3D

 30 31  0  0  1  0  0  0  0  0999 V2000
    7.3233  -16.9203   21.3051 N   0  0  0  0  0  0  0  0  0  0  0  0
    8.2787  -15.8065   21.2238 C   0  0  1  0  0  0  0  0  0  0  0  0
    7.4622  -14.5499   21.0123 C   0  0  0  0  0  0  0  0  0  0  0  0
    6.1600  -14.8999   19.8008 S   0  0  0  0  0  0  0  0  0  0  0  0
    9.0094  -15.7770   22.5151 C   0  0  0  0  0  0  0  0  0  0  0  0
    9.9173  -14.9427   22.7628 O   0  0  0  0  0  0  0  0  0  0  0  0
    8.7094  -16.7156   23.5610 N   0  0  0  0  0  0  0  0  0  0  0  0
    9.3998  -16.6739   24.8357 C   0  0  1  0  0  0  0  0  0  0  0  0
    8.3465  -16.6331   25.9216 C   0  0  0  0  0  0  0  0  0  0  0  0
    7.4935  -15.4467   25.8396 C   0  0  0  0  0  0  0  0  0  0  0  0
    6.1820  -15.4261   25.4202 C   0  0  0  0  0  0  0  0  0  0  0  0
    5.7443  -14.1549   25.4856 N   0  0  0  0  0  0  0  0  0  0  0  0
    6.7128  -13.3291   25.9319 C   0  0  0  0  0  0  0  0  0  0  0  0
    6.7474  -11.9705   26.1640 C   0  0  0  0  0  0  0  0  0  0  0  0
    7.9266  -11.4277   26.6327 C   0  0  0  0  0  0  0  0  0  0  0  0
    9.0233  -12.2410   26.8541 C   0  0  0  0  0  0  0  0  0  0  0  0
    9.0050  -13.6009   26.6270 C   0  0  0  0  0  0  0  0  0  0  0  0
    7.8244  -14.1501   26.1569 C   0  0  0  0  0  0  0  0  0  0  0  0
   10.3348  -17.7945   24.9990 C   0  0  0  0  0  0  0  0  0  0  0  0
    9.9500  -18.9595   24.7240 O   0  0  0  0  0  0  0  0  0  0  0  0
   11.6716  -17.6504   25.4554 N   0  0  0  0  0  0  0  0  0  0  0  0
   12.5398  -18.8327   25.6864 C   0  0  1  0  0  0  0  0  0  0  0  0
   13.9894  -18.3786   25.5813 C   0  0  0  0  0  0  0  0  0  0  0  0
   14.8279  -19.4623   25.0124 C   0  0  0  0  0  0  0  0  0  0  0  0
   15.6755  -19.0510   23.8401 C   0  0  0  0  0  0  0  0  0  0  0  0
   16.5141  -20.1201   23.2585 C   0  0  0  0  0  0  0  0  0  0  0  0
   17.1646  -19.7779   22.0336 N   0  0  0  0  0  0  0  0  0  0  0  0
   12.1962  -19.3980   26.9929 C   0  0  0  0  0  0  0  0  0  0  0  0
   12.3890  -20.5801   27.3583 O   0  0  0  0  0  0  0  0  0  0  0  0
   11.5899  -18.5463   27.9432 O   0  0  0  0  0  0  0  0  0  0  0  0
  2  1  1  1
  2  5  1  0
  3  2  1  0
  4  3  1  0
  5  6  2  0
  7  5  1  0
  7  8  1  0
  8  9  1  1
  9 10  1  0
 10 11  2  0
 11 12  1  0
 13 14  2  0
 13 12  1  0
 15 14  1  0
 16 15  2  0
 17 16  1  0
 17 18  2  0
 18 10  1  0
 18 13  1  0
 19 21  1  0
 19  8  1  0
 20 19  2  0
 22 23  1  1
 22 28  1  0
 22 21  1  0
 24 23  1  0
 25 24  1  0
 26 25  1  0
 27 26  1  0
 28 30  1  0
 29 28  2  0
M  END
$$$$
