KEY.pdb
     RDKit          3D

 31 31  0  0  1  0  0  0  0  0999 V2000
    7.6963  -17.0860   21.0734 N   0  0  0  0  0  0  0  0  0  0  0  0
    8.7551  -16.2837   21.6561 C   0  0  1  0  0  0  0  0  0  0  0  0
    8.3914  -14.8043   21.6994 C   0  0  0  0  0  0  0  0  0  0  0  0
    8.1591  -14.3380   20.2800 C   0  0  0  0  0  0  0  0  0  0  0  0
    7.8355  -12.8819   20.1954 C   0  0  0  0  0  0  0  0  0  0  0  0
    7.6780  -12.3894   18.7789 C   0  0  0  0  0  0  0  0  0  0  0  0
    7.3622  -10.9998   18.6931 N   0  0  0  0  0  0  0  0  0  0  0  0
    9.1345  -16.7973   22.9739 C   0  0  0  0  0  0  0  0  0  0  0  0
    8.2899  -17.4220   23.6733 O   0  0  0  0  0  0  0  0  0  0  0  0
   10.4310  -16.6115   23.4887 N   0  0  0  0  0  0  0  0  0  0  0  0
   10.9588  -17.2623   24.6742 C   0  0  1  0  0  0  0  0  0  0  0  0
   12.1798  -18.0537   24.3970 C   0  0  0  0  0  0  0  0  0  0  0  0
   12.1454  -19.1106   23.3794 C   0  0  0  0  0  0  0  0  0  0  0  0
   13.3508  -19.8733   23.0688 C   0  0  0  0  0  0  0  0  0  0  0  0
   14.3257  -20.1277   23.7809 O   0  0  0  0  0  0  0  0  0  0  0  0
   11.0572  -16.3157   25.7745 C   0  0  0  0  0  0  0  0  0  0  0  0
   11.7207  -15.2324   25.6231 O   0  0  0  0  0  0  0  0  0  0  0  0
   13.4508  -20.4245   21.7465 O   0  0  0  0  0  0  0  0  0  0  0  0
    5.6306  -13.2927   24.7961 O   0  0  0  0  0  0  0  0  0  0  0  0
    6.5453  -13.7371   25.7382 C   0  0  0  0  0  0  0  0  0  0  0  0
    6.5248  -15.0508   26.1957 C   0  0  0  0  0  0  0  0  0  0  0  0
    7.4392  -15.5126   27.1438 C   0  0  0  0  0  0  0  0  0  0  0  0
    8.3902  -14.6521   27.6454 C   0  0  0  0  0  0  0  0  0  0  0  0
    9.3652  -15.1037   28.6549 C   0  0  0  0  0  0  0  0  0  0  0  0
   10.6809  -15.5565   28.1080 C   0  0  2  0  0  0  0  0  0  0  0  0
   10.4440  -16.5351   27.0358 N   0  0  0  0  0  0  0  0  0  0  0  0
   11.4300  -16.2771   29.1608 C   0  0  0  0  0  0  0  0  0  0  0  0
   11.7786  -15.6470   30.1872 O   0  0  0  0  0  0  0  0  0  0  0  0
    8.4045  -13.3517   27.1872 C   0  0  0  0  0  0  0  0  0  0  0  0
    7.4988  -12.8940   26.2478 C   0  0  0  0  0  0  0  0  0  0  0  0
   11.7736  -17.6160   29.0838 O   0  0  0  0  0  0  0  0  0  0  0  0
  2  1  1  1
  2  3  1  0
  4  3  1  0
  5  4  1  0
  6  5  1  0
  7  6  1  0
  8  2  1  0
  9  8  2  0
 10  8  1  0
 11 10  1  0
 11 12  1  6
 13 14  1  0
 13 12  1  0
 14 15  2  0
 16 11  1  0
 16 17  2  0
 18 14  1  0
 20 19  1  0
 21 20  2  0
 22 21  1  0
 23 22  2  0
 23 29  1  0
 25 24  1  1
 24 23  1  0
 25 26  1  0
 26 16  1  0
 27 25  1  0
 28 27  2  0
 29 30  2  0
 30 20  1  0
 31 27  1  0
M  END
$$$$
