KEY.pdb
     RDKit          3D

 31 31  0  0  1  0  0  0  0  0999 V2000
   10.0273  -13.4729   19.8694 N   0  0  0  0  0  0  0  0  0  0  0  0
    8.6927  -13.7098   20.3858 C   0  0  1  0  0  0  0  0  0  0  0  0
    7.6654  -13.8490   19.2686 C   0  0  0  0  0  0  0  0  0  0  0  0
    8.4087  -13.8954   17.9529 C   0  0  0  0  0  0  0  0  0  0  0  0
    7.4934  -13.9531   16.7734 C   0  0  0  0  0  0  0  0  0  0  0  0
    8.2239  -14.0666   15.4592 C   0  0  0  0  0  0  0  0  0  0  0  0
    7.3537  -14.2124   14.3369 N   0  0  0  0  0  0  0  0  0  0  0  0
    8.6802  -14.8592   21.2930 C   0  0  0  0  0  0  0  0  0  0  0  0
    7.5880  -15.2693   21.7747 O   0  0  0  0  0  0  0  0  0  0  0  0
    9.8667  -15.5279   21.6472 N   0  0  0  0  0  0  0  0  0  0  0  0
    9.9440  -16.6801   22.5269 C   0  0  1  0  0  0  0  0  0  0  0  0
   11.0622  -17.5887   22.1833 C   0  0  0  0  0  0  0  0  0  0  0  0
   11.0228  -18.3468   20.9274 C   0  0  0  0  0  0  0  0  0  0  0  0
   12.1494  -19.1912   20.5413 C   0  0  0  0  0  0  0  0  0  0  0  0
   13.2987  -18.8728   20.2251 O   0  0  0  0  0  0  0  0  0  0  0  0
    9.8746  -16.2640   23.9192 C   0  0  0  0  0  0  0  0  0  0  0  0
   10.5828  -15.2784   24.3238 O   0  0  0  0  0  0  0  0  0  0  0  0
   11.9224  -20.6089   20.5146 O   0  0  0  0  0  0  0  0  0  0  0  0
    6.2001  -10.6758   25.9145 O   0  0  0  0  0  0  0  0  0  0  0  0
    6.5649  -11.9998   26.1032 C   0  0  0  0  0  0  0  0  0  0  0  0
    5.8521  -13.0338   25.5045 C   0  0  0  0  0  0  0  0  0  0  0  0
    6.2074  -14.3715   25.6853 C   0  0  0  0  0  0  0  0  0  0  0  0
    7.2904  -14.6856   26.4757 C   0  0  0  0  0  0  0  0  0  0  0  0
    7.6879  -16.0882   26.6960 C   0  0  0  0  0  0  0  0  0  0  0  0
    9.0782  -16.4287   26.2649 C   0  0  2  0  0  0  0  0  0  0  0  0
    9.0460  -16.9085   24.8748 N   0  0  0  0  0  0  0  0  0  0  0  0
    9.5822  -17.5590   27.0756 C   0  0  0  0  0  0  0  0  0  0  0  0
    9.7351  -17.3916   28.3088 O   0  0  0  0  0  0  0  0  0  0  0  0
    7.9921  -13.6556   27.0656 C   0  0  0  0  0  0  0  0  0  0  0  0
    7.6405  -12.3302   26.8865 C   0  0  0  0  0  0  0  0  0  0  0  0
    9.8987  -18.8017   26.5541 O   0  0  0  0  0  0  0  0  0  0  0  0
  2  1  1  6
  2  3  1  0
  4  3  1  0
  5  4  1  0
  6  5  1  0
  7  6  1  0
  8  2  1  0
  9  8  2  0
 10  8  1  0
 11 10  1  0
 11 12  1  1
 13 14  1  0
 13 12  1  0
 14 15  2  0
 16 11  1  0
 16 17  2  0
 18 14  1  0
 20 19  1  0
 21 20  2  0
 22 21  1  0
 23 22  2  0
 23 29  1  0
 25 24  1  1
 24 23  1  0
 25 26  1  0
 26 16  1  0
 27 25  1  0
 28 27  2  0
 29 30  2  0
 30 20  1  0
 31 27  1  0
M  END
$$$$
