KEY.pdb
     RDKit          3D

 31 31  0  0  1  0  0  0  0  0999 V2000
    7.9510  -17.7074   19.6109 N   0  0  0  0  0  0  0  0  0  0  0  0
    9.0259  -16.7487   19.7824 C   0  0  1  0  0  0  0  0  0  0  0  0
    8.5240  -15.3111   19.7152 C   0  0  0  0  0  0  0  0  0  0  0  0
    7.9259  -15.0882   18.3447 C   0  0  0  0  0  0  0  0  0  0  0  0
    7.4212  -13.6950   18.1538 C   0  0  0  0  0  0  0  0  0  0  0  0
    6.9255  -13.4290   16.7547 C   0  0  0  0  0  0  0  0  0  0  0  0
    6.4123  -12.1088   16.5759 N   0  0  0  0  0  0  0  0  0  0  0  0
    9.7721  -17.0154   21.0138 C   0  0  0  0  0  0  0  0  0  0  0  0
    9.1938  -17.5587   21.9954 O   0  0  0  0  0  0  0  0  0  0  0  0
   11.1331  -16.6789   21.1350 N   0  0  0  0  0  0  0  0  0  0  0  0
   11.9537  -16.9314   22.3056 C   0  0  1  0  0  0  0  0  0  0  0  0
   13.4035  -16.8184   22.0236 C   0  0  0  0  0  0  0  0  0  0  0  0
   13.8952  -15.7303   21.1705 C   0  0  0  0  0  0  0  0  0  0  0  0
   15.1395  -15.8854   20.4231 C   0  0  0  0  0  0  0  0  0  0  0  0
   15.8744  -16.8705   20.3150 O   0  0  0  0  0  0  0  0  0  0  0  0
   11.4706  -16.1627   23.4423 C   0  0  0  0  0  0  0  0  0  0  0  0
   11.7383  -14.9144   23.5249 O   0  0  0  0  0  0  0  0  0  0  0  0
   15.6083  -14.7411   19.6929 O   0  0  0  0  0  0  0  0  0  0  0  0
    5.5770  -11.7340   27.6972 O   0  0  0  0  0  0  0  0  0  0  0  0
    6.3969  -12.5555   26.9392 C   0  0  0  0  0  0  0  0  0  0  0  0
    5.9603  -13.8031   26.5050 C   0  0  0  0  0  0  0  0  0  0  0  0
    6.7744  -14.6411   25.7413 C   0  0  0  0  0  0  0  0  0  0  0  0
    8.0449  -14.2307   25.4042 C   0  0  0  0  0  0  0  0  0  0  0  0
    8.9350  -15.0944   24.6070 C   0  0  0  0  0  0  0  0  0  0  0  0
    9.9685  -15.8366   25.3918 C   0  0  2  0  0  0  0  0  0  0  0  0
   10.7024  -16.7365   24.4890 N   0  0  0  0  0  0  0  0  0  0  0  0
    9.3014  -16.7081   26.3839 C   0  0  0  0  0  0  0  0  0  0  0  0
    8.8623  -17.8203   26.0065 O   0  0  0  0  0  0  0  0  0  0  0  0
    8.4706  -12.9930   25.8379 C   0  0  0  0  0  0  0  0  0  0  0  0
    7.6643  -12.1625   26.5944 C   0  0  0  0  0  0  0  0  0  0  0  0
    9.1297  -16.3704   27.7155 O   0  0  0  0  0  0  0  0  0  0  0  0
  2  1  1  1
  2  3  1  0
  4  3  1  0
  5  4  1  0
  6  5  1  0
  7  6  1  0
  8  2  1  0
  9  8  2  0
 10  8  1  0
 11 10  1  0
 11 12  1  6
 13 14  1  0
 13 12  1  0
 14 15  2  0
 16 11  1  0
 16 17  2  0
 18 14  1  0
 20 19  1  0
 21 20  2  0
 22 21  1  0
 23 22  2  0
 23 29  1  0
 25 24  1  6
 24 23  1  0
 25 26  1  0
 26 16  1  0
 27 25  1  0
 28 27  2  0
 29 30  2  0
 30 20  1  0
 31 27  1  0
M  END
$$$$
