KEY.pdb
     RDKit          3D

 31 31  0  0  1  0  0  0  0  0999 V2000
    6.8099  -16.7406   19.8841 N   0  0  0  0  0  0  0  0  0  0  0  0
    8.0409  -16.0166   20.1379 C   0  0  1  0  0  0  0  0  0  0  0  0
    7.7883  -14.5364   20.3993 C   0  0  0  0  0  0  0  0  0  0  0  0
    7.2946  -13.9121   19.1139 C   0  0  0  0  0  0  0  0  0  0  0  0
    8.3789  -13.7415   18.1002 C   0  0  0  0  0  0  0  0  0  0  0  0
    7.8952  -13.1293   16.8098 C   0  0  0  0  0  0  0  0  0  0  0  0
    8.8685  -13.1629   15.7659 N   0  0  0  0  0  0  0  0  0  0  0  0
    8.8033  -16.6453   21.2185 C   0  0  0  0  0  0  0  0  0  0  0  0
    8.2020  -17.1051   22.2285 O   0  0  0  0  0  0  0  0  0  0  0  0
   10.2053  -16.7527   21.1617 N   0  0  0  0  0  0  0  0  0  0  0  0
   11.0497  -17.2294   22.2421 C   0  0  1  0  0  0  0  0  0  0  0  0
   12.4222  -17.5590   21.7930 C   0  0  0  0  0  0  0  0  0  0  0  0
   13.4021  -18.0642   22.7616 C   0  0  0  0  0  0  0  0  0  0  0  0
   14.7146  -18.5188   22.3124 C   0  0  0  0  0  0  0  0  0  0  0  0
   15.4145  -19.4422   22.7364 O   0  0  0  0  0  0  0  0  0  0  0  0
   10.9582  -16.3412   23.3906 C   0  0  0  0  0  0  0  0  0  0  0  0
   11.3935  -15.1414   23.3021 O   0  0  0  0  0  0  0  0  0  0  0  0
   15.3102  -17.8087   21.2154 O   0  0  0  0  0  0  0  0  0  0  0  0
    5.7888  -11.2616   27.8701 O   0  0  0  0  0  0  0  0  0  0  0  0
    6.4978  -12.1905   27.1245 C   0  0  0  0  0  0  0  0  0  0  0  0
    7.8385  -11.9890   26.8123 C   0  0  0  0  0  0  0  0  0  0  0  0
    8.5652  -12.9152   26.0625 C   0  0  0  0  0  0  0  0  0  0  0  0
    7.9470  -14.0616   25.6155 C   0  0  0  0  0  0  0  0  0  0  0  0
    8.6819  -15.0566   24.8131 C   0  0  0  0  0  0  0  0  0  0  0  0
    9.8309  -15.7106   25.5108 C   0  0  2  0  0  0  0  0  0  0  0  0
   10.4008  -16.7438   24.6325 N   0  0  0  0  0  0  0  0  0  0  0  0
    9.3382  -16.4212   26.7112 C   0  0  0  0  0  0  0  0  0  0  0  0
    8.9268  -17.5989   26.5848 O   0  0  0  0  0  0  0  0  0  0  0  0
    6.6182  -14.2547   25.9289 C   0  0  0  0  0  0  0  0  0  0  0  0
    5.8980  -13.3373   26.6718 C   0  0  0  0  0  0  0  0  0  0  0  0
    9.3023  -15.8629   27.9776 O   0  0  0  0  0  0  0  0  0  0  0  0
  2  1  1  1
  2  3  1  0
  4  3  1  0
  5  4  1  0
  6  5  1  0
  7  6  1  0
  8  2  1  0
  9  8  2  0
 10  8  1  0
 11 10  1  0
 11 12  1  6
 13 14  1  0
 13 12  1  0
 14 15  2  0
 16 11  1  0
 16 17  2  0
 18 14  1  0
 20 19  1  0
 21 20  2  0
 22 21  1  0
 23 22  2  0
 23 29  1  0
 25 24  1  6
 24 23  1  0
 25 26  1  0
 26 16  1  0
 27 25  1  0
 28 27  2  0
 29 30  2  0
 30 20  1  0
 31 27  1  0
M  END
$$$$
