KEY.pdb
     RDKit          3D

 31 31  0  0  1  0  0  0  0  0999 V2000
    7.6341  -18.0631   18.9830 N   0  0  0  0  0  0  0  0  0  0  0  0
    9.0374  -17.7565   19.1850 C   0  0  1  0  0  0  0  0  0  0  0  0
    9.4132  -16.3976   18.6062 C   0  0  0  0  0  0  0  0  0  0  0  0
    8.5069  -15.3583   19.2262 C   0  0  0  0  0  0  0  0  0  0  0  0
    8.8500  -13.9666   18.8048 C   0  0  0  0  0  0  0  0  0  0  0  0
    7.9591  -12.9207   19.4263 C   0  0  0  0  0  0  0  0  0  0  0  0
    8.1866  -11.6064   18.9176 N   0  0  0  0  0  0  0  0  0  0  0  0
    9.3990  -17.8728   20.5992 C   0  0  0  0  0  0  0  0  0  0  0  0
    8.5029  -17.8078   21.4857 O   0  0  0  0  0  0  0  0  0  0  0  0
   10.7345  -18.0574   21.0027 N   0  0  0  0  0  0  0  0  0  0  0  0
   11.1793  -18.1916   22.3781 C   0  0  1  0  0  0  0  0  0  0  0  0
   12.6154  -18.5383   22.4839 C   0  0  0  0  0  0  0  0  0  0  0  0
   13.2432  -18.6386   23.8066 C   0  0  0  0  0  0  0  0  0  0  0  0
   14.6628  -18.9577   23.9257 C   0  0  0  0  0  0  0  0  0  0  0  0
   15.2057  -19.9959   24.3122 O   0  0  0  0  0  0  0  0  0  0  0  0
   10.7466  -17.0487   23.1675 C   0  0  0  0  0  0  0  0  0  0  0  0
   11.0474  -15.8644   22.7886 O   0  0  0  0  0  0  0  0  0  0  0  0
   15.5952  -17.9339   23.5448 O   0  0  0  0  0  0  0  0  0  0  0  0
    5.7948  -11.2464   27.3523 O   0  0  0  0  0  0  0  0  0  0  0  0
    6.3892  -12.3012   26.6772 C   0  0  0  0  0  0  0  0  0  0  0  0
    7.6362  -12.1587   26.0770 C   0  0  0  0  0  0  0  0  0  0  0  0
    8.2470  -13.2116   25.3940 C   0  0  0  0  0  0  0  0  0  0  0  0
    7.6058  -14.4271   25.3065 C   0  0  0  0  0  0  0  0  0  0  0  0
    8.2176  -15.5577   24.5845 C   0  0  0  0  0  0  0  0  0  0  0  0
    9.5759  -15.9567   25.0649 C   0  0  2  0  0  0  0  0  0  0  0  0
    9.9931  -17.1803   24.3634 N   0  0  0  0  0  0  0  0  0  0  0  0
    9.5062  -16.3117   26.4994 C   0  0  0  0  0  0  0  0  0  0  0  0
    9.1774  -15.4243   27.3219 O   0  0  0  0  0  0  0  0  0  0  0  0
    6.3703  -14.5609   25.9039 C   0  0  0  0  0  0  0  0  0  0  0  0
    5.7649  -13.5181   26.5807 C   0  0  0  0  0  0  0  0  0  0  0  0
    9.7835  -17.5739   26.9960 O   0  0  0  0  0  0  0  0  0  0  0  0
  2  1  1  1
  2  3  1  0
  4  3  1  0
  5  4  1  0
  6  5  1  0
  7  6  1  0
  8  2  1  0
  9  8  2  0
 10  8  1  0
 11 10  1  0
 11 12  1  6
 13 14  1  0
 13 12  1  0
 14 15  2  0
 16 11  1  0
 16 17  2  0
 18 14  1  0
 20 19  1  0
 21 20  2  0
 22 21  1  0
 23 22  2  0
 23 29  1  0
 25 24  1  6
 24 23  1  0
 25 26  1  0
 26 16  1  0
 27 25  1  0
 28 27  2  0
 29 30  2  0
 30 20  1  0
 31 27  1  0
M  END
$$$$
