KEY.pdb
     RDKit          3D

 31 31  0  0  1  0  0  0  0  0999 V2000
    7.3715  -17.1697   21.6414 N   0  0  0  0  0  0  0  0  0  0  0  0
    8.6123  -16.4440   21.8359 C   0  0  1  0  0  0  0  0  0  0  0  0
    8.4055  -14.9351   21.7780 C   0  0  0  0  0  0  0  0  0  0  0  0
    7.8487  -14.5913   20.4151 C   0  0  0  0  0  0  0  0  0  0  0  0
    7.6395  -13.1237   20.2294 C   0  0  0  0  0  0  0  0  0  0  0  0
    7.2605  -12.7512   18.8182 C   0  0  0  0  0  0  0  0  0  0  0  0
    6.9625  -11.3642   18.6579 N   0  0  0  0  0  0  0  0  0  0  0  0
    9.2739  -16.8630   23.0732 C   0  0  0  0  0  0  0  0  0  0  0  0
    8.5861  -17.2884   24.0422 O   0  0  0  0  0  0  0  0  0  0  0  0
   10.6729  -16.8039   23.2140 N   0  0  0  0  0  0  0  0  0  0  0  0
   11.4132  -17.2483   24.3810 C   0  0  1  0  0  0  0  0  0  0  0  0
   12.8557  -17.4404   24.1048 C   0  0  0  0  0  0  0  0  0  0  0  0
   13.6918  -16.2822   23.7687 C   0  0  0  0  0  0  0  0  0  0  0  0
   14.9680  -16.4688   23.0848 C   0  0  0  0  0  0  0  0  0  0  0  0
   16.1031  -16.5814   23.5551 O   0  0  0  0  0  0  0  0  0  0  0  0
   11.0969  -16.4171   25.5323 C   0  0  0  0  0  0  0  0  0  0  0  0
   11.5110  -15.2075   25.5756 O   0  0  0  0  0  0  0  0  0  0  0  0
   14.9354  -16.5359   21.6507 O   0  0  0  0  0  0  0  0  0  0  0  0
    6.3425  -11.9101   24.7596 O   0  0  0  0  0  0  0  0  0  0  0  0
    6.9414  -12.8512   25.5825 C   0  0  0  0  0  0  0  0  0  0  0  0
    8.0831  -12.5425   26.3152 C   0  0  0  0  0  0  0  0  0  0  0  0
    8.6971  -13.4795   27.1478 C   0  0  0  0  0  0  0  0  0  0  0  0
    8.1661  -14.7457   27.2527 C   0  0  0  0  0  0  0  0  0  0  0  0
    8.7945  -15.7631   28.1152 C   0  0  0  0  0  0  0  0  0  0  0  0
   10.2367  -16.0338   27.8294 C   0  0  2  0  0  0  0  0  0  0  0  0
   10.3377  -16.8874   26.6358 N   0  0  0  0  0  0  0  0  0  0  0  0
   10.8206  -16.8156   28.9414 C   0  0  0  0  0  0  0  0  0  0  0  0
   10.8748  -16.2920   30.0794 O   0  0  0  0  0  0  0  0  0  0  0  0
    7.0345  -15.0444   26.5237 C   0  0  0  0  0  0  0  0  0  0  0  0
    6.4259  -14.1163   25.6989 C   0  0  0  0  0  0  0  0  0  0  0  0
   11.3158  -18.1011   28.8039 O   0  0  0  0  0  0  0  0  0  0  0  0
  2  1  1  1
  2  3  1  0
  4  3  1  0
  5  4  1  0
  6  5  1  0
  7  6  1  0
  8  2  1  0
  9  8  2  0
 10  8  1  0
 11 10  1  0
 11 12  1  6
 13 14  1  0
 13 12  1  0
 14 15  2  0
 16 11  1  0
 16 17  2  0
 18 14  1  0
 20 19  1  0
 21 20  2  0
 22 21  1  0
 23 22  2  0
 23 29  1  0
 25 24  1  1
 24 23  1  0
 25 26  1  0
 26 16  1  0
 27 25  1  0
 28 27  2  0
 29 30  2  0
 30 20  1  0
 31 27  1  0
M  END
$$$$
