KEY.pdb
     RDKit          3D

 31 31  0  0  1  0  0  0  0  0999 V2000
   10.0625  -13.9072   18.5484 N   0  0  0  0  0  0  0  0  0  0  0  0
    8.9253  -13.7821   19.4401 C   0  0  1  0  0  0  0  0  0  0  0  0
    7.6024  -13.8046   18.6837 C   0  0  0  0  0  0  0  0  0  0  0  0
    7.8903  -13.5097   17.2290 C   0  0  0  0  0  0  0  0  0  0  0  0
    7.4919  -14.6284   16.3225 C   0  0  0  0  0  0  0  0  0  0  0  0
    7.7134  -14.3186   14.8634 C   0  0  0  0  0  0  0  0  0  0  0  0
    7.2520  -15.3479   13.9883 N   0  0  0  0  0  0  0  0  0  0  0  0
    8.9748  -14.7965   20.4950 C   0  0  0  0  0  0  0  0  0  0  0  0
    7.9737  -14.9775   21.2421 O   0  0  0  0  0  0  0  0  0  0  0  0
   10.1218  -15.5853   20.7018 N   0  0  0  0  0  0  0  0  0  0  0  0
   10.2415  -16.6395   21.6927 C   0  0  1  0  0  0  0  0  0  0  0  0
   10.9309  -17.8415   21.1692 C   0  0  0  0  0  0  0  0  0  0  0  0
   11.6636  -17.7641   19.9001 C   0  0  0  0  0  0  0  0  0  0  0  0
   12.6922  -18.7500   19.5823 C   0  0  0  0  0  0  0  0  0  0  0  0
   13.1373  -19.6720   20.2708 O   0  0  0  0  0  0  0  0  0  0  0  0
   10.7629  -16.1076   22.9424 C   0  0  0  0  0  0  0  0  0  0  0  0
   11.6540  -15.1899   22.9197 O   0  0  0  0  0  0  0  0  0  0  0  0
   13.2983  -18.6641   18.2832 O   0  0  0  0  0  0  0  0  0  0  0  0
    5.8829  -11.2706   27.9629 O   0  0  0  0  0  0  0  0  0  0  0  0
    6.5606  -12.1491   27.1320 C   0  0  0  0  0  0  0  0  0  0  0  0
    7.7458  -12.7535   27.5388 C   0  0  0  0  0  0  0  0  0  0  0  0
    8.4391  -13.6401   26.7133 C   0  0  0  0  0  0  0  0  0  0  0  0
    7.9446  -13.9299   25.4612 C   0  0  0  0  0  0  0  0  0  0  0  0
    8.6561  -14.8542   24.5595 C   0  0  0  0  0  0  0  0  0  0  0  0
    9.8137  -15.5739   25.1735 C   0  0  2  0  0  0  0  0  0  0  0  0
   10.3273  -16.5637   24.2142 N   0  0  0  0  0  0  0  0  0  0  0  0
    9.3476  -16.3456   26.3465 C   0  0  0  0  0  0  0  0  0  0  0  0
    9.4849  -15.8442   27.4876 O   0  0  0  0  0  0  0  0  0  0  0  0
    6.7695  -13.3273   25.0649 C   0  0  0  0  0  0  0  0  0  0  0  0
    6.0823  -12.4490   25.8826 C   0  0  0  0  0  0  0  0  0  0  0  0
    8.7639  -17.5981   26.2636 O   0  0  0  0  0  0  0  0  0  0  0  0
  2  1  1  6
  2  3  1  0
  4  3  1  0
  5  4  1  0
  6  5  1  0
  7  6  1  0
  8  2  1  0
  9  8  2  0
 10  8  1  0
 11 10  1  0
 11 12  1  6
 13 14  1  0
 13 12  1  0
 14 15  2  0
 16 11  1  0
 16 17  2  0
 18 14  1  0
 20 19  1  0
 21 20  2  0
 22 21  1  0
 23 22  2  0
 23 29  1  0
 25 24  1  6
 24 23  1  0
 25 26  1  0
 26 16  1  0
 27 25  1  0
 28 27  2  0
 29 30  2  0
 30 20  1  0
 31 27  1  0
M  END
$$$$
