KEY.pdb
     RDKit          3D

 31 31  0  0  1  0  0  0  0  0999 V2000
    8.5407  -17.4419   19.2359 N   0  0  0  0  0  0  0  0  0  0  0  0
    8.4591  -16.5484   20.3756 C   0  0  1  0  0  0  0  0  0  0  0  0
    7.0193  -16.3239   20.8222 C   0  0  0  0  0  0  0  0  0  0  0  0
    6.3346  -17.6702   20.8876 C   0  0  0  0  0  0  0  0  0  0  0  0
    4.8874  -17.5661   21.2437 C   0  0  0  0  0  0  0  0  0  0  0  0
    4.1997  -18.9051   21.3338 C   0  0  0  0  0  0  0  0  0  0  0  0
    2.8005  -18.8077   21.6005 N   0  0  0  0  0  0  0  0  0  0  0  0
    9.3092  -17.0199   21.4708 C   0  0  0  0  0  0  0  0  0  0  0  0
    8.9737  -18.0399   22.1341 O   0  0  0  0  0  0  0  0  0  0  0  0
   10.5050  -16.3592   21.8087 N   0  0  0  0  0  0  0  0  0  0  0  0
   11.3965  -16.7476   22.8865 C   0  0  1  0  0  0  0  0  0  0  0  0
   12.8160  -16.4430   22.5930 C   0  0  0  0  0  0  0  0  0  0  0  0
   13.8438  -16.7276   23.6011 C   0  0  0  0  0  0  0  0  0  0  0  0
   15.2516  -16.4743   23.3093 C   0  0  0  0  0  0  0  0  0  0  0  0
   16.1854  -17.2715   23.1882 O   0  0  0  0  0  0  0  0  0  0  0  0
   10.8973  -16.2582   24.1624 C   0  0  0  0  0  0  0  0  0  0  0  0
   10.9638  -15.0097   24.4339 O   0  0  0  0  0  0  0  0  0  0  0  0
   15.6440  -15.1045   23.1306 O   0  0  0  0  0  0  0  0  0  0  0  0
    6.1420  -11.2946   26.3024 O   0  0  0  0  0  0  0  0  0  0  0  0
    6.6973  -12.5641   26.3408 C   0  0  0  0  0  0  0  0  0  0  0  0
    6.1638  -13.6049   25.5873 C   0  0  0  0  0  0  0  0  0  0  0  0
    6.7120  -14.8882   25.6157 C   0  0  0  0  0  0  0  0  0  0  0  0
    7.8097  -15.1402   26.4080 C   0  0  0  0  0  0  0  0  0  0  0  0
    8.4083  -16.4862   26.4695 C   0  0  0  0  0  0  0  0  0  0  0  0
    9.9022  -16.5189   26.4219 C   0  0  2  0  0  0  0  0  0  0  0  0
   10.3291  -17.1109   25.1448 N   0  0  0  0  0  0  0  0  0  0  0  0
   10.4090  -17.4204   27.4798 C   0  0  0  0  0  0  0  0  0  0  0  0
   10.8431  -18.5492   27.1489 O   0  0  0  0  0  0  0  0  0  0  0  0
    8.3330  -14.1039   27.1519 C   0  0  0  0  0  0  0  0  0  0  0  0
    7.7903  -12.8324   27.1238 C   0  0  0  0  0  0  0  0  0  0  0  0
   10.4347  -17.0935   28.8248 O   0  0  0  0  0  0  0  0  0  0  0  0
  2  1  1  6
  2  3  1  0
  4  3  1  0
  5  4  1  0
  6  5  1  0
  7  6  1  0
  8  2  1  0
  9  8  2  0
 10  8  1  0
 11 10  1  0
 11 12  1  6
 13 14  1  0
 13 12  1  0
 14 15  2  0
 16 11  1  0
 16 17  2  0
 18 14  1  0
 20 19  1  0
 21 20  2  0
 22 21  1  0
 23 22  2  0
 23 29  1  0
 25 24  1  6
 24 23  1  0
 25 26  1  0
 26 16  1  0
 27 25  1  0
 28 27  2  0
 29 30  2  0
 30 20  1  0
 31 27  1  0
M  END
$$$$
