KEY.pdb
     RDKit          3D

 31 31  0  0  1  0  0  0  0  0999 V2000
    6.3333  -16.3276   21.4742 N   0  0  0  0  0  0  0  0  0  0  0  0
    7.5690  -15.6699   21.8544 C   0  0  1  0  0  0  0  0  0  0  0  0
    7.3608  -14.1877   22.1425 C   0  0  0  0  0  0  0  0  0  0  0  0
    6.9638  -13.5113   20.8499 C   0  0  0  0  0  0  0  0  0  0  0  0
    8.0954  -13.4087   19.8799 C   0  0  0  0  0  0  0  0  0  0  0  0
    7.7589  -12.5909   18.6585 C   0  0  0  0  0  0  0  0  0  0  0  0
    8.8695  -12.3948   17.7831 N   0  0  0  0  0  0  0  0  0  0  0  0
    8.2076  -16.3650   22.9739 C   0  0  0  0  0  0  0  0  0  0  0  0
    7.5215  -16.7071   23.9765 O   0  0  0  0  0  0  0  0  0  0  0  0
    9.5822  -16.6661   22.9630 N   0  0  0  0  0  0  0  0  0  0  0  0
   10.3012  -17.3209   24.0409 C   0  0  1  0  0  0  0  0  0  0  0  0
   11.5647  -17.9475   23.5884 C   0  0  0  0  0  0  0  0  0  0  0  0
   12.4308  -18.6222   24.5622 C   0  0  0  0  0  0  0  0  0  0  0  0
   13.6942  -19.2168   24.1364 C   0  0  0  0  0  0  0  0  0  0  0  0
   14.0744  -19.5296   23.0052 O   0  0  0  0  0  0  0  0  0  0  0  0
   10.4123  -16.4364   25.1906 C   0  0  0  0  0  0  0  0  0  0  0  0
   10.8830  -15.2562   25.0411 O   0  0  0  0  0  0  0  0  0  0  0  0
   14.6628  -19.4923   25.1603 O   0  0  0  0  0  0  0  0  0  0  0  0
    6.3797  -11.5489   25.0915 O   0  0  0  0  0  0  0  0  0  0  0  0
    7.0494  -12.4913   25.8563 C   0  0  0  0  0  0  0  0  0  0  0  0
    6.6844  -13.8335   25.8246 C   0  0  0  0  0  0  0  0  0  0  0  0
    7.3493  -14.7936   26.5889 C   0  0  0  0  0  0  0  0  0  0  0  0
    8.3952  -14.4115   27.3990 C   0  0  0  0  0  0  0  0  0  0  0  0
    9.1134  -15.3977   28.2270 C   0  0  0  0  0  0  0  0  0  0  0  0
   10.3689  -15.9392   27.6226 C   0  0  2  0  0  0  0  0  0  0  0  0
   10.0191  -16.8218   26.4991 N   0  0  0  0  0  0  0  0  0  0  0  0
   11.0633  -16.7926   28.6117 C   0  0  0  0  0  0  0  0  0  0  0  0
   11.4290  -16.2790   29.6955 O   0  0  0  0  0  0  0  0  0  0  0  0
    8.7514  -13.0798   27.4253 C   0  0  0  0  0  0  0  0  0  0  0  0
    8.0930  -12.1283   26.6680 C   0  0  0  0  0  0  0  0  0  0  0  0
   11.3375  -18.1352   28.4146 O   0  0  0  0  0  0  0  0  0  0  0  0
  2  1  1  1
  2  3  1  0
  4  3  1  0
  5  4  1  0
  6  5  1  0
  7  6  1  0
  8  2  1  0
  9  8  2  0
 10  8  1  0
 11 10  1  0
 11 12  1  6
 13 14  1  0
 13 12  1  0
 14 15  2  0
 16 11  1  0
 16 17  2  0
 18 14  1  0
 20 19  1  0
 21 20  2  0
 22 21  1  0
 23 22  2  0
 23 29  1  0
 25 24  1  1
 24 23  1  0
 25 26  1  0
 26 16  1  0
 27 25  1  0
 28 27  2  0
 29 30  2  0
 30 20  1  0
 31 27  1  0
M  END
$$$$
