KEY.pdb
     RDKit          3D

 31 31  0  0  1  0  0  0  0  0999 V2000
    9.7252  -13.3095   18.1392 N   0  0  0  0  0  0  0  0  0  0  0  0
    8.6507  -13.3306   19.1134 C   0  0  1  0  0  0  0  0  0  0  0  0
    7.2788  -13.3344   18.4492 C   0  0  0  0  0  0  0  0  0  0  0  0
    7.4843  -13.3641   16.9517 C   0  0  0  0  0  0  0  0  0  0  0  0
    7.3376  -14.7345   16.3750 C   0  0  0  0  0  0  0  0  0  0  0  0
    7.3556  -14.7500   14.8673 C   0  0  0  0  0  0  0  0  0  0  0  0
    7.1346  -16.0458   14.3103 N   0  0  0  0  0  0  0  0  0  0  0  0
    8.8144  -14.4464   20.0474 C   0  0  0  0  0  0  0  0  0  0  0  0
    7.9646  -14.6320   20.9619 O   0  0  0  0  0  0  0  0  0  0  0  0
    9.9065  -15.3289   19.9526 N   0  0  0  0  0  0  0  0  0  0  0  0
   10.1098  -16.4972   20.7900 C   0  0  1  0  0  0  0  0  0  0  0  0
   10.9442  -17.5318   20.1363 C   0  0  0  0  0  0  0  0  0  0  0  0
   11.2733  -18.7647   20.8611 C   0  0  0  0  0  0  0  0  0  0  0  0
   12.1473  -19.7645   20.2546 C   0  0  0  0  0  0  0  0  0  0  0  0
   12.0087  -20.9881   20.1789 O   0  0  0  0  0  0  0  0  0  0  0  0
   10.5286  -16.1005   22.1256 C   0  0  0  0  0  0  0  0  0  0  0  0
   11.5781  -15.3844   22.2758 O   0  0  0  0  0  0  0  0  0  0  0  0
   13.3579  -19.2887   19.6459 O   0  0  0  0  0  0  0  0  0  0  0  0
   10.5873  -14.7420   30.9169 O   0  0  0  0  0  0  0  0  0  0  0  0
   10.2453  -15.0103   29.6006 C   0  0  0  0  0  0  0  0  0  0  0  0
    9.9988  -13.9806   28.6980 C   0  0  0  0  0  0  0  0  0  0  0  0
    9.6536  -14.2352   27.3698 C   0  0  0  0  0  0  0  0  0  0  0  0
    9.5515  -15.5369   26.9323 C   0  0  0  0  0  0  0  0  0  0  0  0
    9.1796  -15.8422   25.5387 C   0  0  0  0  0  0  0  0  0  0  0  0
   10.3291  -16.0154   24.5987 C   0  0  2  0  0  0  0  0  0  0  0  0
    9.8203  -16.4750   23.2974 N   0  0  0  0  0  0  0  0  0  0  0  0
   11.2132  -17.0926   25.0953 C   0  0  0  0  0  0  0  0  0  0  0  0
   10.8977  -18.2834   24.8614 O   0  0  0  0  0  0  0  0  0  0  0  0
    9.7974  -16.5522   27.8324 C   0  0  0  0  0  0  0  0  0  0  0  0
   10.1396  -16.3002   29.1483 C   0  0  0  0  0  0  0  0  0  0  0  0
   12.3781  -16.8672   25.8086 O   0  0  0  0  0  0  0  0  0  0  0  0
  2  1  1  6
  2  3  1  0
  4  3  1  0
  5  4  1  0
  6  5  1  0
  7  6  1  0
  8  2  1  0
  9  8  2  0
 10  8  1  0
 11 10  1  0
 11 12  1  6
 13 14  1  0
 13 12  1  0
 14 15  2  0
 16 11  1  0
 16 17  2  0
 18 14  1  0
 20 19  1  0
 21 20  2  0
 22 21  1  0
 23 22  2  0
 23 29  1  0
 25 24  1  1
 24 23  1  0
 25 26  1  0
 26 16  1  0
 27 25  1  0
 28 27  2  0
 29 30  2  0
 30 20  1  0
 31 27  1  0
M  END
$$$$
