KEY.pdb
     RDKit          3D

 31 31  0  0  1  0  0  0  0  0999 V2000
    8.7929  -17.2868   18.4208 N   0  0  0  0  0  0  0  0  0  0  0  0
    8.1804  -17.8775   19.5954 C   0  0  1  0  0  0  0  0  0  0  0  0
    7.3335  -19.0954   19.2455 C   0  0  0  0  0  0  0  0  0  0  0  0
    6.7857  -18.8988   17.8501 C   0  0  0  0  0  0  0  0  0  0  0  0
    5.5044  -19.6329   17.6232 C   0  0  0  0  0  0  0  0  0  0  0  0
    4.9101  -19.3838   16.2600 C   0  0  0  0  0  0  0  0  0  0  0  0
    3.6707  -20.0603   16.0489 N   0  0  0  0  0  0  0  0  0  0  0  0
    9.1882  -18.1805   20.6136 C   0  0  0  0  0  0  0  0  0  0  0  0
    8.8333  -18.6438   21.7327 O   0  0  0  0  0  0  0  0  0  0  0  0
   10.5588  -17.9671   20.3762 N   0  0  0  0  0  0  0  0  0  0  0  0
   11.6245  -18.2664   21.3155 C   0  0  1  0  0  0  0  0  0  0  0  0
   12.9584  -18.3101   20.6729 C   0  0  0  0  0  0  0  0  0  0  0  0
   14.1514  -18.5573   21.4910 C   0  0  0  0  0  0  0  0  0  0  0  0
   15.4815  -18.4868   20.8936 C   0  0  0  0  0  0  0  0  0  0  0  0
   16.3262  -17.5898   20.9584 O   0  0  0  0  0  0  0  0  0  0  0  0
   11.5193  -17.4185   22.4930 C   0  0  0  0  0  0  0  0  0  0  0  0
   11.5842  -16.1469   22.3680 O   0  0  0  0  0  0  0  0  0  0  0  0
   15.9029  -19.6115   20.1063 O   0  0  0  0  0  0  0  0  0  0  0  0
    9.4727  -12.3959   29.0582 O   0  0  0  0  0  0  0  0  0  0  0  0
    9.6516  -13.2913   28.0151 C   0  0  0  0  0  0  0  0  0  0  0  0
   10.5691  -14.3327   28.1115 C   0  0  0  0  0  0  0  0  0  0  0  0
   10.7602  -15.2418   27.0697 C   0  0  0  0  0  0  0  0  0  0  0  0
   10.0259  -15.1121   25.9121 C   0  0  0  0  0  0  0  0  0  0  0  0
   10.2091  -16.0487   24.7882 C   0  0  0  0  0  0  0  0  0  0  0  0
   11.3543  -16.9985   24.9342 C   0  0  2  0  0  0  0  0  0  0  0  0
   11.3461  -17.9381   23.8026 N   0  0  0  0  0  0  0  0  0  0  0  0
   11.1606  -17.8202   26.1491 C   0  0  0  0  0  0  0  0  0  0  0  0
   10.4345  -18.8397   26.0744 O   0  0  0  0  0  0  0  0  0  0  0  0
    9.1184  -14.0777   25.8238 C   0  0  0  0  0  0  0  0  0  0  0  0
    8.9287  -13.1770   26.8558 C   0  0  0  0  0  0  0  0  0  0  0  0
   11.7359  -17.5323   27.3749 O   0  0  0  0  0  0  0  0  0  0  0  0
  2  1  1  6
  2  3  1  0
  4  3  1  0
  5  4  1  0
  6  5  1  0
  7  6  1  0
  8  2  1  0
  9  8  2  0
 10  8  1  0
 11 10  1  0
 11 12  1  6
 13 14  1  0
 13 12  1  0
 14 15  2  0
 16 11  1  0
 16 17  2  0
 18 14  1  0
 20 19  1  0
 21 20  2  0
 22 21  1  0
 23 22  2  0
 23 29  1  0
 25 24  1  6
 24 23  1  0
 25 26  1  0
 26 16  1  0
 27 25  1  0
 28 27  2  0
 29 30  2  0
 30 20  1  0
 31 27  1  0
M  END
$$$$
