KEY.pdb
     RDKit          3D

 31 31  0  0  1  0  0  0  0  0999 V2000
    6.2433  -17.2366   22.2541 N   0  0  0  0  0  0  0  0  0  0  0  0
    7.5512  -16.6095   22.2428 C   0  0  1  0  0  0  0  0  0  0  0  0
    7.4547  -15.0906   22.1613 C   0  0  0  0  0  0  0  0  0  0  0  0
    7.6588  -14.6858   20.7190 C   0  0  0  0  0  0  0  0  0  0  0  0
    7.5820  -13.2075   20.5170 C   0  0  0  0  0  0  0  0  0  0  0  0
    7.7879  -12.7922   19.0821 C   0  0  0  0  0  0  0  0  0  0  0  0
    7.5937  -11.3950   18.8622 N   0  0  0  0  0  0  0  0  0  0  0  0
    8.3519  -17.0507   23.3867 C   0  0  0  0  0  0  0  0  0  0  0  0
    7.7808  -17.4219   24.4494 O   0  0  0  0  0  0  0  0  0  0  0  0
    9.7580  -17.0729   23.3339 N   0  0  0  0  0  0  0  0  0  0  0  0
   10.6249  -17.5562   24.3932 C   0  0  1  0  0  0  0  0  0  0  0  0
   11.9550  -17.9784   23.8965 C   0  0  0  0  0  0  0  0  0  0  0  0
   12.6299  -17.1853   22.8626 C   0  0  0  0  0  0  0  0  0  0  0  0
   13.9344  -17.5973   22.3529 C   0  0  0  0  0  0  0  0  0  0  0  0
   14.6261  -17.0939   21.4639 O   0  0  0  0  0  0  0  0  0  0  0  0
   10.6357  -16.6226   25.5089 C   0  0  0  0  0  0  0  0  0  0  0  0
   10.9908  -15.4085   25.3179 O   0  0  0  0  0  0  0  0  0  0  0  0
   14.5316  -18.7576   22.9523 O   0  0  0  0  0  0  0  0  0  0  0  0
    6.5468  -11.8159   24.8592 O   0  0  0  0  0  0  0  0  0  0  0  0
    7.1554  -12.7312   25.7038 C   0  0  0  0  0  0  0  0  0  0  0  0
    6.6311  -14.0082   25.8770 C   0  0  0  0  0  0  0  0  0  0  0  0
    7.2327  -14.9405   26.7238 C   0  0  0  0  0  0  0  0  0  0  0  0
    8.3756  -14.5959   27.4104 C   0  0  0  0  0  0  0  0  0  0  0  0
    9.0317  -15.5525   28.3205 C   0  0  0  0  0  0  0  0  0  0  0  0
   10.3959  -15.9955   27.8990 C   0  0  2  0  0  0  0  0  0  0  0  0
   10.2665  -16.9953   26.8280 N   0  0  0  0  0  0  0  0  0  0  0  0
   11.0589  -16.6875   29.0261 C   0  0  0  0  0  0  0  0  0  0  0  0
   11.2884  -17.9160   28.9244 O   0  0  0  0  0  0  0  0  0  0  0  0
    8.8895  -13.3287   27.2336 C   0  0  0  0  0  0  0  0  0  0  0  0
    8.2938  -12.4049   26.3946 C   0  0  0  0  0  0  0  0  0  0  0  0
   11.4460  -16.0587   30.1971 O   0  0  0  0  0  0  0  0  0  0  0  0
  2  1  1  1
  2  3  1  0
  4  3  1  0
  5  4  1  0
  6  5  1  0
  7  6  1  0
  8  2  1  0
  9  8  2  0
 10  8  1  0
 11 10  1  0
 11 12  1  6
 13 14  1  0
 13 12  1  0
 14 15  2  0
 16 11  1  0
 16 17  2  0
 18 14  1  0
 20 19  1  0
 21 20  2  0
 22 21  1  0
 23 22  2  0
 23 29  1  0
 25 24  1  1
 24 23  1  0
 25 26  1  0
 26 16  1  0
 27 25  1  0
 28 27  2  0
 29 30  2  0
 30 20  1  0
 31 27  1  0
M  END
$$$$
