KEY.pdb
     RDKit          3D

 31 31  0  0  1  0  0  0  0  0999 V2000
   10.0578  -19.2336   19.0000 N   0  0  0  0  0  0  0  0  0  0  0  0
    9.9428  -17.9014   19.5622 C   0  0  1  0  0  0  0  0  0  0  0  0
    8.5364  -17.3355   19.4050 C   0  0  0  0  0  0  0  0  0  0  0  0
    7.9358  -17.9184   18.1458 C   0  0  0  0  0  0  0  0  0  0  0  0
    6.9517  -17.0010   17.4962 C   0  0  0  0  0  0  0  0  0  0  0  0
    6.3562  -17.5671   16.2318 C   0  0  0  0  0  0  0  0  0  0  0  0
    5.4995  -16.6519   15.5488 N   0  0  0  0  0  0  0  0  0  0  0  0
   10.3926  -17.8819   20.9555 C   0  0  0  0  0  0  0  0  0  0  0  0
    9.7879  -18.5721   21.8222 O   0  0  0  0  0  0  0  0  0  0  0  0
   11.4943  -17.1056   21.3606 N   0  0  0  0  0  0  0  0  0  0  0  0
   12.0961  -17.1368   22.6813 C   0  0  1  0  0  0  0  0  0  0  0  0
   13.5187  -16.7241   22.6720 C   0  0  0  0  0  0  0  0  0  0  0  0
   14.2645  -16.6581   23.9341 C   0  0  0  0  0  0  0  0  0  0  0  0
   15.6691  -16.2605   23.9395 C   0  0  0  0  0  0  0  0  0  0  0  0
   16.6777  -16.9392   24.1503 O   0  0  0  0  0  0  0  0  0  0  0  0
   11.2473  -16.4528   23.6447 C   0  0  0  0  0  0  0  0  0  0  0  0
   10.9988  -15.2062   23.4998 O   0  0  0  0  0  0  0  0  0  0  0  0
   15.9573  -14.8813   23.6621 O   0  0  0  0  0  0  0  0  0  0  0  0
    6.2198  -11.0234   26.3343 O   0  0  0  0  0  0  0  0  0  0  0  0
    6.7848  -12.2566   26.0486 C   0  0  0  0  0  0  0  0  0  0  0  0
    8.1654  -12.4190   25.9936 C   0  0  0  0  0  0  0  0  0  0  0  0
    8.7487  -13.6543   25.7073 C   0  0  0  0  0  0  0  0  0  0  0  0
    7.9441  -14.7467   25.4712 C   0  0  0  0  0  0  0  0  0  0  0  0
    8.5263  -16.0641   25.1562 C   0  0  0  0  0  0  0  0  0  0  0  0
    9.8904  -16.3056   25.7184 C   0  0  2  0  0  0  0  0  0  0  0  0
   10.6684  -17.1086   24.7626 N   0  0  0  0  0  0  0  0  0  0  0  0
    9.7794  -17.1250   26.9452 C   0  0  0  0  0  0  0  0  0  0  0  0
    9.7984  -18.3740   26.8363 O   0  0  0  0  0  0  0  0  0  0  0  0
    6.5768  -14.5782   25.5275 C   0  0  0  0  0  0  0  0  0  0  0  0
    5.9986  -13.3545   25.8113 C   0  0  0  0  0  0  0  0  0  0  0  0
    9.6547  -16.5952   28.2181 O   0  0  0  0  0  0  0  0  0  0  0  0
  2  1  1  1
  2  3  1  0
  4  3  1  0
  5  4  1  0
  6  5  1  0
  7  6  1  0
  8  2  1  0
  9  8  2  0
 10  8  1  0
 11 10  1  0
 11 12  1  6
 13 14  1  0
 13 12  1  0
 14 15  2  0
 16 11  1  0
 16 17  2  0
 18 14  1  0
 20 19  1  0
 21 20  2  0
 22 21  1  0
 23 22  2  0
 23 29  1  0
 25 24  1  6
 24 23  1  0
 25 26  1  0
 26 16  1  0
 27 25  1  0
 28 27  2  0
 29 30  2  0
 30 20  1  0
 31 27  1  0
M  END
$$$$
