KEY.pdb
     RDKit          3D

 31 31  0  0  1  0  0  0  0  0999 V2000
    7.4300  -16.2061   19.7102 N   0  0  0  0  0  0  0  0  0  0  0  0
    6.7776  -16.3798   20.9940 C   0  0  1  0  0  0  0  0  0  0  0  0
    5.5752  -17.3118   20.9011 C   0  0  0  0  0  0  0  0  0  0  0  0
    5.9188  -18.4237   19.9360 C   0  0  0  0  0  0  0  0  0  0  0  0
    4.8244  -19.4320   19.8024 C   0  0  0  0  0  0  0  0  0  0  0  0
    5.0857  -20.4533   18.7242 C   0  0  0  0  0  0  0  0  0  0  0  0
    4.0392  -21.4148   18.5877 N   0  0  0  0  0  0  0  0  0  0  0  0
    7.7358  -16.8154   22.0121 C   0  0  0  0  0  0  0  0  0  0  0  0
    7.3220  -17.2251   23.1319 O   0  0  0  0  0  0  0  0  0  0  0  0
    9.1225  -16.7898   21.7738 N   0  0  0  0  0  0  0  0  0  0  0  0
   10.1392  -17.2123   22.7200 C   0  0  1  0  0  0  0  0  0  0  0  0
   11.5043  -17.1793   22.1460 C   0  0  0  0  0  0  0  0  0  0  0  0
   11.7663  -17.8283   20.8562 C   0  0  0  0  0  0  0  0  0  0  0  0
   13.0829  -17.7255   20.2340 C   0  0  0  0  0  0  0  0  0  0  0  0
   13.9974  -18.5523   20.1875 O   0  0  0  0  0  0  0  0  0  0  0  0
    9.9722  -16.5224   23.9898 C   0  0  0  0  0  0  0  0  0  0  0  0
    9.6514  -15.2840   24.0026 O   0  0  0  0  0  0  0  0  0  0  0  0
   13.3945  -16.4921   19.5676 O   0  0  0  0  0  0  0  0  0  0  0  0
    6.7896  -10.7317   25.9936 O   0  0  0  0  0  0  0  0  0  0  0  0
    7.1487  -12.0669   26.0934 C   0  0  0  0  0  0  0  0  0  0  0  0
    7.8883  -12.5331   27.1756 C   0  0  0  0  0  0  0  0  0  0  0  0
    8.2571  -13.8744   27.2898 C   0  0  0  0  0  0  0  0  0  0  0  0
    7.8837  -14.7671   26.3100 C   0  0  0  0  0  0  0  0  0  0  0  0
    8.2644  -16.1890   26.3937 C   0  0  0  0  0  0  0  0  0  0  0  0
    9.7351  -16.4491   26.4600 C   0  0  2  0  0  0  0  0  0  0  0  0
   10.1516  -17.1635   25.2436 N   0  0  0  0  0  0  0  0  0  0  0  0
   10.0234  -17.3613   27.5885 C   0  0  0  0  0  0  0  0  0  0  0  0
    9.8675  -16.9369   28.7580 O   0  0  0  0  0  0  0  0  0  0  0  0
    7.1507  -14.2978   25.2405 C   0  0  0  0  0  0  0  0  0  0  0  0
    6.7850  -12.9691   25.1272 C   0  0  0  0  0  0  0  0  0  0  0  0
   10.4585  -18.6664   27.4337 O   0  0  0  0  0  0  0  0  0  0  0  0
  2  1  1  6
  2  3  1  0
  4  3  1  0
  5  4  1  0
  6  5  1  0
  7  6  1  0
  8  2  1  0
  9  8  2  0
 10  8  1  0
 11 10  1  0
 11 12  1  6
 13 14  1  0
 13 12  1  0
 14 15  2  0
 16 11  1  0
 16 17  2  0
 18 14  1  0
 20 19  1  0
 21 20  2  0
 22 21  1  0
 23 22  2  0
 23 29  1  0
 25 24  1  6
 24 23  1  0
 25 26  1  0
 26 16  1  0
 27 25  1  0
 28 27  2  0
 29 30  2  0
 30 20  1  0
 31 27  1  0
M  END
$$$$
