KEY.pdb
     RDKit          3D

 31 31  0  0  1  0  0  0  0  0999 V2000
    6.7044  -16.8224   20.9007 N   0  0  0  0  0  0  0  0  0  0  0  0
    7.8518  -16.0176   21.2742 C   0  0  1  0  0  0  0  0  0  0  0  0
    7.4577  -14.5843   21.6108 C   0  0  0  0  0  0  0  0  0  0  0  0
    8.2119  -13.6612   20.6808 C   0  0  0  0  0  0  0  0  0  0  0  0
    7.4102  -13.2652   19.4838 C   0  0  0  0  0  0  0  0  0  0  0  0
    8.1742  -12.3947   18.5183 C   0  0  0  0  0  0  0  0  0  0  0  0
    7.4008  -11.9830   17.3912 N   0  0  0  0  0  0  0  0  0  0  0  0
    8.6040  -16.6520   22.3586 C   0  0  0  0  0  0  0  0  0  0  0  0
    7.9970  -17.3294   23.2337 O   0  0  0  0  0  0  0  0  0  0  0  0
   10.0024  -16.5260   22.4537 N   0  0  0  0  0  0  0  0  0  0  0  0
   10.8281  -17.1448   23.4749 C   0  0  1  0  0  0  0  0  0  0  0  0
   12.2193  -17.3773   23.0228 C   0  0  0  0  0  0  0  0  0  0  0  0
   13.1721  -18.0449   23.9173 C   0  0  0  0  0  0  0  0  0  0  0  0
   13.6390  -19.3958   23.6199 C   0  0  0  0  0  0  0  0  0  0  0  0
   13.0788  -20.4796   23.8034 O   0  0  0  0  0  0  0  0  0  0  0  0
   10.6855  -16.4421   24.7407 C   0  0  0  0  0  0  0  0  0  0  0  0
   11.1296  -15.2481   24.8580 O   0  0  0  0  0  0  0  0  0  0  0  0
   14.9400  -19.5195   23.0246 O   0  0  0  0  0  0  0  0  0  0  0  0
    5.9209  -11.8241   25.0378 O   0  0  0  0  0  0  0  0  0  0  0  0
    6.5949  -12.8619   25.6625 C   0  0  0  0  0  0  0  0  0  0  0  0
    6.1440  -14.1743   25.5632 C   0  0  0  0  0  0  0  0  0  0  0  0
    6.8120  -15.2295   26.1865 C   0  0  0  0  0  0  0  0  0  0  0  0
    7.9481  -14.9742   26.9217 C   0  0  0  0  0  0  0  0  0  0  0  0
    8.6730  -16.0634   27.6012 C   0  0  0  0  0  0  0  0  0  0  0  0
   10.0806  -16.2714   27.1425 C   0  0  2  0  0  0  0  0  0  0  0  0
   10.0675  -17.0238   25.8786 N   0  0  0  0  0  0  0  0  0  0  0  0
   10.7955  -17.1236   28.1179 C   0  0  0  0  0  0  0  0  0  0  0  0
   10.9523  -16.6965   29.2863 O   0  0  0  0  0  0  0  0  0  0  0  0
    8.3891  -13.6711   27.0155 C   0  0  0  0  0  0  0  0  0  0  0  0
    7.7276  -12.6256   26.3980 C   0  0  0  0  0  0  0  0  0  0  0  0
   11.3073  -18.3749   27.8196 O   0  0  0  0  0  0  0  0  0  0  0  0
  2  1  1  1
  2  3  1  0
  4  3  1  0
  5  4  1  0
  6  5  1  0
  7  6  1  0
  8  2  1  0
  9  8  2  0
 10  8  1  0
 11 10  1  0
 11 12  1  6
 13 14  1  0
 13 12  1  0
 14 15  2  0
 16 11  1  0
 16 17  2  0
 18 14  1  0
 20 19  1  0
 21 20  2  0
 22 21  1  0
 23 22  2  0
 23 29  1  0
 25 24  1  1
 24 23  1  0
 25 26  1  0
 26 16  1  0
 27 25  1  0
 28 27  2  0
 29 30  2  0
 30 20  1  0
 31 27  1  0
M  END
$$$$
