RQQ.pdb
     RDKit          3D

 30 29  0  0  1  0  0  0  0  0999 V2000
   25.2704  -25.7816  -17.0522 N   0  0  0  0  0  0  0  0  0  0  0  0
   24.3159  -25.4092  -16.0958 C   0  0  0  0  0  0  0  0  0  0  0  0
   23.9511  -26.2135  -15.1724 N   0  0  0  0  0  0  0  0  0  0  0  0
   23.7321  -24.1132  -16.1381 N   0  0  0  0  0  0  0  0  0  0  0  0
   24.1564  -23.1291  -17.0877 C   0  0  0  0  0  0  0  0  0  0  0  0
   25.0623  -22.1317  -16.4219 C   0  0  0  0  0  0  0  0  0  0  0  0
   26.3010  -21.9516  -17.2401 C   0  0  0  0  0  0  0  0  0  0  0  0
   27.2885  -21.0017  -16.5775 C   0  0  2  0  0  0  0  0  0  0  0  0
   28.2095  -21.7855  -15.7692 N   0  0  0  0  0  0  0  0  0  0  0  0
   26.5966  -20.0064  -15.7305 C   0  0  0  0  0  0  0  0  0  0  0  0
   26.6051  -20.1669  -14.4857 O   0  0  0  0  0  0  0  0  0  0  0  0
   23.2815  -25.9680  -14.4148 N   0  0  0  0  0  0  0  0  0  0  0  0
   26.2637  -14.1479  -16.8237 C   0  0  0  0  0  0  0  0  0  0  0  0
   27.2414  -15.1520  -17.0068 O   0  0  0  0  0  0  0  0  0  0  0  0
   28.3110  -14.8750  -17.6396 C   0  0  0  0  0  0  0  0  0  0  0  0
   27.0152  -16.5281  -16.4586 C   0  0  0  0  0  0  0  0  0  0  0  0
   25.6686  -16.5519  -15.7929 C   0  0  2  0  0  0  0  0  0  0  0  0
   25.2614  -17.9156  -15.2986 N   0  0  0  0  0  0  0  0  0  0  0  0
   25.9135  -18.8666  -16.2281 C   0  0  0  0  0  0  0  0  0  0  0  0
   23.8005  -18.0800  -15.3530 O   0  0  0  0  0  0  0  0  0  0  0  0
   23.2836  -18.5262  -16.4020 N   0  0  0  0  0  0  0  0  0  0  0  0
   19.4280  -15.0553  -15.7059 C   0  0  0  0  0  0  0  0  0  0  0  0
   18.7593  -16.2907  -15.7428 O   0  0  0  0  0  0  0  0  0  0  0  0
   17.4857  -16.2623  -15.7682 C   0  0  0  0  0  0  0  0  0  0  0  0
   19.4658  -17.5950  -15.7531 C   0  0  0  0  0  0  0  0  0  0  0  0
   20.9705  -17.4112  -15.6947 C   0  0  2  0  0  0  0  0  0  0  0  0
   21.5286  -17.9813  -14.3986 N   0  0  0  0  0  0  0  0  0  0  0  0
   22.9330  -17.7595  -14.2745 C   0  0  0  0  0  0  0  0  0  0  0  0
   21.1679  -19.4248  -14.2646 O   0  0  0  0  0  0  0  0  0  0  0  0
   20.1714  -19.8308  -13.6205 O   0  0  0  0  0  0  0  0  0  0  0  0
  2  1  1  0
  3  2  2  0
  4  2  1  0
  5  6  1  0
  5  4  1  0
  7  6  1  0
  8  7  1  0
  8  9  1  1
 10 11  2  0
 10  8  1  0
 13 12  1  0
 13 15  1  0
 14 13  2  0
 16 15  1  0
 17 16  1  1
 17 18  1  0
 18 10  1  0
 19 17  1  0
 19 27  1  0
 20 19  2  0
 22 21  1  0
 22 23  2  0
 24 22  1  0
 25 24  1  0
 26 27  1  0
 26 25  1  1
 28 26  1  0
 29 28  2  0
 30 28  1  0
M  END
$$$$
