RQQ.pdb
     RDKit          3D

 30 29  0  0  1  0  0  0  0  0999 V2000
   21.8389  -20.6472   -6.7256 N   0  0  0  0  0  0  0  0  0  0  0  0
   22.5791  -21.8209   -6.9238 C   0  0  0  0  0  0  0  0  0  0  0  0
   22.0149  -22.9672   -6.9440 N   0  0  0  0  0  0  0  0  0  0  0  0
   23.9873  -21.7530   -7.1093 N   0  0  0  0  0  0  0  0  0  0  0  0
   24.5754  -20.8836   -8.0831 C   0  0  0  0  0  0  0  0  0  0  0  0
   25.5605  -21.6469   -8.9232 C   0  0  0  0  0  0  0  0  0  0  0  0
   26.3140  -20.6997   -9.8014 C   0  0  0  0  0  0  0  0  0  0  0  0
   25.5556  -20.3851  -11.0830 C   0  0  2  0  0  0  0  0  0  0  0  0
   25.2071  -21.6396  -11.7314 N   0  0  0  0  0  0  0  0  0  0  0  0
   26.3640  -19.5521  -11.9992 C   0  0  0  0  0  0  0  0  0  0  0  0
   26.8652  -18.4885  -11.5600 O   0  0  0  0  0  0  0  0  0  0  0  0
   22.5244  -23.8670   -7.0590 N   0  0  0  0  0  0  0  0  0  0  0  0
   28.2587  -20.7671  -17.2683 C   0  0  0  0  0  0  0  0  0  0  0  0
   28.1355  -21.7139  -16.2261 O   0  0  0  0  0  0  0  0  0  0  0  0
   27.9715  -22.9431  -16.5146 C   0  0  0  0  0  0  0  0  0  0  0  0
   28.1983  -21.2685  -14.7968 C   0  0  0  0  0  0  0  0  0  0  0  0
   28.5132  -19.7997  -14.7769 C   0  0  1  0  0  0  0  0  0  0  0  0
   27.4048  -18.9503  -14.2117 N   0  0  0  0  0  0  0  0  0  0  0  0
   26.6187  -19.8706  -13.3583 C   0  0  0  0  0  0  0  0  0  0  0  0
   26.5561  -18.4108  -15.2855 O   0  0  0  0  0  0  0  0  0  0  0  0
   25.6921  -19.1551  -15.8013 N   0  0  0  0  0  0  0  0  0  0  0  0
   22.5382  -15.3990  -16.9391 C   0  0  0  0  0  0  0  0  0  0  0  0
   23.0221  -15.2046  -15.6342 O   0  0  0  0  0  0  0  0  0  0  0  0
   22.1595  -15.1232  -14.7000 C   0  0  0  0  0  0  0  0  0  0  0  0
   24.4661  -15.0936  -15.3131 C   0  0  0  0  0  0  0  0  0  0  0  0
   25.3211  -15.1896  -16.5626 C   0  0  2  0  0  0  0  0  0  0  0  0
   25.7695  -16.6255  -16.7942 N   0  0  0  0  0  0  0  0  0  0  0  0
   26.6598  -17.0815  -15.7762 C   0  0  0  0  0  0  0  0  0  0  0  0
   26.3470  -16.7781  -18.1635 O   0  0  0  0  0  0  0  0  0  0  0  0
   25.7205  -16.4961  -19.2126 O   0  0  0  0  0  0  0  0  0  0  0  0
  2  1  1  0
  3  2  2  0
  4  2  1  0
  5  6  1  0
  5  4  1  0
  7  6  1  0
  8  7  1  0
  8  9  1  6
 10 11  2  0
 10  8  1  0
 13 12  1  0
 13 15  1  0
 14 13  2  0
 16 15  1  0
 17 16  1  1
 17 18  1  0
 18 10  1  0
 19 17  1  0
 19 27  1  0
 20 19  2  0
 22 21  1  0
 22 23  2  0
 24 22  1  0
 25 24  1  0
 26 27  1  0
 26 25  1  1
 28 26  1  0
 29 28  2  0
 30 28  1  0
M  END
$$$$
