RQQ.pdb
     RDKit          3D

 30 29  0  0  1  0  0  0  0  0999 V2000
   11.7216  -13.4248  -11.6759 N   0  0  0  0  0  0  0  0  0  0  0  0
   11.0001  -13.1811  -10.4992 C   0  0  0  0  0  0  0  0  0  0  0  0
   10.3038  -14.0976   -9.9444 N   0  0  0  0  0  0  0  0  0  0  0  0
   11.0335  -11.8937   -9.8961 N   0  0  0  0  0  0  0  0  0  0  0  0
   11.7891  -10.8180  -10.4635 C   0  0  0  0  0  0  0  0  0  0  0  0
   13.1182  -10.7044   -9.7711 C   0  0  0  0  0  0  0  0  0  0  0  0
   13.8810   -9.5468  -10.3319 C   0  0  0  0  0  0  0  0  0  0  0  0
   15.3030   -9.9325  -10.7133 C   0  0  2  0  0  0  0  0  0  0  0  0
   15.5631  -11.2764  -10.2214 N   0  0  0  0  0  0  0  0  0  0  0  0
   16.2901   -8.9886  -10.1462 C   0  0  0  0  0  0  0  0  0  0  0  0
   16.8265   -9.2688   -9.0465 O   0  0  0  0  0  0  0  0  0  0  0  0
    9.7542  -13.9656   -9.0709 N   0  0  0  0  0  0  0  0  0  0  0  0
   21.3457   -7.2103  -11.6647 C   0  0  0  0  0  0  0  0  0  0  0  0
   20.3057   -7.0227  -12.6034 O   0  0  0  0  0  0  0  0  0  0  0  0
   20.5848   -6.9772  -13.8448 C   0  0  0  0  0  0  0  0  0  0  0  0
   18.8895   -6.8791  -12.1351 C   0  0  0  0  0  0  0  0  0  0  0  0
   18.8863   -6.9179  -10.6333 C   0  0  1  0  0  0  0  0  0  0  0  0
   17.5129   -6.7907  -10.0272 N   0  0  0  0  0  0  0  0  0  0  0  0
   16.6814   -7.7716  -10.7619 C   0  0  0  0  0  0  0  0  0  0  0  0
   16.9776   -5.4337  -10.2181 O   0  0  0  0  0  0  0  0  0  0  0  0
   16.3871   -5.1646  -11.2884 N   0  0  0  0  0  0  0  0  0  0  0  0
   15.7357   -1.0413   -5.8315 C   0  0  0  0  0  0  0  0  0  0  0  0
   14.8691   -2.0366   -6.3143 O   0  0  0  0  0  0  0  0  0  0  0  0
   13.8408   -2.3037   -5.6111 C   0  0  0  0  0  0  0  0  0  0  0  0
   15.1030   -2.7696   -7.5826 C   0  0  0  0  0  0  0  0  0  0  0  0
   16.3526   -2.2754   -8.2866 C   0  0  2  0  0  0  0  0  0  0  0  0
   16.6135   -3.0889   -9.5462 N   0  0  0  0  0  0  0  0  0  0  0  0
   17.0919   -4.4004   -9.2497 C   0  0  0  0  0  0  0  0  0  0  0  0
   17.5254   -2.3469  -10.4679 O   0  0  0  0  0  0  0  0  0  0  0  0
   18.6604   -2.7639  -10.8001 O   0  0  0  0  0  0  0  0  0  0  0  0
  2  1  1  0
  3  2  2  0
  4  2  1  0
  5  6  1  0
  5  4  1  0
  7  6  1  0
  8  7  1  0
  8  9  1  1
 10 11  2  0
 10  8  1  0
 13 12  1  0
 13 15  1  0
 14 13  2  0
 16 15  1  0
 17 16  1  1
 17 18  1  0
 18 10  1  0
 19 17  1  0
 19 27  1  0
 20 19  2  0
 22 21  1  0
 22 23  2  0
 24 22  1  0
 25 24  1  0
 26 27  1  0
 26 25  1  1
 28 26  1  0
 29 28  2  0
 30 28  1  0
M  END
$$$$
