RQQ.pdb
     RDKit          3D

 30 29  0  0  1  0  0  0  0  0999 V2000
   30.2618  -19.8275  -19.2560 N   0  0  0  0  0  0  0  0  0  0  0  0
   29.9527  -18.4632  -19.3449 C   0  0  0  0  0  0  0  0  0  0  0  0
   30.2685  -17.7758  -20.3746 N   0  0  0  0  0  0  0  0  0  0  0  0
   29.2728  -17.8152  -18.2772 N   0  0  0  0  0  0  0  0  0  0  0  0
   28.7828  -18.5442  -17.1466 C   0  0  0  0  0  0  0  0  0  0  0  0
   27.4150  -19.0919  -17.4436 C   0  0  0  0  0  0  0  0  0  0  0  0
   26.6519  -19.2599  -16.1686 C   0  0  0  0  0  0  0  0  0  0  0  0
   27.2011  -20.3991  -15.3217 C   0  0  2  0  0  0  0  0  0  0  0  0
   27.6976  -21.4367  -16.2121 N   0  0  0  0  0  0  0  0  0  0  0  0
   26.1639  -20.9569  -14.4273 C   0  0  0  0  0  0  0  0  0  0  0  0
   25.3381  -21.7747  -14.9012 O   0  0  0  0  0  0  0  0  0  0  0  0
   30.0990  -16.7535  -20.4689 N   0  0  0  0  0  0  0  0  0  0  0  0
   25.6181  -20.0325   -8.2985 C   0  0  0  0  0  0  0  0  0  0  0  0
   26.6741  -20.6956   -8.9640 O   0  0  0  0  0  0  0  0  0  0  0  0
   27.7799  -20.8744   -8.3587 C   0  0  0  0  0  0  0  0  0  0  0  0
   26.4876  -21.1814  -10.3692 C   0  0  0  0  0  0  0  0  0  0  0  0
   25.1490  -20.7039  -10.8563 C   0  0  2  0  0  0  0  0  0  0  0  0
   24.8513  -21.0879  -12.2824 N   0  0  0  0  0  0  0  0  0  0  0  0
   26.0309  -20.6310  -13.0527 C   0  0  0  0  0  0  0  0  0  0  0  0
   23.6394  -20.4093  -12.7676 O   0  0  0  0  0  0  0  0  0  0  0  0
   23.7598  -19.4917  -13.6102 N   0  0  0  0  0  0  0  0  0  0  0  0
   20.0413  -24.1023  -14.5511 C   0  0  0  0  0  0  0  0  0  0  0  0
   19.7447  -23.0584  -15.4438 O   0  0  0  0  0  0  0  0  0  0  0  0
   18.7976  -23.2538  -16.2733 C   0  0  0  0  0  0  0  0  0  0  0  0
   20.4770  -21.7684  -15.4547 C   0  0  0  0  0  0  0  0  0  0  0  0
   21.5991  -21.7589  -14.4338 C   0  0  2  0  0  0  0  0  0  0  0  0
   21.2632  -20.8261  -13.2791 N   0  0  0  0  0  0  0  0  0  0  0  0
   22.3274  -20.7376  -12.3323 C   0  0  0  0  0  0  0  0  0  0  0  0
   19.9707  -21.2246  -12.6446 O   0  0  0  0  0  0  0  0  0  0  0  0
   19.8344  -22.2553  -11.9434 O   0  0  0  0  0  0  0  0  0  0  0  0
  2  1  1  0
  3  2  2  0
  4  2  1  0
  5  6  1  0
  5  4  1  0
  7  6  1  0
  8  7  1  0
  8  9  1  6
 10 11  2  0
 10  8  1  0
 13 12  1  0
 13 15  1  0
 14 13  2  0
 16 15  1  0
 17 16  1  1
 17 18  1  0
 18 10  1  0
 19 17  1  0
 19 27  1  0
 20 19  2  0
 22 21  1  0
 22 23  2  0
 24 22  1  0
 25 24  1  0
 26 27  1  0
 26 25  1  6
 28 26  1  0
 29 28  2  0
 30 28  1  0
M  END
$$$$
