RQQ.pdb
     RDKit          3D

 30 29  0  0  1  0  0  0  0  0999 V2000
   18.1537  -29.4730   -7.4586 N   0  0  0  0  0  0  0  0  0  0  0  0
   17.3047  -30.5276   -7.0961 C   0  0  0  0  0  0  0  0  0  0  0  0
   17.4346  -31.6915   -7.6073 N   0  0  0  0  0  0  0  0  0  0  0  0
   16.2731  -30.3162   -6.1404 N   0  0  0  0  0  0  0  0  0  0  0  0
   16.1024  -29.0539   -5.4866 C   0  0  0  0  0  0  0  0  0  0  0  0
   17.2965  -28.7585   -4.6230 C   0  0  0  0  0  0  0  0  0  0  0  0
   16.9636  -27.6632   -3.6608 C   0  0  0  0  0  0  0  0  0  0  0  0
   16.6794  -26.3475   -4.3711 C   0  0  2  0  0  0  0  0  0  0  0  0
   17.8741  -25.9504   -5.0997 N   0  0  0  0  0  0  0  0  0  0  0  0
   16.2976  -25.2873   -3.4136 C   0  0  0  0  0  0  0  0  0  0  0  0
   17.2066  -24.6660   -2.8109 O   0  0  0  0  0  0  0  0  0  0  0  0
   16.8196  -32.5001   -7.3825 N   0  0  0  0  0  0  0  0  0  0  0  0
   11.4033  -21.8848   -4.0636 C   0  0  0  0  0  0  0  0  0  0  0  0
   12.6722  -21.4617   -4.5204 O   0  0  0  0  0  0  0  0  0  0  0  0
   12.7455  -20.5535   -5.4097 C   0  0  0  0  0  0  0  0  0  0  0  0
   13.9162  -22.0805   -3.9590 C   0  0  0  0  0  0  0  0  0  0  0  0
   13.5131  -23.0549   -2.8889 C   0  0  2  0  0  0  0  0  0  0  0  0
   14.6772  -23.7580   -2.2405 N   0  0  0  0  0  0  0  0  0  0  0  0
   14.9601  -24.9148   -3.1210 C   0  0  0  0  0  0  0  0  0  0  0  0
   14.3233  -24.2266   -0.8916 O   0  0  0  0  0  0  0  0  0  0  0  0
   13.5694  -25.2192   -0.7777 N   0  0  0  0  0  0  0  0  0  0  0  0
   17.1832  -22.5569    4.4534 C   0  0  0  0  0  0  0  0  0  0  0  0
   17.6244  -23.3644    3.3913 O   0  0  0  0  0  0  0  0  0  0  0  0
   18.8779  -23.5747    3.3023 C   0  0  0  0  0  0  0  0  0  0  0  0
   16.7054  -23.9660    2.3943 C   0  0  0  0  0  0  0  0  0  0  0  0
   15.2576  -23.6351    2.7038 C   0  0  2  0  0  0  0  0  0  0  0  0
   14.3507  -24.0936    1.5708 N   0  0  0  0  0  0  0  0  0  0  0  0
   14.7917  -23.6133    0.3013 C   0  0  0  0  0  0  0  0  0  0  0  0
   12.9314  -23.7242    1.8556 O   0  0  0  0  0  0  0  0  0  0  0  0
   12.4416  -22.6025    1.5830 O   0  0  0  0  0  0  0  0  0  0  0  0
  2  1  1  0
  3  2  2  0
  4  2  1  0
  5  6  1  0
  5  4  1  0
  7  6  1  0
  8  7  1  0
  8  9  1  1
 10 11  2  0
 10  8  1  0
 13 12  1  0
 13 15  1  0
 14 13  2  0
 16 15  1  0
 17 16  1  6
 17 18  1  0
 18 10  1  0
 19 17  1  0
 19 27  1  0
 20 19  2  0
 22 21  1  0
 22 23  2  0
 24 22  1  0
 25 24  1  0
 26 27  1  0
 26 25  1  6
 28 26  1  0
 29 28  2  0
 30 28  1  0
M  END
$$$$
