RQQ.pdb
     RDKit          3D

 30 29  0  0  1  0  0  0  0  0999 V2000
   24.6558  -20.6689   -9.1299 N   0  0  0  0  0  0  0  0  0  0  0  0
   25.9553  -20.6375   -8.6055 C   0  0  0  0  0  0  0  0  0  0  0  0
   26.1969  -20.1313   -7.4574 N   0  0  0  0  0  0  0  0  0  0  0  0
   27.0387  -21.1765   -9.3524 N   0  0  0  0  0  0  0  0  0  0  0  0
   26.8524  -21.7083  -10.6686 C   0  0  0  0  0  0  0  0  0  0  0  0
   28.0008  -21.3064  -11.5509 C   0  0  0  0  0  0  0  0  0  0  0  0
   27.6071  -20.1295  -12.3852 C   0  0  0  0  0  0  0  0  0  0  0  0
   26.3032  -20.3711  -13.1322 C   0  0  2  0  0  0  0  0  0  0  0  0
   26.4025  -21.6424  -13.8320 N   0  0  0  0  0  0  0  0  0  0  0  0
   26.0232  -19.2856  -14.0968 C   0  0  0  0  0  0  0  0  0  0  0  0
   26.0449  -18.0988  -13.6889 O   0  0  0  0  0  0  0  0  0  0  0  0
   27.1423  -20.0885   -7.0252 N   0  0  0  0  0  0  0  0  0  0  0  0
   27.6956  -17.4992  -19.6189 C   0  0  0  0  0  0  0  0  0  0  0  0
   28.4163  -17.5767  -18.4055 O   0  0  0  0  0  0  0  0  0  0  0  0
   29.6178  -17.1574  -18.3642 C   0  0  0  0  0  0  0  0  0  0  0  0
   27.7663  -18.1482  -17.1822 C   0  0  0  0  0  0  0  0  0  0  0  0
   26.3372  -18.4684  -17.5170 C   0  0  2  0  0  0  0  0  0  0  0  0
   25.3979  -18.3419  -16.3459 N   0  0  0  0  0  0  0  0  0  0  0  0
   25.7273  -19.4894  -15.4694 C   0  0  0  0  0  0  0  0  0  0  0  0
   23.9963  -18.4291  -16.7843 O   0  0  0  0  0  0  0  0  0  0  0  0
   23.4603  -19.5572  -16.8663 N   0  0  0  0  0  0  0  0  0  0  0  0
   18.8534  -14.7248  -14.6373 C   0  0  0  0  0  0  0  0  0  0  0  0
   19.8501  -14.7787  -15.6263 O   0  0  0  0  0  0  0  0  0  0  0  0
   19.9790  -13.7584  -16.3785 C   0  0  0  0  0  0  0  0  0  0  0  0
   20.7361  -15.9524  -15.8214 C   0  0  0  0  0  0  0  0  0  0  0  0
   21.0336  -16.1847  -17.2907 C   0  0  2  0  0  0  0  0  0  0  0  0
   21.8348  -17.4651  -17.4778 N   0  0  0  0  0  0  0  0  0  0  0  0
   23.2070  -17.2974  -17.1230 C   0  0  0  0  0  0  0  0  0  0  0  0
   21.6676  -17.9878  -18.8673 O   0  0  0  0  0  0  0  0  0  0  0  0
   22.4566  -17.7217  -19.8049 O   0  0  0  0  0  0  0  0  0  0  0  0
  2  1  1  0
  3  2  2  0
  4  2  1  0
  5  6  1  0
  5  4  1  0
  7  6  1  0
  8  7  1  0
  8  9  1  6
 10 11  2  0
 10  8  1  0
 13 12  1  0
 13 15  1  0
 14 13  2  0
 16 15  1  0
 17 16  1  1
 17 18  1  0
 18 10  1  0
 19 17  1  0
 19 27  1  0
 20 19  2  0
 22 21  1  0
 22 23  2  0
 24 22  1  0
 25 24  1  0
 26 27  1  0
 26 25  1  1
 28 26  1  0
 29 28  2  0
 30 28  1  0
M  END
$$$$
