RQQ.pdb
     RDKit          3D

 30 29  0  0  1  0  0  0  0  0999 V2000
   31.0243  -23.2496  -18.4747 N   0  0  0  0  0  0  0  0  0  0  0  0
   29.7571  -23.8280  -18.6305 C   0  0  0  0  0  0  0  0  0  0  0  0
   29.6015  -25.0962  -18.6382 N   0  0  0  0  0  0  0  0  0  0  0  0
   28.6100  -23.0014  -18.7829 N   0  0  0  0  0  0  0  0  0  0  0  0
   28.6987  -21.5740  -18.7154 C   0  0  0  0  0  0  0  0  0  0  0  0
   28.8002  -21.1340  -17.2819 C   0  0  0  0  0  0  0  0  0  0  0  0
   27.5489  -21.5042  -16.5516 C   0  0  0  0  0  0  0  0  0  0  0  0
   27.5233  -20.9355  -15.1401 C   0  0  2  0  0  0  0  0  0  0  0  0
   28.7683  -21.2918  -14.4777 N   0  0  0  0  0  0  0  0  0  0  0  0
   26.3748  -21.4564  -14.3677 C   0  0  0  0  0  0  0  0  0  0  0  0
   26.2145  -22.6990  -14.2934 O   0  0  0  0  0  0  0  0  0  0  0  0
   28.6970  -25.5725  -18.8317 N   0  0  0  0  0  0  0  0  0  0  0  0
   24.5541  -20.1100   -8.8579 C   0  0  0  0  0  0  0  0  0  0  0  0
   25.7594  -20.5829   -9.4247 O   0  0  0  0  0  0  0  0  0  0  0  0
   26.8336  -20.5301   -8.7431 C   0  0  0  0  0  0  0  0  0  0  0  0
   25.7663  -21.1401  -10.8157 C   0  0  0  0  0  0  0  0  0  0  0  0
   24.5146  -20.6833  -11.5097 C   0  0  2  0  0  0  0  0  0  0  0  0
   24.3443  -21.2582  -12.8918 N   0  0  0  0  0  0  0  0  0  0  0  0
   25.4264  -20.6434  -13.6947 C   0  0  0  0  0  0  0  0  0  0  0  0
   23.0333  -20.8974  -13.4535 O   0  0  0  0  0  0  0  0  0  0  0  0
   22.7374  -19.6860  -13.5612 N   0  0  0  0  0  0  0  0  0  0  0  0
   18.0217  -24.8013  -12.8277 C   0  0  0  0  0  0  0  0  0  0  0  0
   17.5049  -23.5329  -13.1418 O   0  0  0  0  0  0  0  0  0  0  0  0
   16.2432  -23.3800  -13.0506 C   0  0  0  0  0  0  0  0  0  0  0  0
   18.3548  -22.3932  -13.5652 C   0  0  0  0  0  0  0  0  0  0  0  0
   19.8293  -22.7401  -13.4826 C   0  0  2  0  0  0  0  0  0  0  0  0
   20.6832  -21.5339  -13.8460 N   0  0  0  0  0  0  0  0  0  0  0  0
   22.0739  -21.8520  -13.8857 C   0  0  0  0  0  0  0  0  0  0  0  0
   20.3885  -20.3902  -12.9311 O   0  0  0  0  0  0  0  0  0  0  0  0
   19.8216  -19.3357  -13.3041 O   0  0  0  0  0  0  0  0  0  0  0  0
  2  1  1  0
  3  2  2  0
  4  2  1  0
  5  6  1  0
  5  4  1  0
  7  6  1  0
  8  7  1  0
  8  9  1  1
 10 11  2  0
 10  8  1  0
 13 12  1  0
 13 15  1  0
 14 13  2  0
 16 15  1  0
 17 16  1  1
 17 18  1  0
 18 10  1  0
 19 17  1  0
 19 27  1  0
 20 19  2  0
 22 21  1  0
 22 23  2  0
 24 22  1  0
 25 24  1  0
 26 27  1  0
 26 25  1  6
 28 26  1  0
 29 28  2  0
 30 28  1  0
M  END
$$$$
