RQQ.pdb
     RDKit          3D

 30 29  0  0  1  0  0  0  0  0999 V2000
   20.7389  -25.5029  -14.0884 N   0  0  0  0  0  0  0  0  0  0  0  0
   20.3439  -24.3773  -13.3523 C   0  0  0  0  0  0  0  0  0  0  0  0
   19.1179  -24.1737  -13.0556 N   0  0  0  0  0  0  0  0  0  0  0  0
   21.3144  -23.4331  -12.9178 N   0  0  0  0  0  0  0  0  0  0  0  0
   22.6922  -23.5469  -13.2902 C   0  0  0  0  0  0  0  0  0  0  0  0
   23.4842  -22.4291  -12.6719 C   0  0  0  0  0  0  0  0  0  0  0  0
   24.8672  -22.4173  -13.2405 C   0  0  0  0  0  0  0  0  0  0  0  0
   25.7253  -21.3190  -12.6291 C   0  0  2  0  0  0  0  0  0  0  0  0
   25.5952  -21.3851  -11.1819 N   0  0  0  0  0  0  0  0  0  0  0  0
   25.3169  -19.9819  -13.1110 C   0  0  0  0  0  0  0  0  0  0  0  0
   24.3799  -19.3908  -12.5210 O   0  0  0  0  0  0  0  0  0  0  0  0
   18.7812  -23.3749  -12.4801 N   0  0  0  0  0  0  0  0  0  0  0  0
   28.6912  -16.1410  -16.4735 C   0  0  0  0  0  0  0  0  0  0  0  0
   28.1999  -17.2896  -17.1346 O   0  0  0  0  0  0  0  0  0  0  0  0
   28.7773  -17.6960  -18.1942 C   0  0  0  0  0  0  0  0  0  0  0  0
   27.0098  -18.0181  -16.5882 C   0  0  0  0  0  0  0  0  0  0  0  0
   26.5774  -17.3286  -15.3254 C   0  0  1  0  0  0  0  0  0  0  0  0
   25.4054  -17.9880  -14.6462 N   0  0  0  0  0  0  0  0  0  0  0  0
   25.9143  -19.3078  -14.2073 C   0  0  0  0  0  0  0  0  0  0  0  0
   24.2863  -18.1665  -15.5844 O   0  0  0  0  0  0  0  0  0  0  0  0
   24.2308  -19.2172  -16.2623 N   0  0  0  0  0  0  0  0  0  0  0  0
   18.7280  -14.8686  -16.3254 C   0  0  0  0  0  0  0  0  0  0  0  0
   18.6402  -16.0665  -17.0549 O   0  0  0  0  0  0  0  0  0  0  0  0
   17.5446  -16.2985  -17.6625 C   0  0  0  0  0  0  0  0  0  0  0  0
   19.7504  -17.0466  -17.1409 C   0  0  0  0  0  0  0  0  0  0  0  0
   20.9771  -16.5623  -16.3913 C   0  0  2  0  0  0  0  0  0  0  0  0
   22.1517  -17.5015  -16.6252 N   0  0  0  0  0  0  0  0  0  0  0  0
   23.2542  -17.2076  -15.7679 C   0  0  0  0  0  0  0  0  0  0  0  0
   22.5395  -17.5039  -18.0680 O   0  0  0  0  0  0  0  0  0  0  0  0
   23.3653  -16.7001  -18.5625 O   0  0  0  0  0  0  0  0  0  0  0  0
  2  1  1  0
  3  2  2  0
  4  2  1  0
  5  6  1  0
  5  4  1  0
  7  6  1  0
  8  7  1  0
  8  9  1  1
 10 11  2  0
 10  8  1  0
 13 12  1  0
 13 15  1  0
 14 13  2  0
 16 15  1  0
 17 16  1  1
 17 18  1  0
 18 10  1  0
 19 17  1  0
 19 27  1  0
 20 19  2  0
 22 21  1  0
 22 23  2  0
 24 22  1  0
 25 24  1  0
 26 27  1  0
 26 25  1  1
 28 26  1  0
 29 28  2  0
 30 28  1  0
M  END
$$$$
