RQQ.pdb
     RDKit          3D

 30 29  0  0  1  0  0  0  0  0999 V2000
   30.2309  -22.4644   -9.1376 N   0  0  0  0  0  0  0  0  0  0  0  0
   31.1062  -22.3723  -10.2285 C   0  0  0  0  0  0  0  0  0  0  0  0
   32.1740  -23.0718  -10.2850 N   0  0  0  0  0  0  0  0  0  0  0  0
   30.8149  -21.4884  -11.3037 N   0  0  0  0  0  0  0  0  0  0  0  0
   29.5027  -20.9497  -11.4985 C   0  0  0  0  0  0  0  0  0  0  0  0
   28.9585  -21.3939  -12.8272 C   0  0  0  0  0  0  0  0  0  0  0  0
   28.5107  -20.2023  -13.6119 C   0  0  0  0  0  0  0  0  0  0  0  0
   27.2390  -19.5900  -13.0424 C   0  0  2  0  0  0  0  0  0  0  0  0
   27.2380  -19.7882  -11.6014 N   0  0  0  0  0  0  0  0  0  0  0  0
   26.0309  -20.2025  -13.6360 C   0  0  0  0  0  0  0  0  0  0  0  0
   25.8509  -20.0989  -14.8738 O   0  0  0  0  0  0  0  0  0  0  0  0
   32.9109  -22.9552  -11.0102 N   0  0  0  0  0  0  0  0  0  0  0  0
   23.9617  -25.4049  -13.0638 C   0  0  0  0  0  0  0  0  0  0  0  0
   22.6869  -24.9295  -13.4466 O   0  0  0  0  0  0  0  0  0  0  0  0
   21.8396  -25.7411  -13.9410 C   0  0  0  0  0  0  0  0  0  0  0  0
   22.3418  -23.4821  -13.2693 C   0  0  0  0  0  0  0  0  0  0  0  0
   23.5732  -22.7608  -12.7998 C   0  0  1  0  0  0  0  0  0  0  0  0
   23.8820  -21.5141  -13.5871 N   0  0  0  0  0  0  0  0  0  0  0  0
   25.0455  -20.9090  -12.8990 C   0  0  0  0  0  0  0  0  0  0  0  0
   22.7435  -20.5826  -13.5648 O   0  0  0  0  0  0  0  0  0  0  0  0
   22.6037  -19.8263  -12.5774 N   0  0  0  0  0  0  0  0  0  0  0  0
   21.2309  -17.2002  -18.1145 C   0  0  0  0  0  0  0  0  0  0  0  0
   20.1502  -18.0903  -17.9938 O   0  0  0  0  0  0  0  0  0  0  0  0
   19.4456  -18.2944  -19.0356 C   0  0  0  0  0  0  0  0  0  0  0  0
   19.8087  -18.7839  -16.7278 C   0  0  0  0  0  0  0  0  0  0  0  0
   20.8256  -18.4884  -15.6416 C   0  0  1  0  0  0  0  0  0  0  0  0
   20.7360  -19.5238  -14.5297 N   0  0  0  0  0  0  0  0  0  0  0  0
   21.7839  -20.4894  -14.6085 C   0  0  0  0  0  0  0  0  0  0  0  0
   19.3822  -20.1554  -14.5117 O   0  0  0  0  0  0  0  0  0  0  0  0
   18.9396  -20.8666  -15.4449 O   0  0  0  0  0  0  0  0  0  0  0  0
  2  1  1  0
  3  2  2  0
  4  2  1  0
  5  6  1  0
  5  4  1  0
  7  6  1  0
  8  7  1  0
  8  9  1  1
 10 11  2  0
 10  8  1  0
 13 12  1  0
 13 15  1  0
 14 13  2  0
 16 15  1  0
 17 16  1  6
 17 18  1  0
 18 10  1  0
 19 17  1  0
 19 27  1  0
 20 19  2  0
 22 21  1  0
 22 23  2  0
 24 22  1  0
 25 24  1  0
 26 27  1  0
 26 25  1  1
 28 26  1  0
 29 28  2  0
 30 28  1  0
M  END
$$$$
