RQQ.pdb
     RDKit          3D

 30 29  0  0  1  0  0  0  0  0999 V2000
   20.1211  -25.5399  -13.8248 N   0  0  0  0  0  0  0  0  0  0  0  0
   19.8384  -24.6468  -12.7822 C   0  0  0  0  0  0  0  0  0  0  0  0
   20.0595  -23.3940  -12.9016 N   0  0  0  0  0  0  0  0  0  0  0  0
   19.2927  -25.1273  -11.5601 N   0  0  0  0  0  0  0  0  0  0  0  0
   19.7408  -26.3513  -10.9675 C   0  0  0  0  0  0  0  0  0  0  0  0
   18.8064  -27.4700  -11.3338 C   0  0  0  0  0  0  0  0  0  0  0  0
   19.2664  -28.7406  -10.6932 C   0  0  0  0  0  0  0  0  0  0  0  0
   20.3179  -29.4533  -11.5316 C   0  0  2  0  0  0  0  0  0  0  0  0
   19.7210  -29.8160  -12.8075 N   0  0  0  0  0  0  0  0  0  0  0  0
   20.8239  -30.6640  -10.8498 C   0  0  0  0  0  0  0  0  0  0  0  0
   20.0197  -31.5958  -10.6041 O   0  0  0  0  0  0  0  0  0  0  0  0
   19.9450  -22.7046  -12.1308 N   0  0  0  0  0  0  0  0  0  0  0  0
   26.7398  -32.2047  -10.2277 C   0  0  0  0  0  0  0  0  0  0  0  0
   26.1896  -33.2756   -9.4874 O   0  0  0  0  0  0  0  0  0  0  0  0
   26.9591  -34.1844   -9.0366 C   0  0  0  0  0  0  0  0  0  0  0  0
   24.7131  -33.3350   -9.2386 C   0  0  0  0  0  0  0  0  0  0  0  0
   24.0826  -32.1259   -9.8692 C   0  0  2  0  0  0  0  0  0  0  0  0
   22.5808  -32.0958   -9.7526 N   0  0  0  0  0  0  0  0  0  0  0  0
   22.1711  -30.8532  -10.4465 C   0  0  0  0  0  0  0  0  0  0  0  0
   22.1637  -32.0463   -8.3427 O   0  0  0  0  0  0  0  0  0  0  0  0
   22.2726  -30.9658   -7.7204 N   0  0  0  0  0  0  0  0  0  0  0  0
   17.0194  -32.1194   -5.7032 C   0  0  0  0  0  0  0  0  0  0  0  0
   17.8912  -32.1822   -4.6029 O   0  0  0  0  0  0  0  0  0  0  0  0
   17.4033  -31.9096   -3.4578 C   0  0  0  0  0  0  0  0  0  0  0  0
   19.3243  -32.5457   -4.7237 C   0  0  0  0  0  0  0  0  0  0  0  0
   19.7216  -32.7617   -6.1718 C   0  0  2  0  0  0  0  0  0  0  0  0
   21.2177  -33.0181   -6.2829 N   0  0  0  0  0  0  0  0  0  0  0  0
   21.6390  -33.1632   -7.6388 C   0  0  0  0  0  0  0  0  0  0  0  0
   21.6120  -34.1853   -5.4379 O   0  0  0  0  0  0  0  0  0  0  0  0
   21.8732  -35.3193   -5.9052 O   0  0  0  0  0  0  0  0  0  0  0  0
  2  1  1  0
  3  2  2  0
  4  2  1  0
  5  6  1  0
  5  4  1  0
  7  6  1  0
  8  7  1  0
  8  9  1  6
 10 11  2  0
 10  8  1  0
 13 12  1  0
 13 15  1  0
 14 13  2  0
 16 15  1  0
 17 16  1  6
 17 18  1  0
 18 10  1  0
 19 17  1  0
 19 27  1  0
 20 19  2  0
 22 21  1  0
 22 23  2  0
 24 22  1  0
 25 24  1  0
 26 27  1  0
 26 25  1  6
 28 26  1  0
 29 28  2  0
 30 28  1  0
M  END
$$$$
