RQQ.pdb
     RDKit          3D

 30 29  0  0  1  0  0  0  0  0999 V2000
   27.7794  -24.7011  -16.1378 N   0  0  0  0  0  0  0  0  0  0  0  0
   28.9884  -24.6823  -16.8468 C   0  0  0  0  0  0  0  0  0  0  0  0
   29.7753  -25.6890  -16.8460 N   0  0  0  0  0  0  0  0  0  0  0  0
   29.3620  -23.5280  -17.5885 N   0  0  0  0  0  0  0  0  0  0  0  0
   28.6276  -22.3027  -17.4913 C   0  0  0  0  0  0  0  0  0  0  0  0
   27.9641  -22.2084  -16.1460 C   0  0  0  0  0  0  0  0  0  0  0  0
   27.2641  -20.8929  -16.0208 C   0  0  0  0  0  0  0  0  0  0  0  0
   25.7611  -21.0259  -16.2205 C   0  0  2  0  0  0  0  0  0  0  0  0
   25.5223  -21.6707  -17.5022 N   0  0  0  0  0  0  0  0  0  0  0  0
   25.0923  -19.7074  -16.1875 C   0  0  0  0  0  0  0  0  0  0  0  0
   25.1846  -19.0125  -15.1463 O   0  0  0  0  0  0  0  0  0  0  0  0
   30.6769  -25.7259  -17.3639 N   0  0  0  0  0  0  0  0  0  0  0  0
   26.0517  -16.6621  -20.2775 C   0  0  0  0  0  0  0  0  0  0  0  0
   25.9518  -15.6871  -19.2591 O   0  0  0  0  0  0  0  0  0  0  0  0
   26.7518  -14.6966  -19.2613 C   0  0  0  0  0  0  0  0  0  0  0  0
   24.9115  -15.8238  -18.1893 C   0  0  0  0  0  0  0  0  0  0  0  0
   24.1643  -17.1059  -18.4232 C   0  0  2  0  0  0  0  0  0  0  0  0
   23.7529  -17.8072  -17.1549 N   0  0  0  0  0  0  0  0  0  0  0  0
   24.3426  -19.1616  -17.2615 C   0  0  0  0  0  0  0  0  0  0  0  0
   22.2880  -17.9021  -17.0579 O   0  0  0  0  0  0  0  0  0  0  0  0
   21.6366  -18.2205  -18.0781 N   0  0  0  0  0  0  0  0  0  0  0  0
   17.1450  -16.4979  -15.8156 C   0  0  0  0  0  0  0  0  0  0  0  0
   17.0558  -17.5417  -16.7522 O   0  0  0  0  0  0  0  0  0  0  0  0
   15.8921  -17.9888  -17.0158 C   0  0  0  0  0  0  0  0  0  0  0  0
   18.2390  -18.1274  -17.4285 C   0  0  0  0  0  0  0  0  0  0  0  0
   19.4962  -17.3306  -17.1357 C   0  0  1  0  0  0  0  0  0  0  0  0
   20.1433  -17.8089  -15.8439 N   0  0  0  0  0  0  0  0  0  0  0  0
   21.5617  -17.6517  -15.8628 C   0  0  0  0  0  0  0  0  0  0  0  0
   19.7318  -19.2130  -15.5421 O   0  0  0  0  0  0  0  0  0  0  0  0
   18.9201  -19.5150  -14.6352 O   0  0  0  0  0  0  0  0  0  0  0  0
  2  1  1  0
  3  2  2  0
  4  2  1  0
  5  6  1  0
  5  4  1  0
  7  6  1  0
  8  7  1  0
  8  9  1  6
 10 11  2  0
 10  8  1  0
 13 12  1  0
 13 15  1  0
 14 13  2  0
 16 15  1  0
 17 16  1  1
 17 18  1  0
 18 10  1  0
 19 17  1  0
 19 27  1  0
 20 19  2  0
 22 21  1  0
 22 23  2  0
 24 22  1  0
 25 24  1  0
 26 27  1  0
 26 25  1  1
 28 26  1  0
 29 28  2  0
 30 28  1  0
M  END
$$$$
