LLK.pdb
     RDKit          3D

 26 25  0  0  1  0  0  0  0  0999 V2000
   10.8936  -18.6142   16.0172 C   0  0  0  0  0  0  0  0  0  0  0  0
   10.4921  -18.8501   17.4425 C   0  0  1  0  0  0  0  0  0  0  0  0
   11.2570  -20.0112   18.0654 C   0  0  0  0  0  0  0  0  0  0  0  0
   10.6168  -17.6151   18.3013 C   0  0  0  0  0  0  0  0  0  0  0  0
   10.1797  -17.9214   19.7049 C   0  0  2  0  0  0  0  0  0  0  0  0
    8.8747  -18.5297   19.7433 N   0  0  0  0  0  0  0  0  0  0  0  0
   10.1514  -16.6805   20.5185 C   0  0  0  0  0  0  0  0  0  0  0  0
   11.2427  -16.1935   20.8994 O   0  0  0  0  0  0  0  0  0  0  0  0
    8.7419  -12.6850   19.5575 C   0  0  0  0  0  0  0  0  0  0  0  0
    7.6309  -13.7199   19.8577 C   0  0  2  0  0  0  0  0  0  0  0  0
    6.3149  -13.0503   19.5110 C   0  0  0  0  0  0  0  0  0  0  0  0
    7.7189  -14.0838   21.2911 C   0  0  0  0  0  0  0  0  0  0  0  0
    8.8900  -14.8790   21.7372 C   0  0  2  0  0  0  0  0  0  0  0  0
    8.9046  -16.0661   20.8551 N   0  0  0  0  0  0  0  0  0  0  0  0
    8.8713  -15.3148   23.1485 C   0  0  0  0  0  0  0  0  0  0  0  0
    8.9067  -14.4417   24.0505 O   0  0  0  0  0  0  0  0  0  0  0  0
    8.8118  -16.6739   23.5290 N   0  0  0  0  0  0  0  0  0  0  0  0
    8.8351  -16.9762   24.9728 C   0  0  1  0  0  0  0  0  0  0  0  0
    8.0478  -18.2616   25.1237 C   0  0  0  0  0  0  0  0  0  0  0  0
    7.9709  -18.7638   26.5275 C   0  0  0  0  0  0  0  0  0  0  0  0
    7.2095  -20.0910   26.4683 C   0  0  0  0  0  0  0  0  0  0  0  0
    6.9283  -20.6125   27.8681 C   0  0  0  0  0  0  0  0  0  0  0  0
    6.1425  -21.8390   27.7161 N   0  0  0  0  0  0  0  0  0  0  0  0
   10.2363  -17.0943   25.4265 C   0  0  0  0  0  0  0  0  0  0  0  0
   11.2487  -17.2746   24.5050 O   0  0  0  0  0  0  0  0  0  0  0  0
   10.5395  -17.0361   26.6338 O   0  0  0  0  0  0  0  0  0  0  0  0
  2  1  1  6
  2  4  1  0
  3  2  1  0
  5  6  1  6
  5  4  1  0
  7  5  1  0
  8  7  2  0
 10  9  1  1
 10 12  1  0
 11 10  1  0
 13 12  1  6
 13 14  1  0
 14  7  1  0
 15 13  1  0
 15 17  1  0
 16 15  2  0
 18 19  1  6
 18 17  1  0
 18 24  1  0
 20 21  1  0
 20 19  1  0
 21 22  1  0
 22 23  1  0
 24 25  1  0
 26 24  2  0
M  END
$$$$
