LLK.pdb
     RDKit          3D

 26 25  0  0  1  0  0  0  0  0999 V2000
    6.6313  -12.9567   20.1326 C   0  0  0  0  0  0  0  0  0  0  0  0
    7.8515  -13.6113   19.5574 C   0  0  1  0  0  0  0  0  0  0  0  0
    8.3627  -12.8793   18.3228 C   0  0  0  0  0  0  0  0  0  0  0  0
    8.9605  -13.7802   20.5673 C   0  0  0  0  0  0  0  0  0  0  0  0
    8.7277  -15.0209   21.3805 C   0  0  2  0  0  0  0  0  0  0  0  0
    7.3723  -15.4948   21.2664 N   0  0  0  0  0  0  0  0  0  0  0  0
    9.0234  -14.7624   22.8117 C   0  0  0  0  0  0  0  0  0  0  0  0
   10.1995  -14.4678   23.1328 O   0  0  0  0  0  0  0  0  0  0  0  0
    5.7543  -12.3470   27.0351 C   0  0  0  0  0  0  0  0  0  0  0  0
    7.1662  -12.7281   26.5287 C   0  0  2  0  0  0  0  0  0  0  0  0
    7.6357  -11.5778   25.6587 C   0  0  0  0  0  0  0  0  0  0  0  0
    7.0549  -13.9980   25.7738 C   0  0  0  0  0  0  0  0  0  0  0  0
    8.2967  -14.5856   25.2123 C   0  0  2  0  0  0  0  0  0  0  0  0
    7.9851  -14.8521   23.7911 N   0  0  0  0  0  0  0  0  0  0  0  0
    8.7667  -15.8300   25.8547 C   0  0  0  0  0  0  0  0  0  0  0  0
    8.6232  -15.9603   27.0955 O   0  0  0  0  0  0  0  0  0  0  0  0
    9.3692  -16.8839   25.1322 N   0  0  0  0  0  0  0  0  0  0  0  0
    9.7549  -18.0910   25.8876 C   0  0  1  0  0  0  0  0  0  0  0  0
    9.6637  -19.2298   24.8928 C   0  0  0  0  0  0  0  0  0  0  0  0
   10.1155  -20.5454   25.4348 C   0  0  0  0  0  0  0  0  0  0  0  0
   10.0437  -21.5376   24.2707 C   0  0  0  0  0  0  0  0  0  0  0  0
   10.5040  -22.9176   24.7112 C   0  0  0  0  0  0  0  0  0  0  0  0
   10.3228  -23.8129   23.5664 N   0  0  0  0  0  0  0  0  0  0  0  0
   11.1121  -17.9092   26.4427 C   0  0  0  0  0  0  0  0  0  0  0  0
   11.9807  -17.0055   25.8636 O   0  0  0  0  0  0  0  0  0  0  0  0
   11.5053  -18.5560   27.4326 O   0  0  0  0  0  0  0  0  0  0  0  0
  2  1  1  1
  2  4  1  0
  3  2  1  0
  5  6  1  1
  5  4  1  0
  7  5  1  0
  8  7  2  0
 10  9  1  6
 10 12  1  0
 11 10  1  0
 13 12  1  1
 13 14  1  0
 14  7  1  0
 15 13  1  0
 15 17  1  0
 16 15  2  0
 18 19  1  6
 18 17  1  0
 18 24  1  0
 20 21  1  0
 20 19  1  0
 21 22  1  0
 22 23  1  0
 24 25  1  0
 26 24  2  0
M  END
$$$$
