LLK.pdb
     RDKit          3D

 26 25  0  0  1  0  0  0  0  0999 V2000
    7.2797  -18.9052   20.1388 C   0  0  0  0  0  0  0  0  0  0  0  0
    7.4793  -17.4207   20.2070 C   0  0  1  0  0  0  0  0  0  0  0  0
    6.1946  -16.6585   19.9074 C   0  0  0  0  0  0  0  0  0  0  0  0
    8.0686  -16.9656   21.5200 C   0  0  0  0  0  0  0  0  0  0  0  0
    8.1459  -15.4664   21.5541 C   0  0  2  0  0  0  0  0  0  0  0  0
    8.9821  -14.9449   20.5037 N   0  0  0  0  0  0  0  0  0  0  0  0
    8.6795  -15.0072   22.8606 C   0  0  0  0  0  0  0  0  0  0  0  0
    9.9148  -14.8173   22.9655 O   0  0  0  0  0  0  0  0  0  0  0  0
    7.5578  -11.4524   25.4152 C   0  0  0  0  0  0  0  0  0  0  0  0
    6.5459  -12.6234   25.4213 C   0  0  2  0  0  0  0  0  0  0  0  0
    5.3562  -12.1589   26.2394 C   0  0  0  0  0  0  0  0  0  0  0  0
    7.2145  -13.8037   26.0171 C   0  0  0  0  0  0  0  0  0  0  0  0
    8.3539  -14.4045   25.2799 C   0  0  2  0  0  0  0  0  0  0  0  0
    7.7973  -14.7923   23.9656 N   0  0  0  0  0  0  0  0  0  0  0  0
    8.9817  -15.5812   25.9149 C   0  0  0  0  0  0  0  0  0  0  0  0
    9.3793  -15.4861   27.1024 O   0  0  0  0  0  0  0  0  0  0  0  0
    9.1519  -16.8129   25.2445 N   0  0  0  0  0  0  0  0  0  0  0  0
    9.9018  -17.8707   25.9481 C   0  0  1  0  0  0  0  0  0  0  0  0
    9.8196  -19.0850   25.0461 C   0  0  0  0  0  0  0  0  0  0  0  0
   10.5748  -20.2688   25.5531 C   0  0  0  0  0  0  0  0  0  0  0  0
   10.3749  -21.3812   24.5200 C   0  0  0  0  0  0  0  0  0  0  0  0
   11.1354  -22.6336   24.9243 C   0  0  0  0  0  0  0  0  0  0  0  0
   10.3414  -23.2988   25.9597 N   0  0  0  0  0  0  0  0  0  0  0  0
   11.2867  -17.4143   26.1863 C   0  0  0  0  0  0  0  0  0  0  0  0
   12.0163  -17.9375   27.2355 O   0  0  0  0  0  0  0  0  0  0  0  0
   11.8268  -16.5579   25.4599 O   0  0  0  0  0  0  0  0  0  0  0  0
  2  1  1  1
  2  4  1  0
  3  2  1  0
  5  6  1  6
  5  4  1  0
  7  5  1  0
  8  7  2  0
 10  9  1  1
 10 12  1  0
 11 10  1  0
 13 12  1  1
 13 14  1  0
 14  7  1  0
 15 13  1  0
 15 17  1  0
 16 15  2  0
 18 19  1  6
 18 17  1  0
 18 24  1  0
 20 21  1  0
 20 19  1  0
 21 22  1  0
 22 23  1  0
 24 25  1  0
 26 24  2  0
M  END
$$$$
