LLK.pdb
     RDKit          3D

 26 25  0  0  1  0  0  0  0  0999 V2000
    8.1841  -12.2588   19.1787 C   0  0  0  0  0  0  0  0  0  0  0  0
    7.8147  -13.5662   19.8131 C   0  0  1  0  0  0  0  0  0  0  0  0
    7.7271  -14.6916   18.7898 C   0  0  0  0  0  0  0  0  0  0  0  0
    8.7359  -13.9527   20.9446 C   0  0  0  0  0  0  0  0  0  0  0  0
    8.1899  -15.1536   21.6617 C   0  0  2  0  0  0  0  0  0  0  0  0
    6.7546  -15.2315   21.5691 N   0  0  0  0  0  0  0  0  0  0  0  0
    8.5739  -15.1171   23.0949 C   0  0  0  0  0  0  0  0  0  0  0  0
    9.7936  -15.1479   23.3853 O   0  0  0  0  0  0  0  0  0  0  0  0
    8.1941  -11.9581   26.1190 C   0  0  0  0  0  0  0  0  0  0  0  0
    6.9033  -12.6938   25.6856 C   0  0  2  0  0  0  0  0  0  0  0  0
    5.7465  -11.9320   26.3036 C   0  0  0  0  0  0  0  0  0  0  0  0
    6.9855  -14.0899   26.1747 C   0  0  0  0  0  0  0  0  0  0  0  0
    7.9701  -14.9959   25.5327 C   0  0  2  0  0  0  0  0  0  0  0  0
    7.5688  -15.0506   24.1101 N   0  0  0  0  0  0  0  0  0  0  0  0
    8.0339  -16.3669   26.0790 C   0  0  0  0  0  0  0  0  0  0  0  0
    6.9656  -17.0131   26.2145 O   0  0  0  0  0  0  0  0  0  0  0  0
    9.2473  -16.9857   26.4536 N   0  0  0  0  0  0  0  0  0  0  0  0
    9.1686  -18.3435   27.0251 C   0  0  1  0  0  0  0  0  0  0  0  0
    9.7137  -19.2608   25.9499 C   0  0  0  0  0  0  0  0  0  0  0  0
    9.8817  -20.6775   26.3900 C   0  0  0  0  0  0  0  0  0  0  0  0
   10.5671  -21.4090   25.2325 C   0  0  0  0  0  0  0  0  0  0  0  0
   10.6537  -22.9000   25.5146 C   0  0  0  0  0  0  0  0  0  0  0  0
   11.2459  -23.5244   24.3296 N   0  0  0  0  0  0  0  0  0  0  0  0
    9.9445  -18.3925   28.2816 C   0  0  0  0  0  0  0  0  0  0  0  0
   10.9476  -17.4716   28.5111 O   0  0  0  0  0  0  0  0  0  0  0  0
    9.7202  -19.2523   29.1553 O   0  0  0  0  0  0  0  0  0  0  0  0
  2  1  1  6
  2  4  1  0
  3  2  1  0
  5  6  1  1
  5  4  1  0
  7  5  1  0
  8  7  2  0
 10  9  1  1
 10 12  1  0
 11 10  1  0
 13 12  1  1
 13 14  1  0
 14  7  1  0
 15 13  1  0
 15 17  1  0
 16 15  2  0
 18 19  1  6
 18 17  1  0
 18 24  1  0
 20 21  1  0
 20 19  1  0
 21 22  1  0
 22 23  1  0
 24 25  1  0
 26 24  2  0
M  END
$$$$
