LLK.pdb
     RDKit          3D

 26 25  0  0  1  0  0  0  0  0999 V2000
    9.0087  -19.6410   20.5532 C   0  0  0  0  0  0  0  0  0  0  0  0
    8.1273  -18.4574   20.8190 C   0  0  1  0  0  0  0  0  0  0  0  0
    6.7957  -18.8657   21.4367 C   0  0  0  0  0  0  0  0  0  0  0  0
    8.7985  -17.4013   21.6630 C   0  0  0  0  0  0  0  0  0  0  0  0
    7.8258  -16.3005   21.9745 C   0  0  2  0  0  0  0  0  0  0  0  0
    7.4025  -15.6023   20.7879 N   0  0  0  0  0  0  0  0  0  0  0  0
    8.4353  -15.3234   22.9107 C   0  0  0  0  0  0  0  0  0  0  0  0
    9.4855  -14.7357   22.5572 O   0  0  0  0  0  0  0  0  0  0  0  0
    7.3977  -11.3783   25.1985 C   0  0  0  0  0  0  0  0  0  0  0  0
    6.5484  -12.6373   25.4967 C   0  0  2  0  0  0  0  0  0  0  0  0
    5.4875  -12.2135   26.4943 C   0  0  0  0  0  0  0  0  0  0  0  0
    7.4500  -13.6800   26.0399 C   0  0  0  0  0  0  0  0  0  0  0  0
    8.5247  -14.1997   25.1582 C   0  0  2  0  0  0  0  0  0  0  0  0
    7.8320  -15.0686   24.1821 N   0  0  0  0  0  0  0  0  0  0  0  0
    9.5923  -14.9682   25.8302 C   0  0  0  0  0  0  0  0  0  0  0  0
   10.2648  -14.4072   26.7304 O   0  0  0  0  0  0  0  0  0  0  0  0
    9.8886  -16.3109   25.5063 N   0  0  0  0  0  0  0  0  0  0  0  0
   10.9806  -16.9642   26.2528 C   0  0  1  0  0  0  0  0  0  0  0  0
   10.3065  -18.0253   27.0980 C   0  0  0  0  0  0  0  0  0  0  0  0
   11.2584  -18.9030   27.8412 C   0  0  0  0  0  0  0  0  0  0  0  0
   10.4015  -19.8309   28.7069 C   0  0  0  0  0  0  0  0  0  0  0  0
   11.2787  -20.7379   29.5542 C   0  0  0  0  0  0  0  0  0  0  0  0
   10.3822  -21.5292   30.3998 N   0  0  0  0  0  0  0  0  0  0  0  0
   11.9645  -17.5168   25.2990 C   0  0  0  0  0  0  0  0  0  0  0  0
   11.7471  -17.4067   23.9398 O   0  0  0  0  0  0  0  0  0  0  0  0
   13.0010  -18.0891   25.6874 O   0  0  0  0  0  0  0  0  0  0  0  0
  2  1  1  1
  2  4  1  0
  3  2  1  0
  5  6  1  6
  5  4  1  0
  7  5  1  0
  8  7  2  0
 10  9  1  1
 10 12  1  0
 11 10  1  0
 13 12  1  1
 13 14  1  0
 14  7  1  0
 15 13  1  0
 15 17  1  0
 16 15  2  0
 18 19  1  6
 18 17  1  0
 18 24  1  0
 20 21  1  0
 20 19  1  0
 21 22  1  0
 22 23  1  0
 24 25  1  0
 26 24  2  0
M  END
$$$$
