LLK.pdb
     RDKit          3D

 26 25  0  0  1  0  0  0  0  0999 V2000
    8.6205  -13.9955   18.9848 C   0  0  0  0  0  0  0  0  0  0  0  0
    8.2618  -13.4429   20.3318 C   0  0  1  0  0  0  0  0  0  0  0  0
    7.8947  -11.9659   20.2626 C   0  0  0  0  0  0  0  0  0  0  0  0
    7.1690  -14.2264   21.0176 C   0  0  0  0  0  0  0  0  0  0  0  0
    7.7608  -15.3945   21.7527 C   0  0  2  0  0  0  0  0  0  0  0  0
    6.7850  -16.4230   22.0068 N   0  0  0  0  0  0  0  0  0  0  0  0
    8.3349  -14.9515   23.0476 C   0  0  0  0  0  0  0  0  0  0  0  0
    9.5742  -14.7723   23.1190 O   0  0  0  0  0  0  0  0  0  0  0  0
    7.8908  -11.4686   25.8995 C   0  0  0  0  0  0  0  0  0  0  0  0
    6.6898  -12.4309   25.7355 C   0  0  2  0  0  0  0  0  0  0  0  0
    5.5371  -11.8143   26.5047 C   0  0  0  0  0  0  0  0  0  0  0  0
    7.0852  -13.7530   26.2745 C   0  0  0  0  0  0  0  0  0  0  0  0
    8.0869  -14.5430   25.5161 C   0  0  2  0  0  0  0  0  0  0  0  0
    7.4861  -14.7398   24.1789 N   0  0  0  0  0  0  0  0  0  0  0  0
    8.4420  -15.8553   26.0939 C   0  0  0  0  0  0  0  0  0  0  0  0
    8.8156  -15.9063   27.2919 O   0  0  0  0  0  0  0  0  0  0  0  0
    8.3765  -17.0589   25.3572 N   0  0  0  0  0  0  0  0  0  0  0  0
    8.7529  -18.3031   26.0549 C   0  0  1  0  0  0  0  0  0  0  0  0
    7.7602  -19.3433   25.5782 C   0  0  0  0  0  0  0  0  0  0  0  0
    8.0746  -20.7318   26.0279 C   0  0  0  0  0  0  0  0  0  0  0  0
    7.0325  -21.6424   25.3726 C   0  0  0  0  0  0  0  0  0  0  0  0
    7.2320  -23.0860   25.8047 C   0  0  0  0  0  0  0  0  0  0  0  0
    6.1030  -23.8507   25.2706 N   0  0  0  0  0  0  0  0  0  0  0  0
   10.1539  -18.6425   25.7306 C   0  0  0  0  0  0  0  0  0  0  0  0
   10.8733  -19.4776   26.5623 O   0  0  0  0  0  0  0  0  0  0  0  0
   10.7172  -18.1918   24.7145 O   0  0  0  0  0  0  0  0  0  0  0  0
  2  1  1  6
  2  4  1  0
  3  2  1  0
  5  6  1  1
  5  4  1  0
  7  5  1  0
  8  7  2  0
 10  9  1  1
 10 12  1  0
 11 10  1  0
 13 12  1  1
 13 14  1  0
 14  7  1  0
 15 13  1  0
 15 17  1  0
 16 15  2  0
 18 19  1  6
 18 17  1  0
 18 24  1  0
 20 21  1  0
 20 19  1  0
 21 22  1  0
 22 23  1  0
 24 25  1  0
 26 24  2  0
M  END
$$$$
