LLK.pdb
     RDKit          3D

 26 25  0  0  1  0  0  0  0  0999 V2000
    7.2586  -19.8779   19.8843 C   0  0  0  0  0  0  0  0  0  0  0  0
    7.2969  -18.3813   19.8001 C   0  0  1  0  0  0  0  0  0  0  0  0
    5.9840  -17.8056   19.2843 C   0  0  0  0  0  0  0  0  0  0  0  0
    7.6829  -17.7279   21.1049 C   0  0  0  0  0  0  0  0  0  0  0  0
    7.7794  -16.2405   20.9236 C   0  0  2  0  0  0  0  0  0  0  0  0
    8.6056  -15.8861   19.7982 N   0  0  0  0  0  0  0  0  0  0  0  0
    8.3390  -15.6075   22.1438 C   0  0  0  0  0  0  0  0  0  0  0  0
    9.5801  -15.6484   22.3198 O   0  0  0  0  0  0  0  0  0  0  0  0
    5.8838  -12.2730   26.6832 C   0  0  0  0  0  0  0  0  0  0  0  0
    7.1976  -12.9600   26.2390 C   0  0  2  0  0  0  0  0  0  0  0  0
    8.2552  -11.8740   26.1903 C   0  0  0  0  0  0  0  0  0  0  0  0
    6.9646  -13.5811   24.9142 C   0  0  0  0  0  0  0  0  0  0  0  0
    8.0349  -14.4408   24.3502 C   0  0  2  0  0  0  0  0  0  0  0  0
    7.4740  -14.9719   23.0889 N   0  0  0  0  0  0  0  0  0  0  0  0
    8.4749  -15.5630   25.2041 C   0  0  0  0  0  0  0  0  0  0  0  0
    7.6899  -16.5260   25.3874 O   0  0  0  0  0  0  0  0  0  0  0  0
    9.7445  -15.6022   25.8223 N   0  0  0  0  0  0  0  0  0  0  0  0
   10.1272  -16.8510   26.5083 C   0  0  1  0  0  0  0  0  0  0  0  0
   11.2592  -17.4281   25.6835 C   0  0  0  0  0  0  0  0  0  0  0  0
   11.9228  -18.6103   26.3087 C   0  0  0  0  0  0  0  0  0  0  0  0
   12.9951  -19.0747   25.3191 C   0  0  0  0  0  0  0  0  0  0  0  0
   13.7678  -20.2576   25.8794 C   0  0  0  0  0  0  0  0  0  0  0  0
   14.7693  -20.6263   24.8764 N   0  0  0  0  0  0  0  0  0  0  0  0
   10.5168  -16.5462   27.9005 C   0  0  0  0  0  0  0  0  0  0  0  0
   10.5395  -17.5505   28.8478 O   0  0  0  0  0  0  0  0  0  0  0  0
   10.8302  -15.3930   28.2540 O   0  0  0  0  0  0  0  0  0  0  0  0
  2  1  1  1
  2  4  1  0
  3  2  1  0
  5  6  1  6
  5  4  1  0
  7  5  1  0
  8  7  2  0
 10  9  1  6
 10 12  1  0
 11 10  1  0
 13 12  1  1
 13 14  1  0
 14  7  1  0
 15 13  1  0
 15 17  1  0
 16 15  2  0
 18 19  1  6
 18 17  1  0
 18 24  1  0
 20 21  1  0
 20 19  1  0
 21 22  1  0
 22 23  1  0
 24 25  1  0
 26 24  2  0
M  END
$$$$
