LLK.pdb
     RDKit          3D

 26 25  0  0  1  0  0  0  0  0999 V2000
    7.6272  -12.3664   18.7840 C   0  0  0  0  0  0  0  0  0  0  0  0
    7.7465  -13.6873   19.4835 C   0  0  1  0  0  0  0  0  0  0  0  0
    8.4956  -14.7125   18.6414 C   0  0  0  0  0  0  0  0  0  0  0  0
    8.3693  -13.5738   20.8537 C   0  0  0  0  0  0  0  0  0  0  0  0
    8.3691  -14.9151   21.5288 C   0  0  2  0  0  0  0  0  0  0  0  0
    7.0652  -15.5270   21.5135 N   0  0  0  0  0  0  0  0  0  0  0  0
    8.8174  -14.7834   22.9374 C   0  0  0  0  0  0  0  0  0  0  0  0
   10.0263  -14.5306   23.1562 O   0  0  0  0  0  0  0  0  0  0  0  0
    8.1177  -11.9335   26.2661 C   0  0  0  0  0  0  0  0  0  0  0  0
    6.9425  -12.8344   25.8160 C   0  0  2  0  0  0  0  0  0  0  0  0
    5.7123  -12.3339   26.5485 C   0  0  0  0  0  0  0  0  0  0  0  0
    7.2780  -14.2342   26.1666 C   0  0  0  0  0  0  0  0  0  0  0  0
    8.3656  -14.9006   25.4081 C   0  0  2  0  0  0  0  0  0  0  0  0
    7.8852  -14.9451   24.0099 N   0  0  0  0  0  0  0  0  0  0  0  0
    8.7160  -16.2654   25.8516 C   0  0  0  0  0  0  0  0  0  0  0  0
    7.8111  -17.1349   25.9016 O   0  0  0  0  0  0  0  0  0  0  0  0
   10.0281  -16.6373   26.2197 N   0  0  0  0  0  0  0  0  0  0  0  0
   10.2472  -18.0377   26.6288 C   0  0  1  0  0  0  0  0  0  0  0  0
   11.4039  -18.5245   25.7804 C   0  0  0  0  0  0  0  0  0  0  0  0
   11.1871  -18.3659   24.3119 C   0  0  0  0  0  0  0  0  0  0  0  0
   12.4086  -18.9857   23.6274 C   0  0  0  0  0  0  0  0  0  0  0  0
   12.2619  -18.9338   22.1155 C   0  0  0  0  0  0  0  0  0  0  0  0
   13.4836  -19.5090   21.5486 N   0  0  0  0  0  0  0  0  0  0  0  0
   10.5266  -18.0870   28.0789 C   0  0  0  0  0  0  0  0  0  0  0  0
   10.5713  -19.3019   28.7335 O   0  0  0  0  0  0  0  0  0  0  0  0
   10.7260  -17.0507   28.7417 O   0  0  0  0  0  0  0  0  0  0  0  0
  2  1  1  6
  2  4  1  0
  3  2  1  0
  5  6  1  1
  5  4  1  0
  7  5  1  0
  8  7  2  0
 10  9  1  1
 10 12  1  0
 11 10  1  0
 13 12  1  1
 13 14  1  0
 14  7  1  0
 15 13  1  0
 15 17  1  0
 16 15  2  0
 18 19  1  6
 18 17  1  0
 18 24  1  0
 20 21  1  0
 20 19  1  0
 21 22  1  0
 22 23  1  0
 24 25  1  0
 26 24  2  0
M  END
$$$$
