LLK.pdb
     RDKit          3D

 26 25  0  0  1  0  0  0  0  0999 V2000
    7.3603  -21.3013   22.1479 C   0  0  0  0  0  0  0  0  0  0  0  0
    6.4893  -20.2240   22.7216 C   0  0  1  0  0  0  0  0  0  0  0  0
    5.4302  -20.7873   23.6609 C   0  0  0  0  0  0  0  0  0  0  0  0
    7.2761  -19.1335   23.4072 C   0  0  0  0  0  0  0  0  0  0  0  0
    7.0428  -17.8216   22.7150 C   0  0  2  0  0  0  0  0  0  0  0  0
    7.5616  -17.8203   21.3713 N   0  0  0  0  0  0  0  0  0  0  0  0
    7.6816  -16.7175   23.4737 C   0  0  0  0  0  0  0  0  0  0  0  0
    8.9012  -16.4934   23.2852 O   0  0  0  0  0  0  0  0  0  0  0  0
    5.4987  -12.3395   27.1782 C   0  0  0  0  0  0  0  0  0  0  0  0
    6.8202  -12.9378   26.6389 C   0  0  2  0  0  0  0  0  0  0  0  0
    7.5615  -11.8013   25.9614 C   0  0  0  0  0  0  0  0  0  0  0  0
    6.4783  -14.0295   25.6975 C   0  0  0  0  0  0  0  0  0  0  0  0
    7.5819  -14.8815   25.1886 C   0  0  2  0  0  0  0  0  0  0  0  0
    6.9156  -15.9372   24.3954 N   0  0  0  0  0  0  0  0  0  0  0  0
    8.4388  -15.5059   26.2173 C   0  0  0  0  0  0  0  0  0  0  0  0
    7.9253  -16.3348   27.0088 O   0  0  0  0  0  0  0  0  0  0  0  0
    9.8145  -15.2132   26.3479 N   0  0  0  0  0  0  0  0  0  0  0  0
   10.5691  -15.9459   27.3824 C   0  0  1  0  0  0  0  0  0  0  0  0
   11.7913  -16.4916   26.6729 C   0  0  0  0  0  0  0  0  0  0  0  0
   12.0186  -17.9506   26.8930 C   0  0  0  0  0  0  0  0  0  0  0  0
   13.0520  -18.3868   25.8507 C   0  0  0  0  0  0  0  0  0  0  0  0
   13.4210  -19.8493   26.0385 C   0  0  0  0  0  0  0  0  0  0  0  0
   14.2384  -20.2342   24.8859 N   0  0  0  0  0  0  0  0  0  0  0  0
   10.9005  -15.0269   28.4909 C   0  0  0  0  0  0  0  0  0  0  0  0
   10.5666  -13.6899   28.4039 O   0  0  0  0  0  0  0  0  0  0  0  0
   11.4817  -15.4253   29.5187 O   0  0  0  0  0  0  0  0  0  0  0  0
  2  1  1  1
  2  4  1  0
  3  2  1  0
  5  6  1  6
  5  4  1  0
  7  5  1  0
  8  7  2  0
 10  9  1  6
 10 12  1  0
 11 10  1  0
 13 12  1  1
 13 14  1  0
 14  7  1  0
 15 13  1  0
 15 17  1  0
 16 15  2  0
 18 19  1  6
 18 17  1  0
 18 24  1  0
 20 21  1  0
 20 19  1  0
 21 22  1  0
 22 23  1  0
 24 25  1  0
 26 24  2  0
M  END
$$$$
