LLK.pdb
     RDKit          3D

 26 25  0  0  1  0  0  0  0  0999 V2000
    7.7264  -12.0865   19.1275 C   0  0  0  0  0  0  0  0  0  0  0  0
    7.7023  -13.4240   19.8050 C   0  0  1  0  0  0  0  0  0  0  0  0
    8.0944  -14.5503   18.8567 C   0  0  0  0  0  0  0  0  0  0  0  0
    8.5494  -13.4668   21.0536 C   0  0  0  0  0  0  0  0  0  0  0  0
    8.4015  -14.8008   21.7269 C   0  0  2  0  0  0  0  0  0  0  0  0
    7.0344  -15.2542   21.7324 N   0  0  0  0  0  0  0  0  0  0  0  0
    8.8851  -14.7276   23.1281 C   0  0  0  0  0  0  0  0  0  0  0  0
   10.1115  -14.5548   23.3262 O   0  0  0  0  0  0  0  0  0  0  0  0
    7.9206  -11.8018   26.4850 C   0  0  0  0  0  0  0  0  0  0  0  0
    6.8240  -12.7998   26.0414 C   0  0  2  0  0  0  0  0  0  0  0  0
    5.5682  -12.4257   26.8051 C   0  0  0  0  0  0  0  0  0  0  0  0
    7.2932  -14.1681   26.3617 C   0  0  0  0  0  0  0  0  0  0  0  0
    8.4530  -14.7017   25.6049 C   0  0  2  0  0  0  0  0  0  0  0  0
    7.9662  -14.8544   24.2166 N   0  0  0  0  0  0  0  0  0  0  0  0
    8.9934  -15.9913   26.0814 C   0  0  0  0  0  0  0  0  0  0  0  0
    9.2225  -16.1335   27.3080 O   0  0  0  0  0  0  0  0  0  0  0  0
    9.2613  -17.0753   25.2163 N   0  0  0  0  0  0  0  0  0  0  0  0
    9.8828  -18.2766   25.8056 C   0  0  1  0  0  0  0  0  0  0  0  0
    9.7549  -19.3520   24.7465 C   0  0  0  0  0  0  0  0  0  0  0  0
   10.3794  -20.6538   25.1261 C   0  0  0  0  0  0  0  0  0  0  0  0
   10.2068  -21.5815   23.9202 C   0  0  0  0  0  0  0  0  0  0  0  0
   10.8697  -22.9251   24.1762 C   0  0  0  0  0  0  0  0  0  0  0  0
   10.8240  -23.6699   22.9160 N   0  0  0  0  0  0  0  0  0  0  0  0
   11.2840  -17.9771   26.1661 C   0  0  0  0  0  0  0  0  0  0  0  0
   12.0767  -17.2415   25.3075 O   0  0  0  0  0  0  0  0  0  0  0  0
   11.7825  -18.3738   27.2371 O   0  0  0  0  0  0  0  0  0  0  0  0
  2  1  1  6
  2  4  1  0
  3  2  1  0
  5  6  1  1
  5  4  1  0
  7  5  1  0
  8  7  2  0
 10  9  1  1
 10 12  1  0
 11 10  1  0
 13 12  1  1
 13 14  1  0
 14  7  1  0
 15 13  1  0
 15 17  1  0
 16 15  2  0
 18 19  1  6
 18 17  1  0
 18 24  1  0
 20 21  1  0
 20 19  1  0
 21 22  1  0
 22 23  1  0
 24 25  1  0
 26 24  2  0
M  END
$$$$
