LLK.pdb
     RDKit          3D

 26 25  0  0  1  0  0  0  0  0999 V2000
    6.5784  -13.6002   19.8133 C   0  0  0  0  0  0  0  0  0  0  0  0
    8.0016  -13.8545   19.4157 C   0  0  1  0  0  0  0  0  0  0  0  0
    8.5120  -12.8134   18.4274 C   0  0  0  0  0  0  0  0  0  0  0  0
    8.9333  -13.9604   20.5985 C   0  0  0  0  0  0  0  0  0  0  0  0
    8.5795  -15.1647   21.4226 C   0  0  2  0  0  0  0  0  0  0  0  0
    7.1826  -15.4996   21.3172 N   0  0  0  0  0  0  0  0  0  0  0  0
    8.9061  -14.9264   22.8506 C   0  0  0  0  0  0  0  0  0  0  0  0
   10.0770  -14.5863   23.1447 O   0  0  0  0  0  0  0  0  0  0  0  0
    8.0007  -12.0601   26.1867 C   0  0  0  0  0  0  0  0  0  0  0  0
    6.8463  -12.9172   25.6140 C   0  0  2  0  0  0  0  0  0  0  0  0
    5.5722  -12.4102   26.2621 C   0  0  0  0  0  0  0  0  0  0  0  0
    7.1216  -14.3352   25.9433 C   0  0  0  0  0  0  0  0  0  0  0  0
    8.2784  -14.9912   25.2845 C   0  0  2  0  0  0  0  0  0  0  0  0
    7.9027  -15.0858   23.8571 N   0  0  0  0  0  0  0  0  0  0  0  0
    8.6303  -16.3337   25.7907 C   0  0  0  0  0  0  0  0  0  0  0  0
    7.7558  -17.2349   25.7702 O   0  0  0  0  0  0  0  0  0  0  0  0
    9.9114  -16.6499   26.2949 N   0  0  0  0  0  0  0  0  0  0  0  0
   10.1249  -18.0219   26.7934 C   0  0  1  0  0  0  0  0  0  0  0  0
   11.2152  -18.6000   25.9149 C   0  0  0  0  0  0  0  0  0  0  0  0
   11.6596  -19.9662   26.3207 C   0  0  0  0  0  0  0  0  0  0  0  0
   12.7646  -20.3681   25.3398 C   0  0  0  0  0  0  0  0  0  0  0  0
   13.2083  -21.8007   25.5870 C   0  0  0  0  0  0  0  0  0  0  0  0
   14.1525  -22.1444   24.5216 N   0  0  0  0  0  0  0  0  0  0  0  0
   10.4936  -17.9722   28.2234 C   0  0  0  0  0  0  0  0  0  0  0  0
   10.4162  -19.1131   28.9974 O   0  0  0  0  0  0  0  0  0  0  0  0
   10.8779  -16.9168   28.7630 O   0  0  0  0  0  0  0  0  0  0  0  0
  2  1  1  1
  2  4  1  0
  3  2  1  0
  5  6  1  1
  5  4  1  0
  7  5  1  0
  8  7  2  0
 10  9  1  1
 10 12  1  0
 11 10  1  0
 13 12  1  1
 13 14  1  0
 14  7  1  0
 15 13  1  0
 15 17  1  0
 16 15  2  0
 18 19  1  6
 18 17  1  0
 18 24  1  0
 20 21  1  0
 20 19  1  0
 21 22  1  0
 22 23  1  0
 24 25  1  0
 26 24  2  0
M  END
$$$$
