LLK.pdb
     RDKit          3D

 26 25  0  0  1  0  0  0  0  0999 V2000
   11.1880  -14.3802   29.9689 C   0  0  0  0  0  0  0  0  0  0  0  0
   11.0355  -15.6516   29.1888 C   0  0  1  0  0  0  0  0  0  0  0  0
   11.5108  -16.8650   29.9781 C   0  0  0  0  0  0  0  0  0  0  0  0
    9.6293  -15.8680   28.6848 C   0  0  0  0  0  0  0  0  0  0  0  0
    9.6650  -16.5120   27.3288 C   0  0  2  0  0  0  0  0  0  0  0  0
   10.8288  -16.1206   26.5757 N   0  0  0  0  0  0  0  0  0  0  0  0
    8.4520  -16.1502   26.5540 C   0  0  0  0  0  0  0  0  0  0  0  0
    7.3766  -16.7368   26.8235 O   0  0  0  0  0  0  0  0  0  0  0  0
    6.0275  -13.0129   27.1568 C   0  0  0  0  0  0  0  0  0  0  0  0
    7.3366  -12.8199   26.3542 C   0  0  2  0  0  0  0  0  0  0  0  0
    7.6271  -11.3313   26.3576 C   0  0  0  0  0  0  0  0  0  0  0  0
    7.1185  -13.3495   24.9878 C   0  0  0  0  0  0  0  0  0  0  0  0
    7.3008  -14.8059   24.7681 C   0  0  2  0  0  0  0  0  0  0  0  0
    8.5208  -15.1575   25.5268 N   0  0  0  0  0  0  0  0  0  0  0  0
    7.4571  -15.2293   23.3615 C   0  0  0  0  0  0  0  0  0  0  0  0
    6.4504  -15.2129   22.6107 O   0  0  0  0  0  0  0  0  0  0  0  0
    8.6929  -15.6497   22.8216 N   0  0  0  0  0  0  0  0  0  0  0  0
    8.7201  -16.0155   21.3927 C   0  0  1  0  0  0  0  0  0  0  0  0
    8.4177  -14.7322   20.6468 C   0  0  0  0  0  0  0  0  0  0  0  0
    8.4207  -14.8797   19.1612 C   0  0  0  0  0  0  0  0  0  0  0  0
    8.2177  -13.4739   18.5891 C   0  0  0  0  0  0  0  0  0  0  0  0
    7.9907  -13.5321   17.0873 C   0  0  0  0  0  0  0  0  0  0  0  0
    8.0011  -12.1508   16.6008 N   0  0  0  0  0  0  0  0  0  0  0  0
   10.0408  -16.5870   21.0578 C   0  0  0  0  0  0  0  0  0  0  0  0
   10.2678  -17.1143   19.8020 O   0  0  0  0  0  0  0  0  0  0  0  0
   10.9720  -16.6098   21.8856 O   0  0  0  0  0  0  0  0  0  0  0  0
  2  1  1  1
  2  4  1  0
  3  2  1  0
  5  6  1  6
  5  4  1  0
  7  5  1  0
  8  7  2  0
 10  9  1  1
 10 12  1  0
 11 10  1  0
 13 12  1  6
 13 14  1  0
 14  7  1  0
 15 13  1  0
 15 17  1  0
 16 15  2  0
 18 19  1  6
 18 17  1  0
 18 24  1  0
 20 21  1  0
 20 19  1  0
 21 22  1  0
 22 23  1  0
 24 25  1  0
 26 24  2  0
M  END
$$$$
