LLK.pdb
     RDKit          3D

 26 25  0  0  1  0  0  0  0  0999 V2000
    5.7950  -11.3792   26.1757 C   0  0  0  0  0  0  0  0  0  0  0  0
    6.7935  -12.4902   26.0450 C   0  0  1  0  0  0  0  0  0  0  0  0
    7.9015  -12.3860   27.0855 C   0  0  0  0  0  0  0  0  0  0  0  0
    6.1593  -13.8593   26.0850 C   0  0  0  0  0  0  0  0  0  0  0  0
    7.2079  -14.9151   25.8835 C   0  0  2  0  0  0  0  0  0  0  0  0
    8.4984  -14.4931   26.3641 N   0  0  0  0  0  0  0  0  0  0  0  0
    7.3241  -15.2584   24.4443 C   0  0  0  0  0  0  0  0  0  0  0  0
    6.4548  -16.0082   23.9391 O   0  0  0  0  0  0  0  0  0  0  0  0
    6.8359  -14.0738   20.3983 C   0  0  0  0  0  0  0  0  0  0  0  0
    7.9490  -13.3221   21.1672 C   0  0  2  0  0  0  0  0  0  0  0  0
    8.3971  -12.1839   20.2705 C   0  0  0  0  0  0  0  0  0  0  0  0
    9.0411  -14.2832   21.4479 C   0  0  0  0  0  0  0  0  0  0  0  0
    8.7632  -15.3981   22.3872 C   0  0  2  0  0  0  0  0  0  0  0  0
    8.4060  -14.7426   23.6641 N   0  0  0  0  0  0  0  0  0  0  0  0
    9.8775  -16.3412   22.6132 C   0  0  0  0  0  0  0  0  0  0  0  0
   10.4346  -16.8670   21.6180 O   0  0  0  0  0  0  0  0  0  0  0  0
   10.3471  -16.6760   23.9027 N   0  0  0  0  0  0  0  0  0  0  0  0
   11.4663  -17.6333   23.9902 C   0  0  1  0  0  0  0  0  0  0  0  0
   11.8645  -17.6487   25.4517 C   0  0  0  0  0  0  0  0  0  0  0  0
   12.9238  -18.6479   25.7806 C   0  0  0  0  0  0  0  0  0  0  0  0
   12.8958  -18.8192   27.3020 C   0  0  0  0  0  0  0  0  0  0  0  0
   13.9502  -19.8181   27.7501 C   0  0  0  0  0  0  0  0  0  0  0  0
   13.7317  -20.0565   29.1785 N   0  0  0  0  0  0  0  0  0  0  0  0
   11.0234  -18.9522   23.4928 C   0  0  0  0  0  0  0  0  0  0  0  0
   11.9073  -19.7678   22.8144 O   0  0  0  0  0  0  0  0  0  0  0  0
    9.8586  -19.3593   23.6677 O   0  0  0  0  0  0  0  0  0  0  0  0
  2  1  1  1
  2  4  1  0
  3  2  1  0
  5  6  1  6
  5  4  1  0
  7  5  1  0
  8  7  2  0
 10  9  1  6
 10 12  1  0
 11 10  1  0
 13 12  1  6
 13 14  1  0
 14  7  1  0
 15 13  1  0
 15 17  1  0
 16 15  2  0
 18 19  1  1
 18 17  1  0
 18 24  1  0
 20 21  1  0
 20 19  1  0
 21 22  1  0
 22 23  1  0
 24 25  1  0
 26 24  2  0
M  END
$$$$
