LLK.pdb
     RDKit          3D

 26 25  0  0  1  0  0  0  0  0999 V2000
    7.6050  -12.4569   18.8930 C   0  0  0  0  0  0  0  0  0  0  0  0
    7.7891  -13.7402   19.6462 C   0  0  1  0  0  0  0  0  0  0  0  0
    8.3723  -14.8389   18.7664 C   0  0  0  0  0  0  0  0  0  0  0  0
    8.6141  -13.5743   20.8993 C   0  0  0  0  0  0  0  0  0  0  0  0
    8.5968  -14.8470   21.6958 C   0  0  2  0  0  0  0  0  0  0  0  0
    7.2787  -15.4239   21.7631 N   0  0  0  0  0  0  0  0  0  0  0  0
    9.0790  -14.5975   23.0771 C   0  0  0  0  0  0  0  0  0  0  0  0
   10.2472  -14.1678   23.2312 O   0  0  0  0  0  0  0  0  0  0  0  0
    8.1335  -11.8374   26.4780 C   0  0  0  0  0  0  0  0  0  0  0  0
    7.0544  -12.8790   26.0961 C   0  0  2  0  0  0  0  0  0  0  0  0
    5.8341  -12.5624   26.9393 C   0  0  0  0  0  0  0  0  0  0  0  0
    7.5999  -14.2276   26.3764 C   0  0  0  0  0  0  0  0  0  0  0  0
    8.7544  -14.6936   25.5686 C   0  0  2  0  0  0  0  0  0  0  0  0
    8.2242  -14.8466   24.1963 N   0  0  0  0  0  0  0  0  0  0  0  0
    9.3716  -15.9638   26.0021 C   0  0  0  0  0  0  0  0  0  0  0  0
    9.6324  -16.1234   27.2202 O   0  0  0  0  0  0  0  0  0  0  0  0
    9.6792  -17.0106   25.1048 N   0  0  0  0  0  0  0  0  0  0  0  0
   10.4164  -18.1701   25.6417 C   0  0  1  0  0  0  0  0  0  0  0  0
   10.2226  -19.2730   24.6215 C   0  0  0  0  0  0  0  0  0  0  0  0
    9.6106  -20.5147   25.1804 C   0  0  0  0  0  0  0  0  0  0  0  0
    9.5127  -21.5067   24.0180 C   0  0  0  0  0  0  0  0  0  0  0  0
    8.8632  -22.8039   24.4714 C   0  0  0  0  0  0  0  0  0  0  0  0
    8.7696  -23.6684   23.2929 N   0  0  0  0  0  0  0  0  0  0  0  0
   11.8335  -17.8015   25.8395 C   0  0  0  0  0  0  0  0  0  0  0  0
   12.3516  -16.6857   25.2124 O   0  0  0  0  0  0  0  0  0  0  0  0
   12.5892  -18.4761   26.5652 O   0  0  0  0  0  0  0  0  0  0  0  0
  2  1  1  6
  2  4  1  0
  3  2  1  0
  5  6  1  1
  5  4  1  0
  7  5  1  0
  8  7  2  0
 10  9  1  1
 10 12  1  0
 11 10  1  0
 13 12  1  1
 13 14  1  0
 14  7  1  0
 15 13  1  0
 15 17  1  0
 16 15  2  0
 18 19  1  6
 18 17  1  0
 18 24  1  0
 20 21  1  0
 20 19  1  0
 21 22  1  0
 22 23  1  0
 24 25  1  0
 26 24  2  0
M  END
$$$$
