RWY.pdb
     RDKit          3D

 38 40  0  0  1  0  0  0  0  0999 V2000
    9.7900  -14.5609   14.5961 N   0  0  0  0  0  0  0  0  0  0  0  0
    8.5619  -14.1782   14.0007 C   0  0  0  0  0  0  0  0  0  0  0  0
    8.3275  -14.4862   12.7768 N   0  0  0  0  0  0  0  0  0  0  0  0
    7.5741  -13.4579   14.7190 N   0  0  0  0  0  0  0  0  0  0  0  0
    7.6779  -13.1443   16.1445 C   0  0  0  0  0  0  0  0  0  0  0  0
    7.9053  -14.4519   16.8590 C   0  0  0  0  0  0  0  0  0  0  0  0
    7.8479  -14.2485   18.3462 C   0  0  0  0  0  0  0  0  0  0  0  0
    8.1839  -15.4924   19.0741 C   0  0  2  0  0  0  0  0  0  0  0  0
    7.1084  -16.4202   19.2075 N   0  0  0  0  0  0  0  0  0  0  0  0
    8.8633  -15.2262   20.3867 C   0  0  0  0  0  0  0  0  0  0  0  0
    9.8784  -14.4788   20.3844 O   0  0  0  0  0  0  0  0  0  0  0  0
    7.4228  -14.2435   12.3212 N   0  0  0  0  0  0  0  0  0  0  0  0
    8.4523  -15.7485   21.6173 C   0  0  1  0  0  0  0  0  0  0  0  0
    8.9965  -15.3588   22.9147 C   0  0  0  0  0  0  0  0  0  0  0  0
    8.1808  -16.1060   23.9466 C   0  0  0  0  0  0  0  0  0  0  0  0
    7.2256  -15.2685   24.6766 C   0  0  0  0  0  0  0  0  0  0  0  0
    6.1409  -15.7316   25.4251 N   0  0  0  0  0  0  0  0  0  0  0  0
    5.5191  -14.6551   25.9317 C   0  0  0  0  0  0  0  0  0  0  0  0
    6.1715  -13.5343   25.5303 C   0  0  0  0  0  0  0  0  0  0  0  0
    5.9810  -12.1824   25.7448 C   0  0  0  0  0  0  0  0  0  0  0  0
    6.8367  -11.2664   25.1866 C   0  0  0  0  0  0  0  0  0  0  0  0
    7.9106  -11.6422   24.3975 C   0  0  0  0  0  0  0  0  0  0  0  0
    8.1030  -12.9785   24.1825 C   0  0  0  0  0  0  0  0  0  0  0  0
    7.2415  -13.9082   24.7439 C   0  0  0  0  0  0  0  0  0  0  0  0
   10.4017  -15.8558   23.0627 O   0  0  0  0  0  0  0  0  0  0  0  0
   11.2979  -15.2209   22.4758 O   0  0  0  0  0  0  0  0  0  0  0  0
   11.2746  -15.2547   31.4020 C   0  0  0  0  0  0  0  0  0  0  0  0
   10.9904  -15.4208   30.0534 C   0  0  0  0  0  0  0  0  0  0  0  0
   11.6434  -16.4404   29.3661 C   0  0  0  0  0  0  0  0  0  0  0  0
   11.3541  -16.5955   28.0299 C   0  0  0  0  0  0  0  0  0  0  0  0
   10.4462  -15.7783   27.3615 C   0  0  0  0  0  0  0  0  0  0  0  0
   10.1741  -15.9688   25.9254 C   0  0  1  0  0  0  0  0  0  0  0  0
   11.1548  -16.8224   25.1977 N   0  0  0  0  0  0  0  0  0  0  0  0
   10.7031  -16.9892   23.8292 C   0  0  0  0  0  0  0  0  0  0  0  0
   11.3436  -18.1341   25.8683 O   0  0  0  0  0  0  0  0  0  0  0  0
   10.3535  -19.1165   25.8399 C   0  0  0  0  0  0  0  0  0  0  0  0
    9.8011  -14.7681   28.0487 C   0  0  0  0  0  0  0  0  0  0  0  0
   10.0926  -14.6171   29.3836 O   0  0  0  0  0  0  0  0  0  0  0  0
  2  3  2  0
  2  1  1  0
  4  2  1  0
  5  4  1  0
  6  7  1  0
  6  5  1  0
  8 10  1  0
  8  7  1  0
  8  9  1  1
 10 12  1  0
 11 10  2  0
 12 13  1  0
 13 24  1  0
 13 14  1  6
 14 15  1  0
 15 16  2  0
 17 16  1  0
 18 17  1  0
 19 18  2  0
 20 19  1  0
 21 22  1  0
 21 20  2  0
 22 23  2  0
 23 18  1  0
 23 15  1  0
 24 25  2  0
 24 33  1  0
 27 26  1  0
 27 37  2  0
 28 27  1  0
 29 28  2  0
 29 30  1  0
 30 36  2  0
 31 30  1  0
 32 31  1  6
 33 32  1  0
 34 32  1  0
 34 35  1  0
 36 37  1  0
 38 34  2  0
M  END
$$$$
