RWY.pdb
     RDKit          3D

 38 40  0  0  1  0  0  0  0  0999 V2000
   12.1108  -16.3268   13.9849 N   0  0  0  0  0  0  0  0  0  0  0  0
   10.8110  -16.3699   13.4213 C   0  0  0  0  0  0  0  0  0  0  0  0
   10.6260  -16.9651   12.2991 N   0  0  0  0  0  0  0  0  0  0  0  0
    9.6971  -15.7701   14.0616 N   0  0  0  0  0  0  0  0  0  0  0  0
    9.7537  -15.1806   15.3997 C   0  0  0  0  0  0  0  0  0  0  0  0
    9.8056  -16.3283   16.3754 C   0  0  0  0  0  0  0  0  0  0  0  0
    9.7144  -15.8169   17.7848 C   0  0  0  0  0  0  0  0  0  0  0  0
    9.6963  -16.9283   18.7618 C   0  0  2  0  0  0  0  0  0  0  0  0
    8.7063  -17.9263   18.5190 N   0  0  0  0  0  0  0  0  0  0  0  0
    9.6710  -16.4452   20.1835 C   0  0  0  0  0  0  0  0  0  0  0  0
   10.5825  -15.6576   20.5551 O   0  0  0  0  0  0  0  0  0  0  0  0
    9.6830  -17.0097   11.8590 N   0  0  0  0  0  0  0  0  0  0  0  0
    8.7076  -16.8060   21.1310 C   0  0  1  0  0  0  0  0  0  0  0  0
    8.6837  -16.3457   22.5162 C   0  0  0  0  0  0  0  0  0  0  0  0
    7.2979  -15.7820   22.7408 C   0  0  0  0  0  0  0  0  0  0  0  0
    7.0754  -15.2578   24.0907 C   0  0  0  0  0  0  0  0  0  0  0  0
    6.6727  -16.0056   25.1997 N   0  0  0  0  0  0  0  0  0  0  0  0
    6.5851  -15.1599   26.2386 C   0  0  0  0  0  0  0  0  0  0  0  0
    6.9171  -13.9104   25.8248 C   0  0  0  0  0  0  0  0  0  0  0  0
    6.9994  -12.6808   26.4503 C   0  0  0  0  0  0  0  0  0  0  0  0
    7.3761  -11.5681   25.7411 C   0  0  0  0  0  0  0  0  0  0  0  0
    7.6858  -11.6200   24.3927 C   0  0  0  0  0  0  0  0  0  0  0  0
    7.6058  -12.8342   23.7696 C   0  0  0  0  0  0  0  0  0  0  0  0
    7.2257  -13.9616   24.4812 C   0  0  0  0  0  0  0  0  0  0  0  0
    8.8130  -17.5057   23.4548 O   0  0  0  0  0  0  0  0  0  0  0  0
    7.7672  -18.0994   23.7781 O   0  0  0  0  0  0  0  0  0  0  0  0
   10.1063  -13.7278   30.4621 C   0  0  0  0  0  0  0  0  0  0  0  0
   10.0638  -14.2844   29.1911 C   0  0  0  0  0  0  0  0  0  0  0  0
    9.7082  -13.4614   28.1260 C   0  0  0  0  0  0  0  0  0  0  0  0
    9.6691  -14.0240   26.8709 C   0  0  0  0  0  0  0  0  0  0  0  0
    9.9689  -15.3644   26.6426 C   0  0  0  0  0  0  0  0  0  0  0  0
    9.9022  -15.9321   25.2838 C   0  0  1  0  0  0  0  0  0  0  0  0
   10.6273  -17.2197   25.0938 N   0  0  0  0  0  0  0  0  0  0  0  0
   10.0577  -17.9121   23.9533 C   0  0  0  0  0  0  0  0  0  0  0  0
   10.5793  -18.0616   26.3164 O   0  0  0  0  0  0  0  0  0  0  0  0
    9.3853  -18.6250   26.7671 C   0  0  0  0  0  0  0  0  0  0  0  0
   10.3213  -16.1764   27.7034 C   0  0  0  0  0  0  0  0  0  0  0  0
   10.3596  -15.6102   28.9554 O   0  0  0  0  0  0  0  0  0  0  0  0
  2  3  2  0
  2  1  1  0
  4  2  1  0
  5  4  1  0
  6  7  1  0
  6  5  1  0
  8 10  1  0
  8  7  1  0
  8  9  1  6
 10 12  1  0
 11 10  2  0
 12 13  1  0
 13 24  1  0
 13 14  1  1
 14 15  1  0
 15 16  2  0
 17 16  1  0
 18 17  1  0
 19 18  2  0
 20 19  1  0
 21 22  1  0
 21 20  2  0
 22 23  2  0
 23 18  1  0
 23 15  1  0
 24 25  2  0
 24 33  1  0
 27 26  1  0
 27 37  2  0
 28 27  1  0
 29 28  2  0
 29 30  1  0
 30 36  2  0
 31 30  1  0
 32 31  1  6
 33 32  1  0
 34 32  1  0
 34 35  1  0
 36 37  1  0
 38 34  2  0
M  END
$$$$
