RWY.pdb
     RDKit          3D

 38 40  0  0  1  0  0  0  0  0999 V2000
    7.8192  -11.9893   14.8648 N   0  0  0  0  0  0  0  0  0  0  0  0
    7.8140  -13.2882   14.2974 C   0  0  0  0  0  0  0  0  0  0  0  0
    8.2489  -13.4596   13.1019 N   0  0  0  0  0  0  0  0  0  0  0  0
    7.3382  -14.4159   15.0132 N   0  0  0  0  0  0  0  0  0  0  0  0
    7.0381  -14.3976   16.4453 C   0  0  0  0  0  0  0  0  0  0  0  0
    8.3204  -14.0372   17.1508 C   0  0  0  0  0  0  0  0  0  0  0  0
    8.1106  -14.0286   18.6382 C   0  0  0  0  0  0  0  0  0  0  0  0
    8.6546  -15.2530   19.2667 C   0  0  2  0  0  0  0  0  0  0  0  0
    7.8233  -16.4069   19.1539 N   0  0  0  0  0  0  0  0  0  0  0  0
    9.1082  -15.0225   20.6796 C   0  0  0  0  0  0  0  0  0  0  0  0
    9.9137  -14.0767   20.8935 O   0  0  0  0  0  0  0  0  0  0  0  0
    8.2962  -14.4079   12.6738 N   0  0  0  0  0  0  0  0  0  0  0  0
    8.7025  -15.7828   21.7812 C   0  0  1  0  0  0  0  0  0  0  0  0
    9.0357  -15.4851   23.1710 C   0  0  0  0  0  0  0  0  0  0  0  0
    8.0287  -16.2416   24.0089 C   0  0  0  0  0  0  0  0  0  0  0  0
    7.1945  -15.3885   24.8590 C   0  0  0  0  0  0  0  0  0  0  0  0
    6.0536  -15.7964   25.5542 N   0  0  0  0  0  0  0  0  0  0  0  0
    5.5833  -14.7237   26.2102 C   0  0  0  0  0  0  0  0  0  0  0  0
    6.3847  -13.6584   25.9538 C   0  0  0  0  0  0  0  0  0  0  0  0
    6.3804  -12.3347   26.3511 C   0  0  0  0  0  0  0  0  0  0  0  0
    7.3558  -11.4769   25.9087 C   0  0  0  0  0  0  0  0  0  0  0  0
    8.3711  -11.8852   25.0605 C   0  0  0  0  0  0  0  0  0  0  0  0
    8.3794  -13.1938   24.6648 C   0  0  0  0  0  0  0  0  0  0  0  0
    7.3964  -14.0648   25.1086 C   0  0  0  0  0  0  0  0  0  0  0  0
   10.3749  -16.0569   23.5215 O   0  0  0  0  0  0  0  0  0  0  0  0
   11.3814  -15.4120   23.1729 O   0  0  0  0  0  0  0  0  0  0  0  0
   12.2519  -16.1070   31.7159 C   0  0  0  0  0  0  0  0  0  0  0  0
   11.8123  -16.1276   30.3993 C   0  0  0  0  0  0  0  0  0  0  0  0
   12.6434  -16.6978   29.4389 C   0  0  0  0  0  0  0  0  0  0  0  0
   12.1973  -16.7123   28.1373 C   0  0  0  0  0  0  0  0  0  0  0  0
   10.9647  -16.1836   27.7633 C   0  0  0  0  0  0  0  0  0  0  0  0
   10.5293  -16.2067   26.3552 C   0  0  1  0  0  0  0  0  0  0  0  0
   11.1328  -17.2814   25.5181 N   0  0  0  0  0  0  0  0  0  0  0  0
   10.4978  -17.2689   24.2137 C   0  0  0  0  0  0  0  0  0  0  0  0
   11.0127  -18.6128   26.1650 O   0  0  0  0  0  0  0  0  0  0  0  0
    9.8487  -19.3741   26.0557 C   0  0  0  0  0  0  0  0  0  0  0  0
   10.1440  -15.6191   28.7207 C   0  0  0  0  0  0  0  0  0  0  0  0
   10.5932  -15.6073   30.0199 O   0  0  0  0  0  0  0  0  0  0  0  0
  2  3  2  0
  2  1  1  0
  4  2  1  0
  5  4  1  0
  6  7  1  0
  6  5  1  0
  8 10  1  0
  8  7  1  0
  8  9  1  1
 10 12  1  0
 11 10  2  0
 12 13  1  0
 13 24  1  0
 13 14  1  1
 14 15  1  0
 15 16  2  0
 17 16  1  0
 18 17  1  0
 19 18  2  0
 20 19  1  0
 21 22  1  0
 21 20  2  0
 22 23  2  0
 23 18  1  0
 23 15  1  0
 24 25  2  0
 24 33  1  0
 27 26  1  0
 27 37  2  0
 28 27  1  0
 29 28  2  0
 29 30  1  0
 30 36  2  0
 31 30  1  0
 32 31  1  6
 33 32  1  0
 34 32  1  0
 34 35  1  0
 36 37  1  0
 38 34  2  0
M  END
$$$$
