RWY.pdb
     RDKit          3D

 38 40  0  0  1  0  0  0  0  0999 V2000
   11.7374  -21.4480   17.7312 N   0  0  0  0  0  0  0  0  0  0  0  0
   12.6230  -21.0125   18.7486 C   0  0  0  0  0  0  0  0  0  0  0  0
   13.8878  -21.1738   18.6000 N   0  0  0  0  0  0  0  0  0  0  0  0
   12.1535  -20.3996   19.9379 N   0  0  0  0  0  0  0  0  0  0  0  0
   10.7721  -19.9562   20.1287 C   0  0  0  0  0  0  0  0  0  0  0  0
   10.4348  -19.0754   18.9530 C   0  0  0  0  0  0  0  0  0  0  0  0
    9.0231  -18.5748   19.0667 C   0  0  0  0  0  0  0  0  0  0  0  0
    8.9694  -17.0967   19.0171 C   0  0  2  0  0  0  0  0  0  0  0  0
    9.8228  -16.4962   18.0443 N   0  0  0  0  0  0  0  0  0  0  0  0
    9.1313  -16.4686   20.3716 C   0  0  0  0  0  0  0  0  0  0  0  0
   10.2975  -16.1766   20.7508 O   0  0  0  0  0  0  0  0  0  0  0  0
   14.5617  -20.8754   19.3359 N   0  0  0  0  0  0  0  0  0  0  0  0
    8.0798  -16.1828   21.2485 C   0  0  1  0  0  0  0  0  0  0  0  0
    8.2403  -15.7263   22.6258 C   0  0  0  0  0  0  0  0  0  0  0  0
    6.8603  -15.3135   23.0882 C   0  0  0  0  0  0  0  0  0  0  0  0
    6.7816  -14.9732   24.5110 C   0  0  0  0  0  0  0  0  0  0  0  0
    6.4597  -15.8566   25.5441 N   0  0  0  0  0  0  0  0  0  0  0  0
    6.4967  -15.1583   26.6900 C   0  0  0  0  0  0  0  0  0  0  0  0
    6.8292  -13.8710   26.4164 C   0  0  0  0  0  0  0  0  0  0  0  0
    7.0093  -12.7396   27.1894 C   0  0  0  0  0  0  0  0  0  0  0  0
    7.3543  -11.5485   26.6018 C   0  0  0  0  0  0  0  0  0  0  0  0
    7.5353  -11.4228   25.2349 C   0  0  0  0  0  0  0  0  0  0  0  0
    7.3583  -12.5394   24.4662 C   0  0  0  0  0  0  0  0  0  0  0  0
    7.0096  -13.7452   25.0544 C   0  0  0  0  0  0  0  0  0  0  0  0
    8.6468  -16.8649   23.5099 O   0  0  0  0  0  0  0  0  0  0  0  0
    8.3946  -18.0172   23.1110 O   0  0  0  0  0  0  0  0  0  0  0  0
   16.8556  -18.5314   24.3851 C   0  0  0  0  0  0  0  0  0  0  0  0
   15.5402  -18.0986   24.2870 C   0  0  0  0  0  0  0  0  0  0  0  0
   15.1791  -17.3440   23.1743 C   0  0  0  0  0  0  0  0  0  0  0  0
   13.8728  -16.9202   23.0879 C   0  0  0  0  0  0  0  0  0  0  0  0
   12.9238  -17.2192   24.0619 C   0  0  0  0  0  0  0  0  0  0  0  0
   11.5370  -16.7346   23.9386 C   0  0  1  0  0  0  0  0  0  0  0  0
   10.5907  -17.2379   24.9735 N   0  0  0  0  0  0  0  0  0  0  0  0
    9.2857  -16.6495   24.7381 C   0  0  0  0  0  0  0  0  0  0  0  0
   11.0750  -16.9472   26.3470 O   0  0  0  0  0  0  0  0  0  0  0  0
   11.9694  -17.7960   26.9995 C   0  0  0  0  0  0  0  0  0  0  0  0
   13.2878  -17.9685   25.1640 C   0  0  0  0  0  0  0  0  0  0  0  0
   14.5936  -18.3903   25.2460 O   0  0  0  0  0  0  0  0  0  0  0  0
  2  3  2  0
  2  1  1  0
  4  2  1  0
  5  4  1  0
  6  7  1  0
  6  5  1  0
  8 10  1  0
  8  7  1  0
  8  9  1  6
 10 12  1  0
 11 10  2  0
 12 13  1  0
 13 24  1  0
 13 14  1  1
 14 15  1  0
 15 16  2  0
 17 16  1  0
 18 17  1  0
 19 18  2  0
 20 19  1  0
 21 22  1  0
 21 20  2  0
 22 23  2  0
 23 18  1  0
 23 15  1  0
 24 25  2  0
 24 33  1  0
 27 26  1  0
 27 37  2  0
 28 27  1  0
 29 28  2  0
 29 30  1  0
 30 36  2  0
 31 30  1  0
 32 31  1  6
 33 32  1  0
 34 32  1  0
 34 35  1  0
 36 37  1  0
 38 34  2  0
M  END
$$$$
