RWY.pdb
     RDKit          3D

 38 40  0  0  1  0  0  0  0  0999 V2000
   12.2440  -18.4021   15.2873 N   0  0  0  0  0  0  0  0  0  0  0  0
   11.1254  -19.1047   14.7732 C   0  0  0  0  0  0  0  0  0  0  0  0
   11.3068  -20.0556   13.9301 N   0  0  0  0  0  0  0  0  0  0  0  0
    9.7992  -18.7881   15.1620 N   0  0  0  0  0  0  0  0  0  0  0  0
    9.4680  -17.7464   16.1349 C   0  0  0  0  0  0  0  0  0  0  0  0
   10.5191  -17.8125   17.2132 C   0  0  0  0  0  0  0  0  0  0  0  0
   10.2193  -16.8125   18.2933 C   0  0  0  0  0  0  0  0  0  0  0  0
   10.1377  -17.4610   19.6210 C   0  0  2  0  0  0  0  0  0  0  0  0
    9.2354  -18.5633   19.6974 N   0  0  0  0  0  0  0  0  0  0  0  0
    9.9157  -16.4743   20.7313 C   0  0  0  0  0  0  0  0  0  0  0  0
   10.7368  -15.5252   20.8497 O   0  0  0  0  0  0  0  0  0  0  0  0
   10.5052  -20.5037   13.4388 N   0  0  0  0  0  0  0  0  0  0  0  0
    8.8614  -16.5305   21.6486 C   0  0  1  0  0  0  0  0  0  0  0  0
    8.6698  -15.6035   22.7600 C   0  0  0  0  0  0  0  0  0  0  0  0
    7.2749  -15.8672   23.2827 C   0  0  0  0  0  0  0  0  0  0  0  0
    6.9700  -15.1900   24.5456 C   0  0  0  0  0  0  0  0  0  0  0  0
    6.5236  -15.8089   25.7156 N   0  0  0  0  0  0  0  0  0  0  0  0
    6.3634  -14.8467   26.6379 C   0  0  0  0  0  0  0  0  0  0  0  0
    6.6920  -13.6479   26.0923 C   0  0  0  0  0  0  0  0  0  0  0  0
    6.7159  -12.3500   26.5666 C   0  0  0  0  0  0  0  0  0  0  0  0
    7.1076  -11.3215   25.7471 C   0  0  0  0  0  0  0  0  0  0  0  0
    7.4902  -11.5275   24.4325 C   0  0  0  0  0  0  0  0  0  0  0  0
    7.4680  -12.8097   23.9588 C   0  0  0  0  0  0  0  0  0  0  0  0
    7.0731  -13.8527   24.7823 C   0  0  0  0  0  0  0  0  0  0  0  0
    9.6006  -15.9369   23.8851 O   0  0  0  0  0  0  0  0  0  0  0  0
    9.6876  -15.1164   24.8178 O   0  0  0  0  0  0  0  0  0  0  0  0
   11.3612  -13.4986   30.1010 C   0  0  0  0  0  0  0  0  0  0  0  0
   11.1486  -14.4974   29.1605 C   0  0  0  0  0  0  0  0  0  0  0  0
   10.5799  -14.1399   27.9411 C   0  0  0  0  0  0  0  0  0  0  0  0
   10.3736  -15.1381   27.0168 C   0  0  0  0  0  0  0  0  0  0  0  0
   10.7108  -16.4665   27.2629 C   0  0  0  0  0  0  0  0  0  0  0  0
   10.4610  -17.5088   26.2509 C   0  0  2  0  0  0  0  0  0  0  0  0
   11.2542  -17.3830   24.9960 N   0  0  0  0  0  0  0  0  0  0  0  0
   10.3467  -17.1227   23.8944 C   0  0  0  0  0  0  0  0  0  0  0  0
   12.0772  -18.5933   24.7439 O   0  0  0  0  0  0  0  0  0  0  0  0
   13.1867  -18.8977   25.5330 C   0  0  0  0  0  0  0  0  0  0  0  0
   11.2751  -16.8153   28.4748 C   0  0  0  0  0  0  0  0  0  0  0  0
   11.4800  -15.8149   29.3951 O   0  0  0  0  0  0  0  0  0  0  0  0
  2  3  2  0
  2  1  1  0
  4  2  1  0
  5  4  1  0
  6  7  1  0
  6  5  1  0
  8 10  1  0
  8  7  1  0
  8  9  1  6
 10 12  1  0
 11 10  2  0
 12 13  1  0
 13 24  1  0
 13 14  1  6
 14 15  1  0
 15 16  2  0
 17 16  1  0
 18 17  1  0
 19 18  2  0
 20 19  1  0
 21 22  1  0
 21 20  2  0
 22 23  2  0
 23 18  1  0
 23 15  1  0
 24 25  2  0
 24 33  1  0
 27 26  1  0
 27 37  2  0
 28 27  1  0
 29 28  2  0
 29 30  1  0
 30 36  2  0
 31 30  1  0
 32 31  1  1
 33 32  1  0
 34 32  1  0
 34 35  1  0
 36 37  1  0
 38 34  2  0
M  END
$$$$
