RWY.pdb
     RDKit          3D

 38 40  0  0  1  0  0  0  0  0999 V2000
    6.8100  -12.4480   16.3382 N   0  0  0  0  0  0  0  0  0  0  0  0
    7.7890  -13.4636   16.4770 C   0  0  0  0  0  0  0  0  0  0  0  0
    8.2755  -14.0229   15.4289 N   0  0  0  0  0  0  0  0  0  0  0  0
    8.2527  -13.8877   17.7481 N   0  0  0  0  0  0  0  0  0  0  0  0
    7.5659  -13.5815   19.0034 C   0  0  0  0  0  0  0  0  0  0  0  0
    8.3604  -14.2399   20.1021 C   0  0  0  0  0  0  0  0  0  0  0  0
    7.7068  -15.5274   20.5164 C   0  0  0  0  0  0  0  0  0  0  0  0
    8.6595  -16.4133   21.2219 C   0  0  2  0  0  0  0  0  0  0  0  0
    8.1601  -17.7154   21.5223 N   0  0  0  0  0  0  0  0  0  0  0  0
    9.2756  -15.7561   22.4235 C   0  0  0  0  0  0  0  0  0  0  0  0
    9.9441  -14.7029   22.2418 O   0  0  0  0  0  0  0  0  0  0  0  0
    9.0076  -14.7604   15.4992 N   0  0  0  0  0  0  0  0  0  0  0  0
    9.1633  -16.2278   23.7353 C   0  0  1  0  0  0  0  0  0  0  0  0
    9.8224  -15.6362   24.8959 C   0  0  0  0  0  0  0  0  0  0  0  0
    8.8076  -15.6842   26.0169 C   0  0  0  0  0  0  0  0  0  0  0  0
    7.5944  -14.9037   25.7611 C   0  0  0  0  0  0  0  0  0  0  0  0
    6.3568  -15.4234   25.3745 N   0  0  0  0  0  0  0  0  0  0  0  0
    5.5136  -14.3868   25.2448 C   0  0  0  0  0  0  0  0  0  0  0  0
    6.1739  -13.2368   25.5350 C   0  0  0  0  0  0  0  0  0  0  0  0
    5.8135  -11.9029   25.5653 C   0  0  0  0  0  0  0  0  0  0  0  0
    6.7346  -10.9455   25.9083 C   0  0  0  0  0  0  0  0  0  0  0  0
    8.0430  -11.2605   26.2339 C   0  0  0  0  0  0  0  0  0  0  0  0
    8.4041  -12.5787   26.2052 C   0  0  0  0  0  0  0  0  0  0  0  0
    7.4776  -13.5502   25.8594 C   0  0  0  0  0  0  0  0  0  0  0  0
   10.9671  -16.4936   25.3404 O   0  0  0  0  0  0  0  0  0  0  0  0
   11.0679  -16.7266   26.5595 O   0  0  0  0  0  0  0  0  0  0  0  0
   10.9012  -17.8167   30.9672 C   0  0  0  0  0  0  0  0  0  0  0  0
   11.2392  -18.1240   29.6563 C   0  0  0  0  0  0  0  0  0  0  0  0
   12.4879  -17.7230   29.1896 C   0  0  0  0  0  0  0  0  0  0  0  0
   12.8119  -18.0328   27.8886 C   0  0  0  0  0  0  0  0  0  0  0  0
   11.9437  -18.7212   27.0454 C   0  0  0  0  0  0  0  0  0  0  0  0
   12.3236  -19.0220   25.6532 C   0  0  2  0  0  0  0  0  0  0  0  0
   12.9438  -17.8941   24.9030 N   0  0  0  0  0  0  0  0  0  0  0  0
   11.8917  -17.0161   24.4265 C   0  0  0  0  0  0  0  0  0  0  0  0
   13.7906  -18.3800   23.7838 O   0  0  0  0  0  0  0  0  0  0  0  0
   13.5020  -18.0566   22.4577 C   0  0  0  0  0  0  0  0  0  0  0  0
   10.7057  -19.1168   27.5142 C   0  0  0  0  0  0  0  0  0  0  0  0
   10.3864  -18.8058   28.8145 O   0  0  0  0  0  0  0  0  0  0  0  0
  2  3  2  0
  2  1  1  0
  4  2  1  0
  5  4  1  0
  6  7  1  0
  6  5  1  0
  8 10  1  0
  8  7  1  0
  8  9  1  1
 10 12  1  0
 11 10  2  0
 12 13  1  0
 13 24  1  0
 13 14  1  1
 14 15  1  0
 15 16  2  0
 17 16  1  0
 18 17  1  0
 19 18  2  0
 20 19  1  0
 21 22  1  0
 21 20  2  0
 22 23  2  0
 23 18  1  0
 23 15  1  0
 24 25  2  0
 24 33  1  0
 27 26  1  0
 27 37  2  0
 28 27  1  0
 29 28  2  0
 29 30  1  0
 30 36  2  0
 31 30  1  0
 32 31  1  1
 33 32  1  0
 34 32  1  0
 34 35  1  0
 36 37  1  0
 38 34  2  0
M  END
$$$$
