RWY.pdb
     RDKit          3D

 38 40  0  0  1  0  0  0  0  0999 V2000
   11.5322  -21.2609   15.0549 N   0  0  0  0  0  0  0  0  0  0  0  0
   12.5223  -20.2498   14.9743 C   0  0  0  0  0  0  0  0  0  0  0  0
   13.5565  -20.4326   14.2362 N   0  0  0  0  0  0  0  0  0  0  0  0
   12.4079  -19.0313   15.6902 N   0  0  0  0  0  0  0  0  0  0  0  0
   11.2897  -18.7178   16.5805 C   0  0  0  0  0  0  0  0  0  0  0  0
   11.5466  -17.3367   17.1268 C   0  0  0  0  0  0  0  0  0  0  0  0
   10.4009  -16.8993   17.9942 C   0  0  0  0  0  0  0  0  0  0  0  0
   10.3357  -17.6924   19.2419 C   0  0  2  0  0  0  0  0  0  0  0  0
    9.2892  -18.6609   19.2848 N   0  0  0  0  0  0  0  0  0  0  0  0
   10.3571  -16.8324   20.4729 C   0  0  0  0  0  0  0  0  0  0  0  0
   11.3160  -16.0262   20.6126 O   0  0  0  0  0  0  0  0  0  0  0  0
   14.3653  -19.7768   14.2655 N   0  0  0  0  0  0  0  0  0  0  0  0
    9.3882  -16.8598   21.4813 C   0  0  1  0  0  0  0  0  0  0  0  0
    9.4336  -16.0668   22.7061 C   0  0  0  0  0  0  0  0  0  0  0  0
    8.0249  -16.0764   23.2575 C   0  0  0  0  0  0  0  0  0  0  0  0
    7.3911  -14.7564   23.3060 C   0  0  0  0  0  0  0  0  0  0  0  0
    6.7736  -14.1084   22.2336 N   0  0  0  0  0  0  0  0  0  0  0  0
    6.3215  -12.9292   22.6889 C   0  0  0  0  0  0  0  0  0  0  0  0
    6.6312  -12.8119   24.0053 C   0  0  0  0  0  0  0  0  0  0  0  0
    6.4179  -11.8353   24.9597 C   0  0  0  0  0  0  0  0  0  0  0  0
    6.8644  -12.0151   26.2447 C   0  0  0  0  0  0  0  0  0  0  0  0
    7.5366  -13.1587   26.6412 C   0  0  0  0  0  0  0  0  0  0  0  0
    7.7501  -14.1275   25.7006 C   0  0  0  0  0  0  0  0  0  0  0  0
    7.3012  -13.9511   24.4009 C   0  0  0  0  0  0  0  0  0  0  0  0
   10.2833  -16.7447   23.7365 O   0  0  0  0  0  0  0  0  0  0  0  0
   11.5106  -16.5388   23.6916 O   0  0  0  0  0  0  0  0  0  0  0  0
   11.9508  -15.7098   31.9610 C   0  0  0  0  0  0  0  0  0  0  0  0
   11.5243  -15.8536   30.6477 C   0  0  0  0  0  0  0  0  0  0  0  0
   11.8889  -14.8736   29.7286 C   0  0  0  0  0  0  0  0  0  0  0  0
   11.4603  -15.0264   28.4300 C   0  0  0  0  0  0  0  0  0  0  0  0
   10.6888  -16.1105   28.0199 C   0  0  0  0  0  0  0  0  0  0  0  0
   10.2382  -16.2304   26.6214 C   0  0  1  0  0  0  0  0  0  0  0  0
   10.3074  -17.6021   26.0440 N   0  0  0  0  0  0  0  0  0  0  0  0
    9.7263  -17.5787   24.7149 C   0  0  0  0  0  0  0  0  0  0  0  0
    9.6294  -18.5976   26.9130 O   0  0  0  0  0  0  0  0  0  0  0  0
   10.3288  -19.3119   27.8861 C   0  0  0  0  0  0  0  0  0  0  0  0
   10.3301  -17.0800   28.9364 C   0  0  0  0  0  0  0  0  0  0  0  0
   10.7609  -16.9238   30.2324 O   0  0  0  0  0  0  0  0  0  0  0  0
  2  3  2  0
  2  1  1  0
  4  2  1  0
  5  4  1  0
  6  7  1  0
  6  5  1  0
  8 10  1  0
  8  7  1  0
  8  9  1  6
 10 12  1  0
 11 10  2  0
 12 13  1  0
 13 24  1  0
 13 14  1  1
 14 15  1  0
 15 16  2  0
 17 16  1  0
 18 17  1  0
 19 18  2  0
 20 19  1  0
 21 22  1  0
 21 20  2  0
 22 23  2  0
 23 18  1  0
 23 15  1  0
 24 25  2  0
 24 33  1  0
 27 26  1  0
 27 37  2  0
 28 27  1  0
 29 28  2  0
 29 30  1  0
 30 36  2  0
 31 30  1  0
 32 31  1  6
 33 32  1  0
 34 32  1  0
 34 35  1  0
 36 37  1  0
 38 34  2  0
M  END
$$$$
