RWY.pdb
     RDKit          3D

 38 40  0  0  1  0  0  0  0  0999 V2000
   10.7130  -16.8059   13.2563 N   0  0  0  0  0  0  0  0  0  0  0  0
   11.9399  -16.8891   13.9613 C   0  0  0  0  0  0  0  0  0  0  0  0
   13.0206  -17.1595   13.3234 N   0  0  0  0  0  0  0  0  0  0  0  0
   12.0138  -16.6829   15.3621 N   0  0  0  0  0  0  0  0  0  0  0  0
   11.0986  -15.8126   16.1013 C   0  0  0  0  0  0  0  0  0  0  0  0
    9.8779  -16.6384   16.4174 C   0  0  0  0  0  0  0  0  0  0  0  0
    9.6216  -16.6418   17.8975 C   0  0  0  0  0  0  0  0  0  0  0  0
    8.6477  -15.5947   18.2787 C   0  0  2  0  0  0  0  0  0  0  0  0
    8.5559  -14.4993   17.3694 N   0  0  0  0  0  0  0  0  0  0  0  0
    8.8220  -15.1350   19.6976 C   0  0  0  0  0  0  0  0  0  0  0  0
    9.4890  -14.0845   19.8995 O   0  0  0  0  0  0  0  0  0  0  0  0
   13.9307  -17.2617   13.8194 N   0  0  0  0  0  0  0  0  0  0  0  0
    8.2978  -15.7887   20.8174 C   0  0  1  0  0  0  0  0  0  0  0  0
    8.3914  -15.3010   22.1902 C   0  0  0  0  0  0  0  0  0  0  0  0
    7.0214  -15.5092   22.7974 C   0  0  0  0  0  0  0  0  0  0  0  0
    6.8978  -15.0304   24.1765 C   0  0  0  0  0  0  0  0  0  0  0  0
    6.6952  -15.8315   25.3027 N   0  0  0  0  0  0  0  0  0  0  0  0
    6.6389  -15.0145   26.3665 C   0  0  0  0  0  0  0  0  0  0  0  0
    6.7984  -13.7318   25.9517 C   0  0  0  0  0  0  0  0  0  0  0  0
    6.8268  -12.5096   26.5963 C   0  0  0  0  0  0  0  0  0  0  0  0
    7.0115  -11.3542   25.8796 C   0  0  0  0  0  0  0  0  0  0  0  0
    7.1749  -11.3544   24.5047 C   0  0  0  0  0  0  0  0  0  0  0  0
    7.1474  -12.5611   23.8628 C   0  0  0  0  0  0  0  0  0  0  0  0
    6.9612  -13.7316   24.5818 C   0  0  0  0  0  0  0  0  0  0  0  0
    9.3284  -16.1564   22.9862 O   0  0  0  0  0  0  0  0  0  0  0  0
    8.9499  -17.3083   23.2703 O   0  0  0  0  0  0  0  0  0  0  0  0
   10.5725  -15.8679   31.1835 C   0  0  0  0  0  0  0  0  0  0  0  0
   10.4018  -15.6897   29.8174 C   0  0  0  0  0  0  0  0  0  0  0  0
   10.0584  -16.7986   29.0490 C   0  0  0  0  0  0  0  0  0  0  0  0
    9.8921  -16.6102   27.6962 C   0  0  0  0  0  0  0  0  0  0  0  0
   10.0545  -15.3679   27.0887 C   0  0  0  0  0  0  0  0  0  0  0  0
    9.8804  -15.2106   25.6334 C   0  0  1  0  0  0  0  0  0  0  0  0
   10.9609  -15.8002   24.7939 N   0  0  0  0  0  0  0  0  0  0  0  0
   10.5822  -15.6860   23.3981 C   0  0  0  0  0  0  0  0  0  0  0  0
   11.2357  -17.2116   25.1658 O   0  0  0  0  0  0  0  0  0  0  0  0
   10.3374  -18.2341   24.8597 C   0  0  0  0  0  0  0  0  0  0  0  0
   10.3952  -14.2708   27.8563 C   0  0  0  0  0  0  0  0  0  0  0  0
   10.5598  -14.4634   29.2074 O   0  0  0  0  0  0  0  0  0  0  0  0
  2  3  2  0
  2  1  1  0
  4  2  1  0
  5  4  1  0
  6  7  1  0
  6  5  1  0
  8 10  1  0
  8  7  1  0
  8  9  1  6
 10 12  1  0
 11 10  2  0
 12 13  1  0
 13 24  1  0
 13 14  1  1
 14 15  1  0
 15 16  2  0
 17 16  1  0
 18 17  1  0
 19 18  2  0
 20 19  1  0
 21 22  1  0
 21 20  2  0
 22 23  2  0
 23 18  1  0
 23 15  1  0
 24 25  2  0
 24 33  1  0
 27 26  1  0
 27 37  2  0
 28 27  1  0
 29 28  2  0
 29 30  1  0
 30 36  2  0
 31 30  1  0
 32 31  1  6
 33 32  1  0
 34 32  1  0
 34 35  1  0
 36 37  1  0
 38 34  2  0
M  END
$$$$
