RWY.pdb
     RDKit          3D

 38 40  0  0  1  0  0  0  0  0999 V2000
    8.8631  -15.1903   14.5447 N   0  0  0  0  0  0  0  0  0  0  0  0
    8.1571  -14.6553   15.6513 C   0  0  0  0  0  0  0  0  0  0  0  0
    8.0912  -13.3828   15.8062 N   0  0  0  0  0  0  0  0  0  0  0  0
    7.5159  -15.4876   16.6034 N   0  0  0  0  0  0  0  0  0  0  0  0
    7.7656  -16.9248   16.7204 C   0  0  0  0  0  0  0  0  0  0  0  0
    8.0754  -17.1927   18.1709 C   0  0  0  0  0  0  0  0  0  0  0  0
    9.5569  -17.3453   18.3664 C   0  0  0  0  0  0  0  0  0  0  0  0
    9.8914  -17.5872   19.7876 C   0  0  2  0  0  0  0  0  0  0  0  0
    9.1696  -18.6532   20.4022 N   0  0  0  0  0  0  0  0  0  0  0  0
    9.8502  -16.3318   20.6107 C   0  0  0  0  0  0  0  0  0  0  0  0
   10.5826  -15.3693   20.2556 O   0  0  0  0  0  0  0  0  0  0  0  0
    7.5811  -12.9610   16.6104 N   0  0  0  0  0  0  0  0  0  0  0  0
    9.0566  -16.1502   21.7480 C   0  0  1  0  0  0  0  0  0  0  0  0
    9.0125  -14.9316   22.5508 C   0  0  0  0  0  0  0  0  0  0  0  0
    7.5610  -14.7396   22.9317 C   0  0  0  0  0  0  0  0  0  0  0  0
    7.2961  -13.5102   23.6833 C   0  0  0  0  0  0  0  0  0  0  0  0
    7.1521  -12.2339   23.1344 N   0  0  0  0  0  0  0  0  0  0  0  0
    6.9197  -11.3881   24.1507 C   0  0  0  0  0  0  0  0  0  0  0  0
    6.9123  -12.0840   25.3162 C   0  0  0  0  0  0  0  0  0  0  0  0
    6.7269  -11.7379   26.6413 C   0  0  0  0  0  0  0  0  0  0  0  0
    6.7788  -12.6978   27.6204 C   0  0  0  0  0  0  0  0  0  0  0  0
    7.0145  -14.0323   27.3365 C   0  0  0  0  0  0  0  0  0  0  0  0
    7.1985  -14.3795   26.0271 C   0  0  0  0  0  0  0  0  0  0  0  0
    7.1472  -13.4138   25.0338 C   0  0  0  0  0  0  0  0  0  0  0  0
    9.7531  -15.1266   23.8380 O   0  0  0  0  0  0  0  0  0  0  0  0
    9.6676  -14.2224   24.6899 O   0  0  0  0  0  0  0  0  0  0  0  0
   11.7515  -17.4866   31.6843 C   0  0  0  0  0  0  0  0  0  0  0  0
   11.3500  -17.1962   30.3875 C   0  0  0  0  0  0  0  0  0  0  0  0
   10.1120  -17.6702   29.9624 C   0  0  0  0  0  0  0  0  0  0  0  0
    9.7246  -17.3765   28.6752 C   0  0  0  0  0  0  0  0  0  0  0  0
   10.5199  -16.6346   27.8058 C   0  0  0  0  0  0  0  0  0  0  0  0
   10.0741  -16.3530   26.4292 C   0  0  1  0  0  0  0  0  0  0  0  0
   11.1281  -16.4629   25.3819 N   0  0  0  0  0  0  0  0  0  0  0  0
   10.5140  -16.2778   24.0806 C   0  0  0  0  0  0  0  0  0  0  0  0
   11.8463  -17.7605   25.4610 O   0  0  0  0  0  0  0  0  0  0  0  0
   13.0335  -17.8936   26.1815 C   0  0  0  0  0  0  0  0  0  0  0  0
   11.7476  -16.1667   28.2331 C   0  0  0  0  0  0  0  0  0  0  0  0
   12.1304  -16.4619   29.5200 O   0  0  0  0  0  0  0  0  0  0  0  0
  2  3  2  0
  2  1  1  0
  4  2  1  0
  5  4  1  0
  6  7  1  0
  6  5  1  0
  8 10  1  0
  8  7  1  0
  8  9  1  1
 10 12  1  0
 11 10  2  0
 12 13  1  0
 13 24  1  0
 13 14  1  1
 14 15  1  0
 15 16  2  0
 17 16  1  0
 18 17  1  0
 19 18  2  0
 20 19  1  0
 21 22  1  0
 21 20  2  0
 22 23  2  0
 23 18  1  0
 23 15  1  0
 24 25  2  0
 24 33  1  0
 27 26  1  0
 27 37  2  0
 28 27  1  0
 29 28  2  0
 29 30  1  0
 30 36  2  0
 31 30  1  0
 32 31  1  1
 33 32  1  0
 34 32  1  0
 34 35  1  0
 36 37  1  0
 38 34  2  0
M  END
$$$$
