FPF.pdb
     RDKit          3D

 30 32  0  0  1  0  0  0  0  0999 V2000
   24.6924  -17.9281  -15.5917 N   0  0  0  0  0  0  0  0  0  0  0  0
   25.8024  -18.1213  -14.7193 C   0  0  1  0  0  0  0  0  0  0  0  0
   26.3737  -16.8002  -14.2705 C   0  0  0  0  0  0  0  0  0  0  0  0
   27.2073  -16.1464  -15.3007 C   0  0  0  0  0  0  0  0  0  0  0  0
   28.3710  -16.7640  -15.7707 C   0  0  0  0  0  0  0  0  0  0  0  0
   29.1292  -16.1721  -16.7331 C   0  0  0  0  0  0  0  0  0  0  0  0
   28.7865  -14.9514  -17.2804 C   0  0  0  0  0  0  0  0  0  0  0  0
   27.6464  -14.3112  -16.8436 C   0  0  0  0  0  0  0  0  0  0  0  0
   26.8854  -14.9247  -15.8653 C   0  0  0  0  0  0  0  0  0  0  0  0
   25.5651  -18.9959  -13.5613 C   0  0  0  0  0  0  0  0  0  0  0  0
   24.4637  -18.8282  -12.9506 O   0  0  0  0  0  0  0  0  0  0  0  0
   26.4595  -19.9735  -13.1068 N   0  0  0  0  0  0  0  0  0  0  0  0
   27.6752  -20.4597  -13.7125 C   0  0  0  0  0  0  0  0  0  0  0  0
   27.7808  -21.8868  -13.1508 C   0  0  0  0  0  0  0  0  0  0  0  0
   27.3538  -21.7065  -11.7390 C   0  0  0  0  0  0  0  0  0  0  0  0
   26.2360  -20.6930  -11.8413 C   0  0  1  0  0  0  0  0  0  0  0  0
   26.3748  -19.7610  -10.6723 C   0  0  0  0  0  0  0  0  0  0  0  0
   27.0611  -18.7128  -10.8150 O   0  0  0  0  0  0  0  0  0  0  0  0
   25.7685  -20.0097   -9.4206 N   0  0  0  0  0  0  0  0  0  0  0  0
   26.5621  -20.4310   -8.2513 C   0  0  1  0  0  0  0  0  0  0  0  0
   26.8750  -19.2111   -7.4621 C   0  0  0  0  0  0  0  0  0  0  0  0
   27.6179  -19.4412   -6.2068 C   0  0  0  0  0  0  0  0  0  0  0  0
   28.9733  -19.3944   -6.1008 C   0  0  0  0  0  0  0  0  0  0  0  0
   29.5630  -19.6197   -4.8769 C   0  0  0  0  0  0  0  0  0  0  0  0
   28.8027  -19.8910   -3.7629 C   0  0  0  0  0  0  0  0  0  0  0  0
   27.4334  -19.9419   -3.8539 C   0  0  0  0  0  0  0  0  0  0  0  0
   26.8595  -19.7133   -5.0890 C   0  0  0  0  0  0  0  0  0  0  0  0
   25.7198  -21.3878   -7.5053 C   0  0  0  0  0  0  0  0  0  0  0  0
   24.3682  -21.4525   -7.7978 O   0  0  0  0  0  0  0  0  0  0  0  0
   26.1684  -22.1470   -6.6165 O   0  0  0  0  0  0  0  0  0  0  0  0
  2  1  1  1
  2  3  1  0
  3  4  1  0
  4  9  1  0
  5  4  2  0
  5  6  1  0
  6  7  2  0
  7  8  1  0
  9  8  2  0
 10 12  1  0
 10  2  1  0
 11 10  2  0
 12 16  1  0
 13 12  1  0
 13 14  1  0
 14 15  1  0
 15 16  1  0
 16 17  1  1
 17 18  2  0
 19 17  1  0
 20 28  1  0
 20 19  1  0
 20 21  1  1
 22 23  2  0
 22 21  1  0
 24 23  1  0
 25 24  2  0
 26 25  1  0
 26 27  2  0
 27 22  1  0
 28 29  1  0
 30 28  2  0
M  END
$$$$
