FPF.pdb
     RDKit          3D

 30 32  0  0  1  0  0  0  0  0999 V2000
   23.5373  -21.8762  -14.3668 N   0  0  0  0  0  0  0  0  0  0  0  0
   24.2429  -20.8180  -13.7242 C   0  0  1  0  0  0  0  0  0  0  0  0
   23.2925  -19.7592  -13.2254 C   0  0  0  0  0  0  0  0  0  0  0  0
   22.6436  -18.9996  -14.3142 C   0  0  0  0  0  0  0  0  0  0  0  0
   21.3159  -19.2598  -14.6693 C   0  0  0  0  0  0  0  0  0  0  0  0
   20.7112  -18.5480  -15.6587 C   0  0  0  0  0  0  0  0  0  0  0  0
   21.3740  -17.5504  -16.3462 C   0  0  0  0  0  0  0  0  0  0  0  0
   22.6837  -17.2640  -16.0251 C   0  0  0  0  0  0  0  0  0  0  0  0
   23.2854  -17.9953  -15.0173 C   0  0  0  0  0  0  0  0  0  0  0  0
   25.1688  -21.2192  -12.6548 C   0  0  0  0  0  0  0  0  0  0  0  0
   24.7503  -22.1194  -11.8617 O   0  0  0  0  0  0  0  0  0  0  0  0
   26.4477  -20.6797  -12.4664 N   0  0  0  0  0  0  0  0  0  0  0  0
   27.1742  -19.7329  -13.2769 C   0  0  0  0  0  0  0  0  0  0  0  0
   28.6388  -20.0798  -12.9639 C   0  0  0  0  0  0  0  0  0  0  0  0
   28.5992  -20.3418  -11.5018 C   0  0  0  0  0  0  0  0  0  0  0  0
   27.2816  -21.0597  -11.3134 C   0  0  1  0  0  0  0  0  0  0  0  0
   26.6791  -20.5515  -10.0355 C   0  0  0  0  0  0  0  0  0  0  0  0
   25.8687  -19.5871  -10.0926 O   0  0  0  0  0  0  0  0  0  0  0  0
   26.9820  -21.1091   -8.7731 N   0  0  0  0  0  0  0  0  0  0  0  0
   26.4577  -20.5213   -7.5264 C   0  0  1  0  0  0  0  0  0  0  0  0
   26.8534  -21.4187   -6.4097 C   0  0  0  0  0  0  0  0  0  0  0  0
   28.1146  -21.0646   -5.7281 C   0  0  0  0  0  0  0  0  0  0  0  0
   29.3518  -21.3858   -6.1936 C   0  0  0  0  0  0  0  0  0  0  0  0
   30.4634  -20.9997   -5.4785 C   0  0  0  0  0  0  0  0  0  0  0  0
   30.3408  -20.2957   -4.3028 C   0  0  0  0  0  0  0  0  0  0  0  0
   29.0987  -19.9642   -3.8199 C   0  0  0  0  0  0  0  0  0  0  0  0
   27.9954  -20.3596   -4.5502 C   0  0  0  0  0  0  0  0  0  0  0  0
   27.0648  -19.1793   -7.4171 C   0  0  0  0  0  0  0  0  0  0  0  0
   26.4314  -18.2242   -6.6404 O   0  0  0  0  0  0  0  0  0  0  0  0
   28.1285  -18.8597   -7.9948 O   0  0  0  0  0  0  0  0  0  0  0  0
  2  1  1  1
  2  3  1  0
  3  4  1  0
  4  9  1  0
  5  4  2  0
  5  6  1  0
  6  7  2  0
  7  8  1  0
  9  8  2  0
 10 12  1  0
 10  2  1  0
 11 10  2  0
 12 16  1  0
 13 12  1  0
 13 14  1  0
 14 15  1  0
 15 16  1  0
 16 17  1  1
 17 18  2  0
 19 17  1  0
 20 28  1  0
 20 19  1  0
 20 21  1  1
 22 23  2  0
 22 21  1  0
 24 23  1  0
 25 24  2  0
 26 25  1  0
 26 27  2  0
 27 22  1  0
 28 29  1  0
 30 28  2  0
M  END
$$$$
