FPF.pdb
     RDKit          3D

 30 32  0  0  1  0  0  0  0  0999 V2000
   25.6553  -19.2395   -7.6261 N   0  0  0  0  0  0  0  0  0  0  0  0
   26.7378  -19.7167   -8.4206 C   0  0  1  0  0  0  0  0  0  0  0  0
   27.4452  -20.8608   -7.7396 C   0  0  0  0  0  0  0  0  0  0  0  0
   28.1324  -20.4615   -6.4939 C   0  0  0  0  0  0  0  0  0  0  0  0
   27.3972  -20.1360   -5.3493 C   0  0  0  0  0  0  0  0  0  0  0  0
   28.0292  -19.7869   -4.1960 C   0  0  0  0  0  0  0  0  0  0  0  0
   29.4065  -19.7396   -4.1071 C   0  0  0  0  0  0  0  0  0  0  0  0
   30.1662  -20.0539   -5.2137 C   0  0  0  0  0  0  0  0  0  0  0  0
   29.5104  -20.4071   -6.3789 C   0  0  0  0  0  0  0  0  0  0  0  0
   26.4081  -20.0725   -9.8087 C   0  0  0  0  0  0  0  0  0  0  0  0
   25.1935  -19.9232  -10.1506 O   0  0  0  0  0  0  0  0  0  0  0  0
   27.3305  -20.5537  -10.7466 N   0  0  0  0  0  0  0  0  0  0  0  0
   28.5907  -21.2237  -10.5361 C   0  0  0  0  0  0  0  0  0  0  0  0
   29.3764  -20.8649  -11.8078 C   0  0  0  0  0  0  0  0  0  0  0  0
   28.3374  -20.9693  -12.8650 C   0  0  0  0  0  0  0  0  0  0  0  0
   27.1027  -20.4097  -12.1946 C   0  0  1  0  0  0  0  0  0  0  0  0
   25.9401  -21.2528  -12.6327 C   0  0  0  0  0  0  0  0  0  0  0  0
   25.8631  -22.4391  -12.2120 O   0  0  0  0  0  0  0  0  0  0  0  0
   24.9299  -20.7721  -13.4956 N   0  0  0  0  0  0  0  0  0  0  0  0
   23.7427  -21.5851  -13.8186 C   0  0  1  0  0  0  0  0  0  0  0  0
   22.5949  -21.0171  -13.0645 C   0  0  0  0  0  0  0  0  0  0  0  0
   21.2716  -21.5743  -13.4093 C   0  0  0  0  0  0  0  0  0  0  0  0
   20.7799  -22.7412  -12.9119 C   0  0  0  0  0  0  0  0  0  0  0  0
   19.5279  -23.1653  -13.2978 C   0  0  0  0  0  0  0  0  0  0  0  0
   18.7693  -22.4275  -14.1771 C   0  0  0  0  0  0  0  0  0  0  0  0
   19.2518  -21.2477  -14.6879 C   0  0  0  0  0  0  0  0  0  0  0  0
   20.5091  -20.8380  -14.2897 C   0  0  0  0  0  0  0  0  0  0  0  0
   23.5632  -21.4883  -15.2814 C   0  0  0  0  0  0  0  0  0  0  0  0
   23.0366  -22.5740  -15.9600 O   0  0  0  0  0  0  0  0  0  0  0  0
   23.8653  -20.4689  -15.9425 O   0  0  0  0  0  0  0  0  0  0  0  0
  2  1  1  1
  2  3  1  0
  3  4  1  0
  4  9  1  0
  5  4  2  0
  5  6  1  0
  6  7  2  0
  7  8  1  0
  9  8  2  0
 10 12  1  0
 10  2  1  0
 11 10  2  0
 12 16  1  0
 13 12  1  0
 13 14  1  0
 14 15  1  0
 15 16  1  0
 16 17  1  6
 17 18  2  0
 19 17  1  0
 20 28  1  0
 20 19  1  0
 20 21  1  1
 22 23  2  0
 22 21  1  0
 24 23  1  0
 25 24  2  0
 26 25  1  0
 26 27  2  0
 27 22  1  0
 28 29  1  0
 30 28  2  0
M  END
$$$$
