FPF.pdb
     RDKit          3D

 30 32  0  0  1  0  0  0  0  0999 V2000
   21.9848  -20.4218  -14.9509 N   0  0  0  0  0  0  0  0  0  0  0  0
   22.9771  -19.4020  -14.8726 C   0  0  1  0  0  0  0  0  0  0  0  0
   22.5959  -18.3534  -13.8586 C   0  0  0  0  0  0  0  0  0  0  0  0
   22.2339  -17.0574  -14.4692 C   0  0  0  0  0  0  0  0  0  0  0  0
   20.8950  -16.6627  -14.5582 C   0  0  0  0  0  0  0  0  0  0  0  0
   20.5617  -15.4611  -15.1028 C   0  0  0  0  0  0  0  0  0  0  0  0
   21.5191  -14.5905  -15.5849 C   0  0  0  0  0  0  0  0  0  0  0  0
   22.8499  -14.9434  -15.5147 C   0  0  0  0  0  0  0  0  0  0  0  0
   23.1739  -16.1674  -14.9585 C   0  0  0  0  0  0  0  0  0  0  0  0
   24.3542  -19.8618  -14.6402 C   0  0  0  0  0  0  0  0  0  0  0  0
   24.4831  -20.8956  -13.9128 O   0  0  0  0  0  0  0  0  0  0  0  0
   25.4979  -19.2415  -15.1592 N   0  0  0  0  0  0  0  0  0  0  0  0
   25.6173  -18.0173  -15.9132 C   0  0  0  0  0  0  0  0  0  0  0  0
   26.8996  -18.2507  -16.7284 C   0  0  0  0  0  0  0  0  0  0  0  0
   27.7852  -18.9251  -15.7440 C   0  0  0  0  0  0  0  0  0  0  0  0
   26.8377  -19.8281  -14.9863 C   0  0  1  0  0  0  0  0  0  0  0  0
   27.2487  -19.7898  -13.5427 C   0  0  0  0  0  0  0  0  0  0  0  0
   27.0153  -18.7447  -12.8768 O   0  0  0  0  0  0  0  0  0  0  0  0
   27.8851  -20.8755  -12.9004 N   0  0  0  0  0  0  0  0  0  0  0  0
   28.6260  -20.6957  -11.6381 C   0  0  1  0  0  0  0  0  0  0  0  0
   28.0584  -21.6483  -10.6485 C   0  0  0  0  0  0  0  0  0  0  0  0
   26.8403  -21.1883   -9.9519 C   0  0  0  0  0  0  0  0  0  0  0  0
   25.5735  -21.4634  -10.3642 C   0  0  0  0  0  0  0  0  0  0  0  0
   24.5075  -20.9876   -9.6338 C   0  0  0  0  0  0  0  0  0  0  0  0
   24.7051  -20.2397   -8.4961 C   0  0  0  0  0  0  0  0  0  0  0  0
   25.9779  -19.9534   -8.0673 C   0  0  0  0  0  0  0  0  0  0  0  0
   27.0346  -20.4388   -8.8121 C   0  0  0  0  0  0  0  0  0  0  0  0
   30.0422  -20.9780  -11.9484 C   0  0  0  0  0  0  0  0  0  0  0  0
   31.0062  -20.6529  -11.0095 O   0  0  0  0  0  0  0  0  0  0  0  0
   30.4171  -21.4986  -13.0235 O   0  0  0  0  0  0  0  0  0  0  0  0
  2  1  1  1
  2  3  1  0
  3  4  1  0
  4  9  1  0
  5  4  2  0
  5  6  1  0
  6  7  2  0
  7  8  1  0
  9  8  2  0
 10 12  1  0
 10  2  1  0
 11 10  2  0
 12 16  1  0
 13 12  1  0
 13 14  1  0
 14 15  1  0
 15 16  1  0
 16 17  1  1
 17 18  2  0
 19 17  1  0
 20 28  1  0
 20 19  1  0
 20 21  1  1
 22 23  2  0
 22 21  1  0
 24 23  1  0
 25 24  2  0
 26 25  1  0
 26 27  2  0
 27 22  1  0
 28 29  1  0
 30 28  2  0
M  END
$$$$
