FPF.pdb
     RDKit          3D

 30 32  0  0  1  0  0  0  0  0999 V2000
   25.0604  -19.6761   -8.4758 N   0  0  0  0  0  0  0  0  0  0  0  0
   26.2435  -19.9049   -9.2366 C   0  0  1  0  0  0  0  0  0  0  0  0
   27.1122  -20.9503   -8.5842 C   0  0  0  0  0  0  0  0  0  0  0  0
   27.6663  -20.5181   -7.2843 C   0  0  0  0  0  0  0  0  0  0  0  0
   28.9352  -19.9339   -7.2113 C   0  0  0  0  0  0  0  0  0  0  0  0
   29.4387  -19.5179   -6.0177 C   0  0  0  0  0  0  0  0  0  0  0  0
   28.7274  -19.6528   -4.8417 C   0  0  0  0  0  0  0  0  0  0  0  0
   27.4729  -20.2234   -4.8725 C   0  0  0  0  0  0  0  0  0  0  0  0
   26.9738  -20.6413   -6.0926 C   0  0  0  0  0  0  0  0  0  0  0  0
   26.0421  -20.2217  -10.6583 C   0  0  0  0  0  0  0  0  0  0  0  0
   24.8832  -20.6307  -10.9811 O   0  0  0  0  0  0  0  0  0  0  0  0
   27.0273  -20.1024  -11.6468 N   0  0  0  0  0  0  0  0  0  0  0  0
   28.4433  -19.8633  -11.5088 C   0  0  0  0  0  0  0  0  0  0  0  0
   28.7975  -19.1775  -12.8383 C   0  0  0  0  0  0  0  0  0  0  0  0
   27.9908  -19.9482  -13.8197 C   0  0  0  0  0  0  0  0  0  0  0  0
   26.6986  -20.2088  -13.0785 C   0  0  1  0  0  0  0  0  0  0  0  0
   26.2668  -21.6060  -13.4188 C   0  0  0  0  0  0  0  0  0  0  0  0
   26.9538  -22.5714  -12.9874 O   0  0  0  0  0  0  0  0  0  0  0  0
   25.1235  -21.8832  -14.2013 N   0  0  0  0  0  0  0  0  0  0  0  0
   24.7022  -23.2677  -14.4846 C   0  0  1  0  0  0  0  0  0  0  0  0
   23.5610  -23.5793  -13.5850 C   0  0  0  0  0  0  0  0  0  0  0  0
   22.7947  -24.7935  -13.9300 C   0  0  0  0  0  0  0  0  0  0  0  0
   23.2199  -26.0620  -13.6836 C   0  0  0  0  0  0  0  0  0  0  0  0
   22.4203  -27.1239  -14.0430 C   0  0  0  0  0  0  0  0  0  0  0  0
   21.2007  -26.9206  -14.6465 C   0  0  0  0  0  0  0  0  0  0  0  0
   20.7578  -25.6461  -14.9020 C   0  0  0  0  0  0  0  0  0  0  0  0
   21.5728  -24.5936  -14.5346 C   0  0  0  0  0  0  0  0  0  0  0  0
   24.3233  -23.2986  -15.9119 C   0  0  0  0  0  0  0  0  0  0  0  0
   24.4820  -24.4796  -16.6165 O   0  0  0  0  0  0  0  0  0  0  0  0
   23.8641  -22.3053  -16.5202 O   0  0  0  0  0  0  0  0  0  0  0  0
  2  1  1  1
  2  3  1  0
  3  4  1  0
  4  9  1  0
  5  4  2  0
  5  6  1  0
  6  7  2  0
  7  8  1  0
  9  8  2  0
 10 12  1  0
 10  2  1  0
 11 10  2  0
 12 16  1  0
 13 12  1  0
 13 14  1  0
 14 15  1  0
 15 16  1  0
 16 17  1  1
 17 18  2  0
 19 17  1  0
 20 28  1  0
 20 19  1  0
 20 21  1  1
 22 23  2  0
 22 21  1  0
 24 23  1  0
 25 24  2  0
 26 25  1  0
 26 27  2  0
 27 22  1  0
 28 29  1  0
 30 28  2  0
M  END
$$$$
