FPF.pdb
     RDKit          3D

 30 32  0  0  1  0  0  0  0  0999 V2000
   23.8932  -18.1399  -16.8423 N   0  0  0  0  0  0  0  0  0  0  0  0
   24.9890  -17.8595  -15.9755 C   0  0  1  0  0  0  0  0  0  0  0  0
   24.8281  -16.5117  -15.3193 C   0  0  0  0  0  0  0  0  0  0  0  0
   25.0452  -15.3826  -16.2474 C   0  0  0  0  0  0  0  0  0  0  0  0
   23.9768  -14.5700  -16.6406 C   0  0  0  0  0  0  0  0  0  0  0  0
   24.1786  -13.5182  -17.4800 C   0  0  0  0  0  0  0  0  0  0  0  0
   25.4315  -13.2118  -17.9735 C   0  0  0  0  0  0  0  0  0  0  0  0
   26.5100  -13.9890  -17.6088 C   0  0  0  0  0  0  0  0  0  0  0  0
   26.2900  -15.0544  -16.7549 C   0  0  0  0  0  0  0  0  0  0  0  0
   25.2902  -18.8867  -14.9675 C   0  0  0  0  0  0  0  0  0  0  0  0
   24.2938  -19.3610  -14.3377 O   0  0  0  0  0  0  0  0  0  0  0  0
   26.5760  -19.3566  -14.6708 N   0  0  0  0  0  0  0  0  0  0  0  0
   27.8395  -19.0258  -15.2836 C   0  0  0  0  0  0  0  0  0  0  0  0
   28.6756  -20.2904  -15.0291 C   0  0  0  0  0  0  0  0  0  0  0  0
   28.2869  -20.6562  -13.6423 C   0  0  0  0  0  0  0  0  0  0  0  0
   26.8077  -20.3438  -13.6027 C   0  0  1  0  0  0  0  0  0  0  0  0
   26.5177  -19.7439  -12.2572 C   0  0  0  0  0  0  0  0  0  0  0  0
   26.7366  -18.5139  -12.0854 O   0  0  0  0  0  0  0  0  0  0  0  0
   26.0097  -20.4997  -11.1770 N   0  0  0  0  0  0  0  0  0  0  0  0
   25.9285  -19.9383   -9.8158 C   0  0  1  0  0  0  0  0  0  0  0  0
   24.6006  -19.2845   -9.6817 C   0  0  0  0  0  0  0  0  0  0  0  0
   23.4357  -20.1600   -9.9210 C   0  0  0  0  0  0  0  0  0  0  0  0
   22.9143  -20.4202  -11.1502 C   0  0  0  0  0  0  0  0  0  0  0  0
   21.8270  -21.2582  -11.2588 C   0  0  0  0  0  0  0  0  0  0  0  0
   21.2619  -21.8343  -10.1445 C   0  0  0  0  0  0  0  0  0  0  0  0
   21.7768  -21.5812   -8.8968 C   0  0  0  0  0  0  0  0  0  0  0  0
   22.8672  -20.7386   -8.8071 C   0  0  0  0  0  0  0  0  0  0  0  0
   26.0954  -21.0772   -8.8902 C   0  0  0  0  0  0  0  0  0  0  0  0
   26.2094  -20.8211   -7.5345 O   0  0  0  0  0  0  0  0  0  0  0  0
   26.1399  -22.2688   -9.2717 O   0  0  0  0  0  0  0  0  0  0  0  0
  2  1  1  1
  2  3  1  0
  3  4  1  0
  4  9  1  0
  5  4  2  0
  5  6  1  0
  6  7  2  0
  7  8  1  0
  9  8  2  0
 10 12  1  0
 10  2  1  0
 11 10  2  0
 12 16  1  0
 13 12  1  0
 13 14  1  0
 14 15  1  0
 15 16  1  0
 16 17  1  1
 17 18  2  0
 19 17  1  0
 20 28  1  0
 20 19  1  0
 20 21  1  1
 22 23  2  0
 22 21  1  0
 24 23  1  0
 25 24  2  0
 26 25  1  0
 26 27  2  0
 27 22  1  0
 28 29  1  0
 30 28  2  0
M  END
$$$$
