FPF.pdb
     RDKit          3D

 30 32  0  0  1  0  0  0  0  0999 V2000
   24.0089  -20.6277  -15.5394 N   0  0  0  0  0  0  0  0  0  0  0  0
   24.8086  -19.7928  -14.7063 C   0  0  1  0  0  0  0  0  0  0  0  0
   24.0406  -18.5717  -14.2679 C   0  0  0  0  0  0  0  0  0  0  0  0
   23.8150  -17.6027  -15.3604 C   0  0  0  0  0  0  0  0  0  0  0  0
   24.8562  -16.7849  -15.8116 C   0  0  0  0  0  0  0  0  0  0  0  0
   24.6549  -15.9058  -16.8304 C   0  0  0  0  0  0  0  0  0  0  0  0
   23.4292  -15.7847  -17.4550 C   0  0  0  0  0  0  0  0  0  0  0  0
   22.3781  -16.5738  -17.0391 C   0  0  0  0  0  0  0  0  0  0  0  0
   22.5973  -17.4629  -16.0028 C   0  0  0  0  0  0  0  0  0  0  0  0
   25.4313  -20.4490  -13.5471 C   0  0  0  0  0  0  0  0  0  0  0  0
   24.6590  -21.1462  -12.8179 O   0  0  0  0  0  0  0  0  0  0  0  0
   26.7876  -20.3504  -13.2113 N   0  0  0  0  0  0  0  0  0  0  0  0
   27.8354  -19.5803  -13.8361 C   0  0  0  0  0  0  0  0  0  0  0  0
   29.0958  -20.3907  -13.4926 C   0  0  0  0  0  0  0  0  0  0  0  0
   28.8392  -20.7997  -12.0873 C   0  0  0  0  0  0  0  0  0  0  0  0
   27.3570  -21.0999  -12.0785 C   0  0  1  0  0  0  0  0  0  0  0  0
   26.8092  -20.5878  -10.7777 C   0  0  0  0  0  0  0  0  0  0  0  0
   26.1998  -19.4838  -10.7728 O   0  0  0  0  0  0  0  0  0  0  0  0
   26.9477  -21.2916   -9.5603 N   0  0  0  0  0  0  0  0  0  0  0  0
   26.5197  -20.7024   -8.2780 C   0  0  1  0  0  0  0  0  0  0  0  0
   26.2004  -21.8241   -7.3567 C   0  0  0  0  0  0  0  0  0  0  0  0
   26.0007  -21.4464   -5.9432 C   0  0  0  0  0  0  0  0  0  0  0  0
   24.7831  -21.2551   -5.3674 C   0  0  0  0  0  0  0  0  0  0  0  0
   24.7126  -20.9093   -4.0363 C   0  0  0  0  0  0  0  0  0  0  0  0
   25.8531  -20.7547   -3.2826 C   0  0  0  0  0  0  0  0  0  0  0  0
   27.0895  -20.9443   -3.8496 C   0  0  0  0  0  0  0  0  0  0  0  0
   27.1409  -21.2907   -5.1854 C   0  0  0  0  0  0  0  0  0  0  0  0
   27.6534  -19.8839   -7.8024 C   0  0  0  0  0  0  0  0  0  0  0  0
   28.9421  -20.3218   -8.0554 O   0  0  0  0  0  0  0  0  0  0  0  0
   27.5073  -18.8085   -7.1781 O   0  0  0  0  0  0  0  0  0  0  0  0
  2  1  1  1
  2  3  1  0
  3  4  1  0
  4  9  1  0
  5  4  2  0
  5  6  1  0
  6  7  2  0
  7  8  1  0
  9  8  2  0
 10 12  1  0
 10  2  1  0
 11 10  2  0
 12 16  1  0
 13 12  1  0
 13 14  1  0
 14 15  1  0
 15 16  1  0
 16 17  1  1
 17 18  2  0
 19 17  1  0
 20 28  1  0
 20 19  1  0
 20 21  1  1
 22 23  2  0
 22 21  1  0
 24 23  1  0
 25 24  2  0
 26 25  1  0
 26 27  2  0
 27 22  1  0
 28 29  1  0
 30 28  2  0
M  END
$$$$
