FPF.pdb
     RDKit          3D

 30 32  0  0  1  0  0  0  0  0999 V2000
   24.7304  -19.0789  -17.3978 N   0  0  0  0  0  0  0  0  0  0  0  0
   25.6878  -18.6347  -16.4403 C   0  0  1  0  0  0  0  0  0  0  0  0
   25.3729  -17.2377  -15.9689 C   0  0  0  0  0  0  0  0  0  0  0  0
   25.5893  -16.2098  -17.0082 C   0  0  0  0  0  0  0  0  0  0  0  0
   26.8835  -15.8846  -17.4278 C   0  0  0  0  0  0  0  0  0  0  0  0
   27.0832  -14.9522  -18.3985 C   0  0  0  0  0  0  0  0  0  0  0  0
   26.0300  -14.2952  -19.0035 C   0  0  0  0  0  0  0  0  0  0  0  0
   24.7394  -14.5885  -18.6176 C   0  0  0  0  0  0  0  0  0  0  0  0
   24.5515  -15.5383  -17.6302 C   0  0  0  0  0  0  0  0  0  0  0  0
   25.9082  -19.5250  -15.2911 C   0  0  0  0  0  0  0  0  0  0  0  0
   24.8693  -20.0564  -14.7884 O   0  0  0  0  0  0  0  0  0  0  0  0
   27.1619  -19.8106  -14.7354 N   0  0  0  0  0  0  0  0  0  0  0  0
   28.4731  -19.3803  -15.1560 C   0  0  0  0  0  0  0  0  0  0  0  0
   29.3777  -20.5099  -14.6374 C   0  0  0  0  0  0  0  0  0  0  0  0
   28.7869  -20.8063  -13.3066 C   0  0  0  0  0  0  0  0  0  0  0  0
   27.3002  -20.6727  -13.5493 C   0  0  1  0  0  0  0  0  0  0  0  0
   26.7123  -20.0051  -12.3398 C   0  0  0  0  0  0  0  0  0  0  0  0
   26.7912  -18.7501  -12.2455 O   0  0  0  0  0  0  0  0  0  0  0  0
   26.0744  -20.7243  -11.3043 N   0  0  0  0  0  0  0  0  0  0  0  0
   25.6129  -20.0553  -10.0739 C   0  0  1  0  0  0  0  0  0  0  0  0
   24.4698  -19.1806  -10.4441 C   0  0  0  0  0  0  0  0  0  0  0  0
   23.3846  -19.8402  -11.1975 C   0  0  0  0  0  0  0  0  0  0  0  0
   22.8315  -21.0347  -10.8540 C   0  0  0  0  0  0  0  0  0  0  0  0
   21.8183  -21.5567  -11.6268 C   0  0  0  0  0  0  0  0  0  0  0  0
   21.3588  -20.8891  -12.7386 C   0  0  0  0  0  0  0  0  0  0  0  0
   21.9071  -19.6825  -13.0983 C   0  0  0  0  0  0  0  0  0  0  0  0
   22.9220  -19.1744  -12.3117 C   0  0  0  0  0  0  0  0  0  0  0  0
   25.2233  -21.1322   -9.1412 C   0  0  0  0  0  0  0  0  0  0  0  0
   24.8542  -20.7931   -7.8508 O   0  0  0  0  0  0  0  0  0  0  0  0
   25.2106  -22.3429   -9.4599 O   0  0  0  0  0  0  0  0  0  0  0  0
  2  1  1  1
  2  3  1  0
  3  4  1  0
  4  9  1  0
  5  4  2  0
  5  6  1  0
  6  7  2  0
  7  8  1  0
  9  8  2  0
 10 12  1  0
 10  2  1  0
 11 10  2  0
 12 16  1  0
 13 12  1  0
 13 14  1  0
 14 15  1  0
 15 16  1  0
 16 17  1  1
 17 18  2  0
 19 17  1  0
 20 28  1  0
 20 19  1  0
 20 21  1  6
 22 23  2  0
 22 21  1  0
 24 23  1  0
 25 24  2  0
 26 25  1  0
 26 27  2  0
 27 22  1  0
 28 29  1  0
 30 28  2  0
M  END
$$$$
