FPF.pdb
     RDKit          3D

 30 32  0  0  1  0  0  0  0  0999 V2000
   24.8024  -19.6116  -15.2185 N   0  0  0  0  0  0  0  0  0  0  0  0
   24.1424  -19.6742  -13.9571 C   0  0  1  0  0  0  0  0  0  0  0  0
   22.7624  -20.2648  -14.0976 C   0  0  0  0  0  0  0  0  0  0  0  0
   21.8948  -19.5042  -15.0208 C   0  0  0  0  0  0  0  0  0  0  0  0
   21.2413  -18.3451  -14.5896 C   0  0  0  0  0  0  0  0  0  0  0  0
   20.4575  -17.6331  -15.4441 C   0  0  0  0  0  0  0  0  0  0  0  0
   20.2759  -18.0195  -16.7575 C   0  0  0  0  0  0  0  0  0  0  0  0
   20.9037  -19.1562  -17.2203 C   0  0  0  0  0  0  0  0  0  0  0  0
   21.6973  -19.8697  -16.3408 C   0  0  0  0  0  0  0  0  0  0  0  0
   24.8801  -20.3483  -12.8785 C   0  0  0  0  0  0  0  0  0  0  0  0
   24.1754  -20.8473  -11.9464 O   0  0  0  0  0  0  0  0  0  0  0  0
   26.2747  -20.4664  -12.8223 N   0  0  0  0  0  0  0  0  0  0  0  0
   27.2701  -20.0718  -13.7890 C   0  0  0  0  0  0  0  0  0  0  0  0
   28.4274  -21.0389  -13.4909 C   0  0  0  0  0  0  0  0  0  0  0  0
   28.4227  -21.0940  -12.0060 C   0  0  0  0  0  0  0  0  0  0  0  0
   26.9501  -21.0732  -11.6626 C   0  0  1  0  0  0  0  0  0  0  0  0
   26.7911  -20.2074  -10.4463 C   0  0  0  0  0  0  0  0  0  0  0  0
   27.2904  -19.0495  -10.4608 O   0  0  0  0  0  0  0  0  0  0  0  0
   26.1054  -20.6359   -9.2876 N   0  0  0  0  0  0  0  0  0  0  0  0
   26.7980  -20.7841   -7.9942 C   0  0  1  0  0  0  0  0  0  0  0  0
   26.8706  -19.4371   -7.3705 C   0  0  0  0  0  0  0  0  0  0  0  0
   27.5662  -19.3774   -6.0693 C   0  0  0  0  0  0  0  0  0  0  0  0
   27.0626  -19.8785   -4.9092 C   0  0  0  0  0  0  0  0  0  0  0  0
   27.8008  -19.7730   -3.7515 C   0  0  0  0  0  0  0  0  0  0  0  0
   29.0371  -19.1694   -3.7515 C   0  0  0  0  0  0  0  0  0  0  0  0
   29.5589  -18.6586   -4.9146 C   0  0  0  0  0  0  0  0  0  0  0  0
   28.8047  -18.7734   -6.0657 C   0  0  0  0  0  0  0  0  0  0  0  0
   25.9902  -21.7329   -7.2011 C   0  0  0  0  0  0  0  0  0  0  0  0
   26.6025  -22.4315   -6.1748 O   0  0  0  0  0  0  0  0  0  0  0  0
   24.7733  -21.9389   -7.4117 O   0  0  0  0  0  0  0  0  0  0  0  0
  2  1  1  6
  2  3  1  0
  3  4  1  0
  4  9  1  0
  5  4  2  0
  5  6  1  0
  6  7  2  0
  7  8  1  0
  9  8  2  0
 10 12  1  0
 10  2  1  0
 11 10  2  0
 12 16  1  0
 13 12  1  0
 13 14  1  0
 14 15  1  0
 15 16  1  0
 16 17  1  1
 17 18  2  0
 19 17  1  0
 20 28  1  0
 20 19  1  0
 20 21  1  1
 22 23  2  0
 22 21  1  0
 24 23  1  0
 25 24  2  0
 26 25  1  0
 26 27  2  0
 27 22  1  0
 28 29  1  0
 30 28  2  0
M  END
$$$$
