FPF.pdb
     RDKit          3D

 30 32  0  0  1  0  0  0  0  0999 V2000
   24.2461  -10.3456  -21.2516 N   0  0  0  0  0  0  0  0  0  0  0  0
   22.8874   -9.9895  -21.0108 C   0  0  1  0  0  0  0  0  0  0  0  0
   22.1236  -11.1440  -20.4135 C   0  0  0  0  0  0  0  0  0  0  0  0
   21.8784  -12.2393  -21.3746 C   0  0  0  0  0  0  0  0  0  0  0  0
   22.0985  -12.0473  -22.7426 C   0  0  0  0  0  0  0  0  0  0  0  0
   21.8916  -13.0609  -23.6265 C   0  0  0  0  0  0  0  0  0  0  0  0
   21.4608  -14.3071  -23.2161 C   0  0  0  0  0  0  0  0  0  0  0  0
   21.2331  -14.5357  -21.8758 C   0  0  0  0  0  0  0  0  0  0  0  0
   21.4478  -13.4965  -20.9889 C   0  0  0  0  0  0  0  0  0  0  0  0
   22.6735   -8.7697  -20.2182 C   0  0  0  0  0  0  0  0  0  0  0  0
   23.6162   -8.4415  -19.4320 O   0  0  0  0  0  0  0  0  0  0  0  0
   21.5225   -7.9737  -20.2787 N   0  0  0  0  0  0  0  0  0  0  0  0
   20.3365   -8.1328  -21.0846 C   0  0  0  0  0  0  0  0  0  0  0  0
   19.8261   -6.6888  -21.2167 C   0  0  0  0  0  0  0  0  0  0  0  0
   20.0602   -6.1418  -19.8551 C   0  0  0  0  0  0  0  0  0  0  0  0
   21.3801   -6.7617  -19.4542 C   0  0  1  0  0  0  0  0  0  0  0  0
   21.2770   -7.1213  -18.0001 C   0  0  0  0  0  0  0  0  0  0  0  0
   20.8977   -8.2837  -17.6918 O   0  0  0  0  0  0  0  0  0  0  0  0
   21.5878   -6.2120  -16.9643 N   0  0  0  0  0  0  0  0  0  0  0  0
   21.4402   -6.5831  -15.5447 C   0  0  1  0  0  0  0  0  0  0  0  0
   22.8023   -6.8347  -15.0059 C   0  0  0  0  0  0  0  0  0  0  0  0
   23.8578   -5.9289  -15.5019 C   0  0  0  0  0  0  0  0  0  0  0  0
   24.7736   -6.2680  -16.4490 C   0  0  0  0  0  0  0  0  0  0  0  0
   25.7127   -5.3408  -16.8426 C   0  0  0  0  0  0  0  0  0  0  0  0
   25.7377   -4.0799  -16.2928 C   0  0  0  0  0  0  0  0  0  0  0  0
   24.8200   -3.7227  -15.3357 C   0  0  0  0  0  0  0  0  0  0  0  0
   23.8858   -4.6652  -14.9534 C   0  0  0  0  0  0  0  0  0  0  0  0
   20.7733   -5.4406  -14.8878 C   0  0  0  0  0  0  0  0  0  0  0  0
   20.5201   -4.3010  -15.6318 O   0  0  0  0  0  0  0  0  0  0  0  0
   20.4240   -5.4504  -13.6856 O   0  0  0  0  0  0  0  0  0  0  0  0
  2  1  1  1
  2  3  1  0
  3  4  1  0
  4  9  1  0
  5  4  2  0
  5  6  1  0
  6  7  2  0
  7  8  1  0
  9  8  2  0
 10 12  1  0
 10  2  1  0
 11 10  2  0
 12 16  1  0
 13 12  1  0
 13 14  1  0
 14 15  1  0
 15 16  1  0
 16 17  1  1
 17 18  2  0
 19 17  1  0
 20 28  1  0
 20 19  1  0
 20 21  1  1
 22 23  2  0
 22 21  1  0
 24 23  1  0
 25 24  2  0
 26 25  1  0
 26 27  2  0
 27 22  1  0
 28 29  1  0
 30 28  2  0
M  END
$$$$
