FPF.pdb
     RDKit          3D

 30 32  0  0  1  0  0  0  0  0999 V2000
   24.5949  -17.2906  -14.5503 N   0  0  0  0  0  0  0  0  0  0  0  0
   25.6813  -18.0630  -14.0467 C   0  0  1  0  0  0  0  0  0  0  0  0
   26.8926  -17.1986  -13.8041 C   0  0  0  0  0  0  0  0  0  0  0  0
   27.7813  -17.0985  -14.9804 C   0  0  0  0  0  0  0  0  0  0  0  0
   28.7121  -18.1057  -15.2559 C   0  0  0  0  0  0  0  0  0  0  0  0
   29.5177  -18.0241  -16.3494 C   0  0  0  0  0  0  0  0  0  0  0  0
   29.4518  -16.9568  -17.2232 C   0  0  0  0  0  0  0  0  0  0  0  0
   28.5469  -15.9443  -16.9860 C   0  0  0  0  0  0  0  0  0  0  0  0
   27.7344  -16.0406  -15.8711 C   0  0  0  0  0  0  0  0  0  0  0  0
   25.3918  -18.8826  -12.8607 C   0  0  0  0  0  0  0  0  0  0  0  0
   24.8675  -18.2749  -11.8757 O   0  0  0  0  0  0  0  0  0  0  0  0
   25.6551  -20.2546  -12.7588 N   0  0  0  0  0  0  0  0  0  0  0  0
   26.1490  -21.1721  -13.7565 C   0  0  0  0  0  0  0  0  0  0  0  0
   25.5768  -22.5187  -13.2844 C   0  0  0  0  0  0  0  0  0  0  0  0
   25.7451  -22.4377  -11.8102 C   0  0  0  0  0  0  0  0  0  0  0  0
   25.4281  -20.9911  -11.5037 C   0  0  1  0  0  0  0  0  0  0  0  0
   26.3932  -20.5409  -10.4453 C   0  0  0  0  0  0  0  0  0  0  0  0
   27.5434  -20.1639  -10.7989 O   0  0  0  0  0  0  0  0  0  0  0  0
   26.0658  -20.5219   -9.0709 N   0  0  0  0  0  0  0  0  0  0  0  0
   26.7789  -21.3704   -8.0982 C   0  0  1  0  0  0  0  0  0  0  0  0
   28.0874  -20.7238   -7.8177 C   0  0  0  0  0  0  0  0  0  0  0  0
   28.1562  -19.9504   -6.5617 C   0  0  0  0  0  0  0  0  0  0  0  0
   27.8920  -18.6192   -6.4678 C   0  0  0  0  0  0  0  0  0  0  0  0
   27.9815  -17.9979   -5.2422 C   0  0  0  0  0  0  0  0  0  0  0  0
   28.3336  -18.7026   -4.1142 C   0  0  0  0  0  0  0  0  0  0  0  0
   28.6036  -20.0468   -4.1929 C   0  0  0  0  0  0  0  0  0  0  0  0
   28.5087  -20.6530   -5.4300 C   0  0  0  0  0  0  0  0  0  0  0  0
   25.9144  -21.4417   -6.9028 C   0  0  0  0  0  0  0  0  0  0  0  0
   26.2946  -22.2631   -5.8553 O   0  0  0  0  0  0  0  0  0  0  0  0
   24.8491  -20.7941   -6.7884 O   0  0  0  0  0  0  0  0  0  0  0  0
  2  1  1  1
  2  3  1  0
  3  4  1  0
  4  9  1  0
  5  4  2  0
  5  6  1  0
  6  7  2  0
  7  8  1  0
  9  8  2  0
 10 12  1  0
 10  2  1  0
 11 10  2  0
 12 16  1  0
 13 12  1  0
 13 14  1  0
 14 15  1  0
 15 16  1  0
 16 17  1  1
 17 18  2  0
 19 17  1  0
 20 28  1  0
 20 19  1  0
 20 21  1  1
 22 23  2  0
 22 21  1  0
 24 23  1  0
 25 24  2  0
 26 25  1  0
 26 27  2  0
 27 22  1  0
 28 29  1  0
 30 28  2  0
M  END
$$$$
