FPF.pdb
     RDKit          3D

 30 32  0  0  1  0  0  0  0  0999 V2000
   23.1385  -21.4603  -14.5975 N   0  0  0  0  0  0  0  0  0  0  0  0
   23.9757  -20.4877  -13.9779 C   0  0  1  0  0  0  0  0  0  0  0  0
   23.1566  -19.3757  -13.3733 C   0  0  0  0  0  0  0  0  0  0  0  0
   22.5640  -18.4739  -14.3828 C   0  0  0  0  0  0  0  0  0  0  0  0
   23.3455  -17.4985  -15.0108 C   0  0  0  0  0  0  0  0  0  0  0  0
   22.8059  -16.6802  -15.9545 C   0  0  0  0  0  0  0  0  0  0  0  0
   21.4799  -16.7765  -16.3283 C   0  0  0  0  0  0  0  0  0  0  0  0
   20.6772  -17.7258  -15.7325 C   0  0  0  0  0  0  0  0  0  0  0  0
   21.2392  -18.5506  -14.7752 C   0  0  0  0  0  0  0  0  0  0  0  0
   24.9422  -21.0029  -12.9969 C   0  0  0  0  0  0  0  0  0  0  0  0
   24.5246  -21.9296  -12.2344 O   0  0  0  0  0  0  0  0  0  0  0  0
   26.2577  -20.5420  -12.8592 N   0  0  0  0  0  0  0  0  0  0  0  0
   26.9575  -19.5238  -13.6041 C   0  0  0  0  0  0  0  0  0  0  0  0
   28.4247  -19.9643  -13.4751 C   0  0  0  0  0  0  0  0  0  0  0  0
   28.4988  -20.4172  -12.0618 C   0  0  0  0  0  0  0  0  0  0  0  0
   27.1685  -21.1035  -11.8470 C   0  0  1  0  0  0  0  0  0  0  0  0
   26.7048  -20.7477  -10.4640 C   0  0  0  0  0  0  0  0  0  0  0  0
   25.8325  -19.8465  -10.3336 O   0  0  0  0  0  0  0  0  0  0  0  0
   27.2046  -21.3809   -9.3040 N   0  0  0  0  0  0  0  0  0  0  0  0
   26.9196  -20.8542   -7.9564 C   0  0  1  0  0  0  0  0  0  0  0  0
   27.8060  -21.5695   -7.0016 C   0  0  0  0  0  0  0  0  0  0  0  0
   28.2141  -20.7945   -5.8128 C   0  0  0  0  0  0  0  0  0  0  0  0
   29.2950  -19.9694   -5.7718 C   0  0  0  0  0  0  0  0  0  0  0  0
   29.5811  -19.2887   -4.6095 C   0  0  0  0  0  0  0  0  0  0  0  0
   28.7914  -19.4310   -3.4919 C   0  0  0  0  0  0  0  0  0  0  0  0
   27.6970  -20.2602   -3.5176 C   0  0  0  0  0  0  0  0  0  0  0  0
   27.4255  -20.9347   -4.6917 C   0  0  0  0  0  0  0  0  0  0  0  0
   27.2001  -19.4052   -8.0131 C   0  0  0  0  0  0  0  0  0  0  0  0
   26.3296  -18.5341   -7.3808 O   0  0  0  0  0  0  0  0  0  0  0  0
   28.1902  -18.9221   -8.6079 O   0  0  0  0  0  0  0  0  0  0  0  0
  2  1  1  1
  2  3  1  0
  3  4  1  0
  4  9  1  0
  5  4  2  0
  5  6  1  0
  6  7  2  0
  7  8  1  0
  9  8  2  0
 10 12  1  0
 10  2  1  0
 11 10  2  0
 12 16  1  0
 13 12  1  0
 13 14  1  0
 14 15  1  0
 15 16  1  0
 16 17  1  1
 17 18  2  0
 19 17  1  0
 20 28  1  0
 20 19  1  0
 20 21  1  1
 22 23  2  0
 22 21  1  0
 24 23  1  0
 25 24  2  0
 26 25  1  0
 26 27  2  0
 27 22  1  0
 28 29  1  0
 30 28  2  0
M  END
$$$$
