FPF.pdb
     RDKit          3D

 30 32  0  0  1  0  0  0  0  0999 V2000
   26.1455  -19.8848  -16.6058 N   0  0  0  0  0  0  0  0  0  0  0  0
   26.9212  -19.4003  -15.5130 C   0  0  1  0  0  0  0  0  0  0  0  0
   26.7103  -17.9207  -15.3142 C   0  0  0  0  0  0  0  0  0  0  0  0
   27.2375  -17.1030  -16.4264 C   0  0  0  0  0  0  0  0  0  0  0  0
   28.6147  -16.9089  -16.5754 C   0  0  0  0  0  0  0  0  0  0  0  0
   29.1025  -16.1722  -17.6101 C   0  0  0  0  0  0  0  0  0  0  0  0
   28.2692  -15.5916  -18.5459 C   0  0  0  0  0  0  0  0  0  0  0  0
   26.9056  -15.7603  -18.4334 C   0  0  0  0  0  0  0  0  0  0  0  0
   26.4241  -16.5118  -17.3770 C   0  0  0  0  0  0  0  0  0  0  0  0
   26.7551  -20.1165  -14.2396 C   0  0  0  0  0  0  0  0  0  0  0  0
   25.6003  -20.5963  -14.0146 O   0  0  0  0  0  0  0  0  0  0  0  0
   27.7682  -20.2928  -13.2885 N   0  0  0  0  0  0  0  0  0  0  0  0
   29.1516  -19.8859  -13.3332 C   0  0  0  0  0  0  0  0  0  0  0  0
   29.8319  -20.9131  -12.4138 C   0  0  0  0  0  0  0  0  0  0  0  0
   28.8508  -21.0489  -11.3061 C   0  0  0  0  0  0  0  0  0  0  0  0
   27.5164  -20.9884  -12.0150 C   0  0  1  0  0  0  0  0  0  0  0  0
   26.5905  -20.1845  -11.1484 C   0  0  0  0  0  0  0  0  0  0  0  0
   26.6617  -18.9264  -11.1945 O   0  0  0  0  0  0  0  0  0  0  0  0
   25.6435  -20.7792  -10.2847 N   0  0  0  0  0  0  0  0  0  0  0  0
   24.7883  -19.9639   -9.4024 C   0  0  1  0  0  0  0  0  0  0  0  0
   23.7326  -19.3490  -10.2487 C   0  0  0  0  0  0  0  0  0  0  0  0
   22.9098  -20.2979  -11.0253 C   0  0  0  0  0  0  0  0  0  0  0  0
   23.3320  -20.9317  -12.1525 C   0  0  0  0  0  0  0  0  0  0  0  0
   22.4816  -21.8030  -12.7959 C   0  0  0  0  0  0  0  0  0  0  0  0
   21.2143  -22.0408  -12.3162 C   0  0  0  0  0  0  0  0  0  0  0  0
   20.7735  -21.4085  -11.1796 C   0  0  0  0  0  0  0  0  0  0  0  0
   21.6398  -20.5383  -10.5477 C   0  0  0  0  0  0  0  0  0  0  0  0
   24.2368  -20.8905   -8.3929 C   0  0  0  0  0  0  0  0  0  0  0  0
   24.6153  -22.2214   -8.4348 O   0  0  0  0  0  0  0  0  0  0  0  0
   23.4396  -20.5314   -7.4968 O   0  0  0  0  0  0  0  0  0  0  0  0
  2  1  1  6
  2  3  1  0
  3  4  1  0
  4  9  1  0
  5  4  2  0
  5  6  1  0
  6  7  2  0
  7  8  1  0
  9  8  2  0
 10 12  1  0
 10  2  1  0
 11 10  2  0
 12 16  1  0
 13 12  1  0
 13 14  1  0
 14 15  1  0
 15 16  1  0
 16 17  1  1
 17 18  2  0
 19 17  1  0
 20 28  1  0
 20 19  1  0
 20 21  1  6
 22 23  2  0
 22 21  1  0
 24 23  1  0
 25 24  2  0
 26 25  1  0
 26 27  2  0
 27 22  1  0
 28 29  1  0
 30 28  2  0
M  END
$$$$
