SFV.pdb
     RDKit          3D

 25 25  0  0  1  0  0  0  0  0999 V2000
   19.5416   -8.1651  -20.1861 O   0  0  0  0  0  0  0  0  0  0  0  0
   19.3188   -7.5380  -18.9720 C   0  0  0  0  0  0  0  0  0  0  0  0
   20.2313   -8.1824  -17.9174 C   0  0  2  0  0  0  0  0  0  0  0  0
   19.7767   -9.5111  -17.6241 N   0  0  0  0  0  0  0  0  0  0  0  0
   20.0812   -7.3471  -16.7033 C   0  0  0  0  0  0  0  0  0  0  0  0
   19.0887   -7.5790  -15.9598 O   0  0  0  0  0  0  0  0  0  0  0  0
   21.0239   -6.3349  -16.4064 N   0  0  0  0  0  0  0  0  0  0  0  0
   20.8321   -5.5265  -15.2268 C   0  0  1  0  0  0  0  0  0  0  0  0
   22.0146   -5.6742  -14.3110 C   0  0  0  0  0  0  0  0  0  0  0  0
   22.1543   -7.0019  -13.7073 C   0  0  0  0  0  0  0  0  0  0  0  0
   22.9544   -7.9849  -14.2396 C   0  0  0  0  0  0  0  0  0  0  0  0
   23.0524   -9.2413  -13.6262 C   0  0  0  0  0  0  0  0  0  0  0  0
   22.3489   -9.5168  -12.4775 C   0  0  0  0  0  0  0  0  0  0  0  0
   21.5502   -8.5394  -11.9438 C   0  0  0  0  0  0  0  0  0  0  0  0
   21.4652   -7.3091  -12.5596 C   0  0  0  0  0  0  0  0  0  0  0  0
   20.5166   -4.1543  -15.6029 C   0  0  0  0  0  0  0  0  0  0  0  0
   21.2779   -3.3907  -16.2556 O   0  0  0  0  0  0  0  0  0  0  0  0
   18.1356   -3.0671  -17.8589 C   0  0  0  0  0  0  0  0  0  0  0  0
   17.7568   -2.3415  -16.5965 C   0  0  2  0  0  0  0  0  0  0  0  0
   17.2206   -0.9838  -16.9711 C   0  0  0  0  0  0  0  0  0  0  0  0
   18.8841   -2.2541  -15.6012 C   0  0  2  0  0  0  0  0  0  0  0  0
   19.2617   -3.6116  -15.2161 N   0  0  0  0  0  0  0  0  0  0  0  0
   18.3526   -1.4991  -14.4227 C   0  0  0  0  0  0  0  0  0  0  0  0
   17.5504   -2.0746  -13.6733 O   0  0  0  0  0  0  0  0  0  0  0  0
   18.7860   -0.2080  -14.2392 O   0  0  0  0  0  0  0  0  0  0  0  0
  2  1  1  0
  3  2  1  0
  3  4  1  1
  5  3  1  0
  6  5  2  0
  7  5  1  0
  8  7  1  0
  8  9  1  1
  9 10  1  0
 10 15  2  0
 10 11  1  0
 11 12  2  0
 12 13  1  0
 14 13  2  0
 15 14  1  0
 16 22  1  0
 16  8  1  0
 17 16  2  0
 19 18  1  6
 19 21  1  0
 20 19  1  0
 21 23  1  0
 21 22  1  1
 23 25  1  0
 24 23  2  0
M  END
$$$$
