SFV.pdb
     RDKit          3D

 25 25  0  0  1  0  0  0  0  0999 V2000
   26.3170  -20.9769  -18.6880 O   0  0  0  0  0  0  0  0  0  0  0  0
   27.4234  -20.4653  -18.0314 C   0  0  0  0  0  0  0  0  0  0  0  0
   28.1089  -21.6098  -17.2697 C   0  0  2  0  0  0  0  0  0  0  0  0
   28.0875  -22.8058  -18.0618 N   0  0  0  0  0  0  0  0  0  0  0  0
   27.2855  -21.8249  -16.0572 C   0  0  0  0  0  0  0  0  0  0  0  0
   26.6864  -22.9301  -15.9526 O   0  0  0  0  0  0  0  0  0  0  0  0
   27.1878  -20.8190  -15.0673 N   0  0  0  0  0  0  0  0  0  0  0  0
   26.3005  -21.0246  -13.9482 C   0  0  1  0  0  0  0  0  0  0  0  0
   26.8667  -20.3651  -12.7221 C   0  0  0  0  0  0  0  0  0  0  0  0
   26.0291  -20.4843  -11.5258 C   0  0  0  0  0  0  0  0  0  0  0  0
   24.9314  -19.6884  -11.2993 C   0  0  0  0  0  0  0  0  0  0  0  0
   24.1630  -19.8389  -10.1368 C   0  0  0  0  0  0  0  0  0  0  0  0
   24.4923  -20.7875   -9.1975 C   0  0  0  0  0  0  0  0  0  0  0  0
   25.5859  -21.5828   -9.4197 C   0  0  0  0  0  0  0  0  0  0  0  0
   26.3308  -21.4217  -10.5684 C   0  0  0  0  0  0  0  0  0  0  0  0
   24.9472  -20.6108  -14.2964 C   0  0  0  0  0  0  0  0  0  0  0  0
   24.6460  -19.5229  -14.8573 O   0  0  0  0  0  0  0  0  0  0  0  0
   20.6036  -21.7161  -15.8630 C   0  0  0  0  0  0  0  0  0  0  0  0
   22.0274  -21.9824  -15.4564 C   0  0  2  0  0  0  0  0  0  0  0  0
   22.1662  -23.4501  -15.1438 C   0  0  0  0  0  0  0  0  0  0  0  0
   22.4926  -21.1112  -14.3189 C   0  0  2  0  0  0  0  0  0  0  0  0
   23.8669  -21.4815  -13.9905 N   0  0  0  0  0  0  0  0  0  0  0  0
   21.5795  -21.3936  -13.1666 C   0  0  0  0  0  0  0  0  0  0  0  0
   21.8291  -22.3732  -12.4496 O   0  0  0  0  0  0  0  0  0  0  0  0
   20.5143  -20.5480  -12.9698 O   0  0  0  0  0  0  0  0  0  0  0  0
  2  1  1  0
  3  2  1  0
  3  4  1  6
  5  3  1  0
  6  5  2  0
  7  5  1  0
  8  7  1  0
  8  9  1  1
  9 10  1  0
 10 15  2  0
 10 11  1  0
 11 12  2  0
 12 13  1  0
 14 13  2  0
 15 14  1  0
 16 22  1  0
 16  8  1  0
 17 16  2  0
 19 18  1  1
 19 21  1  0
 20 19  1  0
 21 23  1  0
 21 22  1  1
 23 25  1  0
 24 23  2  0
M  END
$$$$
