SFV.pdb
     RDKit          3D

 25 25  0  0  1  0  0  0  0  0999 V2000
   26.6430  -20.9023  -18.3190 O   0  0  0  0  0  0  0  0  0  0  0  0
   27.9139  -20.5907  -17.8666 C   0  0  0  0  0  0  0  0  0  0  0  0
   28.4191  -21.7527  -16.9980 C   0  0  2  0  0  0  0  0  0  0  0  0
   28.3585  -22.9794  -17.7395 N   0  0  0  0  0  0  0  0  0  0  0  0
   27.4736  -21.8347  -15.8607 C   0  0  0  0  0  0  0  0  0  0  0  0
   26.6772  -22.8128  -15.8389 O   0  0  0  0  0  0  0  0  0  0  0  0
   27.4790  -20.8456  -14.8492 N   0  0  0  0  0  0  0  0  0  0  0  0
   26.6142  -21.0114  -13.7061 C   0  0  1  0  0  0  0  0  0  0  0  0
   27.2330  -20.3601  -12.5013 C   0  0  0  0  0  0  0  0  0  0  0  0
   26.4039  -20.4025  -11.2939 C   0  0  0  0  0  0  0  0  0  0  0  0
   26.6079  -21.3060  -10.2781 C   0  0  0  0  0  0  0  0  0  0  0  0
   25.7851  -21.3087   -9.1435 C   0  0  0  0  0  0  0  0  0  0  0  0
   24.7550  -20.4059   -9.0232 C   0  0  0  0  0  0  0  0  0  0  0  0
   24.5485  -19.5036  -10.0337 C   0  0  0  0  0  0  0  0  0  0  0  0
   25.3671  -19.5145  -11.1428 C   0  0  0  0  0  0  0  0  0  0  0  0
   25.2669  -20.5559  -14.0241 C   0  0  0  0  0  0  0  0  0  0  0  0
   24.9865  -19.4558  -14.5717 O   0  0  0  0  0  0  0  0  0  0  0  0
   20.8711  -21.5745  -15.5217 C   0  0  0  0  0  0  0  0  0  0  0  0
   22.2759  -21.9054  -15.0968 C   0  0  2  0  0  0  0  0  0  0  0  0
   22.3200  -23.3553  -14.6881 C   0  0  0  0  0  0  0  0  0  0  0  0
   22.8003  -20.9934  -14.0186 C   0  0  2  0  0  0  0  0  0  0  0  0
   24.1680  -21.3970  -13.7022 N   0  0  0  0  0  0  0  0  0  0  0  0
   21.9063  -21.1803  -12.8323 C   0  0  0  0  0  0  0  0  0  0  0  0
   22.0354  -22.2137  -12.1603 O   0  0  0  0  0  0  0  0  0  0  0  0
   20.9916  -20.1926  -12.5562 O   0  0  0  0  0  0  0  0  0  0  0  0
  2  1  1  0
  3  2  1  0
  3  4  1  6
  5  3  1  0
  6  5  2  0
  7  5  1  0
  8  7  1  0
  8  9  1  1
  9 10  1  0
 10 15  2  0
 10 11  1  0
 11 12  2  0
 12 13  1  0
 14 13  2  0
 15 14  1  0
 16 22  1  0
 16  8  1  0
 17 16  2  0
 19 18  1  1
 19 21  1  0
 20 19  1  0
 21 23  1  0
 21 22  1  1
 23 25  1  0
 24 23  2  0
M  END
$$$$
