SFV.pdb
     RDKit          3D

 25 25  0  0  1  0  0  0  0  0999 V2000
   15.8236  -10.7221  -18.1509 O   0  0  0  0  0  0  0  0  0  0  0  0
   17.0562  -11.3019  -18.3981 C   0  0  0  0  0  0  0  0  0  0  0  0
   17.6418  -11.7868  -17.0632 C   0  0  2  0  0  0  0  0  0  0  0  0
   16.6591  -12.5468  -16.3456 N   0  0  0  0  0  0  0  0  0  0  0  0
   17.9473  -10.5564  -16.2969 C   0  0  0  0  0  0  0  0  0  0  0  0
   17.1487  -10.2351  -15.3746 O   0  0  0  0  0  0  0  0  0  0  0  0
   19.0939   -9.7860  -16.6021 N   0  0  0  0  0  0  0  0  0  0  0  0
   19.4122   -8.6491  -15.7725 C   0  0  1  0  0  0  0  0  0  0  0  0
   20.7628   -8.8415  -15.1421 C   0  0  0  0  0  0  0  0  0  0  0  0
   21.2339   -7.7002  -14.3532 C   0  0  0  0  0  0  0  0  0  0  0  0
   21.0328   -7.5943  -12.9974 C   0  0  0  0  0  0  0  0  0  0  0  0
   21.5003   -6.4803  -12.2870 C   0  0  0  0  0  0  0  0  0  0  0  0
   22.1709   -5.4686  -12.9330 C   0  0  0  0  0  0  0  0  0  0  0  0
   22.3734   -5.5705  -14.2845 C   0  0  0  0  0  0  0  0  0  0  0  0
   21.9071   -6.6730  -14.9681 C   0  0  0  0  0  0  0  0  0  0  0  0
   19.2612   -7.4143  -16.5316 C   0  0  0  0  0  0  0  0  0  0  0  0
   19.7339   -7.2110  -17.6823 O   0  0  0  0  0  0  0  0  0  0  0  0
   16.3188   -4.6500  -15.3728 C   0  0  0  0  0  0  0  0  0  0  0  0
   17.0308   -4.6156  -16.6977 C   0  0  2  0  0  0  0  0  0  0  0  0
   16.2524   -5.4552  -17.6778 C   0  0  0  0  0  0  0  0  0  0  0  0
   18.4742   -5.0371  -16.6070 C   0  0  2  0  0  0  0  0  0  0  0  0
   18.5302   -6.3420  -15.9530 N   0  0  0  0  0  0  0  0  0  0  0  0
   19.1681   -4.0007  -15.7790 C   0  0  0  0  0  0  0  0  0  0  0  0
   19.2957   -4.2124  -14.5644 O   0  0  0  0  0  0  0  0  0  0  0  0
   19.6250   -2.8715  -16.4150 O   0  0  0  0  0  0  0  0  0  0  0  0
  2  1  1  0
  3  2  1  0
  3  4  1  1
  5  3  1  0
  6  5  2  0
  7  5  1  0
  8  7  1  0
  8  9  1  6
  9 10  1  0
 10 15  2  0
 10 11  1  0
 11 12  2  0
 12 13  1  0
 14 13  2  0
 15 14  1  0
 16 22  1  0
 16  8  1  0
 17 16  2  0
 19 18  1  1
 19 21  1  0
 20 19  1  0
 21 23  1  0
 21 22  1  1
 23 25  1  0
 24 23  2  0
M  END
$$$$
