SFV.pdb
     RDKit          3D

 25 25  0  0  1  0  0  0  0  0999 V2000
   25.7500  -20.9774  -16.5855 O   0  0  0  0  0  0  0  0  0  0  0  0
   26.9894  -20.3983  -16.3730 C   0  0  0  0  0  0  0  0  0  0  0  0
   27.9172  -21.4513  -15.7481 C   0  0  2  0  0  0  0  0  0  0  0  0
   27.7177  -22.7198  -16.3880 N   0  0  0  0  0  0  0  0  0  0  0  0
   27.4945  -21.5586  -14.3325 C   0  0  0  0  0  0  0  0  0  0  0  0
   26.7417  -22.5228  -14.0242 O   0  0  0  0  0  0  0  0  0  0  0  0
   27.9286  -20.6078  -13.3790 N   0  0  0  0  0  0  0  0  0  0  0  0
   27.4787  -20.7327  -12.0138 C   0  0  1  0  0  0  0  0  0  0  0  0
   28.4601  -20.0654  -11.0916 C   0  0  0  0  0  0  0  0  0  0  0  0
   28.0482  -20.0325   -9.6859 C   0  0  0  0  0  0  0  0  0  0  0  0
   27.1528  -19.1147   -9.1903 C   0  0  0  0  0  0  0  0  0  0  0  0
   26.7926  -19.1220   -7.8359 C   0  0  0  0  0  0  0  0  0  0  0  0
   27.3285  -20.0491   -6.9735 C   0  0  0  0  0  0  0  0  0  0  0  0
   28.2215  -20.9658   -7.4638 C   0  0  0  0  0  0  0  0  0  0  0  0
   28.5649  -20.9448   -8.7987 C   0  0  0  0  0  0  0  0  0  0  0  0
   26.1053  -20.2610  -11.8913 C   0  0  0  0  0  0  0  0  0  0  0  0
   25.6938  -19.1296  -12.2649 O   0  0  0  0  0  0  0  0  0  0  0  0
   23.3731  -21.6926  -13.5194 C   0  0  0  0  0  0  0  0  0  0  0  0
   22.9248  -21.6629  -12.0835 C   0  0  2  0  0  0  0  0  0  0  0  0
   21.4534  -21.3389  -12.0512 C   0  0  0  0  0  0  0  0  0  0  0  0
   23.7340  -20.7230  -11.2285 C   0  0  2  0  0  0  0  0  0  0  0  0
   25.1367  -21.1224  -11.3096 N   0  0  0  0  0  0  0  0  0  0  0  0
   23.2217  -20.8734   -9.8298 C   0  0  0  0  0  0  0  0  0  0  0  0
   23.8103  -21.6591   -9.0732 O   0  0  0  0  0  0  0  0  0  0  0  0
   22.1254  -20.1298   -9.4645 O   0  0  0  0  0  0  0  0  0  0  0  0
  2  1  1  0
  3  2  1  0
  3  4  1  6
  5  3  1  0
  6  5  2  0
  7  5  1  0
  8  7  1  0
  8  9  1  1
  9 10  1  0
 10 15  2  0
 10 11  1  0
 11 12  2  0
 12 13  1  0
 14 13  2  0
 15 14  1  0
 16 22  1  0
 16  8  1  0
 17 16  2  0
 19 18  1  6
 19 21  1  0
 20 19  1  0
 21 23  1  0
 21 22  1  1
 23 25  1  0
 24 23  2  0
M  END
$$$$
