SFV.pdb
     RDKit          3D

 25 25  0  0  1  0  0  0  0  0999 V2000
   15.3000  -11.2982  -14.7350 O   0  0  0  0  0  0  0  0  0  0  0  0
   16.1698  -11.6830  -13.7290 C   0  0  0  0  0  0  0  0  0  0  0  0
   15.3417  -12.1219  -12.5118 C   0  0  2  0  0  0  0  0  0  0  0  0
   14.2107  -12.8924  -12.9423 N   0  0  0  0  0  0  0  0  0  0  0  0
   14.8569  -10.8670  -11.8919 C   0  0  0  0  0  0  0  0  0  0  0  0
   13.6978  -10.4777  -12.2025 O   0  0  0  0  0  0  0  0  0  0  0  0
   15.6759  -10.1481  -10.9897 N   0  0  0  0  0  0  0  0  0  0  0  0
   15.2177   -8.8724  -10.4955 C   0  0  1  0  0  0  0  0  0  0  0  0
   15.0481   -8.9358   -9.0035 C   0  0  0  0  0  0  0  0  0  0  0  0
   14.4482   -7.7389   -8.4082 C   0  0  0  0  0  0  0  0  0  0  0  0
   13.0923   -7.5136   -8.3870 C   0  0  0  0  0  0  0  0  0  0  0  0
   12.5667   -6.3505   -7.8079 C   0  0  0  0  0  0  0  0  0  0  0  0
   13.3982   -5.4093   -7.2483 C   0  0  0  0  0  0  0  0  0  0  0  0
   14.7505   -5.6303   -7.2675 C   0  0  0  0  0  0  0  0  0  0  0  0
   15.2510   -6.7796   -7.8409 C   0  0  0  0  0  0  0  0  0  0  0  0
   16.0922   -7.8063  -10.9675 C   0  0  0  0  0  0  0  0  0  0  0  0
   17.3504   -7.8178  -10.8934 O   0  0  0  0  0  0  0  0  0  0  0  0
   14.6353   -5.1414  -13.8246 C   0  0  0  0  0  0  0  0  0  0  0  0
   16.0882   -5.3495  -13.4940 C   0  0  2  0  0  0  0  0  0  0  0  0
   16.6039   -6.4997  -14.3200 C   0  0  0  0  0  0  0  0  0  0  0  0
   16.3396   -5.5474  -12.0220 C   0  0  2  0  0  0  0  0  0  0  0  0
   15.5070   -6.6551  -11.5599 N   0  0  0  0  0  0  0  0  0  0  0  0
   15.9427   -4.2709  -11.3478 C   0  0  0  0  0  0  0  0  0  0  0  0
   14.8005   -4.1913  -10.8733 O   0  0  0  0  0  0  0  0  0  0  0  0
   16.8702   -3.2584  -11.2939 O   0  0  0  0  0  0  0  0  0  0  0  0
  2  1  1  0
  3  2  1  0
  3  4  1  6
  5  3  1  0
  6  5  2  0
  7  5  1  0
  8  7  1  0
  8  9  1  1
  9 10  1  0
 10 15  2  0
 10 11  1  0
 11 12  2  0
 12 13  1  0
 14 13  2  0
 15 14  1  0
 16 22  1  0
 16  8  1  0
 17 16  2  0
 19 18  1  1
 19 21  1  0
 20 19  1  0
 21 23  1  0
 21 22  1  1
 23 25  1  0
 24 23  2  0
M  END
$$$$
