SFV.pdb
     RDKit          3D

 25 25  0  0  1  0  0  0  0  0999 V2000
   27.0753  -19.4555  -14.0479 O   0  0  0  0  0  0  0  0  0  0  0  0
   28.4516  -19.3717  -13.9229 C   0  0  0  0  0  0  0  0  0  0  0  0
   28.9889  -20.7556  -13.5277 C   0  0  2  0  0  0  0  0  0  0  0  0
   28.5632  -21.7366  -14.4841 N   0  0  0  0  0  0  0  0  0  0  0  0
   28.3651  -21.0616  -12.2194 C   0  0  0  0  0  0  0  0  0  0  0  0
   27.4663  -21.9466  -12.1992 O   0  0  0  0  0  0  0  0  0  0  0  0
   28.7748  -20.3779  -11.0506 N   0  0  0  0  0  0  0  0  0  0  0  0
   28.1738  -20.7323   -9.7877 C   0  0  1  0  0  0  0  0  0  0  0  0
   29.1333  -20.4412   -8.6681 C   0  0  0  0  0  0  0  0  0  0  0  0
   28.5054  -20.2889   -7.3530 C   0  0  0  0  0  0  0  0  0  0  0  0
   27.7541  -19.1913   -7.0058 C   0  0  0  0  0  0  0  0  0  0  0  0
   27.1760  -19.0905   -5.7329 C   0  0  0  0  0  0  0  0  0  0  0  0
   27.3490  -20.0893   -4.8040 C   0  0  0  0  0  0  0  0  0  0  0  0
   28.0973  -21.1850   -5.1465 C   0  0  0  0  0  0  0  0  0  0  0  0
   28.6588  -21.2685   -6.4026 C   0  0  0  0  0  0  0  0  0  0  0  0
   26.8685  -20.0977   -9.6558 C   0  0  0  0  0  0  0  0  0  0  0  0
   26.6456  -18.8659   -9.8039 O   0  0  0  0  0  0  0  0  0  0  0  0
   23.6270  -22.1354  -10.9532 C   0  0  0  0  0  0  0  0  0  0  0  0
   23.7771  -20.6606  -10.6960 C   0  0  2  0  0  0  0  0  0  0  0  0
   24.5559  -20.0559  -11.8358 C   0  0  0  0  0  0  0  0  0  0  0  0
   24.3942  -20.3514   -9.3571 C   0  0  2  0  0  0  0  0  0  0  0  0
   25.7451  -20.9067   -9.3360 N   0  0  0  0  0  0  0  0  0  0  0  0
   23.5333  -21.0167   -8.3287 C   0  0  0  0  0  0  0  0  0  0  0  0
   24.0014  -21.9849   -7.7125 O   0  0  0  0  0  0  0  0  0  0  0  0
   22.2704  -20.5143   -8.1268 O   0  0  0  0  0  0  0  0  0  0  0  0
  2  1  1  0
  3  2  1  0
  3  4  1  6
  5  3  1  0
  6  5  2  0
  7  5  1  0
  8  7  1  0
  8  9  1  1
  9 10  1  0
 10 15  2  0
 10 11  1  0
 11 12  2  0
 12 13  1  0
 14 13  2  0
 15 14  1  0
 16 22  1  0
 16  8  1  0
 17 16  2  0
 19 18  1  6
 19 21  1  0
 20 19  1  0
 21 23  1  0
 21 22  1  6
 23 25  1  0
 24 23  2  0
M  END
$$$$
