SFV.pdb
     RDKit          3D

 25 25  0  0  1  0  0  0  0  0999 V2000
   23.8470  -20.9854   -8.6408 O   0  0  0  0  0  0  0  0  0  0  0  0
   25.1428  -20.5041   -8.5643 C   0  0  0  0  0  0  0  0  0  0  0  0
   25.9449  -21.0780   -9.7422 C   0  0  2  0  0  0  0  0  0  0  0  0
   27.3040  -20.6233   -9.6756 N   0  0  0  0  0  0  0  0  0  0  0  0
   25.3128  -20.5181  -10.9592 C   0  0  0  0  0  0  0  0  0  0  0  0
   25.3956  -19.2714  -11.1336 O   0  0  0  0  0  0  0  0  0  0  0  0
   24.6476  -21.3641  -11.8775 N   0  0  0  0  0  0  0  0  0  0  0  0
   24.0730  -20.7870  -13.0685 C   0  0  1  0  0  0  0  0  0  0  0  0
   24.8454  -21.2382  -14.2762 C   0  0  0  0  0  0  0  0  0  0  0  0
   26.1487  -20.5894  -14.4419 C   0  0  0  0  0  0  0  0  0  0  0  0
   27.3259  -21.1562  -14.0144 C   0  0  0  0  0  0  0  0  0  0  0  0
   28.5481  -20.4939  -14.1932 C   0  0  0  0  0  0  0  0  0  0  0  0
   28.5946  -19.2614  -14.8008 C   0  0  0  0  0  0  0  0  0  0  0  0
   27.4232  -18.6931  -15.2283 C   0  0  0  0  0  0  0  0  0  0  0  0
   26.2297  -19.3580  -15.0448 C   0  0  0  0  0  0  0  0  0  0  0  0
   22.6423  -21.0596  -13.1199 C   0  0  0  0  0  0  0  0  0  0  0  0
   22.1059  -22.1626  -12.8293 O   0  0  0  0  0  0  0  0  0  0  0  0
   19.9897  -17.8025  -14.1394 C   0  0  0  0  0  0  0  0  0  0  0  0
   19.6741  -18.8898  -13.1486 C   0  0  2  0  0  0  0  0  0  0  0  0
   20.0613  -18.4078  -11.7742 C   0  0  0  0  0  0  0  0  0  0  0  0
   20.3153  -20.2092  -13.4911 C   0  0  2  0  0  0  0  0  0  0  0  0
   21.7632  -20.0197  -13.5258 N   0  0  0  0  0  0  0  0  0  0  0  0
   19.8000  -20.5936  -14.8432 C   0  0  0  0  0  0  0  0  0  0  0  0
   20.5224  -20.3777  -15.8269 O   0  0  0  0  0  0  0  0  0  0  0  0
   18.5525  -21.1651  -14.9158 O   0  0  0  0  0  0  0  0  0  0  0  0
  2  1  1  0
  3  2  1  0
  3  4  1  1
  5  3  1  0
  6  5  2  0
  7  5  1  0
  8  7  1  0
  8  9  1  6
  9 10  1  0
 10 15  2  0
 10 11  1  0
 11 12  2  0
 12 13  1  0
 14 13  2  0
 15 14  1  0
 16 22  1  0
 16  8  1  0
 17 16  2  0
 19 18  1  6
 19 21  1  0
 20 19  1  0
 21 23  1  0
 21 22  1  6
 23 25  1  0
 24 23  2  0
M  END
$$$$
