SFV.pdb
     RDKit          3D

 25 25  0  0  1  0  0  0  0  0999 V2000
   15.5379  -22.1079    4.2909 O   0  0  0  0  0  0  0  0  0  0  0  0
   14.7104  -21.2896    3.5410 C   0  0  0  0  0  0  0  0  0  0  0  0
   15.5089  -20.7602    2.3401 C   0  0  2  0  0  0  0  0  0  0  0  0
   16.2809  -21.8213    1.7604 N   0  0  0  0  0  0  0  0  0  0  0  0
   16.4335  -19.7462    2.8979 C   0  0  0  0  0  0  0  0  0  0  0  0
   17.6597  -20.0401    2.9377 O   0  0  0  0  0  0  0  0  0  0  0  0
   15.9418  -18.5036    3.3623 N   0  0  0  0  0  0  0  0  0  0  0  0
   16.8826  -17.4926    3.7802 C   0  0  1  0  0  0  0  0  0  0  0  0
   16.5724  -16.1933    3.0916 C   0  0  0  0  0  0  0  0  0  0  0  0
   17.4320  -15.0747    3.4877 C   0  0  0  0  0  0  0  0  0  0  0  0
   17.0707  -14.1564    4.4447 C   0  0  0  0  0  0  0  0  0  0  0  0
   17.9273  -13.1011    4.7868 C   0  0  0  0  0  0  0  0  0  0  0  0
   19.1487  -12.9626    4.1709 C   0  0  0  0  0  0  0  0  0  0  0  0
   19.5124  -13.8761    3.2163 C   0  0  0  0  0  0  0  0  0  0  0  0
   18.6582  -14.9081    2.8917 C   0  0  0  0  0  0  0  0  0  0  0  0
   16.9290  -17.4188    5.2349 C   0  0  0  0  0  0  0  0  0  0  0  0
   15.9279  -17.5098    5.9953 O   0  0  0  0  0  0  0  0  0  0  0  0
   20.6745  -17.8285    7.1378 C   0  0  0  0  0  0  0  0  0  0  0  0
   19.3474  -18.0305    7.8171 C   0  0  2  0  0  0  0  0  0  0  0  0
   18.9518  -19.4770    7.6674 C   0  0  0  0  0  0  0  0  0  0  0  0
   18.2777  -17.0931    7.3207 C   0  0  2  0  0  0  0  0  0  0  0  0
   18.1862  -17.2298    5.8693 N   0  0  0  0  0  0  0  0  0  0  0  0
   18.7167  -15.7115    7.6948 C   0  0  0  0  0  0  0  0  0  0  0  0
   19.3148  -15.0378    6.8435 O   0  0  0  0  0  0  0  0  0  0  0  0
   18.4304  -15.2688    8.9637 O   0  0  0  0  0  0  0  0  0  0  0  0
  2  1  1  0
  3  2  1  0
  3  4  1  1
  5  3  1  0
  6  5  2  0
  7  5  1  0
  8  7  1  0
  8  9  1  6
  9 10  1  0
 10 15  2  0
 10 11  1  0
 11 12  2  0
 12 13  1  0
 14 13  2  0
 15 14  1  0
 16 22  1  0
 16  8  1  0
 17 16  2  0
 19 18  1  6
 19 21  1  0
 20 19  1  0
 21 23  1  0
 21 22  1  6
 23 25  1  0
 24 23  2  0
M  END
$$$$
