SFV.pdb
     RDKit          3D

 25 25  0  0  1  0  0  0  0  0999 V2000
   21.1578  -22.0262  -12.6744 O   0  0  0  0  0  0  0  0  0  0  0  0
   21.6294  -22.6208  -11.5165 C   0  0  0  0  0  0  0  0  0  0  0  0
   22.0726  -21.5142  -10.5474 C   0  0  2  0  0  0  0  0  0  0  0  0
   21.0121  -20.5638  -10.3730 N   0  0  0  0  0  0  0  0  0  0  0  0
   23.2126  -20.8415  -11.2124 C   0  0  0  0  0  0  0  0  0  0  0  0
   23.0106  -19.6881  -11.6819 O   0  0  0  0  0  0  0  0  0  0  0  0
   24.4698  -21.4832  -11.3068 N   0  0  0  0  0  0  0  0  0  0  0  0
   25.5779  -20.7656  -11.8892 C   0  0  1  0  0  0  0  0  0  0  0  0
   26.8323  -21.0480  -11.1110 C   0  0  0  0  0  0  0  0  0  0  0  0
   26.8157  -20.5557   -9.7310 C   0  0  0  0  0  0  0  0  0  0  0  0
   26.5024  -19.2578   -9.4039 C   0  0  0  0  0  0  0  0  0  0  0  0
   26.5036  -18.8337   -8.0680 C   0  0  0  0  0  0  0  0  0  0  0  0
   26.8188  -19.7090   -7.0556 C   0  0  0  0  0  0  0  0  0  0  0  0
   27.1317  -21.0037   -7.3778 C   0  0  0  0  0  0  0  0  0  0  0  0
   27.1257  -21.4044   -8.6967 C   0  0  0  0  0  0  0  0  0  0  0  0
   25.6660  -21.0480  -13.3162 C   0  0  0  0  0  0  0  0  0  0  0  0
   25.8519  -22.1898  -13.8167 O   0  0  0  0  0  0  0  0  0  0  0  0
   24.0939  -18.1581  -15.9185 C   0  0  0  0  0  0  0  0  0  0  0  0
   24.2528  -19.6198  -16.2376 C   0  0  2  0  0  0  0  0  0  0  0  0
   23.0199  -20.3465  -15.7653 C   0  0  0  0  0  0  0  0  0  0  0  0
   25.5164  -20.2162  -15.6745 C   0  0  2  0  0  0  0  0  0  0  0  0
   25.5364  -19.9716  -14.2345 N   0  0  0  0  0  0  0  0  0  0  0  0
   26.6543  -19.5123  -16.3460 C   0  0  0  0  0  0  0  0  0  0  0  0
   27.2124  -18.5892  -15.7355 O   0  0  0  0  0  0  0  0  0  0  0  0
   27.0154  -19.9312  -17.6039 O   0  0  0  0  0  0  0  0  0  0  0  0
  2  1  1  0
  3  2  1  0
  3  4  1  6
  5  3  1  0
  6  5  2  0
  7  5  1  0
  8  7  1  0
  8  9  1  1
  9 10  1  0
 10 15  2  0
 10 11  1  0
 11 12  2  0
 12 13  1  0
 14 13  2  0
 15 14  1  0
 16 22  1  0
 16  8  1  0
 17 16  2  0
 19 18  1  1
 19 21  1  0
 20 19  1  0
 21 23  1  0
 21 22  1  1
 23 25  1  0
 24 23  2  0
M  END
$$$$
