SFV.pdb
     RDKit          3D

 25 25  0  0  1  0  0  0  0  0999 V2000
   24.1458  -19.8956  -13.3984 O   0  0  0  0  0  0  0  0  0  0  0  0
   24.5056  -20.1591  -12.0877 C   0  0  0  0  0  0  0  0  0  0  0  0
   25.8503  -20.9019  -12.0928 C   0  0  2  0  0  0  0  0  0  0  0  0
   25.7017  -22.1774  -12.7326 N   0  0  0  0  0  0  0  0  0  0  0  0
   26.1858  -21.1192  -10.6664 C   0  0  0  0  0  0  0  0  0  0  0  0
   25.8455  -22.2199  -10.1525 O   0  0  0  0  0  0  0  0  0  0  0  0
   26.8613  -20.1200   -9.9269 N   0  0  0  0  0  0  0  0  0  0  0  0
   27.0913  -20.3297   -8.5181 C   0  0  1  0  0  0  0  0  0  0  0  0
   28.2510  -19.4900   -8.0613 C   0  0  0  0  0  0  0  0  0  0  0  0
   28.5157  -19.5501   -6.6214 C   0  0  0  0  0  0  0  0  0  0  0  0
   28.1055  -18.5743   -5.7443 C   0  0  0  0  0  0  0  0  0  0  0  0
   28.3860  -18.6759   -4.3749 C   0  0  0  0  0  0  0  0  0  0  0  0
   29.0786  -19.7556   -3.8799 C   0  0  0  0  0  0  0  0  0  0  0  0
   29.4892  -20.7305   -4.7512 C   0  0  0  0  0  0  0  0  0  0  0  0
   29.2049  -20.6152   -6.0951 C   0  0  0  0  0  0  0  0  0  0  0  0
   25.8566  -20.1267   -7.7709 C   0  0  0  0  0  0  0  0  0  0  0  0
   25.0169  -19.2142   -7.9970 O   0  0  0  0  0  0  0  0  0  0  0  0
   22.0620  -21.8670   -5.5748 C   0  0  0  0  0  0  0  0  0  0  0  0
   23.4204  -22.0065   -6.2063 C   0  0  2  0  0  0  0  0  0  0  0  0
   24.0160  -23.3197   -5.7681 C   0  0  0  0  0  0  0  0  0  0  0  0
   24.3320  -20.8427   -5.9166 C   0  0  2  0  0  0  0  0  0  0  0  0
   25.5528  -21.0106   -6.7008 N   0  0  0  0  0  0  0  0  0  0  0  0
   24.6340  -20.8942   -4.4511 C   0  0  0  0  0  0  0  0  0  0  0  0
   25.7217  -21.3698   -4.0950 O   0  0  0  0  0  0  0  0  0  0  0  0
   23.6852  -20.4099   -3.5830 O   0  0  0  0  0  0  0  0  0  0  0  0
  2  1  1  0
  3  2  1  0
  3  4  1  6
  5  3  1  0
  6  5  2  0
  7  5  1  0
  8  7  1  0
  8  9  1  1
  9 10  1  0
 10 15  2  0
 10 11  1  0
 11 12  2  0
 12 13  1  0
 14 13  2  0
 15 14  1  0
 16 22  1  0
 16  8  1  0
 17 16  2  0
 19 18  1  1
 19 21  1  0
 20 19  1  0
 21 23  1  0
 21 22  1  6
 23 25  1  0
 24 23  2  0
M  END
$$$$
