SFV.pdb
     RDKit          3D

 25 25  0  0  1  0  0  0  0  0999 V2000
   20.7877  -11.4030  -19.6177 O   0  0  0  0  0  0  0  0  0  0  0  0
   21.8922  -10.7287  -20.1098 C   0  0  0  0  0  0  0  0  0  0  0  0
   23.0424  -10.8795  -19.1027 C   0  0  2  0  0  0  0  0  0  0  0  0
   23.0458  -12.2076  -18.5600 N   0  0  0  0  0  0  0  0  0  0  0  0
   22.7422   -9.9198  -18.0150 C   0  0  0  0  0  0  0  0  0  0  0  0
   22.1056  -10.3559  -17.0170 O   0  0  0  0  0  0  0  0  0  0  0  0
   23.1613   -8.5719  -18.1101 N   0  0  0  0  0  0  0  0  0  0  0  0
   22.8463   -7.6652  -17.0329 C   0  0  1  0  0  0  0  0  0  0  0  0
   24.1151   -7.1634  -16.4027 C   0  0  0  0  0  0  0  0  0  0  0  0
   25.0131   -8.2166  -15.9217 C   0  0  0  0  0  0  0  0  0  0  0  0
   26.1788   -8.5571  -16.5658 C   0  0  0  0  0  0  0  0  0  0  0  0
   27.0035   -9.5749  -16.0675 C   0  0  0  0  0  0  0  0  0  0  0  0
   26.6627  -10.2548  -14.9221 C   0  0  0  0  0  0  0  0  0  0  0  0
   25.5014   -9.9182  -14.2771 C   0  0  0  0  0  0  0  0  0  0  0  0
   24.7017   -8.9146  -14.7806 C   0  0  0  0  0  0  0  0  0  0  0  0
   21.9413   -6.6230  -17.5007 C   0  0  0  0  0  0  0  0  0  0  0  0
   22.1174   -5.9237  -18.5345 O   0  0  0  0  0  0  0  0  0  0  0  0
   18.0084   -6.8873  -16.2517 C   0  0  0  0  0  0  0  0  0  0  0  0
   18.4771   -6.1234  -17.4601 C   0  0  2  0  0  0  0  0  0  0  0  0
   18.5549   -7.0767  -18.6247 C   0  0  0  0  0  0  0  0  0  0  0  0
   19.7752   -5.3932  -17.2339 C   0  0  2  0  0  0  0  0  0  0  0  0
   20.7638   -6.3547  -16.7523 N   0  0  0  0  0  0  0  0  0  0  0  0
   19.5010   -4.3515  -16.1943 C   0  0  0  0  0  0  0  0  0  0  0  0
   19.8026   -4.6051  -15.0191 O   0  0  0  0  0  0  0  0  0  0  0  0
   18.9292   -3.1710  -16.6039 O   0  0  0  0  0  0  0  0  0  0  0  0
  2  1  1  0
  3  2  1  0
  3  4  1  1
  5  3  1  0
  6  5  2  0
  7  5  1  0
  8  7  1  0
  8  9  1  6
  9 10  1  0
 10 15  2  0
 10 11  1  0
 11 12  2  0
 12 13  1  0
 14 13  2  0
 15 14  1  0
 16 22  1  0
 16  8  1  0
 17 16  2  0
 19 18  1  1
 19 21  1  0
 20 19  1  0
 21 23  1  0
 21 22  1  1
 23 25  1  0
 24 23  2  0
M  END
$$$$
