SFV.pdb
     RDKit          3D

 25 25  0  0  1  0  0  0  0  0999 V2000
   27.1410  -19.5940  -15.0300 O   0  0  0  0  0  0  0  0  0  0  0  0
   27.1758  -19.6613  -13.6476 C   0  0  0  0  0  0  0  0  0  0  0  0
   28.1151  -20.8065  -13.2401 C   0  0  2  0  0  0  0  0  0  0  0  0
   27.8843  -21.9490  -14.0766 N   0  0  0  0  0  0  0  0  0  0  0  0
   27.7385  -21.1490  -11.8490 C   0  0  0  0  0  0  0  0  0  0  0  0
   26.8819  -22.0611  -11.6887 O   0  0  0  0  0  0  0  0  0  0  0  0
   28.3273  -20.4689  -10.7571 N   0  0  0  0  0  0  0  0  0  0  0  0
   27.7879  -20.6730   -9.4346 C   0  0  1  0  0  0  0  0  0  0  0  0
   28.7468  -20.1419   -8.4064 C   0  0  0  0  0  0  0  0  0  0  0  0
   28.2087  -20.0854   -7.0447 C   0  0  0  0  0  0  0  0  0  0  0  0
   27.6663  -18.9448   -6.5019 C   0  0  0  0  0  0  0  0  0  0  0  0
   27.1669  -18.9402   -5.1923 C   0  0  0  0  0  0  0  0  0  0  0  0
   27.2097  -20.0785   -4.4224 C   0  0  0  0  0  0  0  0  0  0  0  0
   27.7498  -21.2175   -4.9600 C   0  0  0  0  0  0  0  0  0  0  0  0
   28.2364  -21.2050   -6.2497 C   0  0  0  0  0  0  0  0  0  0  0  0
   26.4385  -20.1290   -9.3519 C   0  0  0  0  0  0  0  0  0  0  0  0
   26.1330  -18.9217   -9.5466 O   0  0  0  0  0  0  0  0  0  0  0  0
   23.9109  -20.4197  -11.5050 C   0  0  0  0  0  0  0  0  0  0  0  0
   23.2966  -20.9793  -10.2507 C   0  0  2  0  0  0  0  0  0  0  0  0
   21.8284  -20.6396  -10.2478 C   0  0  0  0  0  0  0  0  0  0  0  0
   23.9900  -20.5204   -8.9946 C   0  0  2  0  0  0  0  0  0  0  0  0
   25.3676  -21.0050   -9.0285 N   0  0  0  0  0  0  0  0  0  0  0  0
   23.2431  -21.1311   -7.8498 C   0  0  0  0  0  0  0  0  0  0  0  0
   23.7631  -22.0867   -7.2560 O   0  0  0  0  0  0  0  0  0  0  0  0
   22.0207  -20.5955   -7.5225 O   0  0  0  0  0  0  0  0  0  0  0  0
  2  1  1  0
  3  2  1  0
  3  4  1  6
  5  3  1  0
  6  5  2  0
  7  5  1  0
  8  7  1  0
  8  9  1  1
  9 10  1  0
 10 15  2  0
 10 11  1  0
 11 12  2  0
 12 13  1  0
 14 13  2  0
 15 14  1  0
 16 22  1  0
 16  8  1  0
 17 16  2  0
 19 18  1  6
 19 21  1  0
 20 19  1  0
 21 23  1  0
 21 22  1  6
 23 25  1  0
 24 23  2  0
M  END
$$$$
