QQG.pdb
     RDKit          3D

 23 22  0  0  1  0  0  0  0  0999 V2000
   21.2829  -12.2642    7.3992 N   0  0  0  0  0  0  0  0  0  0  0  0
   20.8691  -11.4471    6.3257 C   0  0  0  0  0  0  0  0  0  0  0  0
   21.5584  -10.4529    6.0114 O   0  0  0  0  0  0  0  0  0  0  0  0
   19.6375  -11.7349    5.5583 C   0  0  0  0  0  0  0  0  0  0  0  0
   19.0219  -13.0623    5.9979 C   0  0  0  0  0  0  0  0  0  0  0  0
   17.8947  -13.4107    5.0613 C   0  0  2  0  0  0  0  0  0  0  0  0
   16.7490  -12.5850    5.3121 N   0  0  0  0  0  0  0  0  0  0  0  0
   17.5945  -14.8544    5.1796 C   0  0  0  0  0  0  0  0  0  0  0  0
   16.8475  -15.2604    6.1217 O   0  0  0  0  0  0  0  0  0  0  0  0
   17.1877  -19.5476    0.9705 N   0  0  0  0  0  0  0  0  0  0  0  0
   17.2361  -20.2194    2.2148 C   0  0  0  0  0  0  0  0  0  0  0  0
   17.0232  -21.4619    2.2663 O   0  0  0  0  0  0  0  0  0  0  0  0
   17.5377  -19.5129    3.4721 C   0  0  0  0  0  0  0  0  0  0  0  0
   17.6693  -18.0484    3.4028 C   0  0  0  0  0  0  0  0  0  0  0  0
   18.0025  -17.2892    4.6342 C   0  0  2  0  0  0  0  0  0  0  0  0
   18.0936  -15.8426    4.2943 N   0  0  0  0  0  0  0  0  0  0  0  0
   19.2465  -17.6172    5.3292 C   0  0  0  0  0  0  0  0  0  0  0  0
   20.3937  -17.1591    5.0122 O   0  0  0  0  0  0  0  0  0  0  0  0
   19.2778  -18.5071    6.4569 N   0  0  0  0  0  0  0  0  0  0  0  0
   20.5191  -18.9562    7.0394 C   0  0  0  0  0  0  0  0  0  0  0  0
   20.2789  -19.8552    8.2093 C   0  0  0  0  0  0  0  0  0  0  0  0
   21.2962  -20.4297    8.9276 O   0  0  0  0  0  0  0  0  0  0  0  0
   19.1076  -20.0900    8.5428 O   0  0  0  0  0  0  0  0  0  0  0  0
  1  2  1  0
  2  3  2  0
  4  5  1  0
  4  2  1  0
  6  8  1  0
  6  7  1  1
  6  5  1  0
  8  9  2  0
 10 11  1  0
 11 12  2  0
 13 11  1  0
 13 14  1  0
 15 14  1  6
 15 17  1  0
 16 15  1  0
 16  8  1  0
 17 18  2  0
 17 19  1  0
 19 20  1  0
 21 20  1  0
 21 22  1  0
 23 21  2  0
M  END
$$$$
