QQG.pdb
     RDKit          3D

 23 22  0  0  1  0  0  0  0  0999 V2000
   28.2665  -19.8247  -11.9291 N   0  0  0  0  0  0  0  0  0  0  0  0
   28.0896  -20.8449  -10.9704 C   0  0  0  0  0  0  0  0  0  0  0  0
   29.0682  -21.5459  -10.6340 O   0  0  0  0  0  0  0  0  0  0  0  0
   26.7732  -21.1094  -10.3493 C   0  0  0  0  0  0  0  0  0  0  0  0
   25.7222  -20.1285  -10.8664 C   0  0  0  0  0  0  0  0  0  0  0  0
   24.7581  -20.8707  -11.7547 C   0  0  2  0  0  0  0  0  0  0  0  0
   25.3167  -22.1208  -12.1821 N   0  0  0  0  0  0  0  0  0  0  0  0
   24.3740  -20.0003  -12.8875 C   0  0  0  0  0  0  0  0  0  0  0  0
   23.8822  -18.8541  -12.6537 O   0  0  0  0  0  0  0  0  0  0  0  0
   28.2947  -18.5744  -14.0973 N   0  0  0  0  0  0  0  0  0  0  0  0
   27.5037  -19.1679  -15.1094 C   0  0  0  0  0  0  0  0  0  0  0  0
   27.7185  -20.3621  -15.4550 O   0  0  0  0  0  0  0  0  0  0  0  0
   26.4164  -18.4345  -15.7809 C   0  0  0  0  0  0  0  0  0  0  0  0
   25.2641  -19.2232  -16.2467 C   0  0  0  0  0  0  0  0  0  0  0  0
   24.1098  -19.4312  -15.3367 C   0  0  2  0  0  0  0  0  0  0  0  0
   24.5191  -20.3630  -14.2501 N   0  0  0  0  0  0  0  0  0  0  0  0
   22.8807  -19.9877  -15.9005 C   0  0  0  0  0  0  0  0  0  0  0  0
   22.6962  -21.2243  -16.1517 O   0  0  0  0  0  0  0  0  0  0  0  0
   21.7501  -19.1630  -16.2264 N   0  0  0  0  0  0  0  0  0  0  0  0
   20.5659  -19.7041  -16.8483 C   0  0  0  0  0  0  0  0  0  0  0  0
   19.5587  -20.1274  -15.8278 C   0  0  0  0  0  0  0  0  0  0  0  0
   19.6061  -21.3431  -15.1949 O   0  0  0  0  0  0  0  0  0  0  0  0
   18.6412  -19.3428  -15.5430 O   0  0  0  0  0  0  0  0  0  0  0  0
  1  2  1  0
  2  3  2  0
  4  5  1  0
  4  2  1  0
  6  8  1  0
  6  7  1  6
  6  5  1  0
  8  9  2  0
 10 11  1  0
 11 12  2  0
 13 11  1  0
 13 14  1  0
 15 14  1  6
 15 17  1  0
 16 15  1  0
 16  8  1  0
 17 18  2  0
 17 19  1  0
 19 20  1  0
 21 20  1  0
 21 22  1  0
 23 21  2  0
M  END
$$$$
