QQG.pdb
     RDKit          3D

 23 22  0  0  1  0  0  0  0  0999 V2000
   21.6832   -6.6705  -14.3140 N   0  0  0  0  0  0  0  0  0  0  0  0
   21.7296   -8.0787  -14.3922 C   0  0  0  0  0  0  0  0  0  0  0  0
   22.7525   -8.6335  -14.8485 O   0  0  0  0  0  0  0  0  0  0  0  0
   20.5974   -8.9206  -13.9475 C   0  0  0  0  0  0  0  0  0  0  0  0
   19.4598   -8.0574  -13.4042 C   0  0  0  0  0  0  0  0  0  0  0  0
   18.2631   -8.9349  -13.1451 C   0  0  2  0  0  0  0  0  0  0  0  0
   17.8770   -9.6361  -14.3353 N   0  0  0  0  0  0  0  0  0  0  0  0
   17.1685   -8.1101  -12.5883 C   0  0  0  0  0  0  0  0  0  0  0  0
   16.1276   -7.9040  -13.2844 O   0  0  0  0  0  0  0  0  0  0  0  0
   12.9017   -8.3561   -8.7922 N   0  0  0  0  0  0  0  0  0  0  0  0
   13.9083   -9.2439   -9.2401 C   0  0  0  0  0  0  0  0  0  0  0  0
   13.9427  -10.4266   -8.8025 O   0  0  0  0  0  0  0  0  0  0  0  0
   14.9301   -8.8350  -10.2198 C   0  0  0  0  0  0  0  0  0  0  0  0
   14.8491   -7.4595  -10.7379 C   0  0  0  0  0  0  0  0  0  0  0  0
   16.0864   -6.6451  -10.8348 C   0  0  2  0  0  0  0  0  0  0  0  0
   17.1986   -7.5182  -11.3007 N   0  0  0  0  0  0  0  0  0  0  0  0
   16.5735   -5.9871   -9.6232 C   0  0  0  0  0  0  0  0  0  0  0  0
   17.3188   -6.5418   -8.7496 O   0  0  0  0  0  0  0  0  0  0  0  0
   16.2424   -4.6244   -9.3103 N   0  0  0  0  0  0  0  0  0  0  0  0
   16.8045   -3.9465   -8.1673 C   0  0  0  0  0  0  0  0  0  0  0  0
   18.1625   -3.4000   -8.4705 C   0  0  0  0  0  0  0  0  0  0  0  0
   18.3615   -2.2976   -9.2616 O   0  0  0  0  0  0  0  0  0  0  0  0
   19.1506   -3.9705   -7.9842 O   0  0  0  0  0  0  0  0  0  0  0  0
  1  2  1  0
  2  3  2  0
  4  5  1  0
  4  2  1  0
  6  8  1  0
  6  7  1  6
  6  5  1  0
  8  9  2  0
 10 11  1  0
 11 12  2  0
 13 11  1  0
 13 14  1  0
 15 14  1  1
 15 17  1  0
 16 15  1  0
 16  8  1  0
 17 18  2  0
 17 19  1  0
 19 20  1  0
 21 20  1  0
 21 22  1  0
 23 21  2  0
M  END
$$$$
