QQG.pdb
     RDKit          3D

 23 22  0  0  1  0  0  0  0  0999 V2000
   22.8310  -20.3941  -11.6417 N   0  0  0  0  0  0  0  0  0  0  0  0
   22.8568  -20.8166  -10.2956 C   0  0  0  0  0  0  0  0  0  0  0  0
   21.8053  -21.2344   -9.7643 O   0  0  0  0  0  0  0  0  0  0  0  0
   24.0981  -20.7788   -9.4917 C   0  0  0  0  0  0  0  0  0  0  0  0
   25.2200  -20.0801  -10.2582 C   0  0  0  0  0  0  0  0  0  0  0  0
   25.7224  -21.0041  -11.3366 C   0  0  2  0  0  0  0  0  0  0  0  0
   26.9929  -21.5647  -10.9774 N   0  0  0  0  0  0  0  0  0  0  0  0
   25.7645  -20.2721  -12.6215 C   0  0  0  0  0  0  0  0  0  0  0  0
   26.5798  -19.3102  -12.7642 O   0  0  0  0  0  0  0  0  0  0  0  0
   25.4832  -23.4115  -15.2866 N   0  0  0  0  0  0  0  0  0  0  0  0
   26.7066  -22.7623  -15.5765 C   0  0  0  0  0  0  0  0  0  0  0  0
   27.7883  -23.4095  -15.5260 O   0  0  0  0  0  0  0  0  0  0  0  0
   26.7653  -21.3377  -15.9482 C   0  0  0  0  0  0  0  0  0  0  0  0
   25.4831  -20.6282  -16.0874 C   0  0  0  0  0  0  0  0  0  0  0  0
   25.0069  -19.7629  -14.9792 C   0  0  2  0  0  0  0  0  0  0  0  0
   24.9391  -20.5751  -13.7333 N   0  0  0  0  0  0  0  0  0  0  0  0
   23.6967  -19.1283  -15.1161 C   0  0  0  0  0  0  0  0  0  0  0  0
   22.6043  -19.6257  -14.6853 O   0  0  0  0  0  0  0  0  0  0  0  0
   23.5295  -17.8574  -15.7654 N   0  0  0  0  0  0  0  0  0  0  0  0
   22.2539  -17.1842  -15.8063 C   0  0  0  0  0  0  0  0  0  0  0  0
   21.4491  -17.6119  -16.9912 C   0  0  0  0  0  0  0  0  0  0  0  0
   20.3725  -16.9006  -17.4557 O   0  0  0  0  0  0  0  0  0  0  0  0
   21.7713  -18.6561  -17.5781 O   0  0  0  0  0  0  0  0  0  0  0  0
  1  2  1  0
  2  3  2  0
  4  5  1  0
  4  2  1  0
  6  8  1  0
  6  7  1  1
  6  5  1  0
  8  9  2  0
 10 11  1  0
 11 12  2  0
 13 11  1  0
 13 14  1  0
 15 14  1  6
 15 17  1  0
 16 15  1  0
 16  8  1  0
 17 18  2  0
 17 19  1  0
 19 20  1  0
 21 20  1  0
 21 22  1  0
 23 21  2  0
M  END
$$$$
