QQG.pdb
     RDKit          3D

 23 22  0  0  1  0  0  0  0  0999 V2000
   25.8263  -21.1207  -11.2182 N   0  0  0  0  0  0  0  0  0  0  0  0
   27.1571  -20.6821  -11.0514 C   0  0  0  0  0  0  0  0  0  0  0  0
   27.8088  -21.0667  -10.0566 O   0  0  0  0  0  0  0  0  0  0  0  0
   27.8056  -19.7761  -12.0246 C   0  0  0  0  0  0  0  0  0  0  0  0
   26.8421  -19.4126  -13.1533 C   0  0  0  0  0  0  0  0  0  0  0  0
   26.6961  -20.5987  -14.0704 C   0  0  2  0  0  0  0  0  0  0  0  0
   27.8457  -20.7334  -14.9175 N   0  0  0  0  0  0  0  0  0  0  0  0
   25.4362  -20.4686  -14.8347 C   0  0  0  0  0  0  0  0  0  0  0  0
   25.4215  -19.7773  -15.8988 O   0  0  0  0  0  0  0  0  0  0  0  0
   23.9737  -24.0983  -13.7200 N   0  0  0  0  0  0  0  0  0  0  0  0
   23.9827  -24.3008  -15.1204 C   0  0  0  0  0  0  0  0  0  0  0  0
   24.6751  -25.2319  -15.6158 O   0  0  0  0  0  0  0  0  0  0  0  0
   23.1957  -23.4565  -16.0362 C   0  0  0  0  0  0  0  0  0  0  0  0
   22.4168  -22.3615  -15.4354 C   0  0  0  0  0  0  0  0  0  0  0  0
   23.0186  -21.0077  -15.3413 C   0  0  2  0  0  0  0  0  0  0  0  0
   24.2129  -21.0756  -14.4549 N   0  0  0  0  0  0  0  0  0  0  0  0
   22.1912  -19.9220  -14.8170 C   0  0  0  0  0  0  0  0  0  0  0  0
   22.2483  -19.4828  -13.6211 O   0  0  0  0  0  0  0  0  0  0  0  0
   21.2198  -19.2433  -15.6297 N   0  0  0  0  0  0  0  0  0  0  0  0
   20.9773  -17.8265  -15.5045 C   0  0  0  0  0  0  0  0  0  0  0  0
   19.9100  -17.3704  -16.4466 C   0  0  0  0  0  0  0  0  0  0  0  0
   19.9481  -17.6243  -17.7938 O   0  0  0  0  0  0  0  0  0  0  0  0
   18.9491  -16.7347  -15.9871 O   0  0  0  0  0  0  0  0  0  0  0  0
  1  2  1  0
  2  3  2  0
  4  5  1  0
  4  2  1  0
  6  8  1  0
  6  7  1  6
  6  5  1  0
  8  9  2  0
 10 11  1  0
 11 12  2  0
 13 11  1  0
 13 14  1  0
 15 14  1  1
 15 17  1  0
 16 15  1  0
 16  8  1  0
 17 18  2  0
 17 19  1  0
 19 20  1  0
 21 20  1  0
 21 22  1  0
 23 21  2  0
M  END
$$$$
