QQG.pdb
     RDKit          3D

 23 22  0  0  1  0  0  0  0  0999 V2000
   27.8741  -17.9239  -16.3642 N   0  0  0  0  0  0  0  0  0  0  0  0
   28.6018  -18.4894  -17.4327 C   0  0  0  0  0  0  0  0  0  0  0  0
   29.5110  -17.8243  -17.9745 O   0  0  0  0  0  0  0  0  0  0  0  0
   28.3182  -19.8527  -17.9322 C   0  0  0  0  0  0  0  0  0  0  0  0
   27.2217  -20.5177  -17.1018 C   0  0  0  0  0  0  0  0  0  0  0  0
   27.8162  -20.9961  -15.8031 C   0  0  2  0  0  0  0  0  0  0  0  0
   28.6711  -22.1274  -16.0191 N   0  0  0  0  0  0  0  0  0  0  0  0
   26.7249  -21.2802  -14.8456 C   0  0  0  0  0  0  0  0  0  0  0  0
   25.7146  -21.9442  -15.2314 O   0  0  0  0  0  0  0  0  0  0  0  0
   26.7108  -20.2562   -8.4582 N   0  0  0  0  0  0  0  0  0  0  0  0
   25.5023  -20.9408   -8.7285 C   0  0  0  0  0  0  0  0  0  0  0  0
   24.7856  -21.3502   -7.7744 O   0  0  0  0  0  0  0  0  0  0  0  0
   25.0382  -21.1914  -10.1043 C   0  0  0  0  0  0  0  0  0  0  0  0
   25.9866  -20.9075  -11.1936 C   0  0  0  0  0  0  0  0  0  0  0  0
   25.5730  -21.1480  -12.5988 C   0  0  2  0  0  0  0  0  0  0  0  0
   26.7258  -20.8536  -13.4939 N   0  0  0  0  0  0  0  0  0  0  0  0
   24.4482  -20.3769  -13.1265 C   0  0  0  0  0  0  0  0  0  0  0  0
   24.5135  -19.1532  -13.4799 O   0  0  0  0  0  0  0  0  0  0  0  0
   23.1420  -20.9516  -13.2941 N   0  0  0  0  0  0  0  0  0  0  0  0
   21.9927  -20.1470  -13.6313 C   0  0  0  0  0  0  0  0  0  0  0  0
   20.7805  -20.5822  -12.8724 C   0  0  0  0  0  0  0  0  0  0  0  0
   19.5260  -20.6096  -13.4258 O   0  0  0  0  0  0  0  0  0  0  0  0
   20.9182  -20.9333  -11.6908 O   0  0  0  0  0  0  0  0  0  0  0  0
  1  2  1  0
  2  3  2  0
  4  5  1  0
  4  2  1  0
  6  8  1  0
  6  7  1  6
  6  5  1  0
  8  9  2  0
 10 11  1  0
 11 12  2  0
 13 11  1  0
 13 14  1  0
 15 14  1  1
 15 17  1  0
 16 15  1  0
 16  8  1  0
 17 18  2  0
 17 19  1  0
 19 20  1  0
 21 20  1  0
 21 22  1  0
 23 21  2  0
M  END
$$$$
