QQG.pdb
     RDKit          3D

 23 22  0  0  1  0  0  0  0  0999 V2000
   17.3864  -15.3487  -17.8099 N   0  0  0  0  0  0  0  0  0  0  0  0
   17.5787  -15.8986  -16.5247 C   0  0  0  0  0  0  0  0  0  0  0  0
   18.1581  -17.0002  -16.4101 O   0  0  0  0  0  0  0  0  0  0  0  0
   17.1121  -15.2056  -15.3039 C   0  0  0  0  0  0  0  0  0  0  0  0
   16.4395  -13.8797  -15.6559 C   0  0  0  0  0  0  0  0  0  0  0  0
   16.0155  -13.1951  -14.3829 C   0  0  2  0  0  0  0  0  0  0  0  0
   15.0513  -13.9863  -13.6745 N   0  0  0  0  0  0  0  0  0  0  0  0
   15.5165  -11.8400  -14.7039 C   0  0  0  0  0  0  0  0  0  0  0  0
   14.6300  -11.6988  -15.6010 O   0  0  0  0  0  0  0  0  0  0  0  0
   11.5968   -8.6889  -14.9309 N   0  0  0  0  0  0  0  0  0  0  0  0
   12.3062   -7.5499  -14.4819 C   0  0  0  0  0  0  0  0  0  0  0  0
   11.7794   -6.4069  -14.5702 O   0  0  0  0  0  0  0  0  0  0  0  0
   13.6556   -7.6505  -13.8990 C   0  0  0  0  0  0  0  0  0  0  0  0
   14.2347   -8.9984  -13.7785 C   0  0  0  0  0  0  0  0  0  0  0  0
   15.4872   -9.3195  -14.5076 C   0  0  2  0  0  0  0  0  0  0  0  0
   15.9682  -10.6576  -14.0660 N   0  0  0  0  0  0  0  0  0  0  0  0
   16.6246   -8.4135  -14.3534 C   0  0  0  0  0  0  0  0  0  0  0  0
   17.2476   -8.2157  -13.2584 O   0  0  0  0  0  0  0  0  0  0  0  0
   17.1466   -7.6514  -15.4540 N   0  0  0  0  0  0  0  0  0  0  0  0
   18.2561   -6.7429  -15.2940 C   0  0  0  0  0  0  0  0  0  0  0  0
   18.4677   -5.9185  -16.5229 C   0  0  0  0  0  0  0  0  0  0  0  0
   19.4153   -4.9303  -16.6022 O   0  0  0  0  0  0  0  0  0  0  0  0
   17.7537   -6.1400  -17.5127 O   0  0  0  0  0  0  0  0  0  0  0  0
  1  2  1  0
  2  3  2  0
  4  5  1  0
  4  2  1  0
  6  8  1  0
  6  7  1  6
  6  5  1  0
  8  9  2  0
 10 11  1  0
 11 12  2  0
 13 11  1  0
 13 14  1  0
 15 14  1  1
 15 17  1  0
 16 15  1  0
 16  8  1  0
 17 18  2  0
 17 19  1  0
 19 20  1  0
 21 20  1  0
 21 22  1  0
 23 21  2  0
M  END
$$$$
