QQG.pdb
     RDKit          3D

 23 22  0  0  1  0  0  0  0  0999 V2000
   27.3442  -16.8912  -15.5953 N   0  0  0  0  0  0  0  0  0  0  0  0
   27.6257  -17.3077  -16.9138 C   0  0  0  0  0  0  0  0  0  0  0  0
   28.6024  -16.8132  -17.5171 O   0  0  0  0  0  0  0  0  0  0  0  0
   26.7943  -18.3171  -17.6055 C   0  0  0  0  0  0  0  0  0  0  0  0
   25.6238  -18.7516  -16.7250 C   0  0  0  0  0  0  0  0  0  0  0  0
   26.0951  -19.8301  -15.7849 C   0  0  2  0  0  0  0  0  0  0  0  0
   26.8391  -20.8331  -16.4906 N   0  0  0  0  0  0  0  0  0  0  0  0
   24.9304  -20.3865  -15.0622 C   0  0  0  0  0  0  0  0  0  0  0  0
   24.3468  -21.4162  -15.5200 O   0  0  0  0  0  0  0  0  0  0  0  0
   24.1087  -20.3764   -8.8541 N   0  0  0  0  0  0  0  0  0  0  0  0
   22.9312  -21.0057   -9.3228 C   0  0  0  0  0  0  0  0  0  0  0  0
   22.0992  -21.4748   -8.4985 O   0  0  0  0  0  0  0  0  0  0  0  0
   22.6315  -21.1296  -10.7601 C   0  0  0  0  0  0  0  0  0  0  0  0
   23.6145  -20.5671  -11.7004 C   0  0  0  0  0  0  0  0  0  0  0  0
   23.2848  -20.5058  -13.1465 C   0  0  2  0  0  0  0  0  0  0  0  0
   24.4055  -19.8389  -13.8648 N   0  0  0  0  0  0  0  0  0  0  0  0
   22.0719  -19.7934  -13.5460 C   0  0  0  0  0  0  0  0  0  0  0  0
   21.9745  -18.5248  -13.6329 O   0  0  0  0  0  0  0  0  0  0  0  0
   20.8579  -20.4845  -13.8824 N   0  0  0  0  0  0  0  0  0  0  0  0
   19.6198  -19.7812  -14.1154 C   0  0  0  0  0  0  0  0  0  0  0  0
   19.3936  -19.5437  -15.5739 C   0  0  0  0  0  0  0  0  0  0  0  0
   18.2616  -18.9439  -16.0635 O   0  0  0  0  0  0  0  0  0  0  0  0
   20.2695  -19.9058  -16.3739 O   0  0  0  0  0  0  0  0  0  0  0  0
  1  2  1  0
  2  3  2  0
  4  5  1  0
  4  2  1  0
  6  8  1  0
  6  7  1  6
  6  5  1  0
  8  9  2  0
 10 11  1  0
 11 12  2  0
 13 11  1  0
 13 14  1  0
 15 14  1  1
 15 17  1  0
 16 15  1  0
 16  8  1  0
 17 18  2  0
 17 19  1  0
 19 20  1  0
 21 20  1  0
 21 22  1  0
 23 21  2  0
M  END
$$$$
