QQG.pdb
     RDKit          3D

 23 22  0  0  1  0  0  0  0  0999 V2000
   17.5732  -11.7895  -14.8329 N   0  0  0  0  0  0  0  0  0  0  0  0
   17.6364  -12.5219  -16.0374 C   0  0  0  0  0  0  0  0  0  0  0  0
   16.6004  -13.0632  -16.4803 O   0  0  0  0  0  0  0  0  0  0  0  0
   18.8991  -12.6679  -16.7940 C   0  0  0  0  0  0  0  0  0  0  0  0
   20.0532  -11.9863  -16.0607 C   0  0  0  0  0  0  0  0  0  0  0  0
   21.3336  -12.2607  -16.8053 C   0  0  2  0  0  0  0  0  0  0  0  0
   21.6870  -13.6482  -16.7191 N   0  0  0  0  0  0  0  0  0  0  0  0
   22.3951  -11.3684  -16.2899 C   0  0  0  0  0  0  0  0  0  0  0  0
   22.8809  -11.5795  -15.1366 O   0  0  0  0  0  0  0  0  0  0  0  0
   27.0669  -10.1506  -15.2108 N   0  0  0  0  0  0  0  0  0  0  0  0
   26.8757  -11.0208  -16.3101 C   0  0  0  0  0  0  0  0  0  0  0  0
   27.5118  -12.1088  -16.3678 O   0  0  0  0  0  0  0  0  0  0  0  0
   25.9412  -10.7027  -17.4040 C   0  0  0  0  0  0  0  0  0  0  0  0
   25.1789   -9.4486  -17.2907 C   0  0  0  0  0  0  0  0  0  0  0  0
   23.9802   -9.4028  -16.4162 C   0  0  2  0  0  0  0  0  0  0  0  0
   22.9224  -10.2667  -17.0090 N   0  0  0  0  0  0  0  0  0  0  0  0
   23.3513   -8.1044  -16.1784 C   0  0  0  0  0  0  0  0  0  0  0  0
   22.4657   -7.5815  -16.9325 O   0  0  0  0  0  0  0  0  0  0  0  0
   23.6898   -7.2898  -15.0442 N   0  0  0  0  0  0  0  0  0  0  0  0
   23.1064   -5.9859  -14.8407 C   0  0  0  0  0  0  0  0  0  0  0  0
   22.0709   -6.0138  -13.7629 C   0  0  0  0  0  0  0  0  0  0  0  0
   21.6149   -7.1777  -13.1988 O   0  0  0  0  0  0  0  0  0  0  0  0
   21.6056   -4.9358  -13.3632 O   0  0  0  0  0  0  0  0  0  0  0  0
  1  2  1  0
  2  3  2  0
  4  5  1  0
  4  2  1  0
  6  8  1  0
  6  7  1  1
  6  5  1  0
  8  9  2  0
 10 11  1  0
 11 12  2  0
 13 11  1  0
 13 14  1  0
 15 14  1  6
 15 17  1  0
 16 15  1  0
 16  8  1  0
 17 18  2  0
 17 19  1  0
 19 20  1  0
 21 20  1  0
 21 22  1  0
 23 21  2  0
M  END
$$$$
