QQG.pdb
     RDKit          3D

 23 22  0  0  1  0  0  0  0  0999 V2000
   26.1883  -21.5240  -11.9834 N   0  0  0  0  0  0  0  0  0  0  0  0
   27.1899  -21.7380  -12.9540 C   0  0  0  0  0  0  0  0  0  0  0  0
   28.3297  -22.0987  -12.5890 O   0  0  0  0  0  0  0  0  0  0  0  0
   26.9284  -21.5469  -14.3975 C   0  0  0  0  0  0  0  0  0  0  0  0
   25.5130  -21.0195  -14.6274 C   0  0  0  0  0  0  0  0  0  0  0  0
   24.5251  -22.0815  -14.2209 C   0  0  2  0  0  0  0  0  0  0  0  0
   24.7403  -23.2899  -14.9631 N   0  0  0  0  0  0  0  0  0  0  0  0
   23.1525  -21.5525  -14.3775 C   0  0  0  0  0  0  0  0  0  0  0  0
   22.4972  -21.8220  -15.4304 O   0  0  0  0  0  0  0  0  0  0  0  0
   19.0300  -23.6272  -12.9070 N   0  0  0  0  0  0  0  0  0  0  0  0
   18.8783  -22.2990  -12.4431 C   0  0  0  0  0  0  0  0  0  0  0  0
   17.7816  -21.6977  -12.6079 O   0  0  0  0  0  0  0  0  0  0  0  0
   19.9680  -21.5826  -11.7573 C   0  0  0  0  0  0  0  0  0  0  0  0
   20.3865  -20.2928  -12.3300 C   0  0  0  0  0  0  0  0  0  0  0  0
   21.1043  -20.2729  -13.6292 C   0  0  2  0  0  0  0  0  0  0  0  0
   22.4993  -20.7457  -13.4123 N   0  0  0  0  0  0  0  0  0  0  0  0
   21.2184  -18.9960  -14.3327 C   0  0  0  0  0  0  0  0  0  0  0  0
   22.1629  -18.1570  -14.1586 O   0  0  0  0  0  0  0  0  0  0  0  0
   20.2483  -18.5717  -15.3040 N   0  0  0  0  0  0  0  0  0  0  0  0
   20.3975  -17.3415  -16.0432 C   0  0  0  0  0  0  0  0  0  0  0  0
   19.2994  -17.1692  -17.0429 C   0  0  0  0  0  0  0  0  0  0  0  0
   18.3786  -18.1489  -17.3132 O   0  0  0  0  0  0  0  0  0  0  0  0
   19.2200  -16.0922  -17.6529 O   0  0  0  0  0  0  0  0  0  0  0  0
  1  2  1  0
  2  3  2  0
  4  5  1  0
  4  2  1  0
  6  8  1  0
  6  7  1  6
  6  5  1  0
  8  9  2  0
 10 11  1  0
 11 12  2  0
 13 11  1  0
 13 14  1  0
 15 14  1  1
 15 17  1  0
 16 15  1  0
 16  8  1  0
 17 18  2  0
 17 19  1  0
 19 20  1  0
 21 20  1  0
 21 22  1  0
 23 21  2  0
M  END
$$$$
