QQG.pdb
     RDKit          3D

 23 22  0  0  1  0  0  0  0  0999 V2000
   26.5363  -17.6759  -14.7985 N   0  0  0  0  0  0  0  0  0  0  0  0
   26.3717  -16.7580  -15.8576 C   0  0  0  0  0  0  0  0  0  0  0  0
   26.0753  -17.1821  -16.9954 O   0  0  0  0  0  0  0  0  0  0  0  0
   26.5408  -15.3019  -15.6588 C   0  0  0  0  0  0  0  0  0  0  0  0
   25.3362  -14.5363  -16.2039 C   0  0  0  0  0  0  0  0  0  0  0  0
   25.5679  -13.0606  -16.0094 C   0  0  2  0  0  0  0  0  0  0  0  0
   25.9982  -12.7838  -14.6693 N   0  0  0  0  0  0  0  0  0  0  0  0
   24.3391  -12.3240  -16.3777 C   0  0  0  0  0  0  0  0  0  0  0  0
   23.8961  -12.4050  -17.5642 O   0  0  0  0  0  0  0  0  0  0  0  0
   19.6886  -12.2236  -17.7376 N   0  0  0  0  0  0  0  0  0  0  0  0
   19.1330  -11.2959  -16.8249 C   0  0  0  0  0  0  0  0  0  0  0  0
   17.9775  -10.8315  -17.0269 O   0  0  0  0  0  0  0  0  0  0  0  0
   19.8617  -10.8501  -15.6244 C   0  0  0  0  0  0  0  0  0  0  0  0
   21.1877  -11.4434  -15.3865 C   0  0  0  0  0  0  0  0  0  0  0  0
   22.3933  -10.7719  -15.9334 C   0  0  2  0  0  0  0  0  0  0  0  0
   23.6016  -11.5134  -15.4787 N   0  0  0  0  0  0  0  0  0  0  0  0
   22.6232   -9.3727  -15.5761 C   0  0  0  0  0  0  0  0  0  0  0  0
   23.0405   -8.9768  -14.4379 O   0  0  0  0  0  0  0  0  0  0  0  0
   22.3910   -8.3010  -16.5045 N   0  0  0  0  0  0  0  0  0  0  0  0
   22.5316   -6.9169  -16.1217 C   0  0  0  0  0  0  0  0  0  0  0  0
   21.3535   -6.4474  -15.3303 C   0  0  0  0  0  0  0  0  0  0  0  0
   21.2771   -5.1924  -14.7826 O   0  0  0  0  0  0  0  0  0  0  0  0
   20.4051   -7.2291  -15.1632 O   0  0  0  0  0  0  0  0  0  0  0  0
  1  2  1  0
  2  3  2  0
  4  5  1  0
  4  2  1  0
  6  8  1  0
  6  7  1  1
  6  5  1  0
  8  9  2  0
 10 11  1  0
 11 12  2  0
 13 11  1  0
 13 14  1  0
 15 14  1  1
 15 17  1  0
 16 15  1  0
 16  8  1  0
 17 18  2  0
 17 19  1  0
 19 20  1  0
 21 20  1  0
 21 22  1  0
 23 21  2  0
M  END
$$$$
