QQG.pdb
     RDKit          3D

 23 22  0  0  1  0  0  0  0  0999 V2000
   15.6443   -9.1005  -14.5039 N   0  0  0  0  0  0  0  0  0  0  0  0
   15.7535   -9.8922  -15.6668 C   0  0  0  0  0  0  0  0  0  0  0  0
   14.7552  -10.5254  -16.0728 O   0  0  0  0  0  0  0  0  0  0  0  0
   17.0211   -9.9945  -16.4225 C   0  0  0  0  0  0  0  0  0  0  0  0
   18.0730   -9.0466  -15.8487 C   0  0  0  0  0  0  0  0  0  0  0  0
   19.3498   -9.8138  -15.6242 C   0  0  2  0  0  0  0  0  0  0  0  0
   19.1434  -10.8879  -14.6962 N   0  0  0  0  0  0  0  0  0  0  0  0
   20.4079   -8.8771  -15.1866 C   0  0  0  0  0  0  0  0  0  0  0  0
   20.4287   -8.4794  -13.9817 O   0  0  0  0  0  0  0  0  0  0  0  0
   26.3379   -9.6815  -16.3511 N   0  0  0  0  0  0  0  0  0  0  0  0
   25.4731  -10.1845  -15.3504 C   0  0  0  0  0  0  0  0  0  0  0  0
   25.8100  -11.1999  -14.6817 O   0  0  0  0  0  0  0  0  0  0  0  0
   24.1764   -9.5527  -15.0499 C   0  0  0  0  0  0  0  0  0  0  0  0
   23.8315   -8.3380  -15.8064 C   0  0  0  0  0  0  0  0  0  0  0  0
   22.5770   -7.6127  -15.4845 C   0  0  2  0  0  0  0  0  0  0  0  0
   21.4262   -8.3787  -16.0374 N   0  0  0  0  0  0  0  0  0  0  0  0
   22.4253   -6.2460  -15.9822 C   0  0  0  0  0  0  0  0  0  0  0  0
   22.1141   -5.9441  -17.1815 O   0  0  0  0  0  0  0  0  0  0  0  0
   22.6202   -5.1010  -15.1364 N   0  0  0  0  0  0  0  0  0  0  0  0
   22.4710   -3.7537  -15.6309 C   0  0  0  0  0  0  0  0  0  0  0  0
   21.0534   -3.2898  -15.5310 C   0  0  0  0  0  0  0  0  0  0  0  0
   20.6686   -2.0053  -15.8185 O   0  0  0  0  0  0  0  0  0  0  0  0
   20.1895   -4.1044  -15.1722 O   0  0  0  0  0  0  0  0  0  0  0  0
  1  2  1  0
  2  3  2  0
  4  5  1  0
  4  2  1  0
  6  8  1  0
  6  7  1  1
  6  5  1  0
  8  9  2  0
 10 11  1  0
 11 12  2  0
 13 11  1  0
 13 14  1  0
 15 14  1  6
 15 17  1  0
 16 15  1  0
 16  8  1  0
 17 18  2  0
 17 19  1  0
 19 20  1  0
 21 20  1  0
 21 22  1  0
 23 21  2  0
M  END
$$$$
