QET.pdb
     RDKit          3D

 26 25  0  0  1  0  0  0  0  0999 V2000
   16.6583  -15.2334  -13.8484 N   0  0  0  0  0  0  0  0  0  0  0  0
   15.5804  -15.5685  -14.7170 C   0  0  0  0  0  0  0  0  0  0  0  0
   14.8126  -16.4779  -14.3629 O   0  0  0  0  0  0  0  0  0  0  0  0
   15.4134  -14.8436  -15.9781 C   0  0  0  0  0  0  0  0  0  0  0  0
   16.3471  -13.7002  -16.1643 C   0  0  0  0  0  0  0  0  0  0  0  0
   16.2066  -12.9721  -17.4608 C   0  0  2  0  0  0  0  0  0  0  0  0
   16.6397  -13.8668  -18.5302 N   0  0  0  0  0  0  0  0  0  0  0  0
   17.0731  -11.7458  -17.4410 C   0  0  0  0  0  0  0  0  0  0  0  0
   18.1839  -11.8139  -18.0306 O   0  0  0  0  0  0  0  0  0  0  0  0
   16.6569  -10.5618  -16.7854 N   0  0  0  0  0  0  0  0  0  0  0  0
   17.5026   -9.3701  -16.9473 C   0  0  1  0  0  0  0  0  0  0  0  0
   16.6141   -8.1618  -16.8149 C   0  0  0  0  0  0  0  0  0  0  0  0
   17.3110   -6.8569  -16.9300 C   0  0  0  0  0  0  0  0  0  0  0  0
   16.4230   -5.6917  -16.8241 C   0  0  0  0  0  0  0  0  0  0  0  0
   15.2116   -5.7742  -16.5646 O   0  0  0  0  0  0  0  0  0  0  0  0
   18.5930   -9.3824  -15.9457 C   0  0  0  0  0  0  0  0  0  0  0  0
   18.3737   -9.7108  -14.7608 O   0  0  0  0  0  0  0  0  0  0  0  0
   16.9801   -4.4283  -17.0278 O   0  0  0  0  0  0  0  0  0  0  0  0
   23.4848   -8.9916  -14.9729 C   0  0  0  0  0  0  0  0  0  0  0  0
   22.3706   -8.9728  -15.9904 C   0  0  1  0  0  0  0  0  0  0  0  0
   22.4668  -10.1415  -16.7427 O   0  0  0  0  0  0  0  0  0  0  0  0
   21.0111   -8.9853  -15.3275 C   0  0  2  0  0  0  0  0  0  0  0  0
   19.9287   -9.0222  -16.2916 N   0  0  0  0  0  0  0  0  0  0  0  0
   20.8233   -7.8308  -14.4237 C   0  0  0  0  0  0  0  0  0  0  0  0
   20.9738   -7.9365  -13.0511 O   0  0  0  0  0  0  0  0  0  0  0  0
   20.5164   -6.7011  -14.8846 O   0  0  0  0  0  0  0  0  0  0  0  0
  1  2  1  0
  2  4  1  0
  3  2  2  0
  4  5  1  0
  5  6  1  0
  6  7  1  6
  6  8  1  0
  8 10  1  0
  8  9  2  0
 10 11  1  0
 11 16  1  0
 11 12  1  1
 13 12  1  0
 13 14  1  0
 14 15  2  0
 16 17  2  0
 18 14  1  0
 20 19  1  1
 20 21  1  0
 20 22  1  0
 22 24  1  0
 22 23  1  6
 23 16  1  0
 24 25  1  0
 26 24  2  0
M  END
$$$$
