QET.pdb
     RDKit          3D

 26 25  0  0  1  0  0  0  0  0999 V2000
   17.9567  -15.8697  -15.0727 N   0  0  0  0  0  0  0  0  0  0  0  0
   17.0486  -15.5933  -16.1347 C   0  0  0  0  0  0  0  0  0  0  0  0
   16.0002  -16.2566  -16.1874 O   0  0  0  0  0  0  0  0  0  0  0  0
   17.3729  -14.5541  -17.1138 C   0  0  0  0  0  0  0  0  0  0  0  0
   18.7714  -14.0508  -17.0435 C   0  0  0  0  0  0  0  0  0  0  0  0
   19.0424  -13.0851  -15.9369 C   0  0  2  0  0  0  0  0  0  0  0  0
   17.8673  -13.0494  -15.0711 N   0  0  0  0  0  0  0  0  0  0  0  0
   19.2908  -11.7213  -16.5143 C   0  0  0  0  0  0  0  0  0  0  0  0
   20.2175  -11.6123  -17.3602 O   0  0  0  0  0  0  0  0  0  0  0  0
   18.5140  -10.6042  -16.1225 N   0  0  0  0  0  0  0  0  0  0  0  0
   18.8970   -9.2937  -16.6678 C   0  0  1  0  0  0  0  0  0  0  0  0
   17.7025   -8.7394  -17.3978 C   0  0  0  0  0  0  0  0  0  0  0  0
   17.9015   -7.3950  -17.9935 C   0  0  0  0  0  0  0  0  0  0  0  0
   16.7242   -6.8718  -18.6990 C   0  0  0  0  0  0  0  0  0  0  0  0
   16.7031   -5.7725  -19.2759 O   0  0  0  0  0  0  0  0  0  0  0  0
   19.3549   -8.4045  -15.5760 C   0  0  0  0  0  0  0  0  0  0  0  0
   18.8172   -8.4407  -14.4493 O   0  0  0  0  0  0  0  0  0  0  0  0
   15.5723   -7.6597  -18.7162 O   0  0  0  0  0  0  0  0  0  0  0  0
   22.6748   -5.0179  -13.9607 C   0  0  0  0  0  0  0  0  0  0  0  0
   22.1877   -5.9081  -15.0776 C   0  0  1  0  0  0  0  0  0  0  0  0
   23.1250   -6.9252  -15.2453 O   0  0  0  0  0  0  0  0  0  0  0  0
   20.8743   -6.5716  -14.7280 C   0  0  2  0  0  0  0  0  0  0  0  0
   20.4213   -7.4770  -15.7660 N   0  0  0  0  0  0  0  0  0  0  0  0
   19.8123   -5.5842  -14.4413 C   0  0  0  0  0  0  0  0  0  0  0  0
   19.4831   -5.2094  -13.1494 O   0  0  0  0  0  0  0  0  0  0  0  0
   19.1674   -5.0481  -15.3790 O   0  0  0  0  0  0  0  0  0  0  0  0
  1  2  1  0
  2  4  1  0
  3  2  2  0
  4  5  1  0
  5  6  1  0
  6  7  1  1
  6  8  1  0
  8 10  1  0
  8  9  2  0
 10 11  1  0
 11 16  1  0
 11 12  1  1
 13 12  1  0
 13 14  1  0
 14 15  2  0
 16 17  2  0
 18 14  1  0
 20 19  1  1
 20 21  1  0
 20 22  1  0
 22 24  1  0
 22 23  1  6
 23 16  1  0
 24 25  1  0
 26 24  2  0
M  END
$$$$
