QET.pdb
     RDKit          3D

 26 25  0  0  1  0  0  0  0  0999 V2000
   25.1259  -11.3394  -20.4464 N   0  0  0  0  0  0  0  0  0  0  0  0
   24.6942  -12.6896  -20.3077 C   0  0  0  0  0  0  0  0  0  0  0  0
   25.4979  -13.5880  -20.6058 O   0  0  0  0  0  0  0  0  0  0  0  0
   23.3407  -12.9721  -19.8263 C   0  0  0  0  0  0  0  0  0  0  0  0
   22.5181  -11.7646  -19.5446 C   0  0  0  0  0  0  0  0  0  0  0  0
   21.8884  -11.7285  -18.1908 C   0  0  2  0  0  0  0  0  0  0  0  0
   20.8961  -12.7977  -18.1260 N   0  0  0  0  0  0  0  0  0  0  0  0
   21.2189  -10.3999  -17.9871 C   0  0  0  0  0  0  0  0  0  0  0  0
   20.2544  -10.1167  -18.7457 O   0  0  0  0  0  0  0  0  0  0  0  0
   21.6557   -9.5028  -16.9824 N   0  0  0  0  0  0  0  0  0  0  0  0
   20.8824   -8.2654  -16.8027 C   0  0  1  0  0  0  0  0  0  0  0  0
   19.5052   -8.6549  -16.3351 C   0  0  0  0  0  0  0  0  0  0  0  0
   18.6060   -7.5173  -16.0206 C   0  0  0  0  0  0  0  0  0  0  0  0
   17.2496   -7.9174  -15.6233 C   0  0  0  0  0  0  0  0  0  0  0  0
   16.9186   -8.1454  -14.4485 O   0  0  0  0  0  0  0  0  0  0  0  0
   21.5723   -7.3708  -15.8456 C   0  0  0  0  0  0  0  0  0  0  0  0
   21.9460   -7.7890  -14.7297 O   0  0  0  0  0  0  0  0  0  0  0  0
   16.2886   -8.0454  -16.6272 O   0  0  0  0  0  0  0  0  0  0  0  0
   24.2090   -4.5571  -17.1337 C   0  0  0  0  0  0  0  0  0  0  0  0
   23.2874   -4.0192  -16.0668 C   0  0  1  0  0  0  0  0  0  0  0  0
   22.2790   -3.2996  -16.7043 O   0  0  0  0  0  0  0  0  0  0  0  0
   22.6150   -5.1347  -15.2979 C   0  0  2  0  0  0  0  0  0  0  0  0
   21.8362   -6.0046  -16.1577 N   0  0  0  0  0  0  0  0  0  0  0  0
   21.7540   -4.6202  -14.2120 C   0  0  0  0  0  0  0  0  0  0  0  0
   22.2669   -3.9190  -13.1336 O   0  0  0  0  0  0  0  0  0  0  0  0
   20.5104   -4.8086  -14.2383 O   0  0  0  0  0  0  0  0  0  0  0  0
  1  2  1  0
  2  4  1  0
  3  2  2  0
  4  5  1  0
  5  6  1  0
  6  7  1  6
  6  8  1  0
  8 10  1  0
  8  9  2  0
 10 11  1  0
 11 16  1  0
 11 12  1  1
 13 12  1  0
 13 14  1  0
 14 15  2  0
 16 17  2  0
 18 14  1  0
 20 19  1  6
 20 21  1  0
 20 22  1  0
 22 24  1  0
 22 23  1  6
 23 16  1  0
 24 25  1  0
 26 24  2  0
M  END
$$$$
