QET.pdb
     RDKit          3D

 26 25  0  0  1  0  0  0  0  0999 V2000
   18.1419  -15.5360  -19.5175 N   0  0  0  0  0  0  0  0  0  0  0  0
   18.3877  -16.1217  -18.2427 C   0  0  0  0  0  0  0  0  0  0  0  0
   18.0556  -17.3065  -18.0761 O   0  0  0  0  0  0  0  0  0  0  0  0
   19.0132  -15.3235  -17.1866 C   0  0  0  0  0  0  0  0  0  0  0  0
   19.3545  -13.9303  -17.5822 C   0  0  0  0  0  0  0  0  0  0  0  0
   20.0525  -13.1270  -16.5343 C   0  0  2  0  0  0  0  0  0  0  0  0
   19.4291  -13.4242  -15.2479 N   0  0  0  0  0  0  0  0  0  0  0  0
   19.9054  -11.6653  -16.8455 C   0  0  0  0  0  0  0  0  0  0  0  0
   20.4247  -11.2471  -17.9139 O   0  0  0  0  0  0  0  0  0  0  0  0
   19.2107  -10.7938  -15.9720 N   0  0  0  0  0  0  0  0  0  0  0  0
   19.0120   -9.4082  -16.4217 C   0  0  1  0  0  0  0  0  0  0  0  0
   17.6287   -8.9885  -16.0005 C   0  0  0  0  0  0  0  0  0  0  0  0
   17.2686   -7.5897  -16.3401 C   0  0  0  0  0  0  0  0  0  0  0  0
   15.9106   -7.2048  -15.9336 C   0  0  0  0  0  0  0  0  0  0  0  0
   15.6713   -6.3835  -15.0336 O   0  0  0  0  0  0  0  0  0  0  0  0
   20.0649   -8.5352  -15.8545 C   0  0  0  0  0  0  0  0  0  0  0  0
   20.5803   -8.7874  -14.7452 O   0  0  0  0  0  0  0  0  0  0  0  0
   14.8385   -7.7995  -16.6004 O   0  0  0  0  0  0  0  0  0  0  0  0
   23.1401   -4.6291  -16.4598 C   0  0  0  0  0  0  0  0  0  0  0  0
   22.0663   -5.5196  -17.0351 C   0  0  1  0  0  0  0  0  0  0  0  0
   22.6530   -6.2987  -18.0302 O   0  0  0  0  0  0  0  0  0  0  0  0
   21.5168   -6.4715  -15.9960 C   0  0  2  0  0  0  0  0  0  0  0  0
   20.5297   -7.3790  -16.5478 N   0  0  0  0  0  0  0  0  0  0  0  0
   20.9337   -5.7565  -14.8411 C   0  0  0  0  0  0  0  0  0  0  0  0
   21.6468   -5.5336  -13.6751 O   0  0  0  0  0  0  0  0  0  0  0  0
   19.7533   -5.3235  -14.8866 O   0  0  0  0  0  0  0  0  0  0  0  0
  1  2  1  0
  2  4  1  0
  3  2  2  0
  4  5  1  0
  5  6  1  0
  6  7  1  1
  6  8  1  0
  8 10  1  0
  8  9  2  0
 10 11  1  0
 11 16  1  0
 11 12  1  1
 13 12  1  0
 13 14  1  0
 14 15  2  0
 16 17  2  0
 18 14  1  0
 20 19  1  1
 20 21  1  0
 20 22  1  0
 22 24  1  0
 22 23  1  6
 23 16  1  0
 24 25  1  0
 26 24  2  0
M  END
$$$$
