QET.pdb
     RDKit          3D

 26 25  0  0  1  0  0  0  0  0999 V2000
   31.5977  -25.4163  -15.0774 N   0  0  0  0  0  0  0  0  0  0  0  0
   32.1314  -25.1909  -16.3786 C   0  0  0  0  0  0  0  0  0  0  0  0
   32.9798  -25.9919  -16.8033 O   0  0  0  0  0  0  0  0  0  0  0  0
   31.6716  -24.0424  -17.1617 C   0  0  0  0  0  0  0  0  0  0  0  0
   30.7202  -23.1472  -16.4494 C   0  0  0  0  0  0  0  0  0  0  0  0
   29.2806  -23.5254  -16.5733 C   0  0  2  0  0  0  0  0  0  0  0  0
   29.0322  -23.9077  -17.9604 N   0  0  0  0  0  0  0  0  0  0  0  0
   28.4223  -22.3485  -16.2083 C   0  0  0  0  0  0  0  0  0  0  0  0
   28.5528  -21.8762  -15.0481 O   0  0  0  0  0  0  0  0  0  0  0  0
   27.5038  -21.7936  -17.1320 N   0  0  0  0  0  0  0  0  0  0  0  0
   26.5923  -20.7538  -16.6325 C   0  0  1  0  0  0  0  0  0  0  0  0
   26.0897  -19.9810  -17.8230 C   0  0  0  0  0  0  0  0  0  0  0  0
   25.1020  -18.9193  -17.5084 C   0  0  0  0  0  0  0  0  0  0  0  0
   24.5804  -18.2170  -18.6883 C   0  0  0  0  0  0  0  0  0  0  0  0
   25.2847  -17.5253  -19.4414 O   0  0  0  0  0  0  0  0  0  0  0  0
   25.4942  -21.3727  -15.8557 C   0  0  0  0  0  0  0  0  0  0  0  0
   25.0926  -22.5260  -16.1172 O   0  0  0  0  0  0  0  0  0  0  0  0
   23.2190  -18.3400  -18.9698 O   0  0  0  0  0  0  0  0  0  0  0  0
   23.2880  -21.9839  -11.5909 C   0  0  0  0  0  0  0  0  0  0  0  0
   24.3820  -21.5146  -12.5182 C   0  0  1  0  0  0  0  0  0  0  0  0
   25.3394  -22.5246  -12.5860 O   0  0  0  0  0  0  0  0  0  0  0  0
   23.8664  -21.3003  -13.9239 C   0  0  2  0  0  0  0  0  0  0  0  0
   24.8552  -20.6811  -14.7848 N   0  0  0  0  0  0  0  0  0  0  0  0
   22.6265  -20.4957  -13.9440 C   0  0  0  0  0  0  0  0  0  0  0  0
   22.5583  -19.2614  -14.5681 O   0  0  0  0  0  0  0  0  0  0  0  0
   21.5813  -20.9175  -13.3850 O   0  0  0  0  0  0  0  0  0  0  0  0
  1  2  1  0
  2  4  1  0
  3  2  2  0
  4  5  1  0
  5  6  1  0
  6  7  1  6
  6  8  1  0
  8 10  1  0
  8  9  2  0
 10 11  1  0
 11 16  1  0
 11 12  1  6
 13 12  1  0
 13 14  1  0
 14 15  2  0
 16 17  2  0
 18 14  1  0
 20 19  1  1
 20 21  1  0
 20 22  1  0
 22 24  1  0
 22 23  1  6
 23 16  1  0
 24 25  1  0
 26 24  2  0
M  END
$$$$
