QET.pdb
     RDKit          3D

 26 25  0  0  1  0  0  0  0  0999 V2000
   20.2579  -14.5468  -18.7081 N   0  0  0  0  0  0  0  0  0  0  0  0
   19.6145  -15.1561  -17.5929 C   0  0  0  0  0  0  0  0  0  0  0  0
   19.6952  -16.3901  -17.4810 O   0  0  0  0  0  0  0  0  0  0  0  0
   18.8909  -14.3238  -16.6299 C   0  0  0  0  0  0  0  0  0  0  0  0
   18.9809  -12.8606  -16.8841 C   0  0  0  0  0  0  0  0  0  0  0  0
   18.3540  -11.9962  -15.8398 C   0  0  2  0  0  0  0  0  0  0  0  0
   16.9114  -12.2184  -15.8765 N   0  0  0  0  0  0  0  0  0  0  0  0
   18.6548  -10.5555  -16.1380 C   0  0  0  0  0  0  0  0  0  0  0  0
   18.9040  -10.2532  -17.3349 O   0  0  0  0  0  0  0  0  0  0  0  0
   18.6578   -9.5777  -15.1138 N   0  0  0  0  0  0  0  0  0  0  0  0
   18.8923   -8.1831  -15.5156 C   0  0  1  0  0  0  0  0  0  0  0  0
   17.6076   -7.4273  -15.3024 C   0  0  0  0  0  0  0  0  0  0  0  0
   17.6743   -5.9786  -15.6161 C   0  0  0  0  0  0  0  0  0  0  0  0
   16.4193   -5.2546  -15.3749 C   0  0  0  0  0  0  0  0  0  0  0  0
   16.1878   -4.6101  -14.3392 O   0  0  0  0  0  0  0  0  0  0  0  0
   20.0181   -7.6145  -14.7399 C   0  0  0  0  0  0  0  0  0  0  0  0
   20.1612   -7.8780  -13.5275 O   0  0  0  0  0  0  0  0  0  0  0  0
   15.4406   -5.2996  -16.3689 O   0  0  0  0  0  0  0  0  0  0  0  0
   23.8097   -7.6646  -15.8661 C   0  0  0  0  0  0  0  0  0  0  0  0
   23.3839   -6.2609  -15.5119 C   0  0  1  0  0  0  0  0  0  0  0  0
   23.0477   -5.6105  -16.6972 O   0  0  0  0  0  0  0  0  0  0  0  0
   22.1477   -6.2573  -14.6405 C   0  0  2  0  0  0  0  0  0  0  0  0
   20.9779   -6.7487  -15.3422 N   0  0  0  0  0  0  0  0  0  0  0  0
   21.8609   -4.9161  -14.0890 C   0  0  0  0  0  0  0  0  0  0  0  0
   22.6333   -4.3494  -13.0889 O   0  0  0  0  0  0  0  0  0  0  0  0
   20.8908   -4.2413  -14.5204 O   0  0  0  0  0  0  0  0  0  0  0  0
  1  2  1  0
  2  4  1  0
  3  2  2  0
  4  5  1  0
  5  6  1  0
  6  7  1  6
  6  8  1  0
  8 10  1  0
  8  9  2  0
 10 11  1  0
 11 16  1  0
 11 12  1  1
 13 12  1  0
 13 14  1  0
 14 15  2  0
 16 17  2  0
 18 14  1  0
 20 19  1  6
 20 21  1  0
 20 22  1  0
 22 24  1  0
 22 23  1  6
 23 16  1  0
 24 25  1  0
 26 24  2  0
M  END
$$$$
