QET.pdb
     RDKit          3D

 26 25  0  0  1  0  0  0  0  0999 V2000
   15.8385  -13.2363  -10.9855 N   0  0  0  0  0  0  0  0  0  0  0  0
   14.6979  -12.3832  -10.9812 C   0  0  0  0  0  0  0  0  0  0  0  0
   13.6375  -12.8366  -10.5212 O   0  0  0  0  0  0  0  0  0  0  0  0
   14.8086  -11.0223  -11.5097 C   0  0  0  0  0  0  0  0  0  0  0  0
   16.1843  -10.6236  -11.9127 C   0  0  0  0  0  0  0  0  0  0  0  0
   16.3026   -9.2517  -12.4911 C   0  0  2  0  0  0  0  0  0  0  0  0
   15.4169   -9.1722  -13.6492 N   0  0  0  0  0  0  0  0  0  0  0  0
   17.7219   -9.0109  -12.9185 C   0  0  0  0  0  0  0  0  0  0  0  0
   18.6061   -9.0293  -12.0218 O   0  0  0  0  0  0  0  0  0  0  0  0
   18.0511   -8.7729  -14.2749 N   0  0  0  0  0  0  0  0  0  0  0  0
   19.4751   -8.6118  -14.6034 C   0  0  1  0  0  0  0  0  0  0  0  0
   19.7575   -9.4507  -15.8214 C   0  0  0  0  0  0  0  0  0  0  0  0
   19.6418  -10.9153  -15.6131 C   0  0  0  0  0  0  0  0  0  0  0  0
   19.7952  -11.7091  -16.8394 C   0  0  0  0  0  0  0  0  0  0  0  0
   19.9176  -11.2088  -17.9692 O   0  0  0  0  0  0  0  0  0  0  0  0
   19.7870   -7.1804  -14.8183 C   0  0  0  0  0  0  0  0  0  0  0  0
   19.0207   -6.4476  -15.4784 O   0  0  0  0  0  0  0  0  0  0  0  0
   19.8025  -13.0995  -16.7179 O   0  0  0  0  0  0  0  0  0  0  0  0
   19.9991   -4.3820  -12.5059 C   0  0  0  0  0  0  0  0  0  0  0  0
   21.3508   -4.4213  -13.1756 C   0  0  1  0  0  0  0  0  0  0  0  0
   22.2203   -5.1075  -12.3305 O   0  0  0  0  0  0  0  0  0  0  0  0
   21.3045   -5.1882  -14.4784 C   0  0  2  0  0  0  0  0  0  0  0  0
   20.9672   -6.5849  -14.2835 N   0  0  0  0  0  0  0  0  0  0  0  0
   22.5762   -5.0908  -15.2256 C   0  0  0  0  0  0  0  0  0  0  0  0
   23.0489   -3.8880  -15.7233 O   0  0  0  0  0  0  0  0  0  0  0  0
   23.2759   -6.1155  -15.4335 O   0  0  0  0  0  0  0  0  0  0  0  0
  1  2  1  0
  2  4  1  0
  3  2  2  0
  4  5  1  0
  5  6  1  0
  6  7  1  6
  6  8  1  0
  8 10  1  0
  8  9  2  0
 10 11  1  0
 11 16  1  0
 11 12  1  6
 13 12  1  0
 13 14  1  0
 14 15  2  0
 16 17  2  0
 18 14  1  0
 20 19  1  1
 20 21  1  0
 20 22  1  0
 22 24  1  0
 22 23  1  1
 23 16  1  0
 24 25  1  0
 26 24  2  0
M  END
$$$$
