QET.pdb
     RDKit          3D

 26 25  0  0  1  0  0  0  0  0999 V2000
   25.0099  -13.4102  -21.3526 N   0  0  0  0  0  0  0  0  0  0  0  0
   23.5862  -13.3958  -21.3106 C   0  0  0  0  0  0  0  0  0  0  0  0
   22.9773  -13.2187  -22.3782 O   0  0  0  0  0  0  0  0  0  0  0  0
   22.8967  -13.5871  -20.0333 C   0  0  0  0  0  0  0  0  0  0  0  0
   22.1583  -12.3923  -19.5423 C   0  0  0  0  0  0  0  0  0  0  0  0
   22.7551  -11.7259  -18.3462 C   0  0  2  0  0  0  0  0  0  0  0  0
   22.6561  -12.6487  -17.2191 N   0  0  0  0  0  0  0  0  0  0  0  0
   21.9923  -10.4685  -18.0430 C   0  0  0  0  0  0  0  0  0  0  0  0
   21.9269   -9.5992  -18.9519 O   0  0  0  0  0  0  0  0  0  0  0  0
   21.3723  -10.2696  -16.7856 N   0  0  0  0  0  0  0  0  0  0  0  0
   20.6716   -8.9944  -16.5750 C   0  0  1  0  0  0  0  0  0  0  0  0
   19.3253   -9.3096  -15.9787 C   0  0  0  0  0  0  0  0  0  0  0  0
   19.1095  -10.7381  -15.6407 C   0  0  0  0  0  0  0  0  0  0  0  0
   17.7896  -11.0246  -15.0633 C   0  0  0  0  0  0  0  0  0  0  0  0
   16.9563  -11.7750  -15.5965 O   0  0  0  0  0  0  0  0  0  0  0  0
   21.4807   -8.1086  -15.7073 C   0  0  0  0  0  0  0  0  0  0  0  0
   21.8532   -8.4830  -14.5755 O   0  0  0  0  0  0  0  0  0  0  0  0
   17.4639  -10.4161  -13.8503 O   0  0  0  0  0  0  0  0  0  0  0  0
   24.4281   -5.6235  -17.0594 C   0  0  0  0  0  0  0  0  0  0  0  0
   23.4584   -4.9257  -16.1376 C   0  0  1  0  0  0  0  0  0  0  0  0
   22.5427   -4.2381  -16.9312 O   0  0  0  0  0  0  0  0  0  0  0  0
   22.6691   -5.9141  -15.3084 C   0  0  2  0  0  0  0  0  0  0  0  0
   21.8648   -6.8008  -16.1264 N   0  0  0  0  0  0  0  0  0  0  0  0
   21.8028   -5.2409  -14.3177 C   0  0  0  0  0  0  0  0  0  0  0  0
   20.4241   -5.3709  -14.3345 O   0  0  0  0  0  0  0  0  0  0  0  0
   22.3028   -4.5192  -13.4167 O   0  0  0  0  0  0  0  0  0  0  0  0
  1  2  1  0
  2  4  1  0
  3  2  2  0
  4  5  1  0
  5  6  1  0
  6  7  1  1
  6  8  1  0
  8 10  1  0
  8  9  2  0
 10 11  1  0
 11 16  1  0
 11 12  1  1
 13 12  1  0
 13 14  1  0
 14 15  2  0
 16 17  2  0
 18 14  1  0
 20 19  1  6
 20 21  1  0
 20 22  1  0
 22 24  1  0
 22 23  1  6
 23 16  1  0
 24 25  1  0
 26 24  2  0
M  END
$$$$
