QET.pdb
     RDKit          3D

 26 25  0  0  1  0  0  0  0  0999 V2000
   20.7828  -16.0760  -14.2284 N   0  0  0  0  0  0  0  0  0  0  0  0
   19.9306  -17.0181  -14.8726 C   0  0  0  0  0  0  0  0  0  0  0  0
   19.9441  -18.1887  -14.4588 O   0  0  0  0  0  0  0  0  0  0  0  0
   19.0798  -16.5853  -15.9827 C   0  0  0  0  0  0  0  0  0  0  0  0
   19.1737  -15.1363  -16.3075 C   0  0  0  0  0  0  0  0  0  0  0  0
   17.9119  -14.5171  -16.8126 C   0  0  2  0  0  0  0  0  0  0  0  0
   17.5832  -15.1411  -18.0911 N   0  0  0  0  0  0  0  0  0  0  0  0
   18.1218  -13.0426  -17.0050 C   0  0  0  0  0  0  0  0  0  0  0  0
   18.5916  -12.6655  -18.1110 O   0  0  0  0  0  0  0  0  0  0  0  0
   17.8039  -12.1152  -15.9834 N   0  0  0  0  0  0  0  0  0  0  0  0
   17.9108  -10.6867  -16.3143 C   0  0  1  0  0  0  0  0  0  0  0  0
   16.6992   -9.9972  -15.7453 C   0  0  0  0  0  0  0  0  0  0  0  0
   15.4110  -10.3704  -16.3801 C   0  0  0  0  0  0  0  0  0  0  0  0
   14.2299  -10.0739  -15.5588 C   0  0  0  0  0  0  0  0  0  0  0  0
   13.4206  -10.9380  -15.1846 O   0  0  0  0  0  0  0  0  0  0  0  0
   19.1773  -10.1360  -15.7804 C   0  0  0  0  0  0  0  0  0  0  0  0
   19.6473  -10.5401  -14.6961 O   0  0  0  0  0  0  0  0  0  0  0  0
   14.0144   -8.7469  -15.1839 O   0  0  0  0  0  0  0  0  0  0  0  0
   23.2122   -7.2700  -16.4710 C   0  0  0  0  0  0  0  0  0  0  0  0
   21.9256   -7.8319  -17.0240 C   0  0  1  0  0  0  0  0  0  0  0  0
   22.2598   -8.8058  -17.9626 O   0  0  0  0  0  0  0  0  0  0  0  0
   21.1096   -8.5160  -15.9498 C   0  0  2  0  0  0  0  0  0  0  0  0
   19.9066   -9.1288  -16.4784 N   0  0  0  0  0  0  0  0  0  0  0  0
   20.7481   -7.5919  -14.8541 C   0  0  0  0  0  0  0  0  0  0  0  0
   21.4749   -7.5231  -13.6773 O   0  0  0  0  0  0  0  0  0  0  0  0
   19.7532   -6.8296  -14.9625 O   0  0  0  0  0  0  0  0  0  0  0  0
  1  2  1  0
  2  4  1  0
  3  2  2  0
  4  5  1  0
  5  6  1  0
  6  7  1  6
  6  8  1  0
  8 10  1  0
  8  9  2  0
 10 11  1  0
 11 16  1  0
 11 12  1  1
 13 12  1  0
 13 14  1  0
 14 15  2  0
 16 17  2  0
 18 14  1  0
 20 19  1  1
 20 21  1  0
 20 22  1  0
 22 24  1  0
 22 23  1  6
 23 16  1  0
 24 25  1  0
 26 24  2  0
M  END
$$$$
