QET.pdb
     RDKit          3D

 26 25  0  0  1  0  0  0  0  0999 V2000
   14.8554  -24.2850   -7.4921 N   0  0  0  0  0  0  0  0  0  0  0  0
   15.1047  -24.1672   -6.0947 C   0  0  0  0  0  0  0  0  0  0  0  0
   14.1519  -24.3484   -5.3194 O   0  0  0  0  0  0  0  0  0  0  0  0
   16.4523  -23.8422   -5.6236 C   0  0  0  0  0  0  0  0  0  0  0  0
   17.4597  -23.6611   -6.7035 C   0  0  0  0  0  0  0  0  0  0  0  0
   18.0164  -24.9263   -7.2693 C   0  0  2  0  0  0  0  0  0  0  0  0
   18.9207  -25.5041   -6.2793 N   0  0  0  0  0  0  0  0  0  0  0  0
   18.7716  -24.6192   -8.5304 C   0  0  0  0  0  0  0  0  0  0  0  0
   20.0117  -24.4247   -8.4282 O   0  0  0  0  0  0  0  0  0  0  0  0
   18.1147  -24.5512   -9.7829 N   0  0  0  0  0  0  0  0  0  0  0  0
   18.9521  -24.3297  -10.9709 C   0  0  1  0  0  0  0  0  0  0  0  0
   18.4775  -25.2742  -12.0431 C   0  0  0  0  0  0  0  0  0  0  0  0
   19.1668  -25.1350  -13.3497 C   0  0  0  0  0  0  0  0  0  0  0  0
   18.6333  -26.0066  -14.4047 C   0  0  0  0  0  0  0  0  0  0  0  0
   17.7057  -26.8122  -14.2247 O   0  0  0  0  0  0  0  0  0  0  0  0
   18.8720  -22.9120  -11.3905 C   0  0  0  0  0  0  0  0  0  0  0  0
   17.8464  -22.2338  -11.1712 O   0  0  0  0  0  0  0  0  0  0  0  0
   19.2062  -25.9174  -15.6742 O   0  0  0  0  0  0  0  0  0  0  0  0
   21.2632  -18.7868  -12.8043 C   0  0  0  0  0  0  0  0  0  0  0  0
   21.3100  -20.2473  -12.4276 C   0  0  1  0  0  0  0  0  0  0  0  0
   21.7871  -20.3307  -11.1213 O   0  0  0  0  0  0  0  0  0  0  0  0
   19.9309  -20.8684  -12.4342 C   0  0  2  0  0  0  0  0  0  0  0  0
   19.9557  -22.2683  -12.0574 N   0  0  0  0  0  0  0  0  0  0  0  0
   19.2638  -20.7256  -13.7456 C   0  0  0  0  0  0  0  0  0  0  0  0
   18.4534  -19.6438  -14.0468 O   0  0  0  0  0  0  0  0  0  0  0  0
   19.4166  -21.5978  -14.6392 O   0  0  0  0  0  0  0  0  0  0  0  0
  1  2  1  0
  2  4  1  0
  3  2  2  0
  4  5  1  0
  5  6  1  0
  6  7  1  1
  6  8  1  0
  8 10  1  0
  8  9  2  0
 10 11  1  0
 11 16  1  0
 11 12  1  6
 13 12  1  0
 13 14  1  0
 14 15  2  0
 16 17  2  0
 18 14  1  0
 20 19  1  1
 20 21  1  0
 20 22  1  0
 22 24  1  0
 22 23  1  6
 23 16  1  0
 24 25  1  0
 26 24  2  0
M  END
$$$$
