QET.pdb
     RDKit          3D

 26 25  0  0  1  0  0  0  0  0999 V2000
   17.3314  -15.4957  -17.2985 N   0  0  0  0  0  0  0  0  0  0  0  0
   16.9398  -14.3269  -16.5848 C   0  0  0  0  0  0  0  0  0  0  0  0
   15.9009  -13.7498  -16.9446 O   0  0  0  0  0  0  0  0  0  0  0  0
   17.7592  -13.8503  -15.4690 C   0  0  0  0  0  0  0  0  0  0  0  0
   18.8260  -12.8859  -15.8507 C   0  0  0  0  0  0  0  0  0  0  0  0
   18.3670  -11.4784  -16.0477 C   0  0  2  0  0  0  0  0  0  0  0  0
   17.7178  -11.3939  -17.3529 N   0  0  0  0  0  0  0  0  0  0  0  0
   19.5519  -10.5568  -16.0080 C   0  0  0  0  0  0  0  0  0  0  0  0
   20.3022  -10.6239  -14.9987 O   0  0  0  0  0  0  0  0  0  0  0  0
   19.8136   -9.6496  -17.0632 N   0  0  0  0  0  0  0  0  0  0  0  0
   20.9832   -8.7704  -16.9202 C   0  0  1  0  0  0  0  0  0  0  0  0
   21.4871   -8.4569  -18.3040 C   0  0  0  0  0  0  0  0  0  0  0  0
   22.1378   -9.5913  -19.0050 C   0  0  0  0  0  0  0  0  0  0  0  0
   22.6357   -9.2606  -20.3467 C   0  0  0  0  0  0  0  0  0  0  0  0
   23.7982   -8.8882  -20.5741 O   0  0  0  0  0  0  0  0  0  0  0  0
   20.6125   -7.5525  -16.1642 C   0  0  0  0  0  0  0  0  0  0  0  0
   19.5590   -6.9326  -16.4206 O   0  0  0  0  0  0  0  0  0  0  0  0
   21.7471   -9.3740  -21.4169 O   0  0  0  0  0  0  0  0  0  0  0  0
   21.2769   -7.2590  -12.1988 C   0  0  0  0  0  0  0  0  0  0  0  0
   20.3895   -6.3434  -13.0059 C   0  0  1  0  0  0  0  0  0  0  0  0
   20.1771   -5.1906  -12.2529 O   0  0  0  0  0  0  0  0  0  0  0  0
   21.0574   -5.9131  -14.2929 C   0  0  2  0  0  0  0  0  0  0  0  0
   21.4382   -7.0417  -15.1198 N   0  0  0  0  0  0  0  0  0  0  0  0
   22.2421   -5.0640  -14.0469 C   0  0  0  0  0  0  0  0  0  0  0  0
   22.1505   -3.8358  -13.4135 O   0  0  0  0  0  0  0  0  0  0  0  0
   23.3856   -5.4402  -14.4124 O   0  0  0  0  0  0  0  0  0  0  0  0
  1  2  1  0
  2  4  1  0
  3  2  2  0
  4  5  1  0
  5  6  1  0
  6  7  1  6
  6  8  1  0
  8 10  1  0
  8  9  2  0
 10 11  1  0
 11 16  1  0
 11 12  1  6
 13 12  1  0
 13 14  1  0
 14 15  2  0
 16 17  2  0
 18 14  1  0
 20 19  1  1
 20 21  1  0
 20 22  1  0
 22 24  1  0
 22 23  1  1
 23 16  1  0
 24 25  1  0
 26 24  2  0
M  END
$$$$
