QET.pdb
     RDKit          3D

 26 25  0  0  1  0  0  0  0  0999 V2000
   23.6475  -14.7134  -21.0918 N   0  0  0  0  0  0  0  0  0  0  0  0
   22.7394  -15.4367  -20.2665 C   0  0  0  0  0  0  0  0  0  0  0  0
   22.5847  -16.6468  -20.4980 O   0  0  0  0  0  0  0  0  0  0  0  0
   22.0292  -14.7439  -19.1898 C   0  0  0  0  0  0  0  0  0  0  0  0
   22.3095  -13.2854  -19.1002 C   0  0  0  0  0  0  0  0  0  0  0  0
   22.6440  -12.7873  -17.7325 C   0  0  2  0  0  0  0  0  0  0  0  0
   22.1850  -13.7805  -16.7656 N   0  0  0  0  0  0  0  0  0  0  0  0
   21.9433  -11.4811  -17.4918 C   0  0  0  0  0  0  0  0  0  0  0  0
   22.2222  -10.5254  -18.2632 O   0  0  0  0  0  0  0  0  0  0  0  0
   21.0075  -11.3315  -16.4398 N   0  0  0  0  0  0  0  0  0  0  0  0
   20.2964  -10.0479  -16.3492 C   0  0  1  0  0  0  0  0  0  0  0  0
   18.9530  -10.3166  -15.7245 C   0  0  0  0  0  0  0  0  0  0  0  0
   18.1252   -9.1102  -15.4775 C   0  0  0  0  0  0  0  0  0  0  0  0
   16.8428   -9.3880  -14.8173 C   0  0  0  0  0  0  0  0  0  0  0  0
   16.5000  -10.5180  -14.4333 O   0  0  0  0  0  0  0  0  0  0  0  0
   21.0985   -9.0779  -15.5695 C   0  0  0  0  0  0  0  0  0  0  0  0
   21.7435   -9.4393  -14.5629 O   0  0  0  0  0  0  0  0  0  0  0  0
   15.9696   -8.3182  -14.6153 O   0  0  0  0  0  0  0  0  0  0  0  0
   22.9215   -4.4260  -15.1733 C   0  0  0  0  0  0  0  0  0  0  0  0
   22.0609   -5.4085  -15.9290 C   0  0  1  0  0  0  0  0  0  0  0  0
   22.6903   -5.6732  -17.1435 O   0  0  0  0  0  0  0  0  0  0  0  0
   21.9451   -6.7262  -15.1956 C   0  0  2  0  0  0  0  0  0  0  0  0
   21.1664   -7.7010  -15.9343 N   0  0  0  0  0  0  0  0  0  0  0  0
   21.3688   -6.5609  -13.8444 C   0  0  0  0  0  0  0  0  0  0  0  0
   22.1580   -6.5056  -12.7077 O   0  0  0  0  0  0  0  0  0  0  0  0
   20.1244   -6.4642  -13.6873 O   0  0  0  0  0  0  0  0  0  0  0  0
  1  2  1  0
  2  4  1  0
  3  2  2  0
  4  5  1  0
  5  6  1  0
  6  7  1  1
  6  8  1  0
  8 10  1  0
  8  9  2  0
 10 11  1  0
 11 16  1  0
 11 12  1  1
 13 12  1  0
 13 14  1  0
 14 15  2  0
 16 17  2  0
 18 14  1  0
 20 19  1  1
 20 21  1  0
 20 22  1  0
 22 24  1  0
 22 23  1  6
 23 16  1  0
 24 25  1  0
 26 24  2  0
M  END
$$$$
