DWL.pdb
     RDKit          3D

 31 32  0  0  1  0  0  0  0  0999 V2000
   10.4293  -18.1556   20.4572 N   0  0  0  0  0  0  0  0  0  0  0  0
   11.5027  -17.4934   21.1316 C   0  0  1  0  0  0  0  0  0  0  0  0
   12.1052  -16.3813   20.2567 C   0  0  0  0  0  0  0  0  0  0  0  0
   12.8457  -16.9315   19.1004 C   0  0  0  0  0  0  0  0  0  0  0  0
   13.4094  -18.0497   19.1449 O   0  0  0  0  0  0  0  0  0  0  0  0
   10.9688  -16.8179   22.3430 C   0  0  0  0  0  0  0  0  0  0  0  0
   11.5169  -15.7224   22.6883 O   0  0  0  0  0  0  0  0  0  0  0  0
   12.9410  -16.2083   17.8997 O   0  0  0  0  0  0  0  0  0  0  0  0
    9.8943  -17.3521   23.1012 N   0  0  0  0  0  0  0  0  0  0  0  0
    9.3969  -16.6857   24.2733 C   0  0  1  0  0  0  0  0  0  0  0  0
    7.8805  -16.6723   24.3615 C   0  0  0  0  0  0  0  0  0  0  0  0
    7.3684  -15.3369   23.9823 C   0  0  0  0  0  0  0  0  0  0  0  0
    7.0888  -14.9785   22.6671 C   0  0  0  0  0  0  0  0  0  0  0  0
    6.6230  -13.7367   22.6677 N   0  0  0  0  0  0  0  0  0  0  0  0
    6.5789  -13.2489   23.9183 C   0  0  0  0  0  0  0  0  0  0  0  0
    6.1745  -12.0212   24.3729 C   0  0  0  0  0  0  0  0  0  0  0  0
    6.2402  -11.7761   25.7307 C   0  0  0  0  0  0  0  0  0  0  0  0
    6.7072  -12.7737   26.5574 C   0  0  0  0  0  0  0  0  0  0  0  0
    7.1159  -14.0203   26.0801 C   0  0  0  0  0  0  0  0  0  0  0  0
    7.0455  -14.2522   24.7321 C   0  0  0  0  0  0  0  0  0  0  0  0
   10.0196  -17.2414   25.4779 C   0  0  0  0  0  0  0  0  0  0  0  0
   10.7220  -18.3022   25.3407 O   0  0  0  0  0  0  0  0  0  0  0  0
   10.9463  -14.1326   27.9749 C   0  0  0  0  0  0  0  0  0  0  0  0
    9.9328  -15.0190   28.7124 C   0  0  2  0  0  0  0  0  0  0  0  0
    9.4010  -14.2821   29.8977 C   0  0  0  0  0  0  0  0  0  0  0  0
   10.5913  -16.3199   29.0365 C   0  0  0  0  0  0  0  0  0  0  0  0
   10.7250  -17.2767   27.8884 C   0  0  2  0  0  0  0  0  0  0  0  0
    9.9230  -16.7188   26.7906 N   0  0  0  0  0  0  0  0  0  0  0  0
   10.4408  -18.6741   28.1686 C   0  0  0  0  0  0  0  0  0  0  0  0
   11.2864  -19.3507   29.0466 O   0  0  0  0  0  0  0  0  0  0  0  0
    9.5002  -19.3477   27.6951 O   0  0  0  0  0  0  0  0  0  0  0  0
  2  1  1  6
  2  3  1  0
  3  4  1  0
  4  8  1  0
  5  4  2  0
  6  7  2  0
  6  2  1  0
  9  6  1  0
 10  9  1  0
 10 11  1  1
 11 12  1  0
 12 13  2  0
 12 20  1  0
 13 14  1  0
 14 15  1  0
 15 16  2  0
 16 17  1  0
 18 17  2  0
 19 18  1  0
 20 19  2  0
 20 15  1  0
 21 10  1  0
 22 21  2  0
 24 23  1  1
 24 26  1  0
 25 24  1  0
 27 26  1  1
 27 28  1  0
 28 21  1  0
 29 30  1  0
 29 27  1  0
 31 29  2  0
M  END
$$$$
