DWL.pdb
     RDKit          3D

 31 32  0  0  1  0  0  0  0  0999 V2000
   11.3703  -17.9291   20.2615 N   0  0  0  0  0  0  0  0  0  0  0  0
   12.2341  -17.1764   21.1175 C   0  0  1  0  0  0  0  0  0  0  0  0
   12.9645  -16.0716   20.3356 C   0  0  0  0  0  0  0  0  0  0  0  0
   13.8853  -16.6317   19.3224 C   0  0  0  0  0  0  0  0  0  0  0  0
   14.7619  -17.4768   19.6180 O   0  0  0  0  0  0  0  0  0  0  0  0
   11.4125  -16.4792   22.1411 C   0  0  0  0  0  0  0  0  0  0  0  0
   11.9412  -15.4850   22.7341 O   0  0  0  0  0  0  0  0  0  0  0  0
   13.8045  -16.2288   17.9789 O   0  0  0  0  0  0  0  0  0  0  0  0
   10.0914  -16.8864   22.4631 N   0  0  0  0  0  0  0  0  0  0  0  0
    9.3562  -16.2738   23.5352 C   0  0  1  0  0  0  0  0  0  0  0  0
    7.8509  -16.4254   23.3979 C   0  0  0  0  0  0  0  0  0  0  0  0
    7.1711  -15.6700   24.4732 C   0  0  0  0  0  0  0  0  0  0  0  0
    6.4866  -16.2872   25.5159 C   0  0  0  0  0  0  0  0  0  0  0  0
    6.0198  -15.3415   26.3203 N   0  0  0  0  0  0  0  0  0  0  0  0
    6.3586  -14.1241   25.8651 C   0  0  0  0  0  0  0  0  0  0  0  0
    6.0832  -12.8830   26.3760 C   0  0  0  0  0  0  0  0  0  0  0  0
    6.5538  -11.7787   25.6923 C   0  0  0  0  0  0  0  0  0  0  0  0
    7.2736  -11.9790   24.5353 C   0  0  0  0  0  0  0  0  0  0  0  0
    7.5467  -13.2499   24.0264 C   0  0  0  0  0  0  0  0  0  0  0  0
    7.0758  -14.3373   24.7133 C   0  0  0  0  0  0  0  0  0  0  0  0
    9.8481  -16.7537   24.8295 C   0  0  0  0  0  0  0  0  0  0  0  0
   10.2888  -17.9539   24.8826 O   0  0  0  0  0  0  0  0  0  0  0  0
   12.4338  -14.3743   27.1178 C   0  0  0  0  0  0  0  0  0  0  0  0
   11.0116  -14.1974   27.6680 C   0  0  2  0  0  0  0  0  0  0  0  0
   10.9889  -13.0474   28.6207 C   0  0  0  0  0  0  0  0  0  0  0  0
   10.5677  -15.4969   28.2557 C   0  0  0  0  0  0  0  0  0  0  0  0
   10.3992  -16.6214   27.2766 C   0  0  2  0  0  0  0  0  0  0  0  0
    9.8865  -16.0176   26.0388 N   0  0  0  0  0  0  0  0  0  0  0  0
    9.6314  -17.7694   27.7290 C   0  0  0  0  0  0  0  0  0  0  0  0
    8.3138  -17.8900   27.2894 O   0  0  0  0  0  0  0  0  0  0  0  0
   10.0350  -18.6778   28.4869 O   0  0  0  0  0  0  0  0  0  0  0  0
  2  1  1  6
  2  3  1  0
  3  4  1  0
  4  8  1  0
  5  4  2  0
  6  7  2  0
  6  2  1  0
  9  6  1  0
 10  9  1  0
 10 11  1  6
 11 12  1  0
 12 13  2  0
 12 20  1  0
 13 14  1  0
 14 15  1  0
 15 16  2  0
 16 17  1  0
 18 17  2  0
 19 18  1  0
 20 19  2  0
 20 15  1  0
 21 10  1  0
 22 21  2  0
 24 23  1  1
 24 26  1  0
 25 24  1  0
 27 26  1  1
 27 28  1  0
 28 21  1  0
 29 30  1  0
 29 27  1  0
 31 29  2  0
M  END
$$$$
