DWL.pdb
     RDKit          3D

 31 32  0  0  1  0  0  0  0  0999 V2000
    8.9687  -18.0143   20.6560 N   0  0  0  0  0  0  0  0  0  0  0  0
    9.9785  -17.0017   20.6734 C   0  0  1  0  0  0  0  0  0  0  0  0
    9.7207  -15.9428   19.5882 C   0  0  0  0  0  0  0  0  0  0  0  0
    9.7547  -16.5275   18.2299 C   0  0  0  0  0  0  0  0  0  0  0  0
   10.7923  -17.0470   17.7572 O   0  0  0  0  0  0  0  0  0  0  0  0
    9.9181  -16.2811   21.9718 C   0  0  0  0  0  0  0  0  0  0  0  0
   10.6141  -15.2214   22.0827 O   0  0  0  0  0  0  0  0  0  0  0  0
    8.6092  -16.5194   17.4165 O   0  0  0  0  0  0  0  0  0  0  0  0
    9.1262  -16.7357   23.0585 N   0  0  0  0  0  0  0  0  0  0  0  0
    9.3557  -16.2752   24.4003 C   0  0  1  0  0  0  0  0  0  0  0  0
    8.1937  -16.5504   25.3393 C   0  0  0  0  0  0  0  0  0  0  0  0
    7.1656  -15.4975   25.1861 C   0  0  0  0  0  0  0  0  0  0  0  0
    5.8472  -15.7718   24.8351 C   0  0  0  0  0  0  0  0  0  0  0  0
    5.1797  -14.6259   24.8097 N   0  0  0  0  0  0  0  0  0  0  0  0
    5.9881  -13.6009   25.1257 C   0  0  0  0  0  0  0  0  0  0  0  0
    5.7196  -12.2602   25.2141 C   0  0  0  0  0  0  0  0  0  0  0  0
    6.7535  -11.4107   25.5572 C   0  0  0  0  0  0  0  0  0  0  0  0
    7.9983  -11.9510   25.7924 C   0  0  0  0  0  0  0  0  0  0  0  0
    8.2574  -13.3196   25.6987 C   0  0  0  0  0  0  0  0  0  0  0  0
    7.2244  -14.1522   25.3587 C   0  0  0  0  0  0  0  0  0  0  0  0
   10.6222  -16.8062   24.9114 C   0  0  0  0  0  0  0  0  0  0  0  0
   11.6766  -16.5760   24.2238 O   0  0  0  0  0  0  0  0  0  0  0  0
   10.5523  -13.8868   27.8970 C   0  0  0  0  0  0  0  0  0  0  0  0
   10.9198  -15.3368   28.2423 C   0  0  2  0  0  0  0  0  0  0  0  0
   11.3601  -15.4100   29.6675 C   0  0  0  0  0  0  0  0  0  0  0  0
   11.9344  -15.8145   27.2556 C   0  0  0  0  0  0  0  0  0  0  0  0
   11.9343  -17.2926   26.9975 C   0  0  2  0  0  0  0  0  0  0  0  0
   10.8002  -17.5549   26.1004 N   0  0  0  0  0  0  0  0  0  0  0  0
   11.9687  -18.1576   28.1648 C   0  0  0  0  0  0  0  0  0  0  0  0
   10.7863  -18.7908   28.5454 O   0  0  0  0  0  0  0  0  0  0  0  0
   12.9661  -18.3978   28.8790 O   0  0  0  0  0  0  0  0  0  0  0  0
  2  1  1  1
  2  3  1  0
  3  4  1  0
  4  8  1  0
  5  4  2  0
  6  7  2  0
  6  2  1  0
  9  6  1  0
 10  9  1  0
 10 11  1  1
 11 12  1  0
 12 13  2  0
 12 20  1  0
 13 14  1  0
 14 15  1  0
 15 16  2  0
 16 17  1  0
 18 17  2  0
 19 18  1  0
 20 19  2  0
 20 15  1  0
 21 10  1  0
 22 21  2  0
 24 23  1  6
 24 26  1  0
 25 24  1  0
 27 26  1  1
 27 28  1  0
 28 21  1  0
 29 30  1  0
 29 27  1  0
 31 29  2  0
M  END
$$$$
