DWL.pdb
     RDKit          3D

 31 32  0  0  1  0  0  0  0  0999 V2000
   10.6693  -18.9020   21.1604 N   0  0  0  0  0  0  0  0  0  0  0  0
   11.6971  -17.9140   21.2749 C   0  0  1  0  0  0  0  0  0  0  0  0
   11.9686  -17.2369   19.9210 C   0  0  0  0  0  0  0  0  0  0  0  0
   12.7589  -18.1046   19.0206 C   0  0  0  0  0  0  0  0  0  0  0  0
   12.5428  -18.1524   17.7873 O   0  0  0  0  0  0  0  0  0  0  0  0
   11.2319  -16.8361   22.1863 C   0  0  0  0  0  0  0  0  0  0  0  0
   12.0175  -15.8525   22.3736 O   0  0  0  0  0  0  0  0  0  0  0  0
   13.7907  -18.9128   19.5266 O   0  0  0  0  0  0  0  0  0  0  0  0
    9.9695  -16.8788   22.8337 N   0  0  0  0  0  0  0  0  0  0  0  0
    9.5530  -15.8425   23.7381 C   0  0  1  0  0  0  0  0  0  0  0  0
    8.0461  -15.6578   23.7906 C   0  0  0  0  0  0  0  0  0  0  0  0
    7.5396  -15.2888   22.4503 C   0  0  0  0  0  0  0  0  0  0  0  0
    6.7731  -16.1470   21.6677 C   0  0  0  0  0  0  0  0  0  0  0  0
    6.4574  -15.5124   20.5466 N   0  0  0  0  0  0  0  0  0  0  0  0
    6.9763  -14.2735   20.5426 C   0  0  0  0  0  0  0  0  0  0  0  0
    6.9027  -13.2892   19.5923 C   0  0  0  0  0  0  0  0  0  0  0  0
    7.5445  -12.0922   19.8443 C   0  0  0  0  0  0  0  0  0  0  0  0
    8.2241  -11.9478   21.0334 C   0  0  0  0  0  0  0  0  0  0  0  0
    8.2906  -12.9597   21.9929 C   0  0  0  0  0  0  0  0  0  0  0  0
    7.6496  -14.1418   21.7325 C   0  0  0  0  0  0  0  0  0  0  0  0
   10.1336  -16.0614   25.0656 C   0  0  0  0  0  0  0  0  0  0  0  0
   11.2504  -15.4909   25.3203 O   0  0  0  0  0  0  0  0  0  0  0  0
   10.8562  -13.7865   28.3156 C   0  0  0  0  0  0  0  0  0  0  0  0
    9.5714  -14.3594   27.7007 C   0  0  2  0  0  0  0  0  0  0  0  0
    8.4312  -13.4392   27.9898 C   0  0  0  0  0  0  0  0  0  0  0  0
    9.3863  -15.7525   28.2068 C   0  0  0  0  0  0  0  0  0  0  0  0
   10.1429  -16.8131   27.4624 C   0  0  2  0  0  0  0  0  0  0  0  0
    9.5793  -16.8468   26.1056 N   0  0  0  0  0  0  0  0  0  0  0  0
   10.2250  -18.1194   28.0941 C   0  0  0  0  0  0  0  0  0  0  0  0
   10.9079  -18.2189   29.3054 O   0  0  0  0  0  0  0  0  0  0  0  0
    9.7395  -19.1850   27.6567 O   0  0  0  0  0  0  0  0  0  0  0  0
  2  1  1  6
  2  3  1  0
  3  4  1  0
  4  8  1  0
  5  4  2  0
  6  7  2  0
  6  2  1  0
  9  6  1  0
 10  9  1  0
 10 11  1  1
 11 12  1  0
 12 13  2  0
 12 20  1  0
 13 14  1  0
 14 15  1  0
 15 16  2  0
 16 17  1  0
 18 17  2  0
 19 18  1  0
 20 19  2  0
 20 15  1  0
 21 10  1  0
 22 21  2  0
 24 23  1  1
 24 26  1  0
 25 24  1  0
 27 26  1  1
 27 28  1  0
 28 21  1  0
 29 30  1  0
 29 27  1  0
 31 29  2  0
M  END
$$$$
