DWL.pdb
     RDKit          3D

 31 32  0  0  1  0  0  0  0  0999 V2000
   11.3412  -16.4323   19.3366 N   0  0  0  0  0  0  0  0  0  0  0  0
   11.4061  -17.3376   20.4418 C   0  0  1  0  0  0  0  0  0  0  0  0
   12.8644  -17.6448   20.8222 C   0  0  0  0  0  0  0  0  0  0  0  0
   13.5713  -18.3743   19.7469 C   0  0  0  0  0  0  0  0  0  0  0  0
   13.3269  -19.5759   19.4891 O   0  0  0  0  0  0  0  0  0  0  0  0
   10.7995  -16.6895   21.6338 C   0  0  0  0  0  0  0  0  0  0  0  0
   11.3485  -15.6232   22.0596 O   0  0  0  0  0  0  0  0  0  0  0  0
   14.5516  -17.7342   18.9703 O   0  0  0  0  0  0  0  0  0  0  0  0
    9.6567  -17.2183   22.2887 N   0  0  0  0  0  0  0  0  0  0  0  0
    9.0753  -16.5664   23.4299 C   0  0  1  0  0  0  0  0  0  0  0  0
    7.5816  -16.8071   23.5657 C   0  0  0  0  0  0  0  0  0  0  0  0
    7.0176  -15.8942   24.5845 C   0  0  0  0  0  0  0  0  0  0  0  0
    6.2944  -16.3425   25.6856 C   0  0  0  0  0  0  0  0  0  0  0  0
    5.9566  -15.2876   26.4151 N   0  0  0  0  0  0  0  0  0  0  0  0
    6.4183  -14.1577   25.8544 C   0  0  0  0  0  0  0  0  0  0  0  0
    6.2965  -12.8558   26.2638 C   0  0  0  0  0  0  0  0  0  0  0  0
    6.8707  -11.8717   25.4828 C   0  0  0  0  0  0  0  0  0  0  0  0
    7.5345  -12.2460   24.3357 C   0  0  0  0  0  0  0  0  0  0  0  0
    7.6508  -13.5769   23.9308 C   0  0  0  0  0  0  0  0  0  0  0  0
    7.0783  -14.5441   24.7135 C   0  0  0  0  0  0  0  0  0  0  0  0
    9.8092  -16.9209   24.6478 C   0  0  0  0  0  0  0  0  0  0  0  0
   10.3368  -18.0856   24.6982 O   0  0  0  0  0  0  0  0  0  0  0  0
   10.8830  -13.4282   26.3274 C   0  0  0  0  0  0  0  0  0  0  0  0
   10.2183  -14.1681   27.4967 C   0  0  2  0  0  0  0  0  0  0  0  0
   10.0507  -13.2288   28.6457 C   0  0  0  0  0  0  0  0  0  0  0  0
   11.0264  -15.3858   27.8054 C   0  0  0  0  0  0  0  0  0  0  0  0
   10.7205  -16.5907   26.9651 C   0  0  2  0  0  0  0  0  0  0  0  0
    9.9964  -16.0979   25.7851 N   0  0  0  0  0  0  0  0  0  0  0  0
   10.0627  -17.7009   27.6334 C   0  0  0  0  0  0  0  0  0  0  0  0
   10.7752  -18.3897   28.6140 O   0  0  0  0  0  0  0  0  0  0  0  0
    8.9025  -18.1129   27.4167 O   0  0  0  0  0  0  0  0  0  0  0  0
  2  1  1  6
  2  3  1  0
  3  4  1  0
  4  8  1  0
  5  4  2  0
  6  7  2  0
  6  2  1  0
  9  6  1  0
 10  9  1  0
 10 11  1  1
 11 12  1  0
 12 13  2  0
 12 20  1  0
 13 14  1  0
 14 15  1  0
 15 16  2  0
 16 17  1  0
 18 17  2  0
 19 18  1  0
 20 19  2  0
 20 15  1  0
 21 10  1  0
 22 21  2  0
 24 23  1  6
 24 26  1  0
 25 24  1  0
 27 26  1  1
 27 28  1  0
 28 21  1  0
 29 30  1  0
 29 27  1  0
 31 29  2  0
M  END
$$$$
