DWL.pdb
     RDKit          3D

 31 32  0  0  1  0  0  0  0  0999 V2000
   10.8710  -18.1407   20.3254 N   0  0  0  0  0  0  0  0  0  0  0  0
   11.9176  -17.5350   21.0890 C   0  0  1  0  0  0  0  0  0  0  0  0
   12.6341  -16.4417   20.2784 C   0  0  0  0  0  0  0  0  0  0  0  0
   13.3812  -17.0064   19.1334 C   0  0  0  0  0  0  0  0  0  0  0  0
   14.0665  -18.0501   19.2384 O   0  0  0  0  0  0  0  0  0  0  0  0
   11.3228  -16.8492   22.2658 C   0  0  0  0  0  0  0  0  0  0  0  0
   12.0085  -15.9252   22.8095 O   0  0  0  0  0  0  0  0  0  0  0  0
   13.3448  -16.3824   17.8752 O   0  0  0  0  0  0  0  0  0  0  0  0
   10.0458  -17.1926   22.7816 N   0  0  0  0  0  0  0  0  0  0  0  0
    9.5142  -16.5582   23.9564 C   0  0  1  0  0  0  0  0  0  0  0  0
    7.9963  -16.5718   24.0144 C   0  0  0  0  0  0  0  0  0  0  0  0
    7.4739  -15.2066   23.7847 C   0  0  0  0  0  0  0  0  0  0  0  0
    7.1784  -14.7121   22.5180 C   0  0  0  0  0  0  0  0  0  0  0  0
    6.7068  -13.4801   22.6553 N   0  0  0  0  0  0  0  0  0  0  0  0
    6.6741  -13.1282   23.9511 C   0  0  0  0  0  0  0  0  0  0  0  0
    6.2689  -11.9581   24.5377 C   0  0  0  0  0  0  0  0  0  0  0  0
    6.3480  -11.8583   25.9132 C   0  0  0  0  0  0  0  0  0  0  0  0
    6.8286  -12.9354   26.6244 C   0  0  0  0  0  0  0  0  0  0  0  0
    7.2379  -14.1218   26.0131 C   0  0  0  0  0  0  0  0  0  0  0  0
    7.1540  -14.2096   24.6488 C   0  0  0  0  0  0  0  0  0  0  0  0
   10.1224  -17.1274   25.1620 C   0  0  0  0  0  0  0  0  0  0  0  0
   10.5529  -18.3304   25.0915 O   0  0  0  0  0  0  0  0  0  0  0  0
   10.5651  -13.7522   27.8888 C   0  0  0  0  0  0  0  0  0  0  0  0
   10.5321  -14.9908   28.7953 C   0  0  2  0  0  0  0  0  0  0  0  0
   10.6716  -14.5654   30.2201 C   0  0  0  0  0  0  0  0  0  0  0  0
   11.5820  -15.9454   28.3286 C   0  0  0  0  0  0  0  0  0  0  0  0
   11.0880  -17.0803   27.4804 C   0  0  2  0  0  0  0  0  0  0  0  0
   10.2846  -16.4755   26.4088 N   0  0  0  0  0  0  0  0  0  0  0  0
   10.4156  -18.1666   28.1733 C   0  0  0  0  0  0  0  0  0  0  0  0
    9.0913  -18.4393   27.8337 O   0  0  0  0  0  0  0  0  0  0  0  0
   10.9088  -18.8963   29.0604 O   0  0  0  0  0  0  0  0  0  0  0  0
  2  1  1  6
  2  3  1  0
  3  4  1  0
  4  8  1  0
  5  4  2  0
  6  7  2  0
  6  2  1  0
  9  6  1  0
 10  9  1  0
 10 11  1  1
 11 12  1  0
 12 13  2  0
 12 20  1  0
 13 14  1  0
 14 15  1  0
 15 16  2  0
 16 17  1  0
 18 17  2  0
 19 18  1  0
 20 19  2  0
 20 15  1  0
 21 10  1  0
 22 21  2  0
 24 23  1  6
 24 26  1  0
 25 24  1  0
 27 26  1  1
 27 28  1  0
 28 21  1  0
 29 30  1  0
 29 27  1  0
 31 29  2  0
M  END
$$$$
