DWL.pdb
     RDKit          3D

 31 32  0  0  1  0  0  0  0  0999 V2000
   11.2514  -18.8273   20.8193 N   0  0  0  0  0  0  0  0  0  0  0  0
   12.1341  -17.8183   21.3176 C   0  0  1  0  0  0  0  0  0  0  0  0
   12.5996  -16.8823   20.1894 C   0  0  0  0  0  0  0  0  0  0  0  0
   13.8117  -17.3950   19.5142 C   0  0  0  0  0  0  0  0  0  0  0  0
   14.1836  -18.5857   19.6330 O   0  0  0  0  0  0  0  0  0  0  0  0
   11.3944  -16.9621   22.2814 C   0  0  0  0  0  0  0  0  0  0  0  0
   11.8757  -15.8094   22.5249 O   0  0  0  0  0  0  0  0  0  0  0  0
   14.5942  -16.5521   18.7073 O   0  0  0  0  0  0  0  0  0  0  0  0
   10.1999  -17.3895   22.9178 N   0  0  0  0  0  0  0  0  0  0  0  0
    9.5056  -16.5498   23.8550 C   0  0  1  0  0  0  0  0  0  0  0  0
    7.9938  -16.6245   23.7265 C   0  0  0  0  0  0  0  0  0  0  0  0
    7.5571  -15.8934   22.5166 C   0  0  0  0  0  0  0  0  0  0  0  0
    6.9598  -16.5204   21.4272 C   0  0  0  0  0  0  0  0  0  0  0  0
    6.6639  -15.5919   20.5275 N   0  0  0  0  0  0  0  0  0  0  0  0
    7.0352  -14.3766   20.9627 C   0  0  0  0  0  0  0  0  0  0  0  0
    6.9251  -13.1516   20.3590 C   0  0  0  0  0  0  0  0  0  0  0  0
    7.4024  -12.0467   21.0371 C   0  0  0  0  0  0  0  0  0  0  0  0
    7.9634  -12.2303   22.2814 C   0  0  0  0  0  0  0  0  0  0  0  0
    8.0689  -13.4849   22.8844 C   0  0  0  0  0  0  0  0  0  0  0  0
    7.5914  -14.5729   22.2031 C   0  0  0  0  0  0  0  0  0  0  0  0
    9.9625  -16.8238   25.2201 C   0  0  0  0  0  0  0  0  0  0  0  0
   10.7899  -17.7867   25.3810 O   0  0  0  0  0  0  0  0  0  0  0  0
   11.2544  -13.6336   27.8690 C   0  0  0  0  0  0  0  0  0  0  0  0
    9.7833  -14.0256   28.0665 C   0  0  2  0  0  0  0  0  0  0  0  0
    9.0986  -12.9817   28.8863 C   0  0  0  0  0  0  0  0  0  0  0  0
    9.7350  -15.4003   28.6489 C   0  0  0  0  0  0  0  0  0  0  0  0
   10.1021  -16.5103   27.7084 C   0  0  2  0  0  0  0  0  0  0  0  0
    9.5786  -16.1249   26.3905 N   0  0  0  0  0  0  0  0  0  0  0  0
    9.7325  -17.8562   28.1136 C   0  0  0  0  0  0  0  0  0  0  0  0
    8.8116  -18.5470   27.3272 O   0  0  0  0  0  0  0  0  0  0  0  0
   10.1606  -18.4720   29.1138 O   0  0  0  0  0  0  0  0  0  0  0  0
  2  1  1  6
  2  3  1  0
  3  4  1  0
  4  8  1  0
  5  4  2  0
  6  7  2  0
  6  2  1  0
  9  6  1  0
 10  9  1  0
 10 11  1  1
 11 12  1  0
 12 13  2  0
 12 20  1  0
 13 14  1  0
 14 15  1  0
 15 16  2  0
 16 17  1  0
 18 17  2  0
 19 18  1  0
 20 19  2  0
 20 15  1  0
 21 10  1  0
 22 21  2  0
 24 23  1  1
 24 26  1  0
 25 24  1  0
 27 26  1  1
 27 28  1  0
 28 21  1  0
 29 30  1  0
 29 27  1  0
 31 29  2  0
M  END
$$$$
