DWL.pdb
     RDKit          3D

 31 32  0  0  1  0  0  0  0  0999 V2000
   10.8320  -17.7098   19.6160 N   0  0  0  0  0  0  0  0  0  0  0  0
   11.8150  -17.3491   20.5902 C   0  0  1  0  0  0  0  0  0  0  0  0
   12.8157  -16.3311   20.0176 C   0  0  0  0  0  0  0  0  0  0  0  0
   13.5826  -16.8917   18.8837 C   0  0  0  0  0  0  0  0  0  0  0  0
   13.9333  -18.0942   18.8500 O   0  0  0  0  0  0  0  0  0  0  0  0
   11.1420  -16.6675   21.7266 C   0  0  0  0  0  0  0  0  0  0  0  0
   11.8189  -15.8040   22.3713 O   0  0  0  0  0  0  0  0  0  0  0  0
   13.9463  -16.0829   17.7940 O   0  0  0  0  0  0  0  0  0  0  0  0
    9.8017  -16.9509   22.0981 N   0  0  0  0  0  0  0  0  0  0  0  0
    9.1645  -16.2693   23.1911 C   0  0  1  0  0  0  0  0  0  0  0  0
    7.6474  -16.3006   23.1189 C   0  0  0  0  0  0  0  0  0  0  0  0
    7.0758  -15.5811   24.2785 C   0  0  0  0  0  0  0  0  0  0  0  0
    6.3721  -16.2205   25.2946 C   0  0  0  0  0  0  0  0  0  0  0  0
    6.0210  -15.3082   26.1911 N   0  0  0  0  0  0  0  0  0  0  0  0
    6.4552  -14.0917   25.8226 C   0  0  0  0  0  0  0  0  0  0  0  0
    6.3121  -12.8785   26.4429 C   0  0  0  0  0  0  0  0  0  0  0  0
    6.8595  -11.7668   25.8323 C   0  0  0  0  0  0  0  0  0  0  0  0
    7.5193  -11.9321   24.6348 C   0  0  0  0  0  0  0  0  0  0  0  0
    7.6575  -13.1749   24.0141 C   0  0  0  0  0  0  0  0  0  0  0  0
    7.1115  -14.2701   24.6292 C   0  0  0  0  0  0  0  0  0  0  0  0
    9.6714  -16.7730   24.4704 C   0  0  0  0  0  0  0  0  0  0  0  0
   10.0047  -18.0073   24.5259 O   0  0  0  0  0  0  0  0  0  0  0  0
   10.4116  -13.0214   27.7053 C   0  0  0  0  0  0  0  0  0  0  0  0
   10.1305  -14.4684   28.1342 C   0  0  2  0  0  0  0  0  0  0  0  0
   10.0683  -14.5397   29.6247 C   0  0  0  0  0  0  0  0  0  0  0  0
   11.1621  -15.3533   27.5146 C   0  0  0  0  0  0  0  0  0  0  0  0
   10.6277  -16.5490   26.7823 C   0  0  2  0  0  0  0  0  0  0  0  0
    9.8323  -16.0260   25.6628 N   0  0  0  0  0  0  0  0  0  0  0  0
    9.9307  -17.5436   27.5805 C   0  0  0  0  0  0  0  0  0  0  0  0
    8.5722  -17.7424   27.3384 O   0  0  0  0  0  0  0  0  0  0  0  0
   10.4302  -18.2533   28.4803 O   0  0  0  0  0  0  0  0  0  0  0  0
  2  1  1  6
  2  3  1  0
  3  4  1  0
  4  8  1  0
  5  4  2  0
  6  7  2  0
  6  2  1  0
  9  6  1  0
 10  9  1  0
 10 11  1  1
 11 12  1  0
 12 13  2  0
 12 20  1  0
 13 14  1  0
 14 15  1  0
 15 16  2  0
 16 17  1  0
 18 17  2  0
 19 18  1  0
 20 19  2  0
 20 15  1  0
 21 10  1  0
 22 21  2  0
 24 23  1  1
 24 26  1  0
 25 24  1  0
 27 26  1  1
 27 28  1  0
 28 21  1  0
 29 30  1  0
 29 27  1  0
 31 29  2  0
M  END
$$$$
