DWL.pdb
     RDKit          3D

 31 32  0  0  1  0  0  0  0  0999 V2000
    9.7334  -16.7510   19.7103 N   0  0  0  0  0  0  0  0  0  0  0  0
   10.6491  -17.1737   20.7243 C   0  0  1  0  0  0  0  0  0  0  0  0
   12.0666  -16.6457   20.4464 C   0  0  0  0  0  0  0  0  0  0  0  0
   12.6764  -17.3005   19.2685 C   0  0  0  0  0  0  0  0  0  0  0  0
   12.5755  -18.5333   19.0687 O   0  0  0  0  0  0  0  0  0  0  0  0
   10.2384  -16.5811   22.0240 C   0  0  0  0  0  0  0  0  0  0  0  0
   10.3497  -15.3196   22.1500 O   0  0  0  0  0  0  0  0  0  0  0  0
   13.3970  -16.5506   18.3239 O   0  0  0  0  0  0  0  0  0  0  0  0
    9.7411  -17.3675   23.0958 N   0  0  0  0  0  0  0  0  0  0  0  0
    9.3691  -16.7769   24.3520 C   0  0  1  0  0  0  0  0  0  0  0  0
    8.0418  -17.2857   24.8879 C   0  0  0  0  0  0  0  0  0  0  0  0
    7.0755  -16.1686   24.9752 C   0  0  0  0  0  0  0  0  0  0  0  0
    5.7009  -16.3449   24.8492 C   0  0  0  0  0  0  0  0  0  0  0  0
    5.1173  -15.1638   25.0031 N   0  0  0  0  0  0  0  0  0  0  0  0
    6.0350  -14.2084   25.2246 C   0  0  0  0  0  0  0  0  0  0  0  0
    5.8762  -12.8631   25.4300 C   0  0  0  0  0  0  0  0  0  0  0  0
    7.0084  -12.0971   25.6289 C   0  0  0  0  0  0  0  0  0  0  0  0
    8.2361  -12.7209   25.6110 C   0  0  0  0  0  0  0  0  0  0  0  0
    8.3828  -14.0931   25.4007 C   0  0  0  0  0  0  0  0  0  0  0  0
    7.2532  -14.8426   25.2055 C   0  0  0  0  0  0  0  0  0  0  0  0
   10.4550  -16.9231   25.3250 C   0  0  0  0  0  0  0  0  0  0  0  0
   11.4357  -17.6793   25.0024 O   0  0  0  0  0  0  0  0  0  0  0  0
   10.9470  -13.6611   27.6808 C   0  0  0  0  0  0  0  0  0  0  0  0
   10.3649  -14.7381   28.6071 C   0  0  2  0  0  0  0  0  0  0  0  0
    9.9296  -14.1064   29.8885 C   0  0  0  0  0  0  0  0  0  0  0  0
   11.3790  -15.8233   28.7651 C   0  0  0  0  0  0  0  0  0  0  0  0
   11.4890  -16.7739   27.6094 C   0  0  2  0  0  0  0  0  0  0  0  0
   10.5310  -16.3066   26.5978 N   0  0  0  0  0  0  0  0  0  0  0  0
   11.3709  -18.1894   27.9168 C   0  0  0  0  0  0  0  0  0  0  0  0
   12.3682  -18.7758   28.6948 O   0  0  0  0  0  0  0  0  0  0  0  0
   10.4517  -18.9527   27.5489 O   0  0  0  0  0  0  0  0  0  0  0  0
  2  1  1  6
  2  3  1  0
  3  4  1  0
  4  8  1  0
  5  4  2  0
  6  7  2  0
  6  2  1  0
  9  6  1  0
 10  9  1  0
 10 11  1  1
 11 12  1  0
 12 13  2  0
 12 20  1  0
 13 14  1  0
 14 15  1  0
 15 16  2  0
 16 17  1  0
 18 17  2  0
 19 18  1  0
 20 19  2  0
 20 15  1  0
 21 10  1  0
 22 21  2  0
 24 23  1  6
 24 26  1  0
 25 24  1  0
 27 26  1  1
 27 28  1  0
 28 21  1  0
 29 30  1  0
 29 27  1  0
 31 29  2  0
M  END
$$$$
