DWL.pdb
     RDKit          3D

 31 32  0  0  1  0  0  0  0  0999 V2000
   10.3375  -17.4878   19.7790 N   0  0  0  0  0  0  0  0  0  0  0  0
   11.3649  -17.4937   20.7739 C   0  0  1  0  0  0  0  0  0  0  0  0
   12.5940  -16.6959   20.3066 C   0  0  0  0  0  0  0  0  0  0  0  0
   13.4066  -17.4576   19.3332 C   0  0  0  0  0  0  0  0  0  0  0  0
   13.0496  -18.5799   18.9055 O   0  0  0  0  0  0  0  0  0  0  0  0
   10.8644  -16.8006   21.9896 C   0  0  0  0  0  0  0  0  0  0  0  0
   11.1816  -15.5766   22.1344 O   0  0  0  0  0  0  0  0  0  0  0  0
   14.6201  -16.9394   18.8507 O   0  0  0  0  0  0  0  0  0  0  0  0
   10.0655  -17.4543   22.9639 N   0  0  0  0  0  0  0  0  0  0  0  0
    9.5295  -16.7470   24.0942 C   0  0  1  0  0  0  0  0  0  0  0  0
    8.0135  -16.8003   24.1753 C   0  0  0  0  0  0  0  0  0  0  0  0
    7.4515  -15.4521   23.9395 C   0  0  0  0  0  0  0  0  0  0  0  0
    7.0953  -14.9905   22.6759 C   0  0  0  0  0  0  0  0  0  0  0  0
    6.6014  -13.7666   22.8075 N   0  0  0  0  0  0  0  0  0  0  0  0
    6.6114  -13.3888   24.0964 C   0  0  0  0  0  0  0  0  0  0  0  0
    6.2029  -12.2161   24.6753 C   0  0  0  0  0  0  0  0  0  0  0  0
    6.3336  -12.0862   26.0444 C   0  0  0  0  0  0  0  0  0  0  0  0
    6.8662  -13.1375   26.7570 C   0  0  0  0  0  0  0  0  0  0  0  0
    7.2783  -14.3270   26.1536 C   0  0  0  0  0  0  0  0  0  0  0  0
    7.1430  -14.4448   24.7957 C   0  0  0  0  0  0  0  0  0  0  0  0
   10.1695  -17.2035   25.3309 C   0  0  0  0  0  0  0  0  0  0  0  0
   10.8892  -18.2595   25.2653 O   0  0  0  0  0  0  0  0  0  0  0  0
   12.0538  -14.4216   27.5976 C   0  0  0  0  0  0  0  0  0  0  0  0
   10.7225  -14.7264   28.2987 C   0  0  2  0  0  0  0  0  0  0  0  0
   10.4587  -13.6837   29.3349 C   0  0  0  0  0  0  0  0  0  0  0  0
   10.7753  -16.1232   28.8255 C   0  0  0  0  0  0  0  0  0  0  0  0
   10.6822  -17.2050   27.7899 C   0  0  2  0  0  0  0  0  0  0  0  0
   10.0723  -16.5891   26.6032 N   0  0  0  0  0  0  0  0  0  0  0  0
   10.0435  -18.4448   28.1988 C   0  0  0  0  0  0  0  0  0  0  0  0
   10.6607  -19.2020   29.1935 O   0  0  0  0  0  0  0  0  0  0  0  0
    8.9785  -18.9143   27.7429 O   0  0  0  0  0  0  0  0  0  0  0  0
  2  1  1  6
  2  3  1  0
  3  4  1  0
  4  8  1  0
  5  4  2  0
  6  7  2  0
  6  2  1  0
  9  6  1  0
 10  9  1  0
 10 11  1  1
 11 12  1  0
 12 13  2  0
 12 20  1  0
 13 14  1  0
 14 15  1  0
 15 16  2  0
 16 17  1  0
 18 17  2  0
 19 18  1  0
 20 19  2  0
 20 15  1  0
 21 10  1  0
 22 21  2  0
 24 23  1  1
 24 26  1  0
 25 24  1  0
 27 26  1  1
 27 28  1  0
 28 21  1  0
 29 30  1  0
 29 27  1  0
 31 29  2  0
M  END
$$$$
