DWL.pdb
     RDKit          3D

 31 32  0  0  1  0  0  0  0  0999 V2000
   10.4446  -19.3933   20.9695 N   0  0  0  0  0  0  0  0  0  0  0  0
   11.5912  -18.6333   21.3608 C   0  0  1  0  0  0  0  0  0  0  0  0
   12.3286  -18.0707   20.1339 C   0  0  0  0  0  0  0  0  0  0  0  0
   12.7247  -19.1403   19.1919 C   0  0  0  0  0  0  0  0  0  0  0  0
   12.1920  -19.2617   18.0643 O   0  0  0  0  0  0  0  0  0  0  0  0
   11.1442  -17.4537   22.1467 C   0  0  0  0  0  0  0  0  0  0  0  0
   12.0111  -16.5548   22.3919 O   0  0  0  0  0  0  0  0  0  0  0  0
   13.7244  -20.0654   19.5362 O   0  0  0  0  0  0  0  0  0  0  0  0
    9.8123  -17.3127   22.6167 N   0  0  0  0  0  0  0  0  0  0  0  0
    9.4202  -16.2042   23.4430 C   0  0  1  0  0  0  0  0  0  0  0  0
    7.9148  -16.0208   23.5312 C   0  0  0  0  0  0  0  0  0  0  0  0
    7.5976  -14.5983   23.7865 C   0  0  0  0  0  0  0  0  0  0  0  0
    7.9632  -13.5734   22.9191 C   0  0  0  0  0  0  0  0  0  0  0  0
    7.5098  -12.4304   23.4161 N   0  0  0  0  0  0  0  0  0  0  0  0
    6.8605  -12.6423   24.5726 C   0  0  0  0  0  0  0  0  0  0  0  0
    6.2461  -11.7536   25.4152 C   0  0  0  0  0  0  0  0  0  0  0  0
    5.6508  -12.2472   26.5599 C   0  0  0  0  0  0  0  0  0  0  0  0
    5.7042  -13.6028   26.7969 C   0  0  0  0  0  0  0  0  0  0  0  0
    6.3338  -14.4969   25.9291 C   0  0  0  0  0  0  0  0  0  0  0  0
    6.9198  -13.9961   24.7968 C   0  0  0  0  0  0  0  0  0  0  0  0
   10.0467  -16.3069   24.7638 C   0  0  0  0  0  0  0  0  0  0  0  0
   10.9376  -15.4376   25.0611 O   0  0  0  0  0  0  0  0  0  0  0  0
    9.6928  -13.8914   29.0999 C   0  0  0  0  0  0  0  0  0  0  0  0
   10.5006  -14.8386   28.2016 C   0  0  2  0  0  0  0  0  0  0  0  0
   11.2014  -14.0445   27.1485 C   0  0  0  0  0  0  0  0  0  0  0  0
    9.5792  -15.8893   27.6741 C   0  0  0  0  0  0  0  0  0  0  0  0
   10.2483  -17.1183   27.1324 C   0  0  2  0  0  0  0  0  0  0  0  0
    9.7638  -17.2787   25.7543 N   0  0  0  0  0  0  0  0  0  0  0  0
   10.1405  -18.3256   27.9344 C   0  0  0  0  0  0  0  0  0  0  0  0
   11.0861  -18.5313   28.9380 O   0  0  0  0  0  0  0  0  0  0  0  0
    9.2729  -19.2178   27.8163 O   0  0  0  0  0  0  0  0  0  0  0  0
  2  1  1  6
  2  3  1  0
  3  4  1  0
  4  8  1  0
  5  4  2  0
  6  7  2  0
  6  2  1  0
  9  6  1  0
 10  9  1  0
 10 11  1  1
 11 12  1  0
 12 13  2  0
 12 20  1  0
 13 14  1  0
 14 15  1  0
 15 16  2  0
 16 17  1  0
 18 17  2  0
 19 18  1  0
 20 19  2  0
 20 15  1  0
 21 10  1  0
 22 21  2  0
 24 23  1  6
 24 26  1  0
 25 24  1  0
 27 26  1  1
 27 28  1  0
 28 21  1  0
 29 30  1  0
 29 27  1  0
 31 29  2  0
M  END
$$$$
