DWL.pdb
     RDKit          3D

 31 32  0  0  1  0  0  0  0  0999 V2000
   10.6255  -17.9621   19.5215 N   0  0  0  0  0  0  0  0  0  0  0  0
   11.5221  -18.0417   20.6330 C   0  0  1  0  0  0  0  0  0  0  0  0
   12.9452  -17.6215   20.2287 C   0  0  0  0  0  0  0  0  0  0  0  0
   13.5678  -18.6000   19.3105 C   0  0  0  0  0  0  0  0  0  0  0  0
   12.9400  -19.5928   18.8743 O   0  0  0  0  0  0  0  0  0  0  0  0
   11.0888  -17.0731   21.6737 C   0  0  0  0  0  0  0  0  0  0  0  0
   11.8578  -16.0863   21.9072 O   0  0  0  0  0  0  0  0  0  0  0  0
   14.9000  -18.4446   18.8925 O   0  0  0  0  0  0  0  0  0  0  0  0
    9.8736  -17.2207   22.3921 N   0  0  0  0  0  0  0  0  0  0  0  0
    9.4524  -16.2498   23.3644 C   0  0  1  0  0  0  0  0  0  0  0  0
    7.9669  -16.3134   23.6754 C   0  0  0  0  0  0  0  0  0  0  0  0
    7.4121  -14.9439   23.7522 C   0  0  0  0  0  0  0  0  0  0  0  0
    7.1155  -14.1827   22.6257 C   0  0  0  0  0  0  0  0  0  0  0  0
    6.6116  -13.0246   23.0307 N   0  0  0  0  0  0  0  0  0  0  0  0
    6.5583  -12.9755   24.3719 C   0  0  0  0  0  0  0  0  0  0  0  0
    6.1183  -11.9778   25.2016 C   0  0  0  0  0  0  0  0  0  0  0  0
    6.1826  -12.1897   26.5651 C   0  0  0  0  0  0  0  0  0  0  0  0
    6.6840  -13.3884   27.0216 C   0  0  0  0  0  0  0  0  0  0  0  0
    7.1287  -14.3964   26.1643 C   0  0  0  0  0  0  0  0  0  0  0  0
    7.0593  -14.1755   24.8143 C   0  0  0  0  0  0  0  0  0  0  0  0
   10.2783  -16.3459   24.5710 C   0  0  0  0  0  0  0  0  0  0  0  0
   11.2351  -15.5055   24.6971 O   0  0  0  0  0  0  0  0  0  0  0  0
    9.2390  -14.1076   29.1284 C   0  0  0  0  0  0  0  0  0  0  0  0
   10.2922  -15.1426   28.7085 C   0  0  2  0  0  0  0  0  0  0  0  0
   11.6484  -14.5196   28.7649 C   0  0  0  0  0  0  0  0  0  0  0  0
    9.9146  -15.6834   27.3682 C   0  0  0  0  0  0  0  0  0  0  0  0
   10.5790  -16.9729   26.9847 C   0  0  2  0  0  0  0  0  0  0  0  0
   10.1239  -17.2824   25.6221 N   0  0  0  0  0  0  0  0  0  0  0  0
   10.4364  -18.0807   27.9146 C   0  0  0  0  0  0  0  0  0  0  0  0
    9.2037  -18.7288   27.9766 O   0  0  0  0  0  0  0  0  0  0  0  0
   11.3197  -18.5220   28.6812 O   0  0  0  0  0  0  0  0  0  0  0  0
  2  1  1  6
  2  3  1  0
  3  4  1  0
  4  8  1  0
  5  4  2  0
  6  7  2  0
  6  2  1  0
  9  6  1  0
 10  9  1  0
 10 11  1  1
 11 12  1  0
 12 13  2  0
 12 20  1  0
 13 14  1  0
 14 15  1  0
 15 16  2  0
 16 17  1  0
 18 17  2  0
 19 18  1  0
 20 19  2  0
 20 15  1  0
 21 10  1  0
 22 21  2  0
 24 23  1  6
 24 26  1  0
 25 24  1  0
 27 26  1  1
 27 28  1  0
 28 21  1  0
 29 30  1  0
 29 27  1  0
 31 29  2  0
M  END
$$$$
