DWL.pdb
     RDKit          3D

 31 32  0  0  1  0  0  0  0  0999 V2000
    7.8504  -19.6979   22.4799 N   0  0  0  0  0  0  0  0  0  0  0  0
    9.1698  -19.6275   21.9325 C   0  0  1  0  0  0  0  0  0  0  0  0
    9.1784  -20.0411   20.4512 C   0  0  0  0  0  0  0  0  0  0  0  0
    8.1687  -21.0836   20.1652 C   0  0  0  0  0  0  0  0  0  0  0  0
    7.4113  -21.5352   21.0554 O   0  0  0  0  0  0  0  0  0  0  0  0
    9.6325  -18.2155   21.9665 C   0  0  0  0  0  0  0  0  0  0  0  0
   10.6269  -17.9107   21.2331 O   0  0  0  0  0  0  0  0  0  0  0  0
    8.0248  -21.6066   18.8693 O   0  0  0  0  0  0  0  0  0  0  0  0
    9.0093  -17.2297   22.7754 N   0  0  0  0  0  0  0  0  0  0  0  0
    9.5253  -15.8911   22.8605 C   0  0  1  0  0  0  0  0  0  0  0  0
    8.4654  -14.8223   22.6557 C   0  0  0  0  0  0  0  0  0  0  0  0
    7.6210  -14.7156   23.8660 C   0  0  0  0  0  0  0  0  0  0  0  0
    6.9746  -15.8076   24.4371 C   0  0  0  0  0  0  0  0  0  0  0  0
    6.3286  -15.3870   25.5164 N   0  0  0  0  0  0  0  0  0  0  0  0
    6.5116  -14.0681   25.6929 C   0  0  0  0  0  0  0  0  0  0  0  0
    6.0285  -13.2326   26.6654 C   0  0  0  0  0  0  0  0  0  0  0  0
    6.3715  -11.8959   26.6042 C   0  0  0  0  0  0  0  0  0  0  0  0
    7.1789  -11.4706   25.5727 C   0  0  0  0  0  0  0  0  0  0  0  0
    7.6641  -12.3335   24.5884 C   0  0  0  0  0  0  0  0  0  0  0  0
    7.3181  -13.6568   24.6599 C   0  0  0  0  0  0  0  0  0  0  0  0
   10.2648  -15.7089   24.1124 C   0  0  0  0  0  0  0  0  0  0  0  0
   11.2729  -14.9210   24.0904 O   0  0  0  0  0  0  0  0  0  0  0  0
   10.7905  -13.4568   27.2880 C   0  0  0  0  0  0  0  0  0  0  0  0
    9.6558  -14.4602   27.5379 C   0  0  2  0  0  0  0  0  0  0  0  0
    8.8584  -14.0210   28.7219 C   0  0  0  0  0  0  0  0  0  0  0  0
   10.2511  -15.8244   27.6641 C   0  0  0  0  0  0  0  0  0  0  0  0
   10.9625  -16.3309   26.4439 C   0  0  2  0  0  0  0  0  0  0  0  0
    9.9745  -16.3210   25.3561 N   0  0  0  0  0  0  0  0  0  0  0  0
   11.6703  -17.5929   26.5796 C   0  0  0  0  0  0  0  0  0  0  0  0
   11.1866  -18.6939   25.8742 O   0  0  0  0  0  0  0  0  0  0  0  0
   12.6868  -17.8003   27.2771 O   0  0  0  0  0  0  0  0  0  0  0  0
  2  1  1  6
  2  3  1  0
  3  4  1  0
  4  8  1  0
  5  4  2  0
  6  7  2  0
  6  2  1  0
  9  6  1  0
 10  9  1  0
 10 11  1  1
 11 12  1  0
 12 13  2  0
 12 20  1  0
 13 14  1  0
 14 15  1  0
 15 16  2  0
 16 17  1  0
 18 17  2  0
 19 18  1  0
 20 19  2  0
 20 15  1  0
 21 10  1  0
 22 21  2  0
 24 23  1  1
 24 26  1  0
 25 24  1  0
 27 26  1  1
 27 28  1  0
 28 21  1  0
 29 30  1  0
 29 27  1  0
 31 29  2  0
M  END
$$$$
