DWL.pdb
     RDKit          3D

 31 32  0  0  1  0  0  0  0  0999 V2000
   11.0442  -19.3577   20.6583 N   0  0  0  0  0  0  0  0  0  0  0  0
   11.9223  -18.2290   20.6373 C   0  0  1  0  0  0  0  0  0  0  0  0
   12.0266  -17.6338   19.2229 C   0  0  0  0  0  0  0  0  0  0  0  0
   12.9304  -18.4242   18.3588 C   0  0  0  0  0  0  0  0  0  0  0  0
   13.3070  -19.5774   18.6721 O   0  0  0  0  0  0  0  0  0  0  0  0
   11.3509  -17.1560   21.4923 C   0  0  0  0  0  0  0  0  0  0  0  0
   11.8716  -15.9985   21.4000 O   0  0  0  0  0  0  0  0  0  0  0  0
   13.4006  -17.8999   17.1432 O   0  0  0  0  0  0  0  0  0  0  0  0
   10.2707  -17.3873   22.3836 N   0  0  0  0  0  0  0  0  0  0  0  0
    9.7833  -16.3560   23.2577 C   0  0  1  0  0  0  0  0  0  0  0  0
    8.2705  -16.3472   23.3951 C   0  0  0  0  0  0  0  0  0  0  0  0
    7.6672  -15.6369   22.2459 C   0  0  0  0  0  0  0  0  0  0  0  0
    6.8786  -16.2729   21.2919 C   0  0  0  0  0  0  0  0  0  0  0  0
    6.4716  -15.3615   20.4184 N   0  0  0  0  0  0  0  0  0  0  0  0
    6.9506  -14.1492   20.7424 C   0  0  0  0  0  0  0  0  0  0  0  0
    6.7853  -12.9399   20.1198 C   0  0  0  0  0  0  0  0  0  0  0  0
    7.4048  -11.8346   20.6701 C   0  0  0  0  0  0  0  0  0  0  0  0
    8.1551  -12.0020   21.8128 C   0  0  0  0  0  0  0  0  0  0  0  0
    8.3147  -13.2406   22.4367 C   0  0  0  0  0  0  0  0  0  0  0  0
    7.6951  -14.3292   21.8825 C   0  0  0  0  0  0  0  0  0  0  0  0
   10.4598  -16.4268   24.5557 C   0  0  0  0  0  0  0  0  0  0  0  0
   11.5588  -15.7835   24.6819 O   0  0  0  0  0  0  0  0  0  0  0  0
    8.6776  -13.4470   28.4567 C   0  0  0  0  0  0  0  0  0  0  0  0
    9.7948  -14.4953   28.3575 C   0  0  2  0  0  0  0  0  0  0  0  0
   11.1197  -13.8224   28.5077 C   0  0  0  0  0  0  0  0  0  0  0  0
    9.6241  -15.2477   27.0785 C   0  0  0  0  0  0  0  0  0  0  0  0
   10.2383  -16.6164   27.0506 C   0  0  2  0  0  0  0  0  0  0  0  0
   10.0168  -17.1407   25.6958 N   0  0  0  0  0  0  0  0  0  0  0  0
    9.8363  -17.5322   28.1051 C   0  0  0  0  0  0  0  0  0  0  0  0
   10.7391  -17.7769   29.1389 O   0  0  0  0  0  0  0  0  0  0  0  0
    8.7452  -18.1371   28.1840 O   0  0  0  0  0  0  0  0  0  0  0  0
  2  1  1  6
  2  3  1  0
  3  4  1  0
  4  8  1  0
  5  4  2  0
  6  7  2  0
  6  2  1  0
  9  6  1  0
 10  9  1  0
 10 11  1  1
 11 12  1  0
 12 13  2  0
 12 20  1  0
 13 14  1  0
 14 15  1  0
 15 16  2  0
 16 17  1  0
 18 17  2  0
 19 18  1  0
 20 19  2  0
 20 15  1  0
 21 10  1  0
 22 21  2  0
 24 23  1  6
 24 26  1  0
 25 24  1  0
 27 26  1  6
 27 28  1  0
 28 21  1  0
 29 30  1  0
 29 27  1  0
 31 29  2  0
M  END
$$$$
