IQP.pdb
     RDKit          3D

 25 25  0  0  1  0  0  0  0  0999 V2000
   13.9094   -4.8909   -7.1096 C   0  0  0  0  0  0  0  0  0  0  0  0
   13.6758   -6.1014   -8.0409 C   0  0  0  0  0  0  0  0  0  0  0  0
   14.9612   -6.3144   -8.7587 C   0  0  2  0  0  0  0  0  0  0  0  0
   15.5219   -5.0435   -9.3594 C   0  0  0  0  0  0  0  0  0  0  0  0
   14.8969   -7.4525   -9.7125 C   0  0  2  0  0  0  0  0  0  0  0  0
   14.7157   -8.6715   -8.8891 N   0  0  0  0  0  0  0  0  0  0  0  0
   16.1609   -7.6382  -10.5236 C   0  0  0  0  0  0  0  0  0  0  0  0
   17.1807   -7.9914   -9.8908 O   0  0  0  0  0  0  0  0  0  0  0  0
   16.8645  -10.3792  -15.3059 N   0  0  0  0  0  0  0  0  0  0  0  0
   17.8763   -9.4748  -15.7016 C   0  0  0  0  0  0  0  0  0  0  0  0
   18.8030   -9.7916  -16.4845 O   0  0  0  0  0  0  0  0  0  0  0  0
   17.8524   -8.0717  -15.1690 C   0  0  0  0  0  0  0  0  0  0  0  0
   16.7043   -7.8803  -14.2128 C   0  0  0  0  0  0  0  0  0  0  0  0
   17.2662   -7.6112  -12.8343 C   0  0  2  0  0  0  0  0  0  0  0  0
   16.1798   -7.4313  -11.9065 N   0  0  0  0  0  0  0  0  0  0  0  0
   18.1725   -6.4667  -12.7875 C   0  0  0  0  0  0  0  0  0  0  0  0
   17.6362   -5.3289  -12.5349 O   0  0  0  0  0  0  0  0  0  0  0  0
   19.5918   -6.5154  -12.9993 N   0  0  0  0  0  0  0  0  0  0  0  0
   20.3487   -7.6797  -13.3166 C   0  0  0  0  0  0  0  0  0  0  0  0
   21.6917   -7.3904  -12.6464 C   0  0  0  0  0  0  0  0  0  0  0  0
   21.8226   -5.9055  -12.6416 C   0  0  0  0  0  0  0  0  0  0  0  0
   20.4557   -5.3850  -12.9497 C   0  0  1  0  0  0  0  0  0  0  0  0
   20.4399   -4.6274  -14.2550 C   0  0  0  0  0  0  0  0  0  0  0  0
   20.0058   -5.2123  -15.2789 O   0  0  0  0  0  0  0  0  0  0  0  0
   20.8878   -3.3316  -14.3251 O   0  0  0  0  0  0  0  0  0  0  0  0
  1  2  1  0
  3  2  1  0
  3  5  1  0
  3  4  1  6
  5  7  1  0
  5  6  1  1
  7  8  2  0
  9 10  1  0
 10 12  1  0
 11 10  2  0
 12 13  1  0
 14 13  1  6
 14 16  1  0
 15 14  1  0
 15  7  1  0
 16 18  1  0
 17 16  2  0
 18 19  1  0
 18 22  1  0
 20 21  1  0
 20 19  1  0
 21 22  1  0
 22 23  1  6
 23 25  1  0
 24 23  2  0
M  END
$$$$
