IQP.pdb
     RDKit          3D

 25 25  0  0  1  0  0  0  0  0999 V2000
   27.5373  -19.4018   -5.7257 C   0  0  0  0  0  0  0  0  0  0  0  0
   26.2055  -19.8360   -6.3774 C   0  0  0  0  0  0  0  0  0  0  0  0
   26.5246  -20.1172   -7.8029 C   0  0  2  0  0  0  0  0  0  0  0  0
   27.3190  -19.0102   -8.4616 C   0  0  0  0  0  0  0  0  0  0  0  0
   25.3304  -20.5434   -8.5785 C   0  0  2  0  0  0  0  0  0  0  0  0
   24.6798  -21.6104   -7.7817 N   0  0  0  0  0  0  0  0  0  0  0  0
   25.6629  -21.1295   -9.9334 C   0  0  0  0  0  0  0  0  0  0  0  0
   26.4516  -22.1006   -9.9408 O   0  0  0  0  0  0  0  0  0  0  0  0
   24.8331  -24.5030  -13.2000 N   0  0  0  0  0  0  0  0  0  0  0  0
   24.8834  -23.7507  -14.3957 C   0  0  0  0  0  0  0  0  0  0  0  0
   25.2469  -24.2393  -15.4916 O   0  0  0  0  0  0  0  0  0  0  0  0
   24.4872  -22.3032  -14.3663 C   0  0  0  0  0  0  0  0  0  0  0  0
   24.1952  -21.8554  -12.9580 C   0  0  0  0  0  0  0  0  0  0  0  0
   25.3510  -21.0083  -12.4731 C   0  0  2  0  0  0  0  0  0  0  0  0
   25.1098  -20.6133  -11.1096 N   0  0  0  0  0  0  0  0  0  0  0  0
   25.6047  -19.8363  -13.3070 C   0  0  0  0  0  0  0  0  0  0  0  0
   24.8680  -18.8102  -13.0820 O   0  0  0  0  0  0  0  0  0  0  0  0
   26.5965  -19.7453  -14.3413 N   0  0  0  0  0  0  0  0  0  0  0  0
   27.4966  -20.7796  -14.7276 C   0  0  0  0  0  0  0  0  0  0  0  0
   28.7315  -19.9928  -15.1663 C   0  0  0  0  0  0  0  0  0  0  0  0
   28.2156  -18.6822  -15.6544 C   0  0  0  0  0  0  0  0  0  0  0  0
   26.8071  -18.6006  -15.1608 C   0  0  1  0  0  0  0  0  0  0  0  0
   25.8267  -18.5616  -16.3076 C   0  0  0  0  0  0  0  0  0  0  0  0
   25.1298  -19.5830  -16.5316 O   0  0  0  0  0  0  0  0  0  0  0  0
   25.6969  -17.4398  -17.0882 O   0  0  0  0  0  0  0  0  0  0  0  0
  1  2  1  0
  3  2  1  0
  3  5  1  0
  3  4  1  6
  5  7  1  0
  5  6  1  1
  7  8  2  0
  9 10  1  0
 10 12  1  0
 11 10  2  0
 12 13  1  0
 14 13  1  6
 14 16  1  0
 15 14  1  0
 15  7  1  0
 16 18  1  0
 17 16  2  0
 18 19  1  0
 18 22  1  0
 20 21  1  0
 20 19  1  0
 21 22  1  0
 22 23  1  6
 23 25  1  0
 24 23  2  0
M  END
$$$$
