IQP.pdb
     RDKit          3D

 25 25  0  0  1  0  0  0  0  0999 V2000
   25.9906  -13.8877  -16.4038 C   0  0  0  0  0  0  0  0  0  0  0  0
   25.2857  -15.1097  -17.0337 C   0  0  0  0  0  0  0  0  0  0  0  0
   25.1372  -16.1025  -15.9358 C   0  0  2  0  0  0  0  0  0  0  0  0
   26.4345  -16.3774  -15.2065 C   0  0  0  0  0  0  0  0  0  0  0  0
   24.4219  -17.3297  -16.3731 C   0  0  2  0  0  0  0  0  0  0  0  0
   23.1101  -16.8789  -16.8956 N   0  0  0  0  0  0  0  0  0  0  0  0
   24.1500  -18.3075  -15.2507 C   0  0  0  0  0  0  0  0  0  0  0  0
   23.4307  -17.8934  -14.3146 O   0  0  0  0  0  0  0  0  0  0  0  0
   24.6362  -24.5587  -15.8308 N   0  0  0  0  0  0  0  0  0  0  0  0
   24.3707  -24.4081  -14.4506 C   0  0  0  0  0  0  0  0  0  0  0  0
   24.1775  -25.3823  -13.6853 O   0  0  0  0  0  0  0  0  0  0  0  0
   24.3149  -23.0282  -13.8627 C   0  0  0  0  0  0  0  0  0  0  0  0
   24.5705  -21.9845  -14.9184 C   0  0  0  0  0  0  0  0  0  0  0  0
   24.5955  -20.6253  -14.2550 C   0  0  2  0  0  0  0  0  0  0  0  0
   24.6719  -19.6048  -15.2680 N   0  0  0  0  0  0  0  0  0  0  0  0
   25.6797  -20.4681  -13.2890 C   0  0  0  0  0  0  0  0  0  0  0  0
   26.8059  -20.0729  -13.7601 O   0  0  0  0  0  0  0  0  0  0  0  0
   25.5849  -20.7177  -11.8782 N   0  0  0  0  0  0  0  0  0  0  0  0
   24.4390  -21.2158  -11.1941 C   0  0  0  0  0  0  0  0  0  0  0  0
   24.5550  -20.5427   -9.8267 C   0  0  0  0  0  0  0  0  0  0  0  0
   26.0144  -20.3287   -9.6110 C   0  0  0  0  0  0  0  0  0  0  0  0
   26.6475  -20.5271  -10.9503 C   0  0  1  0  0  0  0  0  0  0  0  0
   27.5851  -21.7099  -10.9427 C   0  0  0  0  0  0  0  0  0  0  0  0
   27.1702  -22.8029  -11.4034 O   0  0  0  0  0  0  0  0  0  0  0  0
   28.8598  -21.5976  -10.4456 O   0  0  0  0  0  0  0  0  0  0  0  0
  1  2  1  0
  3  2  1  0
  3  5  1  0
  3  4  1  6
  5  7  1  0
  5  6  1  1
  7  8  2  0
  9 10  1  0
 10 12  1  0
 11 10  2  0
 12 13  1  0
 14 13  1  6
 14 16  1  0
 15 14  1  0
 15  7  1  0
 16 18  1  0
 17 16  2  0
 18 19  1  0
 18 22  1  0
 20 21  1  0
 20 19  1  0
 21 22  1  0
 22 23  1  1
 23 25  1  0
 24 23  2  0
M  END
$$$$
