IQP.pdb
     RDKit          3D

 25 25  0  0  1  0  0  0  0  0999 V2000
   28.0300  -19.1712   -5.0856 C   0  0  0  0  0  0  0  0  0  0  0  0
   26.5908  -19.2567   -5.6410 C   0  0  0  0  0  0  0  0  0  0  0  0
   26.7137  -19.8638   -6.9936 C   0  0  2  0  0  0  0  0  0  0  0  0
   27.7257  -19.1579   -7.8699 C   0  0  0  0  0  0  0  0  0  0  0  0
   25.3940  -20.0696   -7.6455 C   0  0  2  0  0  0  0  0  0  0  0  0
   24.5659  -20.8214   -6.6730 N   0  0  0  0  0  0  0  0  0  0  0  0
   25.4637  -20.8938   -8.9127 C   0  0  0  0  0  0  0  0  0  0  0  0
   25.6926  -22.1153   -8.7696 O   0  0  0  0  0  0  0  0  0  0  0  0
   21.9872  -19.3053  -13.7622 N   0  0  0  0  0  0  0  0  0  0  0  0
   22.0202  -20.4163  -12.8889 C   0  0  0  0  0  0  0  0  0  0  0  0
   21.3020  -21.4310  -13.0523 O   0  0  0  0  0  0  0  0  0  0  0  0
   22.9504  -20.3937  -11.7111 C   0  0  0  0  0  0  0  0  0  0  0  0
   23.9659  -21.5021  -11.8082 C   0  0  0  0  0  0  0  0  0  0  0  0
   25.3280  -20.9375  -11.4704 C   0  0  2  0  0  0  0  0  0  0  0  0
   25.2750  -20.3164  -10.1724 N   0  0  0  0  0  0  0  0  0  0  0  0
   25.8320  -19.9959  -12.4667 C   0  0  0  0  0  0  0  0  0  0  0  0
   25.5895  -18.7551  -12.2480 O   0  0  0  0  0  0  0  0  0  0  0  0
   26.5643  -20.3452  -13.6514 N   0  0  0  0  0  0  0  0  0  0  0  0
   26.9233  -21.6642  -14.0521 C   0  0  0  0  0  0  0  0  0  0  0  0
   28.2504  -21.4374  -14.7759 C   0  0  0  0  0  0  0  0  0  0  0  0
   28.1718  -20.0545  -15.3270 C   0  0  0  0  0  0  0  0  0  0  0  0
   27.0195  -19.4116  -14.6251 C   0  0  1  0  0  0  0  0  0  0  0  0
   25.9195  -19.0527  -15.5941 C   0  0  0  0  0  0  0  0  0  0  0  0
   24.8540  -19.7181  -15.5601 O   0  0  0  0  0  0  0  0  0  0  0  0
   26.0759  -18.0256  -16.4914 O   0  0  0  0  0  0  0  0  0  0  0  0
  1  2  1  0
  3  2  1  0
  3  5  1  0
  3  4  1  6
  5  7  1  0
  5  6  1  1
  7  8  2  0
  9 10  1  0
 10 12  1  0
 11 10  2  0
 12 13  1  0
 14 13  1  6
 14 16  1  0
 15 14  1  0
 15  7  1  0
 16 18  1  0
 17 16  2  0
 18 19  1  0
 18 22  1  0
 20 21  1  0
 20 19  1  0
 21 22  1  0
 22 23  1  6
 23 25  1  0
 24 23  2  0
M  END
$$$$
