IQP.pdb
     RDKit          3D

 25 25  0  0  1  0  0  0  0  0999 V2000
   29.0403  -18.7393  -13.2787 C   0  0  0  0  0  0  0  0  0  0  0  0
   28.9840  -20.0719  -14.0585 C   0  0  0  0  0  0  0  0  0  0  0  0
   27.5390  -20.3850  -14.2223 C   0  0  2  0  0  0  0  0  0  0  0  0
   26.8249  -19.4207  -15.1445 C   0  0  0  0  0  0  0  0  0  0  0  0
   26.8520  -20.5922  -12.9207 C   0  0  2  0  0  0  0  0  0  0  0  0
   27.5614  -21.7091  -12.2526 N   0  0  0  0  0  0  0  0  0  0  0  0
   25.3999  -20.9958  -13.0571 C   0  0  0  0  0  0  0  0  0  0  0  0
   25.1784  -22.0986  -13.6048 O   0  0  0  0  0  0  0  0  0  0  0  0
   19.8018  -20.8258  -10.6483 N   0  0  0  0  0  0  0  0  0  0  0  0
   20.8951  -20.6660   -9.7667 C   0  0  0  0  0  0  0  0  0  0  0  0
   20.7655  -20.6449   -8.5198 O   0  0  0  0  0  0  0  0  0  0  0  0
   22.2763  -20.5137  -10.3343 C   0  0  0  0  0  0  0  0  0  0  0  0
   22.2596  -19.6351  -11.5578 C   0  0  0  0  0  0  0  0  0  0  0  0
   22.9429  -20.3719  -12.6885 C   0  0  2  0  0  0  0  0  0  0  0  0
   24.3663  -20.1788  -12.5882 N   0  0  0  0  0  0  0  0  0  0  0  0
   22.4664  -19.9792  -14.0121 C   0  0  0  0  0  0  0  0  0  0  0  0
   22.9834  -18.9149  -14.5081 O   0  0  0  0  0  0  0  0  0  0  0  0
   21.4811  -20.6792  -14.7873 N   0  0  0  0  0  0  0  0  0  0  0  0
   20.8665  -21.9153  -14.4356 C   0  0  0  0  0  0  0  0  0  0  0  0
   20.6213  -22.5594  -15.8000 C   0  0  0  0  0  0  0  0  0  0  0  0
   20.4489  -21.4244  -16.7508 C   0  0  0  0  0  0  0  0  0  0  0  0
   20.9480  -20.2176  -16.0239 C   0  0  1  0  0  0  0  0  0  0  0  0
   19.8412  -19.2157  -15.8019 C   0  0  0  0  0  0  0  0  0  0  0  0
   19.4151  -19.0473  -14.6318 O   0  0  0  0  0  0  0  0  0  0  0  0
   19.3113  -18.5047  -16.8498 O   0  0  0  0  0  0  0  0  0  0  0  0
  1  2  1  0
  3  2  1  0
  3  5  1  0
  3  4  1  1
  5  7  1  0
  5  6  1  6
  7  8  2  0
  9 10  1  0
 10 12  1  0
 11 10  2  0
 12 13  1  0
 14 13  1  1
 14 16  1  0
 15 14  1  0
 15  7  1  0
 16 18  1  0
 17 16  2  0
 18 19  1  0
 18 22  1  0
 20 21  1  0
 20 19  1  0
 21 22  1  0
 22 23  1  1
 23 25  1  0
 24 23  2  0
M  END
$$$$
