IQP.pdb
     RDKit          3D

 25 25  0  0  1  0  0  0  0  0999 V2000
   19.7010  -19.7494  -19.1772 C   0  0  0  0  0  0  0  0  0  0  0  0
   19.7007  -19.1495  -17.7535 C   0  0  0  0  0  0  0  0  0  0  0  0
   21.1114  -19.2149  -17.2858 C   0  0  2  0  0  0  0  0  0  0  0  0
   21.7365  -20.5797  -17.4783 C   0  0  0  0  0  0  0  0  0  0  0  0
   21.2815  -18.6637  -15.9160 C   0  0  2  0  0  0  0  0  0  0  0  0
   20.7162  -17.2939  -15.9491 N   0  0  0  0  0  0  0  0  0  0  0  0
   22.7267  -18.5463  -15.4830 C   0  0  0  0  0  0  0  0  0  0  0  0
   23.4741  -17.8646  -16.2190 O   0  0  0  0  0  0  0  0  0  0  0  0
   25.2483  -22.0408  -11.4570 N   0  0  0  0  0  0  0  0  0  0  0  0
   26.2415  -21.0410  -11.3472 C   0  0  0  0  0  0  0  0  0  0  0  0
   27.3618  -21.2501  -10.8245 O   0  0  0  0  0  0  0  0  0  0  0  0
   25.9559  -19.6651  -11.8749 C   0  0  0  0  0  0  0  0  0  0  0  0
   24.5327  -19.5603  -12.3572 C   0  0  0  0  0  0  0  0  0  0  0  0
   24.5477  -19.3026  -13.8478 C   0  0  2  0  0  0  0  0  0  0  0  0
   23.1939  -19.1634  -14.3183 N   0  0  0  0  0  0  0  0  0  0  0  0
   25.2500  -20.3317  -14.6101 C   0  0  0  0  0  0  0  0  0  0  0  0
   24.6328  -21.4466  -14.7599 O   0  0  0  0  0  0  0  0  0  0  0  0
   26.5546  -20.1950  -15.1939 N   0  0  0  0  0  0  0  0  0  0  0  0
   27.4390  -19.0932  -15.0120 C   0  0  0  0  0  0  0  0  0  0  0  0
   28.1761  -19.0399  -16.3500 C   0  0  0  0  0  0  0  0  0  0  0  0
   28.1821  -20.4416  -16.8573 C   0  0  0  0  0  0  0  0  0  0  0  0
   27.1728  -21.1686  -16.0286 C   0  0  1  0  0  0  0  0  0  0  0  0
   27.8198  -22.2588  -15.2097 C   0  0  0  0  0  0  0  0  0  0  0  0
   27.9658  -22.0711  -13.9757 O   0  0  0  0  0  0  0  0  0  0  0  0
   28.2395  -23.4275  -15.7952 O   0  0  0  0  0  0  0  0  0  0  0  0
  1  2  1  0
  3  2  1  0
  3  5  1  0
  3  4  1  1
  5  7  1  0
  5  6  1  6
  7  8  2  0
  9 10  1  0
 10 12  1  0
 11 10  2  0
 12 13  1  0
 14 13  1  1
 14 16  1  0
 15 14  1  0
 15  7  1  0
 16 18  1  0
 17 16  2  0
 18 19  1  0
 18 22  1  0
 20 21  1  0
 20 19  1  0
 21 22  1  0
 22 23  1  1
 23 25  1  0
 24 23  2  0
M  END
$$$$
