IQP.pdb
     RDKit          3D

 25 25  0  0  1  0  0  0  0  0999 V2000
   29.0010  -16.0923  -18.1453 C   0  0  0  0  0  0  0  0  0  0  0  0
   27.7868  -16.9212  -18.6204 C   0  0  0  0  0  0  0  0  0  0  0  0
   27.0419  -17.2923  -17.3873 C   0  0  2  0  0  0  0  0  0  0  0  0
   27.8141  -18.2351  -16.4900 C   0  0  0  0  0  0  0  0  0  0  0  0
   25.6538  -17.7386  -17.6754 C   0  0  2  0  0  0  0  0  0  0  0  0
   24.9677  -16.5800  -18.2948 N   0  0  0  0  0  0  0  0  0  0  0  0
   24.8692  -18.1210  -16.4392 C   0  0  0  0  0  0  0  0  0  0  0  0
   24.4021  -17.1777  -15.7632 O   0  0  0  0  0  0  0  0  0  0  0  0
   20.2293  -20.9856  -14.2129 N   0  0  0  0  0  0  0  0  0  0  0  0
   20.3772  -19.7698  -14.9188 C   0  0  0  0  0  0  0  0  0  0  0  0
   19.4561  -18.9250  -15.0179 O   0  0  0  0  0  0  0  0  0  0  0  0
   21.6881  -19.4644  -15.5830 C   0  0  0  0  0  0  0  0  0  0  0  0
   22.6691  -20.5886  -15.3760 C   0  0  0  0  0  0  0  0  0  0  0  0
   23.9904  -19.9989  -14.9348 C   0  0  2  0  0  0  0  0  0  0  0  0
   24.6746  -19.4587  -16.0808 N   0  0  0  0  0  0  0  0  0  0  0  0
   24.8466  -20.9495  -14.2301 C   0  0  0  0  0  0  0  0  0  0  0  0
   25.5855  -21.6991  -14.9639 O   0  0  0  0  0  0  0  0  0  0  0  0
   24.9236  -21.1080  -12.8051 N   0  0  0  0  0  0  0  0  0  0  0  0
   24.1606  -20.3861  -11.8428 C   0  0  0  0  0  0  0  0  0  0  0  0
   25.1221  -20.3031  -10.6573 C   0  0  0  0  0  0  0  0  0  0  0  0
   25.9857  -21.5137  -10.7597 C   0  0  0  0  0  0  0  0  0  0  0  0
   25.7659  -22.0433  -12.1401 C   0  0  1  0  0  0  0  0  0  0  0  0
   25.1389  -23.4157  -12.1064 C   0  0  0  0  0  0  0  0  0  0  0  0
   23.9062  -23.5140  -12.3295 O   0  0  0  0  0  0  0  0  0  0  0  0
   25.8938  -24.5308  -11.8391 O   0  0  0  0  0  0  0  0  0  0  0  0
  1  2  1  0
  3  2  1  0
  3  5  1  0
  3  4  1  6
  5  7  1  0
  5  6  1  1
  7  8  2  0
  9 10  1  0
 10 12  1  0
 11 10  2  0
 12 13  1  0
 14 13  1  6
 14 16  1  0
 15 14  1  0
 15  7  1  0
 16 18  1  0
 17 16  2  0
 18 19  1  0
 18 22  1  0
 20 21  1  0
 20 19  1  0
 21 22  1  0
 22 23  1  1
 23 25  1  0
 24 23  2  0
M  END
$$$$
