IQP.pdb
     RDKit          3D

 25 25  0  0  1  0  0  0  0  0999 V2000
   20.5866  -16.9801  -18.8001 C   0  0  0  0  0  0  0  0  0  0  0  0
   21.4328  -16.4943  -17.6022 C   0  0  0  0  0  0  0  0  0  0  0  0
   22.3013  -17.6425  -17.2274 C   0  0  2  0  0  0  0  0  0  0  0  0
   21.5446  -18.9491  -17.1256 C   0  0  0  0  0  0  0  0  0  0  0  0
   23.1533  -17.3477  -16.0457 C   0  0  2  0  0  0  0  0  0  0  0  0
   23.9978  -16.1899  -16.4241 N   0  0  0  0  0  0  0  0  0  0  0  0
   24.0823  -18.4810  -15.6681 C   0  0  0  0  0  0  0  0  0  0  0  0
   24.8713  -18.8726  -16.5564 O   0  0  0  0  0  0  0  0  0  0  0  0
   24.6632  -20.4302   -9.6420 N   0  0  0  0  0  0  0  0  0  0  0  0
   25.5003  -21.3404  -10.3269 C   0  0  0  0  0  0  0  0  0  0  0  0
   26.1837  -22.2110   -9.7377 O   0  0  0  0  0  0  0  0  0  0  0  0
   25.5842  -21.2727  -11.8240 C   0  0  0  0  0  0  0  0  0  0  0  0
   24.7657  -20.1255  -12.3559 C   0  0  0  0  0  0  0  0  0  0  0  0
   24.8590  -20.1273  -13.8657 C   0  0  2  0  0  0  0  0  0  0  0  0
   24.0597  -19.0510  -14.3912 N   0  0  0  0  0  0  0  0  0  0  0  0
   24.4679  -21.3971  -14.4723 C   0  0  0  0  0  0  0  0  0  0  0  0
   23.2085  -21.6367  -14.5237 O   0  0  0  0  0  0  0  0  0  0  0  0
   25.3677  -22.3808  -15.0055 N   0  0  0  0  0  0  0  0  0  0  0  0
   26.7892  -22.2904  -15.0206 C   0  0  0  0  0  0  0  0  0  0  0  0
   27.1522  -23.0440  -16.3000 C   0  0  0  0  0  0  0  0  0  0  0  0
   26.0664  -24.0469  -16.4929 C   0  0  0  0  0  0  0  0  0  0  0  0
   24.9635  -23.6195  -15.5790 C   0  0  1  0  0  0  0  0  0  0  0  0
   24.7031  -24.6560  -14.5133 C   0  0  0  0  0  0  0  0  0  0  0  0
   24.1218  -25.7196  -14.8450 O   0  0  0  0  0  0  0  0  0  0  0  0
   25.0904  -24.4452  -13.2132 O   0  0  0  0  0  0  0  0  0  0  0  0
  1  2  1  0
  3  2  1  0
  3  5  1  0
  3  4  1  1
  5  7  1  0
  5  6  1  6
  7  8  2  0
  9 10  1  0
 10 12  1  0
 11 10  2  0
 12 13  1  0
 14 13  1  1
 14 16  1  0
 15 14  1  0
 15  7  1  0
 16 18  1  0
 17 16  2  0
 18 19  1  0
 18 22  1  0
 20 21  1  0
 20 19  1  0
 21 22  1  0
 22 23  1  1
 23 25  1  0
 24 23  2  0
M  END
$$$$
