IQP.pdb
     RDKit          3D

 25 25  0  0  1  0  0  0  0  0999 V2000
   27.5938  -18.6509   -7.2062 C   0  0  0  0  0  0  0  0  0  0  0  0
   27.5769  -20.1908   -7.0826 C   0  0  0  0  0  0  0  0  0  0  0  0
   27.1942  -20.7012   -8.4266 C   0  0  2  0  0  0  0  0  0  0  0  0
   28.2036  -20.3569   -9.5003 C   0  0  0  0  0  0  0  0  0  0  0  0
   25.7935  -20.3582   -8.7863 C   0  0  2  0  0  0  0  0  0  0  0  0
   24.9504  -20.8359   -7.6647 N   0  0  0  0  0  0  0  0  0  0  0  0
   25.3036  -21.0428  -10.0438 C   0  0  0  0  0  0  0  0  0  0  0  0
   25.7453  -22.1933  -10.2585 O   0  0  0  0  0  0  0  0  0  0  0  0
   20.1328  -19.2054  -13.1726 N   0  0  0  0  0  0  0  0  0  0  0  0
   20.6806  -20.1600  -14.0596 C   0  0  0  0  0  0  0  0  0  0  0  0
   20.1335  -20.4737  -15.1432 O   0  0  0  0  0  0  0  0  0  0  0  0
   21.9726  -20.8348  -13.7012 C   0  0  0  0  0  0  0  0  0  0  0  0
   22.5081  -20.3092  -12.3950 C   0  0  0  0  0  0  0  0  0  0  0  0
   23.8879  -20.8879  -12.1731 C   0  0  2  0  0  0  0  0  0  0  0  0
   24.4007  -20.4202  -10.9114 N   0  0  0  0  0  0  0  0  0  0  0  0
   24.8271  -20.5850  -13.2499 C   0  0  0  0  0  0  0  0  0  0  0  0
   25.3724  -19.4241  -13.2167 O   0  0  0  0  0  0  0  0  0  0  0  0
   25.1807  -21.4698  -14.3240 N   0  0  0  0  0  0  0  0  0  0  0  0
   24.6314  -22.7639  -14.5543 C   0  0  0  0  0  0  0  0  0  0  0  0
   25.8082  -23.5132  -15.1791 C   0  0  0  0  0  0  0  0  0  0  0  0
   26.6187  -22.4729  -15.8740 C   0  0  0  0  0  0  0  0  0  0  0  0
   26.1248  -21.1651  -15.3449 C   0  0  1  0  0  0  0  0  0  0  0  0
   25.4985  -20.3338  -16.4379 C   0  0  0  0  0  0  0  0  0  0  0  0
   26.2572  -19.7369  -17.2423 O   0  0  0  0  0  0  0  0  0  0  0  0
   24.1345  -20.2305  -16.5532 O   0  0  0  0  0  0  0  0  0  0  0  0
  1  2  1  0
  3  2  1  0
  3  5  1  0
  3  4  1  6
  5  7  1  0
  5  6  1  1
  7  8  2  0
  9 10  1  0
 10 12  1  0
 11 10  2  0
 12 13  1  0
 14 13  1  6
 14 16  1  0
 15 14  1  0
 15  7  1  0
 16 18  1  0
 17 16  2  0
 18 19  1  0
 18 22  1  0
 20 21  1  0
 20 19  1  0
 21 22  1  0
 22 23  1  6
 23 25  1  0
 24 23  2  0
M  END
$$$$
