IQP.pdb
     RDKit          3D

 25 25  0  0  1  0  0  0  0  0999 V2000
   28.2271  -19.5814   -6.0235 C   0  0  0  0  0  0  0  0  0  0  0  0
   26.7173  -19.6675   -6.3401 C   0  0  0  0  0  0  0  0  0  0  0  0
   26.6236  -20.1948   -7.7280 C   0  0  2  0  0  0  0  0  0  0  0  0
   27.5119  -19.4543   -8.7042 C   0  0  0  0  0  0  0  0  0  0  0  0
   25.2172  -20.3402   -8.1862 C   0  0  2  0  0  0  0  0  0  0  0  0
   24.5502  -21.2214   -7.1986 N   0  0  0  0  0  0  0  0  0  0  0  0
   25.0846  -20.9987   -9.5422 C   0  0  0  0  0  0  0  0  0  0  0  0
   25.6120  -22.1263   -9.6667 O   0  0  0  0  0  0  0  0  0  0  0  0
   20.1414  -20.5929  -13.1585 N   0  0  0  0  0  0  0  0  0  0  0  0
   21.0798  -21.0738  -14.0999 C   0  0  0  0  0  0  0  0  0  0  0  0
   20.7581  -21.4357  -15.2565 O   0  0  0  0  0  0  0  0  0  0  0  0
   22.5271  -21.1604  -13.7114 C   0  0  0  0  0  0  0  0  0  0  0  0
   22.7405  -20.6339  -12.3164 C   0  0  0  0  0  0  0  0  0  0  0  0
   24.1892  -20.8484  -11.9376 C   0  0  2  0  0  0  0  0  0  0  0  0
   24.4022  -20.3781  -10.5934 N   0  0  0  0  0  0  0  0  0  0  0  0
   25.1317  -20.2145  -12.8558 C   0  0  0  0  0  0  0  0  0  0  0  0
   25.2808  -18.9464  -12.7291 O   0  0  0  0  0  0  0  0  0  0  0  0
   25.8903  -20.8883  -13.8717 N   0  0  0  0  0  0  0  0  0  0  0  0
   25.8411  -22.2817  -14.1636 C   0  0  0  0  0  0  0  0  0  0  0  0
   27.2682  -22.5697  -14.6296 C   0  0  0  0  0  0  0  0  0  0  0  0
   27.7593  -21.2924  -15.2208 C   0  0  0  0  0  0  0  0  0  0  0  0
   26.7935  -20.2464  -14.7654 C   0  0  1  0  0  0  0  0  0  0  0  0
   26.0619  -19.6314  -15.9335 C   0  0  0  0  0  0  0  0  0  0  0  0
   26.7059  -18.8894  -16.7170 O   0  0  0  0  0  0  0  0  0  0  0  0
   24.7263  -19.8745  -16.1377 O   0  0  0  0  0  0  0  0  0  0  0  0
  1  2  1  0
  3  2  1  0
  3  5  1  0
  3  4  1  6
  5  7  1  0
  5  6  1  1
  7  8  2  0
  9 10  1  0
 10 12  1  0
 11 10  2  0
 12 13  1  0
 14 13  1  6
 14 16  1  0
 15 14  1  0
 15  7  1  0
 16 18  1  0
 17 16  2  0
 18 19  1  0
 18 22  1  0
 20 21  1  0
 20 19  1  0
 21 22  1  0
 22 23  1  6
 23 25  1  0
 24 23  2  0
M  END
$$$$
