IQP.pdb
     RDKit          3D

 25 25  0  0  1  0  0  0  0  0999 V2000
   27.1905  -21.1320  -10.3068 C   0  0  0  0  0  0  0  0  0  0  0  0
   26.6629  -20.1601  -11.3857 C   0  0  0  0  0  0  0  0  0  0  0  0
   26.8138  -20.8733  -12.6824 C   0  0  2  0  0  0  0  0  0  0  0  0
   28.2040  -21.4338  -12.8918 C   0  0  0  0  0  0  0  0  0  0  0  0
   26.3077  -20.0768  -13.8307 C   0  0  2  0  0  0  0  0  0  0  0  0
   27.2078  -18.9052  -13.9490 N   0  0  0  0  0  0  0  0  0  0  0  0
   24.9030  -19.5500  -13.6330 C   0  0  0  0  0  0  0  0  0  0  0  0
   24.7896  -18.5158  -12.9383 O   0  0  0  0  0  0  0  0  0  0  0  0
   21.4631  -17.1061  -16.4512 N   0  0  0  0  0  0  0  0  0  0  0  0
   20.3167  -17.7709  -15.9594 C   0  0  0  0  0  0  0  0  0  0  0  0
   19.1863  -17.2307  -15.9102 O   0  0  0  0  0  0  0  0  0  0  0  0
   20.4438  -19.1848  -15.4718 C   0  0  0  0  0  0  0  0  0  0  0  0
   21.8732  -19.6533  -15.5516 C   0  0  0  0  0  0  0  0  0  0  0  0
   22.4067  -19.8119  -14.1450 C   0  0  2  0  0  0  0  0  0  0  0  0
   23.7961  -20.1856  -14.2045 N   0  0  0  0  0  0  0  0  0  0  0  0
   21.6539  -20.7710  -13.3409 C   0  0  0  0  0  0  0  0  0  0  0  0
   21.8983  -22.0111  -13.5614 O   0  0  0  0  0  0  0  0  0  0  0  0
   20.6784  -20.4396  -12.3409 N   0  0  0  0  0  0  0  0  0  0  0  0
   20.2064  -19.1303  -12.0371 C   0  0  0  0  0  0  0  0  0  0  0  0
   19.9150  -19.2260  -10.5396 C   0  0  0  0  0  0  0  0  0  0  0  0
   19.5681  -20.6544  -10.2921 C   0  0  0  0  0  0  0  0  0  0  0  0
   20.0116  -21.3890  -11.5159 C   0  0  1  0  0  0  0  0  0  0  0  0
   18.8399  -22.0110  -12.2357 C   0  0  0  0  0  0  0  0  0  0  0  0
   18.5094  -21.5419  -13.3537 O   0  0  0  0  0  0  0  0  0  0  0  0
   18.1504  -23.0629  -11.6856 O   0  0  0  0  0  0  0  0  0  0  0  0
  1  2  1  0
  3  2  1  0
  3  5  1  0
  3  4  1  6
  5  7  1  0
  5  6  1  1
  7  8  2  0
  9 10  1  0
 10 12  1  0
 11 10  2  0
 12 13  1  0
 14 13  1  6
 14 16  1  0
 15 14  1  0
 15  7  1  0
 16 18  1  0
 17 16  2  0
 18 19  1  0
 18 22  1  0
 20 21  1  0
 20 19  1  0
 21 22  1  0
 22 23  1  6
 23 25  1  0
 24 23  2  0
M  END
$$$$
