IQP.pdb
     RDKit          3D

 25 25  0  0  1  0  0  0  0  0999 V2000
   18.4472  -18.4887  -18.5019 C   0  0  0  0  0  0  0  0  0  0  0  0
   18.6402  -19.4718  -17.3258 C   0  0  0  0  0  0  0  0  0  0  0  0
   19.8364  -18.9881  -16.5854 C   0  0  2  0  0  0  0  0  0  0  0  0
   21.0237  -18.7243  -17.4860 C   0  0  0  0  0  0  0  0  0  0  0  0
   20.1536  -19.8337  -15.4050 C   0  0  2  0  0  0  0  0  0  0  0  0
   19.0036  -19.6988  -14.4796 N   0  0  0  0  0  0  0  0  0  0  0  0
   21.3916  -19.3916  -14.6554 C   0  0  0  0  0  0  0  0  0  0  0  0
   21.2862  -18.3473  -13.9747 O   0  0  0  0  0  0  0  0  0  0  0  0
   26.1748  -21.2473  -11.4510 N   0  0  0  0  0  0  0  0  0  0  0  0
   25.4025  -22.2572  -12.0690 C   0  0  0  0  0  0  0  0  0  0  0  0
   25.6998  -23.4737  -12.0077 O   0  0  0  0  0  0  0  0  0  0  0  0
   24.1709  -21.8705  -12.8349 C   0  0  0  0  0  0  0  0  0  0  0  0
   23.9197  -20.3886  -12.7343 C   0  0  0  0  0  0  0  0  0  0  0  0
   23.8634  -19.8142  -14.1326 C   0  0  2  0  0  0  0  0  0  0  0  0
   22.5842  -20.1192  -14.7190 N   0  0  0  0  0  0  0  0  0  0  0  0
   24.9452  -20.2783  -14.9972 C   0  0  0  0  0  0  0  0  0  0  0  0
   24.7107  -21.3398  -15.6787 O   0  0  0  0  0  0  0  0  0  0  0  0
   26.2284  -19.6501  -15.1408 N   0  0  0  0  0  0  0  0  0  0  0  0
   26.7457  -18.6108  -14.3152 C   0  0  0  0  0  0  0  0  0  0  0  0
   27.6110  -17.8156  -15.2927 C   0  0  0  0  0  0  0  0  0  0  0  0
   28.0672  -18.8015  -16.3134 C   0  0  0  0  0  0  0  0  0  0  0  0
   27.1942  -20.0003  -16.1263 C   0  0  1  0  0  0  0  0  0  0  0  0
   27.9999  -21.2027  -15.6987 C   0  0  0  0  0  0  0  0  0  0  0  0
   27.8660  -21.6228  -14.5220 O   0  0  0  0  0  0  0  0  0  0  0  0
   28.8585  -21.8243  -16.5712 O   0  0  0  0  0  0  0  0  0  0  0  0
  1  2  1  0
  3  2  1  0
  3  5  1  0
  3  4  1  6
  5  7  1  0
  5  6  1  1
  7  8  2  0
  9 10  1  0
 10 12  1  0
 11 10  2  0
 12 13  1  0
 14 13  1  1
 14 16  1  0
 15 14  1  0
 15  7  1  0
 16 18  1  0
 17 16  2  0
 18 19  1  0
 18 22  1  0
 20 21  1  0
 20 19  1  0
 21 22  1  0
 22 23  1  1
 23 25  1  0
 24 23  2  0
M  END
$$$$
