QMW.pdb
     RDKit          3D

 32 33  0  0  1  0  0  0  0  0999 V2000
    7.7153  -17.3952   15.5531 N   0  0  0  0  0  0  0  0  0  0  0  0
    7.0329  -18.5120   16.1253 C   0  0  0  0  0  0  0  0  0  0  0  0
    6.2401  -19.2396   15.5181 O   0  0  0  0  0  0  0  0  0  0  0  0
    7.3239  -18.7915   17.5688 C   0  0  0  0  0  0  0  0  0  0  0  0
    8.1874  -17.7195   18.1425 C   0  0  0  0  0  0  0  0  0  0  0  0
    8.5118  -17.8809   19.5980 C   0  0  2  0  0  0  0  0  0  0  0  0
    7.3948  -18.5091   20.3065 N   0  0  0  0  0  0  0  0  0  0  0  0
    8.8988  -16.6111   20.2403 C   0  0  0  0  0  0  0  0  0  0  0  0
    9.8262  -15.9337   19.7371 O   0  0  0  0  0  0  0  0  0  0  0  0
    6.2691  -13.8900   25.7826 C   0  0  0  0  0  0  0  0  0  0  0  0
    6.7728  -12.4794   24.7821 S   0  0  0  0  0  0  0  0  0  0  0  0
    7.8914  -12.9158   23.4684 C   0  0  0  0  0  0  0  0  0  0  0  0
    7.6909  -14.2215   22.7982 C   0  0  0  0  0  0  0  0  0  0  0  0
    8.7599  -14.8088   21.9593 C   0  0  2  0  0  0  0  0  0  0  0  0
    8.2778  -16.1060   21.4055 N   0  0  0  0  0  0  0  0  0  0  0  0
   10.0176  -15.0238   22.6739 C   0  0  0  0  0  0  0  0  0  0  0  0
   10.9105  -14.1748   22.7198 O   0  0  0  0  0  0  0  0  0  0  0  0
   10.2548  -16.2698   23.3635 N   0  0  0  0  0  0  0  0  0  0  0  0
   11.2164  -16.3571   24.4705 C   0  0  1  0  0  0  0  0  0  0  0  0
   10.6522  -15.4738   25.5426 C   0  0  0  0  0  0  0  0  0  0  0  0
   10.4618  -16.0978   26.8396 C   0  0  0  0  0  0  0  0  0  0  0  0
   10.4604  -17.4801   27.0323 C   0  0  0  0  0  0  0  0  0  0  0  0
   10.2274  -17.7022   28.3253 N   0  0  0  0  0  0  0  0  0  0  0  0
   10.0788  -16.5311   28.9782 C   0  0  0  0  0  0  0  0  0  0  0  0
    9.8426  -16.1988   30.2949 C   0  0  0  0  0  0  0  0  0  0  0  0
    9.7538  -14.8880   30.6878 C   0  0  0  0  0  0  0  0  0  0  0  0
    9.8986  -13.8814   29.7765 C   0  0  0  0  0  0  0  0  0  0  0  0
   10.1326  -14.2049   28.4676 C   0  0  0  0  0  0  0  0  0  0  0  0
   10.2259  -15.5026   28.0437 C   0  0  0  0  0  0  0  0  0  0  0  0
   11.4450  -17.7411   24.8630 C   0  0  0  0  0  0  0  0  0  0  0  0
   12.3754  -17.9781   25.6994 O   0  0  0  0  0  0  0  0  0  0  0  0
   10.7501  -18.8439   24.4251 O   0  0  0  0  0  0  0  0  0  0  0  0
  2  1  1  0
  3  2  2  0
  4  2  1  0
  5  4  1  0
  6  5  1  0
  6  7  1  1
  8  9  2  0
  8  6  1  0
 10 11  1  0
 12 11  1  0
 12 13  1  0
 14 13  1  1
 14 16  1  0
 14 15  1  0
 15  8  1  0
 16 18  1  0
 17 16  2  0
 18 19  1  0
 19 30  1  0
 20 21  1  0
 19 20  1  1
 21 29  1  0
 22 23  1  0
 22 21  2  0
 23 24  1  0
 24 29  2  0
 24 25  1  0
 25 26  2  0
 26 27  1  0
 28 27  2  0
 29 28  1  0
 30 31  2  0
 30 32  1  0
M  END
$$$$
