QMW.pdb
     RDKit          3D

 32 33  0  0  1  0  0  0  0  0999 V2000
    7.4005  -12.4215   18.0589 N   0  0  0  0  0  0  0  0  0  0  0  0
    7.6493  -13.7747   17.6752 C   0  0  0  0  0  0  0  0  0  0  0  0
    6.7739  -14.5972   17.3857 O   0  0  0  0  0  0  0  0  0  0  0  0
    9.0882  -14.1921   17.6318 C   0  0  0  0  0  0  0  0  0  0  0  0
    9.6841  -14.1482   18.9983 C   0  0  0  0  0  0  0  0  0  0  0  0
    9.7719  -15.4752   19.6920 C   0  0  2  0  0  0  0  0  0  0  0  0
    8.7159  -16.3726   19.2194 N   0  0  0  0  0  0  0  0  0  0  0  0
    9.7446  -15.3533   21.1615 C   0  0  0  0  0  0  0  0  0  0  0  0
   10.6006  -14.6327   21.7274 O   0  0  0  0  0  0  0  0  0  0  0  0
    6.4158  -12.1040   25.5032 C   0  0  0  0  0  0  0  0  0  0  0  0
    7.4990  -13.5311   25.3166 S   0  0  0  0  0  0  0  0  0  0  0  0
    6.7721  -14.8417   24.3566 C   0  0  0  0  0  0  0  0  0  0  0  0
    7.6037  -16.0359   24.0803 C   0  0  0  0  0  0  0  0  0  0  0  0
    8.9404  -15.8949   23.4598 C   0  0  2  0  0  0  0  0  0  0  0  0
    8.7978  -16.0100   21.9805 N   0  0  0  0  0  0  0  0  0  0  0  0
    9.9148  -16.8783   23.9313 C   0  0  0  0  0  0  0  0  0  0  0  0
   10.0412  -17.9905   23.4146 O   0  0  0  0  0  0  0  0  0  0  0  0
   10.7784  -16.5653   25.0451 N   0  0  0  0  0  0  0  0  0  0  0  0
   11.8015  -17.5133   25.5059 C   0  0  1  0  0  0  0  0  0  0  0  0
   12.5662  -16.7730   26.5619 C   0  0  0  0  0  0  0  0  0  0  0  0
   11.8403  -16.4925   27.7875 C   0  0  0  0  0  0  0  0  0  0  0  0
   11.8693  -17.3291   28.9042 C   0  0  0  0  0  0  0  0  0  0  0  0
   11.0725  -16.7908   29.8266 N   0  0  0  0  0  0  0  0  0  0  0  0
   10.5304  -15.6466   29.3612 C   0  0  0  0  0  0  0  0  0  0  0  0
    9.6709  -14.7130   29.8993 C   0  0  0  0  0  0  0  0  0  0  0  0
    9.2919  -13.6063   29.1836 C   0  0  0  0  0  0  0  0  0  0  0  0
    9.7617  -13.4073   27.9170 C   0  0  0  0  0  0  0  0  0  0  0  0
   10.6149  -14.3310   27.3770 C   0  0  0  0  0  0  0  0  0  0  0  0
   11.0113  -15.4456   28.0646 C   0  0  0  0  0  0  0  0  0  0  0  0
   11.2014  -18.7680   25.9387 C   0  0  0  0  0  0  0  0  0  0  0  0
   11.9613  -19.7827   26.0586 O   0  0  0  0  0  0  0  0  0  0  0  0
    9.8779  -18.9827   26.2436 O   0  0  0  0  0  0  0  0  0  0  0  0
  2  1  1  0
  3  2  2  0
  4  2  1  0
  5  4  1  0
  6  5  1  0
  6  7  1  6
  8  9  2  0
  8  6  1  0
 10 11  1  0
 12 11  1  0
 12 13  1  0
 14 13  1  1
 14 16  1  0
 14 15  1  0
 15  8  1  0
 16 18  1  0
 17 16  2  0
 18 19  1  0
 19 30  1  0
 20 21  1  0
 19 20  1  1
 21 29  1  0
 22 23  1  0
 22 21  2  0
 23 24  1  0
 24 29  2  0
 24 25  1  0
 25 26  2  0
 26 27  1  0
 28 27  2  0
 29 28  1  0
 30 31  2  0
 30 32  1  0
M  END
$$$$
