QMW.pdb
     RDKit          3D

 32 33  0  0  1  0  0  0  0  0999 V2000
   12.7276  -15.8649   16.5604 N   0  0  0  0  0  0  0  0  0  0  0  0
   11.5659  -16.6558   16.3043 C   0  0  0  0  0  0  0  0  0  0  0  0
   11.3030  -17.1916   15.2224 O   0  0  0  0  0  0  0  0  0  0  0  0
   10.6197  -16.8264   17.4541 C   0  0  0  0  0  0  0  0  0  0  0  0
   11.2507  -17.6435   18.5303 C   0  0  0  0  0  0  0  0  0  0  0  0
   10.3788  -17.8972   19.7242 C   0  0  2  0  0  0  0  0  0  0  0  0
    9.0421  -18.3212   19.3031 N   0  0  0  0  0  0  0  0  0  0  0  0
   10.3046  -16.7379   20.6328 C   0  0  0  0  0  0  0  0  0  0  0  0
   10.8930  -15.6775   20.3139 O   0  0  0  0  0  0  0  0  0  0  0  0
    7.5911  -11.7003   18.5007 C   0  0  0  0  0  0  0  0  0  0  0  0
    7.1103  -13.2094   19.3589 S   0  0  0  0  0  0  0  0  0  0  0  0
    8.3462  -13.7905   20.5001 C   0  0  0  0  0  0  0  0  0  0  0  0
    8.0345  -15.0005   21.2956 C   0  0  0  0  0  0  0  0  0  0  0  0
    8.9760  -15.4836   22.3309 C   0  0  2  0  0  0  0  0  0  0  0  0
    9.6002  -16.7520   21.8583 N   0  0  0  0  0  0  0  0  0  0  0  0
    8.3531  -15.7060   23.6352 C   0  0  0  0  0  0  0  0  0  0  0  0
    7.4419  -14.9967   24.0672 O   0  0  0  0  0  0  0  0  0  0  0  0
    8.8004  -16.7913   24.4757 N   0  0  0  0  0  0  0  0  0  0  0  0
    9.8669  -16.5976   25.4671 C   0  0  1  0  0  0  0  0  0  0  0  0
    9.1581  -16.1773   26.7196 C   0  0  0  0  0  0  0  0  0  0  0  0
    7.9442  -15.4041   26.5290 C   0  0  0  0  0  0  0  0  0  0  0  0
    6.7203  -15.9738   26.1747 C   0  0  0  0  0  0  0  0  0  0  0  0
    5.8392  -14.9816   26.0524 N   0  0  0  0  0  0  0  0  0  0  0  0
    6.4334  -13.7985   26.3111 C   0  0  0  0  0  0  0  0  0  0  0  0
    5.9859  -12.4951   26.3400 C   0  0  0  0  0  0  0  0  0  0  0  0
    6.8319  -11.4647   26.6616 C   0  0  0  0  0  0  0  0  0  0  0  0
    8.1410  -11.7122   26.9610 C   0  0  0  0  0  0  0  0  0  0  0  0
    8.5913  -13.0042   26.9334 C   0  0  0  0  0  0  0  0  0  0  0  0
    7.7730  -14.0539   26.6159 C   0  0  0  0  0  0  0  0  0  0  0  0
   10.6939  -17.7902   25.5922 C   0  0  0  0  0  0  0  0  0  0  0  0
   11.7228  -17.7270   26.3397 O   0  0  0  0  0  0  0  0  0  0  0  0
   10.4803  -19.0047   24.9838 O   0  0  0  0  0  0  0  0  0  0  0  0
  2  1  1  0
  3  2  2  0
  4  2  1  0
  5  4  1  0
  6  5  1  0
  6  7  1  6
  8  9  2  0
  8  6  1  0
 10 11  1  0
 12 11  1  0
 12 13  1  0
 14 13  1  6
 14 16  1  0
 14 15  1  0
 15  8  1  0
 16 18  1  0
 17 16  2  0
 18 19  1  0
 19 30  1  0
 20 21  1  0
 19 20  1  1
 21 29  1  0
 22 23  1  0
 22 21  2  0
 23 24  1  0
 24 29  2  0
 24 25  1  0
 25 26  2  0
 26 27  1  0
 28 27  2  0
 29 28  1  0
 30 31  2  0
 30 32  1  0
M  END
$$$$
