QMW.pdb
     RDKit          3D

 32 33  0  0  1  0  0  0  0  0999 V2000
    6.4256  -16.3996   15.2075 N   0  0  0  0  0  0  0  0  0  0  0  0
    7.6715  -16.3254   14.5127 C   0  0  0  0  0  0  0  0  0  0  0  0
    7.7948  -16.3448   13.2834 O   0  0  0  0  0  0  0  0  0  0  0  0
    8.8968  -16.2170   15.3691 C   0  0  0  0  0  0  0  0  0  0  0  0
    8.5209  -16.1698   16.8115 C   0  0  0  0  0  0  0  0  0  0  0  0
    9.6780  -16.1164   17.7644 C   0  0  2  0  0  0  0  0  0  0  0  0
   10.7937  -16.9213   17.2631 N   0  0  0  0  0  0  0  0  0  0  0  0
    9.3080  -16.5195   19.1340 C   0  0  0  0  0  0  0  0  0  0  0  0
    8.3736  -15.9165   19.7132 O   0  0  0  0  0  0  0  0  0  0  0  0
    7.0911  -20.7917   23.8181 C   0  0  0  0  0  0  0  0  0  0  0  0
    7.7484  -21.3769   22.2464 S   0  0  0  0  0  0  0  0  0  0  0  0
    8.1955  -20.0573   21.1389 C   0  0  0  0  0  0  0  0  0  0  0  0
    9.4468  -19.3163   21.4202 C   0  0  0  0  0  0  0  0  0  0  0  0
    9.5102  -17.8489   21.2349 C   0  0  2  0  0  0  0  0  0  0  0  0
    9.9534  -17.5593   19.8415 N   0  0  0  0  0  0  0  0  0  0  0  0
   10.4020  -17.1746   22.1777 C   0  0  0  0  0  0  0  0  0  0  0  0
   11.3325  -16.4524   21.8134 O   0  0  0  0  0  0  0  0  0  0  0  0
   10.2125  -17.3411   23.5992 N   0  0  0  0  0  0  0  0  0  0  0  0
    9.8740  -16.2010   24.4615 C   0  0  1  0  0  0  0  0  0  0  0  0
    8.5703  -15.6872   23.9284 C   0  0  0  0  0  0  0  0  0  0  0  0
    7.6457  -15.1641   24.9178 C   0  0  0  0  0  0  0  0  0  0  0  0
    6.7171  -15.9569   25.5939 C   0  0  0  0  0  0  0  0  0  0  0  0
    6.0157  -15.1549   26.3942 N   0  0  0  0  0  0  0  0  0  0  0  0
    6.4459  -13.8825   26.2693 C   0  0  0  0  0  0  0  0  0  0  0  0
    6.0834  -12.6926   26.8632 C   0  0  0  0  0  0  0  0  0  0  0  0
    6.7237  -11.5217   26.5478 C   0  0  0  0  0  0  0  0  0  0  0  0
    7.7383  -11.5125   25.6340 C   0  0  0  0  0  0  0  0  0  0  0  0
    8.1024  -12.6905   25.0403 C   0  0  0  0  0  0  0  0  0  0  0  0
    7.4831  -13.8752   25.3328 C   0  0  0  0  0  0  0  0  0  0  0  0
    9.8614  -16.5871   25.8660 C   0  0  0  0  0  0  0  0  0  0  0  0
   10.0422  -15.6760   26.7369 O   0  0  0  0  0  0  0  0  0  0  0  0
    9.6671  -17.8526   26.3675 O   0  0  0  0  0  0  0  0  0  0  0  0
  2  1  1  0
  3  2  2  0
  4  2  1  0
  5  4  1  0
  6  5  1  0
  6  7  1  6
  8  9  2  0
  8  6  1  0
 10 11  1  0
 12 11  1  0
 12 13  1  0
 14 13  1  1
 14 16  1  0
 14 15  1  0
 15  8  1  0
 16 18  1  0
 17 16  2  0
 18 19  1  0
 19 30  1  0
 20 21  1  0
 19 20  1  6
 21 29  1  0
 22 23  1  0
 22 21  2  0
 23 24  1  0
 24 29  2  0
 24 25  1  0
 25 26  2  0
 26 27  1  0
 28 27  2  0
 29 28  1  0
 30 31  2  0
 30 32  1  0
M  END
$$$$
