QMW.pdb
     RDKit          3D

 32 33  0  0  1  0  0  0  0  0999 V2000
    8.4497  -20.2264   21.6350 N   0  0  0  0  0  0  0  0  0  0  0  0
    8.4926  -20.2113   20.2073 C   0  0  0  0  0  0  0  0  0  0  0  0
    8.9709  -21.1101   19.5073 O   0  0  0  0  0  0  0  0  0  0  0  0
    7.9060  -19.0017   19.5443 C   0  0  0  0  0  0  0  0  0  0  0  0
    7.2963  -18.0959   20.5602 C   0  0  0  0  0  0  0  0  0  0  0  0
    7.4410  -16.6317   20.2689 C   0  0  2  0  0  0  0  0  0  0  0  0
    7.9255  -16.4253   18.9026 N   0  0  0  0  0  0  0  0  0  0  0  0
    8.3011  -15.9382   21.2457 C   0  0  0  0  0  0  0  0  0  0  0  0
    9.4705  -15.6299   20.9145 O   0  0  0  0  0  0  0  0  0  0  0  0
    6.9361  -13.0871   27.3102 C   0  0  0  0  0  0  0  0  0  0  0  0
    6.1265  -12.6568   25.7597 S   0  0  0  0  0  0  0  0  0  0  0  0
    6.9167  -13.3722   24.3345 C   0  0  0  0  0  0  0  0  0  0  0  0
    8.0664  -14.2770   24.5660 C   0  0  0  0  0  0  0  0  0  0  0  0
    8.8219  -14.8412   23.4246 C   0  0  2  0  0  0  0  0  0  0  0  0
    7.8793  -15.5961   22.5509 N   0  0  0  0  0  0  0  0  0  0  0  0
    9.9223  -15.7181   23.8230 C   0  0  0  0  0  0  0  0  0  0  0  0
   11.0992  -15.4774   23.5455 O   0  0  0  0  0  0  0  0  0  0  0  0
    9.6533  -16.9226   24.5722 N   0  0  0  0  0  0  0  0  0  0  0  0
   10.7147  -17.8990   24.8519 C   0  0  1  0  0  0  0  0  0  0  0  0
   11.7331  -17.1437   25.6520 C   0  0  0  0  0  0  0  0  0  0  0  0
   11.3564  -16.8300   27.0185 C   0  0  0  0  0  0  0  0  0  0  0  0
   11.1181  -17.8028   27.9905 C   0  0  0  0  0  0  0  0  0  0  0  0
   10.7647  -17.1706   29.1091 N   0  0  0  0  0  0  0  0  0  0  0  0
   10.7637  -15.8367   28.9081 C   0  0  0  0  0  0  0  0  0  0  0  0
   10.4954  -14.7527   29.7161 C   0  0  0  0  0  0  0  0  0  0  0  0
   10.5936  -13.4720   29.2358 C   0  0  0  0  0  0  0  0  0  0  0  0
   10.9612  -13.2453   27.9403 C   0  0  0  0  0  0  0  0  0  0  0  0
   11.2282  -14.3175   27.1329 C   0  0  0  0  0  0  0  0  0  0  0  0
   11.1387  -15.6071   27.5816 C   0  0  0  0  0  0  0  0  0  0  0  0
   10.1789  -19.0908   25.4956 C   0  0  0  0  0  0  0  0  0  0  0  0
    8.9426  -19.0996   25.8002 O   0  0  0  0  0  0  0  0  0  0  0  0
   10.8732  -20.2342   25.8138 O   0  0  0  0  0  0  0  0  0  0  0  0
  2  1  1  0
  3  2  2  0
  4  2  1  0
  5  4  1  0
  6  5  1  0
  6  7  1  6
  8  9  2  0
  8  6  1  0
 10 11  1  0
 12 11  1  0
 12 13  1  0
 14 13  1  1
 14 16  1  0
 14 15  1  0
 15  8  1  0
 16 18  1  0
 17 16  2  0
 18 19  1  0
 19 30  1  0
 20 21  1  0
 19 20  1  1
 21 29  1  0
 22 23  1  0
 22 21  2  0
 23 24  1  0
 24 29  2  0
 24 25  1  0
 25 26  2  0
 26 27  1  0
 28 27  2  0
 29 28  1  0
 30 31  2  0
 30 32  1  0
M  END
$$$$
