QMW.pdb
     RDKit          3D

 32 33  0  0  1  0  0  0  0  0999 V2000
    8.6625  -12.6356   17.1563 N   0  0  0  0  0  0  0  0  0  0  0  0
    8.0105  -13.8213   16.6987 C   0  0  0  0  0  0  0  0  0  0  0  0
    7.4621  -13.9437   15.5983 O   0  0  0  0  0  0  0  0  0  0  0  0
    8.0111  -14.9807   17.6487 C   0  0  0  0  0  0  0  0  0  0  0  0
    8.6325  -14.5893   18.9467 C   0  0  0  0  0  0  0  0  0  0  0  0
    8.6857  -15.6794   19.9757 C   0  0  2  0  0  0  0  0  0  0  0  0
    7.5825  -16.6226   19.7821 N   0  0  0  0  0  0  0  0  0  0  0  0
    8.7023  -15.1604   21.3560 C   0  0  0  0  0  0  0  0  0  0  0  0
    9.5624  -14.3049   21.6731 O   0  0  0  0  0  0  0  0  0  0  0  0
    7.5439  -11.8869   27.0350 C   0  0  0  0  0  0  0  0  0  0  0  0
    6.2977  -12.5346   25.9070 S   0  0  0  0  0  0  0  0  0  0  0  0
    6.4095  -14.2957   25.6757 C   0  0  0  0  0  0  0  0  0  0  0  0
    6.5770  -14.7996   24.2930 C   0  0  0  0  0  0  0  0  0  0  0  0
    7.9288  -14.9946   23.7216 C   0  0  2  0  0  0  0  0  0  0  0  0
    7.7938  -15.5763   22.3559 N   0  0  0  0  0  0  0  0  0  0  0  0
    8.7919  -15.8534   24.5317 C   0  0  0  0  0  0  0  0  0  0  0  0
    8.5446  -16.1251   25.7086 O   0  0  0  0  0  0  0  0  0  0  0  0
    9.9898  -16.4216   23.9602 N   0  0  0  0  0  0  0  0  0  0  0  0
   11.2798  -16.3401   24.6580 C   0  0  1  0  0  0  0  0  0  0  0  0
   11.2063  -17.3868   25.7290 C   0  0  0  0  0  0  0  0  0  0  0  0
   10.6531  -16.9528   26.9991 C   0  0  0  0  0  0  0  0  0  0  0  0
    9.8675  -17.7707   27.8126 C   0  0  0  0  0  0  0  0  0  0  0  0
    9.5053  -17.0491   28.8726 N   0  0  0  0  0  0  0  0  0  0  0  0
   10.0191  -15.8049   28.7847 C   0  0  0  0  0  0  0  0  0  0  0  0
    9.9655  -14.6935   29.5983 C   0  0  0  0  0  0  0  0  0  0  0  0
   10.6162  -13.5358   29.2566 C   0  0  0  0  0  0  0  0  0  0  0  0
   11.3338  -13.4619   28.0971 C   0  0  0  0  0  0  0  0  0  0  0  0
   11.3903  -14.5618   27.2849 C   0  0  0  0  0  0  0  0  0  0  0  0
   10.7517  -15.7310   27.5971 C   0  0  0  0  0  0  0  0  0  0  0  0
   12.3924  -16.4803   23.7283 C   0  0  0  0  0  0  0  0  0  0  0  0
   12.1233  -16.7327   22.5097 O   0  0  0  0  0  0  0  0  0  0  0  0
   13.7299  -16.3631   24.0253 O   0  0  0  0  0  0  0  0  0  0  0  0
  2  1  1  0
  3  2  2  0
  4  2  1  0
  5  4  1  0
  6  5  1  0
  6  7  1  1
  8  9  2  0
  8  6  1  0
 10 11  1  0
 12 11  1  0
 12 13  1  0
 14 13  1  1
 14 16  1  0
 14 15  1  0
 15  8  1  0
 16 18  1  0
 17 16  2  0
 18 19  1  0
 19 30  1  0
 20 21  1  0
 19 20  1  1
 21 29  1  0
 22 23  1  0
 22 21  2  0
 23 24  1  0
 24 29  2  0
 24 25  1  0
 25 26  2  0
 26 27  1  0
 28 27  2  0
 29 28  1  0
 30 31  2  0
 30 32  1  0
M  END
$$$$
