QMW.pdb
     RDKit          3D

 32 33  0  0  1  0  0  0  0  0999 V2000
    9.1887  -21.1640   19.2935 N   0  0  0  0  0  0  0  0  0  0  0  0
   10.4797  -20.5774   19.1214 C   0  0  0  0  0  0  0  0  0  0  0  0
   11.5323  -21.2135   19.0022 O   0  0  0  0  0  0  0  0  0  0  0  0
   10.5225  -19.0795   19.0879 C   0  0  0  0  0  0  0  0  0  0  0  0
    9.1408  -18.5188   19.1174 C   0  0  0  0  0  0  0  0  0  0  0  0
    9.0675  -17.0211   19.1504 C   0  0  2  0  0  0  0  0  0  0  0  0
    9.8617  -16.4440   18.0640 N   0  0  0  0  0  0  0  0  0  0  0  0
    9.4668  -16.4591   20.4541 C   0  0  0  0  0  0  0  0  0  0  0  0
   10.6847  -16.2751   20.6890 O   0  0  0  0  0  0  0  0  0  0  0  0
    6.1558  -14.0165   26.8286 C   0  0  0  0  0  0  0  0  0  0  0  0
    6.9446  -13.1824   25.4405 S   0  0  0  0  0  0  0  0  0  0  0  0
    8.2700  -14.1253   24.7179 C   0  0  0  0  0  0  0  0  0  0  0  0
    8.0115  -14.7963   23.4230 C   0  0  0  0  0  0  0  0  0  0  0  0
    9.0761  -15.5787   22.7551 C   0  0  2  0  0  0  0  0  0  0  0  0
    8.5453  -16.1114   21.4681 N   0  0  0  0  0  0  0  0  0  0  0  0
    9.5888  -16.6845   23.5632 C   0  0  0  0  0  0  0  0  0  0  0  0
    9.0766  -17.8060   23.5580 O   0  0  0  0  0  0  0  0  0  0  0  0
   10.7395  -16.4878   24.4126 N   0  0  0  0  0  0  0  0  0  0  0  0
   11.3161  -17.5974   25.1836 C   0  0  1  0  0  0  0  0  0  0  0  0
   12.2462  -16.9452   26.1622 C   0  0  0  0  0  0  0  0  0  0  0  0
   11.6550  -16.5495   27.4278 C   0  0  0  0  0  0  0  0  0  0  0  0
   11.3888  -17.4467   28.4633 C   0  0  0  0  0  0  0  0  0  0  0  0
   10.8213  -16.7572   29.4522 N   0  0  0  0  0  0  0  0  0  0  0  0
   10.7083  -15.4580   29.1072 C   0  0  0  0  0  0  0  0  0  0  0  0
   10.2198  -14.3413   29.7510 C   0  0  0  0  0  0  0  0  0  0  0  0
   10.2483  -13.1096   29.1488 C   0  0  0  0  0  0  0  0  0  0  0  0
   10.7642  -12.9654   27.8927 C   0  0  0  0  0  0  0  0  0  0  0  0
   11.2501  -14.0705   27.2481 C   0  0  0  0  0  0  0  0  0  0  0  0
   11.2354  -15.3129   27.8212 C   0  0  0  0  0  0  0  0  0  0  0  0
   10.2745  -18.4263   25.7749 C   0  0  0  0  0  0  0  0  0  0  0  0
    9.1269  -17.9046   25.9543 O   0  0  0  0  0  0  0  0  0  0  0  0
   10.3933  -19.7394   26.1651 O   0  0  0  0  0  0  0  0  0  0  0  0
  2  1  1  0
  3  2  2  0
  4  2  1  0
  5  4  1  0
  6  5  1  0
  6  7  1  6
  8  9  2  0
  8  6  1  0
 10 11  1  0
 12 11  1  0
 12 13  1  0
 14 13  1  1
 14 16  1  0
 14 15  1  0
 15  8  1  0
 16 18  1  0
 17 16  2  0
 18 19  1  0
 19 30  1  0
 20 21  1  0
 19 20  1  1
 21 29  1  0
 22 23  1  0
 22 21  2  0
 23 24  1  0
 24 29  2  0
 24 25  1  0
 25 26  2  0
 26 27  1  0
 28 27  2  0
 29 28  1  0
 30 31  2  0
 30 32  1  0
M  END
$$$$
