QMW.pdb
     RDKit          3D

 32 33  0  0  1  0  0  0  0  0999 V2000
    9.0545  -20.9483   19.2232 N   0  0  0  0  0  0  0  0  0  0  0  0
    9.9006  -20.0765   18.4719 C   0  0  0  0  0  0  0  0  0  0  0  0
   10.8340  -20.4479   17.7526 O   0  0  0  0  0  0  0  0  0  0  0  0
    9.6054  -18.6116   18.5889 C   0  0  0  0  0  0  0  0  0  0  0  0
    8.4701  -18.3831   19.5285 C   0  0  0  0  0  0  0  0  0  0  0  0
    8.0949  -16.9446   19.7279 C   0  0  2  0  0  0  0  0  0  0  0  0
    8.5393  -16.1356   18.5911 N   0  0  0  0  0  0  0  0  0  0  0  0
    8.6010  -16.3941   20.9990 C   0  0  0  0  0  0  0  0  0  0  0  0
    9.6480  -15.7041   20.9883 O   0  0  0  0  0  0  0  0  0  0  0  0
    6.2384  -11.7708   25.5254 C   0  0  0  0  0  0  0  0  0  0  0  0
    7.2162  -13.2759   25.6781 S   0  0  0  0  0  0  0  0  0  0  0  0
    6.8037  -14.5061   24.4598 C   0  0  0  0  0  0  0  0  0  0  0  0
    7.5634  -15.7774   24.4801 C   0  0  0  0  0  0  0  0  0  0  0  0
    8.6111  -16.0443   23.4688 C   0  0  2  0  0  0  0  0  0  0  0  0
    7.9670  -16.6014   22.2454 N   0  0  0  0  0  0  0  0  0  0  0  0
    9.6533  -16.9614   23.9289 C   0  0  0  0  0  0  0  0  0  0  0  0
    9.4252  -18.1391   24.2135 O   0  0  0  0  0  0  0  0  0  0  0  0
   11.0144  -16.5001   24.0665 N   0  0  0  0  0  0  0  0  0  0  0  0
   11.9572  -17.1679   24.9738 C   0  0  1  0  0  0  0  0  0  0  0  0
   12.3885  -16.1016   25.9355 C   0  0  0  0  0  0  0  0  0  0  0  0
   11.8186  -16.1852   27.2681 C   0  0  0  0  0  0  0  0  0  0  0  0
   11.9506  -17.3059   28.0894 C   0  0  0  0  0  0  0  0  0  0  0  0
   11.2833  -17.0560   29.2153 N   0  0  0  0  0  0  0  0  0  0  0  0
   10.7269  -15.8283   29.1626 C   0  0  0  0  0  0  0  0  0  0  0  0
    9.9652  -15.0900   30.0428 C   0  0  0  0  0  0  0  0  0  0  0  0
    9.5407  -13.8262   29.7217 C   0  0  0  0  0  0  0  0  0  0  0  0
    9.8666  -13.2721   28.5169 C   0  0  0  0  0  0  0  0  0  0  0  0
   10.6221  -14.0004   27.6385 C   0  0  0  0  0  0  0  0  0  0  0  0
   11.0605  -15.2637   27.9286 C   0  0  0  0  0  0  0  0  0  0  0  0
   11.3577  -18.3475   25.5828 C   0  0  0  0  0  0  0  0  0  0  0  0
   10.0870  -18.4190   25.6203 O   0  0  0  0  0  0  0  0  0  0  0  0
   12.0254  -19.4181   26.1294 O   0  0  0  0  0  0  0  0  0  0  0  0
  2  1  1  0
  3  2  2  0
  4  2  1  0
  5  4  1  0
  6  5  1  0
  6  7  1  6
  8  9  2  0
  8  6  1  0
 10 11  1  0
 12 11  1  0
 12 13  1  0
 14 13  1  1
 14 16  1  0
 14 15  1  0
 15  8  1  0
 16 18  1  0
 17 16  2  0
 18 19  1  0
 19 30  1  0
 20 21  1  0
 19 20  1  1
 21 29  1  0
 22 23  1  0
 22 21  2  0
 23 24  1  0
 24 29  2  0
 24 25  1  0
 25 26  2  0
 26 27  1  0
 28 27  2  0
 29 28  1  0
 30 31  2  0
 30 32  1  0
M  END
$$$$
