QMW.pdb
     RDKit          3D

 32 33  0  0  1  0  0  0  0  0999 V2000
    8.1607  -15.1336   15.6965 N   0  0  0  0  0  0  0  0  0  0  0  0
    7.8008  -16.5057   15.8651 C   0  0  0  0  0  0  0  0  0  0  0  0
    7.6631  -17.3163   14.9428 O   0  0  0  0  0  0  0  0  0  0  0  0
    7.5823  -16.9597   17.2767 C   0  0  0  0  0  0  0  0  0  0  0  0
    8.8862  -17.2688   17.9315 C   0  0  0  0  0  0  0  0  0  0  0  0
    8.7870  -17.6962   19.3658 C   0  0  2  0  0  0  0  0  0  0  0  0
    7.4834  -18.3082   19.6304 N   0  0  0  0  0  0  0  0  0  0  0  0
    9.0557  -16.5947   20.3089 C   0  0  0  0  0  0  0  0  0  0  0  0
   10.1320  -15.9590   20.2098 O   0  0  0  0  0  0  0  0  0  0  0  0
    6.2939  -11.9994   26.2716 C   0  0  0  0  0  0  0  0  0  0  0  0
    6.2818  -13.5542   25.3620 S   0  0  0  0  0  0  0  0  0  0  0  0
    7.4409  -13.5850   24.0118 C   0  0  0  0  0  0  0  0  0  0  0  0
    7.3768  -14.7305   23.0750 C   0  0  0  0  0  0  0  0  0  0  0  0
    8.5146  -15.0335   22.1776 C   0  0  2  0  0  0  0  0  0  0  0  0
    8.1597  -16.2084   21.3317 N   0  0  0  0  0  0  0  0  0  0  0  0
    9.7657  -15.3049   22.8847 C   0  0  0  0  0  0  0  0  0  0  0  0
   10.6068  -14.4316   23.1083 O   0  0  0  0  0  0  0  0  0  0  0  0
   10.0582  -16.6391   23.3525 N   0  0  0  0  0  0  0  0  0  0  0  0
   10.6085  -16.8725   24.6944 C   0  0  1  0  0  0  0  0  0  0  0  0
    9.5142  -16.4683   25.6362 C   0  0  0  0  0  0  0  0  0  0  0  0
    9.8272  -16.5730   27.0500 C   0  0  0  0  0  0  0  0  0  0  0  0
    9.7879  -17.7758   27.7567 C   0  0  0  0  0  0  0  0  0  0  0  0
   10.0950  -17.5036   29.0245 N   0  0  0  0  0  0  0  0  0  0  0  0
   10.3316  -16.1838   29.1718 C   0  0  0  0  0  0  0  0  0  0  0  0
   10.6931  -15.3955   30.2432 C   0  0  0  0  0  0  0  0  0  0  0  0
   10.8878  -14.0463   30.0937 C   0  0  0  0  0  0  0  0  0  0  0  0
   10.7264  -13.4550   28.8735 C   0  0  0  0  0  0  0  0  0  0  0  0
   10.3670  -14.2323   27.8060 C   0  0  0  0  0  0  0  0  0  0  0  0
   10.1646  -15.5805   27.9224 C   0  0  0  0  0  0  0  0  0  0  0  0
   11.0786  -18.2434   24.8407 C   0  0  0  0  0  0  0  0  0  0  0  0
   11.7521  -18.5352   25.8812 O   0  0  0  0  0  0  0  0  0  0  0  0
   10.8678  -19.2814   23.9639 O   0  0  0  0  0  0  0  0  0  0  0  0
  2  1  1  0
  3  2  2  0
  4  2  1  0
  5  4  1  0
  6  5  1  0
  6  7  1  1
  8  9  2  0
  8  6  1  0
 10 11  1  0
 12 11  1  0
 12 13  1  0
 14 13  1  1
 14 16  1  0
 14 15  1  0
 15  8  1  0
 16 18  1  0
 17 16  2  0
 18 19  1  0
 19 30  1  0
 20 21  1  0
 19 20  1  1
 21 29  1  0
 22 23  1  0
 22 21  2  0
 23 24  1  0
 24 29  2  0
 24 25  1  0
 25 26  2  0
 26 27  1  0
 28 27  2  0
 29 28  1  0
 30 31  2  0
 30 32  1  0
M  END
$$$$
