QMW.pdb
     RDKit          3D

 32 33  0  0  1  0  0  0  0  0999 V2000
    9.3224  -17.8854   16.4474 N   0  0  0  0  0  0  0  0  0  0  0  0
    7.9488  -18.1938   16.6895 C   0  0  0  0  0  0  0  0  0  0  0  0
    7.2270  -18.8422   15.9244 O   0  0  0  0  0  0  0  0  0  0  0  0
    7.3752  -17.6773   17.9742 C   0  0  0  0  0  0  0  0  0  0  0  0
    8.4085  -16.9203   18.7381 C   0  0  0  0  0  0  0  0  0  0  0  0
    8.5385  -17.3093   20.1809 C   0  0  2  0  0  0  0  0  0  0  0  0
    7.2172  -17.5001   20.7824 N   0  0  0  0  0  0  0  0  0  0  0  0
    9.3411  -16.3485   20.9605 C   0  0  0  0  0  0  0  0  0  0  0  0
   10.4697  -16.0105   20.5312 O   0  0  0  0  0  0  0  0  0  0  0  0
    7.3653  -11.7179   25.5182 C   0  0  0  0  0  0  0  0  0  0  0  0
    6.5504  -12.4453   24.0858 S   0  0  0  0  0  0  0  0  0  0  0  0
    7.4775  -13.7761   23.3530 C   0  0  0  0  0  0  0  0  0  0  0  0
    8.9550  -13.6709   23.3584 C   0  0  0  0  0  0  0  0  0  0  0  0
    9.7904  -14.7818   22.8488 C   0  0  2  0  0  0  0  0  0  0  0  0
    8.9074  -15.7789   22.1794 N   0  0  0  0  0  0  0  0  0  0  0  0
   10.5777  -15.4493   23.8849 C   0  0  0  0  0  0  0  0  0  0  0  0
   11.4144  -14.8572   24.5699 O   0  0  0  0  0  0  0  0  0  0  0  0
   10.3919  -16.8580   24.1405 N   0  0  0  0  0  0  0  0  0  0  0  0
   11.1425  -17.5457   25.1996 C   0  0  1  0  0  0  0  0  0  0  0  0
   10.1017  -17.9964   26.1802 C   0  0  0  0  0  0  0  0  0  0  0  0
    9.2666  -16.9493   26.7404 C   0  0  0  0  0  0  0  0  0  0  0  0
    7.9487  -16.7235   26.3402 C   0  0  0  0  0  0  0  0  0  0  0  0
    7.4972  -15.6754   27.0280 N   0  0  0  0  0  0  0  0  0  0  0  0
    8.4583  -15.2129   27.8538 C   0  0  0  0  0  0  0  0  0  0  0  0
    8.5115  -14.1854   28.7711 C   0  0  0  0  0  0  0  0  0  0  0  0
    9.6469  -13.9499   29.5032 C   0  0  0  0  0  0  0  0  0  0  0  0
   10.7526  -14.7336   29.3362 C   0  0  0  0  0  0  0  0  0  0  0  0
   10.7063  -15.7549   28.4265 C   0  0  0  0  0  0  0  0  0  0  0  0
    9.5892  -16.0153   27.6803 C   0  0  0  0  0  0  0  0  0  0  0  0
   11.9785  -18.6049   24.6510 C   0  0  0  0  0  0  0  0  0  0  0  0
   11.8402  -18.8967   23.4193 O   0  0  0  0  0  0  0  0  0  0  0  0
   12.9245  -19.3378   25.3284 O   0  0  0  0  0  0  0  0  0  0  0  0
  2  1  1  0
  3  2  2  0
  4  2  1  0
  5  4  1  0
  6  5  1  0
  6  7  1  1
  8  9  2  0
  8  6  1  0
 10 11  1  0
 12 11  1  0
 12 13  1  0
 14 13  1  1
 14 16  1  0
 14 15  1  0
 15  8  1  0
 16 18  1  0
 17 16  2  0
 18 19  1  0
 19 30  1  0
 20 21  1  0
 19 20  1  1
 21 29  1  0
 22 23  1  0
 22 21  2  0
 23 24  1  0
 24 29  2  0
 24 25  1  0
 25 26  2  0
 26 27  1  0
 28 27  2  0
 29 28  1  0
 30 31  2  0
 30 32  1  0
M  END
$$$$
