QMW.pdb
     RDKit          3D

 32 33  0  0  1  0  0  0  0  0999 V2000
   13.8480  -18.4186   17.5057 N   0  0  0  0  0  0  0  0  0  0  0  0
   13.2277  -17.1576   17.2500 C   0  0  0  0  0  0  0  0  0  0  0  0
   13.6212  -16.3352   16.4161 O   0  0  0  0  0  0  0  0  0  0  0  0
   12.0140  -16.8430   18.0714 C   0  0  0  0  0  0  0  0  0  0  0  0
   10.8390  -17.6202   17.5822 C   0  0  0  0  0  0  0  0  0  0  0  0
   10.1595  -18.4599   18.6229 C   0  0  2  0  0  0  0  0  0  0  0  0
    9.0190  -19.1725   18.0436 N   0  0  0  0  0  0  0  0  0  0  0  0
    9.7510  -17.6810   19.8066 C   0  0  0  0  0  0  0  0  0  0  0  0
    9.6432  -16.4357   19.7069 O   0  0  0  0  0  0  0  0  0  0  0  0
    5.8683  -19.7202   24.5960 C   0  0  0  0  0  0  0  0  0  0  0  0
    6.1881  -17.9655   24.8478 S   0  0  0  0  0  0  0  0  0  0  0  0
    6.6375  -17.1133   23.3513 C   0  0  0  0  0  0  0  0  0  0  0  0
    7.4881  -17.8349   22.3767 C   0  0  0  0  0  0  0  0  0  0  0  0
    8.8815  -17.4011   22.1278 C   0  0  2  0  0  0  0  0  0  0  0  0
    9.4702  -18.2632   21.0638 N   0  0  0  0  0  0  0  0  0  0  0  0
    9.7332  -17.4467   23.3158 C   0  0  0  0  0  0  0  0  0  0  0  0
   10.4450  -18.4160   23.5876 O   0  0  0  0  0  0  0  0  0  0  0  0
    9.7644  -16.3279   24.2277 N   0  0  0  0  0  0  0  0  0  0  0  0
   10.5879  -16.3587   25.4437 C   0  0  1  0  0  0  0  0  0  0  0  0
   10.4198  -15.0016   26.0585 C   0  0  0  0  0  0  0  0  0  0  0  0
    9.0509  -14.5840   26.3021 C   0  0  0  0  0  0  0  0  0  0  0  0
    8.2482  -15.1342   27.3025 C   0  0  0  0  0  0  0  0  0  0  0  0
    7.0540  -14.5486   27.2227 N   0  0  0  0  0  0  0  0  0  0  0  0
    7.0455  -13.6460   26.2202 C   0  0  0  0  0  0  0  0  0  0  0  0
    6.0944  -12.7770   25.7300 C   0  0  0  0  0  0  0  0  0  0  0  0
    6.3769  -11.9382   24.6825 C   0  0  0  0  0  0  0  0  0  0  0  0
    7.6128  -11.9483   24.1019 C   0  0  0  0  0  0  0  0  0  0  0  0
    8.5611  -12.8094   24.5837 C   0  0  0  0  0  0  0  0  0  0  0  0
    8.3105  -13.6590   25.6267 C   0  0  0  0  0  0  0  0  0  0  0  0
   10.2217  -17.4781   26.3008 C   0  0  0  0  0  0  0  0  0  0  0  0
    9.0929  -18.0342   26.1060 O   0  0  0  0  0  0  0  0  0  0  0  0
   10.9773  -18.0163   27.3158 O   0  0  0  0  0  0  0  0  0  0  0  0
  2  1  1  0
  3  2  2  0
  4  2  1  0
  5  4  1  0
  6  5  1  0
  6  7  1  6
  8  9  2  0
  8  6  1  0
 10 11  1  0
 12 11  1  0
 12 13  1  0
 14 13  1  1
 14 16  1  0
 14 15  1  0
 15  8  1  0
 16 18  1  0
 17 16  2  0
 18 19  1  0
 19 30  1  0
 20 21  1  0
 19 20  1  1
 21 29  1  0
 22 23  1  0
 22 21  2  0
 23 24  1  0
 24 29  2  0
 24 25  1  0
 25 26  2  0
 26 27  1  0
 28 27  2  0
 29 28  1  0
 30 31  2  0
 30 32  1  0
M  END
$$$$
