QMW.pdb
     RDKit          3D

 32 33  0  0  1  0  0  0  0  0999 V2000
   12.1094  -17.2349   16.3223 N   0  0  0  0  0  0  0  0  0  0  0  0
   11.5364  -18.5433   16.3099 C   0  0  0  0  0  0  0  0  0  0  0  0
   11.8041  -19.4219   15.4834 O   0  0  0  0  0  0  0  0  0  0  0  0
   10.5422  -18.8363   17.3928 C   0  0  0  0  0  0  0  0  0  0  0  0
   10.3763  -17.6501   18.2814 C   0  0  0  0  0  0  0  0  0  0  0  0
   10.3434  -17.9598   19.7487 C   0  0  2  0  0  0  0  0  0  0  0  0
    9.3110  -18.9564   20.0402 N   0  0  0  0  0  0  0  0  0  0  0  0
   10.1669  -16.7557   20.5818 C   0  0  0  0  0  0  0  0  0  0  0  0
   10.9923  -15.8177   20.4763 O   0  0  0  0  0  0  0  0  0  0  0  0
    6.9536  -12.1368   18.8982 C   0  0  0  0  0  0  0  0  0  0  0  0
    7.8520  -12.9187   20.2496 S   0  0  0  0  0  0  0  0  0  0  0  0
    6.9465  -14.2438   21.0189 C   0  0  0  0  0  0  0  0  0  0  0  0
    7.5484  -14.8897   22.2082 C   0  0  0  0  0  0  0  0  0  0  0  0
    8.9744  -15.2874   22.2078 C   0  0  2  0  0  0  0  0  0  0  0  0
    9.1083  -16.5948   21.5046 N   0  0  0  0  0  0  0  0  0  0  0  0
    9.5560  -15.3940   23.5454 C   0  0  0  0  0  0  0  0  0  0  0  0
   10.3413  -14.5583   23.9982 O   0  0  0  0  0  0  0  0  0  0  0  0
    9.2178  -16.5112   24.3950 N   0  0  0  0  0  0  0  0  0  0  0  0
    9.9206  -16.7438   25.6638 C   0  0  1  0  0  0  0  0  0  0  0  0
    8.8545  -16.6682   26.7153 C   0  0  0  0  0  0  0  0  0  0  0  0
    7.7574  -15.7588   26.4379 C   0  0  0  0  0  0  0  0  0  0  0  0
    6.5521  -16.1647   25.8631 C   0  0  0  0  0  0  0  0  0  0  0  0
    5.7927  -15.0791   25.7208 N   0  0  0  0  0  0  0  0  0  0  0  0
    6.4476  -13.9913   26.1762 C   0  0  0  0  0  0  0  0  0  0  0  0
    6.1215  -12.6556   26.2739 C   0  0  0  0  0  0  0  0  0  0  0  0
    7.0013  -11.7510   26.8106 C   0  0  0  0  0  0  0  0  0  0  0  0
    8.2242  -12.1588   27.2611 C   0  0  0  0  0  0  0  0  0  0  0  0
    8.5540  -13.4836   27.1663 C   0  0  0  0  0  0  0  0  0  0  0  0
    7.6990  -14.4107   26.6354 C   0  0  0  0  0  0  0  0  0  0  0  0
   10.6718  -17.9913   25.6299 C   0  0  0  0  0  0  0  0  0  0  0  0
   11.3668  -18.2972   26.6520 O   0  0  0  0  0  0  0  0  0  0  0  0
   10.7113  -18.8977   24.5966 O   0  0  0  0  0  0  0  0  0  0  0  0
  2  1  1  0
  3  2  2  0
  4  2  1  0
  5  4  1  0
  6  5  1  0
  6  7  1  6
  8  9  2  0
  8  6  1  0
 10 11  1  0
 12 11  1  0
 12 13  1  0
 14 13  1  1
 14 16  1  0
 14 15  1  0
 15  8  1  0
 16 18  1  0
 17 16  2  0
 18 19  1  0
 19 30  1  0
 20 21  1  0
 19 20  1  1
 21 29  1  0
 22 23  1  0
 22 21  2  0
 23 24  1  0
 24 29  2  0
 24 25  1  0
 25 26  2  0
 26 27  1  0
 28 27  2  0
 29 28  1  0
 30 31  2  0
 30 32  1  0
M  END
$$$$
