QMW.pdb
     RDKit          3D

 32 33  0  0  1  0  0  0  0  0999 V2000
   11.1676  -20.5503   19.9247 N   0  0  0  0  0  0  0  0  0  0  0  0
   11.0130  -20.1094   18.5748 C   0  0  0  0  0  0  0  0  0  0  0  0
   11.4367  -20.7133   17.5836 O   0  0  0  0  0  0  0  0  0  0  0  0
   10.2787  -18.8166   18.3851 C   0  0  0  0  0  0  0  0  0  0  0  0
    9.7959  -18.2952   19.6964 C   0  0  0  0  0  0  0  0  0  0  0  0
    9.0285  -17.0087   19.6207 C   0  0  2  0  0  0  0  0  0  0  0  0
    9.3643  -16.2817   18.3949 N   0  0  0  0  0  0  0  0  0  0  0  0
    9.2220  -16.1585   20.8101 C   0  0  0  0  0  0  0  0  0  0  0  0
   10.3602  -15.6851   21.0398 O   0  0  0  0  0  0  0  0  0  0  0  0
    7.5779  -12.2918   26.3835 C   0  0  0  0  0  0  0  0  0  0  0  0
    6.4837  -13.6445   25.9167 S   0  0  0  0  0  0  0  0  0  0  0  0
    7.3573  -15.0955   25.3697 C   0  0  0  0  0  0  0  0  0  0  0  0
    7.3004  -15.4311   23.9282 C   0  0  0  0  0  0  0  0  0  0  0  0
    8.5454  -15.5971   23.1444 C   0  0  2  0  0  0  0  0  0  0  0  0
    8.1863  -15.8417   21.7186 N   0  0  0  0  0  0  0  0  0  0  0  0
    9.4014  -16.6822   23.6223 C   0  0  0  0  0  0  0  0  0  0  0  0
    9.2639  -17.8504   23.2527 O   0  0  0  0  0  0  0  0  0  0  0  0
   10.4593  -16.4081   24.5657 N   0  0  0  0  0  0  0  0  0  0  0  0
   11.3172  -17.4828   25.0823 C   0  0  1  0  0  0  0  0  0  0  0  0
   12.3130  -16.7917   25.9646 C   0  0  0  0  0  0  0  0  0  0  0  0
   11.8091  -16.3322   27.2463 C   0  0  0  0  0  0  0  0  0  0  0  0
   11.5870  -17.1812   28.3316 C   0  0  0  0  0  0  0  0  0  0  0  0
   11.0963  -16.4397   29.3240 N   0  0  0  0  0  0  0  0  0  0  0  0
   10.9911  -15.1527   28.9338 C   0  0  0  0  0  0  0  0  0  0  0  0
   10.5676  -14.0000   29.5598 C   0  0  0  0  0  0  0  0  0  0  0  0
   10.5864  -12.7939   28.9074 C   0  0  0  0  0  0  0  0  0  0  0  0
   11.0276  -12.7119   27.6177 C   0  0  0  0  0  0  0  0  0  0  0  0
   11.4487  -13.8530   26.9905 C   0  0  0  0  0  0  0  0  0  0  0  0
   11.4418  -15.0712   27.6135 C   0  0  0  0  0  0  0  0  0  0  0  0
   10.5286  -18.5215   25.7311 C   0  0  0  0  0  0  0  0  0  0  0  0
    9.3224  -18.2515   26.0367 O   0  0  0  0  0  0  0  0  0  0  0  0
   10.9489  -19.7905   26.0531 O   0  0  0  0  0  0  0  0  0  0  0  0
  2  1  1  0
  3  2  2  0
  4  2  1  0
  5  4  1  0
  6  5  1  0
  6  7  1  6
  8  9  2  0
  8  6  1  0
 10 11  1  0
 12 11  1  0
 12 13  1  0
 14 13  1  1
 14 16  1  0
 14 15  1  0
 15  8  1  0
 16 18  1  0
 17 16  2  0
 18 19  1  0
 19 30  1  0
 20 21  1  0
 19 20  1  1
 21 29  1  0
 22 23  1  0
 22 21  2  0
 23 24  1  0
 24 29  2  0
 24 25  1  0
 25 26  2  0
 26 27  1  0
 28 27  2  0
 29 28  1  0
 30 31  2  0
 30 32  1  0
M  END
$$$$
