QMW.pdb
     RDKit          3D

 32 33  0  0  1  0  0  0  0  0999 V2000
    7.8330  -12.1417   17.7016 N   0  0  0  0  0  0  0  0  0  0  0  0
    7.7062  -13.5005   17.2795 C   0  0  0  0  0  0  0  0  0  0  0  0
    6.9639  -13.8898   16.3716 O   0  0  0  0  0  0  0  0  0  0  0  0
    8.5495  -14.4987   18.0135 C   0  0  0  0  0  0  0  0  0  0  0  0
    9.2810  -13.8387   19.1331 C   0  0  0  0  0  0  0  0  0  0  0  0
   10.1330  -14.7563   19.9588 C   0  0  2  0  0  0  0  0  0  0  0  0
   10.6905  -15.8256   19.1282 N   0  0  0  0  0  0  0  0  0  0  0  0
    9.4142  -15.3096   21.1216 C   0  0  0  0  0  0  0  0  0  0  0  0
    8.8717  -14.5213   21.9319 O   0  0  0  0  0  0  0  0  0  0  0  0
    5.4943  -19.7790   25.6454 C   0  0  0  0  0  0  0  0  0  0  0  0
    6.0394  -18.9350   24.1503 S   0  0  0  0  0  0  0  0  0  0  0  0
    7.7427  -19.2558   23.7459 C   0  0  0  0  0  0  0  0  0  0  0  0
    8.3186  -18.5484   22.5790 C   0  0  0  0  0  0  0  0  0  0  0  0
    8.7161  -17.1261   22.6822 C   0  0  2  0  0  0  0  0  0  0  0  0
    9.2995  -16.6947   21.3801 N   0  0  0  0  0  0  0  0  0  0  0  0
    9.6733  -16.8588   23.7551 C   0  0  0  0  0  0  0  0  0  0  0  0
   10.8725  -17.1285   23.6595 O   0  0  0  0  0  0  0  0  0  0  0  0
    9.2281  -16.2558   24.9890 N   0  0  0  0  0  0  0  0  0  0  0  0
   10.1289  -16.1258   26.1421 C   0  0  1  0  0  0  0  0  0  0  0  0
    9.4207  -15.1974   27.0825 C   0  0  0  0  0  0  0  0  0  0  0  0
    8.0795  -14.8035   26.6904 C   0  0  0  0  0  0  0  0  0  0  0  0
    7.0224  -15.7056   26.5621 C   0  0  0  0  0  0  0  0  0  0  0  0
    5.9563  -15.0158   26.1583 N   0  0  0  0  0  0  0  0  0  0  0  0
    6.2721  -13.7116   26.0201 C   0  0  0  0  0  0  0  0  0  0  0  0
    5.5561  -12.5928   25.6520 C   0  0  0  0  0  0  0  0  0  0  0  0
    6.1475  -11.3561   25.6149 C   0  0  0  0  0  0  0  0  0  0  0  0
    7.4646  -11.2090   25.9439 C   0  0  0  0  0  0  0  0  0  0  0  0
    8.1810  -12.3162   26.3096 C   0  0  0  0  0  0  0  0  0  0  0  0
    7.6205  -13.5636   26.3560 C   0  0  0  0  0  0  0  0  0  0  0  0
   10.4690  -17.4295   26.6955 C   0  0  0  0  0  0  0  0  0  0  0  0
   11.3799  -17.4814   27.5837 O   0  0  0  0  0  0  0  0  0  0  0  0
    9.9005  -18.6364   26.3622 O   0  0  0  0  0  0  0  0  0  0  0  0
  2  1  1  0
  3  2  2  0
  4  2  1  0
  5  4  1  0
  6  5  1  0
  6  7  1  6
  8  9  2  0
  8  6  1  0
 10 11  1  0
 12 11  1  0
 12 13  1  0
 14 13  1  6
 14 16  1  0
 14 15  1  0
 15  8  1  0
 16 18  1  0
 17 16  2  0
 18 19  1  0
 19 30  1  0
 20 21  1  0
 19 20  1  1
 21 29  1  0
 22 23  1  0
 22 21  2  0
 23 24  1  0
 24 29  2  0
 24 25  1  0
 25 26  2  0
 26 27  1  0
 28 27  2  0
 29 28  1  0
 30 31  2  0
 30 32  1  0
M  END
$$$$
