QMW.pdb
     RDKit          3D

 32 33  0  0  1  0  0  0  0  0999 V2000
    3.4172  -19.6827   23.7159 N   0  0  0  0  0  0  0  0  0  0  0  0
    3.9000  -20.3473   22.5472 C   0  0  0  0  0  0  0  0  0  0  0  0
    3.2812  -20.4368   21.4815 O   0  0  0  0  0  0  0  0  0  0  0  0
    5.2590  -20.9697   22.6585 C   0  0  0  0  0  0  0  0  0  0  0  0
    6.3163  -19.9183   22.6325 C   0  0  0  0  0  0  0  0  0  0  0  0
    6.5639  -19.3046   21.2864 C   0  0  2  0  0  0  0  0  0  0  0  0
    7.0557  -20.3126   20.3450 N   0  0  0  0  0  0  0  0  0  0  0  0
    7.4756  -18.1470   21.3463 C   0  0  0  0  0  0  0  0  0  0  0  0
    8.7103  -18.3497   21.4286 O   0  0  0  0  0  0  0  0  0  0  0  0
    6.8937  -12.2505   18.3369 C   0  0  0  0  0  0  0  0  0  0  0  0
    7.6736  -11.8547   19.9116 S   0  0  0  0  0  0  0  0  0  0  0  0
    8.3655  -13.2769   20.7280 C   0  0  0  0  0  0  0  0  0  0  0  0
    7.5166  -14.4852   20.8440 C   0  0  0  0  0  0  0  0  0  0  0  0
    8.0480  -15.7218   21.4604 C   0  0  2  0  0  0  0  0  0  0  0  0
    7.0337  -16.8045   21.3164 N   0  0  0  0  0  0  0  0  0  0  0  0
    8.4001  -15.5715   22.8719 C   0  0  0  0  0  0  0  0  0  0  0  0
    7.6551  -15.0266   23.6893 O   0  0  0  0  0  0  0  0  0  0  0  0
    9.6641  -16.0700   23.3599 N   0  0  0  0  0  0  0  0  0  0  0  0
   10.1379  -15.7508   24.7133 C   0  0  1  0  0  0  0  0  0  0  0  0
    9.0888  -16.3044   25.6302 C   0  0  0  0  0  0  0  0  0  0  0  0
    7.9189  -15.4679   25.8292 C   0  0  0  0  0  0  0  0  0  0  0  0
    6.6107  -15.9343   25.6915 C   0  0  0  0  0  0  0  0  0  0  0  0
    5.7949  -14.9036   25.9097 N   0  0  0  0  0  0  0  0  0  0  0  0
    6.5116  -13.7938   26.1825 C   0  0  0  0  0  0  0  0  0  0  0  0
    6.1725  -12.4934   26.4889 C   0  0  0  0  0  0  0  0  0  0  0  0
    7.1375  -11.5530   26.7439 C   0  0  0  0  0  0  0  0  0  0  0  0
    8.4602  -11.8893   26.6989 C   0  0  0  0  0  0  0  0  0  0  0  0
    8.8032  -13.1787   26.3947 C   0  0  0  0  0  0  0  0  0  0  0  0
    7.8646  -14.1398   26.1346 C   0  0  0  0  0  0  0  0  0  0  0  0
   11.4854  -16.2579   24.9338 C   0  0  0  0  0  0  0  0  0  0  0  0
   11.9955  -17.0056   24.0383 O   0  0  0  0  0  0  0  0  0  0  0  0
   12.2876  -16.0101   26.0228 O   0  0  0  0  0  0  0  0  0  0  0  0
  2  1  1  0
  3  2  2  0
  4  2  1  0
  5  4  1  0
  6  5  1  0
  6  7  1  6
  8  9  2  0
  8  6  1  0
 10 11  1  0
 12 11  1  0
 12 13  1  0
 14 13  1  1
 14 16  1  0
 14 15  1  0
 15  8  1  0
 16 18  1  0
 17 16  2  0
 18 19  1  0
 19 30  1  0
 20 21  1  0
 19 20  1  1
 21 29  1  0
 22 23  1  0
 22 21  2  0
 23 24  1  0
 24 29  2  0
 24 25  1  0
 25 26  2  0
 26 27  1  0
 28 27  2  0
 29 28  1  0
 30 31  2  0
 30 32  1  0
M  END
$$$$
