HCE.pdb
     RDKit          3D

 26 26  0  0  1  0  0  0  0  0999 V2000
   18.8619   -9.8195  -16.2094 N   0  0  0  0  0  0  0  0  0  0  0  0
   17.8420   -9.2137  -15.3778 C   0  0  1  0  0  0  0  0  0  0  0  0
   17.5738  -10.1808  -14.2293 C   0  0  0  0  0  0  0  0  0  0  0  0
   16.8828  -11.3748  -14.7771 C   0  0  0  0  0  0  0  0  0  0  0  0
   17.4625  -12.4574  -15.4102 C   0  0  0  0  0  0  0  0  0  0  0  0
   16.5218  -13.3499  -15.7703 N   0  0  0  0  0  0  0  0  0  0  0  0
   15.3511  -12.8402  -15.3700 C   0  0  0  0  0  0  0  0  0  0  0  0
   15.5466  -11.6586  -14.7735 N   0  0  0  0  0  0  0  0  0  0  0  0
   18.3857   -7.9510  -14.8228 C   0  0  0  0  0  0  0  0  0  0  0  0
   17.7365   -7.3151  -13.9736 O   0  0  0  0  0  0  0  0  0  0  0  0
   19.6414   -7.4057  -15.2141 N   0  0  0  0  0  0  0  0  0  0  0  0
   20.0630   -6.1063  -14.7669 C   0  0  1  0  0  0  0  0  0  0  0  0
   21.5580   -6.0091  -14.6684 C   0  0  0  0  0  0  0  0  0  0  0  0
   22.0795   -7.1246  -13.3177 S   0  0  0  0  0  0  0  0  0  0  0  0
   19.5566   -5.0149  -15.6352 C   0  0  0  0  0  0  0  0  0  0  0  0
   19.1854   -5.1827  -16.8253 O   0  0  0  0  0  0  0  0  0  0  0  0
   19.4970   -3.7139  -15.0655 N   0  0  0  0  0  0  0  0  0  0  0  0
   18.8417   -2.5957  -15.6789 C   0  0  1  0  0  0  0  0  0  0  0  0
   17.4871   -2.9547  -16.1574 C   0  0  0  0  0  0  0  0  0  0  0  0
   16.4045   -3.0216  -15.1420 C   0  0  0  0  0  0  0  0  0  0  0  0
   15.0946   -3.2005  -15.8022 C   0  0  0  0  0  0  0  0  0  0  0  0
   14.4963   -4.2938  -15.7917 O   0  0  0  0  0  0  0  0  0  0  0  0
   18.9471   -1.3460  -14.9073 C   0  0  0  0  0  0  0  0  0  0  0  0
   18.4961   -0.1681  -15.4813 O   0  0  0  0  0  0  0  0  0  0  0  0
   14.5582   -2.0678  -16.4442 O   0  0  0  0  0  0  0  0  0  0  0  0
   19.4240   -1.2855  -13.7494 O   0  0  0  0  0  0  0  0  0  0  0  0
  2  1  1  6
  2  3  1  0
  3  4  1  0
  4  8  1  0
  4  5  2  0
  5  6  1  0
  7  6  1  0
  8  7  2  0
  9  2  1  0
  9 10  2  0
 11  9  1  0
 12 11  1  0
 12 13  1  6
 13 14  1  0
 15 12  1  0
 16 15  2  0
 17 15  1  0
 18 17  1  0
 18 23  1  0
 18 19  1  1
 20 19  1  0
 21 22  2  0
 21 20  1  0
 23 24  1  0
 25 21  1  0
 26 23  2  0
M  END
$$$$
