HCE.pdb
     RDKit          3D

 26 26  0  0  1  0  0  0  0  0999 V2000
   17.2390   -9.1832  -11.1917 N   0  0  0  0  0  0  0  0  0  0  0  0
   17.5821   -9.3370  -12.5909 C   0  0  1  0  0  0  0  0  0  0  0  0
   16.3566   -8.9187  -13.3968 C   0  0  0  0  0  0  0  0  0  0  0  0
   15.3498  -10.0061  -13.3121 C   0  0  0  0  0  0  0  0  0  0  0  0
   14.1587   -9.9881  -12.6122 C   0  0  0  0  0  0  0  0  0  0  0  0
   13.5040  -11.1533  -12.7694 N   0  0  0  0  0  0  0  0  0  0  0  0
   14.2718  -11.9086  -13.5635 C   0  0  0  0  0  0  0  0  0  0  0  0
   15.3808  -11.2393  -13.8988 N   0  0  0  0  0  0  0  0  0  0  0  0
   18.6969   -8.4097  -12.8996 C   0  0  0  0  0  0  0  0  0  0  0  0
   18.7580   -7.3022  -12.3368 O   0  0  0  0  0  0  0  0  0  0  0  0
   19.7316   -8.7179  -13.8280 N   0  0  0  0  0  0  0  0  0  0  0  0
   20.8175   -7.8067  -14.0653 C   0  0  1  0  0  0  0  0  0  0  0  0
   22.0512   -8.5209  -14.5364 C   0  0  0  0  0  0  0  0  0  0  0  0
   22.7343   -9.4164  -13.0968 S   0  0  0  0  0  0  0  0  0  0  0  0
   20.4644   -6.7437  -15.0386 C   0  0  0  0  0  0  0  0  0  0  0  0
   19.8307   -6.9534  -16.1046 O   0  0  0  0  0  0  0  0  0  0  0  0
   20.8773   -5.4201  -14.7245 N   0  0  0  0  0  0  0  0  0  0  0  0
   20.6843   -4.2907  -15.5864 C   0  0  1  0  0  0  0  0  0  0  0  0
   19.4881   -3.5087  -15.1985 C   0  0  0  0  0  0  0  0  0  0  0  0
   19.1323   -2.3453  -16.0514 C   0  0  0  0  0  0  0  0  0  0  0  0
   17.9074   -1.6939  -15.5426 C   0  0  0  0  0  0  0  0  0  0  0  0
   17.6803   -0.4826  -15.7288 O   0  0  0  0  0  0  0  0  0  0  0  0
   21.9113   -3.5169  -15.8393 C   0  0  0  0  0  0  0  0  0  0  0  0
   22.7263   -3.1904  -14.7671 O   0  0  0  0  0  0  0  0  0  0  0  0
   17.0094   -2.5165  -14.8355 O   0  0  0  0  0  0  0  0  0  0  0  0
   22.2657   -3.1342  -16.9793 O   0  0  0  0  0  0  0  0  0  0  0  0
  2  1  1  1
  2  3  1  0
  3  4  1  0
  4  8  1  0
  4  5  2  0
  5  6  1  0
  7  6  1  0
  8  7  2  0
  9  2  1  0
  9 10  2  0
 11  9  1  0
 12 11  1  0
 12 13  1  6
 13 14  1  0
 15 12  1  0
 16 15  2  0
 17 15  1  0
 18 17  1  0
 18 23  1  0
 18 19  1  1
 20 19  1  0
 21 22  2  0
 21 20  1  0
 23 24  1  0
 25 21  1  0
 26 23  2  0
M  END
$$$$
