HCE.pdb
     RDKit          3D

 26 26  0  0  1  0  0  0  0  0999 V2000
   20.7899  -11.4096  -15.9365 N   0  0  0  0  0  0  0  0  0  0  0  0
   19.6693  -10.4922  -15.9764 C   0  0  1  0  0  0  0  0  0  0  0  0
   18.6100  -11.0442  -15.0280 C   0  0  0  0  0  0  0  0  0  0  0  0
   17.9095  -12.1606  -15.7108 C   0  0  0  0  0  0  0  0  0  0  0  0
   18.1691  -12.6621  -16.9717 C   0  0  0  0  0  0  0  0  0  0  0  0
   17.3315  -13.6767  -17.2552 N   0  0  0  0  0  0  0  0  0  0  0  0
   16.5439  -13.8210  -16.1831 C   0  0  0  0  0  0  0  0  0  0  0  0
   16.8744  -12.9227  -15.2482 N   0  0  0  0  0  0  0  0  0  0  0  0
   20.1281   -9.1773  -15.4679 C   0  0  0  0  0  0  0  0  0  0  0  0
   20.1501   -8.9576  -14.2439 O   0  0  0  0  0  0  0  0  0  0  0  0
   20.5569   -8.1198  -16.3196 N   0  0  0  0  0  0  0  0  0  0  0  0
   20.9283   -6.8371  -15.7879 C   0  0  1  0  0  0  0  0  0  0  0  0
   22.4085   -6.6034  -15.8798 C   0  0  0  0  0  0  0  0  0  0  0  0
   23.2264   -8.1932  -15.4995 S   0  0  0  0  0  0  0  0  0  0  0  0
   20.2131   -5.7189  -16.4511 C   0  0  0  0  0  0  0  0  0  0  0  0
   20.0726   -5.6191  -17.6971 O   0  0  0  0  0  0  0  0  0  0  0  0
   19.6637   -4.7154  -15.6073 N   0  0  0  0  0  0  0  0  0  0  0  0
   18.9331   -3.5764  -16.0813 C   0  0  1  0  0  0  0  0  0  0  0  0
   17.4887   -3.6909  -15.7753 C   0  0  0  0  0  0  0  0  0  0  0  0
   16.6105   -2.5785  -16.2212 C   0  0  0  0  0  0  0  0  0  0  0  0
   15.2030   -2.8691  -15.8775 C   0  0  0  0  0  0  0  0  0  0  0  0
   14.8680   -3.2446  -14.7373 O   0  0  0  0  0  0  0  0  0  0  0  0
   19.5644   -2.2860  -15.7578 C   0  0  0  0  0  0  0  0  0  0  0  0
   20.5744   -2.2572  -14.8095 O   0  0  0  0  0  0  0  0  0  0  0  0
   14.2596   -2.6984  -16.9089 O   0  0  0  0  0  0  0  0  0  0  0  0
   19.2394   -1.2019  -16.2970 O   0  0  0  0  0  0  0  0  0  0  0  0
  2  1  1  1
  2  3  1  0
  3  4  1  0
  4  8  1  0
  4  5  2  0
  5  6  1  0
  7  6  1  0
  8  7  2  0
  9  2  1  0
  9 10  2  0
 11  9  1  0
 12 11  1  0
 12 13  1  6
 13 14  1  0
 15 12  1  0
 16 15  2  0
 17 15  1  0
 18 17  1  0
 18 23  1  0
 18 19  1  1
 20 19  1  0
 21 22  2  0
 21 20  1  0
 23 24  1  0
 25 21  1  0
 26 23  2  0
M  END
$$$$
