HCE.pdb
     RDKit          3D

 26 26  0  0  1  0  0  0  0  0999 V2000
   24.3269  -14.3135  -18.0403 N   0  0  0  0  0  0  0  0  0  0  0  0
   24.2012  -13.6312  -16.7684 C   0  0  1  0  0  0  0  0  0  0  0  0
   25.6080  -13.2242  -16.3423 C   0  0  0  0  0  0  0  0  0  0  0  0
   26.3761  -14.4561  -16.0333 C   0  0  0  0  0  0  0  0  0  0  0  0
   26.2141  -15.2893  -14.9432 C   0  0  0  0  0  0  0  0  0  0  0  0
   27.0893  -16.3102  -14.9983 N   0  0  0  0  0  0  0  0  0  0  0  0
   27.8040  -16.1293  -16.1150 C   0  0  0  0  0  0  0  0  0  0  0  0
   27.3918  -15.0249  -16.7480 N   0  0  0  0  0  0  0  0  0  0  0  0
   23.3915  -12.4069  -16.9769 C   0  0  0  0  0  0  0  0  0  0  0  0
   23.5656  -11.7124  -17.9939 O   0  0  0  0  0  0  0  0  0  0  0  0
   22.3984  -11.9643  -16.0575 N   0  0  0  0  0  0  0  0  0  0  0  0
   21.5599  -10.8344  -16.3509 C   0  0  1  0  0  0  0  0  0  0  0  0
   20.1171  -11.2296  -16.4786 C   0  0  0  0  0  0  0  0  0  0  0  0
   19.1690   -9.6999  -16.7980 S   0  0  0  0  0  0  0  0  0  0  0  0
   21.6853   -9.7562  -15.3392 C   0  0  0  0  0  0  0  0  0  0  0  0
   21.7348   -9.9623  -14.0993 O   0  0  0  0  0  0  0  0  0  0  0  0
   21.7521   -8.4219  -15.8251 N   0  0  0  0  0  0  0  0  0  0  0  0
   21.8113   -7.2613  -14.9851 C   0  0  1  0  0  0  0  0  0  0  0  0
   22.0414   -6.0298  -15.7746 C   0  0  0  0  0  0  0  0  0  0  0  0
   22.2591   -4.7698  -15.0180 C   0  0  0  0  0  0  0  0  0  0  0  0
   22.3612   -3.6260  -15.9480 C   0  0  0  0  0  0  0  0  0  0  0  0
   22.2907   -3.7742  -17.1836 O   0  0  0  0  0  0  0  0  0  0  0  0
   20.7365   -7.1966  -13.9807 C   0  0  0  0  0  0  0  0  0  0  0  0
   21.0616   -6.8557  -12.6775 O   0  0  0  0  0  0  0  0  0  0  0  0
   22.5421   -2.3582  -15.3624 O   0  0  0  0  0  0  0  0  0  0  0  0
   19.5326   -7.4326  -14.2389 O   0  0  0  0  0  0  0  0  0  0  0  0
  2  1  1  6
  2  3  1  0
  3  4  1  0
  4  8  1  0
  4  5  2  0
  5  6  1  0
  7  6  1  0
  8  7  2  0
  9  2  1  0
  9 10  2  0
 11  9  1  0
 12 11  1  0
 12 13  1  1
 13 14  1  0
 15 12  1  0
 16 15  2  0
 17 15  1  0
 18 17  1  0
 18 23  1  0
 18 19  1  6
 20 19  1  0
 21 22  2  0
 21 20  1  0
 23 24  1  0
 25 21  1  0
 26 23  2  0
M  END
$$$$
