HCE.pdb
     RDKit          3D

 26 26  0  0  1  0  0  0  0  0999 V2000
   29.0896  -26.7079  -16.5486 N   0  0  0  0  0  0  0  0  0  0  0  0
   27.9152  -26.1378  -17.1767 C   0  0  1  0  0  0  0  0  0  0  0  0
   26.8166  -27.1934  -17.1041 C   0  0  0  0  0  0  0  0  0  0  0  0
   27.1405  -28.2704  -18.0728 C   0  0  0  0  0  0  0  0  0  0  0  0
   27.2103  -29.6269  -17.8202 C   0  0  0  0  0  0  0  0  0  0  0  0
   27.5298  -30.2977  -18.9423 N   0  0  0  0  0  0  0  0  0  0  0  0
   27.6627  -29.3759  -19.9032 C   0  0  0  0  0  0  0  0  0  0  0  0
   27.4335  -28.1565  -19.4022 N   0  0  0  0  0  0  0  0  0  0  0  0
   27.4951  -24.9552  -16.3874 C   0  0  0  0  0  0  0  0  0  0  0  0
   28.0760  -24.6806  -15.3224 O   0  0  0  0  0  0  0  0  0  0  0  0
   26.4366  -24.0898  -16.7849 N   0  0  0  0  0  0  0  0  0  0  0  0
   26.3270  -22.7553  -16.2623 C   0  0  1  0  0  0  0  0  0  0  0  0
   27.5212  -21.9179  -16.6183 C   0  0  0  0  0  0  0  0  0  0  0  0
   27.2965  -20.2938  -15.8103 S   0  0  0  0  0  0  0  0  0  0  0  0
   25.0929  -22.0675  -16.7155 C   0  0  0  0  0  0  0  0  0  0  0  0
   24.8580  -21.7696  -17.9148 O   0  0  0  0  0  0  0  0  0  0  0  0
   24.1361  -21.7374  -15.7173 N   0  0  0  0  0  0  0  0  0  0  0  0
   22.8510  -21.1640  -15.9922 C   0  0  1  0  0  0  0  0  0  0  0  0
   21.9891  -21.1584  -14.7881 C   0  0  0  0  0  0  0  0  0  0  0  0
   20.5939  -20.6754  -14.9548 C   0  0  0  0  0  0  0  0  0  0  0  0
   19.8491  -20.8164  -13.6864 C   0  0  0  0  0  0  0  0  0  0  0  0
   19.1284  -21.8061  -13.4529 O   0  0  0  0  0  0  0  0  0  0  0  0
   22.9102  -19.9049  -16.7535 C   0  0  0  0  0  0  0  0  0  0  0  0
   24.1321  -19.2658  -16.8905 O   0  0  0  0  0  0  0  0  0  0  0  0
   19.9978  -19.7712  -12.7545 O   0  0  0  0  0  0  0  0  0  0  0  0
   21.9103  -19.3736  -17.2915 O   0  0  0  0  0  0  0  0  0  0  0  0
  2  1  1  1
  2  3  1  0
  3  4  1  0
  4  8  1  0
  4  5  2  0
  5  6  1  0
  7  6  1  0
  8  7  2  0
  9  2  1  0
  9 10  2  0
 11  9  1  0
 12 11  1  0
 12 13  1  6
 13 14  1  0
 15 12  1  0
 16 15  2  0
 17 15  1  0
 18 17  1  0
 18 23  1  0
 18 19  1  1
 20 19  1  0
 21 22  2  0
 21 20  1  0
 23 24  1  0
 25 21  1  0
 26 23  2  0
M  END
$$$$
