HCE.pdb
     RDKit          3D

 26 26  0  0  1  0  0  0  0  0999 V2000
   25.1778  -15.1341  -18.2577 N   0  0  0  0  0  0  0  0  0  0  0  0
   25.4433  -13.8769  -18.9271 C   0  0  1  0  0  0  0  0  0  0  0  0
   24.3796  -13.7166  -20.0082 C   0  0  0  0  0  0  0  0  0  0  0  0
   24.6391  -14.7207  -21.0701 C   0  0  0  0  0  0  0  0  0  0  0  0
   23.7219  -15.5710  -21.6569 C   0  0  0  0  0  0  0  0  0  0  0  0
   24.3214  -16.3413  -22.5834 N   0  0  0  0  0  0  0  0  0  0  0  0
   25.6112  -15.9849  -22.5873 C   0  0  0  0  0  0  0  0  0  0  0  0
   25.8208  -15.0163  -21.6883 N   0  0  0  0  0  0  0  0  0  0  0  0
   25.2890  -12.7833  -17.9381 C   0  0  0  0  0  0  0  0  0  0  0  0
   24.3831  -12.8379  -17.0876 O   0  0  0  0  0  0  0  0  0  0  0  0
   26.1384  -11.6412  -17.9014 N   0  0  0  0  0  0  0  0  0  0  0  0
   25.9841  -10.6281  -16.8935 C   0  0  1  0  0  0  0  0  0  0  0  0
   27.3030  -10.2321  -16.2952 C   0  0  0  0  0  0  0  0  0  0  0  0
   27.7929  -11.5675  -15.1473 S   0  0  0  0  0  0  0  0  0  0  0  0
   25.2947   -9.4180  -17.4055 C   0  0  0  0  0  0  0  0  0  0  0  0
   25.6058   -8.8357  -18.4761 O   0  0  0  0  0  0  0  0  0  0  0  0
   24.2238   -8.9073  -16.6224 N   0  0  0  0  0  0  0  0  0  0  0  0
   23.4669   -7.7371  -16.9594 C   0  0  1  0  0  0  0  0  0  0  0  0
   22.2186   -7.6501  -16.1675 C   0  0  0  0  0  0  0  0  0  0  0  0
   21.3274   -6.4908  -16.4311 C   0  0  0  0  0  0  0  0  0  0  0  0
   19.9584   -6.7798  -15.9559 C   0  0  0  0  0  0  0  0  0  0  0  0
   19.5171   -6.3045  -14.8916 O   0  0  0  0  0  0  0  0  0  0  0  0
   24.2730   -6.5073  -17.0368 C   0  0  0  0  0  0  0  0  0  0  0  0
   23.9344   -5.5463  -17.9761 O   0  0  0  0  0  0  0  0  0  0  0  0
   19.1783   -7.6220  -16.7715 O   0  0  0  0  0  0  0  0  0  0  0  0
   25.2562   -6.2761  -16.2941 O   0  0  0  0  0  0  0  0  0  0  0  0
  2  1  1  1
  2  3  1  0
  3  4  1  0
  4  8  1  0
  4  5  2  0
  5  6  1  0
  7  6  1  0
  8  7  2  0
  9  2  1  0
  9 10  2  0
 11  9  1  0
 12 11  1  0
 12 13  1  6
 13 14  1  0
 15 12  1  0
 16 15  2  0
 17 15  1  0
 18 17  1  0
 18 23  1  0
 18 19  1  1
 20 19  1  0
 21 22  2  0
 21 20  1  0
 23 24  1  0
 25 21  1  0
 26 23  2  0
M  END
$$$$
