NPE.pdb
     RDKit          3D

 25 25  0  0  1  0  0  0  0  0999 V2000
    7.3163  -13.0015   18.1799 N   0  0  0  0  0  0  0  0  0  0  0  0
    7.1672  -14.2458   18.8355 C   0  0  0  0  0  0  0  0  0  0  0  0
    7.0591  -15.3005   18.1831 O   0  0  0  0  0  0  0  0  0  0  0  0
    7.1439  -14.2534   20.3169 C   0  0  0  0  0  0  0  0  0  0  0  0
    8.0953  -13.1768   20.8247 C   0  0  2  0  0  0  0  0  0  0  0  0
    9.0527  -12.8622   19.8099 N   0  0  0  0  0  0  0  0  0  0  0  0
    8.6868  -13.6721   22.0710 C   0  0  0  0  0  0  0  0  0  0  0  0
    9.8702  -14.1189   21.9957 O   0  0  0  0  0  0  0  0  0  0  0  0
    8.0330  -13.6852   23.3375 N   0  0  0  0  0  0  0  0  0  0  0  0
    6.6571  -13.2240   23.4696 C   0  0  0  0  0  0  0  0  0  0  0  0
    6.4057  -13.0770   24.9321 C   0  0  0  0  0  0  0  0  0  0  0  0
    7.7881  -13.1436   25.5782 C   0  0  0  0  0  0  0  0  0  0  0  0
    8.4892  -14.1026   24.6148 C   0  0  1  0  0  0  0  0  0  0  0  0
    8.1354  -15.5063   24.9131 C   0  0  0  0  0  0  0  0  0  0  0  0
    7.3712  -16.1688   24.1434 O   0  0  0  0  0  0  0  0  0  0  0  0
    8.6265  -16.1508   26.0467 N   0  0  0  0  0  0  0  0  0  0  0  0
    9.5416  -17.2986   25.9286 C   0  0  1  0  0  0  0  0  0  0  0  0
   10.7008  -16.9468   25.0563 C   0  0  0  0  0  0  0  0  0  0  0  0
   10.7883  -17.7918   23.8348 C   0  0  0  0  0  0  0  0  0  0  0  0
   12.1884  -17.7470   23.2644 C   0  0  0  0  0  0  0  0  0  0  0  0
   12.3498  -17.0952   22.2197 O   0  0  0  0  0  0  0  0  0  0  0  0
    9.9742  -17.7545   27.2595 C   0  0  0  0  0  0  0  0  0  0  0  0
   10.5155  -16.9052   28.0289 O   0  0  0  0  0  0  0  0  0  0  0  0
   13.2357  -18.4030   23.8815 O   0  0  0  0  0  0  0  0  0  0  0  0
    9.8225  -19.0367   27.7108 O   0  0  0  0  0  0  0  0  0  0  0  0
  1  2  1  0
  2  3  2  0
  4  2  1  0
  5  4  1  0
  5  6  1  6
  7  5  1  0
  8  7  2  0
  9  7  1  0
  9 13  1  0
 10  9  1  0
 11 12  1  0
 11 10  1  0
 12 13  1  0
 13 14  1  1
 14 15  2  0
 16 14  1  0
 16 17  1  0
 17 22  1  0
 17 18  1  6
 19 18  1  0
 20 21  2  0
 20 19  1  0
 22 23  2  0
 22 25  1  0
 24 20  1  0
M  END
$$$$
