NPE.pdb
     RDKit          3D

 25 25  0  0  1  0  0  0  0  0999 V2000
    8.7000  -18.6464   17.8614 N   0  0  0  0  0  0  0  0  0  0  0  0
    7.3395  -18.2794   17.9827 C   0  0  0  0  0  0  0  0  0  0  0  0
    6.4827  -19.1147   18.3262 O   0  0  0  0  0  0  0  0  0  0  0  0
    6.9686  -16.8754   17.6890 C   0  0  0  0  0  0  0  0  0  0  0  0
    8.2355  -16.0957   17.3590 C   0  0  2  0  0  0  0  0  0  0  0  0
    9.0516  -16.8582   16.4657 N   0  0  0  0  0  0  0  0  0  0  0  0
    8.8872  -15.7670   18.6301 C   0  0  0  0  0  0  0  0  0  0  0  0
    9.9822  -16.3569   18.8723 O   0  0  0  0  0  0  0  0  0  0  0  0
    8.3817  -14.8465   19.5938 N   0  0  0  0  0  0  0  0  0  0  0  0
    7.1107  -14.1671   19.3791 C   0  0  0  0  0  0  0  0  0  0  0  0
    7.0457  -13.0750   20.3923 C   0  0  0  0  0  0  0  0  0  0  0  0
    8.4662  -12.9628   20.9423 C   0  0  0  0  0  0  0  0  0  0  0  0
    8.9098  -14.4229   20.8410 C   0  0  1  0  0  0  0  0  0  0  0  0
    8.3902  -15.2147   21.9759 C   0  0  0  0  0  0  0  0  0  0  0  0
    7.3506  -15.9354   21.8523 O   0  0  0  0  0  0  0  0  0  0  0  0
    9.0208  -15.1982   23.2183 N   0  0  0  0  0  0  0  0  0  0  0  0
    9.7579  -16.3749   23.7091 C   0  0  1  0  0  0  0  0  0  0  0  0
   10.8246  -16.7578   22.7375 C   0  0  0  0  0  0  0  0  0  0  0  0
   11.6559  -17.8998   23.2053 C   0  0  0  0  0  0  0  0  0  0  0  0
   12.7144  -18.2342   22.1779 C   0  0  0  0  0  0  0  0  0  0  0  0
   12.9472  -17.3767   21.3103 O   0  0  0  0  0  0  0  0  0  0  0  0
   10.3039  -16.1202   25.0519 C   0  0  0  0  0  0  0  0  0  0  0  0
   10.8045  -14.9785   25.2805 O   0  0  0  0  0  0  0  0  0  0  0  0
   13.3877  -19.4399   22.2081 O   0  0  0  0  0  0  0  0  0  0  0  0
   10.2984  -17.0417   26.0627 O   0  0  0  0  0  0  0  0  0  0  0  0
  1  2  1  0
  2  3  2  0
  4  2  1  0
  5  4  1  0
  5  6  1  6
  7  5  1  0
  8  7  2  0
  9  7  1  0
  9 13  1  0
 10  9  1  0
 11 12  1  0
 11 10  1  0
 12 13  1  0
 13 14  1  1
 14 15  2  0
 16 14  1  0
 16 17  1  0
 17 22  1  0
 17 18  1  6
 19 18  1  0
 20 21  2  0
 20 19  1  0
 22 23  2  0
 22 25  1  0
 24 20  1  0
M  END
$$$$
