NPE.pdb
     RDKit          3D

 25 25  0  0  1  0  0  0  0  0999 V2000
    8.8059  -18.4167   17.4973 N   0  0  0  0  0  0  0  0  0  0  0  0
    7.4793  -18.3153   17.9769 C   0  0  0  0  0  0  0  0  0  0  0  0
    6.8805  -19.3169   18.4104 O   0  0  0  0  0  0  0  0  0  0  0  0
    6.8282  -16.9848   17.9468 C   0  0  0  0  0  0  0  0  0  0  0  0
    7.8175  -15.9710   17.3851 C   0  0  2  0  0  0  0  0  0  0  0  0
    8.4819  -16.5258   16.2467 N   0  0  0  0  0  0  0  0  0  0  0  0
    8.7190  -15.5922   18.4770 C   0  0  0  0  0  0  0  0  0  0  0  0
    9.9313  -15.9401   18.3547 O   0  0  0  0  0  0  0  0  0  0  0  0
    8.3312  -14.8731   19.6450 N   0  0  0  0  0  0  0  0  0  0  0  0
    6.9323  -14.5450   19.8869 C   0  0  0  0  0  0  0  0  0  0  0  0
    6.9242  -13.5462   20.9942 C   0  0  0  0  0  0  0  0  0  0  0  0
    8.3747  -13.0842   21.1187 C   0  0  0  0  0  0  0  0  0  0  0  0
    9.1015  -14.3714   20.7261 C   0  0  1  0  0  0  0  0  0  0  0  0
    9.1639  -15.3129   21.8638 C   0  0  0  0  0  0  0  0  0  0  0  0
    8.1706  -16.0471   22.1639 O   0  0  0  0  0  0  0  0  0  0  0  0
   10.3116  -15.4281   22.6454 N   0  0  0  0  0  0  0  0  0  0  0  0
   10.4688  -16.5372   23.6014 C   0  0  1  0  0  0  0  0  0  0  0  0
   11.8795  -17.0254   23.5979 C   0  0  0  0  0  0  0  0  0  0  0  0
   12.8612  -15.9673   23.2367 C   0  0  0  0  0  0  0  0  0  0  0  0
   14.2700  -16.5142   23.3002 C   0  0  0  0  0  0  0  0  0  0  0  0
   14.4020  -17.6843   23.6948 O   0  0  0  0  0  0  0  0  0  0  0  0
   10.0329  -16.1270   24.9459 C   0  0  0  0  0  0  0  0  0  0  0  0
   10.0542  -16.9980   25.8664 O   0  0  0  0  0  0  0  0  0  0  0  0
   15.3561  -15.7428   22.9351 O   0  0  0  0  0  0  0  0  0  0  0  0
    9.6111  -14.8635   25.2564 O   0  0  0  0  0  0  0  0  0  0  0  0
  1  2  1  0
  2  3  2  0
  4  2  1  0
  5  4  1  0
  5  6  1  6
  7  5  1  0
  8  7  2  0
  9  7  1  0
  9 13  1  0
 10  9  1  0
 11 12  1  0
 11 10  1  0
 12 13  1  0
 13 14  1  1
 14 15  2  0
 16 14  1  0
 16 17  1  0
 17 22  1  0
 17 18  1  1
 19 18  1  0
 20 21  2  0
 20 19  1  0
 22 23  2  0
 22 25  1  0
 24 20  1  0
M  END
$$$$
