NPE.pdb
     RDKit          3D

 25 25  0  0  1  0  0  0  0  0999 V2000
    9.4730  -17.3306   15.2848 N   0  0  0  0  0  0  0  0  0  0  0  0
    8.3715  -17.5836   16.1350 C   0  0  0  0  0  0  0  0  0  0  0  0
    8.1184  -18.7391   16.5228 O   0  0  0  0  0  0  0  0  0  0  0  0
    7.5323  -16.4343   16.5471 C   0  0  0  0  0  0  0  0  0  0  0  0
    8.1754  -15.1522   16.0327 C   0  0  2  0  0  0  0  0  0  0  0  0
    8.7594  -15.3876   14.7486 N   0  0  0  0  0  0  0  0  0  0  0  0
    9.1310  -14.7063   17.0508 C   0  0  0  0  0  0  0  0  0  0  0  0
   10.3591  -14.8072   16.7551 O   0  0  0  0  0  0  0  0  0  0  0  0
    8.7788  -14.1776   18.3267 N   0  0  0  0  0  0  0  0  0  0  0  0
    7.3881  -14.1432   18.7600 C   0  0  0  0  0  0  0  0  0  0  0  0
    7.3483  -13.2636   19.9635 C   0  0  0  0  0  0  0  0  0  0  0  0
    8.6972  -12.5470   19.9724 C   0  0  0  0  0  0  0  0  0  0  0  0
    9.5831  -13.6339   19.3617 C   0  0  1  0  0  0  0  0  0  0  0  0
    9.9612  -14.6410   20.3753 C   0  0  0  0  0  0  0  0  0  0  0  0
    9.2423  -15.6691   20.5795 O   0  0  0  0  0  0  0  0  0  0  0  0
   11.1167  -14.4984   21.1409 N   0  0  0  0  0  0  0  0  0  0  0  0
   11.6938  -15.6455   21.8619 C   0  0  1  0  0  0  0  0  0  0  0  0
   13.1489  -15.4210   22.1082 C   0  0  0  0  0  0  0  0  0  0  0  0
   13.7828  -16.5159   22.8914 C   0  0  0  0  0  0  0  0  0  0  0  0
   15.2469  -16.2156   23.1238 C   0  0  0  0  0  0  0  0  0  0  0  0
   15.6586  -15.1036   22.7550 O   0  0  0  0  0  0  0  0  0  0  0  0
   10.9573  -15.8948   23.1115 C   0  0  0  0  0  0  0  0  0  0  0  0
   10.2199  -14.9662   23.5592 O   0  0  0  0  0  0  0  0  0  0  0  0
   16.0830  -17.1399   23.7193 O   0  0  0  0  0  0  0  0  0  0  0  0
   11.0218  -17.0682   23.8114 O   0  0  0  0  0  0  0  0  0  0  0  0
  1  2  1  0
  2  3  2  0
  4  2  1  0
  5  4  1  0
  5  6  1  6
  7  5  1  0
  8  7  2  0
  9  7  1  0
  9 13  1  0
 10  9  1  0
 11 12  1  0
 11 10  1  0
 12 13  1  0
 13 14  1  1
 14 15  2  0
 16 14  1  0
 16 17  1  0
 17 22  1  0
 17 18  1  1
 19 18  1  0
 20 21  2  0
 20 19  1  0
 22 23  2  0
 22 25  1  0
 24 20  1  0
M  END
$$$$
