NPE.pdb
     RDKit          3D

 25 25  0  0  1  0  0  0  0  0999 V2000
    6.2852  -14.6530   21.1871 N   0  0  0  0  0  0  0  0  0  0  0  0
    6.0480  -15.6198   22.1917 C   0  0  0  0  0  0  0  0  0  0  0  0
    5.0025  -16.2957   22.1909 O   0  0  0  0  0  0  0  0  0  0  0  0
    7.0790  -15.8015   23.2400 C   0  0  0  0  0  0  0  0  0  0  0  0
    8.1413  -14.7223   23.0708 C   0  0  2  0  0  0  0  0  0  0  0  0
    8.6511  -14.7532   21.7349 N   0  0  0  0  0  0  0  0  0  0  0  0
    9.1574  -14.9468   24.1031 C   0  0  0  0  0  0  0  0  0  0  0  0
   10.2502  -15.4596   23.7176 O   0  0  0  0  0  0  0  0  0  0  0  0
    9.0019  -14.6337   25.4849 N   0  0  0  0  0  0  0  0  0  0  0  0
    7.7136  -14.1997   26.0093 C   0  0  0  0  0  0  0  0  0  0  0  0
    7.9788  -13.6656   27.3761 C   0  0  0  0  0  0  0  0  0  0  0  0
    9.4961  -13.5069   27.4496 C   0  0  0  0  0  0  0  0  0  0  0  0
    9.9316  -14.6695   26.5564 C   0  0  1  0  0  0  0  0  0  0  0  0
    9.8960  -15.9485   27.2964 C   0  0  0  0  0  0  0  0  0  0  0  0
    8.7926  -16.5075   27.5888 O   0  0  0  0  0  0  0  0  0  0  0  0
   11.0688  -16.5845   27.6985 N   0  0  0  0  0  0  0  0  0  0  0  0
   11.0375  -17.9439   28.2640 C   0  0  1  0  0  0  0  0  0  0  0  0
   12.2357  -18.7154   27.8197 C   0  0  0  0  0  0  0  0  0  0  0  0
   12.3460  -18.8186   26.3394 C   0  0  0  0  0  0  0  0  0  0  0  0
   13.5751  -19.6136   25.9586 C   0  0  0  0  0  0  0  0  0  0  0  0
   13.3872  -20.7239   25.4351 O   0  0  0  0  0  0  0  0  0  0  0  0
   10.9310  -17.8916   29.7311 C   0  0  0  0  0  0  0  0  0  0  0  0
   11.1070  -16.7716   30.2977 O   0  0  0  0  0  0  0  0  0  0  0  0
   14.8459  -19.1221   26.1855 O   0  0  0  0  0  0  0  0  0  0  0  0
   10.6512  -18.9786   30.5126 O   0  0  0  0  0  0  0  0  0  0  0  0
  1  2  1  0
  2  3  2  0
  4  2  1  0
  5  4  1  0
  5  6  1  6
  7  5  1  0
  8  7  2  0
  9  7  1  0
  9 13  1  0
 10  9  1  0
 11 12  1  0
 11 10  1  0
 12 13  1  0
 13 14  1  1
 14 15  2  0
 16 14  1  0
 16 17  1  0
 17 22  1  0
 17 18  1  1
 19 18  1  0
 20 21  2  0
 20 19  1  0
 22 23  2  0
 22 25  1  0
 24 20  1  0
M  END
$$$$
