NPE.pdb
     RDKit          3D

 25 25  0  0  1  0  0  0  0  0999 V2000
    7.9451  -17.4282   22.6133 N   0  0  0  0  0  0  0  0  0  0  0  0
    7.2981  -16.4225   21.8583 C   0  0  0  0  0  0  0  0  0  0  0  0
    7.3886  -16.4006   20.6169 O   0  0  0  0  0  0  0  0  0  0  0  0
    6.5129  -15.4005   22.5890 C   0  0  0  0  0  0  0  0  0  0  0  0
    7.1424  -14.0348   22.3432 C   0  0  2  0  0  0  0  0  0  0  0  0
    7.6718  -13.9800   21.0158 N   0  0  0  0  0  0  0  0  0  0  0  0
    8.1417  -13.8213   23.3941 C   0  0  0  0  0  0  0  0  0  0  0  0
    9.3564  -13.8733   23.0370 O   0  0  0  0  0  0  0  0  0  0  0  0
    7.8449  -13.5646   24.7644 N   0  0  0  0  0  0  0  0  0  0  0  0
    6.4746  -13.6335   25.2547 C   0  0  0  0  0  0  0  0  0  0  0  0
    6.4861  -13.0151   26.6116 C   0  0  0  0  0  0  0  0  0  0  0  0
    7.8325  -12.3003   26.7074 C   0  0  0  0  0  0  0  0  0  0  0  0
    8.6929  -13.2319   25.8526 C   0  0  1  0  0  0  0  0  0  0  0  0
    9.1174  -14.4186   26.6248 C   0  0  0  0  0  0  0  0  0  0  0  0
    8.2766  -15.2982   26.9923 O   0  0  0  0  0  0  0  0  0  0  0  0
   10.4515  -14.6137   26.9764 N   0  0  0  0  0  0  0  0  0  0  0  0
   10.8998  -15.8836   27.5723 C   0  0  1  0  0  0  0  0  0  0  0  0
   12.2443  -16.2565   27.0415 C   0  0  0  0  0  0  0  0  0  0  0  0
   12.4229  -15.9030   25.6072 C   0  0  0  0  0  0  0  0  0  0  0  0
   13.8134  -16.2761   25.1437 C   0  0  0  0  0  0  0  0  0  0  0  0
   14.5687  -16.7884   25.9858 O   0  0  0  0  0  0  0  0  0  0  0  0
   10.8944  -15.7960   29.0415 C   0  0  0  0  0  0  0  0  0  0  0  0
   11.1564  -16.8479   29.6980 O   0  0  0  0  0  0  0  0  0  0  0  0
   14.2191  -16.0545   23.8420 O   0  0  0  0  0  0  0  0  0  0  0  0
   10.6266  -14.6473   29.7340 O   0  0  0  0  0  0  0  0  0  0  0  0
  1  2  1  0
  2  3  2  0
  4  2  1  0
  5  4  1  0
  5  6  1  6
  7  5  1  0
  8  7  2  0
  9  7  1  0
  9 13  1  0
 10  9  1  0
 11 12  1  0
 11 10  1  0
 12 13  1  0
 13 14  1  1
 14 15  2  0
 16 14  1  0
 16 17  1  0
 17 22  1  0
 17 18  1  6
 19 18  1  0
 20 21  2  0
 20 19  1  0
 22 23  2  0
 22 25  1  0
 24 20  1  0
M  END
$$$$
