NPE.pdb
     RDKit          3D

 25 25  0  0  1  0  0  0  0  0999 V2000
    6.3388  -17.3941   15.0807 N   0  0  0  0  0  0  0  0  0  0  0  0
    7.7497  -17.4362   14.9917 C   0  0  0  0  0  0  0  0  0  0  0  0
    8.3108  -17.8550   13.9624 O   0  0  0  0  0  0  0  0  0  0  0  0
    8.5347  -16.9679   16.1577 C   0  0  0  0  0  0  0  0  0  0  0  0
    8.8769  -15.4968   15.9556 C   0  0  2  0  0  0  0  0  0  0  0  0
    9.6479  -15.3412   14.7612 N   0  0  0  0  0  0  0  0  0  0  0  0
    9.5576  -15.0380   17.1700 C   0  0  0  0  0  0  0  0  0  0  0  0
   10.8207  -15.1392   17.1816 O   0  0  0  0  0  0  0  0  0  0  0  0
    8.9069  -14.4967   18.3168 N   0  0  0  0  0  0  0  0  0  0  0  0
    7.4527  -14.4499   18.3948 C   0  0  0  0  0  0  0  0  0  0  0  0
    7.1256  -13.5604   19.5460 C   0  0  0  0  0  0  0  0  0  0  0  0
    8.4368  -12.8524   19.8818 C   0  0  0  0  0  0  0  0  0  0  0  0
    9.4366  -13.9499   19.5144 C   0  0  1  0  0  0  0  0  0  0  0  0
    9.5456  -14.9512   20.5961 C   0  0  0  0  0  0  0  0  0  0  0  0
    8.6685  -15.8596   20.7410 O   0  0  0  0  0  0  0  0  0  0  0  0
   10.6119  -14.9340   21.4931 N   0  0  0  0  0  0  0  0  0  0  0  0
   11.1153  -16.1802   22.0950 C   0  0  1  0  0  0  0  0  0  0  0  0
   12.5695  -16.3447   21.8007 C   0  0  0  0  0  0  0  0  0  0  0  0
   13.4241  -15.3607   22.5187 C   0  0  0  0  0  0  0  0  0  0  0  0
   14.8830  -15.6016   22.2005 C   0  0  0  0  0  0  0  0  0  0  0  0
   15.1481  -16.5783   21.4807 O   0  0  0  0  0  0  0  0  0  0  0  0
   10.8415  -16.2037   23.5410 C   0  0  0  0  0  0  0  0  0  0  0  0
   10.3543  -15.1591   24.0681 O   0  0  0  0  0  0  0  0  0  0  0  0
   15.8709  -14.7702   22.6912 O   0  0  0  0  0  0  0  0  0  0  0  0
   11.0796  -17.2859   24.3427 O   0  0  0  0  0  0  0  0  0  0  0  0
  1  2  1  0
  2  3  2  0
  4  2  1  0
  5  4  1  0
  5  6  1  6
  7  5  1  0
  8  7  2  0
  9  7  1  0
  9 13  1  0
 10  9  1  0
 11 12  1  0
 11 10  1  0
 12 13  1  0
 13 14  1  1
 14 15  2  0
 16 14  1  0
 16 17  1  0
 17 22  1  0
 17 18  1  1
 19 18  1  0
 20 21  2  0
 20 19  1  0
 22 23  2  0
 22 25  1  0
 24 20  1  0
M  END
$$$$
