NPE.pdb
     RDKit          3D

 25 25  0  0  1  0  0  0  0  0999 V2000
    9.7820  -16.4607   14.1630 N   0  0  0  0  0  0  0  0  0  0  0  0
    9.0014  -17.1738   15.1024 C   0  0  0  0  0  0  0  0  0  0  0  0
    8.4607  -18.2518   14.7937 O   0  0  0  0  0  0  0  0  0  0  0  0
    8.8486  -16.5991   16.4593 C   0  0  0  0  0  0  0  0  0  0  0  0
    9.6102  -15.2805   16.5185 C   0  0  2  0  0  0  0  0  0  0  0  0
   10.7483  -15.3422   15.6548 N   0  0  0  0  0  0  0  0  0  0  0  0
    9.9403  -15.0319   17.9248 C   0  0  0  0  0  0  0  0  0  0  0  0
   11.1143  -15.3370   18.2916 O   0  0  0  0  0  0  0  0  0  0  0  0
    9.0469  -14.4813   18.8893 N   0  0  0  0  0  0  0  0  0  0  0  0
    7.6778  -14.1397   18.5260 C   0  0  0  0  0  0  0  0  0  0  0  0
    7.1414  -13.3182   19.6489 C   0  0  0  0  0  0  0  0  0  0  0  0
    8.3663  -12.9358   20.4774 C   0  0  0  0  0  0  0  0  0  0  0  0
    9.2342  -14.1767   20.2626 C   0  0  1  0  0  0  0  0  0  0  0  0
    8.8116  -15.2794   21.1515 C   0  0  0  0  0  0  0  0  0  0  0  0
    8.1792  -16.2838   20.6968 O   0  0  0  0  0  0  0  0  0  0  0  0
    9.0914  -15.2560   22.5163 N   0  0  0  0  0  0  0  0  0  0  0  0
   10.0456  -16.2075   23.1102 C   0  0  1  0  0  0  0  0  0  0  0  0
   11.3844  -16.0662   22.4651 C   0  0  0  0  0  0  0  0  0  0  0  0
   12.4089  -16.9769   23.0438 C   0  0  0  0  0  0  0  0  0  0  0  0
   13.2345  -17.6053   21.9433 C   0  0  0  0  0  0  0  0  0  0  0  0
   14.2338  -16.9754   21.5600 O   0  0  0  0  0  0  0  0  0  0  0  0
   10.1171  -16.0260   24.5690 C   0  0  0  0  0  0  0  0  0  0  0  0
    9.9777  -14.8525   25.0270 O   0  0  0  0  0  0  0  0  0  0  0  0
   12.8879  -18.8240   21.3933 O   0  0  0  0  0  0  0  0  0  0  0  0
   10.3214  -17.0490   25.4537 O   0  0  0  0  0  0  0  0  0  0  0  0
  1  2  1  0
  2  3  2  0
  4  2  1  0
  5  4  1  0
  5  6  1  6
  7  5  1  0
  8  7  2  0
  9  7  1  0
  9 13  1  0
 10  9  1  0
 11 12  1  0
 11 10  1  0
 12 13  1  0
 13 14  1  1
 14 15  2  0
 16 14  1  0
 16 17  1  0
 17 22  1  0
 17 18  1  6
 19 18  1  0
 20 21  2  0
 20 19  1  0
 22 23  2  0
 22 25  1  0
 24 20  1  0
M  END
$$$$
