NPE.pdb
     RDKit          3D

 25 25  0  0  1  0  0  0  0  0999 V2000
    5.4368  -19.0991   18.3666 N   0  0  0  0  0  0  0  0  0  0  0  0
    6.7105  -18.9902   17.7615 C   0  0  0  0  0  0  0  0  0  0  0  0
    6.8985  -19.3880   16.5970 O   0  0  0  0  0  0  0  0  0  0  0  0
    7.8087  -18.3903   18.5547 C   0  0  0  0  0  0  0  0  0  0  0  0
    8.1370  -17.0203   17.9739 C   0  0  2  0  0  0  0  0  0  0  0  0
    8.7635  -17.1754   16.6977 N   0  0  0  0  0  0  0  0  0  0  0  0
    8.9595  -16.3153   18.9614 C   0  0  0  0  0  0  0  0  0  0  0  0
   10.2146  -16.3777   18.7985 O   0  0  0  0  0  0  0  0  0  0  0  0
    8.4524  -15.5790   20.0715 N   0  0  0  0  0  0  0  0  0  0  0  0
    7.0230  -15.5450   20.3517 C   0  0  0  0  0  0  0  0  0  0  0  0
    6.8207  -14.4600   21.3544 C   0  0  0  0  0  0  0  0  0  0  0  0
    8.1323  -13.6774   21.3581 C   0  0  0  0  0  0  0  0  0  0  0  0
    9.1196  -14.8060   21.0569 C   0  0  1  0  0  0  0  0  0  0  0  0
    9.4250  -15.5826   22.2769 C   0  0  0  0  0  0  0  0  0  0  0  0
    8.6429  -16.4971   22.6862 O   0  0  0  0  0  0  0  0  0  0  0  0
   10.5788  -15.3394   23.0194 N   0  0  0  0  0  0  0  0  0  0  0  0
   11.0830  -16.3328   23.9826 C   0  0  1  0  0  0  0  0  0  0  0  0
   12.5559  -16.1728   24.1655 C   0  0  0  0  0  0  0  0  0  0  0  0
   13.3210  -16.3340   22.8996 C   0  0  0  0  0  0  0  0  0  0  0  0
   14.7944  -16.0938   23.1423 C   0  0  0  0  0  0  0  0  0  0  0  0
   15.1206  -15.6931   24.2716 O   0  0  0  0  0  0  0  0  0  0  0  0
   10.3569  -16.2309   25.2587 C   0  0  0  0  0  0  0  0  0  0  0  0
    9.5910  -15.2350   25.4260 O   0  0  0  0  0  0  0  0  0  0  0  0
   15.7298  -16.3115   22.1495 O   0  0  0  0  0  0  0  0  0  0  0  0
   10.4599  -17.1484   26.2679 O   0  0  0  0  0  0  0  0  0  0  0  0
  1  2  1  0
  2  3  2  0
  4  2  1  0
  5  4  1  0
  5  6  1  6
  7  5  1  0
  8  7  2  0
  9  7  1  0
  9 13  1  0
 10  9  1  0
 11 12  1  0
 11 10  1  0
 12 13  1  0
 13 14  1  1
 14 15  2  0
 16 14  1  0
 16 17  1  0
 17 22  1  0
 17 18  1  1
 19 18  1  0
 20 21  2  0
 20 19  1  0
 22 23  2  0
 22 25  1  0
 24 20  1  0
M  END
$$$$
