NPE.pdb
     RDKit          3D

 25 25  0  0  1  0  0  0  0  0999 V2000
    2.8903  -17.5809   21.7453 N   0  0  0  0  0  0  0  0  0  0  0  0
    3.8790  -18.5436   21.4355 C   0  0  0  0  0  0  0  0  0  0  0  0
    3.5610  -19.7076   21.1295 O   0  0  0  0  0  0  0  0  0  0  0  0
    5.2990  -18.1239   21.4866 C   0  0  0  0  0  0  0  0  0  0  0  0
    5.7556  -17.7769   20.0748 C   0  0  2  0  0  0  0  0  0  0  0  0
    5.6076  -18.9185   19.2262 N   0  0  0  0  0  0  0  0  0  0  0  0
    7.1310  -17.2796   20.1727 C   0  0  0  0  0  0  0  0  0  0  0  0
    8.0493  -18.0930   19.8548 O   0  0  0  0  0  0  0  0  0  0  0  0
    7.4981  -15.9683   20.5936 N   0  0  0  0  0  0  0  0  0  0  0  0
    6.4916  -15.0333   21.0790 C   0  0  0  0  0  0  0  0  0  0  0  0
    7.1525  -13.6975   21.1270 C   0  0  0  0  0  0  0  0  0  0  0  0
    8.4452  -13.8687   20.3317 C   0  0  0  0  0  0  0  0  0  0  0  0
    8.7645  -15.3304   20.6490 C   0  0  1  0  0  0  0  0  0  0  0  0
    9.4064  -15.4570   21.9744 C   0  0  0  0  0  0  0  0  0  0  0  0
    8.8550  -14.9869   23.0187 O   0  0  0  0  0  0  0  0  0  0  0  0
   10.6362  -16.0947   22.1247 N   0  0  0  0  0  0  0  0  0  0  0  0
   11.2389  -16.2734   23.4564 C   0  0  1  0  0  0  0  0  0  0  0  0
   11.3286  -17.7253   23.7917 C   0  0  0  0  0  0  0  0  0  0  0  0
   10.0608  -18.2751   24.3433 C   0  0  0  0  0  0  0  0  0  0  0  0
   10.2294  -19.7379   24.6892 C   0  0  0  0  0  0  0  0  0  0  0  0
   10.2738  -20.5387   23.7410 O   0  0  0  0  0  0  0  0  0  0  0  0
   12.5522  -15.6123   23.5228 C   0  0  0  0  0  0  0  0  0  0  0  0
   13.1474  -15.5895   24.6415 O   0  0  0  0  0  0  0  0  0  0  0  0
   10.3286  -20.1579   26.0013 O   0  0  0  0  0  0  0  0  0  0  0  0
   13.1642  -15.0267   22.4488 O   0  0  0  0  0  0  0  0  0  0  0  0
  1  2  1  0
  2  3  2  0
  4  2  1  0
  5  4  1  0
  5  6  1  6
  7  5  1  0
  8  7  2  0
  9  7  1  0
  9 13  1  0
 10  9  1  0
 11 12  1  0
 11 10  1  0
 12 13  1  0
 13 14  1  1
 14 15  2  0
 16 14  1  0
 16 17  1  0
 17 22  1  0
 17 18  1  6
 19 18  1  0
 20 21  2  0
 20 19  1  0
 22 23  2  0
 22 25  1  0
 24 20  1  0
M  END
$$$$
