NPE.pdb
     RDKit          3D

 25 25  0  0  1  0  0  0  0  0999 V2000
    7.8721  -20.5224   19.2454 N   0  0  0  0  0  0  0  0  0  0  0  0
    7.1791  -19.4971   18.5608 C   0  0  0  0  0  0  0  0  0  0  0  0
    6.7736  -19.6699   17.3966 O   0  0  0  0  0  0  0  0  0  0  0  0
    6.9524  -18.2166   19.2706 C   0  0  0  0  0  0  0  0  0  0  0  0
    7.5867  -17.0920   18.4612 C   0  0  2  0  0  0  0  0  0  0  0  0
    8.1414  -17.6209   17.2538 N   0  0  0  0  0  0  0  0  0  0  0  0
    8.5657  -16.4307   19.3289 C   0  0  0  0  0  0  0  0  0  0  0  0
    9.7832  -16.5466   18.9972 O   0  0  0  0  0  0  0  0  0  0  0  0
    8.2468  -15.6809   20.4984 N   0  0  0  0  0  0  0  0  0  0  0  0
    6.8789  -15.6261   20.9973 C   0  0  0  0  0  0  0  0  0  0  0  0
    6.8485  -14.5324   22.0105 C   0  0  0  0  0  0  0  0  0  0  0  0
    8.1543  -13.7674   21.8036 C   0  0  0  0  0  0  0  0  0  0  0  0
    9.0687  -14.9109   21.3617 C   0  0  1  0  0  0  0  0  0  0  0  0
    9.5508  -15.6841   22.5255 C   0  0  0  0  0  0  0  0  0  0  0  0
    8.8797  -16.6584   22.9902 O   0  0  0  0  0  0  0  0  0  0  0  0
   10.7554  -15.3721   23.1525 N   0  0  0  0  0  0  0  0  0  0  0  0
   11.6545  -16.4334   23.6361 C   0  0  1  0  0  0  0  0  0  0  0  0
   13.0784  -16.0087   23.4923 C   0  0  0  0  0  0  0  0  0  0  0  0
   14.0446  -17.0539   23.9258 C   0  0  0  0  0  0  0  0  0  0  0  0
   15.4493  -16.4935   23.9484 C   0  0  0  0  0  0  0  0  0  0  0  0
   15.7252  -15.6322   23.0973 O   0  0  0  0  0  0  0  0  0  0  0  0
   11.3272  -16.7959   25.0245 C   0  0  0  0  0  0  0  0  0  0  0  0
   10.7162  -15.9396   25.7314 O   0  0  0  0  0  0  0  0  0  0  0  0
   16.3785  -16.9239   24.8753 O   0  0  0  0  0  0  0  0  0  0  0  0
   11.6416  -18.0008   25.5904 O   0  0  0  0  0  0  0  0  0  0  0  0
  1  2  1  0
  2  3  2  0
  4  2  1  0
  5  4  1  0
  5  6  1  6
  7  5  1  0
  8  7  2  0
  9  7  1  0
  9 13  1  0
 10  9  1  0
 11 12  1  0
 11 10  1  0
 12 13  1  0
 13 14  1  1
 14 15  2  0
 16 14  1  0
 16 17  1  0
 17 22  1  0
 17 18  1  1
 19 18  1  0
 20 21  2  0
 20 19  1  0
 22 23  2  0
 22 25  1  0
 24 20  1  0
M  END
$$$$
