QFS.pdb
     RDKit          3D

 27 27  0  0  1  0  0  0  0  0999 V2000
    9.0731  -18.8054   17.3199 N   0  0  0  0  0  0  0  0  0  0  0  0
    9.8838  -17.6420   17.5517 C   0  0  0  0  0  0  0  0  0  0  0  0
    9.5563  -16.6205   16.9343 O   0  0  0  0  0  0  0  0  0  0  0  0
   10.9991  -17.8064   18.4951 C   0  0  0  0  0  0  0  0  0  0  0  0
   10.9454  -16.9293   19.6936 C   0  0  0  0  0  0  0  0  0  0  0  0
   10.0516  -17.3803   20.7896 C   0  0  2  0  0  0  0  0  0  0  0  0
    8.6894  -17.6615   20.4403 N   0  0  0  0  0  0  0  0  0  0  0  0
   10.0777  -16.4518   21.9559 C   0  0  0  0  0  0  0  0  0  0  0  0
   11.1560  -15.9628   22.3955 O   0  0  0  0  0  0  0  0  0  0  0  0
    8.9048  -16.0768   22.6214 N   0  0  0  0  0  0  0  0  0  0  0  0
    8.8603  -15.1788   23.7741 C   0  0  1  0  0  0  0  0  0  0  0  0
    7.6194  -14.3971   23.8297 C   0  0  0  0  0  0  0  0  0  0  0  0
    7.4655  -13.5240   24.9910 C   0  0  0  0  0  0  0  0  0  0  0  0
    6.4955  -13.8491   25.9548 C   0  0  0  0  0  0  0  0  0  0  0  0
    6.3207  -13.0978   27.1023 C   0  0  0  0  0  0  0  0  0  0  0  0
    7.0922  -12.0038   27.3404 C   0  0  0  0  0  0  0  0  0  0  0  0
    8.0457  -11.6538   26.4298 C   0  0  0  0  0  0  0  0  0  0  0  0
    8.2089  -12.4072   25.2962 C   0  0  0  0  0  0  0  0  0  0  0  0
    9.0762  -16.0475   24.9327 C   0  0  0  0  0  0  0  0  0  0  0  0
    8.2668  -17.0403   25.1119 O   0  0  0  0  0  0  0  0  0  0  0  0
   12.4001  -17.2357   26.1856 O   0  0  0  0  0  0  0  0  0  0  0  0
   11.2713  -17.9736   26.6088 C   0  0  0  0  0  0  0  0  0  0  0  0
   10.2360  -16.9069   26.9733 C   0  0  2  0  0  0  0  0  0  0  0  0
   10.0945  -15.9438   25.9130 N   0  0  0  0  0  0  0  0  0  0  0  0
   10.6526  -16.3278   28.2438 C   0  0  0  0  0  0  0  0  0  0  0  0
   10.8499  -17.0975   29.3576 O   0  0  0  0  0  0  0  0  0  0  0  0
   10.8340  -15.0896   28.3152 O   0  0  0  0  0  0  0  0  0  0  0  0
  2  1  1  0
  3  2  2  0
  4  2  1  0
  5  4  1  0
  6  8  1  0
  6  5  1  0
  6  7  1  6
  8 10  1  0
  9  8  2  0
 10 11  1  0
 11 12  1  1
 12 13  1  0
 13 18  2  0
 14 15  2  0
 14 13  1  0
 15 16  1  0
 16 17  2  0
 18 17  1  0
 19 20  2  0
 19 11  1  0
 21 22  1  0
 23 22  1  6
 23 25  1  0
 23 24  1  0
 24 19  1  0
 25 26  1  0
 27 25  2  0
M  END
$$$$
