QFS.pdb
     RDKit          3D

 27 27  0  0  1  0  0  0  0  0999 V2000
    7.7227  -21.0442   20.3642 N   0  0  0  0  0  0  0  0  0  0  0  0
    8.9037  -20.8501   19.5691 C   0  0  0  0  0  0  0  0  0  0  0  0
    9.2432  -21.8055   18.8593 O   0  0  0  0  0  0  0  0  0  0  0  0
    9.5609  -19.5411   19.6933 C   0  0  0  0  0  0  0  0  0  0  0  0
    8.8689  -18.5700   20.5802 C   0  0  0  0  0  0  0  0  0  0  0  0
    8.9953  -17.1402   20.2022 C   0  0  2  0  0  0  0  0  0  0  0  0
    9.9334  -16.8250   19.1643 N   0  0  0  0  0  0  0  0  0  0  0  0
    9.2567  -16.2666   21.3819 C   0  0  0  0  0  0  0  0  0  0  0  0
   10.4176  -15.8580   21.6655 O   0  0  0  0  0  0  0  0  0  0  0  0
    8.2248  -15.8566   22.2343 N   0  0  0  0  0  0  0  0  0  0  0  0
    8.4079  -14.9830   23.3920 C   0  0  1  0  0  0  0  0  0  0  0  0
    7.2120  -14.1856   23.6888 C   0  0  0  0  0  0  0  0  0  0  0  0
    7.2592  -13.3956   24.9169 C   0  0  0  0  0  0  0  0  0  0  0  0
    8.1202  -12.2860   24.9717 C   0  0  0  0  0  0  0  0  0  0  0  0
    8.1878  -11.4639   26.0813 C   0  0  0  0  0  0  0  0  0  0  0  0
    7.4127  -11.7045   27.1722 C   0  0  0  0  0  0  0  0  0  0  0  0
    6.5630  -12.7716   27.1597 C   0  0  0  0  0  0  0  0  0  0  0  0
    6.5055  -13.5789   26.0531 C   0  0  0  0  0  0  0  0  0  0  0  0
    8.8170  -15.8793   24.4751 C   0  0  0  0  0  0  0  0  0  0  0  0
    8.0136  -16.8342   24.8149 O   0  0  0  0  0  0  0  0  0  0  0  0
   12.5674  -16.1024   25.7358 O   0  0  0  0  0  0  0  0  0  0  0  0
   11.8684  -17.3273   25.8282 C   0  0  0  0  0  0  0  0  0  0  0  0
   10.4174  -16.9170   26.0905 C   0  0  2  0  0  0  0  0  0  0  0  0
   10.0219  -15.8407   25.2203 N   0  0  0  0  0  0  0  0  0  0  0  0
   10.3170  -16.5958   27.5082 C   0  0  0  0  0  0  0  0  0  0  0  0
    9.8245  -15.3958   27.9432 O   0  0  0  0  0  0  0  0  0  0  0  0
   10.6937  -17.4445   28.3502 O   0  0  0  0  0  0  0  0  0  0  0  0
  2  1  1  0
  3  2  2  0
  4  2  1  0
  5  4  1  0
  6  8  1  0
  6  5  1  0
  6  7  1  6
  8 10  1  0
  9  8  2  0
 10 11  1  0
 11 12  1  1
 12 13  1  0
 13 18  2  0
 14 15  2  0
 14 13  1  0
 15 16  1  0
 16 17  2  0
 18 17  1  0
 19 20  2  0
 19 11  1  0
 21 22  1  0
 23 22  1  6
 23 25  1  0
 23 24  1  0
 24 19  1  0
 25 26  1  0
 27 25  2  0
M  END
$$$$
