QFS.pdb
     RDKit          3D

 27 27  0  0  1  0  0  0  0  0999 V2000
    8.6205  -21.1444   21.1872 N   0  0  0  0  0  0  0  0  0  0  0  0
    9.9204  -20.8480   20.6515 C   0  0  0  0  0  0  0  0  0  0  0  0
   10.6619  -21.8198   20.4573 O   0  0  0  0  0  0  0  0  0  0  0  0
   10.2086  -19.4292   20.3970 C   0  0  0  0  0  0  0  0  0  0  0  0
    9.0715  -18.5025   20.6349 C   0  0  0  0  0  0  0  0  0  0  0  0
    9.3176  -17.0750   20.3109 C   0  0  2  0  0  0  0  0  0  0  0  0
   10.4161  -16.7898   19.4342 N   0  0  0  0  0  0  0  0  0  0  0  0
    9.4349  -16.2316   21.5349 C   0  0  0  0  0  0  0  0  0  0  0  0
   10.5531  -15.8331   21.9661 O   0  0  0  0  0  0  0  0  0  0  0  0
    8.3078  -15.8403   22.2670 N   0  0  0  0  0  0  0  0  0  0  0  0
    8.3516  -15.0126   23.4712 C   0  0  1  0  0  0  0  0  0  0  0  0
    7.0892  -14.3037   23.7118 C   0  0  0  0  0  0  0  0  0  0  0  0
    6.9905  -13.5872   24.9813 C   0  0  0  0  0  0  0  0  0  0  0  0
    7.6075  -12.3295   25.0950 C   0  0  0  0  0  0  0  0  0  0  0  0
    7.5208  -11.5712   26.2479 C   0  0  0  0  0  0  0  0  0  0  0  0
    6.8257  -12.0230   27.3256 C   0  0  0  0  0  0  0  0  0  0  0  0
    6.2117  -13.2391   27.2564 C   0  0  0  0  0  0  0  0  0  0  0  0
    6.3054  -13.9810   26.1074 C   0  0  0  0  0  0  0  0  0  0  0  0
    8.7384  -15.9325   24.5426 C   0  0  0  0  0  0  0  0  0  0  0  0
    8.1553  -17.0856   24.5987 O   0  0  0  0  0  0  0  0  0  0  0  0
   11.8208  -18.2931   26.9727 O   0  0  0  0  0  0  0  0  0  0  0  0
   11.5603  -17.2294   26.0792 C   0  0  0  0  0  0  0  0  0  0  0  0
   10.1409  -16.7778   26.4311 C   0  0  2  0  0  0  0  0  0  0  0  0
    9.7057  -15.7206   25.5565 N   0  0  0  0  0  0  0  0  0  0  0  0
   10.1498  -16.4101   27.8409 C   0  0  0  0  0  0  0  0  0  0  0  0
   10.4711  -17.3107   28.8196 O   0  0  0  0  0  0  0  0  0  0  0  0
    9.8538  -15.2355   28.1631 O   0  0  0  0  0  0  0  0  0  0  0  0
  2  1  1  0
  3  2  2  0
  4  2  1  0
  5  4  1  0
  6  8  1  0
  6  5  1  0
  6  7  1  1
  8 10  1  0
  9  8  2  0
 10 11  1  0
 11 12  1  1
 12 13  1  0
 13 18  2  0
 14 15  2  0
 14 13  1  0
 15 16  1  0
 16 17  2  0
 18 17  1  0
 19 20  2  0
 19 11  1  0
 21 22  1  0
 23 22  1  6
 23 25  1  0
 23 24  1  0
 24 19  1  0
 25 26  1  0
 27 25  2  0
M  END
$$$$
