QFS.pdb
     RDKit          3D

 27 27  0  0  1  0  0  0  0  0999 V2000
    8.5228  -12.8610   16.8765 N   0  0  0  0  0  0  0  0  0  0  0  0
    7.8245  -14.0913   16.6250 C   0  0  0  0  0  0  0  0  0  0  0  0
    7.4920  -14.2963   15.4505 O   0  0  0  0  0  0  0  0  0  0  0  0
    7.5941  -14.9561   17.7911 C   0  0  0  0  0  0  0  0  0  0  0  0
    8.2204  -14.4895   19.0554 C   0  0  0  0  0  0  0  0  0  0  0  0
    8.6916  -15.5524   19.9782 C   0  0  2  0  0  0  0  0  0  0  0  0
    7.8752  -16.7266   20.0846 N   0  0  0  0  0  0  0  0  0  0  0  0
    8.9760  -15.0269   21.3443 C   0  0  0  0  0  0  0  0  0  0  0  0
    9.8485  -14.1369   21.5487 O   0  0  0  0  0  0  0  0  0  0  0  0
    8.2877  -15.4967   22.4690 N   0  0  0  0  0  0  0  0  0  0  0  0
    8.4418  -14.9542   23.8177 C   0  0  1  0  0  0  0  0  0  0  0  0
    7.1538  -14.6397   24.4472 C   0  0  0  0  0  0  0  0  0  0  0  0
    7.2116  -13.7748   25.6233 C   0  0  0  0  0  0  0  0  0  0  0  0
    7.7057  -14.3063   26.8270 C   0  0  0  0  0  0  0  0  0  0  0  0
    7.8331  -13.5391   27.9702 C   0  0  0  0  0  0  0  0  0  0  0  0
    7.4799  -12.2260   27.9684 C   0  0  0  0  0  0  0  0  0  0  0  0
    6.9959  -11.6711   26.8201 C   0  0  0  0  0  0  0  0  0  0  0  0
    6.8745  -12.4428   25.6935 C   0  0  0  0  0  0  0  0  0  0  0  0
    9.2330  -15.9559   24.5349 C   0  0  0  0  0  0  0  0  0  0  0  0
    8.8464  -17.1892   24.4870 O   0  0  0  0  0  0  0  0  0  0  0  0
   12.8289  -16.3281   24.4649 O   0  0  0  0  0  0  0  0  0  0  0  0
   12.6206  -16.6534   25.8244 C   0  0  0  0  0  0  0  0  0  0  0  0
   11.1045  -16.8256   25.9450 C   0  0  2  0  0  0  0  0  0  0  0  0
   10.4107  -15.7451   25.2945 N   0  0  0  0  0  0  0  0  0  0  0  0
   10.8032  -16.9491   27.3652 C   0  0  0  0  0  0  0  0  0  0  0  0
   11.3871  -17.9090   28.1460 O   0  0  0  0  0  0  0  0  0  0  0  0
    9.9853  -16.1528   27.8830 O   0  0  0  0  0  0  0  0  0  0  0  0
  2  1  1  0
  3  2  2  0
  4  2  1  0
  5  4  1  0
  6  8  1  0
  6  5  1  0
  6  7  1  1
  8 10  1  0
  9  8  2  0
 10 11  1  0
 11 12  1  1
 12 13  1  0
 13 18  2  0
 14 15  2  0
 14 13  1  0
 15 16  1  0
 16 17  2  0
 18 17  1  0
 19 20  2  0
 19 11  1  0
 21 22  1  0
 23 22  1  1
 23 25  1  0
 23 24  1  0
 24 19  1  0
 25 26  1  0
 27 25  2  0
M  END
$$$$
