QFS.pdb
     RDKit          3D

 27 27  0  0  1  0  0  0  0  0999 V2000
   10.7369  -17.2565   16.5286 N   0  0  0  0  0  0  0  0  0  0  0  0
   10.7721  -18.3079   17.5074 C   0  0  0  0  0  0  0  0  0  0  0  0
   10.3811  -19.4183   17.1254 O   0  0  0  0  0  0  0  0  0  0  0  0
   11.2708  -17.9370   18.8395 C   0  0  0  0  0  0  0  0  0  0  0  0
   10.3529  -17.0878   19.6423 C   0  0  0  0  0  0  0  0  0  0  0  0
   10.0138  -17.5959   20.9952 C   0  0  2  0  0  0  0  0  0  0  0  0
    8.8112  -18.3681   21.1145 N   0  0  0  0  0  0  0  0  0  0  0  0
   10.0040  -16.5112   22.0181 C   0  0  0  0  0  0  0  0  0  0  0  0
   10.9682  -15.7056   22.1458 O   0  0  0  0  0  0  0  0  0  0  0  0
    8.9224  -16.3336   22.8888 N   0  0  0  0  0  0  0  0  0  0  0  0
    8.8225  -15.2572   23.8730 C   0  0  1  0  0  0  0  0  0  0  0  0
    7.4585  -14.7282   23.9904 C   0  0  0  0  0  0  0  0  0  0  0  0
    7.2500  -13.7237   25.0307 C   0  0  0  0  0  0  0  0  0  0  0  0
    6.4765  -14.0665   26.1530 C   0  0  0  0  0  0  0  0  0  0  0  0
    6.2714  -13.1862   27.1993 C   0  0  0  0  0  0  0  0  0  0  0  0
    6.8190  -11.9418   27.1775 C   0  0  0  0  0  0  0  0  0  0  0  0
    7.5770  -11.5696   26.1062 C   0  0  0  0  0  0  0  0  0  0  0  0
    7.7726  -12.4519   25.0754 C   0  0  0  0  0  0  0  0  0  0  0  0
    9.3530  -15.8325   25.1105 C   0  0  0  0  0  0  0  0  0  0  0  0
    9.0046  -17.0382   25.4228 O   0  0  0  0  0  0  0  0  0  0  0  0
   12.4792  -16.0269   28.7598 O   0  0  0  0  0  0  0  0  0  0  0  0
   11.9511  -15.1548   27.7809 C   0  0  0  0  0  0  0  0  0  0  0  0
   10.8211  -15.9559   27.1297 C   0  0  2  0  0  0  0  0  0  0  0  0
   10.2336  -15.2231   26.0388 N   0  0  0  0  0  0  0  0  0  0  0  0
    9.8779  -16.2957   28.1870 C   0  0  0  0  0  0  0  0  0  0  0  0
   10.1128  -17.3215   29.0613 O   0  0  0  0  0  0  0  0  0  0  0  0
    8.8225  -15.6282   28.2955 O   0  0  0  0  0  0  0  0  0  0  0  0
  2  1  1  0
  3  2  2  0
  4  2  1  0
  5  4  1  0
  6  8  1  0
  6  5  1  0
  6  7  1  6
  8 10  1  0
  9  8  2  0
 10 11  1  0
 11 12  1  1
 12 13  1  0
 13 18  2  0
 14 15  2  0
 14 13  1  0
 15 16  1  0
 16 17  2  0
 18 17  1  0
 19 20  2  0
 19 11  1  0
 21 22  1  0
 23 22  1  1
 23 25  1  0
 23 24  1  0
 24 19  1  0
 25 26  1  0
 27 25  2  0
M  END
$$$$
