QFS.pdb
     RDKit          3D

 27 27  0  0  1  0  0  0  0  0999 V2000
    9.1652  -17.9403   16.4586 N   0  0  0  0  0  0  0  0  0  0  0  0
    9.8478  -18.2361   17.6879 C   0  0  0  0  0  0  0  0  0  0  0  0
    9.4227  -19.2088   18.3242 O   0  0  0  0  0  0  0  0  0  0  0  0
   10.9680  -17.3505   18.0367 C   0  0  0  0  0  0  0  0  0  0  0  0
   10.7243  -16.4527   19.1956 C   0  0  0  0  0  0  0  0  0  0  0  0
    9.8533  -16.9967   20.2674 C   0  0  2  0  0  0  0  0  0  0  0  0
    8.4877  -17.2628   19.9196 N   0  0  0  0  0  0  0  0  0  0  0  0
    9.8915  -16.1619   21.5023 C   0  0  0  0  0  0  0  0  0  0  0  0
   10.9653  -15.6543   21.9316 O   0  0  0  0  0  0  0  0  0  0  0  0
    8.7356  -15.9006   22.2472 N   0  0  0  0  0  0  0  0  0  0  0  0
    8.6920  -15.0434   23.4306 C   0  0  1  0  0  0  0  0  0  0  0  0
    7.3973  -14.3704   23.5893 C   0  0  0  0  0  0  0  0  0  0  0  0
    7.2021  -13.6481   24.8442 C   0  0  0  0  0  0  0  0  0  0  0  0
    7.8429  -12.4089   25.0151 C   0  0  0  0  0  0  0  0  0  0  0  0
    7.6716  -11.6454   26.1551 C   0  0  0  0  0  0  0  0  0  0  0  0
    6.8661  -12.0738   27.1633 C   0  0  0  0  0  0  0  0  0  0  0  0
    6.2254  -13.2714   27.0369 C   0  0  0  0  0  0  0  0  0  0  0  0
    6.4037  -14.0187   25.9015 C   0  0  0  0  0  0  0  0  0  0  0  0
    9.0522  -15.9243   24.5432 C   0  0  0  0  0  0  0  0  0  0  0  0
    8.4134  -17.0417   24.6700 O   0  0  0  0  0  0  0  0  0  0  0  0
   12.3754  -17.9740   27.1243 O   0  0  0  0  0  0  0  0  0  0  0  0
   12.0597  -16.8560   26.3194 C   0  0  0  0  0  0  0  0  0  0  0  0
   10.5324  -16.7710   26.3707 C   0  0  2  0  0  0  0  0  0  0  0  0
   10.0477  -15.7089   25.5287 N   0  0  0  0  0  0  0  0  0  0  0  0
   10.1623  -16.6272   27.7726 C   0  0  0  0  0  0  0  0  0  0  0  0
   10.4828  -17.5762   28.7046 O   0  0  0  0  0  0  0  0  0  0  0  0
    9.5321  -15.6049   28.1316 O   0  0  0  0  0  0  0  0  0  0  0  0
  2  1  1  0
  3  2  2  0
  4  2  1  0
  5  4  1  0
  6  8  1  0
  6  5  1  0
  6  7  1  6
  8 10  1  0
  9  8  2  0
 10 11  1  0
 11 12  1  1
 12 13  1  0
 13 18  2  0
 14 15  2  0
 14 13  1  0
 15 16  1  0
 16 17  2  0
 18 17  1  0
 19 20  2  0
 19 11  1  0
 21 22  1  0
 23 22  1  1
 23 25  1  0
 23 24  1  0
 24 19  1  0
 25 26  1  0
 27 25  2  0
M  END
$$$$
