QFS.pdb
     RDKit          3D

 27 27  0  0  1  0  0  0  0  0999 V2000
    4.0724  -22.5728   21.4464 N   0  0  0  0  0  0  0  0  0  0  0  0
    3.2117  -21.8766   22.3624 C   0  0  0  0  0  0  0  0  0  0  0  0
    2.1828  -22.4752   22.7018 O   0  0  0  0  0  0  0  0  0  0  0  0
    3.6597  -20.5423   22.7863 C   0  0  0  0  0  0  0  0  0  0  0  0
    4.9486  -20.0939   22.1982 C   0  0  0  0  0  0  0  0  0  0  0  0
    6.0868  -19.9721   23.1433 C   0  0  2  0  0  0  0  0  0  0  0  0
    5.9034  -20.5267   24.4530 N   0  0  0  0  0  0  0  0  0  0  0  0
    6.5671  -18.5661   23.2685 C   0  0  0  0  0  0  0  0  0  0  0  0
    6.7979  -17.8472   22.2561 O   0  0  0  0  0  0  0  0  0  0  0  0
    6.7860  -17.9742   24.5179 N   0  0  0  0  0  0  0  0  0  0  0  0
    7.3039  -16.6208   24.7112 C   0  0  1  0  0  0  0  0  0  0  0  0
    6.7177  -15.9569   25.8815 C   0  0  0  0  0  0  0  0  0  0  0  0
    7.1067  -14.5637   26.0874 C   0  0  0  0  0  0  0  0  0  0  0  0
    6.3593  -13.5550   25.4556 C   0  0  0  0  0  0  0  0  0  0  0  0
    6.6374  -12.2128   25.6372 C   0  0  0  0  0  0  0  0  0  0  0  0
    7.6577  -11.8180   26.4448 C   0  0  0  0  0  0  0  0  0  0  0  0
    8.4077  -12.7659   27.0770 C   0  0  0  0  0  0  0  0  0  0  0  0
    8.1215  -14.0933   26.8884 C   0  0  0  0  0  0  0  0  0  0  0  0
    8.7575  -16.7833   24.7773 C   0  0  0  0  0  0  0  0  0  0  0  0
    9.2375  -17.6702   25.5871 O   0  0  0  0  0  0  0  0  0  0  0  0
   11.0581  -15.1429   22.1071 O   0  0  0  0  0  0  0  0  0  0  0  0
   11.7015  -16.3035   22.5935 C   0  0  0  0  0  0  0  0  0  0  0  0
   11.1142  -16.5044   23.9926 C   0  0  2  0  0  0  0  0  0  0  0  0
    9.7405  -16.0770   24.0400 N   0  0  0  0  0  0  0  0  0  0  0  0
   11.9839  -15.7971   24.9234 C   0  0  0  0  0  0  0  0  0  0  0  0
   13.3127  -16.1004   25.0420 O   0  0  0  0  0  0  0  0  0  0  0  0
   11.4979  -14.8863   25.6344 O   0  0  0  0  0  0  0  0  0  0  0  0
  2  1  1  0
  3  2  2  0
  4  2  1  0
  5  4  1  0
  6  8  1  0
  6  5  1  0
  6  7  1  1
  8 10  1  0
  9  8  2  0
 10 11  1  0
 11 12  1  1
 12 13  1  0
 13 18  2  0
 14 15  2  0
 14 13  1  0
 15 16  1  0
 16 17  2  0
 18 17  1  0
 19 20  2  0
 19 11  1  0
 21 22  1  0
 23 22  1  6
 23 25  1  0
 23 24  1  0
 24 19  1  0
 25 26  1  0
 27 25  2  0
M  END
$$$$
