QFS.pdb
     RDKit          3D

 27 27  0  0  1  0  0  0  0  0999 V2000
    8.7944  -21.3057   22.2392 N   0  0  0  0  0  0  0  0  0  0  0  0
    8.9659  -21.3491   20.8133 C   0  0  0  0  0  0  0  0  0  0  0  0
    8.7401  -22.4393   20.2725 O   0  0  0  0  0  0  0  0  0  0  0  0
    9.3845  -20.0944   20.1721 C   0  0  0  0  0  0  0  0  0  0  0  0
    9.5852  -18.9497   21.0983 C   0  0  0  0  0  0  0  0  0  0  0  0
    9.1017  -17.6315   20.6167 C   0  0  2  0  0  0  0  0  0  0  0  0
    9.6339  -17.1621   19.3705 N   0  0  0  0  0  0  0  0  0  0  0  0
    9.2529  -16.5650   21.6477 C   0  0  0  0  0  0  0  0  0  0  0  0
   10.3346  -15.9304   21.7976 O   0  0  0  0  0  0  0  0  0  0  0  0
    8.2003  -16.2153   22.5014 N   0  0  0  0  0  0  0  0  0  0  0  0
    8.3077  -15.2473   23.5916 C   0  0  1  0  0  0  0  0  0  0  0  0
    7.0283  -14.5931   23.8901 C   0  0  0  0  0  0  0  0  0  0  0  0
    7.0285  -13.6792   25.0301 C   0  0  0  0  0  0  0  0  0  0  0  0
    6.5838  -14.1553   26.2755 C   0  0  0  0  0  0  0  0  0  0  0  0
    6.5962  -13.3652   27.4100 C   0  0  0  0  0  0  0  0  0  0  0  0
    7.0456  -12.0829   27.3585 C   0  0  0  0  0  0  0  0  0  0  0  0
    7.4863  -11.5820   26.1686 C   0  0  0  0  0  0  0  0  0  0  0  0
    7.4687  -12.3760   25.0512 C   0  0  0  0  0  0  0  0  0  0  0  0
    8.8707  -16.0058   24.7103 C   0  0  0  0  0  0  0  0  0  0  0  0
    8.3883  -17.1802   24.9570 O   0  0  0  0  0  0  0  0  0  0  0  0
   12.6546  -17.1623   27.2829 O   0  0  0  0  0  0  0  0  0  0  0  0
   12.0403  -16.7134   26.0919 C   0  0  0  0  0  0  0  0  0  0  0  0
   10.5661  -16.5431   26.4666 C   0  0  2  0  0  0  0  0  0  0  0  0
    9.9151  -15.6114   25.5833 N   0  0  0  0  0  0  0  0  0  0  0  0
   10.5274  -16.1509   27.8693 C   0  0  0  0  0  0  0  0  0  0  0  0
   11.0568  -16.9395   28.8541 O   0  0  0  0  0  0  0  0  0  0  0  0
    9.9930  -15.0602   28.1793 O   0  0  0  0  0  0  0  0  0  0  0  0
  2  1  1  0
  3  2  2  0
  4  2  1  0
  5  4  1  0
  6  8  1  0
  6  5  1  0
  6  7  1  6
  8 10  1  0
  9  8  2  0
 10 11  1  0
 11 12  1  1
 12 13  1  0
 13 18  2  0
 14 15  2  0
 14 13  1  0
 15 16  1  0
 16 17  2  0
 18 17  1  0
 19 20  2  0
 19 11  1  0
 21 22  1  0
 23 22  1  6
 23 25  1  0
 23 24  1  0
 24 19  1  0
 25 26  1  0
 27 25  2  0
M  END
$$$$
