WLN.pdb
     RDKit          3D

 31 32  0  0  1  0  0  0  0  0999 V2000
   27.8294  -24.7130  -17.3256 N   0  0  0  0  0  0  0  0  0  0  0  0
   26.5578  -24.1156  -17.6883 C   0  0  1  0  0  0  0  0  0  0  0  0
   25.5517  -25.2465  -17.7181 C   0  0  0  0  0  0  0  0  0  0  0  0
   25.6077  -25.8554  -19.0816 C   0  0  0  0  0  0  0  0  0  0  0  0
   26.3577  -26.9523  -19.4975 C   0  0  0  0  0  0  0  0  0  0  0  0
   26.1153  -27.1642  -20.7966 N   0  0  0  0  0  0  0  0  0  0  0  0
   25.2400  -26.2604  -21.2642 C   0  0  0  0  0  0  0  0  0  0  0  0
   24.6567  -26.0219  -22.4962 C   0  0  0  0  0  0  0  0  0  0  0  0
   23.7611  -24.9986  -22.7243 C   0  0  0  0  0  0  0  0  0  0  0  0
   23.4426  -24.1802  -21.6547 C   0  0  0  0  0  0  0  0  0  0  0  0
   24.0201  -24.4064  -20.4101 C   0  0  0  0  0  0  0  0  0  0  0  0
   24.9185  -25.4397  -20.1989 C   0  0  0  0  0  0  0  0  0  0  0  0
   26.1856  -23.0871  -16.6770 C   0  0  0  0  0  0  0  0  0  0  0  0
   26.3805  -23.3265  -15.4477 O   0  0  0  0  0  0  0  0  0  0  0  0
   27.4643  -17.9062  -17.0320 C   0  0  0  0  0  0  0  0  0  0  0  0
   27.3057  -19.3585  -16.4733 C   0  0  1  0  0  0  0  0  0  0  0  0
   27.9796  -19.2368  -15.0982 C   0  0  0  0  0  0  0  0  0  0  0  0
   25.8493  -19.5597  -16.4023 C   0  0  0  0  0  0  0  0  0  0  0  0
   25.2602  -20.8344  -15.9802 C   0  0  2  0  0  0  0  0  0  0  0  0
   25.6174  -21.8384  -17.0243 N   0  0  0  0  0  0  0  0  0  0  0  0
   23.8548  -20.9247  -15.6468 C   0  0  0  0  0  0  0  0  0  0  0  0
   22.9840  -20.9711  -16.5361 O   0  0  0  0  0  0  0  0  0  0  0  0
   19.7370  -22.8082  -12.0983 N   0  0  0  0  0  0  0  0  0  0  0  0
   20.2900  -21.5233  -12.2846 C   0  0  0  0  0  0  0  0  0  0  0  0
   19.5471  -20.5231  -12.2069 O   0  0  0  0  0  0  0  0  0  0  0  0
   21.7146  -21.3661  -12.5645 C   0  0  0  0  0  0  0  0  0  0  0  0
   22.0058  -21.0787  -14.0207 C   0  0  2  0  0  0  0  0  0  0  0  0
   23.3975  -20.9652  -14.3018 N   0  0  0  0  0  0  0  0  0  0  0  0
   21.2557  -19.8523  -14.3949 C   0  0  0  0  0  0  0  0  0  0  0  0
   20.0709  -19.8954  -15.1137 O   0  0  0  0  0  0  0  0  0  0  0  0
   21.6845  -18.7177  -14.0623 O   0  0  0  0  0  0  0  0  0  0  0  0
  2 13  1  0
  2  1  1  1
  2  3  1  0
  3  4  1  0
  4 12  1  0
  4  5  2  0
  5  6  1  0
  6  7  1  0
  7  8  2  0
  9  8  1  0
 10  9  2  0
 11 12  2  0
 11 10  1  0
 12  7  1  0
 13 20  1  0
 14 13  2  0
 16 15  1  6
 17 16  1  0
 18 16  1  0
 19 18  1  6
 20 19  1  0
 21 19  1  0
 22 21  2  0
 23 24  1  0
 24 25  2  0
 24 26  1  0
 27 26  1  1
 27 29  1  0
 27 28  1  0
 28 21  1  0
 29 30  1  0
 31 29  2  0
M  END
$$$$
