WLN.pdb
     RDKit          3D

 31 32  0  0  1  0  0  0  0  0999 V2000
   26.4040  -20.0891  -17.1084 N   0  0  0  0  0  0  0  0  0  0  0  0
   25.7604  -19.4880  -15.9553 C   0  0  1  0  0  0  0  0  0  0  0  0
   24.6421  -18.6233  -16.4972 C   0  0  0  0  0  0  0  0  0  0  0  0
   25.2700  -17.4015  -17.0853 C   0  0  0  0  0  0  0  0  0  0  0  0
   25.3865  -17.0640  -18.4311 C   0  0  0  0  0  0  0  0  0  0  0  0
   26.0154  -15.8860  -18.5203 N   0  0  0  0  0  0  0  0  0  0  0  0
   26.3227  -15.4242  -17.2980 C   0  0  0  0  0  0  0  0  0  0  0  0
   26.9554  -14.2900  -16.8202 C   0  0  0  0  0  0  0  0  0  0  0  0
   27.1531  -14.0423  -15.4783 C   0  0  0  0  0  0  0  0  0  0  0  0
   26.6883  -14.9872  -14.5803 C   0  0  0  0  0  0  0  0  0  0  0  0
   26.0505  -16.1325  -15.0443 C   0  0  0  0  0  0  0  0  0  0  0  0
   25.8603  -16.3654  -16.3967 C   0  0  0  0  0  0  0  0  0  0  0  0
   25.2326  -20.5601  -15.0658 C   0  0  0  0  0  0  0  0  0  0  0  0
   25.0051  -21.7101  -15.5477 O   0  0  0  0  0  0  0  0  0  0  0  0
   26.2099  -20.3105   -9.7329 C   0  0  0  0  0  0  0  0  0  0  0  0
   26.1715  -20.4031  -11.2938 C   0  0  1  0  0  0  0  0  0  0  0  0
   27.5954  -20.8845  -11.6108 C   0  0  0  0  0  0  0  0  0  0  0  0
   25.1324  -21.4086  -11.5691 C   0  0  0  0  0  0  0  0  0  0  0  0
   24.4052  -21.4467  -12.8419 C   0  0  2  0  0  0  0  0  0  0  0  0
   24.9687  -20.3566  -13.6904 N   0  0  0  0  0  0  0  0  0  0  0  0
   22.9585  -21.4159  -12.8679 C   0  0  0  0  0  0  0  0  0  0  0  0
   22.2856  -22.2894  -12.2887 O   0  0  0  0  0  0  0  0  0  0  0  0
   20.7701  -18.5363  -10.9333 N   0  0  0  0  0  0  0  0  0  0  0  0
   19.8871  -19.2576  -11.7649 C   0  0  0  0  0  0  0  0  0  0  0  0
   18.9366  -19.8810  -11.2489 O   0  0  0  0  0  0  0  0  0  0  0  0
   20.0832  -19.2739  -13.2119 C   0  0  0  0  0  0  0  0  0  0  0  0
   20.8229  -20.5007  -13.6974 C   0  0  2  0  0  0  0  0  0  0  0  0
   22.2356  -20.3986  -13.5479 N   0  0  0  0  0  0  0  0  0  0  0  0
   20.4234  -20.7365  -15.1086 C   0  0  0  0  0  0  0  0  0  0  0  0
   21.3422  -20.7671  -16.1465 O   0  0  0  0  0  0  0  0  0  0  0  0
   19.2150  -20.9187  -15.4059 O   0  0  0  0  0  0  0  0  0  0  0  0
  2 13  1  0
  2  1  1  6
  2  3  1  0
  3  4  1  0
  4 12  1  0
  4  5  2  0
  5  6  1  0
  6  7  1  0
  7  8  2  0
  9  8  1  0
 10  9  2  0
 11 12  2  0
 11 10  1  0
 12  7  1  0
 13 20  1  0
 14 13  2  0
 16 15  1  1
 17 16  1  0
 18 16  1  0
 19 18  1  1
 20 19  1  0
 21 19  1  0
 22 21  2  0
 23 24  1  0
 24 25  2  0
 24 26  1  0
 27 26  1  6
 27 29  1  0
 27 28  1  0
 28 21  1  0
 29 30  1  0
 31 29  2  0
M  END
$$$$
