WLN.pdb
     RDKit          3D

 31 32  0  0  1  0  0  0  0  0999 V2000
   21.5024  -19.4758  -14.3643 N   0  0  0  0  0  0  0  0  0  0  0  0
   22.5469  -19.2492  -15.3455 C   0  0  1  0  0  0  0  0  0  0  0  0
   22.6645  -17.7477  -15.4998 C   0  0  0  0  0  0  0  0  0  0  0  0
   21.4316  -17.2748  -16.1992 C   0  0  0  0  0  0  0  0  0  0  0  0
   20.3994  -16.4977  -15.6801 C   0  0  0  0  0  0  0  0  0  0  0  0
   19.4896  -16.3030  -16.6422 N   0  0  0  0  0  0  0  0  0  0  0  0
   19.8676  -16.9137  -17.7761 C   0  0  0  0  0  0  0  0  0  0  0  0
   19.3210  -17.0343  -19.0417 C   0  0  0  0  0  0  0  0  0  0  0  0
   19.9249  -17.7366  -20.0631 C   0  0  0  0  0  0  0  0  0  0  0  0
   21.1378  -18.3441  -19.7889 C   0  0  0  0  0  0  0  0  0  0  0  0
   21.7004  -18.2326  -18.5221 C   0  0  0  0  0  0  0  0  0  0  0  0
   21.0795  -17.5227  -17.5072 C   0  0  0  0  0  0  0  0  0  0  0  0
   23.8229  -19.8446  -14.8595 C   0  0  0  0  0  0  0  0  0  0  0  0
   24.8932  -19.6293  -15.5036 O   0  0  0  0  0  0  0  0  0  0  0  0
   24.8676  -20.7963   -9.5862 C   0  0  0  0  0  0  0  0  0  0  0  0
   24.7942  -20.2583  -11.0531 C   0  0  1  0  0  0  0  0  0  0  0  0
   25.8102  -19.1069  -11.0120 C   0  0  0  0  0  0  0  0  0  0  0  0
   25.2261  -21.3990  -11.8768 C   0  0  0  0  0  0  0  0  0  0  0  0
   25.1585  -21.3703  -13.3413 C   0  0  2  0  0  0  0  0  0  0  0  0
   23.9019  -20.6498  -13.6984 N   0  0  0  0  0  0  0  0  0  0  0  0
   25.2825  -22.5896  -14.1110 C   0  0  0  0  0  0  0  0  0  0  0  0
   26.3745  -23.1805  -14.2091 O   0  0  0  0  0  0  0  0  0  0  0  0
   24.3897  -26.6398  -14.0101 N   0  0  0  0  0  0  0  0  0  0  0  0
   23.2111  -26.3869  -14.7439 C   0  0  0  0  0  0  0  0  0  0  0  0
   22.2449  -27.1696  -14.6336 O   0  0  0  0  0  0  0  0  0  0  0  0
   23.1231  -25.2229  -15.6214 C   0  0  0  0  0  0  0  0  0  0  0  0
   24.3558  -24.3477  -15.5728 C   0  0  2  0  0  0  0  0  0  0  0  0
   24.1775  -23.1721  -14.7887 N   0  0  0  0  0  0  0  0  0  0  0  0
   24.7400  -24.0354  -16.9733 C   0  0  0  0  0  0  0  0  0  0  0  0
   24.7965  -22.7373  -17.4572 O   0  0  0  0  0  0  0  0  0  0  0  0
   25.0308  -24.9600  -17.7747 O   0  0  0  0  0  0  0  0  0  0  0  0
  2 13  1  0
  2  1  1  1
  2  3  1  0
  3  4  1  0
  4 12  1  0
  4  5  2  0
  5  6  1  0
  6  7  1  0
  7  8  2  0
  9  8  1  0
 10  9  2  0
 11 12  2  0
 11 10  1  0
 12  7  1  0
 13 20  1  0
 14 13  2  0
 16 15  1  1
 17 16  1  0
 18 16  1  0
 19 18  1  1
 20 19  1  0
 21 19  1  0
 22 21  2  0
 23 24  1  0
 24 25  2  0
 24 26  1  0
 27 26  1  6
 27 29  1  0
 27 28  1  0
 28 21  1  0
 29 30  1  0
 31 29  2  0
M  END
$$$$
