WLN.pdb
     RDKit          3D

 31 32  0  0  1  0  0  0  0  0999 V2000
   27.3609  -20.5566  -16.6496 N   0  0  0  0  0  0  0  0  0  0  0  0
   27.1628  -19.8300  -15.4094 C   0  0  1  0  0  0  0  0  0  0  0  0
   26.4291  -18.5576  -15.7765 C   0  0  0  0  0  0  0  0  0  0  0  0
   27.2901  -17.8112  -16.7432 C   0  0  0  0  0  0  0  0  0  0  0  0
   26.8856  -17.0498  -17.8365 C   0  0  0  0  0  0  0  0  0  0  0  0
   27.9752  -16.5546  -18.4353 N   0  0  0  0  0  0  0  0  0  0  0  0
   29.0850  -16.9505  -17.7923 C   0  0  0  0  0  0  0  0  0  0  0  0
   30.4401  -16.7382  -17.9752 C   0  0  0  0  0  0  0  0  0  0  0  0
   31.4079  -17.2724  -17.1510 C   0  0  0  0  0  0  0  0  0  0  0  0
   30.9823  -18.0573  -16.0937 C   0  0  0  0  0  0  0  0  0  0  0  0
   29.6241  -18.2805  -15.8962 C   0  0  0  0  0  0  0  0  0  0  0  0
   28.6650  -17.7356  -16.7344 C   0  0  0  0  0  0  0  0  0  0  0  0
   26.3635  -20.6629  -14.4679 C   0  0  0  0  0  0  0  0  0  0  0  0
   25.5828  -21.5473  -14.9312 O   0  0  0  0  0  0  0  0  0  0  0  0
   24.7755  -21.0851   -8.8424 C   0  0  0  0  0  0  0  0  0  0  0  0
   25.7223  -20.2771   -9.7897 C   0  0  1  0  0  0  0  0  0  0  0  0
   26.8700  -19.9066   -8.8382 C   0  0  0  0  0  0  0  0  0  0  0  0
   26.1051  -21.2470  -10.8285 C   0  0  0  0  0  0  0  0  0  0  0  0
   25.4925  -21.2418  -12.1608 C   0  0  2  0  0  0  0  0  0  0  0  0
   26.4329  -20.5145  -13.0622 N   0  0  0  0  0  0  0  0  0  0  0  0
   24.1378  -20.7686  -12.3496 C   0  0  0  0  0  0  0  0  0  0  0  0
   23.8908  -19.5532  -12.4642 O   0  0  0  0  0  0  0  0  0  0  0  0
   21.9228  -22.3428  -16.1019 N   0  0  0  0  0  0  0  0  0  0  0  0
   21.5498  -21.3922  -15.1279 C   0  0  0  0  0  0  0  0  0  0  0  0
   21.6639  -20.1766  -15.3878 O   0  0  0  0  0  0  0  0  0  0  0  0
   21.0360  -21.8261  -13.8316 C   0  0  0  0  0  0  0  0  0  0  0  0
   21.7209  -21.1501  -12.6646 C   0  0  2  0  0  0  0  0  0  0  0  0
   23.0289  -21.6550  -12.4139 N   0  0  0  0  0  0  0  0  0  0  0  0
   20.8312  -21.2847  -11.4827 C   0  0  0  0  0  0  0  0  0  0  0  0
   19.5114  -20.8598  -11.4931 O   0  0  0  0  0  0  0  0  0  0  0  0
   21.2605  -21.7990  -10.4183 O   0  0  0  0  0  0  0  0  0  0  0  0
  2 13  1  0
  2  1  1  6
  2  3  1  0
  3  4  1  0
  4 12  1  0
  4  5  2  0
  5  6  1  0
  6  7  1  0
  7  8  2  0
  9  8  1  0
 10  9  2  0
 11 12  2  0
 11 10  1  0
 12  7  1  0
 13 20  1  0
 14 13  2  0
 16 15  1  1
 17 16  1  0
 18 16  1  0
 19 18  1  1
 20 19  1  0
 21 19  1  0
 22 21  2  0
 23 24  1  0
 24 25  2  0
 24 26  1  0
 27 26  1  6
 27 29  1  0
 27 28  1  0
 28 21  1  0
 29 30  1  0
 31 29  2  0
M  END
$$$$
