WLN.pdb
     RDKit          3D

 31 32  0  0  1  0  0  0  0  0999 V2000
   26.9764  -21.9137  -15.1784 N   0  0  0  0  0  0  0  0  0  0  0  0
   26.1515  -20.8828  -14.5766 C   0  0  1  0  0  0  0  0  0  0  0  0
   25.1429  -20.4784  -15.6307 C   0  0  0  0  0  0  0  0  0  0  0  0
   25.8883  -19.7544  -16.7045 C   0  0  0  0  0  0  0  0  0  0  0  0
   25.9938  -20.0953  -18.0504 C   0  0  0  0  0  0  0  0  0  0  0  0
   26.7535  -19.1788  -18.6621 N   0  0  0  0  0  0  0  0  0  0  0  0
   27.1583  -18.2449  -17.7871 C   0  0  0  0  0  0  0  0  0  0  0  0
   27.9377  -17.1049  -17.8762 C   0  0  0  0  0  0  0  0  0  0  0  0
   28.2130  -16.2902  -16.7984 C   0  0  0  0  0  0  0  0  0  0  0  0
   27.6737  -16.6476  -15.5750 C   0  0  0  0  0  0  0  0  0  0  0  0
   26.8884  -17.7903  -15.4686 C   0  0  0  0  0  0  0  0  0  0  0  0
   26.6219  -18.5977  -16.5625 C   0  0  0  0  0  0  0  0  0  0  0  0
   25.4783  -21.4293  -13.3653 C   0  0  0  0  0  0  0  0  0  0  0  0
   24.9725  -22.5907  -13.4072 O   0  0  0  0  0  0  0  0  0  0  0  0
   26.7892  -19.9423   -8.2455 C   0  0  0  0  0  0  0  0  0  0  0  0
   26.5865  -20.4616   -9.7069 C   0  0  1  0  0  0  0  0  0  0  0  0
   27.4660  -21.7210   -9.7130 C   0  0  0  0  0  0  0  0  0  0  0  0
   25.1449  -20.7466   -9.7908 C   0  0  0  0  0  0  0  0  0  0  0  0
   24.5115  -21.1921  -11.0360 C   0  0  2  0  0  0  0  0  0  0  0  0
   25.3736  -20.7069  -12.1528 N   0  0  0  0  0  0  0  0  0  0  0  0
   23.1196  -20.8994  -11.3031 C   0  0  0  0  0  0  0  0  0  0  0  0
   22.2472  -21.0692  -10.4305 O   0  0  0  0  0  0  0  0  0  0  0  0
   19.1562  -18.2393  -15.0212 N   0  0  0  0  0  0  0  0  0  0  0  0
   19.6582  -18.5251  -13.7336 C   0  0  0  0  0  0  0  0  0  0  0  0
   18.8792  -18.5077  -12.7582 O   0  0  0  0  0  0  0  0  0  0  0  0
   21.0721  -18.8379  -13.5450 C   0  0  0  0  0  0  0  0  0  0  0  0
   21.2994  -20.1197  -12.7747 C   0  0  2  0  0  0  0  0  0  0  0  0
   22.6778  -20.4078  -12.5613 N   0  0  0  0  0  0  0  0  0  0  0  0
   20.6042  -21.2110  -13.5042 C   0  0  0  0  0  0  0  0  0  0  0  0
   19.3046  -21.5932  -13.2083 O   0  0  0  0  0  0  0  0  0  0  0  0
   21.1882  -21.8307  -14.4297 O   0  0  0  0  0  0  0  0  0  0  0  0
  2 13  1  0
  2  1  1  6
  2  3  1  0
  3  4  1  0
  4 12  1  0
  4  5  2  0
  5  6  1  0
  6  7  1  0
  7  8  2  0
  9  8  1  0
 10  9  2  0
 11 12  2  0
 11 10  1  0
 12  7  1  0
 13 20  1  0
 14 13  2  0
 16 15  1  1
 17 16  1  0
 18 16  1  0
 19 18  1  1
 20 19  1  0
 21 19  1  0
 22 21  2  0
 23 24  1  0
 24 25  2  0
 24 26  1  0
 27 26  1  6
 27 29  1  0
 27 28  1  0
 28 21  1  0
 29 30  1  0
 31 29  2  0
M  END
$$$$
