WLN.pdb
     RDKit          3D

 31 32  0  0  1  0  0  0  0  0999 V2000
   22.6156  -18.0183  -13.8804 N   0  0  0  0  0  0  0  0  0  0  0  0
   23.2178  -18.4464  -15.1292 C   0  0  1  0  0  0  0  0  0  0  0  0
   23.7689  -17.1974  -15.7838 C   0  0  0  0  0  0  0  0  0  0  0  0
   22.6519  -16.2082  -15.8646 C   0  0  0  0  0  0  0  0  0  0  0  0
   21.2889  -16.4661  -15.9847 C   0  0  0  0  0  0  0  0  0  0  0  0
   20.6376  -15.2976  -16.0235 N   0  0  0  0  0  0  0  0  0  0  0  0
   21.5026  -14.2749  -15.9352 C   0  0  0  0  0  0  0  0  0  0  0  0
   21.3778  -12.8968  -15.9261 C   0  0  0  0  0  0  0  0  0  0  0  0
   22.4533  -12.0402  -15.8218 C   0  0  0  0  0  0  0  0  0  0  0  0
   23.7120  -12.6066  -15.7223 C   0  0  0  0  0  0  0  0  0  0  0  0
   23.8545  -13.9899  -15.7301 C   0  0  0  0  0  0  0  0  0  0  0  0
   22.7625  -14.8359  -15.8356 C   0  0  0  0  0  0  0  0  0  0  0  0
   24.2991  -19.4315  -14.8474 C   0  0  0  0  0  0  0  0  0  0  0  0
   24.9309  -19.9530  -15.8146 O   0  0  0  0  0  0  0  0  0  0  0  0
   25.5406  -22.2702  -10.3433 C   0  0  0  0  0  0  0  0  0  0  0  0
   25.2893  -20.7873  -10.7726 C   0  0  1  0  0  0  0  0  0  0  0  0
   25.6919  -20.0243   -9.5016 C   0  0  0  0  0  0  0  0  0  0  0  0
   26.2083  -20.5793  -11.9033 C   0  0  0  0  0  0  0  0  0  0  0  0
   25.7856  -20.7711  -13.2943 C   0  0  2  0  0  0  0  0  0  0  0  0
   24.6618  -19.8200  -13.5358 N   0  0  0  0  0  0  0  0  0  0  0  0
   25.4526  -22.0892  -13.7905 C   0  0  0  0  0  0  0  0  0  0  0  0
   26.2816  -23.0181  -13.7566 O   0  0  0  0  0  0  0  0  0  0  0  0
   23.8248  -27.0936  -14.6303 N   0  0  0  0  0  0  0  0  0  0  0  0
   23.2247  -25.9596  -14.0425 C   0  0  0  0  0  0  0  0  0  0  0  0
   22.0068  -25.9872  -13.7699 O   0  0  0  0  0  0  0  0  0  0  0  0
   24.0196  -24.7685  -13.7564 C   0  0  0  0  0  0  0  0  0  0  0  0
   23.8952  -23.7013  -14.8211 C   0  0  2  0  0  0  0  0  0  0  0  0
   24.1759  -22.3916  -14.3369 N   0  0  0  0  0  0  0  0  0  0  0  0
   22.5323  -23.8045  -15.4029 C   0  0  0  0  0  0  0  0  0  0  0  0
   22.1666  -24.8281  -16.2636 O   0  0  0  0  0  0  0  0  0  0  0  0
   21.6547  -22.9478  -15.1240 O   0  0  0  0  0  0  0  0  0  0  0  0
  2 13  1  0
  2  1  1  1
  2  3  1  0
  3  4  1  0
  4 12  1  0
  4  5  2  0
  5  6  1  0
  6  7  1  0
  7  8  2  0
  9  8  1  0
 10  9  2  0
 11 12  2  0
 11 10  1  0
 12  7  1  0
 13 20  1  0
 14 13  2  0
 16 15  1  1
 17 16  1  0
 18 16  1  0
 19 18  1  1
 20 19  1  0
 21 19  1  0
 22 21  2  0
 23 24  1  0
 24 25  2  0
 24 26  1  0
 27 26  1  1
 27 29  1  0
 27 28  1  0
 28 21  1  0
 29 30  1  0
 31 29  2  0
M  END
$$$$
