WLN.pdb
     RDKit          3D

 31 32  0  0  1  0  0  0  0  0999 V2000
   27.9909  -20.4889  -15.3416 N   0  0  0  0  0  0  0  0  0  0  0  0
   27.0268  -19.8380  -14.4744 C   0  0  1  0  0  0  0  0  0  0  0  0
   25.8331  -19.5039  -15.3436 C   0  0  0  0  0  0  0  0  0  0  0  0
   26.1898  -18.2921  -16.1419 C   0  0  0  0  0  0  0  0  0  0  0  0
   27.3855  -17.5788  -16.1245 C   0  0  0  0  0  0  0  0  0  0  0  0
   27.2862  -16.5629  -16.9901 N   0  0  0  0  0  0  0  0  0  0  0  0
   26.0815  -16.5665  -17.5821 C   0  0  0  0  0  0  0  0  0  0  0  0
   25.4633  -15.7687  -18.5287 C   0  0  0  0  0  0  0  0  0  0  0  0
   24.1809  -15.9903  -18.9843 C   0  0  0  0  0  0  0  0  0  0  0  0
   23.4944  -17.0696  -18.4561 C   0  0  0  0  0  0  0  0  0  0  0  0
   24.1014  -17.8811  -17.5039 C   0  0  0  0  0  0  0  0  0  0  0  0
   25.3913  -17.6436  -17.0573 C   0  0  0  0  0  0  0  0  0  0  0  0
   26.6492  -20.7624  -13.3690 C   0  0  0  0  0  0  0  0  0  0  0  0
   26.6216  -22.0108  -13.5862 O   0  0  0  0  0  0  0  0  0  0  0  0
   28.0395  -19.8335   -8.2560 C   0  0  0  0  0  0  0  0  0  0  0  0
   27.8401  -20.2695   -9.7449 C   0  0  1  0  0  0  0  0  0  0  0  0
   28.9698  -21.2954   -9.9212 C   0  0  0  0  0  0  0  0  0  0  0  0
   26.4934  -20.8630   -9.7687 C   0  0  0  0  0  0  0  0  0  0  0  0
   25.8401  -21.2587  -11.0205 C   0  0  2  0  0  0  0  0  0  0  0  0
   26.3150  -20.3108  -12.0701 N   0  0  0  0  0  0  0  0  0  0  0  0
   24.4028  -21.4138  -11.0872 C   0  0  0  0  0  0  0  0  0  0  0  0
   23.7980  -22.1568  -10.2914 O   0  0  0  0  0  0  0  0  0  0  0  0
   21.3828  -21.2789   -9.0664 N   0  0  0  0  0  0  0  0  0  0  0  0
   20.6919  -21.0167  -10.2686 C   0  0  0  0  0  0  0  0  0  0  0  0
   19.5341  -21.4599  -10.4151 O   0  0  0  0  0  0  0  0  0  0  0  0
   21.3242  -20.2359  -11.3284 C   0  0  0  0  0  0  0  0  0  0  0  0
   22.2351  -21.0601  -12.2109 C   0  0  2  0  0  0  0  0  0  0  0  0
   23.6126  -20.7341  -12.0534 N   0  0  0  0  0  0  0  0  0  0  0  0
   21.7750  -20.8910  -13.6131 C   0  0  0  0  0  0  0  0  0  0  0  0
   22.6009  -20.4003  -14.6129 O   0  0  0  0  0  0  0  0  0  0  0  0
   20.5986  -21.1951  -13.9380 O   0  0  0  0  0  0  0  0  0  0  0  0
  2 13  1  0
  2  1  1  6
  2  3  1  0
  3  4  1  0
  4 12  1  0
  4  5  2  0
  5  6  1  0
  6  7  1  0
  7  8  2  0
  9  8  1  0
 10  9  2  0
 11 12  2  0
 11 10  1  0
 12  7  1  0
 13 20  1  0
 14 13  2  0
 16 15  1  1
 17 16  1  0
 18 16  1  0
 19 18  1  1
 20 19  1  0
 21 19  1  0
 22 21  2  0
 23 24  1  0
 24 25  2  0
 24 26  1  0
 27 26  1  1
 27 29  1  0
 27 28  1  0
 28 21  1  0
 29 30  1  0
 31 29  2  0
M  END
$$$$
