WLN.pdb
     RDKit          3D

 31 32  0  0  1  0  0  0  0  0999 V2000
   15.9488  -15.8939    5.0436 N   0  0  0  0  0  0  0  0  0  0  0  0
   16.7615  -16.9179    5.6730 C   0  0  1  0  0  0  0  0  0  0  0  0
   17.1892  -17.8587    4.5667 C   0  0  0  0  0  0  0  0  0  0  0  0
   15.9744  -18.6099    4.1276 C   0  0  0  0  0  0  0  0  0  0  0  0
   14.6715  -18.1334    4.0085 C   0  0  0  0  0  0  0  0  0  0  0  0
   13.8906  -19.1342    3.5845 N   0  0  0  0  0  0  0  0  0  0  0  0
   14.6121  -20.2535    3.4162 C   0  0  0  0  0  0  0  0  0  0  0  0
   14.3210  -21.5429    3.0069 C   0  0  0  0  0  0  0  0  0  0  0  0
   15.2690  -22.5400    2.9151 C   0  0  0  0  0  0  0  0  0  0  0  0
   16.5709  -22.2149    3.2536 C   0  0  0  0  0  0  0  0  0  0  0  0
   16.8799  -20.9236    3.6669 C   0  0  0  0  0  0  0  0  0  0  0  0
   15.9144  -19.9338    3.7533 C   0  0  0  0  0  0  0  0  0  0  0  0
   17.9389  -16.2841    6.3294 C   0  0  0  0  0  0  0  0  0  0  0  0
   18.8657  -17.0190    6.7850 O   0  0  0  0  0  0  0  0  0  0  0  0
   18.7481  -10.9539    5.4268 C   0  0  0  0  0  0  0  0  0  0  0  0
   18.8055  -12.5145    5.3378 C   0  0  1  0  0  0  0  0  0  0  0  0
   19.7228  -12.7220    4.1232 C   0  0  0  0  0  0  0  0  0  0  0  0
   19.4122  -12.9257    6.6142 C   0  0  0  0  0  0  0  0  0  0  0  0
   19.2718  -14.2878    7.1386 C   0  0  2  0  0  0  0  0  0  0  0  0
   18.0771  -14.8829    6.4720 N   0  0  0  0  0  0  0  0  0  0  0  0
   19.2325  -14.5303    8.5649 C   0  0  0  0  0  0  0  0  0  0  0  0
   18.2653  -14.1565    9.2549 O   0  0  0  0  0  0  0  0  0  0  0  0
   18.8050  -17.7890   13.0017 N   0  0  0  0  0  0  0  0  0  0  0  0
   18.9158  -16.4770   12.4940 C   0  0  0  0  0  0  0  0  0  0  0  0
   18.9432  -15.5159   13.2902 O   0  0  0  0  0  0  0  0  0  0  0  0
   18.9980  -16.2468   11.0543 C   0  0  0  0  0  0  0  0  0  0  0  0
   20.1999  -15.4214   10.6521 C   0  0  2  0  0  0  0  0  0  0  0  0
   20.2833  -15.2008    9.2475 N   0  0  0  0  0  0  0  0  0  0  0  0
   21.4089  -16.0990   11.1867 C   0  0  0  0  0  0  0  0  0  0  0  0
   21.8862  -15.8672   12.4677 O   0  0  0  0  0  0  0  0  0  0  0  0
   22.0454  -16.9188   10.4764 O   0  0  0  0  0  0  0  0  0  0  0  0
  2 13  1  0
  2  1  1  6
  2  3  1  0
  3  4  1  0
  4 12  1  0
  4  5  2  0
  5  6  1  0
  6  7  1  0
  7  8  2  0
  9  8  1  0
 10  9  2  0
 11 12  2  0
 11 10  1  0
 12  7  1  0
 13 20  1  0
 14 13  2  0
 16 15  1  1
 17 16  1  0
 18 16  1  0
 19 18  1  1
 20 19  1  0
 21 19  1  0
 22 21  2  0
 23 24  1  0
 24 25  2  0
 24 26  1  0
 27 26  1  6
 27 29  1  0
 27 28  1  0
 28 21  1  0
 29 30  1  0
 31 29  2  0
M  END
$$$$
