WLN.pdb
     RDKit          3D

 31 32  0  0  1  0  0  0  0  0999 V2000
   25.6093  -20.5527  -14.1097 N   0  0  0  0  0  0  0  0  0  0  0  0
   24.8904  -20.0862  -12.9388 C   0  0  1  0  0  0  0  0  0  0  0  0
   23.4280  -20.3842  -13.1931 C   0  0  0  0  0  0  0  0  0  0  0  0
   22.9584  -19.4368  -14.2489 C   0  0  0  0  0  0  0  0  0  0  0  0
   22.4574  -18.1488  -14.0798 C   0  0  0  0  0  0  0  0  0  0  0  0
   22.1542  -17.6498  -15.2841 N   0  0  0  0  0  0  0  0  0  0  0  0
   22.4295  -18.5448  -16.2459 C   0  0  0  0  0  0  0  0  0  0  0  0
   22.3143  -18.5533  -17.6248 C   0  0  0  0  0  0  0  0  0  0  0  0
   22.6774  -19.6285  -18.4080 C   0  0  0  0  0  0  0  0  0  0  0  0
   23.1800  -20.7455  -17.7637 C   0  0  0  0  0  0  0  0  0  0  0  0
   23.3020  -20.7529  -16.3785 C   0  0  0  0  0  0  0  0  0  0  0  0
   22.9321  -19.6633  -15.6070 C   0  0  0  0  0  0  0  0  0  0  0  0
   25.3869  -20.8046  -11.7320 C   0  0  0  0  0  0  0  0  0  0  0  0
   25.5876  -22.0547  -11.7927 O   0  0  0  0  0  0  0  0  0  0  0  0
   27.6859  -20.0502   -6.3001 C   0  0  0  0  0  0  0  0  0  0  0  0
   26.7964  -19.3591   -7.3853 C   0  0  1  0  0  0  0  0  0  0  0  0
   27.3537  -17.9276   -7.3771 C   0  0  0  0  0  0  0  0  0  0  0  0
   27.0935  -20.1022   -8.6206 C   0  0  0  0  0  0  0  0  0  0  0  0
   26.0821  -20.9191   -9.2989 C   0  0  2  0  0  0  0  0  0  0  0  0
   25.6497  -20.1527  -10.5037 N   0  0  0  0  0  0  0  0  0  0  0  0
   24.9336  -21.4234   -8.5770 C   0  0  0  0  0  0  0  0  0  0  0  0
   25.0712  -22.1681   -7.5881 O   0  0  0  0  0  0  0  0  0  0  0  0
   20.6738  -22.0259   -5.8064 N   0  0  0  0  0  0  0  0  0  0  0  0
   20.5264  -21.0496   -6.8147 C   0  0  0  0  0  0  0  0  0  0  0  0
   19.3839  -20.6340   -7.0980 O   0  0  0  0  0  0  0  0  0  0  0  0
   21.6969  -20.5319   -7.5178 C   0  0  0  0  0  0  0  0  0  0  0  0
   22.5018  -21.6113   -8.2069 C   0  0  2  0  0  0  0  0  0  0  0  0
   23.6019  -21.0997   -8.9529 N   0  0  0  0  0  0  0  0  0  0  0  0
   21.5670  -22.3972   -9.0527 C   0  0  0  0  0  0  0  0  0  0  0  0
   20.6909  -23.3318   -8.5223 O   0  0  0  0  0  0  0  0  0  0  0  0
   21.5448  -22.2321  -10.2993 O   0  0  0  0  0  0  0  0  0  0  0  0
  2 13  1  0
  2  1  1  6
  2  3  1  0
  3  4  1  0
  4 12  1  0
  4  5  2  0
  5  6  1  0
  6  7  1  0
  7  8  2  0
  9  8  1  0
 10  9  2  0
 11 12  2  0
 11 10  1  0
 12  7  1  0
 13 20  1  0
 14 13  2  0
 16 15  1  1
 17 16  1  0
 18 16  1  0
 19 18  1  1
 20 19  1  0
 21 19  1  0
 22 21  2  0
 23 24  1  0
 24 25  2  0
 24 26  1  0
 27 26  1  6
 27 29  1  0
 27 28  1  0
 28 21  1  0
 29 30  1  0
 31 29  2  0
M  END
$$$$
