WLN.pdb
     RDKit          3D

 31 32  0  0  1  0  0  0  0  0999 V2000
   28.2304  -20.9545  -16.1054 N   0  0  0  0  0  0  0  0  0  0  0  0
   27.2737  -20.2392  -15.2818 C   0  0  1  0  0  0  0  0  0  0  0  0
   26.2841  -19.6049  -16.2359 C   0  0  0  0  0  0  0  0  0  0  0  0
   26.9749  -18.4541  -16.8927 C   0  0  0  0  0  0  0  0  0  0  0  0
   27.5143  -18.4002  -18.1752 C   0  0  0  0  0  0  0  0  0  0  0  0
   28.0400  -17.1840  -18.3638 N   0  0  0  0  0  0  0  0  0  0  0  0
   27.8760  -16.4266  -17.2678 C   0  0  0  0  0  0  0  0  0  0  0  0
   28.2160  -15.1299  -16.9248 C   0  0  0  0  0  0  0  0  0  0  0  0
   27.9257  -14.5705  -15.6984 C   0  0  0  0  0  0  0  0  0  0  0  0
   27.2605  -15.3617  -14.7782 C   0  0  0  0  0  0  0  0  0  0  0  0
   26.9118  -16.6670  -15.1073 C   0  0  0  0  0  0  0  0  0  0  0  0
   27.2115  -17.2131  -16.3448 C   0  0  0  0  0  0  0  0  0  0  0  0
   26.5994  -21.1950  -14.3595 C   0  0  0  0  0  0  0  0  0  0  0  0
   26.2306  -22.3255  -14.7985 O   0  0  0  0  0  0  0  0  0  0  0  0
   23.8450  -21.3133   -9.3465 C   0  0  0  0  0  0  0  0  0  0  0  0
   25.1833  -20.6773   -9.8474 C   0  0  1  0  0  0  0  0  0  0  0  0
   26.0098  -20.6352   -8.5531 C   0  0  0  0  0  0  0  0  0  0  0  0
   25.6888  -21.6386  -10.8407 C   0  0  0  0  0  0  0  0  0  0  0  0
   25.2661  -21.6010  -12.2443 C   0  0  2  0  0  0  0  0  0  0  0  0
   26.3461  -20.9007  -12.9987 N   0  0  0  0  0  0  0  0  0  0  0  0
   23.9674  -21.0782  -12.6114 C   0  0  0  0  0  0  0  0  0  0  0  0
   23.7729  -19.8524  -12.7149 O   0  0  0  0  0  0  0  0  0  0  0  0
   18.6424  -22.1214  -15.0182 N   0  0  0  0  0  0  0  0  0  0  0  0
   19.7797  -21.2926  -14.9132 C   0  0  0  0  0  0  0  0  0  0  0  0
   19.6637  -20.0686  -15.1290 O   0  0  0  0  0  0  0  0  0  0  0  0
   21.0767  -21.8606  -14.5558 C   0  0  0  0  0  0  0  0  0  0  0  0
   21.5950  -21.3666  -13.2234 C   0  0  2  0  0  0  0  0  0  0  0  0
   22.8565  -21.9257  -12.8709 N   0  0  0  0  0  0  0  0  0  0  0  0
   20.5518  -21.6476  -12.2039 C   0  0  0  0  0  0  0  0  0  0  0  0
   19.4675  -20.8083  -11.9983 O   0  0  0  0  0  0  0  0  0  0  0  0
   20.6257  -22.6767  -11.4847 O   0  0  0  0  0  0  0  0  0  0  0  0
  2 13  1  0
  2  1  1  6
  2  3  1  0
  3  4  1  0
  4 12  1  0
  4  5  2  0
  5  6  1  0
  6  7  1  0
  7  8  2  0
  9  8  1  0
 10  9  2  0
 11 12  2  0
 11 10  1  0
 12  7  1  0
 13 20  1  0
 14 13  2  0
 16 15  1  1
 17 16  1  0
 18 16  1  0
 19 18  1  1
 20 19  1  0
 21 19  1  0
 22 21  2  0
 23 24  1  0
 24 25  2  0
 24 26  1  0
 27 26  1  6
 27 29  1  0
 27 28  1  0
 28 21  1  0
 29 30  1  0
 31 29  2  0
M  END
$$$$
