WLN.pdb
     RDKit          3D

 31 32  0  0  1  0  0  0  0  0999 V2000
   26.1336  -20.9423  -13.4785 N   0  0  0  0  0  0  0  0  0  0  0  0
   25.1293  -20.5726  -12.4987 C   0  0  1  0  0  0  0  0  0  0  0  0
   23.8597  -21.2926  -12.9010 C   0  0  0  0  0  0  0  0  0  0  0  0
   23.3962  -20.6908  -14.1878 C   0  0  0  0  0  0  0  0  0  0  0  0
   23.8107  -21.0090  -15.4784 C   0  0  0  0  0  0  0  0  0  0  0  0
   23.1448  -20.2328  -16.3417 N   0  0  0  0  0  0  0  0  0  0  0  0
   22.3073  -19.4134  -15.6866 C   0  0  0  0  0  0  0  0  0  0  0  0
   21.4077  -18.4353  -16.0723 C   0  0  0  0  0  0  0  0  0  0  0  0
   20.6437  -17.7149  -15.1786 C   0  0  0  0  0  0  0  0  0  0  0  0
   20.7989  -17.9993  -13.8331 C   0  0  0  0  0  0  0  0  0  0  0  0
   21.6989  -18.9794  -13.4291 C   0  0  0  0  0  0  0  0  0  0  0  0
   22.4588  -19.6937  -14.3411 C   0  0  0  0  0  0  0  0  0  0  0  0
   25.5812  -20.9901  -11.1421 C   0  0  0  0  0  0  0  0  0  0  0  0
   25.7577  -22.2214  -10.8985 O   0  0  0  0  0  0  0  0  0  0  0  0
   28.2453  -20.7197   -6.3965 C   0  0  0  0  0  0  0  0  0  0  0  0
   27.0825  -19.6846   -6.5493 C   0  0  1  0  0  0  0  0  0  0  0  0
   27.7217  -18.4130   -5.9711 C   0  0  0  0  0  0  0  0  0  0  0  0
   26.8464  -19.6204   -8.0007 C   0  0  0  0  0  0  0  0  0  0  0  0
   25.8989  -20.5138   -8.6745 C   0  0  2  0  0  0  0  0  0  0  0  0
   25.8269  -20.0685  -10.0966 N   0  0  0  0  0  0  0  0  0  0  0  0
   24.5708  -20.7226   -8.1387 C   0  0  0  0  0  0  0  0  0  0  0  0
   23.6461  -19.9242   -8.3810 O   0  0  0  0  0  0  0  0  0  0  0  0
   20.6182  -24.9026   -6.0413 N   0  0  0  0  0  0  0  0  0  0  0  0
   21.0893  -23.6203   -6.3955 C   0  0  0  0  0  0  0  0  0  0  0  0
   20.3275  -22.6381   -6.2807 O   0  0  0  0  0  0  0  0  0  0  0  0
   22.4522  -23.4451   -6.8900 C   0  0  0  0  0  0  0  0  0  0  0  0
   22.9285  -22.0110   -6.8236 C   0  0  2  0  0  0  0  0  0  0  0  0
   24.2535  -21.8375   -7.3165 N   0  0  0  0  0  0  0  0  0  0  0  0
   22.7890  -21.5565   -5.4163 C   0  0  0  0  0  0  0  0  0  0  0  0
   23.8801  -21.2030   -4.6373 O   0  0  0  0  0  0  0  0  0  0  0  0
   21.6530  -21.4783   -4.8824 O   0  0  0  0  0  0  0  0  0  0  0  0
  2 13  1  0
  2  1  1  6
  2  3  1  0
  3  4  1  0
  4 12  1  0
  4  5  2  0
  5  6  1  0
  6  7  1  0
  7  8  2  0
  9  8  1  0
 10  9  2  0
 11 12  2  0
 11 10  1  0
 12  7  1  0
 13 20  1  0
 14 13  2  0
 16 15  1  6
 17 16  1  0
 18 16  1  0
 19 18  1  1
 20 19  1  0
 21 19  1  0
 22 21  2  0
 23 24  1  0
 24 25  2  0
 24 26  1  0
 27 26  1  1
 27 29  1  0
 27 28  1  0
 28 21  1  0
 29 30  1  0
 31 29  2  0
M  END
$$$$
