WLN.pdb
     RDKit          3D

 31 32  0  0  1  0  0  0  0  0999 V2000
   28.6724  -24.4137    9.8144 N   0  0  0  0  0  0  0  0  0  0  0  0
   29.7971  -23.8747   10.5558 C   0  0  1  0  0  0  0  0  0  0  0  0
   29.9395  -24.7346   11.7938 C   0  0  0  0  0  0  0  0  0  0  0  0
   28.9040  -24.2815   12.7711 C   0  0  0  0  0  0  0  0  0  0  0  0
   27.9337  -23.2987   12.5941 C   0  0  0  0  0  0  0  0  0  0  0  0
   27.2116  -23.2080   13.7173 N   0  0  0  0  0  0  0  0  0  0  0  0
   27.6556  -24.0836   14.6327 C   0  0  0  0  0  0  0  0  0  0  0  0
   27.2863  -24.4048   15.9271 C   0  0  0  0  0  0  0  0  0  0  0  0
   27.9211  -25.3720   16.6773 C   0  0  0  0  0  0  0  0  0  0  0  0
   28.9781  -26.0438   16.0884 C   0  0  0  0  0  0  0  0  0  0  0  0
   29.3617  -25.7327   14.7885 C   0  0  0  0  0  0  0  0  0  0  0  0
   28.7123  -24.7576   14.0490 C   0  0  0  0  0  0  0  0  0  0  0  0
   31.0231  -23.9344    9.7118 C   0  0  0  0  0  0  0  0  0  0  0  0
   31.4114  -25.0531    9.2597 O   0  0  0  0  0  0  0  0  0  0  0  0
   32.4649  -20.6665    5.5526 C   0  0  0  0  0  0  0  0  0  0  0  0
   32.3129  -22.0437    6.2784 C   0  0  1  0  0  0  0  0  0  0  0  0
   33.0647  -22.9823    5.3225 C   0  0  0  0  0  0  0  0  0  0  0  0
   32.9918  -21.8469    7.5694 C   0  0  0  0  0  0  0  0  0  0  0  0
   33.0442  -22.8997    8.5887 C   0  0  2  0  0  0  0  0  0  0  0  0
   31.7871  -22.7890    9.3845 N   0  0  0  0  0  0  0  0  0  0  0  0
   34.1907  -23.0258    9.4630 C   0  0  0  0  0  0  0  0  0  0  0  0
   34.3020  -22.3212   10.4840 O   0  0  0  0  0  0  0  0  0  0  0  0
   38.2883  -26.5012   12.0323 N   0  0  0  0  0  0  0  0  0  0  0  0
   37.5534  -25.3160   11.8162 C   0  0  0  0  0  0  0  0  0  0  0  0
   37.8589  -24.2853   12.4509 O   0  0  0  0  0  0  0  0  0  0  0  0
   36.4489  -25.2959   10.8610 C   0  0  0  0  0  0  0  0  0  0  0  0
   36.3704  -24.0087   10.0705 C   0  0  2  0  0  0  0  0  0  0  0  0
   35.2394  -23.9500    9.2068 N   0  0  0  0  0  0  0  0  0  0  0  0
   37.6499  -23.8572    9.3312 C   0  0  0  0  0  0  0  0  0  0  0  0
   38.8331  -23.4979    9.9583 O   0  0  0  0  0  0  0  0  0  0  0  0
   37.6950  -24.0553    8.0901 O   0  0  0  0  0  0  0  0  0  0  0  0
  2 13  1  0
  2  1  1  6
  2  3  1  0
  3  4  1  0
  4 12  1  0
  4  5  2  0
  5  6  1  0
  6  7  1  0
  7  8  2  0
  9  8  1  0
 10  9  2  0
 11 12  2  0
 11 10  1  0
 12  7  1  0
 13 20  1  0
 14 13  2  0
 16 15  1  6
 17 16  1  0
 18 16  1  0
 19 18  1  1
 20 19  1  0
 21 19  1  0
 22 21  2  0
 23 24  1  0
 24 25  2  0
 24 26  1  0
 27 26  1  6
 27 29  1  0
 27 28  1  0
 28 21  1  0
 29 30  1  0
 31 29  2  0
M  END
$$$$
