WLN.pdb
     RDKit          3D

 31 32  0  0  1  0  0  0  0  0999 V2000
   27.2728  -21.0369  -15.1125 N   0  0  0  0  0  0  0  0  0  0  0  0
   26.0952  -20.6606  -14.3530 C   0  0  1  0  0  0  0  0  0  0  0  0
   24.9161  -21.2997  -15.0555 C   0  0  0  0  0  0  0  0  0  0  0  0
   24.7685  -20.6242  -16.3802 C   0  0  0  0  0  0  0  0  0  0  0  0
   25.3329  -20.9970  -17.5972 C   0  0  0  0  0  0  0  0  0  0  0  0
   24.9463  -20.1194  -18.5309 N   0  0  0  0  0  0  0  0  0  0  0  0
   24.1519  -19.1808  -17.9926 C   0  0  0  0  0  0  0  0  0  0  0  0
   23.4915  -18.0695  -18.4861 C   0  0  0  0  0  0  0  0  0  0  0  0
   22.7143  -17.2417  -17.7039 C   0  0  0  0  0  0  0  0  0  0  0  0
   22.6016  -17.5550  -16.3606 C   0  0  0  0  0  0  0  0  0  0  0  0
   23.2591  -18.6684  -15.8490 C   0  0  0  0  0  0  0  0  0  0  0  0
   24.0363  -19.4895  -16.6498 C   0  0  0  0  0  0  0  0  0  0  0  0
   26.2259  -21.1574  -12.9548 C   0  0  0  0  0  0  0  0  0  0  0  0
   26.4254  -22.3924  -12.7512 O   0  0  0  0  0  0  0  0  0  0  0  0
   27.7418  -21.0166   -7.6121 C   0  0  0  0  0  0  0  0  0  0  0  0
   26.4533  -20.2503   -8.0583 C   0  0  1  0  0  0  0  0  0  0  0  0
   26.5858  -18.9373   -7.2720 C   0  0  0  0  0  0  0  0  0  0  0  0
   26.6165  -20.0880   -9.5121 C   0  0  0  0  0  0  0  0  0  0  0  0
   25.8143  -20.8501  -10.4743 C   0  0  2  0  0  0  0  0  0  0  0  0
   26.1376  -20.3081  -11.8262 N   0  0  0  0  0  0  0  0  0  0  0  0
   24.3826  -20.9778  -10.3060 C   0  0  0  0  0  0  0  0  0  0  0  0
   23.8984  -21.4893   -9.2788 O   0  0  0  0  0  0  0  0  0  0  0  0
   21.2836  -18.5883  -14.1201 N   0  0  0  0  0  0  0  0  0  0  0  0
   21.4295  -19.7109  -13.2774 C   0  0  0  0  0  0  0  0  0  0  0  0
   21.6966  -20.8210  -13.7821 O   0  0  0  0  0  0  0  0  0  0  0  0
   21.2701  -19.5749  -11.8322 C   0  0  0  0  0  0  0  0  0  0  0  0
   22.0605  -20.5989  -11.0483 C   0  0  2  0  0  0  0  0  0  0  0  0
   23.4621  -20.5313  -11.2925 N   0  0  0  0  0  0  0  0  0  0  0  0
   21.4994  -21.9374  -11.3650 C   0  0  0  0  0  0  0  0  0  0  0  0
   22.2235  -22.9058  -12.0435 O   0  0  0  0  0  0  0  0  0  0  0  0
   20.3274  -22.2343  -11.0186 O   0  0  0  0  0  0  0  0  0  0  0  0
  2 13  1  0
  2  1  1  6
  2  3  1  0
  3  4  1  0
  4 12  1  0
  4  5  2  0
  5  6  1  0
  6  7  1  0
  7  8  2  0
  9  8  1  0
 10  9  2  0
 11 12  2  0
 11 10  1  0
 12  7  1  0
 13 20  1  0
 14 13  2  0
 16 15  1  1
 17 16  1  0
 18 16  1  0
 19 18  1  1
 20 19  1  0
 21 19  1  0
 22 21  2  0
 23 24  1  0
 24 25  2  0
 24 26  1  0
 27 26  1  6
 27 29  1  0
 27 28  1  0
 28 21  1  0
 29 30  1  0
 31 29  2  0
M  END
$$$$
