WVG.pdb
     RDKit          3D

 26 27  0  0  1  0  0  0  0  0999 V2000
    6.3166  -16.8125   25.0244 N   0  0  0  0  0  0  0  0  0  0  0  0
    6.9636  -15.7205   24.3283 C   0  0  1  0  0  0  0  0  0  0  0  0
    8.2816  -15.4688   25.0252 C   0  0  0  0  0  0  0  0  0  0  0  0
    8.0931  -14.6423   26.2416 C   0  0  0  0  0  0  0  0  0  0  0  0
    8.5894  -14.9559   27.4981 C   0  0  0  0  0  0  0  0  0  0  0  0
    8.2313  -13.9862   28.3726 N   0  0  0  0  0  0  0  0  0  0  0  0
    7.5162  -13.0437   27.7376 C   0  0  0  0  0  0  0  0  0  0  0  0
    6.9183  -11.8593   28.1564 C   0  0  0  0  0  0  0  0  0  0  0  0
    6.2487  -11.1122   27.2378 C   0  0  0  0  0  0  0  0  0  0  0  0
    6.1461  -11.4938   25.9082 C   0  0  0  0  0  0  0  0  0  0  0  0
    6.7434  -12.6676   25.5122 C   0  0  0  0  0  0  0  0  0  0  0  0
    7.4251  -13.4479   26.4009 C   0  0  0  0  0  0  0  0  0  0  0  0
    7.1421  -16.0931   22.9098 C   0  0  0  0  0  0  0  0  0  0  0  0
    6.7083  -17.1804   22.5203 O   0  0  0  0  0  0  0  0  0  0  0  0
    9.0865  -13.3886   20.2001 C   0  0  0  0  0  0  0  0  0  0  0  0
    7.8606  -14.1726   19.7573 C   0  0  2  0  0  0  0  0  0  0  0  0
    6.6874  -13.2499   20.0012 C   0  0  0  0  0  0  0  0  0  0  0  0
    7.8161  -15.4129   20.5696 C   0  0  2  0  0  0  0  0  0  0  0  0
    7.7886  -15.2555   21.9836 N   0  0  0  0  0  0  0  0  0  0  0  0
    9.0007  -16.2486   20.2257 C   0  0  0  0  0  0  0  0  0  0  0  0
    9.2218  -16.6541   19.0385 O   0  0  0  0  0  0  0  0  0  0  0  0
    9.9495  -16.6393   21.2044 N   0  0  0  0  0  0  0  0  0  0  0  0
   11.0990  -17.4317   20.8387 C   0  0  0  0  0  0  0  0  0  0  0  0
   12.2189  -16.6167   20.3630 C   0  0  0  0  0  0  0  0  0  0  0  0
   13.2728  -16.2819   21.1956 O   0  0  0  0  0  0  0  0  0  0  0  0
   12.2506  -16.1989   19.1797 O   0  0  0  0  0  0  0  0  0  0  0  0
  2 13  1  0
  2  1  1  1
  3  2  1  0
  4  3  1  0
  5  4  2  0
  6  7  1  0
  6  5  1  0
  7 12  2  0
  8  9  2  0
  8  7  1  0
  9 10  1  0
 10 11  2  0
 12  4  1  0
 12 11  1  0
 13 14  2  0
 16 15  1  1
 17 16  1  0
 18 16  1  0
 18 19  1  1
 19 13  1  0
 20 21  2  0
 20 18  1  0
 22 20  1  0
 23 22  1  0
 24 23  1  0
 25 24  1  0
 26 24  2  0
M  END
$$$$
