WVG.pdb
     RDKit          3D

 26 27  0  0  1  0  0  0  0  0999 V2000
    6.0205  -18.2661   24.4175 N   0  0  0  0  0  0  0  0  0  0  0  0
    6.5198  -16.9150   24.2719 C   0  0  1  0  0  0  0  0  0  0  0  0
    7.2093  -16.5547   25.5684 C   0  0  0  0  0  0  0  0  0  0  0  0
    6.7382  -15.2442   26.0774 C   0  0  0  0  0  0  0  0  0  0  0  0
    5.4728  -15.0012   26.5906 C   0  0  0  0  0  0  0  0  0  0  0  0
    5.3848  -13.7017   26.9602 N   0  0  0  0  0  0  0  0  0  0  0  0
    6.5473  -13.0784   26.7093 C   0  0  0  0  0  0  0  0  0  0  0  0
    6.9854  -11.7709   26.8940 C   0  0  0  0  0  0  0  0  0  0  0  0
    8.2560  -11.4557   26.5244 C   0  0  0  0  0  0  0  0  0  0  0  0
    9.1190  -12.3917   25.9738 C   0  0  0  0  0  0  0  0  0  0  0  0
    8.6687  -13.6794   25.7986 C   0  0  0  0  0  0  0  0  0  0  0  0
    7.4012  -14.0390   26.1556 C   0  0  0  0  0  0  0  0  0  0  0  0
    7.4383  -16.8638   23.1159 C   0  0  0  0  0  0  0  0  0  0  0  0
    8.2125  -17.8058   22.9279 O   0  0  0  0  0  0  0  0  0  0  0  0
    8.6864  -13.2264   21.0628 C   0  0  0  0  0  0  0  0  0  0  0  0
    8.1456  -14.4083   20.2730 C   0  0  2  0  0  0  0  0  0  0  0  0
    6.6920  -14.0822   20.0118 C   0  0  0  0  0  0  0  0  0  0  0  0
    8.3391  -15.6193   21.1076 C   0  0  2  0  0  0  0  0  0  0  0  0
    7.4651  -15.7811   22.2189 N   0  0  0  0  0  0  0  0  0  0  0  0
    9.7375  -15.6234   21.6215 C   0  0  0  0  0  0  0  0  0  0  0  0
   10.1478  -14.7715   22.4751 O   0  0  0  0  0  0  0  0  0  0  0  0
   10.6909  -16.5788   21.1870 N   0  0  0  0  0  0  0  0  0  0  0  0
   12.0552  -16.5210   21.6543 C   0  0  0  0  0  0  0  0  0  0  0  0
   13.0098  -16.2457   20.5784 C   0  0  0  0  0  0  0  0  0  0  0  0
   14.3569  -16.0616   20.8383 O   0  0  0  0  0  0  0  0  0  0  0  0
   12.6268  -16.1694   19.3854 O   0  0  0  0  0  0  0  0  0  0  0  0
  2 13  1  0
  2  1  1  1
  3  2  1  0
  4  3  1  0
  5  4  2  0
  6  7  1  0
  6  5  1  0
  7 12  2  0
  8  9  2  0
  8  7  1  0
  9 10  1  0
 10 11  2  0
 12  4  1  0
 12 11  1  0
 13 14  2  0
 16 15  1  1
 17 16  1  0
 18 16  1  0
 18 19  1  1
 19 13  1  0
 20 21  2  0
 20 18  1  0
 22 20  1  0
 23 22  1  0
 24 23  1  0
 25 24  1  0
 26 24  2  0
M  END
$$$$
