WVG.pdb
     RDKit          3D

 26 27  0  0  1  0  0  0  0  0999 V2000
    6.7891  -17.4981   25.2146 N   0  0  0  0  0  0  0  0  0  0  0  0
    7.1887  -16.2026   24.7069 C   0  0  1  0  0  0  0  0  0  0  0  0
    8.4571  -15.8138   25.4323 C   0  0  0  0  0  0  0  0  0  0  0  0
    8.1745  -14.8495   26.5225 C   0  0  0  0  0  0  0  0  0  0  0  0
    8.4788  -15.0534   27.8602 C   0  0  0  0  0  0  0  0  0  0  0  0
    8.0835  -13.9742   28.5758 N   0  0  0  0  0  0  0  0  0  0  0  0
    7.5290  -13.0652   27.7578 C   0  0  0  0  0  0  0  0  0  0  0  0
    6.9717  -11.8082   27.9701 C   0  0  0  0  0  0  0  0  0  0  0  0
    6.4845  -11.1268   26.8984 C   0  0  0  0  0  0  0  0  0  0  0  0
    6.5271  -11.6444   25.6122 C   0  0  0  0  0  0  0  0  0  0  0  0
    7.0816  -12.8884   25.4212 C   0  0  0  0  0  0  0  0  0  0  0  0
    7.5823  -13.6067   26.4685 C   0  0  0  0  0  0  0  0  0  0  0  0
    7.3860  -16.2988   23.2459 C   0  0  0  0  0  0  0  0  0  0  0  0
    7.5750  -17.4090   22.7420 O   0  0  0  0  0  0  0  0  0  0  0  0
    7.6589  -14.1469   18.8115 C   0  0  0  0  0  0  0  0  0  0  0  0
    7.2810  -13.9230   20.2677 C   0  0  2  0  0  0  0  0  0  0  0  0
    8.0428  -12.6874   20.6922 C   0  0  0  0  0  0  0  0  0  0  0  0
    7.6709  -15.1437   21.0148 C   0  0  2  0  0  0  0  0  0  0  0  0
    7.3667  -15.1722   22.4046 N   0  0  0  0  0  0  0  0  0  0  0  0
    9.1396  -15.3439   20.8642 C   0  0  0  0  0  0  0  0  0  0  0  0
    9.9873  -14.6663   21.5313 O   0  0  0  0  0  0  0  0  0  0  0  0
    9.6754  -16.3024   19.9672 N   0  0  0  0  0  0  0  0  0  0  0  0
   11.0909  -16.5840   19.9515 C   0  0  0  0  0  0  0  0  0  0  0  0
   11.4398  -17.6757   19.0399 C   0  0  0  0  0  0  0  0  0  0  0  0
   12.2988  -17.4781   17.9726 O   0  0  0  0  0  0  0  0  0  0  0  0
   10.9649  -18.8258   19.2055 O   0  0  0  0  0  0  0  0  0  0  0  0
  2 13  1  0
  2  1  1  1
  3  2  1  0
  4  3  1  0
  5  4  2  0
  6  7  1  0
  6  5  1  0
  7 12  2  0
  8  9  2  0
  8  7  1  0
  9 10  1  0
 10 11  2  0
 12  4  1  0
 12 11  1  0
 13 14  2  0
 16 15  1  6
 17 16  1  0
 18 16  1  0
 18 19  1  1
 19 13  1  0
 20 21  2  0
 20 18  1  0
 22 20  1  0
 23 22  1  0
 24 23  1  0
 25 24  1  0
 26 24  2  0
M  END
$$$$
