WVG.pdb
     RDKit          3D

 26 27  0  0  1  0  0  0  0  0999 V2000
    6.3528  -17.8451   23.9598 N   0  0  0  0  0  0  0  0  0  0  0  0
    6.8180  -16.5039   23.6761 C   0  0  1  0  0  0  0  0  0  0  0  0
    7.6770  -16.0757   24.8444 C   0  0  0  0  0  0  0  0  0  0  0  0
    6.9818  -15.0640   25.6758 C   0  0  0  0  0  0  0  0  0  0  0  0
    5.9030  -15.3262   26.5070 C   0  0  0  0  0  0  0  0  0  0  0  0
    5.5191  -14.1781   27.1133 N   0  0  0  0  0  0  0  0  0  0  0  0
    6.3064  -13.1673   26.7117 C   0  0  0  0  0  0  0  0  0  0  0  0
    6.3450  -11.8109   27.0190 C   0  0  0  0  0  0  0  0  0  0  0  0
    7.2936  -11.0391   26.4235 C   0  0  0  0  0  0  0  0  0  0  0  0
    8.2149  -11.5607   25.5273 C   0  0  0  0  0  0  0  0  0  0  0  0
    8.1618  -12.9037   25.2354 C   0  0  0  0  0  0  0  0  0  0  0  0
    7.2262  -13.7147   25.8102 C   0  0  0  0  0  0  0  0  0  0  0  0
    7.5682  -16.5144   22.4034 C   0  0  0  0  0  0  0  0  0  0  0  0
    7.8721  -17.5990   21.8998 O   0  0  0  0  0  0  0  0  0  0  0  0
    8.4904  -12.7970   20.4423 C   0  0  0  0  0  0  0  0  0  0  0  0
    7.8951  -13.9683   19.6760 C   0  0  2  0  0  0  0  0  0  0  0  0
    6.3998  -13.7426   19.7007 C   0  0  0  0  0  0  0  0  0  0  0  0
    8.3175  -15.2081   20.3722 C   0  0  2  0  0  0  0  0  0  0  0  0
    7.9506  -15.3342   21.7413 N   0  0  0  0  0  0  0  0  0  0  0  0
    9.8005  -15.3205   20.2842 C   0  0  0  0  0  0  0  0  0  0  0  0
   10.4143  -15.3247   19.1679 O   0  0  0  0  0  0  0  0  0  0  0  0
   10.6120  -15.4293   21.4418 N   0  0  0  0  0  0  0  0  0  0  0  0
   12.0501  -15.4793   21.3295 C   0  0  0  0  0  0  0  0  0  0  0  0
   12.5641  -16.8488   21.2588 C   0  0  0  0  0  0  0  0  0  0  0  0
   11.7571  -17.9033   20.8678 O   0  0  0  0  0  0  0  0  0  0  0  0
   13.7578  -17.1015   21.5534 O   0  0  0  0  0  0  0  0  0  0  0  0
  2 13  1  0
  2  1  1  1
  3  2  1  0
  4  3  1  0
  5  4  2  0
  6  7  1  0
  6  5  1  0
  7 12  2  0
  8  9  2  0
  8  7  1  0
  9 10  1  0
 10 11  2  0
 12  4  1  0
 12 11  1  0
 13 14  2  0
 16 15  1  1
 17 16  1  0
 18 16  1  0
 18 19  1  1
 19 13  1  0
 20 21  2  0
 20 18  1  0
 22 20  1  0
 23 22  1  0
 24 23  1  0
 25 24  1  0
 26 24  2  0
M  END
$$$$
