WVG.pdb
     RDKit          3D

 26 27  0  0  1  0  0  0  0  0999 V2000
    6.4709  -16.9316   25.2054 N   0  0  0  0  0  0  0  0  0  0  0  0
    7.0632  -15.7790   24.5600 C   0  0  1  0  0  0  0  0  0  0  0  0
    8.3839  -15.5155   25.2474 C   0  0  0  0  0  0  0  0  0  0  0  0
    8.2123  -14.5988   26.4000 C   0  0  0  0  0  0  0  0  0  0  0  0
    8.7189  -14.8206   27.6720 C   0  0  0  0  0  0  0  0  0  0  0  0
    8.3753  -13.7857   28.4744 N   0  0  0  0  0  0  0  0  0  0  0  0
    7.6599  -12.8886   27.7771 C   0  0  0  0  0  0  0  0  0  0  0  0
    7.0734  -11.6720   28.1113 C   0  0  0  0  0  0  0  0  0  0  0  0
    6.3996  -10.9912   27.1454 C   0  0  0  0  0  0  0  0  0  0  0  0
    6.2817  -11.4707   25.8493 C   0  0  0  0  0  0  0  0  0  0  0  0
    6.8678  -12.6751   25.5369 C   0  0  0  0  0  0  0  0  0  0  0  0
    7.5534  -13.3912   26.4754 C   0  0  0  0  0  0  0  0  0  0  0  0
    7.2286  -16.0662   23.1203 C   0  0  0  0  0  0  0  0  0  0  0  0
    6.6346  -17.0317   22.6333 O   0  0  0  0  0  0  0  0  0  0  0  0
    6.8386  -13.0191   20.6784 C   0  0  0  0  0  0  0  0  0  0  0  0
    8.0813  -13.8060   20.2913 C   0  0  2  0  0  0  0  0  0  0  0  0
    8.1085  -13.7905   18.7792 C   0  0  0  0  0  0  0  0  0  0  0  0
    7.9363  -15.1658   20.8660 C   0  0  2  0  0  0  0  0  0  0  0  0
    8.0382  -15.2807   22.2807 N   0  0  0  0  0  0  0  0  0  0  0  0
    8.9707  -16.0504   20.2599 C   0  0  0  0  0  0  0  0  0  0  0  0
    9.0075  -16.2912   19.0095 O   0  0  0  0  0  0  0  0  0  0  0  0
    9.9735  -16.6745   21.0444 N   0  0  0  0  0  0  0  0  0  0  0  0
   10.9147  -17.5885   20.4429 C   0  0  0  0  0  0  0  0  0  0  0  0
   12.1528  -16.9290   20.0223 C   0  0  0  0  0  0  0  0  0  0  0  0
   13.3516  -17.6182   19.9577 O   0  0  0  0  0  0  0  0  0  0  0  0
   12.1570  -15.7138   19.7078 O   0  0  0  0  0  0  0  0  0  0  0  0
  2 13  1  0
  2  1  1  1
  3  2  1  0
  4  3  1  0
  5  4  2  0
  6  7  1  0
  6  5  1  0
  7 12  2  0
  8  9  2  0
  8  7  1  0
  9 10  1  0
 10 11  2  0
 12  4  1  0
 12 11  1  0
 13 14  2  0
 16 15  1  6
 17 16  1  0
 18 16  1  0
 18 19  1  1
 19 13  1  0
 20 21  2  0
 20 18  1  0
 22 20  1  0
 23 22  1  0
 24 23  1  0
 25 24  1  0
 26 24  2  0
M  END
$$$$
