WVG.pdb
     RDKit          3D

 26 27  0  0  1  0  0  0  0  0999 V2000
    6.1237  -18.7837   24.6171 N   0  0  0  0  0  0  0  0  0  0  0  0
    6.4876  -17.3866   24.5093 C   0  0  1  0  0  0  0  0  0  0  0  0
    7.0672  -16.9749   25.8437 C   0  0  0  0  0  0  0  0  0  0  0  0
    6.7136  -15.5723   26.1695 C   0  0  0  0  0  0  0  0  0  0  0  0
    5.4392  -15.1303   26.4924 C   0  0  0  0  0  0  0  0  0  0  0  0
    5.4776  -13.7981   26.7307 N   0  0  0  0  0  0  0  0  0  0  0  0
    6.7321  -13.3451   26.5765 C   0  0  0  0  0  0  0  0  0  0  0  0
    7.3112  -12.0860   26.6989 C   0  0  0  0  0  0  0  0  0  0  0  0
    8.6462  -11.9624   26.4688 C   0  0  0  0  0  0  0  0  0  0  0  0
    9.4390  -13.0454   26.1189 C   0  0  0  0  0  0  0  0  0  0  0  0
    8.8494  -14.2826   26.0026 C   0  0  0  0  0  0  0  0  0  0  0  0
    7.5132  -14.4517   26.2246 C   0  0  0  0  0  0  0  0  0  0  0  0
    7.4552  -17.2257   23.4046 C   0  0  0  0  0  0  0  0  0  0  0  0
    8.1649  -18.1845   23.0897 O   0  0  0  0  0  0  0  0  0  0  0  0
    7.9681  -13.4233   21.3950 C   0  0  0  0  0  0  0  0  0  0  0  0
    8.0399  -14.7333   20.6256 C   0  0  2  0  0  0  0  0  0  0  0  0
    6.6500  -14.9454   20.0682 C   0  0  0  0  0  0  0  0  0  0  0  0
    8.4584  -15.7837   21.5858 C   0  0  2  0  0  0  0  0  0  0  0  0
    7.5999  -16.0197   22.6958 N   0  0  0  0  0  0  0  0  0  0  0  0
    9.8056  -15.4326   22.1164 C   0  0  0  0  0  0  0  0  0  0  0  0
   10.2712  -14.2486   22.0522 O   0  0  0  0  0  0  0  0  0  0  0  0
   10.6454  -16.4004   22.7235 N   0  0  0  0  0  0  0  0  0  0  0  0
   11.9682  -16.0444   23.1781 C   0  0  0  0  0  0  0  0  0  0  0  0
   13.0264  -16.6909   22.3991 C   0  0  0  0  0  0  0  0  0  0  0  0
   14.3641  -16.4934   22.6956 O   0  0  0  0  0  0  0  0  0  0  0  0
   12.7441  -17.4455   21.4366 O   0  0  0  0  0  0  0  0  0  0  0  0
  2 13  1  0
  2  1  1  1
  3  2  1  0
  4  3  1  0
  5  4  2  0
  6  7  1  0
  6  5  1  0
  7 12  2  0
  8  9  2  0
  8  7  1  0
  9 10  1  0
 10 11  2  0
 12  4  1  0
 12 11  1  0
 13 14  2  0
 16 15  1  1
 17 16  1  0
 18 16  1  0
 18 19  1  1
 19 13  1  0
 20 21  2  0
 20 18  1  0
 22 20  1  0
 23 22  1  0
 24 23  1  0
 25 24  1  0
 26 24  2  0
M  END
$$$$
