WVG.pdb
     RDKit          3D

 26 27  0  0  1  0  0  0  0  0999 V2000
    6.3727  -16.9519   25.1048 N   0  0  0  0  0  0  0  0  0  0  0  0
    7.1500  -15.8741   24.5304 C   0  0  1  0  0  0  0  0  0  0  0  0
    8.3847  -15.7116   25.3878 C   0  0  0  0  0  0  0  0  0  0  0  0
    8.1616  -14.7135   26.4613 C   0  0  0  0  0  0  0  0  0  0  0  0
    8.5364  -14.8772   27.7866 C   0  0  0  0  0  0  0  0  0  0  0  0
    8.1810  -13.7754   28.4887 N   0  0  0  0  0  0  0  0  0  0  0  0
    7.5849  -12.8904   27.6737 C   0  0  0  0  0  0  0  0  0  0  0  0
    7.0413  -11.6258   27.8766 C   0  0  0  0  0  0  0  0  0  0  0  0
    6.4986  -10.9762   26.8117 C   0  0  0  0  0  0  0  0  0  0  0  0
    6.4722  -11.5330   25.5416 C   0  0  0  0  0  0  0  0  0  0  0  0
    7.0142  -12.7839   25.3598 C   0  0  0  0  0  0  0  0  0  0  0  0
    7.5689  -13.4712   26.4007 C   0  0  0  0  0  0  0  0  0  0  0  0
    7.4805  -16.2127   23.1308 C   0  0  0  0  0  0  0  0  0  0  0  0
    7.3700  -17.3839   22.7591 O   0  0  0  0  0  0  0  0  0  0  0  0
    8.4507  -13.0378   20.4945 C   0  0  0  0  0  0  0  0  0  0  0  0
    7.5793  -14.1801   19.9952 C   0  0  2  0  0  0  0  0  0  0  0  0
    6.1551  -13.7187   20.2100 C   0  0  0  0  0  0  0  0  0  0  0  0
    7.9368  -15.3828   20.7863 C   0  0  2  0  0  0  0  0  0  0  0  0
    7.9172  -15.2504   22.2030 N   0  0  0  0  0  0  0  0  0  0  0  0
    9.3026  -15.8250   20.3875 C   0  0  0  0  0  0  0  0  0  0  0  0
    9.5955  -16.1148   19.1821 O   0  0  0  0  0  0  0  0  0  0  0  0
   10.3539  -15.9476   21.3309 N   0  0  0  0  0  0  0  0  0  0  0  0
   11.6545  -16.4235   20.9246 C   0  0  0  0  0  0  0  0  0  0  0  0
   12.6403  -16.3666   22.0060 C   0  0  0  0  0  0  0  0  0  0  0  0
   13.9995  -16.3609   21.7440 O   0  0  0  0  0  0  0  0  0  0  0  0
   12.2740  -16.3213   23.2057 O   0  0  0  0  0  0  0  0  0  0  0  0
  2 13  1  0
  2  1  1  1
  3  2  1  0
  4  3  1  0
  5  4  2  0
  6  7  1  0
  6  5  1  0
  7 12  2  0
  8  9  2  0
  8  7  1  0
  9 10  1  0
 10 11  2  0
 12  4  1  0
 12 11  1  0
 13 14  2  0
 16 15  1  1
 17 16  1  0
 18 16  1  0
 18 19  1  1
 19 13  1  0
 20 21  2  0
 20 18  1  0
 22 20  1  0
 23 22  1  0
 24 23  1  0
 25 24  1  0
 26 24  2  0
M  END
$$$$
