WVG.pdb
     RDKit          3D

 26 27  0  0  1  0  0  0  0  0999 V2000
    6.8079  -18.8345   25.2184 N   0  0  0  0  0  0  0  0  0  0  0  0
    7.1379  -17.4505   24.9511 C   0  0  1  0  0  0  0  0  0  0  0  0
    8.0825  -17.0008   26.0427 C   0  0  0  0  0  0  0  0  0  0  0  0
    7.7297  -15.6453   26.5291 C   0  0  0  0  0  0  0  0  0  0  0  0
    6.4866  -15.0484   26.3813 C   0  0  0  0  0  0  0  0  0  0  0  0
    6.5158  -13.8155   26.9400 N   0  0  0  0  0  0  0  0  0  0  0  0
    7.7343  -13.5775   27.4513 C   0  0  0  0  0  0  0  0  0  0  0  0
    8.2904  -12.4914   28.1199 C   0  0  0  0  0  0  0  0  0  0  0  0
    9.5892  -12.5713   28.5164 C   0  0  0  0  0  0  0  0  0  0  0  0
   10.3675  -13.6939   28.2755 C   0  0  0  0  0  0  0  0  0  0  0  0
    9.8011  -14.7580   27.6133 C   0  0  0  0  0  0  0  0  0  0  0  0
    8.5013  -14.7202   27.1977 C   0  0  0  0  0  0  0  0  0  0  0  0
    7.7461  -17.3520   23.6083 C   0  0  0  0  0  0  0  0  0  0  0  0
    8.1122  -18.3855   23.0428 O   0  0  0  0  0  0  0  0  0  0  0  0
    7.9900  -13.5333   21.7440 C   0  0  0  0  0  0  0  0  0  0  0  0
    7.6072  -14.7480   20.9125 C   0  0  2  0  0  0  0  0  0  0  0  0
    6.0950  -14.7668   20.9061 C   0  0  0  0  0  0  0  0  0  0  0  0
    8.2105  -15.9350   21.5663 C   0  0  2  0  0  0  0  0  0  0  0  0
    7.9247  -16.1236   22.9475 N   0  0  0  0  0  0  0  0  0  0  0  0
    9.6906  -15.8614   21.4117 C   0  0  0  0  0  0  0  0  0  0  0  0
   10.2461  -15.7105   20.2754 O   0  0  0  0  0  0  0  0  0  0  0  0
   10.5640  -15.9557   22.5247 N   0  0  0  0  0  0  0  0  0  0  0  0
   11.9932  -15.8595   22.3478 C   0  0  0  0  0  0  0  0  0  0  0  0
   12.6199  -17.1585   22.0943 C   0  0  0  0  0  0  0  0  0  0  0  0
   13.9958  -17.2952   22.0271 O   0  0  0  0  0  0  0  0  0  0  0  0
   11.9195  -18.1872   21.9305 O   0  0  0  0  0  0  0  0  0  0  0  0
  2 13  1  0
  2  1  1  1
  3  2  1  0
  4  3  1  0
  5  4  2  0
  6  7  1  0
  6  5  1  0
  7 12  2  0
  8  9  2  0
  8  7  1  0
  9 10  1  0
 10 11  2  0
 12  4  1  0
 12 11  1  0
 13 14  2  0
 16 15  1  1
 17 16  1  0
 18 16  1  0
 18 19  1  1
 19 13  1  0
 20 21  2  0
 20 18  1  0
 22 20  1  0
 23 22  1  0
 24 23  1  0
 25 24  1  0
 26 24  2  0
M  END
$$$$
