WVG.pdb
     RDKit          3D

 26 27  0  0  1  0  0  0  0  0999 V2000
    6.5145  -17.9291   23.8813 N   0  0  0  0  0  0  0  0  0  0  0  0
    6.9246  -16.5514   23.7090 C   0  0  1  0  0  0  0  0  0  0  0  0
    7.7600  -16.1831   24.9143 C   0  0  0  0  0  0  0  0  0  0  0  0
    7.0824  -15.1543   25.7393 C   0  0  0  0  0  0  0  0  0  0  0  0
    5.9997  -15.3928   26.5726 C   0  0  0  0  0  0  0  0  0  0  0  0
    5.6357  -14.2344   27.1716 N   0  0  0  0  0  0  0  0  0  0  0  0
    6.4399  -13.2397   26.7631 C   0  0  0  0  0  0  0  0  0  0  0  0
    6.5016  -11.8822   27.0616 C   0  0  0  0  0  0  0  0  0  0  0  0
    7.4629  -11.1305   26.4607 C   0  0  0  0  0  0  0  0  0  0  0  0
    8.3747  -11.6735   25.5676 C   0  0  0  0  0  0  0  0  0  0  0  0
    8.2987  -13.0172   25.2845 C   0  0  0  0  0  0  0  0  0  0  0  0
    7.3498  -13.8085   25.8648 C   0  0  0  0  0  0  0  0  0  0  0  0
    7.6800  -16.4291   22.4453 C   0  0  0  0  0  0  0  0  0  0  0  0
    8.1512  -17.4472   21.9319 O   0  0  0  0  0  0  0  0  0  0  0  0
    8.6235  -12.5882   20.6972 C   0  0  0  0  0  0  0  0  0  0  0  0
    8.1007  -13.7194   19.8253 C   0  0  2  0  0  0  0  0  0  0  0  0
    6.6127  -13.4764   19.7062 C   0  0  0  0  0  0  0  0  0  0  0  0
    8.4390  -14.9920   20.5082 C   0  0  2  0  0  0  0  0  0  0  0  0
    7.8838  -15.1950   21.8026 N   0  0  0  0  0  0  0  0  0  0  0  0
    9.9211  -15.0882   20.6264 C   0  0  0  0  0  0  0  0  0  0  0  0
   10.6871  -15.0223   19.6107 O   0  0  0  0  0  0  0  0  0  0  0  0
   10.5616  -15.2589   21.8798 N   0  0  0  0  0  0  0  0  0  0  0  0
   11.9974  -15.3808   21.9611 C   0  0  0  0  0  0  0  0  0  0  0  0
   12.4714  -16.7216   21.6112 C   0  0  0  0  0  0  0  0  0  0  0  0
   12.6594  -17.6954   22.5768 O   0  0  0  0  0  0  0  0  0  0  0  0
   12.7204  -17.0225   20.4183 O   0  0  0  0  0  0  0  0  0  0  0  0
  2 13  1  0
  2  1  1  1
  3  2  1  0
  4  3  1  0
  5  4  2  0
  6  7  1  0
  6  5  1  0
  7 12  2  0
  8  9  2  0
  8  7  1  0
  9 10  1  0
 10 11  2  0
 12  4  1  0
 12 11  1  0
 13 14  2  0
 16 15  1  1
 17 16  1  0
 18 16  1  0
 18 19  1  1
 19 13  1  0
 20 21  2  0
 20 18  1  0
 22 20  1  0
 23 22  1  0
 24 23  1  0
 25 24  1  0
 26 24  2  0
M  END
$$$$
