WVG.pdb
     RDKit          3D

 26 27  0  0  1  0  0  0  0  0999 V2000
    6.1322  -17.9793   24.4232 N   0  0  0  0  0  0  0  0  0  0  0  0
    6.7217  -16.6989   24.0931 C   0  0  1  0  0  0  0  0  0  0  0  0
    7.4940  -16.2393   25.3090 C   0  0  0  0  0  0  0  0  0  0  0  0
    6.7786  -15.1496   26.0154 C   0  0  0  0  0  0  0  0  0  0  0  0
    5.5109  -15.2605   26.5670 C   0  0  0  0  0  0  0  0  0  0  0  0
    5.1667  -14.0791   27.1319 N   0  0  0  0  0  0  0  0  0  0  0  0
    6.1624  -13.1925   26.9727 C   0  0  0  0  0  0  0  0  0  0  0  0
    6.3236  -11.8639   27.3530 C   0  0  0  0  0  0  0  0  0  0  0  0
    7.4849  -11.2342   27.0287 C   0  0  0  0  0  0  0  0  0  0  0  0
    8.5032  -11.8727   26.3364 C   0  0  0  0  0  0  0  0  0  0  0  0
    8.3264  -13.1861   25.9685 C   0  0  0  0  0  0  0  0  0  0  0  0
    7.1768  -13.8562   26.2735 C   0  0  0  0  0  0  0  0  0  0  0  0
    7.5880  -16.8600   22.9072 C   0  0  0  0  0  0  0  0  0  0  0  0
    7.9093  -17.9976   22.5541 O   0  0  0  0  0  0  0  0  0  0  0  0
    9.0024  -13.4160   20.8084 C   0  0  0  0  0  0  0  0  0  0  0  0
    8.1198  -14.4206   20.0836 C   0  0  2  0  0  0  0  0  0  0  0  0
    6.7153  -13.8706   20.1941 C   0  0  0  0  0  0  0  0  0  0  0  0
    8.2974  -15.7288   20.7599 C   0  0  2  0  0  0  0  0  0  0  0  0
    8.0620  -15.7651   22.1629 N   0  0  0  0  0  0  0  0  0  0  0  0
    9.6886  -16.2038   20.5175 C   0  0  0  0  0  0  0  0  0  0  0  0
   10.1680  -16.3246   19.3434 O   0  0  0  0  0  0  0  0  0  0  0  0
   10.5574  -16.5485   21.5837 N   0  0  0  0  0  0  0  0  0  0  0  0
   11.8533  -17.1261   21.3187 C   0  0  0  0  0  0  0  0  0  0  0  0
   12.9497  -16.1820   21.5452 C   0  0  0  0  0  0  0  0  0  0  0  0
   14.2634  -16.5229   21.2731 O   0  0  0  0  0  0  0  0  0  0  0  0
   12.7231  -15.0322   21.9949 O   0  0  0  0  0  0  0  0  0  0  0  0
  2 13  1  0
  2  1  1  1
  3  2  1  0
  4  3  1  0
  5  4  2  0
  6  7  1  0
  6  5  1  0
  7 12  2  0
  8  9  2  0
  8  7  1  0
  9 10  1  0
 10 11  2  0
 12  4  1  0
 12 11  1  0
 13 14  2  0
 16 15  1  1
 17 16  1  0
 18 16  1  0
 18 19  1  1
 19 13  1  0
 20 21  2  0
 20 18  1  0
 22 20  1  0
 23 22  1  0
 24 23  1  0
 25 24  1  0
 26 24  2  0
M  END
$$$$
