WVG.pdb
     RDKit          3D

 26 27  0  0  1  0  0  0  0  0999 V2000
    6.3701  -17.6539   23.8764 N   0  0  0  0  0  0  0  0  0  0  0  0
    6.8633  -16.3276   23.5709 C   0  0  1  0  0  0  0  0  0  0  0  0
    7.7471  -15.9065   24.7231 C   0  0  0  0  0  0  0  0  0  0  0  0
    7.0107  -15.0352   25.6702 C   0  0  0  0  0  0  0  0  0  0  0  0
    5.9961  -15.4610   26.5145 C   0  0  0  0  0  0  0  0  0  0  0  0
    5.5483  -14.4080   27.2382 N   0  0  0  0  0  0  0  0  0  0  0  0
    6.2314  -13.3022   26.9014 C   0  0  0  0  0  0  0  0  0  0  0  0
    6.1734  -11.9800   27.3305 C   0  0  0  0  0  0  0  0  0  0  0  0
    7.0277  -11.0804   26.7726 C   0  0  0  0  0  0  0  0  0  0  0  0
    7.9462  -11.4402   25.7975 C   0  0  0  0  0  0  0  0  0  0  0  0
    7.9893  -12.7517   25.3855 C   0  0  0  0  0  0  0  0  0  0  0  0
    7.1503  -13.6873   25.9187 C   0  0  0  0  0  0  0  0  0  0  0  0
    7.5967  -16.3708   22.2891 C   0  0  0  0  0  0  0  0  0  0  0  0
    7.8889  -17.4681   21.8065 O   0  0  0  0  0  0  0  0  0  0  0  0
    8.5637  -12.7064   20.2328 C   0  0  0  0  0  0  0  0  0  0  0  0
    7.8947  -13.8679   19.5139 C   0  0  2  0  0  0  0  0  0  0  0  0
    6.4108  -13.5880   19.5983 C   0  0  0  0  0  0  0  0  0  0  0  0
    8.3027  -15.1106   20.2138 C   0  0  2  0  0  0  0  0  0  0  0  0
    7.9759  -15.2079   21.5953 N   0  0  0  0  0  0  0  0  0  0  0  0
    9.7783  -15.2679   20.0809 C   0  0  0  0  0  0  0  0  0  0  0  0
   10.3527  -15.3344   18.9459 O   0  0  0  0  0  0  0  0  0  0  0  0
   10.6261  -15.3525   21.2143 N   0  0  0  0  0  0  0  0  0  0  0  0
   12.0510  -15.5189   21.0556 C   0  0  0  0  0  0  0  0  0  0  0  0
   12.4794  -16.9094   21.2218 C   0  0  0  0  0  0  0  0  0  0  0  0
   13.3935  -17.2714   22.1962 O   0  0  0  0  0  0  0  0  0  0  0  0
   12.0248  -17.8135   20.4792 O   0  0  0  0  0  0  0  0  0  0  0  0
  2 13  1  0
  2  1  1  1
  3  2  1  0
  4  3  1  0
  5  4  2  0
  6  7  1  0
  6  5  1  0
  7 12  2  0
  8  9  2  0
  8  7  1  0
  9 10  1  0
 10 11  2  0
 12  4  1  0
 12 11  1  0
 13 14  2  0
 16 15  1  1
 17 16  1  0
 18 16  1  0
 18 19  1  1
 19 13  1  0
 20 21  2  0
 20 18  1  0
 22 20  1  0
 23 22  1  0
 24 23  1  0
 25 24  1  0
 26 24  2  0
M  END
$$$$
