FNR.pdb
     RDKit          3D

 31 31  0  0  1  0  0  0  0  0999 V2000
    6.1666  -16.4030   25.2378 N   0  0  0  0  0  0  0  0  0  0  0  0
    7.2857  -15.6208   24.6902 C   0  0  1  0  0  0  0  0  0  0  0  0
    7.8126  -14.7929   25.8157 C   0  0  0  0  0  0  0  0  0  0  0  0
    7.1790  -13.4728   25.9668 C   0  0  0  0  0  0  0  0  0  0  0  0
    7.5256  -12.4504   25.1050 C   0  0  0  0  0  0  0  0  0  0  0  0
    6.9047  -11.2322   25.2823 C   0  0  0  0  0  0  0  0  0  0  0  0
    5.9739  -11.0560   26.2873 C   0  0  0  0  0  0  0  0  0  0  0  0
    5.6256  -12.0726   27.1484 C   0  0  0  0  0  0  0  0  0  0  0  0
    6.2480  -13.2908   26.9693 C   0  0  0  0  0  0  0  0  0  0  0  0
    8.2883  -16.5262   24.0771 C   0  0  0  0  0  0  0  0  0  0  0  0
    8.5214  -17.6180   24.6809 O   0  0  0  0  0  0  0  0  0  0  0  0
   11.5170  -18.2030   19.4249 N   0  0  0  0  0  0  0  0  0  0  0  0
   11.6103  -17.2678   20.4793 C   0  0  0  0  0  0  0  0  0  0  0  0
   12.7722  -17.1093   20.9753 O   0  0  0  0  0  0  0  0  0  0  0  0
   10.4800  -16.5034   21.0069 C   0  0  0  0  0  0  0  0  0  0  0  0
   10.0354  -16.8742   22.3795 C   0  0  2  0  0  0  0  0  0  0  0  0
    8.9210  -16.1487   22.8866 N   0  0  0  0  0  0  0  0  0  0  0  0
   11.2118  -16.8468   23.2886 C   0  0  0  0  0  0  0  0  0  0  0  0
   11.6885  -15.6952   23.5399 O   0  0  0  0  0  0  0  0  0  0  0  0
   10.7814  -20.6939   30.7759 N   0  0  0  0  0  0  0  0  0  0  0  0
   12.1688  -20.8572   30.4160 C   0  0  0  0  0  0  0  0  0  0  0  0
   12.9388  -21.6478   31.1153 N   0  0  0  0  0  0  0  0  0  0  0  0
   12.7329  -20.1777   29.3112 N   0  0  0  0  0  0  0  0  0  0  0  0
   12.0479  -19.1024   28.6354 C   0  0  0  0  0  0  0  0  0  0  0  0
   12.8450  -18.6574   27.3943 C   0  0  0  0  0  0  0  0  0  0  0  0
   11.9804  -18.6274   26.1843 C   0  0  0  0  0  0  0  0  0  0  0  0
   12.6480  -17.9325   25.0220 C   0  0  2  0  0  0  0  0  0  0  0  0
   11.7783  -18.0010   23.8453 N   0  0  0  0  0  0  0  0  0  0  0  0
   13.9947  -18.4291   24.7079 C   0  0  0  0  0  0  0  0  0  0  0  0
   14.2762  -19.0920   23.4923 O   0  0  0  0  0  0  0  0  0  0  0  0
   14.9827  -18.3122   25.4674 O   0  0  0  0  0  0  0  0  0  0  0  0
  2  1  1  1
  3  2  1  0
  4  3  1  0
  4  5  2  0
  6  5  1  0
  7  6  2  0
  8  9  2  0
  8  7  1  0
  9  4  1  0
 10  2  1  0
 11 10  2  0
 13 12  1  0
 14 13  2  0
 15 13  1  0
 16 17  1  0
 16 15  1  6
 17 10  1  0
 18 16  1  0
 19 18  2  0
 20 21  1  0
 21 22  2  0
 21 23  1  0
 23 24  1  0
 25 26  1  0
 25 24  1  0
 27 26  1  1
 27 28  1  0
 28 18  1  0
 29 30  1  0
 29 27  1  0
 31 29  2  0
M  END
$$$$
