FNR.pdb
     RDKit          3D

 31 31  0  0  1  0  0  0  0  0999 V2000
    8.6056  -17.1943   28.4041 N   0  0  0  0  0  0  0  0  0  0  0  0
    7.9286  -16.5076   27.2931 C   0  0  1  0  0  0  0  0  0  0  0  0
    8.7142  -15.2670   27.0223 C   0  0  0  0  0  0  0  0  0  0  0  0
    7.9104  -14.0884   26.6593 C   0  0  0  0  0  0  0  0  0  0  0  0
    6.5330  -14.1546   26.7398 C   0  0  0  0  0  0  0  0  0  0  0  0
    5.8213  -13.0259   26.3926 C   0  0  0  0  0  0  0  0  0  0  0  0
    6.4744  -11.8803   25.9820 C   0  0  0  0  0  0  0  0  0  0  0  0
    7.8473  -11.8102   25.9004 C   0  0  0  0  0  0  0  0  0  0  0  0
    8.5576  -12.9406   26.2483 C   0  0  0  0  0  0  0  0  0  0  0  0
    7.8070  -17.4192   26.1291 C   0  0  0  0  0  0  0  0  0  0  0  0
    8.8029  -18.1647   25.8770 O   0  0  0  0  0  0  0  0  0  0  0  0
    4.5018  -18.6265   21.1086 N   0  0  0  0  0  0  0  0  0  0  0  0
    5.1393  -19.0276   22.3035 C   0  0  0  0  0  0  0  0  0  0  0  0
    5.6740  -20.1829   22.2828 O   0  0  0  0  0  0  0  0  0  0  0  0
    5.2112  -18.2105   23.5149 C   0  0  0  0  0  0  0  0  0  0  0  0
    6.5739  -18.0254   24.0878 C   0  0  2  0  0  0  0  0  0  0  0  0
    6.6277  -17.4201   25.3747 N   0  0  0  0  0  0  0  0  0  0  0  0
    7.4271  -17.3369   23.0832 C   0  0  0  0  0  0  0  0  0  0  0  0
    6.8563  -17.0362   21.9876 O   0  0  0  0  0  0  0  0  0  0  0  0
    9.1366  -13.6524   17.3136 N   0  0  0  0  0  0  0  0  0  0  0  0
    7.8752  -13.1983   17.8461 C   0  0  0  0  0  0  0  0  0  0  0  0
    7.2461  -12.2018   17.2820 N   0  0  0  0  0  0  0  0  0  0  0  0
    7.2864  -13.8074   18.9787 N   0  0  0  0  0  0  0  0  0  0  0  0
    7.8490  -13.6822   20.3016 C   0  0  0  0  0  0  0  0  0  0  0  0
    8.0261  -15.0728   20.9409 C   0  0  0  0  0  0  0  0  0  0  0  0
    9.1590  -15.0794   21.9047 C   0  0  0  0  0  0  0  0  0  0  0  0
    9.6171  -16.4787   22.2386 C   0  0  2  0  0  0  0  0  0  0  0  0
    8.7757  -17.0284   23.3042 N   0  0  0  0  0  0  0  0  0  0  0  0
   11.0406  -16.5865   22.5867 C   0  0  0  0  0  0  0  0  0  0  0  0
   12.0572  -16.3555   21.6330 O   0  0  0  0  0  0  0  0  0  0  0  0
   11.4658  -16.8838   23.7257 O   0  0  0  0  0  0  0  0  0  0  0  0
  2  1  1  1
  3  2  1  0
  4  3  1  0
  4  5  2  0
  6  5  1  0
  7  6  2  0
  8  9  2  0
  8  7  1  0
  9  4  1  0
 10  2  1  0
 11 10  2  0
 13 12  1  0
 14 13  2  0
 15 13  1  0
 16 17  1  0
 16 15  1  6
 17 10  1  0
 18 16  1  0
 19 18  2  0
 20 21  1  0
 21 22  2  0
 21 23  1  0
 23 24  1  0
 25 26  1  0
 25 24  1  0
 27 26  1  1
 27 28  1  0
 28 18  1  0
 29 30  1  0
 29 27  1  0
 31 29  2  0
M  END
$$$$
