FNR.pdb
     RDKit          3D

 31 31  0  0  1  0  0  0  0  0999 V2000
    7.5234  -16.5896   26.5835 N   0  0  0  0  0  0  0  0  0  0  0  0
    7.3602  -16.0223   25.2360 C   0  0  1  0  0  0  0  0  0  0  0  0
    8.0280  -14.6869   25.2565 C   0  0  0  0  0  0  0  0  0  0  0  0
    7.4207  -13.7015   26.1659 C   0  0  0  0  0  0  0  0  0  0  0  0
    6.0575  -13.4829   26.1182 C   0  0  0  0  0  0  0  0  0  0  0  0
    5.5323  -12.5530   26.9902 C   0  0  0  0  0  0  0  0  0  0  0  0
    6.3502  -11.8739   27.8719 C   0  0  0  0  0  0  0  0  0  0  0  0
    7.7095  -12.0888   27.9226 C   0  0  0  0  0  0  0  0  0  0  0  0
    8.2330  -13.0198   27.0493 C   0  0  0  0  0  0  0  0  0  0  0  0
    7.8999  -16.9591   24.2202 C   0  0  0  0  0  0  0  0  0  0  0  0
    8.7352  -17.8252   24.6239 O   0  0  0  0  0  0  0  0  0  0  0  0
    7.2527  -18.9761   18.4763 N   0  0  0  0  0  0  0  0  0  0  0  0
    7.3275  -19.1284   19.8786 C   0  0  0  0  0  0  0  0  0  0  0  0
    7.7924  -20.2403   20.2890 O   0  0  0  0  0  0  0  0  0  0  0  0
    6.9126  -18.1092   20.8427 C   0  0  0  0  0  0  0  0  0  0  0  0
    7.9088  -17.7782   21.8998 C   0  0  2  0  0  0  0  0  0  0  0  0
    7.4762  -16.8521   22.8901 N   0  0  0  0  0  0  0  0  0  0  0  0
    9.1856  -17.3822   21.2487 C   0  0  0  0  0  0  0  0  0  0  0  0
    9.0763  -16.8393   20.1042 O   0  0  0  0  0  0  0  0  0  0  0  0
    8.2720  -14.8849   17.8805 N   0  0  0  0  0  0  0  0  0  0  0  0
    9.1072  -13.7162   17.7475 C   0  0  0  0  0  0  0  0  0  0  0  0
    8.5802  -12.5686   17.4122 N   0  0  0  0  0  0  0  0  0  0  0  0
   10.5024  -13.7728   17.9724 N   0  0  0  0  0  0  0  0  0  0  0  0
   11.0655  -13.9177   19.2930 C   0  0  0  0  0  0  0  0  0  0  0  0
   10.4191  -15.1114   20.0217 C   0  0  0  0  0  0  0  0  0  0  0  0
   10.9508  -15.2474   21.4041 C   0  0  0  0  0  0  0  0  0  0  0  0
   11.5290  -16.6181   21.6617 C   0  0  2  0  0  0  0  0  0  0  0  0
   10.4413  -17.5836   21.8364 N   0  0  0  0  0  0  0  0  0  0  0  0
   12.4704  -16.6799   22.7882 C   0  0  0  0  0  0  0  0  0  0  0  0
   13.8344  -16.3451   22.6345 O   0  0  0  0  0  0  0  0  0  0  0  0
   12.1561  -17.0246   23.9497 O   0  0  0  0  0  0  0  0  0  0  0  0
  2  1  1  1
  3  2  1  0
  4  3  1  0
  4  5  2  0
  6  5  1  0
  7  6  2  0
  8  9  2  0
  8  7  1  0
  9  4  1  0
 10  2  1  0
 11 10  2  0
 13 12  1  0
 14 13  2  0
 15 13  1  0
 16 17  1  0
 16 15  1  6
 17 10  1  0
 18 16  1  0
 19 18  2  0
 20 21  1  0
 21 22  2  0
 21 23  1  0
 23 24  1  0
 25 26  1  0
 25 24  1  0
 27 26  1  1
 27 28  1  0
 28 18  1  0
 29 30  1  0
 29 27  1  0
 31 29  2  0
M  END
$$$$
