FNR.pdb
     RDKit          3D

 31 31  0  0  1  0  0  0  0  0999 V2000
    8.4738  -15.8099   16.1528 N   0  0  0  0  0  0  0  0  0  0  0  0
    8.8528  -14.8907   17.2370 C   0  0  1  0  0  0  0  0  0  0  0  0
    7.6784  -14.8149   18.1561 C   0  0  0  0  0  0  0  0  0  0  0  0
    7.9481  -14.1867   19.4598 C   0  0  0  0  0  0  0  0  0  0  0  0
    8.1991  -12.8297   19.5209 C   0  0  0  0  0  0  0  0  0  0  0  0
    8.4437  -12.2842   20.7633 C   0  0  0  0  0  0  0  0  0  0  0  0
    8.4348  -13.0767   21.8943 C   0  0  0  0  0  0  0  0  0  0  0  0
    8.1850  -14.4298   21.8378 C   0  0  0  0  0  0  0  0  0  0  0  0
    7.9404  -14.9736   20.5936 C   0  0  0  0  0  0  0  0  0  0  0  0
   10.1049  -15.3543   17.8835 C   0  0  0  0  0  0  0  0  0  0  0  0
   10.1680  -16.5822   18.1986 O   0  0  0  0  0  0  0  0  0  0  0  0
   15.4964  -15.6289   17.6909 N   0  0  0  0  0  0  0  0  0  0  0  0
   14.9105  -14.5179   18.3371 C   0  0  0  0  0  0  0  0  0  0  0  0
   15.6303  -13.9506   19.2208 O   0  0  0  0  0  0  0  0  0  0  0  0
   13.5693  -14.0088   18.0498 C   0  0  0  0  0  0  0  0  0  0  0  0
   12.4420  -14.8782   18.4888 C   0  0  2  0  0  0  0  0  0  0  0  0
   11.1406  -14.4408   18.1142 N   0  0  0  0  0  0  0  0  0  0  0  0
   12.5739  -15.1344   19.9476 C   0  0  0  0  0  0  0  0  0  0  0  0
   12.4231  -14.1219   20.7017 O   0  0  0  0  0  0  0  0  0  0  0  0
   11.9346  -20.8531   27.4886 N   0  0  0  0  0  0  0  0  0  0  0  0
   11.9487  -20.6418   26.0616 C   0  0  0  0  0  0  0  0  0  0  0  0
   10.9008  -20.9470   25.3433 N   0  0  0  0  0  0  0  0  0  0  0  0
   13.0795  -20.1053   25.4029 N   0  0  0  0  0  0  0  0  0  0  0  0
   13.0995  -19.8600   23.9811 C   0  0  0  0  0  0  0  0  0  0  0  0
   12.9892  -18.3496   23.6978 C   0  0  0  0  0  0  0  0  0  0  0  0
   12.9549  -18.0796   22.2354 C   0  0  0  0  0  0  0  0  0  0  0  0
   12.9950  -16.6024   21.9260 C   0  0  2  0  0  0  0  0  0  0  0  0
   12.8469  -16.4001   20.4827 N   0  0  0  0  0  0  0  0  0  0  0  0
   14.1853  -15.9062   22.4333 C   0  0  0  0  0  0  0  0  0  0  0  0
   15.4115  -15.9255   21.7316 O   0  0  0  0  0  0  0  0  0  0  0  0
   14.2171  -15.2535   23.5008 O   0  0  0  0  0  0  0  0  0  0  0  0
  2  1  1  6
  3  2  1  0
  4  3  1  0
  4  5  2  0
  6  5  1  0
  7  6  2  0
  8  9  2  0
  8  7  1  0
  9  4  1  0
 10  2  1  0
 11 10  2  0
 13 12  1  0
 14 13  2  0
 15 13  1  0
 16 17  1  0
 16 15  1  1
 17 10  1  0
 18 16  1  0
 19 18  2  0
 20 21  1  0
 21 22  2  0
 21 23  1  0
 23 24  1  0
 25 26  1  0
 25 24  1  0
 27 26  1  6
 27 28  1  0
 28 18  1  0
 29 30  1  0
 29 27  1  0
 31 29  2  0
M  END
$$$$
