FNR.pdb
     RDKit          3D

 31 31  0  0  1  0  0  0  0  0999 V2000
    8.6371  -17.0344   19.7299 N   0  0  0  0  0  0  0  0  0  0  0  0
    9.0985  -16.2034   20.8528 C   0  0  1  0  0  0  0  0  0  0  0  0
    7.8887  -15.5150   21.3934 C   0  0  0  0  0  0  0  0  0  0  0  0
    7.6602  -14.1575   20.8718 C   0  0  0  0  0  0  0  0  0  0  0  0
    6.9698  -13.9925   19.6868 C   0  0  0  0  0  0  0  0  0  0  0  0
    6.7771  -12.7031   19.2381 C   0  0  0  0  0  0  0  0  0  0  0  0
    7.2615  -11.6278   19.9567 C   0  0  0  0  0  0  0  0  0  0  0  0
    7.9502  -11.7880   21.1384 C   0  0  0  0  0  0  0  0  0  0  0  0
    8.1419  -13.0789   21.5857 C   0  0  0  0  0  0  0  0  0  0  0  0
    9.8184  -17.0404   21.8437 C   0  0  0  0  0  0  0  0  0  0  0  0
    9.4914  -18.2652   21.9066 O   0  0  0  0  0  0  0  0  0  0  0  0
   14.6216  -17.1567   25.7144 N   0  0  0  0  0  0  0  0  0  0  0  0
   13.7464  -17.6280   24.7109 C   0  0  0  0  0  0  0  0  0  0  0  0
   13.6833  -18.8932   24.5834 O   0  0  0  0  0  0  0  0  0  0  0  0
   12.9412  -16.7652   23.8463 C   0  0  0  0  0  0  0  0  0  0  0  0
   11.5538  -17.2364   23.5772 C   0  0  2  0  0  0  0  0  0  0  0  0
   10.8050  -16.4593   22.6494 N   0  0  0  0  0  0  0  0  0  0  0  0
   10.8533  -17.4311   24.8743 C   0  0  0  0  0  0  0  0  0  0  0  0
   10.5594  -16.3686   25.5078 O   0  0  0  0  0  0  0  0  0  0  0  0
    4.7744  -23.1298   27.2576 N   0  0  0  0  0  0  0  0  0  0  0  0
    6.1143  -23.2381   26.7341 C   0  0  0  0  0  0  0  0  0  0  0  0
    6.4316  -24.2298   25.9448 N   0  0  0  0  0  0  0  0  0  0  0  0
    7.1134  -22.2890   27.0526 N   0  0  0  0  0  0  0  0  0  0  0  0
    6.8000  -21.0008   27.6223 C   0  0  0  0  0  0  0  0  0  0  0  0
    8.0882  -20.1832   27.8360 C   0  0  0  0  0  0  0  0  0  0  0  0
    8.7751  -19.9176   26.5436 C   0  0  0  0  0  0  0  0  0  0  0  0
    9.8235  -18.8380   26.6649 C   0  0  2  0  0  0  0  0  0  0  0  0
   10.5272  -18.6929   25.3884 N   0  0  0  0  0  0  0  0  0  0  0  0
   10.7742  -19.0338   27.7680 C   0  0  0  0  0  0  0  0  0  0  0  0
   10.4326  -18.7293   29.1047 O   0  0  0  0  0  0  0  0  0  0  0  0
   11.9368  -19.4748   27.6249 O   0  0  0  0  0  0  0  0  0  0  0  0
  2  1  1  6
  3  2  1  0
  4  3  1  0
  4  5  2  0
  6  5  1  0
  7  6  2  0
  8  9  2  0
  8  7  1  0
  9  4  1  0
 10  2  1  0
 11 10  2  0
 13 12  1  0
 14 13  2  0
 15 13  1  0
 16 17  1  0
 16 15  1  1
 17 10  1  0
 18 16  1  0
 19 18  2  0
 20 21  1  0
 21 22  2  0
 21 23  1  0
 23 24  1  0
 25 26  1  0
 25 24  1  0
 27 26  1  6
 27 28  1  0
 28 18  1  0
 29 30  1  0
 29 27  1  0
 31 29  2  0
M  END
$$$$
