FNR.pdb
     RDKit          3D

 31 31  0  0  1  0  0  0  0  0999 V2000
    9.6097  -16.1514   17.0667 N   0  0  0  0  0  0  0  0  0  0  0  0
   10.2452  -15.2656   18.0545 C   0  0  1  0  0  0  0  0  0  0  0  0
    9.4120  -15.3457   19.2910 C   0  0  0  0  0  0  0  0  0  0  0  0
    8.4405  -14.2524   19.4586 C   0  0  0  0  0  0  0  0  0  0  0  0
    8.8653  -13.0372   19.9597 C   0  0  0  0  0  0  0  0  0  0  0  0
    7.9213  -12.0417   20.0969 C   0  0  0  0  0  0  0  0  0  0  0  0
    6.6053  -12.2656   19.7427 C   0  0  0  0  0  0  0  0  0  0  0  0
    6.1778  -13.4755   19.2428 C   0  0  0  0  0  0  0  0  0  0  0  0
    7.1240  -14.4703   19.1062 C   0  0  0  0  0  0  0  0  0  0  0  0
   11.6639  -15.6534   18.2483 C   0  0  0  0  0  0  0  0  0  0  0  0
   11.9529  -16.8776   18.0786 O   0  0  0  0  0  0  0  0  0  0  0  0
   17.1177  -14.8133   17.7607 N   0  0  0  0  0  0  0  0  0  0  0  0
   16.3493  -14.2210   18.7873 C   0  0  0  0  0  0  0  0  0  0  0  0
   16.9666  -13.9936   19.8774 O   0  0  0  0  0  0  0  0  0  0  0  0
   14.9345  -13.8705   18.6616 C   0  0  0  0  0  0  0  0  0  0  0  0
   13.9760  -15.0044   18.7847 C   0  0  2  0  0  0  0  0  0  0  0  0
   12.6031  -14.6772   18.6017 N   0  0  0  0  0  0  0  0  0  0  0  0
   14.2402  -15.7194   20.0614 C   0  0  0  0  0  0  0  0  0  0  0  0
   13.8412  -15.1317   21.1159 O   0  0  0  0  0  0  0  0  0  0  0  0
   13.6085  -22.6625   23.1569 N   0  0  0  0  0  0  0  0  0  0  0  0
   14.8665  -22.6895   23.8624 C   0  0  0  0  0  0  0  0  0  0  0  0
   14.9553  -23.2855   25.0217 N   0  0  0  0  0  0  0  0  0  0  0  0
   16.0276  -22.0813   23.3310 N   0  0  0  0  0  0  0  0  0  0  0  0
   16.0070  -21.3184   22.1063 C   0  0  0  0  0  0  0  0  0  0  0  0
   15.7286  -19.8331   22.4064 C   0  0  0  0  0  0  0  0  0  0  0  0
   15.5903  -19.0491   21.1500 C   0  0  0  0  0  0  0  0  0  0  0  0
   15.0996  -17.6441   21.4042 C   0  0  2  0  0  0  0  0  0  0  0  0
   14.8857  -16.9611   20.1261 N   0  0  0  0  0  0  0  0  0  0  0  0
   15.9641  -16.8475   22.2857 C   0  0  0  0  0  0  0  0  0  0  0  0
   17.2254  -16.3753   21.8587 O   0  0  0  0  0  0  0  0  0  0  0  0
   15.6680  -16.5263   23.4587 O   0  0  0  0  0  0  0  0  0  0  0  0
  2  1  1  6
  3  2  1  0
  4  3  1  0
  4  5  2  0
  6  5  1  0
  7  6  2  0
  8  9  2  0
  8  7  1  0
  9  4  1  0
 10  2  1  0
 11 10  2  0
 13 12  1  0
 14 13  2  0
 15 13  1  0
 16 17  1  0
 16 15  1  1
 17 10  1  0
 18 16  1  0
 19 18  2  0
 20 21  1  0
 21 22  2  0
 21 23  1  0
 23 24  1  0
 25 26  1  0
 25 24  1  0
 27 26  1  6
 27 28  1  0
 28 18  1  0
 29 30  1  0
 29 27  1  0
 31 29  2  0
M  END
$$$$
