FNR.pdb
     RDKit          3D

 31 31  0  0  1  0  0  0  0  0999 V2000
    6.3242  -15.6555   25.3857 N   0  0  0  0  0  0  0  0  0  0  0  0
    7.7301  -15.2235   25.4150 C   0  0  1  0  0  0  0  0  0  0  0  0
    7.8943  -14.4045   26.6528 C   0  0  0  0  0  0  0  0  0  0  0  0
    7.0159  -13.2266   26.7405 C   0  0  0  0  0  0  0  0  0  0  0  0
    5.9707  -13.0907   25.8476 C   0  0  0  0  0  0  0  0  0  0  0  0
    5.1725  -11.9730   25.9691 C   0  0  0  0  0  0  0  0  0  0  0  0
    5.4208  -11.0339   26.9509 C   0  0  0  0  0  0  0  0  0  0  0  0
    6.4616  -11.1656   27.8429 C   0  0  0  0  0  0  0  0  0  0  0  0
    7.2590  -12.2847   27.7197 C   0  0  0  0  0  0  0  0  0  0  0  0
    8.6271  -16.4027   25.3400 C   0  0  0  0  0  0  0  0  0  0  0  0
    9.8287  -16.2349   25.7127 O   0  0  0  0  0  0  0  0  0  0  0  0
    8.1141  -20.4055   27.3305 N   0  0  0  0  0  0  0  0  0  0  0  0
    7.5468  -20.2936   26.0418 C   0  0  0  0  0  0  0  0  0  0  0  0
    6.2783  -20.3883   25.9871 O   0  0  0  0  0  0  0  0  0  0  0  0
    8.3174  -20.0822   24.8163 C   0  0  0  0  0  0  0  0  0  0  0  0
    8.9724  -18.7503   24.6883 C   0  0  2  0  0  0  0  0  0  0  0  0
    8.1239  -17.6227   24.8726 N   0  0  0  0  0  0  0  0  0  0  0  0
    9.7283  -18.7086   23.4084 C   0  0  0  0  0  0  0  0  0  0  0  0
    9.1580  -19.2557   22.4125 O   0  0  0  0  0  0  0  0  0  0  0  0
    8.9996  -14.4010   18.0333 N   0  0  0  0  0  0  0  0  0  0  0  0
    8.4209  -13.7261   19.1694 C   0  0  0  0  0  0  0  0  0  0  0  0
    8.4533  -12.4220   19.2437 N   0  0  0  0  0  0  0  0  0  0  0  0
    7.8086  -14.4424   20.2242 N   0  0  0  0  0  0  0  0  0  0  0  0
    8.2887  -15.7307   20.6622 C   0  0  0  0  0  0  0  0  0  0  0  0
    9.8223  -15.7083   20.8079 C   0  0  0  0  0  0  0  0  0  0  0  0
   10.2350  -16.0767   22.1887 C   0  0  0  0  0  0  0  0  0  0  0  0
   11.2804  -17.1660   22.2011 C   0  0  2  0  0  0  0  0  0  0  0  0
   10.9894  -18.1117   23.2813 N   0  0  0  0  0  0  0  0  0  0  0  0
   12.6645  -16.6805   22.2885 C   0  0  0  0  0  0  0  0  0  0  0  0
   13.3788  -16.2651   21.1425 O   0  0  0  0  0  0  0  0  0  0  0  0
   13.3140  -16.5947   23.3550 O   0  0  0  0  0  0  0  0  0  0  0  0
  2  1  1  1
  3  2  1  0
  4  3  1  0
  4  5  2  0
  6  5  1  0
  7  6  2  0
  8  9  2  0
  8  7  1  0
  9  4  1  0
 10  2  1  0
 11 10  2  0
 13 12  1  0
 14 13  2  0
 15 13  1  0
 16 17  1  0
 16 15  1  6
 17 10  1  0
 18 16  1  0
 19 18  2  0
 20 21  1  0
 21 22  2  0
 21 23  1  0
 23 24  1  0
 25 26  1  0
 25 24  1  0
 27 26  1  1
 27 28  1  0
 28 18  1  0
 29 30  1  0
 29 27  1  0
 31 29  2  0
M  END
$$$$
