FNR.pdb
     RDKit          3D

 31 31  0  0  1  0  0  0  0  0999 V2000
    7.4909  -14.4343   19.3795 N   0  0  0  0  0  0  0  0  0  0  0  0
    8.0148  -14.0855   20.7091 C   0  0  1  0  0  0  0  0  0  0  0  0
    6.8485  -13.6093   21.5108 C   0  0  0  0  0  0  0  0  0  0  0  0
    7.1393  -13.3293   22.9264 C   0  0  0  0  0  0  0  0  0  0  0  0
    7.7724  -12.1505   23.2695 C   0  0  0  0  0  0  0  0  0  0  0  0
    8.0220  -11.9295   24.6074 C   0  0  0  0  0  0  0  0  0  0  0  0
    7.6476  -12.8602   25.5566 C   0  0  0  0  0  0  0  0  0  0  0  0
    7.0163  -14.0366   25.2187 C   0  0  0  0  0  0  0  0  0  0  0  0
    6.7674  -14.2557   23.8795 C   0  0  0  0  0  0  0  0  0  0  0  0
    8.7262  -15.2469   21.2971 C   0  0  0  0  0  0  0  0  0  0  0  0
    8.2929  -16.4003   20.9922 O   0  0  0  0  0  0  0  0  0  0  0  0
   13.9839  -17.2091   23.5211 N   0  0  0  0  0  0  0  0  0  0  0  0
   12.7872  -17.2801   22.7742 C   0  0  0  0  0  0  0  0  0  0  0  0
   12.3758  -18.4537   22.5013 O   0  0  0  0  0  0  0  0  0  0  0  0
   12.0286  -16.1153   22.3182 C   0  0  0  0  0  0  0  0  0  0  0  0
   10.5795  -16.1137   22.6642 C   0  0  2  0  0  0  0  0  0  0  0  0
    9.8198  -15.0288   22.1436 N   0  0  0  0  0  0  0  0  0  0  0  0
   10.4376  -16.2723   24.1358 C   0  0  0  0  0  0  0  0  0  0  0  0
   11.2433  -15.5903   24.8447 O   0  0  0  0  0  0  0  0  0  0  0  0
    7.8735  -20.2331   23.6596 N   0  0  0  0  0  0  0  0  0  0  0  0
    6.5563  -20.2513   24.2475 C   0  0  0  0  0  0  0  0  0  0  0  0
    5.6482  -21.0751   23.7960 N   0  0  0  0  0  0  0  0  0  0  0  0
    6.2094  -19.3915   25.3156 N   0  0  0  0  0  0  0  0  0  0  0  0
    6.1281  -17.9595   25.1579 C   0  0  0  0  0  0  0  0  0  0  0  0
    6.9850  -17.2545   26.2267 C   0  0  0  0  0  0  0  0  0  0  0  0
    8.1941  -18.0551   26.5581 C   0  0  0  0  0  0  0  0  0  0  0  0
    9.4711  -17.3469   26.1748 C   0  0  2  0  0  0  0  0  0  0  0  0
    9.4863  -17.1126   24.7289 N   0  0  0  0  0  0  0  0  0  0  0  0
   10.6987  -18.0281   26.6082 C   0  0  0  0  0  0  0  0  0  0  0  0
   11.4946  -18.7684   25.7056 O   0  0  0  0  0  0  0  0  0  0  0  0
   11.1351  -18.0131   27.7812 O   0  0  0  0  0  0  0  0  0  0  0  0
  2  1  1  6
  3  2  1  0
  4  3  1  0
  4  5  2  0
  6  5  1  0
  7  6  2  0
  8  9  2  0
  8  7  1  0
  9  4  1  0
 10  2  1  0
 11 10  2  0
 13 12  1  0
 14 13  2  0
 15 13  1  0
 16 17  1  0
 16 15  1  1
 17 10  1  0
 18 16  1  0
 19 18  2  0
 20 21  1  0
 21 22  2  0
 21 23  1  0
 23 24  1  0
 25 26  1  0
 25 24  1  0
 27 26  1  6
 27 28  1  0
 28 18  1  0
 29 30  1  0
 29 27  1  0
 31 29  2  0
M  END
$$$$
