FNR.pdb
     RDKit          3D

 31 31  0  0  1  0  0  0  0  0999 V2000
    6.4239  -16.0975   25.5666 N   0  0  0  0  0  0  0  0  0  0  0  0
    6.7855  -15.0456   24.6038 C   0  0  1  0  0  0  0  0  0  0  0  0
    7.8135  -14.1950   25.2742 C   0  0  0  0  0  0  0  0  0  0  0  0
    7.2761  -13.1708   26.1847 C   0  0  0  0  0  0  0  0  0  0  0  0
    7.9072  -12.9355   27.3907 C   0  0  0  0  0  0  0  0  0  0  0  0
    7.3702  -11.9653   28.2101 C   0  0  0  0  0  0  0  0  0  0  0  0
    6.2442  -11.2638   27.8263 C   0  0  0  0  0  0  0  0  0  0  0  0
    5.6120  -11.4953   26.6249 C   0  0  0  0  0  0  0  0  0  0  0  0
    6.1510  -12.4664   25.8065 C   0  0  0  0  0  0  0  0  0  0  0  0
    7.2352  -15.6551   23.3283 C   0  0  0  0  0  0  0  0  0  0  0  0
    7.7263  -16.8238   23.3919 O   0  0  0  0  0  0  0  0  0  0  0  0
    8.9090  -16.1270   18.4029 N   0  0  0  0  0  0  0  0  0  0  0  0
    8.2187  -14.9017   18.5340 C   0  0  0  0  0  0  0  0  0  0  0  0
    8.1161  -14.2094   17.4704 O   0  0  0  0  0  0  0  0  0  0  0  0
    7.6391  -14.4107   19.7843 C   0  0  0  0  0  0  0  0  0  0  0  0
    7.8619  -15.2712   20.9799 C   0  0  2  0  0  0  0  0  0  0  0  0
    7.1027  -14.9341   22.1355 N   0  0  0  0  0  0  0  0  0  0  0  0
    9.3226  -15.3546   21.2453 C   0  0  0  0  0  0  0  0  0  0  0  0
    9.8309  -14.3599   21.8524 O   0  0  0  0  0  0  0  0  0  0  0  0
   10.6449  -21.5005   26.2195 N   0  0  0  0  0  0  0  0  0  0  0  0
   11.4504  -20.4556   26.8030 C   0  0  0  0  0  0  0  0  0  0  0  0
   11.9636  -20.6114   27.9944 N   0  0  0  0  0  0  0  0  0  0  0  0
   11.7076  -19.2466   26.1155 N   0  0  0  0  0  0  0  0  0  0  0  0
   10.7445  -18.6462   25.2243 C   0  0  0  0  0  0  0  0  0  0  0  0
   11.4496  -18.0866   23.9740 C   0  0  0  0  0  0  0  0  0  0  0  0
   10.4647  -17.5398   23.0027 C   0  0  0  0  0  0  0  0  0  0  0  0
   11.1277  -17.0061   21.7557 C   0  0  2  0  0  0  0  0  0  0  0  0
   10.1110  -16.4472   20.8613 N   0  0  0  0  0  0  0  0  0  0  0  0
   11.9687  -17.9814   21.0483 C   0  0  0  0  0  0  0  0  0  0  0  0
   13.2790  -18.2837   21.4818 O   0  0  0  0  0  0  0  0  0  0  0  0
   11.6089  -18.6122   20.0288 O   0  0  0  0  0  0  0  0  0  0  0  0
  2  1  1  1
  3  2  1  0
  4  3  1  0
  4  5  2  0
  6  5  1  0
  7  6  2  0
  8  9  2  0
  8  7  1  0
  9  4  1  0
 10  2  1  0
 11 10  2  0
 13 12  1  0
 14 13  2  0
 15 13  1  0
 16 17  1  0
 16 15  1  6
 17 10  1  0
 18 16  1  0
 19 18  2  0
 20 21  1  0
 21 22  2  0
 21 23  1  0
 23 24  1  0
 25 26  1  0
 25 24  1  0
 27 26  1  1
 27 28  1  0
 28 18  1  0
 29 30  1  0
 29 27  1  0
 31 29  2  0
M  END
$$$$
