FNR.pdb
     RDKit          3D

 31 31  0  0  1  0  0  0  0  0999 V2000
    6.2797  -17.3702   25.7873 N   0  0  0  0  0  0  0  0  0  0  0  0
    6.3248  -16.8747   24.4028 C   0  0  1  0  0  0  0  0  0  0  0  0
    5.7053  -15.5162   24.4203 C   0  0  0  0  0  0  0  0  0  0  0  0
    6.4973  -14.4798   25.1027 C   0  0  0  0  0  0  0  0  0  0  0  0
    7.3466  -13.6783   24.3648 C   0  0  0  0  0  0  0  0  0  0  0  0
    8.0665  -12.7195   25.0456 C   0  0  0  0  0  0  0  0  0  0  0  0
    7.9330  -12.5776   26.4129 C   0  0  0  0  0  0  0  0  0  0  0  0
    7.0874  -13.3746   27.1521 C   0  0  0  0  0  0  0  0  0  0  0  0
    6.3680  -14.3334   26.4690 C   0  0  0  0  0  0  0  0  0  0  0  0
    7.7190  -16.9032   23.8968 C   0  0  0  0  0  0  0  0  0  0  0  0
    8.5932  -17.4300   24.6512 O   0  0  0  0  0  0  0  0  0  0  0  0
    7.5644  -18.5377   19.9754 N   0  0  0  0  0  0  0  0  0  0  0  0
    7.9978  -17.2223   19.6983 C   0  0  0  0  0  0  0  0  0  0  0  0
    7.3880  -16.6282   18.7516 O   0  0  0  0  0  0  0  0  0  0  0  0
    9.0713  -16.5380   20.4192 C   0  0  0  0  0  0  0  0  0  0  0  0
    9.1318  -16.7985   21.8848 C   0  0  2  0  0  0  0  0  0  0  0  0
    8.0066  -16.3611   22.6384 N   0  0  0  0  0  0  0  0  0  0  0  0
   10.4230  -16.2817   22.4109 C   0  0  0  0  0  0  0  0  0  0  0  0
   10.7347  -15.1035   22.0486 O   0  0  0  0  0  0  0  0  0  0  0  0
    9.1189  -14.8716   28.1584 N   0  0  0  0  0  0  0  0  0  0  0  0
   10.2501  -15.3787   28.8961 C   0  0  0  0  0  0  0  0  0  0  0  0
   10.6999  -14.7277   29.9358 N   0  0  0  0  0  0  0  0  0  0  0  0
   10.8996  -16.5789   28.5245 N   0  0  0  0  0  0  0  0  0  0  0  0
   12.0025  -16.6029   27.5943 C   0  0  0  0  0  0  0  0  0  0  0  0
   11.5146  -17.0340   26.1979 C   0  0  0  0  0  0  0  0  0  0  0  0
   12.6500  -17.1414   25.2429 C   0  0  0  0  0  0  0  0  0  0  0  0
   12.3850  -16.4004   23.9545 C   0  0  2  0  0  0  0  0  0  0  0  0
   11.2610  -17.0247   23.2526 N   0  0  0  0  0  0  0  0  0  0  0  0
   13.5525  -16.2792   23.0707 C   0  0  0  0  0  0  0  0  0  0  0  0
   14.5683  -15.3267   23.3096 O   0  0  0  0  0  0  0  0  0  0  0  0
   13.7446  -16.9886   22.0575 O   0  0  0  0  0  0  0  0  0  0  0  0
  2  1  1  1
  3  2  1  0
  4  3  1  0
  4  5  2  0
  6  5  1  0
  7  6  2  0
  8  9  2  0
  8  7  1  0
  9  4  1  0
 10  2  1  0
 11 10  2  0
 13 12  1  0
 14 13  2  0
 15 13  1  0
 16 17  1  0
 16 15  1  6
 17 10  1  0
 18 16  1  0
 19 18  2  0
 20 21  1  0
 21 22  2  0
 21 23  1  0
 23 24  1  0
 25 26  1  0
 25 24  1  0
 27 26  1  1
 27 28  1  0
 28 18  1  0
 29 30  1  0
 29 27  1  0
 31 29  2  0
M  END
$$$$
