FNR.pdb
     RDKit          3D

 31 31  0  0  1  0  0  0  0  0999 V2000
    8.1161  -15.4147   21.1400 N   0  0  0  0  0  0  0  0  0  0  0  0
    8.2873  -14.9826   22.5358 C   0  0  1  0  0  0  0  0  0  0  0  0
    6.9194  -14.6888   23.0575 C   0  0  0  0  0  0  0  0  0  0  0  0
    6.8756  -14.1850   24.4400 C   0  0  0  0  0  0  0  0  0  0  0  0
    6.3899  -14.9992   25.4446 C   0  0  0  0  0  0  0  0  0  0  0  0
    6.3703  -14.4864   26.7243 C   0  0  0  0  0  0  0  0  0  0  0  0
    6.8223  -13.2060   26.9767 C   0  0  0  0  0  0  0  0  0  0  0  0
    7.3073  -12.3911   25.9780 C   0  0  0  0  0  0  0  0  0  0  0  0
    7.3261  -12.9062   24.6983 C   0  0  0  0  0  0  0  0  0  0  0  0
    9.0238  -16.0170   23.3027 C   0  0  0  0  0  0  0  0  0  0  0  0
    8.8135  -17.2273   22.9832 O   0  0  0  0  0  0  0  0  0  0  0  0
   12.5207  -14.7351   26.2297 N   0  0  0  0  0  0  0  0  0  0  0  0
   12.9224  -15.8439   25.4523 C   0  0  0  0  0  0  0  0  0  0  0  0
   14.1779  -15.9773   25.2885 O   0  0  0  0  0  0  0  0  0  0  0  0
   12.0004  -16.8076   24.8509 C   0  0  0  0  0  0  0  0  0  0  0  0
   10.5562  -16.5863   25.1419 C   0  0  2  0  0  0  0  0  0  0  0  0
    9.8996  -15.6257   24.3225 N   0  0  0  0  0  0  0  0  0  0  0  0
   10.3952  -16.3204   26.5960 C   0  0  0  0  0  0  0  0  0  0  0  0
   11.2325  -15.5102   27.1050 O   0  0  0  0  0  0  0  0  0  0  0  0
    7.7374  -18.2503   23.3296 N   0  0  0  0  0  0  0  0  0  0  0  0
    6.5889  -18.7077   24.0730 C   0  0  0  0  0  0  0  0  0  0  0  0
    5.3834  -18.4730   23.6272 N   0  0  0  0  0  0  0  0  0  0  0  0
    6.7273  -19.4148   25.2902 N   0  0  0  0  0  0  0  0  0  0  0  0
    8.0006  -19.5708   25.9509 C   0  0  0  0  0  0  0  0  0  0  0  0
    7.8844  -19.1756   27.4355 C   0  0  0  0  0  0  0  0  0  0  0  0
    9.2103  -19.2221   28.1080 C   0  0  0  0  0  0  0  0  0  0  0  0
    9.7221  -17.8455   28.4580 C   0  0  2  0  0  0  0  0  0  0  0  0
    9.3944  -16.9117   27.3779 N   0  0  0  0  0  0  0  0  0  0  0  0
   11.1547  -17.7922   28.7800 C   0  0  0  0  0  0  0  0  0  0  0  0
   11.6474  -17.0036   29.8437 O   0  0  0  0  0  0  0  0  0  0  0  0
   12.0395  -18.4226   28.1583 O   0  0  0  0  0  0  0  0  0  0  0  0
  2  1  1  6
  3  2  1  0
  4  3  1  0
  4  5  2  0
  6  5  1  0
  7  6  2  0
  8  9  2  0
  8  7  1  0
  9  4  1  0
 10  2  1  0
 11 10  2  0
 13 12  1  0
 14 13  2  0
 15 13  1  0
 16 17  1  0
 16 15  1  6
 17 10  1  0
 18 16  1  0
 19 18  2  0
 20 21  1  0
 21 22  2  0
 21 23  1  0
 23 24  1  0
 25 26  1  0
 25 24  1  0
 27 26  1  6
 27 28  1  0
 28 18  1  0
 29 30  1  0
 29 27  1  0
 31 29  2  0
M  END
$$$$
