FNR.pdb
     RDKit          3D

 31 31  0  0  1  0  0  0  0  0999 V2000
    6.4057  -14.1080   23.6494 N   0  0  0  0  0  0  0  0  0  0  0  0
    7.0171  -15.3027   23.0468 C   0  0  1  0  0  0  0  0  0  0  0  0
    8.1960  -14.8248   22.2649 C   0  0  0  0  0  0  0  0  0  0  0  0
    7.8716  -13.9799   21.1040 C   0  0  0  0  0  0  0  0  0  0  0  0
    7.1077  -14.5003   20.0774 C   0  0  0  0  0  0  0  0  0  0  0  0
    6.8265  -13.6718   19.0118 C   0  0  0  0  0  0  0  0  0  0  0  0
    7.2974  -12.3737   18.9858 C   0  0  0  0  0  0  0  0  0  0  0  0
    8.0592  -11.8511   20.0071 C   0  0  0  0  0  0  0  0  0  0  0  0
    8.3393  -12.6817   21.0724 C   0  0  0  0  0  0  0  0  0  0  0  0
    7.3448  -16.2939   24.1007 C   0  0  0  0  0  0  0  0  0  0  0  0
    7.8133  -15.8406   25.1898 O   0  0  0  0  0  0  0  0  0  0  0  0
    7.2909  -21.4471   26.6971 N   0  0  0  0  0  0  0  0  0  0  0  0
    7.7941  -21.0171   25.4493 C   0  0  0  0  0  0  0  0  0  0  0  0
    8.8767  -21.5700   25.0706 O   0  0  0  0  0  0  0  0  0  0  0  0
    7.1553  -20.0070   24.6055 C   0  0  0  0  0  0  0  0  0  0  0  0
    7.7850  -18.6570   24.6270 C   0  0  2  0  0  0  0  0  0  0  0  0
    7.1293  -17.6557   23.8571 N   0  0  0  0  0  0  0  0  0  0  0  0
    9.2281  -18.7956   24.2963 C   0  0  0  0  0  0  0  0  0  0  0  0
    9.4886  -19.3647   23.1896 O   0  0  0  0  0  0  0  0  0  0  0  0
   12.6340  -16.8756   20.1223 N   0  0  0  0  0  0  0  0  0  0  0  0
   12.4398  -15.4534   20.2660 C   0  0  0  0  0  0  0  0  0  0  0  0
   12.5505  -14.6684   19.2274 N   0  0  0  0  0  0  0  0  0  0  0  0
   12.1276  -14.8705   21.5163 N   0  0  0  0  0  0  0  0  0  0  0  0
   12.6262  -15.4027   22.7614 C   0  0  0  0  0  0  0  0  0  0  0  0
   11.9031  -16.7182   23.1081 C   0  0  0  0  0  0  0  0  0  0  0  0
   12.2959  -17.2064   24.4571 C   0  0  0  0  0  0  0  0  0  0  0  0
   11.6645  -18.5369   24.7896 C   0  0  2  0  0  0  0  0  0  0  0  0
   10.2544  -18.3377   25.1329 N   0  0  0  0  0  0  0  0  0  0  0  0
   12.3578  -19.2941   25.8407 C   0  0  0  0  0  0  0  0  0  0  0  0
   11.7850  -19.4849   27.1182 O   0  0  0  0  0  0  0  0  0  0  0  0
   13.4842  -19.8216   25.7013 O   0  0  0  0  0  0  0  0  0  0  0  0
  2  1  1  1
  3  2  1  0
  4  3  1  0
  4  5  2  0
  6  5  1  0
  7  6  2  0
  8  9  2  0
  8  7  1  0
  9  4  1  0
 10  2  1  0
 11 10  2  0
 13 12  1  0
 14 13  2  0
 15 13  1  0
 16 17  1  0
 16 15  1  6
 17 10  1  0
 18 16  1  0
 19 18  2  0
 20 21  1  0
 21 22  2  0
 21 23  1  0
 23 24  1  0
 25 26  1  0
 25 24  1  0
 27 26  1  1
 27 28  1  0
 28 18  1  0
 29 30  1  0
 29 27  1  0
 31 29  2  0
M  END
$$$$
