MYN.pdb
     RDKit          3D

 29 29  0  0  1  0  0  0  0  0999 V2000
   27.0460  -15.9032  -14.5902 C   0  0  0  0  0  0  0  0  0  0  0  0
   28.3689  -16.6799  -15.5159 S   0  0  0  0  0  0  0  0  0  0  0  0
   28.2007  -18.3998  -15.8667 C   0  0  0  0  0  0  0  0  0  0  0  0
   27.1740  -19.1942  -15.1448 C   0  0  0  0  0  0  0  0  0  0  0  0
   27.6131  -20.2153  -14.1682 C   0  0  2  0  0  0  0  0  0  0  0  0
   28.4575  -21.2491  -14.6834 N   0  0  0  0  0  0  0  0  0  0  0  0
   26.4845  -20.8693  -13.4567 C   0  0  0  0  0  0  0  0  0  0  0  0
   25.8965  -21.8660  -13.9152 O   0  0  0  0  0  0  0  0  0  0  0  0
   30.2093  -20.9627   -7.9519 O   0  0  0  0  0  0  0  0  0  0  0  0
   28.9121  -20.8301   -8.4418 C   0  0  0  0  0  0  0  0  0  0  0  0
   27.9769  -20.0720   -7.7792 C   0  0  0  0  0  0  0  0  0  0  0  0
   26.6665  -19.9270   -8.2571 C   0  0  0  0  0  0  0  0  0  0  0  0
   26.2594  -20.5389   -9.4134 C   0  0  0  0  0  0  0  0  0  0  0  0
   24.8933  -20.4339  -10.0068 C   0  0  0  0  0  0  0  0  0  0  0  0
   24.8911  -20.7454  -11.4959 C   0  0  2  0  0  0  0  0  0  0  0  0
   26.0540  -20.3450  -12.2072 N   0  0  0  0  0  0  0  0  0  0  0  0
   23.6069  -20.2848  -12.0500 C   0  0  0  0  0  0  0  0  0  0  0  0
   23.5930  -19.2907  -12.8172 O   0  0  0  0  0  0  0  0  0  0  0  0
   27.2271  -21.3123  -10.0816 C   0  0  0  0  0  0  0  0  0  0  0  0
   28.5085  -21.4487   -9.6057 C   0  0  0  0  0  0  0  0  0  0  0  0
   20.5536  -19.7631  -15.4966 N   0  0  0  0  0  0  0  0  0  0  0  0
   21.6169  -20.6297  -15.0865 C   0  0  0  0  0  0  0  0  0  0  0  0
   22.7140  -20.6224  -15.6626 O   0  0  0  0  0  0  0  0  0  0  0  0
   21.3845  -21.5541  -13.9417 C   0  0  0  0  0  0  0  0  0  0  0  0
   21.2216  -20.8541  -12.6382 C   0  0  2  0  0  0  0  0  0  0  0  0
   22.3537  -20.9084  -11.7649 N   0  0  0  0  0  0  0  0  0  0  0  0
   20.0605  -21.4749  -11.9263 C   0  0  0  0  0  0  0  0  0  0  0  0
   20.2226  -22.4253  -11.1132 O   0  0  0  0  0  0  0  0  0  0  0  0
   18.7543  -21.0335  -12.1284 O   0  0  0  0  0  0  0  0  0  0  0  0
  2  1  1  0
  3  2  1  0
  4  3  1  0
  5  4  1  0
  5  6  1  6
  7 16  1  0
  7  5  1  0
  8  7  2  0
  9 10  1  0
 10 11  2  0
 11 12  1  0
 13 12  2  0
 13 14  1  0
 15 14  1  1
 15 16  1  0
 17 15  1  0
 17 26  1  0
 18 17  2  0
 19 13  1  0
 20 10  1  0
 20 19  2  0
 21 22  1  0
 22 24  1  0
 23 22  2  0
 25 24  1  6
 25 26  1  0
 25 27  1  0
 27 28  2  0
 27 29  1  0
M  END
$$$$
