MYN.pdb
     RDKit          3D

 29 29  0  0  1  0  0  0  0  0999 V2000
   31.0004  -15.1345  -19.0255 C   0  0  0  0  0  0  0  0  0  0  0  0
   29.6982  -15.8245  -18.0065 S   0  0  0  0  0  0  0  0  0  0  0  0
   28.2421  -14.8521  -17.7977 C   0  0  0  0  0  0  0  0  0  0  0  0
   27.1512  -15.3514  -16.9220 C   0  0  0  0  0  0  0  0  0  0  0  0
   27.0475  -16.8045  -16.6631 C   0  0  2  0  0  0  0  0  0  0  0  0
   26.9131  -17.6363  -17.8196 N   0  0  0  0  0  0  0  0  0  0  0  0
   25.9491  -17.1559  -15.7263 C   0  0  0  0  0  0  0  0  0  0  0  0
   25.7932  -16.5766  -14.6357 O   0  0  0  0  0  0  0  0  0  0  0  0
   18.2048  -20.4142  -12.8946 O   0  0  0  0  0  0  0  0  0  0  0  0
   19.3323  -20.1531  -13.6699 C   0  0  0  0  0  0  0  0  0  0  0  0
   20.3569  -21.0642  -13.7624 C   0  0  0  0  0  0  0  0  0  0  0  0
   21.4994  -20.8189  -14.5377 C   0  0  0  0  0  0  0  0  0  0  0  0
   21.6442  -19.6524  -15.2415 C   0  0  0  0  0  0  0  0  0  0  0  0
   22.8145  -19.3071  -16.1021 C   0  0  0  0  0  0  0  0  0  0  0  0
   23.9083  -18.5946  -15.3207 C   0  0  2  0  0  0  0  0  0  0  0  0
   25.0388  -18.1893  -16.0799 N   0  0  0  0  0  0  0  0  0  0  0  0
   24.1939  -19.3927  -14.1166 C   0  0  0  0  0  0  0  0  0  0  0  0
   23.2523  -19.6850  -13.3389 O   0  0  0  0  0  0  0  0  0  0  0  0
   20.5877  -18.7282  -15.1377 C   0  0  0  0  0  0  0  0  0  0  0  0
   19.4723  -18.9772  -14.3754 C   0  0  0  0  0  0  0  0  0  0  0  0
   25.5264  -20.4091   -8.8870 N   0  0  0  0  0  0  0  0  0  0  0  0
   25.4628  -21.0383  -10.1715 C   0  0  0  0  0  0  0  0  0  0  0  0
   25.6931  -22.2480  -10.3098 O   0  0  0  0  0  0  0  0  0  0  0  0
   25.1110  -20.2082  -11.3574 C   0  0  0  0  0  0  0  0  0  0  0  0
   25.7759  -20.6549  -12.6120 C   0  0  2  0  0  0  0  0  0  0  0  0
   25.4975  -19.8638  -13.7712 N   0  0  0  0  0  0  0  0  0  0  0  0
   25.3311  -22.0562  -12.8928 C   0  0  0  0  0  0  0  0  0  0  0  0
   24.1236  -22.3229  -13.1410 O   0  0  0  0  0  0  0  0  0  0  0  0
   26.2259  -23.1243  -12.8927 O   0  0  0  0  0  0  0  0  0  0  0  0
  2  1  1  0
  3  2  1  0
  4  3  1  0
  5  4  1  0
  5  6  1  6
  7 16  1  0
  7  5  1  0
  8  7  2  0
  9 10  1  0
 10 11  2  0
 11 12  1  0
 13 12  2  0
 13 14  1  0
 15 14  1  6
 15 16  1  0
 17 15  1  0
 17 26  1  0
 18 17  2  0
 19 13  1  0
 20 10  1  0
 20 19  2  0
 21 22  1  0
 22 24  1  0
 23 22  2  0
 25 24  1  1
 25 26  1  0
 25 27  1  0
 27 28  2  0
 27 29  1  0
M  END
$$$$
