MYN.pdb
     RDKit          3D

 29 29  0  0  1  0  0  0  0  0999 V2000
   27.2687  -17.1982  -15.1057 C   0  0  0  0  0  0  0  0  0  0  0  0
   27.2631  -15.4197  -15.3229 S   0  0  0  0  0  0  0  0  0  0  0  0
   25.7164  -14.6624  -15.7018 C   0  0  0  0  0  0  0  0  0  0  0  0
   25.6273  -13.1814  -15.7715 C   0  0  0  0  0  0  0  0  0  0  0  0
   25.2826  -12.5435  -17.0613 C   0  0  2  0  0  0  0  0  0  0  0  0
   26.0585  -12.9584  -18.1896 N   0  0  0  0  0  0  0  0  0  0  0  0
   25.3219  -11.0591  -17.0099 C   0  0  0  0  0  0  0  0  0  0  0  0
   26.3745  -10.4149  -17.1723 O   0  0  0  0  0  0  0  0  0  0  0  0
   24.0546   -2.5013  -17.0190 O   0  0  0  0  0  0  0  0  0  0  0  0
   24.1712   -3.8740  -17.2259 C   0  0  0  0  0  0  0  0  0  0  0  0
   23.4748   -4.5022  -18.2303 C   0  0  0  0  0  0  0  0  0  0  0  0
   23.5795   -5.8827  -18.4537 C   0  0  0  0  0  0  0  0  0  0  0  0
   24.3865   -6.6699  -17.6750 C   0  0  0  0  0  0  0  0  0  0  0  0
   24.5726   -8.1419  -17.8432 C   0  0  0  0  0  0  0  0  0  0  0  0
   24.0017   -8.9279  -16.6723 C   0  0  2  0  0  0  0  0  0  0  0  0
   24.1193  -10.3406  -16.7673 N   0  0  0  0  0  0  0  0  0  0  0  0
   22.6500   -8.4111  -16.3998 C   0  0  0  0  0  0  0  0  0  0  0  0
   21.7142   -8.7014  -17.1852 O   0  0  0  0  0  0  0  0  0  0  0  0
   25.0936   -6.0137  -16.6501 C   0  0  0  0  0  0  0  0  0  0  0  0
   24.9845   -4.6607  -16.4388 C   0  0  0  0  0  0  0  0  0  0  0  0
   18.4274   -6.3178  -14.3629 N   0  0  0  0  0  0  0  0  0  0  0  0
   18.8688   -7.5317  -13.7454 C   0  0  0  0  0  0  0  0  0  0  0  0
   18.1162   -8.1980  -13.0207 O   0  0  0  0  0  0  0  0  0  0  0  0
   20.2651   -7.9907  -13.9884 C   0  0  0  0  0  0  0  0  0  0  0  0
   21.0048   -7.1469  -14.9663 C   0  0  2  0  0  0  0  0  0  0  0  0
   22.3304   -7.5856  -15.2786 N   0  0  0  0  0  0  0  0  0  0  0  0
   21.0983   -5.7643  -14.4006 C   0  0  0  0  0  0  0  0  0  0  0  0
   22.1260   -5.3788  -13.7795 O   0  0  0  0  0  0  0  0  0  0  0  0
   20.0596   -4.8450  -14.5337 O   0  0  0  0  0  0  0  0  0  0  0  0
  2  1  1  0
  3  2  1  0
  4  3  1  0
  5  4  1  0
  5  6  1  6
  7 16  1  0
  7  5  1  0
  8  7  2  0
  9 10  1  0
 10 11  2  0
 11 12  1  0
 13 12  2  0
 13 14  1  0
 15 14  1  6
 15 16  1  0
 17 15  1  0
 17 26  1  0
 18 17  2  0
 19 13  1  0
 20 10  1  0
 20 19  2  0
 21 22  1  0
 22 24  1  0
 23 22  2  0
 25 24  1  1
 25 26  1  0
 25 27  1  0
 27 28  2  0
 27 29  1  0
M  END
$$$$
