MYN.pdb
     RDKit          3D

 29 29  0  0  1  0  0  0  0  0999 V2000
   28.0273  -20.7634  -23.0062 C   0  0  0  0  0  0  0  0  0  0  0  0
   27.6609  -21.1960  -21.3065 S   0  0  0  0  0  0  0  0  0  0  0  0
   26.0136  -21.7124  -20.9471 C   0  0  0  0  0  0  0  0  0  0  0  0
   25.6276  -21.9920  -19.5403 C   0  0  0  0  0  0  0  0  0  0  0  0
   25.3313  -20.8569  -18.6387 C   0  0  2  0  0  0  0  0  0  0  0  0
   26.3854  -19.9048  -18.4669 N   0  0  0  0  0  0  0  0  0  0  0  0
   24.8856  -21.2831  -17.2869 C   0  0  0  0  0  0  0  0  0  0  0  0
   24.0990  -22.2321  -17.1136 O   0  0  0  0  0  0  0  0  0  0  0  0
   23.7325  -21.2128   -8.5089 O   0  0  0  0  0  0  0  0  0  0  0  0
   24.2635  -20.9853   -9.7765 C   0  0  0  0  0  0  0  0  0  0  0  0
   25.3653  -21.6768  -10.2193 C   0  0  0  0  0  0  0  0  0  0  0  0
   25.9139  -21.4614  -11.4918 C   0  0  0  0  0  0  0  0  0  0  0  0
   25.3708  -20.5460  -12.3546 C   0  0  0  0  0  0  0  0  0  0  0  0
   25.8748  -20.2565  -13.7299 C   0  0  0  0  0  0  0  0  0  0  0  0
   24.9434  -20.7952  -14.8055 C   0  0  2  0  0  0  0  0  0  0  0  0
   25.3696  -20.5882  -16.1449 N   0  0  0  0  0  0  0  0  0  0  0  0
   23.5788  -20.3428  -14.4867 C   0  0  0  0  0  0  0  0  0  0  0  0
   23.2953  -19.1250  -14.6025 O   0  0  0  0  0  0  0  0  0  0  0  0
   24.2430  -19.8448  -11.8883 C   0  0  0  0  0  0  0  0  0  0  0  0
   23.7128  -20.0626  -10.6398 C   0  0  0  0  0  0  0  0  0  0  0  0
   18.7755  -18.4579  -14.5903 N   0  0  0  0  0  0  0  0  0  0  0  0
   19.0972  -19.8353  -14.8114 C   0  0  0  0  0  0  0  0  0  0  0  0
   18.2207  -20.7112  -14.8097 O   0  0  0  0  0  0  0  0  0  0  0  0
   20.5202  -20.2081  -15.0471 C   0  0  0  0  0  0  0  0  0  0  0  0
   21.1816  -20.8061  -13.8553 C   0  0  2  0  0  0  0  0  0  0  0  0
   22.5386  -21.2174  -14.0463 N   0  0  0  0  0  0  0  0  0  0  0  0
   20.3891  -22.0081  -13.4459 C   0  0  0  0  0  0  0  0  0  0  0  0
   19.4175  -21.9114  -12.6477 O   0  0  0  0  0  0  0  0  0  0  0  0
   20.6871  -23.2820  -13.9256 O   0  0  0  0  0  0  0  0  0  0  0  0
  2  1  1  0
  3  2  1  0
  4  3  1  0
  5  4  1  0
  5  6  1  1
  7 16  1  0
  7  5  1  0
  8  7  2  0
  9 10  1  0
 10 11  2  0
 11 12  1  0
 13 12  2  0
 13 14  1  0
 15 14  1  1
 15 16  1  0
 17 15  1  0
 17 26  1  0
 18 17  2  0
 19 13  1  0
 20 10  1  0
 20 19  2  0
 21 22  1  0
 22 24  1  0
 23 22  2  0
 25 24  1  6
 25 26  1  0
 25 27  1  0
 27 28  2  0
 27 29  1  0
M  END
$$$$
