MYN.pdb
     RDKit          3D

 29 29  0  0  1  0  0  0  0  0999 V2000
   30.2434  -20.9279  -19.9698 C   0  0  0  0  0  0  0  0  0  0  0  0
   28.9485  -22.1353  -20.2453 S   0  0  0  0  0  0  0  0  0  0  0  0
   28.9327  -23.5495  -19.1921 C   0  0  0  0  0  0  0  0  0  0  0  0
   28.3958  -23.4255  -17.8128 C   0  0  0  0  0  0  0  0  0  0  0  0
   27.4467  -22.3320  -17.5082 C   0  0  2  0  0  0  0  0  0  0  0  0
   27.9514  -21.0034  -17.6737 N   0  0  0  0  0  0  0  0  0  0  0  0
   26.8637  -22.4249  -16.1446 C   0  0  0  0  0  0  0  0  0  0  0  0
   26.3214  -23.4624  -15.7217 O   0  0  0  0  0  0  0  0  0  0  0  0
   24.6598  -20.5327   -7.7913 O   0  0  0  0  0  0  0  0  0  0  0  0
   25.2250  -20.4736   -9.0632 C   0  0  0  0  0  0  0  0  0  0  0  0
   24.7015  -19.6555  -10.0353 C   0  0  0  0  0  0  0  0  0  0  0  0
   25.2568  -19.5827  -11.3210 C   0  0  0  0  0  0  0  0  0  0  0  0
   26.3530  -20.3290  -11.6655 C   0  0  0  0  0  0  0  0  0  0  0  0
   27.0209  -20.3099  -13.0008 C   0  0  0  0  0  0  0  0  0  0  0  0
   26.2973  -21.1835  -14.0146 C   0  0  2  0  0  0  0  0  0  0  0  0
   26.9228  -21.2936  -15.2855 N   0  0  0  0  0  0  0  0  0  0  0  0
   24.8812  -20.7800  -14.0267 C   0  0  0  0  0  0  0  0  0  0  0  0
   24.5407  -19.7618  -14.6780 O   0  0  0  0  0  0  0  0  0  0  0  0
   26.8787  -21.1625  -10.6605 C   0  0  0  0  0  0  0  0  0  0  0  0
   26.3277  -21.2272   -9.4038 C   0  0  0  0  0  0  0  0  0  0  0  0
   19.2597  -22.9201  -13.8557 N   0  0  0  0  0  0  0  0  0  0  0  0
   20.2491  -22.0205  -14.3671 C   0  0  0  0  0  0  0  0  0  0  0  0
   19.9307  -20.9900  -14.9774 O   0  0  0  0  0  0  0  0  0  0  0  0
   21.6876  -22.3435  -14.1534 C   0  0  0  0  0  0  0  0  0  0  0  0
   22.4547  -21.2390  -13.5154 C   0  0  2  0  0  0  0  0  0  0  0  0
   23.8520  -21.4862  -13.3319 N   0  0  0  0  0  0  0  0  0  0  0  0
   21.8521  -20.9796  -12.1701 C   0  0  0  0  0  0  0  0  0  0  0  0
   20.6545  -20.6026  -12.0503 O   0  0  0  0  0  0  0  0  0  0  0  0
   22.5829  -21.1419  -10.9948 O   0  0  0  0  0  0  0  0  0  0  0  0
  2  1  1  0
  3  2  1  0
  4  3  1  0
  5  4  1  0
  5  6  1  1
  7 16  1  0
  7  5  1  0
  8  7  2  0
  9 10  1  0
 10 11  2  0
 11 12  1  0
 13 12  2  0
 13 14  1  0
 15 14  1  1
 15 16  1  0
 17 15  1  0
 17 26  1  0
 18 17  2  0
 19 13  1  0
 20 10  1  0
 20 19  2  0
 21 22  1  0
 22 24  1  0
 23 22  2  0
 25 24  1  1
 25 26  1  0
 25 27  1  0
 27 28  2  0
 27 29  1  0
M  END
$$$$
