MYN.pdb
     RDKit          3D

 29 29  0  0  1  0  0  0  0  0999 V2000
   18.3924  -21.7402  -18.8817 C   0  0  0  0  0  0  0  0  0  0  0  0
   18.6720  -22.4960  -17.2814 S   0  0  0  0  0  0  0  0  0  0  0  0
   19.2078  -21.4377  -15.9767 C   0  0  0  0  0  0  0  0  0  0  0  0
   19.4288  -22.0048  -14.6218 C   0  0  0  0  0  0  0  0  0  0  0  0
   19.7130  -23.4506  -14.4871 C   0  0  2  0  0  0  0  0  0  0  0  0
   18.6545  -24.3332  -14.8716 N   0  0  0  0  0  0  0  0  0  0  0  0
   20.1469  -23.8376  -13.1198 C   0  0  0  0  0  0  0  0  0  0  0  0
   20.9071  -23.1274  -12.4364 O   0  0  0  0  0  0  0  0  0  0  0  0
   17.5045  -25.5480   -5.0345 O   0  0  0  0  0  0  0  0  0  0  0  0
   17.7012  -25.2732   -6.3859 C   0  0  0  0  0  0  0  0  0  0  0  0
   16.8017  -25.6962   -7.3347 C   0  0  0  0  0  0  0  0  0  0  0  0
   16.9829  -25.4291   -8.6994 C   0  0  0  0  0  0  0  0  0  0  0  0
   18.0721  -24.7296   -9.1485 C   0  0  0  0  0  0  0  0  0  0  0  0
   18.3444  -24.3862  -10.5759 C   0  0  0  0  0  0  0  0  0  0  0  0
   19.3989  -25.2938  -11.1913 C   0  0  2  0  0  0  0  0  0  0  0  0
   19.6821  -25.0610  -12.5639 N   0  0  0  0  0  0  0  0  0  0  0  0
   19.0648  -26.6815  -10.8292 C   0  0  0  0  0  0  0  0  0  0  0  0
   18.0328  -27.2085  -11.3129 O   0  0  0  0  0  0  0  0  0  0  0  0
   18.9853  -24.3027   -8.1663 C   0  0  0  0  0  0  0  0  0  0  0  0
   18.7994  -24.5694   -6.8316 C   0  0  0  0  0  0  0  0  0  0  0  0
   21.5854  -31.9935  -10.0825 N   0  0  0  0  0  0  0  0  0  0  0  0
   20.6848  -31.1299   -9.3805 C   0  0  0  0  0  0  0  0  0  0  0  0
   19.7363  -31.5827   -8.7239 O   0  0  0  0  0  0  0  0  0  0  0  0
   20.9054  -29.6583   -9.4500 C   0  0  0  0  0  0  0  0  0  0  0  0
   19.6726  -28.8885   -9.7710 C   0  0  2  0  0  0  0  0  0  0  0  0
   19.8547  -27.4803   -9.9466 N   0  0  0  0  0  0  0  0  0  0  0  0
   18.7007  -29.0913   -8.6509 C   0  0  0  0  0  0  0  0  0  0  0  0
   18.6294  -28.2775   -7.6901 O   0  0  0  0  0  0  0  0  0  0  0  0
   17.8349  -30.1827   -8.6189 O   0  0  0  0  0  0  0  0  0  0  0  0
  2  1  1  0
  3  2  1  0
  4  3  1  0
  5  4  1  0
  5  6  1  1
  7 16  1  0
  7  5  1  0
  8  7  2  0
  9 10  1  0
 10 11  2  0
 11 12  1  0
 13 12  2  0
 13 14  1  0
 15 14  1  6
 15 16  1  0
 17 15  1  0
 17 26  1  0
 18 17  2  0
 19 13  1  0
 20 10  1  0
 20 19  2  0
 21 22  1  0
 22 24  1  0
 23 22  2  0
 25 24  1  1
 25 26  1  0
 25 27  1  0
 27 28  2  0
 27 29  1  0
M  END
$$$$
