MYN.pdb
     RDKit          3D

 29 29  0  0  1  0  0  0  0  0999 V2000
   10.1955  -14.4729  -12.0842 C   0  0  0  0  0  0  0  0  0  0  0  0
   11.8940  -14.1261  -12.5370 S   0  0  0  0  0  0  0  0  0  0  0  0
   12.3807  -12.4321  -12.5898 C   0  0  0  0  0  0  0  0  0  0  0  0
   13.7294  -12.0765  -13.1004 C   0  0  0  0  0  0  0  0  0  0  0  0
   14.1484  -10.6575  -13.0917 C   0  0  2  0  0  0  0  0  0  0  0  0
   13.4351   -9.7908  -13.9790 N   0  0  0  0  0  0  0  0  0  0  0  0
   15.5994  -10.4733  -13.3531 C   0  0  0  0  0  0  0  0  0  0  0  0
   16.4735  -11.1013  -12.7280 O   0  0  0  0  0  0  0  0  0  0  0  0
   18.1732  -15.2417  -16.9830 O   0  0  0  0  0  0  0  0  0  0  0  0
   18.0551  -13.8673  -16.7885 C   0  0  0  0  0  0  0  0  0  0  0  0
   16.8861  -13.2068  -17.0807 C   0  0  0  0  0  0  0  0  0  0  0  0
   16.7487  -11.8240  -16.8916 C   0  0  0  0  0  0  0  0  0  0  0  0
   17.7811  -11.0669  -16.4036 C   0  0  0  0  0  0  0  0  0  0  0  0
   17.7263   -9.5953  -16.1569 C   0  0  0  0  0  0  0  0  0  0  0  0
   17.3576   -9.2703  -14.7171 C   0  0  2  0  0  0  0  0  0  0  0  0
   16.0134   -9.5490  -14.3510 N   0  0  0  0  0  0  0  0  0  0  0  0
   17.8346   -7.9076  -14.4272 C   0  0  0  0  0  0  0  0  0  0  0  0
   17.0261   -6.9491  -14.4951 O   0  0  0  0  0  0  0  0  0  0  0  0
   18.9724  -11.7561  -16.1089 C   0  0  0  0  0  0  0  0  0  0  0  0
   19.0977  -13.1110  -16.2976 C   0  0  0  0  0  0  0  0  0  0  0  0
   22.9195   -4.4530  -14.4095 N   0  0  0  0  0  0  0  0  0  0  0  0
   21.6734   -4.7642  -13.7769 C   0  0  0  0  0  0  0  0  0  0  0  0
   21.0090   -3.8938  -13.1967 O   0  0  0  0  0  0  0  0  0  0  0  0
   21.1780   -6.1683  -13.8256 C   0  0  0  0  0  0  0  0  0  0  0  0
   19.7019   -6.2709  -13.9867 C   0  0  2  0  0  0  0  0  0  0  0  0
   19.1828   -7.6017  -14.0673 N   0  0  0  0  0  0  0  0  0  0  0  0
   19.3270   -5.5531  -15.2455 C   0  0  0  0  0  0  0  0  0  0  0  0
   18.7131   -4.4518  -15.2136 O   0  0  0  0  0  0  0  0  0  0  0  0
   19.6375   -6.0661  -16.5033 O   0  0  0  0  0  0  0  0  0  0  0  0
  2  1  1  0
  3  2  1  0
  4  3  1  0
  5  4  1  0
  5  6  1  6
  7 16  1  0
  7  5  1  0
  8  7  2  0
  9 10  1  0
 10 11  2  0
 11 12  1  0
 13 12  2  0
 13 14  1  0
 15 14  1  6
 15 16  1  0
 17 15  1  0
 17 26  1  0
 18 17  2  0
 19 13  1  0
 20 10  1  0
 20 19  2  0
 21 22  1  0
 22 24  1  0
 23 22  2  0
 25 24  1  6
 25 26  1  0
 25 27  1  0
 27 28  2  0
 27 29  1  0
M  END
$$$$
