MYN.pdb
     RDKit          3D

 29 29  0  0  1  0  0  0  0  0999 V2000
   29.0390  -22.9260  -15.7560 C   0  0  0  0  0  0  0  0  0  0  0  0
   29.4845  -22.6272  -17.4656 S   0  0  0  0  0  0  0  0  0  0  0  0
   29.5797  -20.9457  -17.9880 C   0  0  0  0  0  0  0  0  0  0  0  0
   28.5722  -19.9713  -17.4966 C   0  0  0  0  0  0  0  0  0  0  0  0
   27.1397  -20.2213  -17.7697 C   0  0  2  0  0  0  0  0  0  0  0  0
   26.8018  -20.4869  -19.1345 N   0  0  0  0  0  0  0  0  0  0  0  0
   26.2526  -19.1298  -17.2909 C   0  0  0  0  0  0  0  0  0  0  0  0
   26.6981  -18.0822  -16.7877 O   0  0  0  0  0  0  0  0  0  0  0  0
   19.7469  -13.3668  -16.7109 O   0  0  0  0  0  0  0  0  0  0  0  0
   20.8044  -14.2325  -16.9811 C   0  0  0  0  0  0  0  0  0  0  0  0
   22.0312  -14.0621  -16.3859 C   0  0  0  0  0  0  0  0  0  0  0  0
   23.1072  -14.9232  -16.6456 C   0  0  0  0  0  0  0  0  0  0  0  0
   22.9806  -15.9789  -17.5097 C   0  0  0  0  0  0  0  0  0  0  0  0
   24.0618  -16.9546  -17.8392 C   0  0  0  0  0  0  0  0  0  0  0  0
   23.8767  -18.2795  -17.1146 C   0  0  2  0  0  0  0  0  0  0  0  0
   24.8435  -19.2785  -17.4079 N   0  0  0  0  0  0  0  0  0  0  0  0
   22.4684  -18.6821  -17.2659 C   0  0  0  0  0  0  0  0  0  0  0  0
   22.1080  -19.2630  -18.3192 O   0  0  0  0  0  0  0  0  0  0  0  0
   21.7191  -16.1415  -18.1123 C   0  0  0  0  0  0  0  0  0  0  0  0
   20.6709  -15.2926  -17.8518 C   0  0  0  0  0  0  0  0  0  0  0  0
   20.6924  -21.0227  -13.0408 N   0  0  0  0  0  0  0  0  0  0  0  0
   22.0213  -20.4986  -13.1362 C   0  0  0  0  0  0  0  0  0  0  0  0
   22.8988  -20.8114  -12.3190 O   0  0  0  0  0  0  0  0  0  0  0  0
   22.3410  -19.5585  -14.2468 C   0  0  0  0  0  0  0  0  0  0  0  0
   21.2058  -19.3410  -15.1847 C   0  0  2  0  0  0  0  0  0  0  0  0
   21.4685  -18.4495  -16.2725 N   0  0  0  0  0  0  0  0  0  0  0  0
   20.0613  -18.7831  -14.3978 C   0  0  0  0  0  0  0  0  0  0  0  0
   19.4691  -19.4731  -13.5238 O   0  0  0  0  0  0  0  0  0  0  0  0
   19.6002  -17.4829  -14.5941 O   0  0  0  0  0  0  0  0  0  0  0  0
  2  1  1  0
  3  2  1  0
  4  3  1  0
  5  4  1  0
  5  6  1  6
  7 16  1  0
  7  5  1  0
  8  7  2  0
  9 10  1  0
 10 11  2  0
 11 12  1  0
 13 12  2  0
 13 14  1  0
 15 14  1  6
 15 16  1  0
 17 15  1  0
 17 26  1  0
 18 17  2  0
 19 13  1  0
 20 10  1  0
 20 19  2  0
 21 22  1  0
 22 24  1  0
 23 22  2  0
 25 24  1  1
 25 26  1  0
 25 27  1  0
 27 28  2  0
 27 29  1  0
M  END
$$$$
