MYN.pdb
     RDKit          3D

 29 29  0  0  1  0  0  0  0  0999 V2000
   26.7672  -23.5465  -20.2715 C   0  0  0  0  0  0  0  0  0  0  0  0
   25.9318  -21.9652  -20.3811 S   0  0  0  0  0  0  0  0  0  0  0  0
   25.9411  -20.9511  -18.9386 C   0  0  0  0  0  0  0  0  0  0  0  0
   25.1205  -21.3451  -17.7649 C   0  0  0  0  0  0  0  0  0  0  0  0
   25.8027  -21.7403  -16.5129 C   0  0  2  0  0  0  0  0  0  0  0  0
   26.6758  -22.8700  -16.6078 N   0  0  0  0  0  0  0  0  0  0  0  0
   24.8647  -21.9904  -15.3881 C   0  0  0  0  0  0  0  0  0  0  0  0
   24.6405  -23.1335  -14.9496 O   0  0  0  0  0  0  0  0  0  0  0  0
   28.7126  -21.3140  -10.0466 O   0  0  0  0  0  0  0  0  0  0  0  0
   27.5002  -20.9934  -10.6531 C   0  0  0  0  0  0  0  0  0  0  0  0
   27.4497  -20.5727  -11.9603 C   0  0  0  0  0  0  0  0  0  0  0  0
   26.2388  -20.2456  -12.5876 C   0  0  0  0  0  0  0  0  0  0  0  0
   25.0457  -20.3324  -11.9196 C   0  0  0  0  0  0  0  0  0  0  0  0
   23.7082  -20.0189  -12.5045 C   0  0  0  0  0  0  0  0  0  0  0  0
   23.3486  -20.9586  -13.6457 C   0  0  2  0  0  0  0  0  0  0  0  0
   24.1950  -20.8908  -14.7849 N   0  0  0  0  0  0  0  0  0  0  0  0
   21.9060  -20.8189  -13.9060 C   0  0  0  0  0  0  0  0  0  0  0  0
   21.3695  -19.6897  -13.7875 O   0  0  0  0  0  0  0  0  0  0  0  0
   25.1121  -20.7642  -10.5817 C   0  0  0  0  0  0  0  0  0  0  0  0
   26.3032  -21.0823   -9.9755 C   0  0  0  0  0  0  0  0  0  0  0  0
   18.5471  -24.1290  -11.2759 N   0  0  0  0  0  0  0  0  0  0  0  0
   18.8182  -22.7254  -11.3542 C   0  0  0  0  0  0  0  0  0  0  0  0
   18.0603  -21.8918  -10.8382 O   0  0  0  0  0  0  0  0  0  0  0  0
   20.0410  -22.2726  -12.0746 C   0  0  0  0  0  0  0  0  0  0  0  0
   19.9059  -22.3145  -13.5563 C   0  0  2  0  0  0  0  0  0  0  0  0
   21.0634  -21.9061  -14.2916 N   0  0  0  0  0  0  0  0  0  0  0  0
   18.7747  -21.4123  -13.9393 C   0  0  0  0  0  0  0  0  0  0  0  0
   17.7355  -21.8637  -14.4935 O   0  0  0  0  0  0  0  0  0  0  0  0
   18.8178  -20.0398  -13.7023 O   0  0  0  0  0  0  0  0  0  0  0  0
  2  1  1  0
  3  2  1  0
  4  3  1  0
  5  4  1  0
  5  6  1  6
  7 16  1  0
  7  5  1  0
  8  7  2  0
  9 10  1  0
 10 11  2  0
 11 12  1  0
 13 12  2  0
 13 14  1  0
 15 14  1  1
 15 16  1  0
 17 15  1  0
 17 26  1  0
 18 17  2  0
 19 13  1  0
 20 10  1  0
 20 19  2  0
 21 22  1  0
 22 24  1  0
 23 22  2  0
 25 24  1  1
 25 26  1  0
 25 27  1  0
 27 28  2  0
 27 29  1  0
M  END
$$$$
