MYN.pdb
     RDKit          3D

 29 29  0  0  1  0  0  0  0  0999 V2000
   29.5353  -16.1418  -17.7712 C   0  0  0  0  0  0  0  0  0  0  0  0
   29.4770  -16.9180  -19.3850 S   0  0  0  0  0  0  0  0  0  0  0  0
   28.0040  -17.7933  -19.8018 C   0  0  0  0  0  0  0  0  0  0  0  0
   27.3106  -18.5919  -18.7590 C   0  0  0  0  0  0  0  0  0  0  0  0
   28.0198  -19.7334  -18.1399 C   0  0  2  0  0  0  0  0  0  0  0  0
   28.4025  -20.7868  -19.0294 N   0  0  0  0  0  0  0  0  0  0  0  0
   27.2712  -20.3466  -17.0124 C   0  0  0  0  0  0  0  0  0  0  0  0
   26.3108  -21.1177  -17.1921 O   0  0  0  0  0  0  0  0  0  0  0  0
   24.2080  -21.1013   -8.6981 O   0  0  0  0  0  0  0  0  0  0  0  0
   25.0243  -20.8253   -9.7926 C   0  0  0  0  0  0  0  0  0  0  0  0
   25.1370  -19.5494  -10.2905 C   0  0  0  0  0  0  0  0  0  0  0  0
   25.9536  -19.2525  -11.3912 C   0  0  0  0  0  0  0  0  0  0  0  0
   26.6796  -20.2285  -12.0218 C   0  0  0  0  0  0  0  0  0  0  0  0
   27.5837  -20.0083  -13.1895 C   0  0  0  0  0  0  0  0  0  0  0  0
   26.9036  -20.3387  -14.5097 C   0  0  2  0  0  0  0  0  0  0  0  0
   27.6587  -20.0479  -15.6775 N   0  0  0  0  0  0  0  0  0  0  0  0
   25.5423  -19.7787  -14.4670 C   0  0  0  0  0  0  0  0  0  0  0  0
   25.3851  -18.5413  -14.6111 O   0  0  0  0  0  0  0  0  0  0  0  0
   26.5547  -21.5304  -11.5019 C   0  0  0  0  0  0  0  0  0  0  0  0
   25.7520  -21.8117  -10.4231 C   0  0  0  0  0  0  0  0  0  0  0  0
   20.6490  -17.9626  -15.4783 N   0  0  0  0  0  0  0  0  0  0  0  0
   20.9144  -19.3461  -15.2229 C   0  0  0  0  0  0  0  0  0  0  0  0
   20.0188  -20.1170  -14.8497 O   0  0  0  0  0  0  0  0  0  0  0  0
   22.3014  -19.8550  -15.4141 C   0  0  0  0  0  0  0  0  0  0  0  0
   23.0534  -20.0197  -14.1402 C   0  0  2  0  0  0  0  0  0  0  0  0
   24.3686  -20.5684  -14.2685 N   0  0  0  0  0  0  0  0  0  0  0  0
   22.2599  -20.9275  -13.2534 C   0  0  0  0  0  0  0  0  0  0  0  0
   22.5855  -22.1354  -13.0928 O   0  0  0  0  0  0  0  0  0  0  0  0
   21.1312  -20.4821  -12.5683 O   0  0  0  0  0  0  0  0  0  0  0  0
  2  1  1  0
  3  2  1  0
  4  3  1  0
  5  4  1  0
  5  6  1  6
  7 16  1  0
  7  5  1  0
  8  7  2  0
  9 10  1  0
 10 11  2  0
 11 12  1  0
 13 12  2  0
 13 14  1  0
 15 14  1  1
 15 16  1  0
 17 15  1  0
 17 26  1  0
 18 17  2  0
 19 13  1  0
 20 10  1  0
 20 19  2  0
 21 22  1  0
 22 24  1  0
 23 22  2  0
 25 24  1  6
 25 26  1  0
 25 27  1  0
 27 28  2  0
 27 29  1  0
M  END
$$$$
