MYN.pdb
     RDKit          3D

 29 29  0  0  1  0  0  0  0  0999 V2000
   28.0208  -18.3626  -18.0413 C   0  0  0  0  0  0  0  0  0  0  0  0
   27.6687  -18.9440  -16.3835 S   0  0  0  0  0  0  0  0  0  0  0  0
   28.9518  -19.8222  -15.5517 C   0  0  0  0  0  0  0  0  0  0  0  0
   28.7002  -20.3667  -14.1928 C   0  0  0  0  0  0  0  0  0  0  0  0
   27.5458  -19.8591  -13.4191 C   0  0  2  0  0  0  0  0  0  0  0  0
   27.5245  -18.4480  -13.1834 N   0  0  0  0  0  0  0  0  0  0  0  0
   27.3756  -20.5366  -12.1078 C   0  0  0  0  0  0  0  0  0  0  0  0
   27.3858  -21.7760  -11.9924 O   0  0  0  0  0  0  0  0  0  0  0  0
   28.7947  -20.8214   -3.7221 O   0  0  0  0  0  0  0  0  0  0  0  0
   28.2130  -20.4158   -4.9212 C   0  0  0  0  0  0  0  0  0  0  0  0
   26.9650  -20.8573   -5.2899 C   0  0  0  0  0  0  0  0  0  0  0  0
   26.3635  -20.4600   -6.4928 C   0  0  0  0  0  0  0  0  0  0  0  0
   26.9985  -19.6082   -7.3580 C   0  0  0  0  0  0  0  0  0  0  0  0
   26.4355  -19.1200   -8.6519 C   0  0  0  0  0  0  0  0  0  0  0  0
   26.5353  -20.1676   -9.7505 C   0  0  2  0  0  0  0  0  0  0  0  0
   27.1943  -19.7495  -10.9377 N   0  0  0  0  0  0  0  0  0  0  0  0
   25.1991  -20.7599   -9.9302 C   0  0  0  0  0  0  0  0  0  0  0  0
   24.7260  -21.4885   -9.0235 O   0  0  0  0  0  0  0  0  0  0  0  0
   28.2759  -19.1641   -6.9681 C   0  0  0  0  0  0  0  0  0  0  0  0
   28.8571  -19.5590   -5.7877 C   0  0  0  0  0  0  0  0  0  0  0  0
   20.4845  -22.0405  -11.5153 N   0  0  0  0  0  0  0  0  0  0  0  0
   20.6080  -20.6690  -11.1234 C   0  0  0  0  0  0  0  0  0  0  0  0
   19.6101  -19.9689  -10.9009 O   0  0  0  0  0  0  0  0  0  0  0  0
   21.9716  -20.0854  -10.9843 C   0  0  0  0  0  0  0  0  0  0  0  0
   23.0640  -21.0642  -11.2373 C   0  0  2  0  0  0  0  0  0  0  0  0
   24.3929  -20.5543  -11.0914 N   0  0  0  0  0  0  0  0  0  0  0  0
   22.9144  -21.5661  -12.6394 C   0  0  0  0  0  0  0  0  0  0  0  0
   23.7238  -21.2286  -13.5459 O   0  0  0  0  0  0  0  0  0  0  0  0
   21.8795  -22.4245  -13.0053 O   0  0  0  0  0  0  0  0  0  0  0  0
  2  1  1  0
  3  2  1  0
  4  3  1  0
  5  4  1  0
  5  6  1  1
  7 16  1  0
  7  5  1  0
  8  7  2  0
  9 10  1  0
 10 11  2  0
 11 12  1  0
 13 12  2  0
 13 14  1  0
 15 14  1  1
 15 16  1  0
 17 15  1  0
 17 26  1  0
 18 17  2  0
 19 13  1  0
 20 10  1  0
 20 19  2  0
 21 22  1  0
 22 24  1  0
 23 22  2  0
 25 24  1  6
 25 26  1  0
 25 27  1  0
 27 28  2  0
 27 29  1  0
M  END
$$$$
