LCV.pdb
     RDKit          3D

 22 21  0  0  1  0  0  0  0  0999 V2000
   12.3508  -11.3197  -11.9233 C   0  0  0  0  0  0  0  0  0  0  0  0
   12.9627  -12.5053  -11.1744 C   0  0  2  0  0  0  0  0  0  0  0  0
   11.8993  -13.0028  -10.2422 C   0  0  0  0  0  0  0  0  0  0  0  0
   14.2382  -12.0959  -10.4792 C   0  0  0  0  0  0  0  0  0  0  0  0
   15.2004  -11.5468  -11.4799 C   0  0  2  0  0  0  0  0  0  0  0  0
   16.1618  -12.5727  -11.8259 N   0  0  0  0  0  0  0  0  0  0  0  0
   15.9182  -10.3519  -11.0073 C   0  0  0  0  0  0  0  0  0  0  0  0
   16.7101  -10.4593  -10.0398 O   0  0  0  0  0  0  0  0  0  0  0  0
   15.7712   -9.0653  -11.5832 N   0  0  0  0  0  0  0  0  0  0  0  0
   16.4427   -7.8978  -10.9802 C   0  0  1  0  0  0  0  0  0  0  0  0
   17.4420   -7.3962  -12.0029 C   0  0  0  0  0  0  0  0  0  0  0  0
   18.8285   -8.4967  -12.1487 S   0  0  0  0  0  0  0  0  0  0  0  0
   15.4662   -6.9112  -10.5374 C   0  0  0  0  0  0  0  0  0  0  0  0
   14.5000   -6.6114  -11.3216 O   0  0  0  0  0  0  0  0  0  0  0  0
   13.2186   -4.3077   -7.0745 C   0  0  0  0  0  0  0  0  0  0  0  0
   14.2115   -5.3983   -7.4151 C   0  0  2  0  0  0  0  0  0  0  0  0
   15.4354   -5.1660   -6.5599 C   0  0  0  0  0  0  0  0  0  0  0  0
   14.5177   -5.3067   -8.8844 C   0  0  2  0  0  0  0  0  0  0  0  0
   15.5204   -6.2693   -9.2971 N   0  0  0  0  0  0  0  0  0  0  0  0
   14.9771   -3.9270   -9.1705 C   0  0  0  0  0  0  0  0  0  0  0  0
   16.1848   -3.6362   -9.3212 O   0  0  0  0  0  0  0  0  0  0  0  0
   14.0199   -2.9303   -9.2723 O   0  0  0  0  0  0  0  0  0  0  0  0
  2  1  1  1
  2  4  1  0
  3  2  1  0
  4  5  1  0
  5  6  1  1
  5  7  1  0
  7  9  1  0
  7  8  2  0
  9 10  1  0
 10 13  1  0
 10 11  1  6
 11 12  1  0
 13 14  2  0
 16 17  1  1
 16 18  1  0
 16 15  1  0
 18 19  1  1
 19 13  1  0
 20 22  1  0
 20 18  1  0
 21 20  2  0
M  END
$$$$
