LCV.pdb
     RDKit          3D

 22 21  0  0  1  0  0  0  0  0999 V2000
   25.2808  -15.5256  -17.7095 C   0  0  0  0  0  0  0  0  0  0  0  0
   26.0293  -16.7489  -17.1762 C   0  0  2  0  0  0  0  0  0  0  0  0
   27.4263  -16.2890  -16.8866 C   0  0  0  0  0  0  0  0  0  0  0  0
   25.9564  -17.8897  -18.1617 C   0  0  0  0  0  0  0  0  0  0  0  0
   26.3282  -19.1650  -17.4804 C   0  0  2  0  0  0  0  0  0  0  0  0
   26.3674  -20.2316  -18.4590 N   0  0  0  0  0  0  0  0  0  0  0  0
   25.4071  -19.5390  -16.3951 C   0  0  0  0  0  0  0  0  0  0  0  0
   24.1714  -19.4114  -16.5729 O   0  0  0  0  0  0  0  0  0  0  0  0
   25.8313  -20.0428  -15.1401 N   0  0  0  0  0  0  0  0  0  0  0  0
   24.8442  -20.5566  -14.1710 C   0  0  1  0  0  0  0  0  0  0  0  0
   24.1551  -21.7313  -14.8353 C   0  0  0  0  0  0  0  0  0  0  0  0
   25.2327  -23.1392  -14.9424 S   0  0  0  0  0  0  0  0  0  0  0  0
   25.4801  -20.8564  -12.8947 C   0  0  0  0  0  0  0  0  0  0  0  0
   26.6812  -21.2987  -12.8982 O   0  0  0  0  0  0  0  0  0  0  0  0
   24.0983  -19.5191   -9.0725 C   0  0  0  0  0  0  0  0  0  0  0  0
   25.5301  -19.8083   -9.4701 C   0  0  2  0  0  0  0  0  0  0  0  0
   26.0694  -18.5577  -10.1244 C   0  0  0  0  0  0  0  0  0  0  0  0
   25.5244  -20.9842  -10.4071 C   0  0  2  0  0  0  0  0  0  0  0  0
   24.8530  -20.6864  -11.6573 N   0  0  0  0  0  0  0  0  0  0  0  0
   24.8572  -22.1143   -9.7186 C   0  0  0  0  0  0  0  0  0  0  0  0
   23.7153  -22.5169  -10.0346 O   0  0  0  0  0  0  0  0  0  0  0  0
   25.5370  -22.7402   -8.6861 O   0  0  0  0  0  0  0  0  0  0  0  0
  2  1  1  6
  2  4  1  0
  3  2  1  0
  4  5  1  0
  5  6  1  6
  5  7  1  0
  7  9  1  0
  7  8  2  0
  9 10  1  0
 10 13  1  0
 10 11  1  6
 11 12  1  0
 13 14  2  0
 16 17  1  6
 16 18  1  0
 16 15  1  0
 18 19  1  6
 19 13  1  0
 20 22  1  0
 20 18  1  0
 21 20  2  0
M  END
$$$$
