LCV.pdb
     RDKit          3D

 22 21  0  0  1  0  0  0  0  0999 V2000
   16.9315   -9.2976  -18.7257 C   0  0  0  0  0  0  0  0  0  0  0  0
   16.3025   -9.9152  -17.4752 C   0  0  2  0  0  0  0  0  0  0  0  0
   14.8225   -9.7219  -17.6145 C   0  0  0  0  0  0  0  0  0  0  0  0
   16.8819   -9.2970  -16.2262 C   0  0  0  0  0  0  0  0  0  0  0  0
   18.3564   -9.5278  -16.1904 C   0  0  2  0  0  0  0  0  0  0  0  0
   18.6120  -10.9063  -15.8279 N   0  0  0  0  0  0  0  0  0  0  0  0
   19.0649   -8.6424  -15.2521 C   0  0  0  0  0  0  0  0  0  0  0  0
   18.8668   -8.7759  -14.0201 O   0  0  0  0  0  0  0  0  0  0  0  0
   19.9721   -7.6311  -15.6555 N   0  0  0  0  0  0  0  0  0  0  0  0
   20.5688   -6.7236  -14.6565 C   0  0  1  0  0  0  0  0  0  0  0  0
   21.8942   -7.3362  -14.2511 C   0  0  0  0  0  0  0  0  0  0  0  0
   22.8698   -6.1983  -13.2980 S   0  0  0  0  0  0  0  0  0  0  0  0
   20.6513   -5.3648  -15.1762 C   0  0  0  0  0  0  0  0  0  0  0  0
   21.2155   -5.1760  -16.3095 O   0  0  0  0  0  0  0  0  0  0  0  0
   18.3442   -2.1904  -13.7201 C   0  0  0  0  0  0  0  0  0  0  0  0
   18.9367   -2.2009  -15.1130 C   0  0  2  0  0  0  0  0  0  0  0  0
   17.9505   -2.9142  -16.0085 C   0  0  0  0  0  0  0  0  0  0  0  0
   20.2625   -2.9073  -15.0495 C   0  0  2  0  0  0  0  0  0  0  0  0
   20.1452   -4.2469  -14.5073 N   0  0  0  0  0  0  0  0  0  0  0  0
   21.1762   -2.0906  -14.2161 C   0  0  0  0  0  0  0  0  0  0  0  0
   21.5479   -2.4468  -13.0756 O   0  0  0  0  0  0  0  0  0  0  0  0
   21.6285   -0.8875  -14.7336 O   0  0  0  0  0  0  0  0  0  0  0  0
  2  1  1  6
  2  4  1  0
  3  2  1  0
  4  5  1  0
  5  6  1  1
  5  7  1  0
  7  9  1  0
  7  8  2  0
  9 10  1  0
 10 13  1  0
 10 11  1  6
 11 12  1  0
 13 14  2  0
 16 17  1  6
 16 18  1  0
 16 15  1  0
 18 19  1  1
 19 13  1  0
 20 22  1  0
 20 18  1  0
 21 20  2  0
M  END
$$$$
