LCV.pdb
     RDKit          3D

 22 21  0  0  1  0  0  0  0  0999 V2000
   29.2261  -18.1837  -15.7231 C   0  0  0  0  0  0  0  0  0  0  0  0
   28.0983  -18.6730  -16.6339 C   0  0  2  0  0  0  0  0  0  0  0  0
   27.6475  -17.4774  -17.4178 C   0  0  0  0  0  0  0  0  0  0  0  0
   27.0006  -19.3182  -15.8235 C   0  0  0  0  0  0  0  0  0  0  0  0
   27.5621  -20.4539  -15.0338 C   0  0  2  0  0  0  0  0  0  0  0  0
   27.9821  -21.5009  -15.9416 N   0  0  0  0  0  0  0  0  0  0  0  0
   26.6135  -21.0133  -14.0573 C   0  0  0  0  0  0  0  0  0  0  0  0
   25.7816  -21.8721  -14.4384 O   0  0  0  0  0  0  0  0  0  0  0  0
   26.5772  -20.6393  -12.6908 N   0  0  0  0  0  0  0  0  0  0  0  0
   25.4734  -21.0932  -11.8230 C   0  0  1  0  0  0  0  0  0  0  0  0
   25.9084  -20.8315  -10.3953 C   0  0  0  0  0  0  0  0  0  0  0  0
   24.5678  -21.0709   -9.2548 S   0  0  0  0  0  0  0  0  0  0  0  0
   24.2182  -20.4624  -12.2103 C   0  0  0  0  0  0  0  0  0  0  0  0
   24.1732  -19.1855  -12.2875 O   0  0  0  0  0  0  0  0  0  0  0  0
   21.3676  -21.9531  -14.6954 C   0  0  0  0  0  0  0  0  0  0  0  0
   21.4442  -20.5127  -14.2363 C   0  0  2  0  0  0  0  0  0  0  0  0
   22.5007  -19.8351  -15.0777 C   0  0  0  0  0  0  0  0  0  0  0  0
   21.7919  -20.5083  -12.7734 C   0  0  2  0  0  0  0  0  0  0  0  0
   23.0523  -21.1736  -12.5070 N   0  0  0  0  0  0  0  0  0  0  0  0
   20.6903  -21.1749  -12.0397 C   0  0  0  0  0  0  0  0  0  0  0  0
   20.8326  -22.2783  -11.4668 O   0  0  0  0  0  0  0  0  0  0  0  0
   19.4599  -20.5393  -11.9948 O   0  0  0  0  0  0  0  0  0  0  0  0
  2  1  1  1
  2  4  1  0
  3  2  1  0
  4  5  1  0
  5  6  1  6
  5  7  1  0
  7  9  1  0
  7  8  2  0
  9 10  1  0
 10 13  1  0
 10 11  1  1
 11 12  1  0
 13 14  2  0
 16 17  1  6
 16 18  1  0
 16 15  1  0
 18 19  1  6
 19 13  1  0
 20 22  1  0
 20 18  1  0
 21 20  2  0
M  END
$$$$
