LCV.pdb
     RDKit          3D

 22 21  0  0  1  0  0  0  0  0999 V2000
   28.3210  -21.0394  -13.4580 C   0  0  0  0  0  0  0  0  0  0  0  0
   27.3918  -19.8664  -13.7767 C   0  0  2  0  0  0  0  0  0  0  0  0
   28.2394  -18.8382  -14.4633 C   0  0  0  0  0  0  0  0  0  0  0  0
   26.7203  -19.3623  -12.5226 C   0  0  0  0  0  0  0  0  0  0  0  0
   26.0486  -20.4972  -11.8229 C   0  0  2  0  0  0  0  0  0  0  0  0
   24.8186  -20.8201  -12.5156 N   0  0  0  0  0  0  0  0  0  0  0  0
   25.7477  -20.2178  -10.4095 C   0  0  0  0  0  0  0  0  0  0  0  0
   24.9604  -19.2823  -10.1271 O   0  0  0  0  0  0  0  0  0  0  0  0
   26.2985  -20.9486   -9.3273 N   0  0  0  0  0  0  0  0  0  0  0  0
   25.9287  -20.6155   -7.9382 C   0  0  1  0  0  0  0  0  0  0  0  0
   24.7337  -21.4792   -7.5885 C   0  0  0  0  0  0  0  0  0  0  0  0
   24.3133  -21.3388   -5.8685 S   0  0  0  0  0  0  0  0  0  0  0  0
   27.0742  -20.7595   -7.0493 C   0  0  0  0  0  0  0  0  0  0  0  0
   27.7932  -21.8144   -7.1433 O   0  0  0  0  0  0  0  0  0  0  0  0
   28.8799  -17.7111   -4.6773 C   0  0  0  0  0  0  0  0  0  0  0  0
   29.5174  -19.0334   -5.0470 C   0  0  2  0  0  0  0  0  0  0  0  0
   30.1726  -18.8476   -6.3958 C   0  0  0  0  0  0  0  0  0  0  0  0
   28.4368  -20.0785   -5.0779 C   0  0  2  0  0  0  0  0  0  0  0  0
   27.4392  -19.8065   -6.0944 N   0  0  0  0  0  0  0  0  0  0  0  0
   27.8083  -20.1262   -3.7367 C   0  0  0  0  0  0  0  0  0  0  0  0
   26.6120  -19.8153   -3.5412 O   0  0  0  0  0  0  0  0  0  0  0  0
   28.5886  -20.5330   -2.6663 O   0  0  0  0  0  0  0  0  0  0  0  0
  2  1  1  1
  2  4  1  0
  3  2  1  0
  4  5  1  0
  5  6  1  6
  5  7  1  0
  7  9  1  0
  7  8  2  0
  9 10  1  0
 10 13  1  0
 10 11  1  1
 11 12  1  0
 13 14  2  0
 16 17  1  6
 16 18  1  0
 16 15  1  0
 18 19  1  6
 19 13  1  0
 20 22  1  0
 20 18  1  0
 21 20  2  0
M  END
$$$$
