LCV.pdb
     RDKit          3D

 22 21  0  0  1  0  0  0  0  0999 V2000
   18.6024  -14.1691  -18.9985 C   0  0  0  0  0  0  0  0  0  0  0  0
   19.7910  -14.2985  -18.0438 C   0  0  2  0  0  0  0  0  0  0  0  0
   19.6605  -15.6442  -17.3963 C   0  0  0  0  0  0  0  0  0  0  0  0
   19.8146  -13.1514  -17.0634 C   0  0  0  0  0  0  0  0  0  0  0  0
   20.0600  -11.8727  -17.7939 C   0  0  2  0  0  0  0  0  0  0  0  0
   21.3838  -11.9076  -18.3796 N   0  0  0  0  0  0  0  0  0  0  0  0
   19.9405  -10.6791  -16.9411 C   0  0  0  0  0  0  0  0  0  0  0  0
   19.0314  -10.6355  -16.0771 O   0  0  0  0  0  0  0  0  0  0  0  0
   20.7999   -9.5559  -17.0330 N   0  0  0  0  0  0  0  0  0  0  0  0
   20.7036   -8.4613  -16.0480 C   0  0  1  0  0  0  0  0  0  0  0  0
   22.0125   -8.4485  -15.2846 C   0  0  0  0  0  0  0  0  0  0  0  0
   22.0013   -9.6303  -13.9586 S   0  0  0  0  0  0  0  0  0  0  0  0
   20.3595   -7.2056  -16.7023 C   0  0  0  0  0  0  0  0  0  0  0  0
   20.9249   -6.9198  -17.8145 O   0  0  0  0  0  0  0  0  0  0  0  0
   17.3259   -3.7653  -17.9852 C   0  0  0  0  0  0  0  0  0  0  0  0
   17.6438   -5.1105  -17.3679 C   0  0  2  0  0  0  0  0  0  0  0  0
   16.6724   -5.3159  -16.2289 C   0  0  0  0  0  0  0  0  0  0  0  0
   19.0724   -5.0817  -16.8998 C   0  0  2  0  0  0  0  0  0  0  0  0
   19.4401   -6.2886  -16.1853 N   0  0  0  0  0  0  0  0  0  0  0  0
   19.2450   -3.8938  -16.0307 C   0  0  0  0  0  0  0  0  0  0  0  0
   19.1943   -3.9587  -14.7821 O   0  0  0  0  0  0  0  0  0  0  0  0
   19.4707   -2.6695  -16.6392 O   0  0  0  0  0  0  0  0  0  0  0  0
  2  1  1  6
  2  4  1  0
  3  2  1  0
  4  5  1  0
  5  6  1  1
  5  7  1  0
  7  9  1  0
  7  8  2  0
  9 10  1  0
 10 13  1  0
 10 11  1  6
 11 12  1  0
 13 14  2  0
 16 17  1  1
 16 18  1  0
 16 15  1  0
 18 19  1  1
 19 13  1  0
 20 22  1  0
 20 18  1  0
 21 20  2  0
M  END
$$$$
