LCV.pdb
     RDKit          3D

 22 21  0  0  1  0  0  0  0  0999 V2000
   18.0940  -12.7454  -18.9674 C   0  0  0  0  0  0  0  0  0  0  0  0
   18.0758  -13.5753  -17.6821 C   0  0  2  0  0  0  0  0  0  0  0  0
   16.8497  -14.4344  -17.7583 C   0  0  0  0  0  0  0  0  0  0  0  0
   18.1163  -12.6793  -16.4684 C   0  0  0  0  0  0  0  0  0  0  0  0
   19.3226  -11.8021  -16.5330 C   0  0  2  0  0  0  0  0  0  0  0  0
   20.4925  -12.5776  -16.1770 N   0  0  0  0  0  0  0  0  0  0  0  0
   19.2379  -10.6247  -15.6540 C   0  0  0  0  0  0  0  0  0  0  0  0
   19.0581  -10.7939  -14.4236 O   0  0  0  0  0  0  0  0  0  0  0  0
   19.3480   -9.2886  -16.1137 N   0  0  0  0  0  0  0  0  0  0  0  0
   19.2839   -8.1645  -15.1599 C   0  0  1  0  0  0  0  0  0  0  0  0
   20.5620   -8.2119  -14.3472 C   0  0  0  0  0  0  0  0  0  0  0  0
   21.9962   -8.2296  -15.3949 S   0  0  0  0  0  0  0  0  0  0  0  0
   19.0431   -6.9078  -15.8569 C   0  0  0  0  0  0  0  0  0  0  0  0
   19.5467   -6.7483  -17.0228 O   0  0  0  0  0  0  0  0  0  0  0  0
   16.3859   -3.2855  -17.2797 C   0  0  0  0  0  0  0  0  0  0  0  0
   16.6407   -4.6545  -16.6860 C   0  0  2  0  0  0  0  0  0  0  0  0
   15.5604   -4.8999  -15.6585 C   0  0  0  0  0  0  0  0  0  0  0  0
   18.0154   -4.6491  -16.0769 C   0  0  2  0  0  0  0  0  0  0  0  0
   18.2875   -5.8590  -15.3256 N   0  0  0  0  0  0  0  0  0  0  0  0
   18.1215   -3.4603  -15.1983 C   0  0  0  0  0  0  0  0  0  0  0  0
   17.9313   -3.5160  -13.9628 O   0  0  0  0  0  0  0  0  0  0  0  0
   18.4448   -2.2461  -15.7824 O   0  0  0  0  0  0  0  0  0  0  0  0
  2  1  1  6
  2  4  1  0
  3  2  1  0
  4  5  1  0
  5  6  1  1
  5  7  1  0
  7  9  1  0
  7  8  2  0
  9 10  1  0
 10 13  1  0
 10 11  1  6
 11 12  1  0
 13 14  2  0
 16 17  1  1
 16 18  1  0
 16 15  1  0
 18 19  1  1
 19 13  1  0
 20 22  1  0
 20 18  1  0
 21 20  2  0
M  END
$$$$
