LCV.pdb
     RDKit          3D

 22 21  0  0  1  0  0  0  0  0999 V2000
   38.7551  -11.2991   -9.8680 C   0  0  0  0  0  0  0  0  0  0  0  0
   37.7955  -10.6267   -8.8841 C   0  0  2  0  0  0  0  0  0  0  0  0
   36.7585   -9.9374   -9.7187 C   0  0  0  0  0  0  0  0  0  0  0  0
   38.5447   -9.7004   -7.9575 C   0  0  0  0  0  0  0  0  0  0  0  0
   39.5025  -10.4892   -7.1272 C   0  0  2  0  0  0  0  0  0  0  0  0
   38.7735  -11.1612   -6.0718 N   0  0  0  0  0  0  0  0  0  0  0  0
   40.5712   -9.6715   -6.5309 C   0  0  0  0  0  0  0  0  0  0  0  0
   40.3663   -9.1113   -5.4268 O   0  0  0  0  0  0  0  0  0  0  0  0
   41.8389   -9.4718   -7.1322 N   0  0  0  0  0  0  0  0  0  0  0  0
   42.8007   -8.5194   -6.5445 C   0  0  1  0  0  0  0  0  0  0  0  0
   44.1833   -9.0801   -6.8096 C   0  0  0  0  0  0  0  0  0  0  0  0
   45.4507   -7.9197   -6.3597 S   0  0  0  0  0  0  0  0  0  0  0  0
   42.5733   -7.1736   -7.0547 C   0  0  0  0  0  0  0  0  0  0  0  0
   42.2640   -7.0308   -8.2885 O   0  0  0  0  0  0  0  0  0  0  0  0
   40.9064   -2.7662   -6.8744 C   0  0  0  0  0  0  0  0  0  0  0  0
   41.2031   -4.0601   -6.1470 C   0  0  2  0  0  0  0  0  0  0  0  0
   41.4695   -3.7053   -4.7026 C   0  0  0  0  0  0  0  0  0  0  0  0
   42.3935   -4.7014   -6.8048 C   0  0  2  0  0  0  0  0  0  0  0  0
   42.6710   -6.0206   -6.2709 N   0  0  0  0  0  0  0  0  0  0  0  0
   43.5601   -3.8086   -6.6091 C   0  0  0  0  0  0  0  0  0  0  0  0
   44.4828   -4.0713   -5.8056 O   0  0  0  0  0  0  0  0  0  0  0  0
   43.6177   -2.6405   -7.3521 O   0  0  0  0  0  0  0  0  0  0  0  0
  2  1  1  6
  2  4  1  0
  3  2  1  0
  4  5  1  0
  5  6  1  1
  5  7  1  0
  7  9  1  0
  7  8  2  0
  9 10  1  0
 10 13  1  0
 10 11  1  6
 11 12  1  0
 13 14  2  0
 16 17  1  1
 16 18  1  0
 16 15  1  0
 18 19  1  1
 19 13  1  0
 20 22  1  0
 20 18  1  0
 21 20  2  0
M  END
$$$$
