LCV.pdb
     RDKit          3D

 22 21  0  0  1  0  0  0  0  0999 V2000
   24.8837  -20.6258   -9.2329 C   0  0  0  0  0  0  0  0  0  0  0  0
   25.4280  -21.7114  -10.1636 C   0  0  2  0  0  0  0  0  0  0  0  0
   26.5982  -22.3213   -9.4525 C   0  0  0  0  0  0  0  0  0  0  0  0
   25.7712  -21.1325  -11.5144 C   0  0  0  0  0  0  0  0  0  0  0  0
   24.5521  -20.5221  -12.1226 C   0  0  2  0  0  0  0  0  0  0  0  0
   23.4948  -21.5109  -12.1596 N   0  0  0  0  0  0  0  0  0  0  0  0
   24.7738  -20.0012  -13.4812 C   0  0  0  0  0  0  0  0  0  0  0  0
   25.8634  -19.4387  -13.7482 O   0  0  0  0  0  0  0  0  0  0  0  0
   23.8209  -20.0946  -14.5261 N   0  0  0  0  0  0  0  0  0  0  0  0
   24.0975  -19.4892  -15.8431 C   0  0  1  0  0  0  0  0  0  0  0  0
   23.0832  -20.0685  -16.8084 C   0  0  0  0  0  0  0  0  0  0  0  0
   21.4389  -19.9993  -16.1400 S   0  0  0  0  0  0  0  0  0  0  0  0
   24.1018  -18.0348  -15.7532 C   0  0  0  0  0  0  0  0  0  0  0  0
   23.2207  -17.4642  -15.0207 O   0  0  0  0  0  0  0  0  0  0  0  0
   26.9199  -15.6141  -15.0163 C   0  0  0  0  0  0  0  0  0  0  0  0
   26.2622  -15.1103  -16.2833 C   0  0  2  0  0  0  0  0  0  0  0  0
   26.1505  -13.6087  -16.1576 C   0  0  0  0  0  0  0  0  0  0  0  0
   24.9180  -15.7731  -16.4051 C   0  0  2  0  0  0  0  0  0  0  0  0
   25.0189  -17.2195  -16.4221 N   0  0  0  0  0  0  0  0  0  0  0  0
   24.2786  -15.2850  -17.6497 C   0  0  0  0  0  0  0  0  0  0  0  0
   23.8333  -14.1215  -17.7674 O   0  0  0  0  0  0  0  0  0  0  0  0
   24.1770  -16.1630  -18.7169 O   0  0  0  0  0  0  0  0  0  0  0  0
  2  1  1  1
  2  4  1  0
  3  2  1  0
  4  5  1  0
  5  6  1  6
  5  7  1  0
  7  9  1  0
  7  8  2  0
  9 10  1  0
 10 13  1  0
 10 11  1  6
 11 12  1  0
 13 14  2  0
 16 17  1  1
 16 18  1  0
 16 15  1  0
 18 19  1  6
 19 13  1  0
 20 22  1  0
 20 18  1  0
 21 20  2  0
M  END
$$$$
