LCV.pdb
     RDKit          3D

 22 21  0  0  1  0  0  0  0  0999 V2000
   29.8300  -18.7961  -18.9173 C   0  0  0  0  0  0  0  0  0  0  0  0
   28.7231  -17.7401  -18.9469 C   0  0  2  0  0  0  0  0  0  0  0  0
   29.3595  -16.4839  -19.4607 C   0  0  0  0  0  0  0  0  0  0  0  0
   28.0935  -17.5895  -17.5836 C   0  0  0  0  0  0  0  0  0  0  0  0
   27.5367  -18.9021  -17.1410 C   0  0  2  0  0  0  0  0  0  0  0  0
   27.0577  -19.6286  -18.2984 N   0  0  0  0  0  0  0  0  0  0  0  0
   26.4430  -18.7745  -16.1643 C   0  0  0  0  0  0  0  0  0  0  0  0
   26.6897  -18.2927  -15.0321 O   0  0  0  0  0  0  0  0  0  0  0  0
   25.1059  -19.1669  -16.4230 N   0  0  0  0  0  0  0  0  0  0  0  0
   24.0500  -18.9202  -15.4221 C   0  0  1  0  0  0  0  0  0  0  0  0
   22.8277  -18.4542  -16.1870 C   0  0  0  0  0  0  0  0  0  0  0  0
   21.3559  -18.5896  -15.2020 S   0  0  0  0  0  0  0  0  0  0  0  0
   23.8432  -20.0968  -14.5878 C   0  0  0  0  0  0  0  0  0  0  0  0
   23.6698  -21.2292  -15.1586 O   0  0  0  0  0  0  0  0  0  0  0  0
   24.3912  -20.2153  -10.3476 C   0  0  0  0  0  0  0  0  0  0  0  0
   24.5285  -21.4105  -11.2664 C   0  0  2  0  0  0  0  0  0  0  0  0
   25.9602  -21.4365  -11.7486 C   0  0  0  0  0  0  0  0  0  0  0  0
   23.5500  -21.2441  -12.3959 C   0  0  2  0  0  0  0  0  0  0  0  0
   23.8252  -20.0630  -13.1907 N   0  0  0  0  0  0  0  0  0  0  0  0
   22.1888  -21.1703  -11.8146 C   0  0  0  0  0  0  0  0  0  0  0  0
   21.5084  -20.1201  -11.8222 O   0  0  0  0  0  0  0  0  0  0  0  0
   21.6619  -22.3176  -11.2435 O   0  0  0  0  0  0  0  0  0  0  0  0
  2  1  1  1
  2  4  1  0
  3  2  1  0
  4  5  1  0
  5  6  1  6
  5  7  1  0
  7  9  1  0
  7  8  2  0
  9 10  1  0
 10 13  1  0
 10 11  1  6
 11 12  1  0
 13 14  2  0
 16 17  1  6
 16 18  1  0
 16 15  1  0
 18 19  1  1
 19 13  1  0
 20 22  1  0
 20 18  1  0
 21 20  2  0
M  END
$$$$
