LCV.pdb
     RDKit          3D

 22 21  0  0  1  0  0  0  0  0999 V2000
   24.3826  -17.0157  -18.2357 C   0  0  0  0  0  0  0  0  0  0  0  0
   24.3377  -16.0911  -19.4540 C   0  0  2  0  0  0  0  0  0  0  0  0
   25.3212  -16.6501  -20.4375 C   0  0  0  0  0  0  0  0  0  0  0  0
   24.6236  -14.6649  -19.0516 C   0  0  0  0  0  0  0  0  0  0  0  0
   23.5924  -14.2032  -18.0757 C   0  0  2  0  0  0  0  0  0  0  0  0
   22.2851  -14.6293  -18.5299 N   0  0  0  0  0  0  0  0  0  0  0  0
   23.5837  -12.7446  -17.8794 C   0  0  0  0  0  0  0  0  0  0  0  0
   24.6471  -12.1679  -17.5456 O   0  0  0  0  0  0  0  0  0  0  0  0
   22.4330  -11.9341  -18.0457 N   0  0  0  0  0  0  0  0  0  0  0  0
   22.5066  -10.4787  -17.8132 C   0  0  1  0  0  0  0  0  0  0  0  0
   22.0841   -9.8110  -19.1061 C   0  0  0  0  0  0  0  0  0  0  0  0
   23.3394   -9.9611  -20.3537 S   0  0  0  0  0  0  0  0  0  0  0  0
   21.7265  -10.1021  -16.6415 C   0  0  0  0  0  0  0  0  0  0  0  0
   20.5673  -10.6217  -16.4850 O   0  0  0  0  0  0  0  0  0  0  0  0
   22.3949  -10.6403  -13.2040 C   0  0  0  0  0  0  0  0  0  0  0  0
   22.0670   -9.1626  -13.2199 C   0  0  2  0  0  0  0  0  0  0  0  0
   21.1925   -8.8898  -12.0182 C   0  0  0  0  0  0  0  0  0  0  0  0
   21.3674   -8.8551  -14.5149 C   0  0  2  0  0  0  0  0  0  0  0  0
   22.1727   -9.2023  -15.6696 N   0  0  0  0  0  0  0  0  0  0  0  0
   21.0427   -7.4091  -14.5270 C   0  0  0  0  0  0  0  0  0  0  0  0
   21.6999   -6.5761  -15.1904 O   0  0  0  0  0  0  0  0  0  0  0  0
   19.9662   -6.9773  -13.7690 O   0  0  0  0  0  0  0  0  0  0  0  0
  2  1  1  1
  2  4  1  0
  3  2  1  0
  4  5  1  0
  5  6  1  6
  5  7  1  0
  7  9  1  0
  7  8  2  0
  9 10  1  0
 10 13  1  0
 10 11  1  6
 11 12  1  0
 13 14  2  0
 16 17  1  1
 16 18  1  0
 16 15  1  0
 18 19  1  6
 19 13  1  0
 20 22  1  0
 20 18  1  0
 21 20  2  0
M  END
$$$$
