LCV.pdb
     RDKit          3D

 22 21  0  0  1  0  0  0  0  0999 V2000
   28.5310  -20.7797  -16.2882 C   0  0  0  0  0  0  0  0  0  0  0  0
   27.3834  -21.3031  -17.1544 C   0  0  2  0  0  0  0  0  0  0  0  0
   27.9496  -21.4848  -18.5304 C   0  0  0  0  0  0  0  0  0  0  0  0
   26.2039  -20.3631  -17.1012 C   0  0  0  0  0  0  0  0  0  0  0  0
   25.5796  -20.4185  -15.7462 C   0  0  2  0  0  0  0  0  0  0  0  0
   26.0823  -21.5781  -15.0394 N   0  0  0  0  0  0  0  0  0  0  0  0
   24.1092  -20.4741  -15.7809 C   0  0  0  0  0  0  0  0  0  0  0  0
   23.4841  -19.6439  -16.4844 O   0  0  0  0  0  0  0  0  0  0  0  0
   23.3392  -21.4203  -15.0595 N   0  0  0  0  0  0  0  0  0  0  0  0
   21.8696  -21.4411  -15.1913 C   0  0  1  0  0  0  0  0  0  0  0  0
   21.4191  -22.8351  -14.8041 C   0  0  0  0  0  0  0  0  0  0  0  0
   19.6509  -22.9296  -14.6646 S   0  0  0  0  0  0  0  0  0  0  0  0
   21.2659  -20.3620  -14.4204 C   0  0  0  0  0  0  0  0  0  0  0  0
   21.6184  -20.2106  -13.1993 O   0  0  0  0  0  0  0  0  0  0  0  0
   19.5892  -16.9318  -16.0375 C   0  0  0  0  0  0  0  0  0  0  0  0
   20.0457  -17.0608  -14.6000 C   0  0  2  0  0  0  0  0  0  0  0  0
   21.5345  -16.8032  -14.5832 C   0  0  0  0  0  0  0  0  0  0  0  0
   19.7019  -18.4454  -14.1250 C   0  0  2  0  0  0  0  0  0  0  0  0
   20.3195  -19.4740  -14.9392 N   0  0  0  0  0  0  0  0  0  0  0  0
   18.2266  -18.5838  -14.1488 C   0  0  0  0  0  0  0  0  0  0  0  0
   17.6349  -19.3615  -14.9303 O   0  0  0  0  0  0  0  0  0  0  0  0
   17.4865  -17.8151  -13.2648 O   0  0  0  0  0  0  0  0  0  0  0  0
  2  1  1  1
  2  4  1  0
  3  2  1  0
  4  5  1  0
  5  6  1  6
  5  7  1  0
  7  9  1  0
  7  8  2  0
  9 10  1  0
 10 13  1  0
 10 11  1  1
 11 12  1  0
 13 14  2  0
 16 17  1  6
 16 18  1  0
 16 15  1  0
 18 19  1  6
 19 13  1  0
 20 22  1  0
 20 18  1  0
 21 20  2  0
M  END
$$$$
