LCV.pdb
     RDKit          3D

 22 21  0  0  1  0  0  0  0  0999 V2000
   20.1837  -15.3536  -15.7139 C   0  0  0  0  0  0  0  0  0  0  0  0
   19.9144  -15.4353  -17.2179 C   0  0  2  0  0  0  0  0  0  0  0  0
   21.0990  -16.1327  -17.8159 C   0  0  0  0  0  0  0  0  0  0  0  0
   19.6645  -14.0613  -17.7901 C   0  0  0  0  0  0  0  0  0  0  0  0
   18.4383  -13.4761  -17.1714 C   0  0  2  0  0  0  0  0  0  0  0  0
   17.2750  -14.1851  -17.6620 N   0  0  0  0  0  0  0  0  0  0  0  0
   18.2764  -12.0381  -17.4400 C   0  0  0  0  0  0  0  0  0  0  0  0
   17.7834  -11.6741  -18.5351 O   0  0  0  0  0  0  0  0  0  0  0  0
   18.6472  -11.0194  -16.5271 N   0  0  0  0  0  0  0  0  0  0  0  0
   18.4190   -9.6003  -16.8612 C   0  0  1  0  0  0  0  0  0  0  0  0
   16.9335   -9.4488  -17.1188 C   0  0  0  0  0  0  0  0  0  0  0  0
   16.4577   -7.7386  -17.1832 S   0  0  0  0  0  0  0  0  0  0  0  0
   18.9559   -8.7315  -15.8218 C   0  0  0  0  0  0  0  0  0  0  0  0
   18.4994   -8.8466  -14.6316 O   0  0  0  0  0  0  0  0  0  0  0  0
   22.6811   -6.9476  -16.1776 C   0  0  0  0  0  0  0  0  0  0  0  0
   22.0388   -7.3046  -14.8541 C   0  0  2  0  0  0  0  0  0  0  0  0
   22.3343   -8.7641  -14.5977 C   0  0  0  0  0  0  0  0  0  0  0  0
   20.5640   -7.0329  -14.9643 C   0  0  2  0  0  0  0  0  0  0  0  0
   19.9489   -7.7744  -16.0479 N   0  0  0  0  0  0  0  0  0  0  0  0
   20.3813   -5.5761  -15.1658 C   0  0  0  0  0  0  0  0  0  0  0  0
   20.0056   -5.0880  -16.2550 O   0  0  0  0  0  0  0  0  0  0  0  0
   20.6406   -4.7336  -14.0966 O   0  0  0  0  0  0  0  0  0  0  0  0
  2  1  1  1
  2  4  1  0
  3  2  1  0
  4  5  1  0
  5  6  1  6
  5  7  1  0
  7  9  1  0
  7  8  2  0
  9 10  1  0
 10 13  1  0
 10 11  1  1
 11 12  1  0
 13 14  2  0
 16 17  1  6
 16 18  1  0
 16 15  1  0
 18 19  1  6
 19 13  1  0
 20 22  1  0
 20 18  1  0
 21 20  2  0
M  END
$$$$
