LCV.pdb
     RDKit          3D

 22 21  0  0  1  0  0  0  0  0999 V2000
   18.3081  -13.7273  -16.9922 C   0  0  0  0  0  0  0  0  0  0  0  0
   19.5580  -13.6698  -16.1116 C   0  0  2  0  0  0  0  0  0  0  0  0
   19.5621  -14.9370  -15.3108 C   0  0  0  0  0  0  0  0  0  0  0  0
   19.5593  -12.4176  -15.2690 C   0  0  0  0  0  0  0  0  0  0  0  0
   19.5974  -11.2170  -16.1555 C   0  0  2  0  0  0  0  0  0  0  0  0
   20.7837  -11.2766  -16.9838 N   0  0  0  0  0  0  0  0  0  0  0  0
   19.5873   -9.9438  -15.4173 C   0  0  0  0  0  0  0  0  0  0  0  0
   18.6565   -9.7161  -14.6071 O   0  0  0  0  0  0  0  0  0  0  0  0
   20.5773   -8.9402  -15.5638 N   0  0  0  0  0  0  0  0  0  0  0  0
   20.4852   -7.6846  -14.7940 C   0  0  1  0  0  0  0  0  0  0  0  0
   21.9072   -7.2315  -14.5316 C   0  0  0  0  0  0  0  0  0  0  0  0
   21.9483   -5.6048  -13.8194 S   0  0  0  0  0  0  0  0  0  0  0  0
   19.6470   -6.7141  -15.4859 C   0  0  0  0  0  0  0  0  0  0  0  0
   19.8251   -6.5359  -16.7409 O   0  0  0  0  0  0  0  0  0  0  0  0
   15.6508   -4.2384  -16.3033 C   0  0  0  0  0  0  0  0  0  0  0  0
   16.4190   -5.3946  -15.6995 C   0  0  2  0  0  0  0  0  0  0  0  0
   15.7897   -5.6924  -14.3584 C   0  0  0  0  0  0  0  0  0  0  0  0
   17.8592   -4.9813  -15.5737 C   0  0  2  0  0  0  0  0  0  0  0  0
   18.6509   -5.9620  -14.8570 N   0  0  0  0  0  0  0  0  0  0  0  0
   17.9005   -3.6743  -14.8764 C   0  0  0  0  0  0  0  0  0  0  0  0
   18.3087   -3.5503  -13.7000 O   0  0  0  0  0  0  0  0  0  0  0  0
   17.4668   -2.5541  -15.5671 O   0  0  0  0  0  0  0  0  0  0  0  0
  2  1  1  1
  2  4  1  0
  3  2  1  0
  4  5  1  0
  5  6  1  1
  5  7  1  0
  7  9  1  0
  7  8  2  0
  9 10  1  0
 10 13  1  0
 10 11  1  6
 11 12  1  0
 13 14  2  0
 16 17  1  1
 16 18  1  0
 16 15  1  0
 18 19  1  1
 19 13  1  0
 20 22  1  0
 20 18  1  0
 21 20  2  0
M  END
$$$$
