TRC.pdb
     RDKit          3D

 25 24  0  0  1  0  0  0  0  0999 V2000
   10.6987  -21.9160   22.6724 C   0  0  0  0  0  0  0  0  0  0  0  0
    9.2475  -21.5298   22.4292 C   0  0  1  0  0  0  0  0  0  0  0  0
    8.6393  -21.0158   23.5499 O   0  0  0  0  0  0  0  0  0  0  0  0
    9.0539  -20.7477   21.1699 C   0  0  2  0  0  0  0  0  0  0  0  0
    9.6111  -21.5292   20.0839 N   0  0  0  0  0  0  0  0  0  0  0  0
    9.5482  -19.3556   21.2089 C   0  0  0  0  0  0  0  0  0  0  0  0
   10.7870  -19.2012   21.0482 O   0  0  0  0  0  0  0  0  0  0  0  0
    7.8855  -14.0257   18.2108 N   0  0  0  0  0  0  0  0  0  0  0  0
    8.0125  -12.8019   18.9235 C   0  0  0  0  0  0  0  0  0  0  0  0
    8.7142  -11.8133   18.4134 N   0  0  0  0  0  0  0  0  0  0  0  0
    7.4332  -12.5846   20.1909 N   0  0  0  0  0  0  0  0  0  0  0  0
    7.2032  -13.6066   21.1718 C   0  0  0  0  0  0  0  0  0  0  0  0
    8.4274  -14.4400   21.5039 C   0  0  0  0  0  0  0  0  0  0  0  0
    8.0300  -15.8862   21.3860 C   0  0  0  0  0  0  0  0  0  0  0  0
    9.1949  -16.8456   21.5757 C   0  0  2  0  0  0  0  0  0  0  0  0
    8.7889  -18.2146   21.4102 N   0  0  0  0  0  0  0  0  0  0  0  0
    9.6562  -16.6402   22.9600 C   0  0  0  0  0  0  0  0  0  0  0  0
    8.8575  -16.4498   23.8841 O   0  0  0  0  0  0  0  0  0  0  0  0
    8.7072  -10.8902   18.9299 N   0  0  0  0  0  0  0  0  0  0  0  0
   11.0421  -16.6653   23.2315 C   0  0  1  0  0  0  0  0  0  0  0  0
   11.6202  -16.4568   24.5403 C   0  0  0  0  0  0  0  0  0  0  0  0
   11.2285  -17.5903   25.4976 S   0  0  0  0  0  0  0  0  0  0  0  0
   11.7455  -19.1900   24.7501 C   0  0  0  0  0  0  0  0  0  0  0  0
   13.0808  -16.4467   24.4379 O   0  0  0  0  0  0  0  0  0  0  0  0
   13.8212  -16.0462   25.5312 O   0  0  0  0  0  0  0  0  0  0  0  0
  2  4  1  0
  2  1  1  1
  3  2  1  0
  4  6  1  0
  4  5  1  6
  6 16  1  0
  7  6  2  0
  9  8  1  0
 10  9  2  0
 11  9  1  0
 12 11  1  0
 13 12  1  0
 14 13  1  0
 15 17  1  0
 15 14  1  1
 16 15  1  0
 17 19  1  0
 18 17  2  0
 19 20  1  0
 20 23  1  0
 21 22  1  0
 20 21  1  1
 23 25  2  0
 23 24  1  0
M  END
$$$$
