TRC.pdb
     RDKit          3D

 25 24  0  0  1  0  0  0  0  0999 V2000
    8.6192  -12.2544   20.4084 C   0  0  0  0  0  0  0  0  0  0  0  0
    8.0357  -13.0869   19.2767 C   0  0  1  0  0  0  0  0  0  0  0  0
    8.3709  -12.6039   18.0340 O   0  0  0  0  0  0  0  0  0  0  0  0
    8.2258  -14.5566   19.4741 C   0  0  2  0  0  0  0  0  0  0  0  0
    7.6153  -15.2286   18.3443 N   0  0  0  0  0  0  0  0  0  0  0  0
    7.7816  -15.0806   20.7824 C   0  0  0  0  0  0  0  0  0  0  0  0
    6.5378  -15.1236   20.9706 O   0  0  0  0  0  0  0  0  0  0  0  0
   12.1410  -19.0837   23.8653 N   0  0  0  0  0  0  0  0  0  0  0  0
   11.8105  -19.1278   25.2475 C   0  0  0  0  0  0  0  0  0  0  0  0
   12.7654  -19.1509   26.1518 N   0  0  0  0  0  0  0  0  0  0  0  0
   10.4829  -19.1715   25.7213 N   0  0  0  0  0  0  0  0  0  0  0  0
    9.3179  -19.2444   24.8866 C   0  0  0  0  0  0  0  0  0  0  0  0
    8.5698  -17.9317   24.7426 C   0  0  0  0  0  0  0  0  0  0  0  0
    8.9252  -17.3588   23.3977 C   0  0  0  0  0  0  0  0  0  0  0  0
    8.2501  -16.0252   23.1165 C   0  0  2  0  0  0  0  0  0  0  0  0
    8.5935  -15.5189   21.8158 N   0  0  0  0  0  0  0  0  0  0  0  0
    8.7554  -15.1002   24.1463 C   0  0  0  0  0  0  0  0  0  0  0  0
    9.9469  -14.7741   24.1911 O   0  0  0  0  0  0  0  0  0  0  0  0
   12.4776  -19.2400   27.1657 N   0  0  0  0  0  0  0  0  0  0  0  0
    7.8535  -14.5756   25.0983 C   0  0  2  0  0  0  0  0  0  0  0  0
    8.2229  -13.6547   26.1501 C   0  0  0  0  0  0  0  0  0  0  0  0
    6.9875  -12.9303   26.7010 S   0  0  0  0  0  0  0  0  0  0  0  0
    6.1911  -12.0055   25.3241 C   0  0  0  0  0  0  0  0  0  0  0  0
    8.8363  -14.3913   27.2569 O   0  0  0  0  0  0  0  0  0  0  0  0
    9.3977  -13.6808   28.2981 O   0  0  0  0  0  0  0  0  0  0  0  0
  2  4  1  0
  2  1  1  1
  3  2  1  0
  4  6  1  0
  4  5  1  6
  6 16  1  0
  7  6  2  0
  9  8  1  0
 10  9  2  0
 11  9  1  0
 12 11  1  0
 13 12  1  0
 14 13  1  0
 15 17  1  0
 15 14  1  1
 16 15  1  0
 17 19  1  0
 18 17  2  0
 19 20  1  0
 20 23  1  0
 21 22  1  0
 20 21  1  1
 23 25  2  0
 23 24  1  0
M  END
$$$$
