TRC.pdb
     RDKit          3D

 25 24  0  0  1  0  0  0  0  0999 V2000
    7.5478  -12.1519   18.6641 C   0  0  0  0  0  0  0  0  0  0  0  0
    8.4417  -13.2252   19.2668 C   0  0  1  0  0  0  0  0  0  0  0  0
    7.7774  -14.0289   20.1627 O   0  0  0  0  0  0  0  0  0  0  0  0
    9.2690  -13.9380   18.2457 C   0  0  2  0  0  0  0  0  0  0  0  0
    8.3577  -14.6170   17.3462 N   0  0  0  0  0  0  0  0  0  0  0  0
   10.3245  -14.8172   18.7903 C   0  0  0  0  0  0  0  0  0  0  0  0
   10.0377  -16.0395   18.8809 O   0  0  0  0  0  0  0  0  0  0  0  0
   16.5935  -12.6100   16.8243 N   0  0  0  0  0  0  0  0  0  0  0  0
   16.8869  -13.9226   16.3633 C   0  0  0  0  0  0  0  0  0  0  0  0
   17.4806  -14.0948   15.2023 N   0  0  0  0  0  0  0  0  0  0  0  0
   16.5510  -15.0862   17.0860 N   0  0  0  0  0  0  0  0  0  0  0  0
   15.8853  -15.0964   18.3573 C   0  0  0  0  0  0  0  0  0  0  0  0
   14.4883  -14.5038   18.3354 C   0  0  0  0  0  0  0  0  0  0  0  0
   13.9737  -14.5176   19.7490 C   0  0  0  0  0  0  0  0  0  0  0  0
   12.6114  -15.1804   19.8848 C   0  0  2  0  0  0  0  0  0  0  0  0
   11.5854  -14.4300   19.2137 N   0  0  0  0  0  0  0  0  0  0  0  0
   12.3262  -15.2075   21.3302 C   0  0  0  0  0  0  0  0  0  0  0  0
   11.6874  -14.3022   21.8783 O   0  0  0  0  0  0  0  0  0  0  0  0
   17.6447  -15.0884   14.8787 N   0  0  0  0  0  0  0  0  0  0  0  0
   12.7927  -16.2955   22.1006 C   0  0  2  0  0  0  0  0  0  0  0  0
   12.2690  -16.6594   23.3983 C   0  0  0  0  0  0  0  0  0  0  0  0
   10.7503  -16.8696   23.3353 S   0  0  0  0  0  0  0  0  0  0  0  0
   10.1774  -17.4800   24.9737 C   0  0  0  0  0  0  0  0  0  0  0  0
   12.8738  -17.9181   23.8385 O   0  0  0  0  0  0  0  0  0  0  0  0
   13.5304  -18.7004   22.9108 O   0  0  0  0  0  0  0  0  0  0  0  0
  2  4  1  0
  2  1  1  6
  3  2  1  0
  4  6  1  0
  4  5  1  1
  6 16  1  0
  7  6  2  0
  9  8  1  0
 10  9  2  0
 11  9  1  0
 12 11  1  0
 13 12  1  0
 14 13  1  0
 15 17  1  0
 15 14  1  1
 16 15  1  0
 17 19  1  0
 18 17  2  0
 19 20  1  0
 20 23  1  0
 21 22  1  0
 20 21  1  6
 23 25  2  0
 23 24  1  0
M  END
$$$$
