TRC.pdb
     RDKit          3D

 25 24  0  0  1  0  0  0  0  0999 V2000
   13.9331  -19.0638   14.8909 C   0  0  0  0  0  0  0  0  0  0  0  0
   13.7396  -18.3486   13.5623 C   0  0  1  0  0  0  0  0  0  0  0  0
   13.7855  -19.2036   12.4867 O   0  0  0  0  0  0  0  0  0  0  0  0
   12.5954  -17.3865   13.5775 C   0  0  2  0  0  0  0  0  0  0  0  0
   12.5623  -16.7314   12.2851 N   0  0  0  0  0  0  0  0  0  0  0  0
   12.5771  -16.4452   14.7165 C   0  0  0  0  0  0  0  0  0  0  0  0
   13.4065  -15.4996   14.6694 O   0  0  0  0  0  0  0  0  0  0  0  0
    7.2632  -12.7791   21.9308 N   0  0  0  0  0  0  0  0  0  0  0  0
    7.7826  -12.9919   20.6245 C   0  0  0  0  0  0  0  0  0  0  0  0
    7.1524  -12.5038   19.5783 N   0  0  0  0  0  0  0  0  0  0  0  0
    8.9550  -13.7345   20.3730 N   0  0  0  0  0  0  0  0  0  0  0  0
    9.1489  -14.6008   19.2454 C   0  0  0  0  0  0  0  0  0  0  0  0
   10.5180  -15.2532   19.1876 C   0  0  0  0  0  0  0  0  0  0  0  0
   10.5699  -16.0745   17.9281 C   0  0  0  0  0  0  0  0  0  0  0  0
   11.7188  -15.6902   17.0084 C   0  0  2  0  0  0  0  0  0  0  0  0
   11.7482  -16.5053   15.8248 N   0  0  0  0  0  0  0  0  0  0  0  0
   12.9465  -15.9236   17.7891 C   0  0  0  0  0  0  0  0  0  0  0  0
   13.3322  -17.0670   18.0574 O   0  0  0  0  0  0  0  0  0  0  0  0
    7.5178  -12.7649   18.6206 N   0  0  0  0  0  0  0  0  0  0  0  0
   13.6964  -14.8130   18.2353 C   0  0  2  0  0  0  0  0  0  0  0  0
   14.9885  -14.9070   18.8777 C   0  0  0  0  0  0  0  0  0  0  0  0
   15.7625  -13.5889   18.7438 S   0  0  0  0  0  0  0  0  0  0  0  0
   17.5569  -13.9431   18.9436 C   0  0  0  0  0  0  0  0  0  0  0  0
   14.8102  -15.1743   20.3062 O   0  0  0  0  0  0  0  0  0  0  0  0
   13.5308  -15.2069   20.8219 O   0  0  0  0  0  0  0  0  0  0  0  0
  2  4  1  0
  2  1  1  1
  3  2  1  0
  4  6  1  0
  4  5  1  6
  6 16  1  0
  7  6  2  0
  9  8  1  0
 10  9  2  0
 11  9  1  0
 12 11  1  0
 13 12  1  0
 14 13  1  0
 15 17  1  0
 15 14  1  1
 16 15  1  0
 17 19  1  0
 18 17  2  0
 19 20  1  0
 20 23  1  0
 21 22  1  0
 20 21  1  6
 23 25  2  0
 23 24  1  0
M  END
$$$$
