TRC.pdb
     RDKit          3D

 25 24  0  0  1  0  0  0  0  0999 V2000
   13.7514  -20.3555   18.1890 C   0  0  0  0  0  0  0  0  0  0  0  0
   14.4682  -19.3026   17.3573 C   0  0  1  0  0  0  0  0  0  0  0  0
   15.0198  -19.8177   16.2082 O   0  0  0  0  0  0  0  0  0  0  0  0
   13.6715  -18.0488   17.1887 C   0  0  2  0  0  0  0  0  0  0  0  0
   14.4387  -17.1582   16.3408 N   0  0  0  0  0  0  0  0  0  0  0  0
   13.2129  -17.4185   18.4441 C   0  0  0  0  0  0  0  0  0  0  0  0
   14.0884  -16.8086   19.1118 O   0  0  0  0  0  0  0  0  0  0  0  0
    7.9756  -13.8604   17.2323 N   0  0  0  0  0  0  0  0  0  0  0  0
    7.4572  -13.3589   18.4576 C   0  0  0  0  0  0  0  0  0  0  0  0
    7.1121  -12.0936   18.5571 N   0  0  0  0  0  0  0  0  0  0  0  0
    7.3064  -14.1534   19.6131 N   0  0  0  0  0  0  0  0  0  0  0  0
    7.9181  -15.4365   19.8097 C   0  0  0  0  0  0  0  0  0  0  0  0
    9.4314  -15.3968   19.9174 C   0  0  0  0  0  0  0  0  0  0  0  0
    9.8992  -16.8032   20.1754 C   0  0  0  0  0  0  0  0  0  0  0  0
   11.4141  -16.9360   20.2023 C   0  0  2  0  0  0  0  0  0  0  0  0
   11.9262  -17.4391   18.9569 N   0  0  0  0  0  0  0  0  0  0  0  0
   11.7083  -17.9033   21.2742 C   0  0  0  0  0  0  0  0  0  0  0  0
   11.4910  -19.1116   21.1296 O   0  0  0  0  0  0  0  0  0  0  0  0
    6.7647  -11.7531   19.4964 N   0  0  0  0  0  0  0  0  0  0  0  0
   12.2529  -17.4343   22.4901 C   0  0  2  0  0  0  0  0  0  0  0  0
   12.5009  -18.2660   23.6466 C   0  0  0  0  0  0  0  0  0  0  0  0
   13.4381  -17.5609   24.6360 S   0  0  0  0  0  0  0  0  0  0  0  0
   13.6938  -18.6650   26.0854 C   0  0  0  0  0  0  0  0  0  0  0  0
   11.2399  -18.5319   24.3417 O   0  0  0  0  0  0  0  0  0  0  0  0
   11.0849  -19.7340   25.0013 O   0  0  0  0  0  0  0  0  0  0  0  0
  2  4  1  0
  2  1  1  6
  3  2  1  0
  4  6  1  0
  4  5  1  1
  6 16  1  0
  7  6  2  0
  9  8  1  0
 10  9  2  0
 11  9  1  0
 12 11  1  0
 13 12  1  0
 14 13  1  0
 15 17  1  0
 15 14  1  6
 16 15  1  0
 17 19  1  0
 18 17  2  0
 19 20  1  0
 20 23  1  0
 21 22  1  0
 20 21  1  6
 23 25  2  0
 23 24  1  0
M  END
$$$$
