TRC.pdb
     RDKit          3D

 25 24  0  0  1  0  0  0  0  0999 V2000
    7.4409  -12.4248   19.5846 C   0  0  0  0  0  0  0  0  0  0  0  0
    7.7048  -13.8693   19.1873 C   0  0  1  0  0  0  0  0  0  0  0  0
    7.9445  -14.0151   17.8414 O   0  0  0  0  0  0  0  0  0  0  0  0
    8.6710  -14.5585   20.0965 C   0  0  2  0  0  0  0  0  0  0  0  0
    8.9567  -15.8578   19.5212 N   0  0  0  0  0  0  0  0  0  0  0  0
    8.2688  -14.6180   21.5171 C   0  0  0  0  0  0  0  0  0  0  0  0
    8.1182  -13.5120   22.0988 O   0  0  0  0  0  0  0  0  0  0  0  0
    6.7804  -20.4877   20.5400 N   0  0  0  0  0  0  0  0  0  0  0  0
    6.4974  -20.9302   21.8612 C   0  0  0  0  0  0  0  0  0  0  0  0
    5.6543  -21.9207   22.0568 N   0  0  0  0  0  0  0  0  0  0  0  0
    7.0653  -20.3405   23.0096 N   0  0  0  0  0  0  0  0  0  0  0  0
    6.3565  -19.5044   23.9359 C   0  0  0  0  0  0  0  0  0  0  0  0
    6.2837  -18.0441   23.5291 C   0  0  0  0  0  0  0  0  0  0  0  0
    7.5326  -17.3753   24.0354 C   0  0  0  0  0  0  0  0  0  0  0  0
    7.6339  -15.9116   23.6345 C   0  0  2  0  0  0  0  0  0  0  0  0
    8.0497  -15.7622   22.2666 N   0  0  0  0  0  0  0  0  0  0  0  0
    8.6575  -15.3281   24.5194 C   0  0  0  0  0  0  0  0  0  0  0  0
    9.8616  -15.4051   24.2507 O   0  0  0  0  0  0  0  0  0  0  0  0
    5.3881  -22.1473   23.0552 N   0  0  0  0  0  0  0  0  0  0  0  0
    8.2478  -14.6652   25.6974 C   0  0  2  0  0  0  0  0  0  0  0  0
    9.1537  -14.0763   26.6583 C   0  0  0  0  0  0  0  0  0  0  0  0
    8.7428  -12.6344   26.9844 S   0  0  0  0  0  0  0  0  0  0  0  0
    6.9355  -12.6063   27.3284 C   0  0  0  0  0  0  0  0  0  0  0  0
    9.1147  -14.8422   27.9057 O   0  0  0  0  0  0  0  0  0  0  0  0
   10.0049  -14.5224   28.9103 O   0  0  0  0  0  0  0  0  0  0  0  0
  2  4  1  0
  2  1  1  1
  3  2  1  0
  4  6  1  0
  4  5  1  6
  6 16  1  0
  7  6  2  0
  9  8  1  0
 10  9  2  0
 11  9  1  0
 12 11  1  0
 13 12  1  0
 14 13  1  0
 15 17  1  0
 15 14  1  1
 16 15  1  0
 17 19  1  0
 18 17  2  0
 19 20  1  0
 20 23  1  0
 21 22  1  0
 20 21  1  6
 23 25  2  0
 23 24  1  0
M  END
$$$$
