TRC.pdb
     RDKit          3D

 25 24  0  0  1  0  0  0  0  0999 V2000
    7.6630  -11.9595   20.2904 C   0  0  0  0  0  0  0  0  0  0  0  0
    7.4297  -12.8630   19.0889 C   0  0  1  0  0  0  0  0  0  0  0  0
    7.4130  -12.1727   17.9000 O   0  0  0  0  0  0  0  0  0  0  0  0
    8.2755  -14.0955   19.1112 C   0  0  2  0  0  0  0  0  0  0  0  0
    7.9649  -14.8565   17.9175 N   0  0  0  0  0  0  0  0  0  0  0  0
    8.1994  -14.8910   20.3543 C   0  0  0  0  0  0  0  0  0  0  0  0
    7.3071  -15.7779   20.3927 O   0  0  0  0  0  0  0  0  0  0  0  0
   12.9170  -15.3403   19.2217 N   0  0  0  0  0  0  0  0  0  0  0  0
   13.9565  -15.5419   20.1705 C   0  0  0  0  0  0  0  0  0  0  0  0
   15.0914  -14.8877   20.0519 N   0  0  0  0  0  0  0  0  0  0  0  0
   13.8503  -16.4430   21.2502 N   0  0  0  0  0  0  0  0  0  0  0  0
   12.6133  -16.9254   21.7949 C   0  0  0  0  0  0  0  0  0  0  0  0
   11.4942  -15.9004   21.8063 C   0  0  0  0  0  0  0  0  0  0  0  0
   10.3310  -16.5152   22.5358 C   0  0  0  0  0  0  0  0  0  0  0  0
    9.1288  -15.5890   22.6365 C   0  0  2  0  0  0  0  0  0  0  0  0
    9.0028  -14.7526   21.4743 N   0  0  0  0  0  0  0  0  0  0  0  0
    9.3773  -14.7441   23.8179 C   0  0  0  0  0  0  0  0  0  0  0  0
   10.4100  -14.0732   23.9249 O   0  0  0  0  0  0  0  0  0  0  0  0
   15.8366  -15.0633   20.7819 N   0  0  0  0  0  0  0  0  0  0  0  0
    8.4096  -14.7014   24.8458 C   0  0  1  0  0  0  0  0  0  0  0  0
    8.5786  -13.9942   26.0956 C   0  0  0  0  0  0  0  0  0  0  0  0
    7.2402  -13.4287   26.5889 S   0  0  0  0  0  0  0  0  0  0  0  0
    6.5346  -12.3619   25.2664 C   0  0  0  0  0  0  0  0  0  0  0  0
    9.0762  -14.9151   27.1195 O   0  0  0  0  0  0  0  0  0  0  0  0
    9.4329  -14.4086   28.3524 O   0  0  0  0  0  0  0  0  0  0  0  0
  2  4  1  0
  2  1  1  1
  3  2  1  0
  4  6  1  0
  4  5  1  6
  6 16  1  0
  7  6  2  0
  9  8  1  0
 10  9  2  0
 11  9  1  0
 12 11  1  0
 13 12  1  0
 14 13  1  0
 15 17  1  0
 15 14  1  6
 16 15  1  0
 17 19  1  0
 18 17  2  0
 19 20  1  0
 20 23  1  0
 21 22  1  0
 20 21  1  1
 23 25  2  0
 23 24  1  0
M  END
$$$$
