TRC.pdb
     RDKit          3D

 25 24  0  0  1  0  0  0  0  0999 V2000
   14.7535  -16.3084   20.8512 C   0  0  0  0  0  0  0  0  0  0  0  0
   13.8098  -17.4822   20.6372 C   0  0  1  0  0  0  0  0  0  0  0  0
   14.3511  -18.4604   19.8371 O   0  0  0  0  0  0  0  0  0  0  0  0
   13.1730  -17.9587   21.9032 C   0  0  2  0  0  0  0  0  0  0  0  0
   12.3949  -19.1381   21.5801 N   0  0  0  0  0  0  0  0  0  0  0  0
   12.4118  -16.9363   22.6507 C   0  0  0  0  0  0  0  0  0  0  0  0
   13.0379  -15.8865   22.9510 O   0  0  0  0  0  0  0  0  0  0  0  0
    7.4103  -12.1302   20.7158 N   0  0  0  0  0  0  0  0  0  0  0  0
    7.8050  -13.4896   20.5821 C   0  0  0  0  0  0  0  0  0  0  0  0
    8.1127  -13.9718   19.3977 N   0  0  0  0  0  0  0  0  0  0  0  0
    7.8677  -14.3844   21.6704 N   0  0  0  0  0  0  0  0  0  0  0  0
    7.7348  -14.0074   23.0487 C   0  0  0  0  0  0  0  0  0  0  0  0
    7.9410  -15.1464   24.0302 C   0  0  0  0  0  0  0  0  0  0  0  0
    8.8142  -16.1679   23.3538 C   0  0  0  0  0  0  0  0  0  0  0  0
   10.2740  -16.0802   23.7717 C   0  0  2  0  0  0  0  0  0  0  0  0
   11.0899  -17.0226   23.0558 N   0  0  0  0  0  0  0  0  0  0  0  0
   10.2960  -16.4114   25.2073 C   0  0  0  0  0  0  0  0  0  0  0  0
   10.4407  -17.5751   25.5982 O   0  0  0  0  0  0  0  0  0  0  0  0
    8.4763  -14.9642   19.3523 N   0  0  0  0  0  0  0  0  0  0  0  0
   10.1510  -15.3721   26.1528 C   0  0  2  0  0  0  0  0  0  0  0  0
   10.3065  -15.5414   27.5803 C   0  0  0  0  0  0  0  0  0  0  0  0
    9.8566  -14.2817   28.3322 S   0  0  0  0  0  0  0  0  0  0  0  0
   10.7292  -12.8302   27.6132 C   0  0  0  0  0  0  0  0  0  0  0  0
    9.4719  -16.6539   28.0383 O   0  0  0  0  0  0  0  0  0  0  0  0
    9.6142  -17.1015   29.3358 O   0  0  0  0  0  0  0  0  0  0  0  0
  2  4  1  0
  2  1  1  1
  3  2  1  0
  4  6  1  0
  4  5  1  6
  6 16  1  0
  7  6  2  0
  9  8  1  0
 10  9  2  0
 11  9  1  0
 12 11  1  0
 13 12  1  0
 14 13  1  0
 15 17  1  0
 15 14  1  6
 16 15  1  0
 17 19  1  0
 18 17  2  0
 19 20  1  0
 20 23  1  0
 21 22  1  0
 20 21  1  6
 23 25  2  0
 23 24  1  0
M  END
$$$$
