TRC.pdb
     RDKit          3D

 25 24  0  0  1  0  0  0  0  0999 V2000
    9.4071  -12.3382   20.5074 C   0  0  0  0  0  0  0  0  0  0  0  0
    8.1844  -12.7401   19.6964 C   0  0  1  0  0  0  0  0  0  0  0  0
    8.0175  -11.9704   18.5696 O   0  0  0  0  0  0  0  0  0  0  0  0
    8.0767  -14.2175   19.4944 C   0  0  2  0  0  0  0  0  0  0  0  0
    6.8967  -14.4602   18.6885 N   0  0  0  0  0  0  0  0  0  0  0  0
    8.1251  -15.0287   20.7286 C   0  0  0  0  0  0  0  0  0  0  0  0
    7.0660  -15.0714   21.4074 O   0  0  0  0  0  0  0  0  0  0  0  0
   11.4209  -20.5755   26.0702 N   0  0  0  0  0  0  0  0  0  0  0  0
   11.2856  -21.2117   24.8059 C   0  0  0  0  0  0  0  0  0  0  0  0
   10.9886  -22.4913   24.7418 N   0  0  0  0  0  0  0  0  0  0  0  0
   11.4775  -20.5398   23.5807 N   0  0  0  0  0  0  0  0  0  0  0  0
   11.8681  -19.1648   23.4537 C   0  0  0  0  0  0  0  0  0  0  0  0
   10.7430  -18.1724   23.6834 C   0  0  0  0  0  0  0  0  0  0  0  0
   10.5118  -17.4491   22.3846 C   0  0  0  0  0  0  0  0  0  0  0  0
    9.4024  -16.4117   22.4651 C   0  0  2  0  0  0  0  0  0  0  0  0
    9.2149  -15.7350   21.2109 N   0  0  0  0  0  0  0  0  0  0  0  0
    9.8424  -15.4388   23.4805 C   0  0  0  0  0  0  0  0  0  0  0  0
   10.2323  -14.3092   23.1646 O   0  0  0  0  0  0  0  0  0  0  0  0
   10.9314  -22.9334   23.7825 N   0  0  0  0  0  0  0  0  0  0  0  0
    9.8130  -15.8097   24.8431 C   0  0  2  0  0  0  0  0  0  0  0  0
    9.7788  -14.8713   25.9427 C   0  0  0  0  0  0  0  0  0  0  0  0
    8.5714  -13.9321   25.8222 S   0  0  0  0  0  0  0  0  0  0  0  0
    8.6090  -12.7499   27.2316 C   0  0  0  0  0  0  0  0  0  0  0  0
    9.6516  -15.5984   27.2072 O   0  0  0  0  0  0  0  0  0  0  0  0
   10.3303  -15.1312   28.3140 O   0  0  0  0  0  0  0  0  0  0  0  0
  2  4  1  0
  2  1  1  6
  3  2  1  0
  4  6  1  0
  4  5  1  1
  6 16  1  0
  7  6  2  0
  9  8  1  0
 10  9  2  0
 11  9  1  0
 12 11  1  0
 13 12  1  0
 14 13  1  0
 15 17  1  0
 15 14  1  6
 16 15  1  0
 17 19  1  0
 18 17  2  0
 19 20  1  0
 20 23  1  0
 21 22  1  0
 20 21  1  6
 23 25  2  0
 23 24  1  0
M  END
$$$$
