TRC.pdb
     RDKit          3D

 25 24  0  0  1  0  0  0  0  0999 V2000
    8.1596  -12.5108   20.6080 C   0  0  0  0  0  0  0  0  0  0  0  0
    7.7721  -13.5924   19.6109 C   0  0  1  0  0  0  0  0  0  0  0  0
    8.1146  -13.2714   18.3187 O   0  0  0  0  0  0  0  0  0  0  0  0
    8.1537  -14.9661   20.0607 C   0  0  2  0  0  0  0  0  0  0  0  0
    7.7963  -15.8852   18.9986 N   0  0  0  0  0  0  0  0  0  0  0  0
    7.6330  -15.3641   21.3852 C   0  0  0  0  0  0  0  0  0  0  0  0
    6.3895  -15.5425   21.4628 O   0  0  0  0  0  0  0  0  0  0  0  0
    6.2205  -21.5323   25.5633 N   0  0  0  0  0  0  0  0  0  0  0  0
    6.4641  -21.4651   24.1641 C   0  0  0  0  0  0  0  0  0  0  0  0
    5.6326  -22.0407   23.3231 N   0  0  0  0  0  0  0  0  0  0  0  0
    7.5872  -20.8185   23.6076 N   0  0  0  0  0  0  0  0  0  0  0  0
    8.2124  -19.6483   24.1547 C   0  0  0  0  0  0  0  0  0  0  0  0
    7.6231  -18.3385   23.6643 C   0  0  0  0  0  0  0  0  0  0  0  0
    8.3886  -17.2265   24.3281 C   0  0  0  0  0  0  0  0  0  0  0  0
    7.9434  -15.8423   23.8821 C   0  0  2  0  0  0  0  0  0  0  0  0
    8.3726  -15.5517   22.5414 N   0  0  0  0  0  0  0  0  0  0  0  0
    8.5879  -14.8995   24.8132 C   0  0  0  0  0  0  0  0  0  0  0  0
    9.8041  -14.6824   24.7716 O   0  0  0  0  0  0  0  0  0  0  0  0
    5.8344  -21.9415   22.2895 N   0  0  0  0  0  0  0  0  0  0  0  0
    7.7933  -14.2299   25.7699 C   0  0  2  0  0  0  0  0  0  0  0  0
    8.3122  -13.3234   26.7698 C   0  0  0  0  0  0  0  0  0  0  0  0
    7.2233  -12.3522   27.2448 S   0  0  0  0  0  0  0  0  0  0  0  0
    6.3984  -11.6322   25.7662 C   0  0  0  0  0  0  0  0  0  0  0  0
    8.7683  -14.0838   27.9350 O   0  0  0  0  0  0  0  0  0  0  0  0
    9.4079  -13.4135   28.9575 O   0  0  0  0  0  0  0  0  0  0  0  0
  2  4  1  0
  2  1  1  1
  3  2  1  0
  4  6  1  0
  4  5  1  6
  6 16  1  0
  7  6  2  0
  9  8  1  0
 10  9  2  0
 11  9  1  0
 12 11  1  0
 13 12  1  0
 14 13  1  0
 15 17  1  0
 15 14  1  1
 16 15  1  0
 17 19  1  0
 18 17  2  0
 19 20  1  0
 20 23  1  0
 21 22  1  0
 20 21  1  6
 23 25  2  0
 23 24  1  0
M  END
$$$$
