TRC.pdb
     RDKit          3D

 25 24  0  0  1  0  0  0  0  0999 V2000
    7.9653  -12.2905   20.2665 C   0  0  0  0  0  0  0  0  0  0  0  0
    7.2650  -13.2730   19.3399 C   0  0  1  0  0  0  0  0  0  0  0  0
    7.1910  -12.8209   18.0437 O   0  0  0  0  0  0  0  0  0  0  0  0
    7.7432  -14.6793   19.5098 C   0  0  2  0  0  0  0  0  0  0  0  0
    6.9560  -15.5150   18.6252 N   0  0  0  0  0  0  0  0  0  0  0  0
    7.7825  -15.1687   20.9036 C   0  0  0  0  0  0  0  0  0  0  0  0
    6.6696  -15.4141   21.4380 O   0  0  0  0  0  0  0  0  0  0  0  0
   14.7189  -18.5455   24.7861 N   0  0  0  0  0  0  0  0  0  0  0  0
   14.3925  -17.1628   24.8423 C   0  0  0  0  0  0  0  0  0  0  0  0
   15.3483  -16.2648   24.9421 N   0  0  0  0  0  0  0  0  0  0  0  0
   13.0667  -16.6825   24.8188 N   0  0  0  0  0  0  0  0  0  0  0  0
   11.8955  -17.5079   24.8998 C   0  0  0  0  0  0  0  0  0  0  0  0
   10.5868  -16.7474   24.7888 C   0  0  0  0  0  0  0  0  0  0  0  0
   10.3640  -16.4499   23.3310 C   0  0  0  0  0  0  0  0  0  0  0  0
    9.0411  -15.7512   23.0568 C   0  0  2  0  0  0  0  0  0  0  0  0
    8.9143  -15.3755   21.6751 N   0  0  0  0  0  0  0  0  0  0  0  0
    9.0540  -14.5366   23.8908 C   0  0  0  0  0  0  0  0  0  0  0  0
    9.4752  -13.4594   23.4545 O   0  0  0  0  0  0  0  0  0  0  0  0
   15.0647  -15.2457   24.9426 N   0  0  0  0  0  0  0  0  0  0  0  0
    8.5706  -14.6100   25.2160 C   0  0  2  0  0  0  0  0  0  0  0  0
    8.5479  -13.4965   26.1381 C   0  0  0  0  0  0  0  0  0  0  0  0
    7.3168  -12.6128   25.8977 S   0  0  0  0  0  0  0  0  0  0  0  0
    5.8080  -13.6450   26.1060 C   0  0  0  0  0  0  0  0  0  0  0  0
    8.4744  -13.9963   27.5124 O   0  0  0  0  0  0  0  0  0  0  0  0
    8.5498  -13.0935   28.5532 O   0  0  0  0  0  0  0  0  0  0  0  0
  2  4  1  0
  2  1  1  1
  3  2  1  0
  4  6  1  0
  4  5  1  6
  6 16  1  0
  7  6  2  0
  9  8  1  0
 10  9  2  0
 11  9  1  0
 12 11  1  0
 13 12  1  0
 14 13  1  0
 15 17  1  0
 15 14  1  6
 16 15  1  0
 17 19  1  0
 18 17  2  0
 19 20  1  0
 20 23  1  0
 21 22  1  0
 20 21  1  1
 23 25  2  0
 23 24  1  0
M  END
$$$$
