NQC.pdb
     RDKit          3D

 24 23  0  0  1  0  0  0  0  0999 V2000
   16.4957  -13.7486   17.8803 N   0  0  0  0  0  0  0  0  0  0  0  0
   15.2941  -14.3785   17.4651 C   0  0  0  0  0  0  0  0  0  0  0  0
   15.2538  -15.1700   16.5097 O   0  0  0  0  0  0  0  0  0  0  0  0
   14.0624  -14.0549   18.2239 C   0  0  0  0  0  0  0  0  0  0  0  0
   13.5364  -15.3044   18.9428 C   0  0  2  0  0  0  0  0  0  0  0  0
   12.8952  -16.1125   17.9349 N   0  0  0  0  0  0  0  0  0  0  0  0
   12.5083  -14.8789   19.9286 C   0  0  0  0  0  0  0  0  0  0  0  0
   12.8179  -14.1614   20.9145 O   0  0  0  0  0  0  0  0  0  0  0  0
    8.0780  -12.3933   17.4469 N   0  0  0  0  0  0  0  0  0  0  0  0
    7.9616  -13.5956   18.1683 C   0  0  0  0  0  0  0  0  0  0  0  0
    7.6311  -14.6980   17.7099 O   0  0  0  0  0  0  0  0  0  0  0  0
    8.2765  -13.5137   19.6552 C   0  0  0  0  0  0  0  0  0  0  0  0
    8.7619  -14.8417   20.1417 C   0  0  0  0  0  0  0  0  0  0  0  0
   10.1138  -14.7456   20.7394 C   0  0  2  0  0  0  0  0  0  0  0  0
   11.1426  -15.2457   19.8238 N   0  0  0  0  0  0  0  0  0  0  0  0
   10.1957  -15.5941   21.9471 C   0  0  0  0  0  0  0  0  0  0  0  0
   10.7361  -16.7293   21.9656 O   0  0  0  0  0  0  0  0  0  0  0  0
    9.6498  -15.1583   23.1933 N   0  0  0  0  0  0  0  0  0  0  0  0
    9.6232  -15.9488   24.3847 C   0  0  1  0  0  0  0  0  0  0  0  0
    8.9098  -15.3066   25.5315 C   0  0  0  0  0  0  0  0  0  0  0  0
    8.8929  -16.4716   26.9411 S   0  0  0  0  0  0  0  0  0  0  0  0
    8.9519  -17.2384   24.0621 C   0  0  0  0  0  0  0  0  0  0  0  0
    7.8912  -17.3155   23.3919 O   0  0  0  0  0  0  0  0  0  0  0  0
    9.5272  -18.4056   24.5247 O   0  0  0  0  0  0  0  0  0  0  0  0
  2  1  1  0
  2  3  2  0
  4  2  1  0
  5  4  1  0
  5  6  1  6
  7  5  1  0
  8  7  2  0
 10 12  1  0
 10  9  1  0
 11 10  2  0
 13 12  1  0
 14 13  1  6
 14 15  1  0
 15  7  1  0
 16 14  1  0
 16 17  2  0
 18 16  1  0
 19 18  1  0
 19 20  1  1
 20 21  1  0
 22 19  1  0
 23 22  2  0
 24 22  1  0
M  END
$$$$
