NQC.pdb
     RDKit          3D

 24 23  0  0  1  0  0  0  0  0999 V2000
   13.4858  -18.4770   19.6925 N   0  0  0  0  0  0  0  0  0  0  0  0
   13.9769  -17.5242   20.6220 C   0  0  0  0  0  0  0  0  0  0  0  0
   15.1017  -17.0101   20.5159 O   0  0  0  0  0  0  0  0  0  0  0  0
   13.0859  -17.1543   21.7475 C   0  0  0  0  0  0  0  0  0  0  0  0
   11.8225  -18.0253   21.7346 C   0  0  2  0  0  0  0  0  0  0  0  0
   10.9958  -17.5251   20.6640 N   0  0  0  0  0  0  0  0  0  0  0  0
   11.1019  -17.8231   23.0190 C   0  0  0  0  0  0  0  0  0  0  0  0
   10.1814  -16.9710   23.1149 O   0  0  0  0  0  0  0  0  0  0  0  0
   11.4388  -21.4118   28.1487 N   0  0  0  0  0  0  0  0  0  0  0  0
   10.4430  -20.5183   28.5841 C   0  0  0  0  0  0  0  0  0  0  0  0
    9.7983  -20.5946   29.6391 O   0  0  0  0  0  0  0  0  0  0  0  0
   10.1431  -19.3507   27.6549 C   0  0  0  0  0  0  0  0  0  0  0  0
   10.9413  -19.4887   26.3980 C   0  0  0  0  0  0  0  0  0  0  0  0
   10.6607  -18.3883   25.4469 C   0  0  2  0  0  0  0  0  0  0  0  0
   11.3986  -18.5611   24.1929 N   0  0  0  0  0  0  0  0  0  0  0  0
   11.1148  -17.1006   26.0130 C   0  0  0  0  0  0  0  0  0  0  0  0
   11.9294  -16.3351   25.4373 O   0  0  0  0  0  0  0  0  0  0  0  0
   10.6400  -16.6435   27.2806 N   0  0  0  0  0  0  0  0  0  0  0  0
   10.6847  -15.2826   27.7176 C   0  0  1  0  0  0  0  0  0  0  0  0
    9.6591  -14.3997   27.0813 C   0  0  0  0  0  0  0  0  0  0  0  0
    9.8157  -12.7169   27.7801 S   0  0  0  0  0  0  0  0  0  0  0  0
   10.4815  -15.2700   29.1929 C   0  0  0  0  0  0  0  0  0  0  0  0
   10.0448  -16.2567   29.8378 O   0  0  0  0  0  0  0  0  0  0  0  0
   10.7897  -14.1140   29.8828 O   0  0  0  0  0  0  0  0  0  0  0  0
  2  1  1  0
  2  3  2  0
  4  2  1  0
  5  4  1  0
  5  6  1  6
  7  5  1  0
  8  7  2  0
 10 12  1  0
 10  9  1  0
 11 10  2  0
 13 12  1  0
 14 13  1  1
 14 15  1  0
 15  7  1  0
 16 14  1  0
 16 17  2  0
 18 16  1  0
 19 18  1  0
 19 20  1  6
 20 21  1  0
 22 19  1  0
 23 22  2  0
 24 22  1  0
M  END
$$$$
