NQC.pdb
     RDKit          3D

 24 23  0  0  1  0  0  0  0  0999 V2000
   10.3507  -12.8310    8.9773 N   0  0  0  0  0  0  0  0  0  0  0  0
   11.5313  -13.1061    9.7147 C   0  0  0  0  0  0  0  0  0  0  0  0
   12.5481  -12.3992    9.6302 O   0  0  0  0  0  0  0  0  0  0  0  0
   11.5118  -14.2891   10.6078 C   0  0  0  0  0  0  0  0  0  0  0  0
   10.2025  -15.0693   10.4294 C   0  0  2  0  0  0  0  0  0  0  0  0
    9.1432  -14.1856   10.8503 N   0  0  0  0  0  0  0  0  0  0  0  0
   10.2281  -16.2413   11.3434 C   0  0  0  0  0  0  0  0  0  0  0  0
    9.1653  -16.8341   11.6622 O   0  0  0  0  0  0  0  0  0  0  0  0
   14.1491  -21.1860   11.2327 N   0  0  0  0  0  0  0  0  0  0  0  0
   13.4805  -20.1976   10.4874 C   0  0  0  0  0  0  0  0  0  0  0  0
   13.8266  -19.7487    9.3860 O   0  0  0  0  0  0  0  0  0  0  0  0
   12.2103  -19.6377   11.1118 C   0  0  0  0  0  0  0  0  0  0  0  0
   12.5527  -18.8684   12.3475 C   0  0  0  0  0  0  0  0  0  0  0  0
   11.4572  -17.9541   12.7451 C   0  0  2  0  0  0  0  0  0  0  0  0
   11.4254  -16.7558   11.9025 N   0  0  0  0  0  0  0  0  0  0  0  0
   11.6727  -17.4752   14.1268 C   0  0  0  0  0  0  0  0  0  0  0  0
   12.1553  -16.3483   14.4063 O   0  0  0  0  0  0  0  0  0  0  0  0
   11.3351  -18.2897   15.2510 N   0  0  0  0  0  0  0  0  0  0  0  0
   11.5122  -17.8983   16.6150 C   0  0  1  0  0  0  0  0  0  0  0  0
   10.2402  -17.5675   17.3286 C   0  0  0  0  0  0  0  0  0  0  0  0
   10.6169  -17.2607   19.0916 S   0  0  0  0  0  0  0  0  0  0  0  0
   12.1861  -19.0189   17.3277 C   0  0  0  0  0  0  0  0  0  0  0  0
   13.1066  -18.8487   18.1667 O   0  0  0  0  0  0  0  0  0  0  0  0
   11.7757  -20.3079   17.0498 O   0  0  0  0  0  0  0  0  0  0  0  0
  2  1  1  0
  2  3  2  0
  4  2  1  0
  5  4  1  0
  5  6  1  1
  7  5  1  0
  8  7  2  0
 10 12  1  0
 10  9  1  0
 11 10  2  0
 13 12  1  0
 14 13  1  6
 14 15  1  0
 15  7  1  0
 16 14  1  0
 16 17  2  0
 18 16  1  0
 19 18  1  0
 19 20  1  1
 20 21  1  0
 22 19  1  0
 23 22  2  0
 24 22  1  0
M  END
$$$$
