NQC.pdb
     RDKit          3D

 24 23  0  0  1  0  0  0  0  0999 V2000
   11.0262  -16.7681   17.9397 N   0  0  0  0  0  0  0  0  0  0  0  0
    9.6470  -17.0848   18.0437 C   0  0  0  0  0  0  0  0  0  0  0  0
    8.8724  -17.0087   17.0768 O   0  0  0  0  0  0  0  0  0  0  0  0
    9.1499  -17.5187   19.3712 C   0  0  0  0  0  0  0  0  0  0  0  0
   10.2935  -17.5163   20.3946 C   0  0  2  0  0  0  0  0  0  0  0  0
   11.0253  -18.7418   20.1879 N   0  0  0  0  0  0  0  0  0  0  0  0
    9.7013  -17.5464   21.7577 C   0  0  0  0  0  0  0  0  0  0  0  0
    8.5929  -18.1032   21.9673 O   0  0  0  0  0  0  0  0  0  0  0  0
   12.2047  -20.9687   24.9350 N   0  0  0  0  0  0  0  0  0  0  0  0
   11.3990  -20.5769   26.0198 C   0  0  0  0  0  0  0  0  0  0  0  0
   11.2652  -21.1831   27.0918 O   0  0  0  0  0  0  0  0  0  0  0  0
   10.6241  -19.2793   25.8397 C   0  0  0  0  0  0  0  0  0  0  0  0
   10.8854  -18.7211   24.4773 C   0  0  0  0  0  0  0  0  0  0  0  0
   10.1410  -17.4609   24.2493 C   0  0  2  0  0  0  0  0  0  0  0  0
   10.3334  -16.9628   22.8849 N   0  0  0  0  0  0  0  0  0  0  0  0
   10.6506  -16.4016   25.1456 C   0  0  0  0  0  0  0  0  0  0  0  0
   11.8579  -16.2930   25.4798 O   0  0  0  0  0  0  0  0  0  0  0  0
    9.7746  -15.4165   25.6963 N   0  0  0  0  0  0  0  0  0  0  0  0
   10.0764  -14.6167   26.8427 C   0  0  1  0  0  0  0  0  0  0  0  0
    8.9160  -13.8320   27.3662 C   0  0  0  0  0  0  0  0  0  0  0  0
    9.4665  -12.8636   28.8166 S   0  0  0  0  0  0  0  0  0  0  0  0
   10.5667  -15.5247   27.9166 C   0  0  0  0  0  0  0  0  0  0  0  0
   10.0553  -16.6474   28.1577 O   0  0  0  0  0  0  0  0  0  0  0  0
   11.6370  -15.1079   28.6834 O   0  0  0  0  0  0  0  0  0  0  0  0
  2  1  1  0
  2  3  2  0
  4  2  1  0
  5  4  1  0
  5  6  1  6
  7  5  1  0
  8  7  2  0
 10 12  1  0
 10  9  1  0
 11 10  2  0
 13 12  1  0
 14 13  1  6
 14 15  1  0
 15  7  1  0
 16 14  1  0
 16 17  2  0
 18 16  1  0
 19 18  1  0
 19 20  1  1
 20 21  1  0
 22 19  1  0
 23 22  2  0
 24 22  1  0
M  END
$$$$
