NQC.pdb
     RDKit          3D

 24 23  0  0  1  0  0  0  0  0999 V2000
    7.6365  -12.9684   16.4465 N   0  0  0  0  0  0  0  0  0  0  0  0
    8.1343  -14.1751   15.8904 C   0  0  0  0  0  0  0  0  0  0  0  0
    8.0032  -14.4574   14.6888 O   0  0  0  0  0  0  0  0  0  0  0  0
    8.8303  -15.1077   16.8088 C   0  0  0  0  0  0  0  0  0  0  0  0
    8.8221  -14.5514   18.2390 C   0  0  2  0  0  0  0  0  0  0  0  0
    9.1723  -13.1563   18.1336 N   0  0  0  0  0  0  0  0  0  0  0  0
    9.8822  -15.2449   19.0167 C   0  0  0  0  0  0  0  0  0  0  0  0
    9.8452  -16.4905   19.1894 O   0  0  0  0  0  0  0  0  0  0  0  0
   15.7914  -13.7683   19.4715 N   0  0  0  0  0  0  0  0  0  0  0  0
   15.3378  -14.7160   18.5358 C   0  0  0  0  0  0  0  0  0  0  0  0
   15.9431  -15.0975   17.5246 O   0  0  0  0  0  0  0  0  0  0  0  0
   13.9679  -15.3202   18.8100 C   0  0  0  0  0  0  0  0  0  0  0  0
   13.3739  -14.6900   20.0290 C   0  0  0  0  0  0  0  0  0  0  0  0
   12.0395  -15.2521   20.3415 C   0  0  2  0  0  0  0  0  0  0  0  0
   10.9796  -14.5629   19.6010 N   0  0  0  0  0  0  0  0  0  0  0  0
   11.7296  -15.0565   21.7736 C   0  0  0  0  0  0  0  0  0  0  0  0
   12.2544  -14.1617   22.4840 O   0  0  0  0  0  0  0  0  0  0  0  0
   10.7910  -15.8973   22.4468 N   0  0  0  0  0  0  0  0  0  0  0  0
   10.4584  -15.7893   23.8334 C   0  0  1  0  0  0  0  0  0  0  0  0
    9.0530  -15.3502   24.0950 C   0  0  0  0  0  0  0  0  0  0  0  0
    7.9305  -16.2796   22.9902 S   0  0  0  0  0  0  0  0  0  0  0  0
   10.6695  -17.1242   24.4590 C   0  0  0  0  0  0  0  0  0  0  0  0
   10.8279  -18.1800   23.7953 O   0  0  0  0  0  0  0  0  0  0  0  0
   10.6917  -17.2011   25.8377 O   0  0  0  0  0  0  0  0  0  0  0  0
  2  1  1  0
  2  3  2  0
  4  2  1  0
  5  4  1  0
  5  6  1  6
  7  5  1  0
  8  7  2  0
 10 12  1  0
 10  9  1  0
 11 10  2  0
 13 12  1  0
 14 13  1  1
 14 15  1  0
 15  7  1  0
 16 14  1  0
 16 17  2  0
 18 16  1  0
 19 18  1  0
 19 20  1  6
 20 21  1  0
 22 19  1  0
 23 22  2  0
 24 22  1  0
M  END
$$$$
