NQC.pdb
     RDKit          3D

 24 23  0  0  1  0  0  0  0  0999 V2000
    9.5544  -14.1343   17.7851 N   0  0  0  0  0  0  0  0  0  0  0  0
    8.1582  -13.8820   17.7825 C   0  0  0  0  0  0  0  0  0  0  0  0
    7.5236  -13.6641   16.7382 O   0  0  0  0  0  0  0  0  0  0  0  0
    7.4666  -13.8870   19.0937 C   0  0  0  0  0  0  0  0  0  0  0  0
    8.4775  -14.1026   20.2279 C   0  0  2  0  0  0  0  0  0  0  0  0
    9.2309  -15.2825   19.8808 N   0  0  0  0  0  0  0  0  0  0  0  0
    7.7244  -14.3770   21.4798 C   0  0  0  0  0  0  0  0  0  0  0  0
    6.8800  -13.5539   21.9182 O   0  0  0  0  0  0  0  0  0  0  0  0
    7.1772  -19.8042   24.4404 N   0  0  0  0  0  0  0  0  0  0  0  0
    6.2043  -19.4330   23.4942 C   0  0  0  0  0  0  0  0  0  0  0  0
    5.3930  -20.1877   22.9404 O   0  0  0  0  0  0  0  0  0  0  0  0
    6.1602  -17.9562   23.1283 C   0  0  0  0  0  0  0  0  0  0  0  0
    7.2148  -17.2169   23.8881 C   0  0  0  0  0  0  0  0  0  0  0  0
    7.2411  -15.7794   23.5313 C   0  0  2  0  0  0  0  0  0  0  0  0
    7.9049  -15.5578   22.2439 N   0  0  0  0  0  0  0  0  0  0  0  0
    8.0259  -15.0234   24.5300 C   0  0  0  0  0  0  0  0  0  0  0  0
    9.2819  -14.9653   24.5302 O   0  0  0  0  0  0  0  0  0  0  0  0
    7.3819  -14.2977   25.5787 N   0  0  0  0  0  0  0  0  0  0  0  0
    8.0695  -13.5437   26.5805 C   0  0  1  0  0  0  0  0  0  0  0  0
    7.2481  -12.4619   27.2062 C   0  0  0  0  0  0  0  0  0  0  0  0
    6.4532  -11.4848   25.8803 S   0  0  0  0  0  0  0  0  0  0  0  0
    8.5081  -14.4902   27.6434 C   0  0  0  0  0  0  0  0  0  0  0  0
    8.1897  -15.7062   27.6589 O   0  0  0  0  0  0  0  0  0  0  0  0
    9.3045  -14.0029   28.6611 O   0  0  0  0  0  0  0  0  0  0  0  0
  2  1  1  0
  2  3  2  0
  4  2  1  0
  5  4  1  0
  5  6  1  6
  7  5  1  0
  8  7  2  0
 10 12  1  0
 10  9  1  0
 11 10  2  0
 13 12  1  0
 14 13  1  1
 14 15  1  0
 15  7  1  0
 16 14  1  0
 16 17  2  0
 18 16  1  0
 19 18  1  0
 19 20  1  1
 20 21  1  0
 22 19  1  0
 23 22  2  0
 24 22  1  0
M  END
$$$$
