NQC.pdb
     RDKit          3D

 24 23  0  0  1  0  0  0  0  0999 V2000
    9.4140  -27.0420   28.5290 N   0  0  0  0  0  0  0  0  0  0  0  0
    9.2551  -25.7048   28.0818 C   0  0  0  0  0  0  0  0  0  0  0  0
    8.8525  -25.4287   26.9405 O   0  0  0  0  0  0  0  0  0  0  0  0
    9.5921  -24.6254   29.0404 C   0  0  0  0  0  0  0  0  0  0  0  0
   10.0377  -25.2242   30.3812 C   0  0  2  0  0  0  0  0  0  0  0  0
    8.8310  -25.5476   31.1019 N   0  0  0  0  0  0  0  0  0  0  0  0
   10.7724  -24.1780   31.1396 C   0  0  0  0  0  0  0  0  0  0  0  0
   10.1764  -23.4458   31.9711 O   0  0  0  0  0  0  0  0  0  0  0  0
   16.0018  -24.7933   33.7487 N   0  0  0  0  0  0  0  0  0  0  0  0
   14.7547  -24.9813   34.3724 C   0  0  0  0  0  0  0  0  0  0  0  0
   14.5425  -25.6212   35.4116 O   0  0  0  0  0  0  0  0  0  0  0  0
   13.5625  -24.3271   33.6888 C   0  0  0  0  0  0  0  0  0  0  0  0
   14.0269  -23.5545   32.4958 C   0  0  0  0  0  0  0  0  0  0  0  0
   12.8935  -22.9445   31.7626 C   0  0  2  0  0  0  0  0  0  0  0  0
   12.1614  -23.9428   30.9788 N   0  0  0  0  0  0  0  0  0  0  0  0
   13.3947  -21.9503   30.7903 C   0  0  0  0  0  0  0  0  0  0  0  0
   13.5843  -22.2008   29.5728 O   0  0  0  0  0  0  0  0  0  0  0  0
   13.6998  -20.6138   31.1925 N   0  0  0  0  0  0  0  0  0  0  0  0
   14.1344  -19.5814   30.3035 C   0  0  1  0  0  0  0  0  0  0  0  0
   13.7269  -18.2034   30.7174 C   0  0  0  0  0  0  0  0  0  0  0  0
   11.9007  -18.1198   30.7685 S   0  0  0  0  0  0  0  0  0  0  0  0
   15.6205  -19.6407   30.2267 C   0  0  0  0  0  0  0  0  0  0  0  0
   16.3255  -20.3217   31.0138 O   0  0  0  0  0  0  0  0  0  0  0  0
   16.2513  -18.9092   29.2397 O   0  0  0  0  0  0  0  0  0  0  0  0
  2  1  1  0
  2  3  2  0
  4  2  1  0
  5  4  1  0
  5  6  1  1
  7  5  1  0
  8  7  2  0
 10 12  1  0
 10  9  1  0
 11 10  2  0
 13 12  1  0
 14 13  1  6
 14 15  1  0
 15  7  1  0
 16 14  1  0
 16 17  2  0
 18 16  1  0
 19 18  1  0
 19 20  1  1
 20 21  1  0
 22 19  1  0
 23 22  2  0
 24 22  1  0
M  END
$$$$
