NQC.pdb
     RDKit          3D

 24 23  0  0  1  0  0  0  0  0999 V2000
    9.1720  -13.7030   17.9007 N   0  0  0  0  0  0  0  0  0  0  0  0
    7.7933  -13.4332   18.0996 C   0  0  0  0  0  0  0  0  0  0  0  0
    7.0334  -13.1302   17.1661 O   0  0  0  0  0  0  0  0  0  0  0  0
    7.2782  -13.5265   19.4865 C   0  0  0  0  0  0  0  0  0  0  0  0
    8.3901  -13.9893   20.4374 C   0  0  2  0  0  0  0  0  0  0  0  0
    8.9427  -15.1905   19.8612 N   0  0  0  0  0  0  0  0  0  0  0  0
    7.7735  -14.3356   21.7449 C   0  0  0  0  0  0  0  0  0  0  0  0
    7.0647  -13.5014   22.3649 O   0  0  0  0  0  0  0  0  0  0  0  0
    6.6104  -19.6527   26.7992 N   0  0  0  0  0  0  0  0  0  0  0  0
    6.7614  -19.2006   25.4754 C   0  0  0  0  0  0  0  0  0  0  0  0
    6.8512  -19.9091   24.4632 O   0  0  0  0  0  0  0  0  0  0  0  0
    6.8178  -17.6910   25.2893 C   0  0  0  0  0  0  0  0  0  0  0  0
    7.3221  -17.3706   23.9185 C   0  0  0  0  0  0  0  0  0  0  0  0
    7.4097  -15.9089   23.6946 C   0  0  2  0  0  0  0  0  0  0  0  0
    7.9401  -15.6003   22.3640 N   0  0  0  0  0  0  0  0  0  0  0  0
    8.3519  -15.3036   24.6594 C   0  0  0  0  0  0  0  0  0  0  0  0
    9.5986  -15.2853   24.4978 O   0  0  0  0  0  0  0  0  0  0  0  0
    7.8838  -14.6898   25.8616 N   0  0  0  0  0  0  0  0  0  0  0  0
    8.7294  -14.0758   26.8379 C   0  0  1  0  0  0  0  0  0  0  0  0
    8.0657  -12.9974   27.6335 C   0  0  0  0  0  0  0  0  0  0  0  0
    6.8816  -12.1143   26.5553 S   0  0  0  0  0  0  0  0  0  0  0  0
    9.1998  -15.1395   27.7681 C   0  0  0  0  0  0  0  0  0  0  0  0
    8.7767  -16.3228   27.7338 O   0  0  0  0  0  0  0  0  0  0  0  0
   10.1483  -14.8043   28.7142 O   0  0  0  0  0  0  0  0  0  0  0  0
  2  1  1  0
  2  3  2  0
  4  2  1  0
  5  4  1  0
  5  6  1  6
  7  5  1  0
  8  7  2  0
 10 12  1  0
 10  9  1  0
 11 10  2  0
 13 12  1  0
 14 13  1  1
 14 15  1  0
 15  7  1  0
 16 14  1  0
 16 17  2  0
 18 16  1  0
 19 18  1  0
 19 20  1  1
 20 21  1  0
 22 19  1  0
 23 22  2  0
 24 22  1  0
M  END
$$$$
