NQC.pdb
     RDKit          3D

 24 23  0  0  1  0  0  0  0  0999 V2000
    7.5978  -12.9112   17.4497 N   0  0  0  0  0  0  0  0  0  0  0  0
    8.3059  -13.6378   18.4416 C   0  0  0  0  0  0  0  0  0  0  0  0
    9.4712  -14.0309   18.2731 O   0  0  0  0  0  0  0  0  0  0  0  0
    7.5954  -13.9186   19.7120 C   0  0  0  0  0  0  0  0  0  0  0  0
    7.8037  -15.3814   20.1264 C   0  0  2  0  0  0  0  0  0  0  0  0
    7.0181  -16.1769   19.2152 N   0  0  0  0  0  0  0  0  0  0  0  0
    7.2588  -15.5613   21.4976 C   0  0  0  0  0  0  0  0  0  0  0  0
    6.0561  -15.2956   21.7538 O   0  0  0  0  0  0  0  0  0  0  0  0
    8.1549  -19.8909   25.5601 N   0  0  0  0  0  0  0  0  0  0  0  0
    7.5009  -19.0092   26.4401 C   0  0  0  0  0  0  0  0  0  0  0  0
    7.0951  -19.2758   27.5797 O   0  0  0  0  0  0  0  0  0  0  0  0
    7.2798  -17.5946   25.9236 C   0  0  0  0  0  0  0  0  0  0  0  0
    7.7629  -17.4921   24.5121 C   0  0  0  0  0  0  0  0  0  0  0  0
    7.5222  -16.1441   23.9471 C   0  0  2  0  0  0  0  0  0  0  0  0
    8.0416  -16.0337   22.5815 N   0  0  0  0  0  0  0  0  0  0  0  0
    8.2420  -15.1257   24.7406 C   0  0  0  0  0  0  0  0  0  0  0  0
    9.4954  -15.0377   24.7885 O   0  0  0  0  0  0  0  0  0  0  0  0
    7.5329  -14.1594   25.5181 N   0  0  0  0  0  0  0  0  0  0  0  0
    8.1540  -13.1997   26.3772 C   0  0  1  0  0  0  0  0  0  0  0  0
    7.3955  -11.9183   26.5157 C   0  0  0  0  0  0  0  0  0  0  0  0
    5.6378  -12.3066   26.8384 S   0  0  0  0  0  0  0  0  0  0  0  0
    8.3009  -13.8194   27.7234 C   0  0  0  0  0  0  0  0  0  0  0  0
    7.7674  -14.9122   28.0419 O   0  0  0  0  0  0  0  0  0  0  0  0
    9.0625  -13.1567   28.6658 O   0  0  0  0  0  0  0  0  0  0  0  0
  2  1  1  0
  2  3  2  0
  4  2  1  0
  5  4  1  0
  5  6  1  6
  7  5  1  0
  8  7  2  0
 10 12  1  0
 10  9  1  0
 11 10  2  0
 13 12  1  0
 14 13  1  1
 14 15  1  0
 15  7  1  0
 16 14  1  0
 16 17  2  0
 18 16  1  0
 19 18  1  0
 19 20  1  1
 20 21  1  0
 22 19  1  0
 23 22  2  0
 24 22  1  0
M  END
$$$$
