NQC.pdb
     RDKit          3D

 24 23  0  0  1  0  0  0  0  0999 V2000
    9.4603  -13.9647   17.2832 N   0  0  0  0  0  0  0  0  0  0  0  0
    8.0702  -13.6858   17.3376 C   0  0  0  0  0  0  0  0  0  0  0  0
    7.4122  -13.3857   16.3288 O   0  0  0  0  0  0  0  0  0  0  0  0
    7.4148  -13.7659   18.6648 C   0  0  0  0  0  0  0  0  0  0  0  0
    8.4463  -14.1087   19.7481 C   0  0  2  0  0  0  0  0  0  0  0  0
    9.1359  -15.2905   19.2920 N   0  0  0  0  0  0  0  0  0  0  0  0
    7.7168  -14.4434   20.9993 C   0  0  0  0  0  0  0  0  0  0  0  0
    6.9399  -13.6116   21.5352 O   0  0  0  0  0  0  0  0  0  0  0  0
    7.9087  -19.8597   24.1825 N   0  0  0  0  0  0  0  0  0  0  0  0
    7.1118  -19.1241   25.0789 C   0  0  0  0  0  0  0  0  0  0  0  0
    6.6202  -19.5411   26.1366 O   0  0  0  0  0  0  0  0  0  0  0  0
    6.8384  -17.6771   24.6941 C   0  0  0  0  0  0  0  0  0  0  0  0
    7.4312  -17.3919   23.3512 C   0  0  0  0  0  0  0  0  0  0  0  0
    7.2028  -15.9878   22.9383 C   0  0  2  0  0  0  0  0  0  0  0  0
    7.8464  -15.6939   21.6552 N   0  0  0  0  0  0  0  0  0  0  0  0
    7.8111  -15.0652   23.9201 C   0  0  0  0  0  0  0  0  0  0  0  0
    9.0223  -14.7284   23.9021 O   0  0  0  0  0  0  0  0  0  0  0  0
    7.0340  -14.4905   24.9722 N   0  0  0  0  0  0  0  0  0  0  0  0
    7.5299  -13.5362   25.9148 C   0  0  1  0  0  0  0  0  0  0  0  0
    6.4852  -12.6203   26.4681 C   0  0  0  0  0  0  0  0  0  0  0  0
    7.2639  -11.5142   27.6988 S   0  0  0  0  0  0  0  0  0  0  0  0
    8.1553  -14.2870   27.0387 C   0  0  0  0  0  0  0  0  0  0  0  0
    7.8702  -15.4798   27.3148 O   0  0  0  0  0  0  0  0  0  0  0  0
    9.0950  -13.6360   27.8135 O   0  0  0  0  0  0  0  0  0  0  0  0
  2  1  1  0
  2  3  2  0
  4  2  1  0
  5  4  1  0
  5  6  1  6
  7  5  1  0
  8  7  2  0
 10 12  1  0
 10  9  1  0
 11 10  2  0
 13 12  1  0
 14 13  1  1
 14 15  1  0
 15  7  1  0
 16 14  1  0
 16 17  2  0
 18 16  1  0
 19 18  1  0
 19 20  1  1
 20 21  1  0
 22 19  1  0
 23 22  2  0
 24 22  1  0
M  END
$$$$
