NQC.pdb
     RDKit          3D

 24 23  0  0  1  0  0  0  0  0999 V2000
    8.2132  -12.9452   17.0800 N   0  0  0  0  0  0  0  0  0  0  0  0
    7.7899  -14.2966   17.1685 C   0  0  0  0  0  0  0  0  0  0  0  0
    7.6845  -15.0271   16.1705 O   0  0  0  0  0  0  0  0  0  0  0  0
    7.4709  -14.8195   18.5184 C   0  0  0  0  0  0  0  0  0  0  0  0
    8.5049  -14.3250   19.5388 C   0  0  2  0  0  0  0  0  0  0  0  0
    9.7623  -14.9243   19.1651 N   0  0  0  0  0  0  0  0  0  0  0  0
    8.1201  -14.8371   20.8802 C   0  0  0  0  0  0  0  0  0  0  0  0
    6.9675  -14.6344   21.3419 O   0  0  0  0  0  0  0  0  0  0  0  0
   11.3791  -18.9750   24.0186 N   0  0  0  0  0  0  0  0  0  0  0  0
   10.4542  -19.3996   23.0472 C   0  0  0  0  0  0  0  0  0  0  0  0
   10.4267  -20.5078   22.4942 O   0  0  0  0  0  0  0  0  0  0  0  0
    9.3917  -18.3846   22.6501 C   0  0  0  0  0  0  0  0  0  0  0  0
    9.5359  -17.1517   23.4839 C   0  0  0  0  0  0  0  0  0  0  0  0
    8.6264  -16.0740   23.0303 C   0  0  2  0  0  0  0  0  0  0  0  0
    9.0073  -15.5710   21.7079 N   0  0  0  0  0  0  0  0  0  0  0  0
    8.7137  -14.9176   23.9469 C   0  0  0  0  0  0  0  0  0  0  0  0
    9.7654  -14.2542   24.1333 O   0  0  0  0  0  0  0  0  0  0  0  0
    7.5762  -14.4790   24.6917 N   0  0  0  0  0  0  0  0  0  0  0  0
    7.6016  -13.4300   25.6632 C   0  0  1  0  0  0  0  0  0  0  0  0
    6.2808  -12.7633   25.8812 C   0  0  0  0  0  0  0  0  0  0  0  0
    6.4637  -11.5120   27.2023 S   0  0  0  0  0  0  0  0  0  0  0  0
    8.0644  -14.0133   26.9530 C   0  0  0  0  0  0  0  0  0  0  0  0
    7.9312  -15.2279   27.2483 O   0  0  0  0  0  0  0  0  0  0  0  0
    8.6698  -13.1738   27.8673 O   0  0  0  0  0  0  0  0  0  0  0  0
  2  1  1  0
  2  3  2  0
  4  2  1  0
  5  4  1  0
  5  6  1  6
  7  5  1  0
  8  7  2  0
 10 12  1  0
 10  9  1  0
 11 10  2  0
 13 12  1  0
 14 13  1  1
 14 15  1  0
 15  7  1  0
 16 14  1  0
 16 17  2  0
 18 16  1  0
 19 18  1  0
 19 20  1  1
 20 21  1  0
 22 19  1  0
 23 22  2  0
 24 22  1  0
M  END
$$$$
