NQC.pdb
     RDKit          3D

 24 23  0  0  1  0  0  0  0  0999 V2000
    9.0059  -12.1807   18.5406 N   0  0  0  0  0  0  0  0  0  0  0  0
    8.3014  -13.3453   18.1400 C   0  0  0  0  0  0  0  0  0  0  0  0
    8.2480  -13.7162   16.9566 O   0  0  0  0  0  0  0  0  0  0  0  0
    7.6167  -14.1215   19.2013 C   0  0  0  0  0  0  0  0  0  0  0  0
    8.4510  -15.3514   19.5836 C   0  0  2  0  0  0  0  0  0  0  0  0
    8.0491  -16.4084   18.6884 N   0  0  0  0  0  0  0  0  0  0  0  0
    8.0917  -15.7477   20.9705 C   0  0  0  0  0  0  0  0  0  0  0  0
    6.9070  -16.0476   21.2692 O   0  0  0  0  0  0  0  0  0  0  0  0
   11.4340  -18.8907   24.9419 N   0  0  0  0  0  0  0  0  0  0  0  0
   10.4817  -18.4588   25.8833 C   0  0  0  0  0  0  0  0  0  0  0  0
   10.4297  -18.7841   27.0774 O   0  0  0  0  0  0  0  0  0  0  0  0
    9.4204  -17.4988   25.3650 C   0  0  0  0  0  0  0  0  0  0  0  0
    9.6719  -17.2010   23.9213 C   0  0  0  0  0  0  0  0  0  0  0  0
    8.6892  -16.2324   23.3823 C   0  0  2  0  0  0  0  0  0  0  0  0
    9.0396  -15.8121   22.0231 N   0  0  0  0  0  0  0  0  0  0  0  0
    8.6880  -15.0021   24.2018 C   0  0  0  0  0  0  0  0  0  0  0  0
    9.7114  -14.3015   24.4082 O   0  0  0  0  0  0  0  0  0  0  0  0
    7.4905  -14.5296   24.8213 N   0  0  0  0  0  0  0  0  0  0  0  0
    7.4280  -13.4137   25.7134 C   0  0  1  0  0  0  0  0  0  0  0  0
    6.0453  -12.8978   25.9549 C   0  0  0  0  0  0  0  0  0  0  0  0
    6.1207  -11.5828   27.2236 S   0  0  0  0  0  0  0  0  0  0  0  0
    8.0179  -13.8354   27.0142 C   0  0  0  0  0  0  0  0  0  0  0  0
    7.8507  -14.9786   27.5094 O   0  0  0  0  0  0  0  0  0  0  0  0
    8.7865  -12.9211   27.7075 O   0  0  0  0  0  0  0  0  0  0  0  0
  2  1  1  0
  2  3  2  0
  4  2  1  0
  5  4  1  0
  5  6  1  6
  7  5  1  0
  8  7  2  0
 10 12  1  0
 10  9  1  0
 11 10  2  0
 13 12  1  0
 14 13  1  1
 14 15  1  0
 15  7  1  0
 16 14  1  0
 16 17  2  0
 18 16  1  0
 19 18  1  0
 19 20  1  1
 20 21  1  0
 22 19  1  0
 23 22  2  0
 24 22  1  0
M  END
$$$$
