NQC.pdb
     RDKit          3D

 24 23  0  0  1  0  0  0  0  0999 V2000
    8.7935  -12.5447   17.2179 N   0  0  0  0  0  0  0  0  0  0  0  0
    8.3950  -13.9006   17.0917 C   0  0  0  0  0  0  0  0  0  0  0  0
    8.5950  -14.5592   16.0586 O   0  0  0  0  0  0  0  0  0  0  0  0
    7.7183  -14.5190   18.2566 C   0  0  0  0  0  0  0  0  0  0  0  0
    8.5809  -15.6485   18.8355 C   0  0  2  0  0  0  0  0  0  0  0  0
    8.4209  -16.7756   17.9500 N   0  0  0  0  0  0  0  0  0  0  0  0
    8.0360  -16.0168   20.1686 C   0  0  0  0  0  0  0  0  0  0  0  0
    6.9219  -16.5915   20.2738 O   0  0  0  0  0  0  0  0  0  0  0  0
   10.4387  -19.4887   23.9410 N   0  0  0  0  0  0  0  0  0  0  0  0
   11.2311  -18.4671   23.3860 C   0  0  0  0  0  0  0  0  0  0  0  0
   12.4648  -18.4731   23.2747 O   0  0  0  0  0  0  0  0  0  0  0  0
   10.4811  -17.2437   22.8784 C   0  0  0  0  0  0  0  0  0  0  0  0
    9.0185  -17.4020   23.1461 C   0  0  0  0  0  0  0  0  0  0  0  0
    8.2461  -16.2260   22.6828 C   0  0  2  0  0  0  0  0  0  0  0  0
    8.7214  -15.7503   21.3810 N   0  0  0  0  0  0  0  0  0  0  0  0
    8.4286  -15.0980   23.6205 C   0  0  0  0  0  0  0  0  0  0  0  0
    9.4261  -14.3328   23.6040 O   0  0  0  0  0  0  0  0  0  0  0  0
    7.4544  -14.8082   24.6245 N   0  0  0  0  0  0  0  0  0  0  0  0
    7.5652  -13.7462   25.5757 C   0  0  1  0  0  0  0  0  0  0  0  0
    6.2576  -13.1385   25.9723 C   0  0  0  0  0  0  0  0  0  0  0  0
    6.5586  -11.8933   27.2774 S   0  0  0  0  0  0  0  0  0  0  0  0
    8.2312  -14.2900   26.7917 C   0  0  0  0  0  0  0  0  0  0  0  0
    8.2983  -15.5183   27.0507 O   0  0  0  0  0  0  0  0  0  0  0  0
    8.8022  -13.3962   27.6762 O   0  0  0  0  0  0  0  0  0  0  0  0
  2  1  1  0
  2  3  2  0
  4  2  1  0
  5  4  1  0
  5  6  1  6
  7  5  1  0
  8  7  2  0
 10 12  1  0
 10  9  1  0
 11 10  2  0
 13 12  1  0
 14 13  1  1
 14 15  1  0
 15  7  1  0
 16 14  1  0
 16 17  2  0
 18 16  1  0
 19 18  1  0
 19 20  1  1
 20 21  1  0
 22 19  1  0
 23 22  2  0
 24 22  1  0
M  END
$$$$
