NQC.pdb
     RDKit          3D

 24 23  0  0  1  0  0  0  0  0999 V2000
    7.7172  -12.3057   17.3599 N   0  0  0  0  0  0  0  0  0  0  0  0
    7.8674  -13.6701   17.0009 C   0  0  0  0  0  0  0  0  0  0  0  0
    7.2191  -14.1905   16.0791 O   0  0  0  0  0  0  0  0  0  0  0  0
    8.8433  -14.4714   17.7775 C   0  0  0  0  0  0  0  0  0  0  0  0
   10.1451  -14.6407   16.9829 C   0  0  2  0  0  0  0  0  0  0  0  0
    9.8513  -15.5643   15.9150 N   0  0  0  0  0  0  0  0  0  0  0  0
   11.1601  -15.2604   17.8747 C   0  0  0  0  0  0  0  0  0  0  0  0
   11.1600  -16.5001   18.0887 O   0  0  0  0  0  0  0  0  0  0  0  0
   17.2243  -14.1950   19.4699 N   0  0  0  0  0  0  0  0  0  0  0  0
   16.5742  -13.9688   18.2428 C   0  0  0  0  0  0  0  0  0  0  0  0
   17.0341  -13.3545   17.2704 O   0  0  0  0  0  0  0  0  0  0  0  0
   15.1700  -14.5426   18.1171 C   0  0  0  0  0  0  0  0  0  0  0  0
   14.4378  -14.3710   19.4095 C   0  0  0  0  0  0  0  0  0  0  0  0
   13.1608  -15.1217   19.4198 C   0  0  2  0  0  0  0  0  0  0  0  0
   12.1719  -14.5113   18.5274 N   0  0  0  0  0  0  0  0  0  0  0  0
   12.5645  -15.0894   20.7719 C   0  0  0  0  0  0  0  0  0  0  0  0
   12.0204  -14.0708   21.2693 O   0  0  0  0  0  0  0  0  0  0  0  0
   12.5746  -16.2461   21.6105 N   0  0  0  0  0  0  0  0  0  0  0  0
   12.0743  -16.2779   22.9498 C   0  0  1  0  0  0  0  0  0  0  0  0
   10.7332  -16.9247   23.0887 C   0  0  0  0  0  0  0  0  0  0  0  0
   10.2658  -16.9372   24.8567 S   0  0  0  0  0  0  0  0  0  0  0  0
   13.0562  -17.0222   23.7864 C   0  0  0  0  0  0  0  0  0  0  0  0
   13.9785  -17.7276   23.3047 O   0  0  0  0  0  0  0  0  0  0  0  0
   12.9437  -16.9299   25.1597 O   0  0  0  0  0  0  0  0  0  0  0  0
  2  1  1  0
  2  3  2  0
  4  2  1  0
  5  4  1  0
  5  6  1  6
  7  5  1  0
  8  7  2  0
 10 12  1  0
 10  9  1  0
 11 10  2  0
 13 12  1  0
 14 13  1  1
 14 15  1  0
 15  7  1  0
 16 14  1  0
 16 17  2  0
 18 16  1  0
 19 18  1  0
 19 20  1  6
 20 21  1  0
 22 19  1  0
 23 22  2  0
 24 22  1  0
M  END
$$$$
