QQN.pdb
     RDKit          3D

 27 26  0  0  1  0  0  0  0  0999 V2000
    7.3385  -11.6962   19.3086 N   0  0  0  0  0  0  0  0  0  0  0  0
    7.5358  -12.7690   20.2441 C   0  0  0  0  0  0  0  0  0  0  0  0
    7.3095  -12.5199   21.4335 O   0  0  0  0  0  0  0  0  0  0  0  0
    7.9912  -14.0831   19.7611 C   0  0  0  0  0  0  0  0  0  0  0  0
    8.8556  -14.0313   18.5493 C   0  0  0  0  0  0  0  0  0  0  0  0
    9.2729  -15.3892   18.0801 C   0  0  2  0  0  0  0  0  0  0  0  0
    8.2503  -16.3824   18.1147 N   0  0  0  0  0  0  0  0  0  0  0  0
   10.4168  -15.8661   18.9355 C   0  0  0  0  0  0  0  0  0  0  0  0
   10.3164  -16.9520   19.5471 O   0  0  0  0  0  0  0  0  0  0  0  0
   16.3935  -14.7652   16.8970 N   0  0  0  0  0  0  0  0  0  0  0  0
   15.4821  -14.0415   17.7075 C   0  0  0  0  0  0  0  0  0  0  0  0
   15.8267  -12.9416   18.1799 O   0  0  0  0  0  0  0  0  0  0  0  0
   14.1150  -14.5583   18.0145 C   0  0  0  0  0  0  0  0  0  0  0  0
   13.9595  -14.7633   19.4939 C   0  0  0  0  0  0  0  0  0  0  0  0
   12.7393  -15.5773   19.8430 C   0  0  2  0  0  0  0  0  0  0  0  0
   11.6047  -15.0930   19.0514 N   0  0  0  0  0  0  0  0  0  0  0  0
   12.4174  -15.6077   21.2741 C   0  0  0  0  0  0  0  0  0  0  0  0
   11.6801  -14.7924   21.8676 O   0  0  0  0  0  0  0  0  0  0  0  0
    9.8756  -17.4275   25.3876 N   0  0  0  0  0  0  0  0  0  0  0  0
   10.2956  -18.2052   24.2738 C   0  0  0  0  0  0  0  0  0  0  0  0
   10.0951  -19.4553   24.3826 O   0  0  0  0  0  0  0  0  0  0  0  0
   10.9264  -17.6513   23.0500 C   0  0  0  0  0  0  0  0  0  0  0  0
   12.3057  -17.1457   23.2640 C   0  0  2  0  0  0  0  0  0  0  0  0
   12.9627  -16.6316   22.1111 N   0  0  0  0  0  0  0  0  0  0  0  0
   13.1125  -18.1601   23.9903 C   0  0  0  0  0  0  0  0  0  0  0  0
   12.7754  -18.5637   25.1303 O   0  0  0  0  0  0  0  0  0  0  0  0
   14.2587  -18.6836   23.4222 O   0  0  0  0  0  0  0  0  0  0  0  0
  2  1  1  0
  2  4  1  0
  3  2  2  0
  5  6  1  0
  5  4  1  0
  6  8  1  0
  6  7  1  1
  8  9  2  0
  8 16  1  0
 10 11  1  0
 11 12  2  0
 13 14  1  0
 13 11  1  0
 15 14  1  1
 15 17  1  0
 16 15  1  0
 17 18  2  0
 20 19  1  0
 21 20  2  0
 22 20  1  0
 23 22  1  6
 24 23  1  0
 24 17  1  0
 25 27  1  0
 25 23  1  0
 26 25  2  0
M  END
$$$$
