QQN.pdb
     RDKit          3D

 27 26  0  0  1  0  0  0  0  0999 V2000
   10.3139  -15.1161   13.7569 N   0  0  0  0  0  0  0  0  0  0  0  0
    9.4425  -16.2032   14.1089 C   0  0  0  0  0  0  0  0  0  0  0  0
    8.6454  -16.5812   13.2432 O   0  0  0  0  0  0  0  0  0  0  0  0
    9.5298  -16.8024   15.4509 C   0  0  0  0  0  0  0  0  0  0  0  0
   10.5724  -16.2029   16.3294 C   0  0  0  0  0  0  0  0  0  0  0  0
   10.6662  -16.8820   17.6592 C   0  0  2  0  0  0  0  0  0  0  0  0
    9.6894  -17.8945   17.8921 N   0  0  0  0  0  0  0  0  0  0  0  0
   10.5318  -15.8448   18.7426 C   0  0  0  0  0  0  0  0  0  0  0  0
   11.5113  -15.1215   19.0266 O   0  0  0  0  0  0  0  0  0  0  0  0
    8.6388  -12.1089   19.1084 N   0  0  0  0  0  0  0  0  0  0  0  0
    7.7601  -13.0291   18.4823 C   0  0  0  0  0  0  0  0  0  0  0  0
    7.5891  -12.9672   17.2500 O   0  0  0  0  0  0  0  0  0  0  0  0
    7.0289  -14.0759   19.2570 C   0  0  0  0  0  0  0  0  0  0  0  0
    7.6911  -14.2922   20.5872 C   0  0  0  0  0  0  0  0  0  0  0  0
    9.1526  -14.6400   20.4593 C   0  0  2  0  0  0  0  0  0  0  0  0
    9.3036  -15.6836   19.4412 N   0  0  0  0  0  0  0  0  0  0  0  0
    9.7985  -15.0257   21.7190 C   0  0  0  0  0  0  0  0  0  0  0  0
    9.7436  -14.3809   22.7876 O   0  0  0  0  0  0  0  0  0  0  0  0
   12.6540  -17.5892   25.3203 N   0  0  0  0  0  0  0  0  0  0  0  0
   11.7818  -18.4486   24.5974 C   0  0  0  0  0  0  0  0  0  0  0  0
   11.6866  -19.6299   25.0558 O   0  0  0  0  0  0  0  0  0  0  0  0
   11.0152  -18.0489   23.3912 C   0  0  0  0  0  0  0  0  0  0  0  0
   11.2684  -16.6521   22.9567 C   0  0  2  0  0  0  0  0  0  0  0  0
   10.5682  -16.2292   21.7922 N   0  0  0  0  0  0  0  0  0  0  0  0
   12.7306  -16.3999   22.8808 C   0  0  0  0  0  0  0  0  0  0  0  0
   13.4728  -16.5749   23.8781 O   0  0  0  0  0  0  0  0  0  0  0  0
   13.3078  -15.9643   21.7028 O   0  0  0  0  0  0  0  0  0  0  0  0
  2  1  1  0
  2  4  1  0
  3  2  2  0
  5  6  1  0
  5  4  1  0
  6  8  1  0
  6  7  1  1
  8  9  2  0
  8 16  1  0
 10 11  1  0
 11 12  2  0
 13 14  1  0
 13 11  1  0
 15 14  1  1
 15 17  1  0
 16 15  1  0
 17 18  2  0
 20 19  1  0
 21 20  2  0
 22 20  1  0
 23 22  1  6
 24 23  1  0
 24 17  1  0
 25 27  1  0
 25 23  1  0
 26 25  2  0
M  END
$$$$
