QQN.pdb
     RDKit          3D

 27 26  0  0  1  0  0  0  0  0999 V2000
    6.6662  -17.7404   18.4282 N   0  0  0  0  0  0  0  0  0  0  0  0
    7.5470  -16.9089   17.6549 C   0  0  0  0  0  0  0  0  0  0  0  0
    8.0044  -17.3970   16.6155 O   0  0  0  0  0  0  0  0  0  0  0  0
    7.8631  -15.5491   18.1222 C   0  0  0  0  0  0  0  0  0  0  0  0
    7.2129  -15.1698   19.4074 C   0  0  0  0  0  0  0  0  0  0  0  0
    7.4473  -13.7377   19.7717 C   0  0  2  0  0  0  0  0  0  0  0  0
    8.3156  -13.0241   18.8940 N   0  0  0  0  0  0  0  0  0  0  0  0
    8.0337  -13.6809   21.1575 C   0  0  0  0  0  0  0  0  0  0  0  0
    9.2675  -13.5342   21.2977 O   0  0  0  0  0  0  0  0  0  0  0  0
    5.2009  -11.8395   26.4153 N   0  0  0  0  0  0  0  0  0  0  0  0
    6.4341  -12.3507   26.8940 C   0  0  0  0  0  0  0  0  0  0  0  0
    6.7216  -12.2207   28.0990 O   0  0  0  0  0  0  0  0  0  0  0  0
    7.4046  -13.0439   25.9950 C   0  0  0  0  0  0  0  0  0  0  0  0
    6.8744  -13.0793   24.5905 C   0  0  0  0  0  0  0  0  0  0  0  0
    7.7732  -13.8403   23.6489 C   0  0  2  0  0  0  0  0  0  0  0  0
    7.1971  -13.7923   22.3020 N   0  0  0  0  0  0  0  0  0  0  0  0
    8.0558  -15.2202   24.0599 C   0  0  0  0  0  0  0  0  0  0  0  0
    7.4284  -16.2314   23.6798 O   0  0  0  0  0  0  0  0  0  0  0  0
    6.1122  -18.0730   25.2069 N   0  0  0  0  0  0  0  0  0  0  0  0
    7.4478  -18.1639   25.6861 C   0  0  0  0  0  0  0  0  0  0  0  0
    7.5610  -18.4885   26.9094 O   0  0  0  0  0  0  0  0  0  0  0  0
    8.6566  -17.9097   24.8634 C   0  0  0  0  0  0  0  0  0  0  0  0
    9.5060  -16.8042   25.3735 C   0  0  2  0  0  0  0  0  0  0  0  0
    9.1259  -15.4938   24.9688 N   0  0  0  0  0  0  0  0  0  0  0  0
   10.9383  -17.1014   25.1137 C   0  0  0  0  0  0  0  0  0  0  0  0
   11.4212  -18.2345   25.3566 O   0  0  0  0  0  0  0  0  0  0  0  0
   11.7743  -16.1301   24.5959 O   0  0  0  0  0  0  0  0  0  0  0  0
  2  1  1  0
  2  4  1  0
  3  2  2  0
  5  6  1  0
  5  4  1  0
  6  8  1  0
  6  7  1  6
  8  9  2  0
  8 16  1  0
 10 11  1  0
 11 12  2  0
 13 14  1  0
 13 11  1  0
 15 14  1  1
 15 17  1  0
 16 15  1  0
 17 18  2  0
 20 19  1  0
 21 20  2  0
 22 20  1  0
 23 22  1  6
 24 23  1  0
 24 17  1  0
 25 27  1  0
 25 23  1  0
 26 25  2  0
M  END
$$$$
