QQN.pdb
     RDKit          3D

 27 26  0  0  1  0  0  0  0  0999 V2000
    8.5802  -15.2666   15.2099 N   0  0  0  0  0  0  0  0  0  0  0  0
    7.5658  -14.5675   15.9498 C   0  0  0  0  0  0  0  0  0  0  0  0
    6.5996  -14.1429   15.3064 O   0  0  0  0  0  0  0  0  0  0  0  0
    7.7175  -14.3869   17.4030 C   0  0  0  0  0  0  0  0  0  0  0  0
    8.9085  -15.0621   17.9894 C   0  0  0  0  0  0  0  0  0  0  0  0
    8.5548  -15.9779   19.1183 C   0  0  2  0  0  0  0  0  0  0  0  0
    7.1667  -16.2811   19.2396 N   0  0  0  0  0  0  0  0  0  0  0  0
    9.0112  -15.3523   20.4098 C   0  0  0  0  0  0  0  0  0  0  0  0
   10.1312  -14.7991   20.4633 O   0  0  0  0  0  0  0  0  0  0  0  0
    5.4265  -13.9393   25.4511 N   0  0  0  0  0  0  0  0  0  0  0  0
    6.7434  -13.6200   25.8695 C   0  0  0  0  0  0  0  0  0  0  0  0
    6.9113  -13.0088   26.9418 O   0  0  0  0  0  0  0  0  0  0  0  0
    7.9421  -13.9951   25.0616 C   0  0  0  0  0  0  0  0  0  0  0  0
    7.5169  -14.5705   23.7414 C   0  0  0  0  0  0  0  0  0  0  0  0
    8.6865  -14.9402   22.8645 C   0  0  2  0  0  0  0  0  0  0  0  0
    8.1803  -15.3867   21.5634 N   0  0  0  0  0  0  0  0  0  0  0  0
    9.5975  -15.9296   23.4509 C   0  0  0  0  0  0  0  0  0  0  0  0
    9.3542  -17.1476   23.5847 O   0  0  0  0  0  0  0  0  0  0  0  0
   13.7360  -17.6253   22.7805 N   0  0  0  0  0  0  0  0  0  0  0  0
   14.0982  -16.5388   23.6233 C   0  0  0  0  0  0  0  0  0  0  0  0
   15.2763  -16.0939   23.4533 O   0  0  0  0  0  0  0  0  0  0  0  0
   13.2072  -15.9304   24.6423 C   0  0  0  0  0  0  0  0  0  0  0  0
   11.8025  -16.4048   24.5689 C   0  0  2  0  0  0  0  0  0  0  0  0
   10.8850  -15.5268   23.9266 N   0  0  0  0  0  0  0  0  0  0  0  0
   11.3436  -16.8462   25.9113 C   0  0  0  0  0  0  0  0  0  0  0  0
   10.4029  -16.2607   26.5015 O   0  0  0  0  0  0  0  0  0  0  0  0
   11.9471  -17.9178   26.5424 O   0  0  0  0  0  0  0  0  0  0  0  0
  2  1  1  0
  2  4  1  0
  3  2  2  0
  5  6  1  0
  5  4  1  0
  6  8  1  0
  6  7  1  1
  8  9  2  0
  8 16  1  0
 10 11  1  0
 11 12  2  0
 13 14  1  0
 13 11  1  0
 15 14  1  1
 15 17  1  0
 16 15  1  0
 17 18  2  0
 20 19  1  0
 21 20  2  0
 22 20  1  0
 23 22  1  1
 24 23  1  0
 24 17  1  0
 25 27  1  0
 25 23  1  0
 26 25  2  0
M  END
$$$$
