QQN.pdb
     RDKit          3D

 27 26  0  0  1  0  0  0  0  0999 V2000
    7.6151  -12.1801   17.9973 N   0  0  0  0  0  0  0  0  0  0  0  0
    8.0407  -13.5418   17.8256 C   0  0  0  0  0  0  0  0  0  0  0  0
    7.7924  -14.0702   16.7361 O   0  0  0  0  0  0  0  0  0  0  0  0
    8.7321  -14.2339   18.9260 C   0  0  0  0  0  0  0  0  0  0  0  0
    8.0587  -14.1184   20.2494 C   0  0  0  0  0  0  0  0  0  0  0  0
    8.7885  -14.8469   21.3334 C   0  0  2  0  0  0  0  0  0  0  0  0
    9.3027  -16.1247   20.9639 N   0  0  0  0  0  0  0  0  0  0  0  0
    7.8563  -15.0379   22.5004 C   0  0  0  0  0  0  0  0  0  0  0  0
    7.2313  -14.0552   22.9556 O   0  0  0  0  0  0  0  0  0  0  0  0
    6.4693  -21.2431   23.0914 N   0  0  0  0  0  0  0  0  0  0  0  0
    6.2597  -20.2720   24.1035 C   0  0  0  0  0  0  0  0  0  0  0  0
    5.4057  -20.4845   24.9850 O   0  0  0  0  0  0  0  0  0  0  0  0
    7.0342  -18.9958   24.1467 C   0  0  0  0  0  0  0  0  0  0  0  0
    6.0982  -17.8217   24.1295 C   0  0  0  0  0  0  0  0  0  0  0  0
    6.8179  -16.5026   24.2545 C   0  0  2  0  0  0  0  0  0  0  0  0
    7.6830  -16.3226   23.0851 N   0  0  0  0  0  0  0  0  0  0  0  0
    7.5680  -16.3351   25.5043 C   0  0  0  0  0  0  0  0  0  0  0  0
    7.0889  -16.4299   26.6542 O   0  0  0  0  0  0  0  0  0  0  0  0
   11.2192  -15.1273   29.0371 N   0  0  0  0  0  0  0  0  0  0  0  0
    9.9937  -14.4675   28.7460 C   0  0  0  0  0  0  0  0  0  0  0  0
    9.6251  -13.6096   29.6080 O   0  0  0  0  0  0  0  0  0  0  0  0
    9.1660  -14.7221   27.5409 C   0  0  0  0  0  0  0  0  0  0  0  0
    9.7426  -15.7355   26.6220 C   0  0  2  0  0  0  0  0  0  0  0  0
    8.9667  -16.0377   25.4679 N   0  0  0  0  0  0  0  0  0  0  0  0
   10.1454  -16.9445   27.3860 C   0  0  0  0  0  0  0  0  0  0  0  0
    9.2879  -17.7325   27.8547 O   0  0  0  0  0  0  0  0  0  0  0  0
   11.4815  -17.2283   27.5979 O   0  0  0  0  0  0  0  0  0  0  0  0
  2  1  1  0
  2  4  1  0
  3  2  2  0
  5  6  1  0
  5  4  1  0
  6  8  1  0
  6  7  1  6
  8  9  2  0
  8 16  1  0
 10 11  1  0
 11 12  2  0
 13 14  1  0
 13 11  1  0
 15 14  1  1
 15 17  1  0
 16 15  1  0
 17 18  2  0
 20 19  1  0
 21 20  2  0
 22 20  1  0
 23 22  1  1
 24 23  1  0
 24 17  1  0
 25 27  1  0
 25 23  1  0
 26 25  2  0
M  END
$$$$
