QQN.pdb
     RDKit          3D

 27 26  0  0  1  0  0  0  0  0999 V2000
    9.4648  -14.4197   16.5729 N   0  0  0  0  0  0  0  0  0  0  0  0
    8.0576  -14.1792   16.7372 C   0  0  0  0  0  0  0  0  0  0  0  0
    7.3203  -14.5290   15.8089 O   0  0  0  0  0  0  0  0  0  0  0  0
    7.5662  -13.5397   17.9689 C   0  0  0  0  0  0  0  0  0  0  0  0
    8.6006  -13.3527   19.0241 C   0  0  0  0  0  0  0  0  0  0  0  0
    8.8481  -14.5976   19.8160 C   0  0  2  0  0  0  0  0  0  0  0  0
    7.7496  -15.5050   19.8766 N   0  0  0  0  0  0  0  0  0  0  0  0
    9.2127  -14.2103   21.2248 C   0  0  0  0  0  0  0  0  0  0  0  0
   10.1786  -13.4409   21.4207 O   0  0  0  0  0  0  0  0  0  0  0  0
    5.4588  -13.5694   26.1413 N   0  0  0  0  0  0  0  0  0  0  0  0
    6.7443  -13.2331   26.6370 C   0  0  0  0  0  0  0  0  0  0  0  0
    6.8411  -12.6366   27.7262 O   0  0  0  0  0  0  0  0  0  0  0  0
    7.9927  -13.5729   25.8909 C   0  0  0  0  0  0  0  0  0  0  0  0
    7.6552  -14.0499   24.5077 C   0  0  0  0  0  0  0  0  0  0  0  0
    8.8778  -14.4145   23.7041 C   0  0  2  0  0  0  0  0  0  0  0  0
    8.4688  -14.7116   22.3283 N   0  0  0  0  0  0  0  0  0  0  0  0
    9.6752  -15.5075   24.2718 C   0  0  0  0  0  0  0  0  0  0  0  0
   10.0375  -15.5953   25.4641 O   0  0  0  0  0  0  0  0  0  0  0  0
    8.9456  -19.2043   21.3068 N   0  0  0  0  0  0  0  0  0  0  0  0
    9.3938  -19.2618   22.6550 C   0  0  0  0  0  0  0  0  0  0  0  0
    8.5159  -19.6221   23.5002 O   0  0  0  0  0  0  0  0  0  0  0  0
   10.7721  -18.9366   23.0987 C   0  0  0  0  0  0  0  0  0  0  0  0
   10.8623  -17.6982   23.9124 C   0  0  2  0  0  0  0  0  0  0  0  0
   10.1027  -16.5908   23.4413 N   0  0  0  0  0  0  0  0  0  0  0  0
   12.2862  -17.3607   24.1693 C   0  0  0  0  0  0  0  0  0  0  0  0
   12.6984  -17.1237   25.3312 O   0  0  0  0  0  0  0  0  0  0  0  0
   13.1925  -17.3001   23.1274 O   0  0  0  0  0  0  0  0  0  0  0  0
  2  1  1  0
  2  4  1  0
  3  2  2  0
  5  6  1  0
  5  4  1  0
  6  8  1  0
  6  7  1  1
  8  9  2  0
  8 16  1  0
 10 11  1  0
 11 12  2  0
 13 14  1  0
 13 11  1  0
 15 14  1  1
 15 17  1  0
 16 15  1  0
 17 18  2  0
 20 19  1  0
 21 20  2  0
 22 20  1  0
 23 22  1  6
 24 23  1  0
 24 17  1  0
 25 27  1  0
 25 23  1  0
 26 25  2  0
M  END
$$$$
