QQN.pdb
     RDKit          3D

 27 26  0  0  1  0  0  0  0  0999 V2000
    8.7562  -14.9534   13.5883 N   0  0  0  0  0  0  0  0  0  0  0  0
    7.9839  -14.9027   14.7991 C   0  0  0  0  0  0  0  0  0  0  0  0
    7.1225  -15.7766   14.9477 O   0  0  0  0  0  0  0  0  0  0  0  0
    8.2406  -13.8384   15.7835 C   0  0  0  0  0  0  0  0  0  0  0  0
    8.8502  -14.3089   17.0584 C   0  0  0  0  0  0  0  0  0  0  0  0
    8.0675  -13.8875   18.2618 C   0  0  2  0  0  0  0  0  0  0  0  0
    7.4615  -12.5999   18.1695 N   0  0  0  0  0  0  0  0  0  0  0  0
    8.9818  -13.8890   19.4583 C   0  0  0  0  0  0  0  0  0  0  0  0
   10.0338  -13.2138   19.4294 O   0  0  0  0  0  0  0  0  0  0  0  0
    7.3783  -16.2542   25.0531 N   0  0  0  0  0  0  0  0  0  0  0  0
    7.1320  -14.9275   24.6168 C   0  0  0  0  0  0  0  0  0  0  0  0
    6.2531  -14.2520   25.1849 O   0  0  0  0  0  0  0  0  0  0  0  0
    7.8967  -14.3107   23.4920 C   0  0  0  0  0  0  0  0  0  0  0  0
    8.8830  -15.2965   22.9349 C   0  0  0  0  0  0  0  0  0  0  0  0
    9.6098  -14.7702   21.7232 C   0  0  2  0  0  0  0  0  0  0  0  0
    8.6578  -14.6498   20.6153 N   0  0  0  0  0  0  0  0  0  0  0  0
   10.7874  -15.5534   21.3325 C   0  0  0  0  0  0  0  0  0  0  0  0
   10.8978  -16.2185   20.2808 O   0  0  0  0  0  0  0  0  0  0  0  0
   15.9751  -15.7109   20.6636 N   0  0  0  0  0  0  0  0  0  0  0  0
   15.0205  -14.7829   20.1641 C   0  0  0  0  0  0  0  0  0  0  0  0
   15.4401  -14.0254   19.2342 O   0  0  0  0  0  0  0  0  0  0  0  0
   13.6250  -14.6643   20.6549 C   0  0  0  0  0  0  0  0  0  0  0  0
   13.2748  -15.6508   21.7075 C   0  0  2  0  0  0  0  0  0  0  0  0
   11.9352  -15.5979   22.1849 N   0  0  0  0  0  0  0  0  0  0  0  0
   14.2836  -15.6115   22.7976 C   0  0  0  0  0  0  0  0  0  0  0  0
   14.1003  -14.9178   23.8278 O   0  0  0  0  0  0  0  0  0  0  0  0
   15.4525  -16.3427   22.6993 O   0  0  0  0  0  0  0  0  0  0  0  0
  2  1  1  0
  2  4  1  0
  3  2  2  0
  5  6  1  0
  5  4  1  0
  6  8  1  0
  6  7  1  6
  8  9  2  0
  8 16  1  0
 10 11  1  0
 11 12  2  0
 13 14  1  0
 13 11  1  0
 15 14  1  1
 15 17  1  0
 16 15  1  0
 17 18  2  0
 20 19  1  0
 21 20  2  0
 22 20  1  0
 23 22  1  6
 24 23  1  0
 24 17  1  0
 25 27  1  0
 25 23  1  0
 26 25  2  0
M  END
$$$$
