QQN.pdb
     RDKit          3D

 27 26  0  0  1  0  0  0  0  0999 V2000
    9.0245  -17.0094   14.3792 N   0  0  0  0  0  0  0  0  0  0  0  0
    8.6784  -15.9705   13.4487 C   0  0  0  0  0  0  0  0  0  0  0  0
    8.1983  -16.3281   12.3673 O   0  0  0  0  0  0  0  0  0  0  0  0
    8.9077  -14.5618   13.8102 C   0  0  0  0  0  0  0  0  0  0  0  0
    9.3950  -14.3517   15.2019 C   0  0  0  0  0  0  0  0  0  0  0  0
    8.3257  -14.5668   16.2259 C   0  0  2  0  0  0  0  0  0  0  0  0
    7.3689  -13.5147   16.3322 N   0  0  0  0  0  0  0  0  0  0  0  0
    8.9749  -14.7460   17.5728 C   0  0  0  0  0  0  0  0  0  0  0  0
    9.6585  -13.8166   18.0547 O   0  0  0  0  0  0  0  0  0  0  0  0
    7.5373  -19.3362   21.7095 N   0  0  0  0  0  0  0  0  0  0  0  0
    6.7314  -18.4626   20.9360 C   0  0  0  0  0  0  0  0  0  0  0  0
    5.5052  -18.6691   20.8622 O   0  0  0  0  0  0  0  0  0  0  0  0
    7.3084  -17.2964   20.2028 C   0  0  0  0  0  0  0  0  0  0  0  0
    8.8068  -17.3136   20.3007 C   0  0  0  0  0  0  0  0  0  0  0  0
    9.4483  -16.1388   19.6067 C   0  0  2  0  0  0  0  0  0  0  0  0
    8.8160  -15.9598   18.2966 N   0  0  0  0  0  0  0  0  0  0  0  0
   10.9081  -16.2257   19.4875 C   0  0  0  0  0  0  0  0  0  0  0  0
   11.5259  -16.8195   18.5785 O   0  0  0  0  0  0  0  0  0  0  0  0
   15.9340  -13.9235   19.2328 N   0  0  0  0  0  0  0  0  0  0  0  0
   15.2714  -14.2437   20.4496 C   0  0  0  0  0  0  0  0  0  0  0  0
   16.0375  -14.5411   21.4187 O   0  0  0  0  0  0  0  0  0  0  0  0
   13.7985  -14.2462   20.6308 C   0  0  0  0  0  0  0  0  0  0  0  0
   13.1671  -15.5665   20.3818 C   0  0  2  0  0  0  0  0  0  0  0  0
   11.7466  -15.5987   20.4621 N   0  0  0  0  0  0  0  0  0  0  0  0
   13.8213  -16.6086   21.2145 C   0  0  0  0  0  0  0  0  0  0  0  0
   13.4447  -16.8312   22.3912 O   0  0  0  0  0  0  0  0  0  0  0  0
   14.8652  -17.3595   20.7075 O   0  0  0  0  0  0  0  0  0  0  0  0
  2  1  1  0
  2  4  1  0
  3  2  2  0
  5  6  1  0
  5  4  1  0
  6  8  1  0
  6  7  1  1
  8  9  2  0
  8 16  1  0
 10 11  1  0
 11 12  2  0
 13 14  1  0
 13 11  1  0
 15 14  1  6
 15 17  1  0
 16 15  1  0
 17 18  2  0
 20 19  1  0
 21 20  2  0
 22 20  1  0
 23 22  1  1
 24 23  1  0
 24 17  1  0
 25 27  1  0
 25 23  1  0
 26 25  2  0
M  END
$$$$
