QQN.pdb
     RDKit          3D

 27 26  0  0  1  0  0  0  0  0999 V2000
    7.4441  -16.3651   14.4146 N   0  0  0  0  0  0  0  0  0  0  0  0
    7.5577  -14.9327   14.3948 C   0  0  0  0  0  0  0  0  0  0  0  0
    7.2179  -14.3610   13.3529 O   0  0  0  0  0  0  0  0  0  0  0  0
    8.0645  -14.2250   15.5822 C   0  0  0  0  0  0  0  0  0  0  0  0
    8.4055  -15.1095   16.7310 C   0  0  0  0  0  0  0  0  0  0  0  0
    8.8879  -14.3458   17.9236 C   0  0  2  0  0  0  0  0  0  0  0  0
    9.0991  -12.9525   17.7053 N   0  0  0  0  0  0  0  0  0  0  0  0
   10.1866  -14.9479   18.3907 C   0  0  0  0  0  0  0  0  0  0  0  0
   10.2432  -16.1722   18.6381 O   0  0  0  0  0  0  0  0  0  0  0  0
   16.0485  -12.6831   17.3908 N   0  0  0  0  0  0  0  0  0  0  0  0
   16.1496  -14.0470   17.7659 C   0  0  0  0  0  0  0  0  0  0  0  0
   17.1724  -14.6892   17.4607 O   0  0  0  0  0  0  0  0  0  0  0  0
   15.0634  -14.7421   18.5193 C   0  0  0  0  0  0  0  0  0  0  0  0
   13.7432  -14.0773   18.2549 C   0  0  0  0  0  0  0  0  0  0  0  0
   12.6077  -14.7180   19.0122 C   0  0  2  0  0  0  0  0  0  0  0  0
   11.3436  -14.1367   18.5513 N   0  0  0  0  0  0  0  0  0  0  0  0
   12.7300  -14.6403   20.4723 C   0  0  0  0  0  0  0  0  0  0  0  0
   12.4490  -13.6429   21.1700 O   0  0  0  0  0  0  0  0  0  0  0  0
   11.9496  -16.8127   25.2108 N   0  0  0  0  0  0  0  0  0  0  0  0
   11.0177  -16.3637   24.2352 C   0  0  0  0  0  0  0  0  0  0  0  0
    9.8155  -16.2767   24.6376 O   0  0  0  0  0  0  0  0  0  0  0  0
   11.3674  -16.0094   22.8372 C   0  0  0  0  0  0  0  0  0  0  0  0
   12.8246  -16.0495   22.5562 C   0  0  2  0  0  0  0  0  0  0  0  0
   13.2045  -15.7676   21.2140 N   0  0  0  0  0  0  0  0  0  0  0  0
   13.4079  -17.3144   23.0732 C   0  0  0  0  0  0  0  0  0  0  0  0
   13.3240  -17.6197   24.2880 O   0  0  0  0  0  0  0  0  0  0  0  0
   14.0594  -18.1867   22.2217 O   0  0  0  0  0  0  0  0  0  0  0  0
  2  1  1  0
  2  4  1  0
  3  2  2  0
  5  6  1  0
  5  4  1  0
  6  8  1  0
  6  7  1  6
  8  9  2  0
  8 16  1  0
 10 11  1  0
 11 12  2  0
 13 14  1  0
 13 11  1  0
 15 14  1  6
 15 17  1  0
 16 15  1  0
 17 18  2  0
 20 19  1  0
 21 20  2  0
 22 20  1  0
 23 22  1  6
 24 23  1  0
 24 17  1  0
 25 27  1  0
 25 23  1  0
 26 25  2  0
M  END
$$$$
