QQN.pdb
     RDKit          3D

 27 26  0  0  1  0  0  0  0  0999 V2000
   18.0989  -12.6820   13.9648 N   0  0  0  0  0  0  0  0  0  0  0  0
   16.6894  -12.4237   14.0724 C   0  0  0  0  0  0  0  0  0  0  0  0
   16.2764  -11.3700   13.5753 O   0  0  0  0  0  0  0  0  0  0  0  0
   15.8200  -13.3959   14.7555 C   0  0  0  0  0  0  0  0  0  0  0  0
   16.4400  -14.7320   14.9763 C   0  0  0  0  0  0  0  0  0  0  0  0
   15.5514  -15.6605   15.7422 C   0  0  2  0  0  0  0  0  0  0  0  0
   14.2377  -15.8175   15.2103 N   0  0  0  0  0  0  0  0  0  0  0  0
   15.4264  -15.1549   17.1551 C   0  0  0  0  0  0  0  0  0  0  0  0
   16.3571  -14.4848   17.6532 O   0  0  0  0  0  0  0  0  0  0  0  0
   10.2346  -15.7292   20.8265 N   0  0  0  0  0  0  0  0  0  0  0  0
   11.1541  -15.0361   21.6543 C   0  0  0  0  0  0  0  0  0  0  0  0
   10.7837  -14.6335   22.7733 O   0  0  0  0  0  0  0  0  0  0  0  0
   12.5600  -14.7718   21.2253 C   0  0  0  0  0  0  0  0  0  0  0  0
   12.7496  -15.1814   19.7931 C   0  0  0  0  0  0  0  0  0  0  0  0
   14.1747  -15.0225   19.3268 C   0  0  2  0  0  0  0  0  0  0  0  0
   14.2620  -15.4333   17.9226 N   0  0  0  0  0  0  0  0  0  0  0  0
   15.1660  -15.7234   20.1507 C   0  0  0  0  0  0  0  0  0  0  0  0
   15.4205  -16.9452   20.0938 O   0  0  0  0  0  0  0  0  0  0  0  0
   18.8166  -16.2809   19.8531 N   0  0  0  0  0  0  0  0  0  0  0  0
   18.9293  -15.1710   20.7349 C   0  0  0  0  0  0  0  0  0  0  0  0
   19.7013  -14.2431   20.3378 O   0  0  0  0  0  0  0  0  0  0  0  0
   18.2216  -15.0524   22.0338 C   0  0  0  0  0  0  0  0  0  0  0  0
   16.8480  -15.6154   22.0206 C   0  0  2  0  0  0  0  0  0  0  0  0
   15.9360  -15.0021   21.1165 N   0  0  0  0  0  0  0  0  0  0  0  0
   16.3217  -15.7057   23.4071 C   0  0  0  0  0  0  0  0  0  0  0  0
   15.3209  -15.0385   23.7670 O   0  0  0  0  0  0  0  0  0  0  0  0
   16.9271  -16.5316   24.3356 O   0  0  0  0  0  0  0  0  0  0  0  0
  2  1  1  0
  2  4  1  0
  3  2  2  0
  5  6  1  0
  5  4  1  0
  6  8  1  0
  6  7  1  6
  8  9  2  0
  8 16  1  0
 10 11  1  0
 11 12  2  0
 13 14  1  0
 13 11  1  0
 15 14  1  1
 15 17  1  0
 16 15  1  0
 17 18  2  0
 20 19  1  0
 21 20  2  0
 22 20  1  0
 23 22  1  1
 24 23  1  0
 24 17  1  0
 25 27  1  0
 25 23  1  0
 26 25  2  0
M  END
$$$$
