QQN.pdb
     RDKit          3D

 27 26  0  0  1  0  0  0  0  0999 V2000
   16.3359  -15.3112   12.7722 N   0  0  0  0  0  0  0  0  0  0  0  0
   16.7297  -15.2738   14.1537 C   0  0  0  0  0  0  0  0  0  0  0  0
   17.8046  -14.7209   14.4120 O   0  0  0  0  0  0  0  0  0  0  0  0
   15.8625  -15.8828   15.1758 C   0  0  0  0  0  0  0  0  0  0  0  0
   15.2393  -14.9113   16.1171 C   0  0  0  0  0  0  0  0  0  0  0  0
   13.7996  -15.2141   16.3890 C   0  0  2  0  0  0  0  0  0  0  0  0
   12.8765  -14.6505   15.4596 N   0  0  0  0  0  0  0  0  0  0  0  0
   13.4494  -14.7055   17.7624 C   0  0  0  0  0  0  0  0  0  0  0  0
   14.2866  -14.0307   18.4005 O   0  0  0  0  0  0  0  0  0  0  0  0
    7.6238  -14.2558   19.9585 N   0  0  0  0  0  0  0  0  0  0  0  0
    8.2959  -13.5597   18.9217 C   0  0  0  0  0  0  0  0  0  0  0  0
    7.6314  -12.9047   18.0966 O   0  0  0  0  0  0  0  0  0  0  0  0
    9.7830  -13.5869   18.7865 C   0  0  0  0  0  0  0  0  0  0  0  0
   10.3850  -14.4422   19.8640 C   0  0  0  0  0  0  0  0  0  0  0  0
   11.8774  -14.5983   19.7164 C   0  0  2  0  0  0  0  0  0  0  0  0
   12.1786  -14.9866   18.3355 N   0  0  0  0  0  0  0  0  0  0  0  0
   12.4901  -15.5232   20.6767 C   0  0  0  0  0  0  0  0  0  0  0  0
   12.6223  -16.7545   20.5122 O   0  0  0  0  0  0  0  0  0  0  0  0
   16.1618  -17.5115   24.0535 N   0  0  0  0  0  0  0  0  0  0  0  0
   15.5981  -16.2468   24.3769 C   0  0  0  0  0  0  0  0  0  0  0  0
   15.6868  -15.9137   25.5999 O   0  0  0  0  0  0  0  0  0  0  0  0
   14.9431  -15.3422   23.3996 C   0  0  0  0  0  0  0  0  0  0  0  0
   13.6454  -15.8515   22.8891 C   0  0  2  0  0  0  0  0  0  0  0  0
   12.9965  -15.0339   21.9218 N   0  0  0  0  0  0  0  0  0  0  0  0
   12.7621  -16.2227   24.0247 C   0  0  0  0  0  0  0  0  0  0  0  0
   11.6579  -15.6524   24.2024 O   0  0  0  0  0  0  0  0  0  0  0  0
   13.1405  -17.2100   24.9150 O   0  0  0  0  0  0  0  0  0  0  0  0
  2  1  1  0
  2  4  1  0
  3  2  2  0
  5  6  1  0
  5  4  1  0
  6  8  1  0
  6  7  1  6
  8  9  2  0
  8 16  1  0
 10 11  1  0
 11 12  2  0
 13 14  1  0
 13 11  1  0
 15 14  1  6
 15 17  1  0
 16 15  1  0
 17 18  2  0
 20 19  1  0
 21 20  2  0
 22 20  1  0
 23 22  1  1
 24 23  1  0
 24 17  1  0
 25 27  1  0
 25 23  1  0
 26 25  2  0
M  END
$$$$
