FST.pdb
     RDKit          3D

 25 25  0  0  1  0  0  0  0  0999 V2000
    6.4123  -15.8995   25.6019 N   0  0  0  0  0  0  0  0  0  0  0  0
    6.6244  -15.7088   24.1889 C   0  0  1  0  0  0  0  0  0  0  0  0
    6.4837  -14.2348   23.8911 C   0  0  0  0  0  0  0  0  0  0  0  0
    6.6831  -13.5030   25.1491 C   0  0  0  0  0  0  0  0  0  0  0  0
    7.9377  -13.0824   25.5036 C   0  0  0  0  0  0  0  0  0  0  0  0
    8.1582  -12.3911   26.6832 C   0  0  0  0  0  0  0  0  0  0  0  0
    7.0833  -12.1267   27.5100 C   0  0  0  0  0  0  0  0  0  0  0  0
    5.8282  -12.5329   27.1818 C   0  0  0  0  0  0  0  0  0  0  0  0
    5.6377  -13.2210   25.9982 C   0  0  0  0  0  0  0  0  0  0  0  0
    7.8775  -16.2916   23.7012 C   0  0  0  0  0  0  0  0  0  0  0  0
    8.5418  -17.0184   24.4909 O   0  0  0  0  0  0  0  0  0  0  0  0
    9.8622  -15.3149   20.1026 O   0  0  0  0  0  0  0  0  0  0  0  0
    9.7602  -16.6436   20.4336 C   0  0  0  0  0  0  0  0  0  0  0  0
    9.5778  -16.8419   21.9226 C   0  0  2  0  0  0  0  0  0  0  0  0
    8.4180  -16.1095   22.4041 N   0  0  0  0  0  0  0  0  0  0  0  0
   10.7978  -16.4768   22.6769 C   0  0  0  0  0  0  0  0  0  0  0  0
   10.9472  -15.2674   23.0022 O   0  0  0  0  0  0  0  0  0  0  0  0
   12.3288  -18.0610   26.0301 C   0  0  0  0  0  0  0  0  0  0  0  0
   13.2481  -18.0804   24.8340 C   0  0  1  0  0  0  0  0  0  0  0  0
   13.1330  -19.3327   24.2315 O   0  0  0  0  0  0  0  0  0  0  0  0
   12.9653  -16.9732   23.8601 C   0  0  2  0  0  0  0  0  0  0  0  0
   11.8125  -17.3756   23.0649 N   0  0  0  0  0  0  0  0  0  0  0  0
   14.1523  -16.7287   23.0315 C   0  0  0  0  0  0  0  0  0  0  0  0
   14.2062  -16.9516   21.7945 O   0  0  0  0  0  0  0  0  0  0  0  0
   15.2834  -16.2219   23.6445 O   0  0  0  0  0  0  0  0  0  0  0  0
  2  1  1  1
  2 10  1  0
  3  2  1  0
  4  9  2  0
  4  3  1  0
  5  4  1  0
  6  7  1  0
  6  5  2  0
  7  8  2  0
  8  9  1  0
 10 11  2  0
 12 13  1  0
 14 13  1  6
 14 16  1  0
 15 10  1  0
 15 14  1  0
 16 17  2  0
 19 18  1  1
 19 21  1  0
 20 19  1  0
 21 23  1  0
 22 16  1  0
 21 22  1  6
 23 24  2  0
 23 25  1  0
M  END
$$$$
