FST.pdb
     RDKit          3D

 25 25  0  0  1  0  0  0  0  0999 V2000
    6.3747  -18.0629   19.3655 N   0  0  0  0  0  0  0  0  0  0  0  0
    7.0470  -16.9254   19.9417 C   0  0  1  0  0  0  0  0  0  0  0  0
    5.9951  -15.9287   20.3676 C   0  0  0  0  0  0  0  0  0  0  0  0
    6.6724  -14.6560   20.6491 C   0  0  0  0  0  0  0  0  0  0  0  0
    6.7479  -14.1921   21.9358 C   0  0  0  0  0  0  0  0  0  0  0  0
    7.3790  -12.9958   22.2334 C   0  0  0  0  0  0  0  0  0  0  0  0
    7.9393  -12.2652   21.2032 C   0  0  0  0  0  0  0  0  0  0  0  0
    7.8783  -12.7030   19.9177 C   0  0  0  0  0  0  0  0  0  0  0  0
    7.2422  -13.9006   19.6501 C   0  0  0  0  0  0  0  0  0  0  0  0
    7.9887  -17.2799   21.0073 C   0  0  0  0  0  0  0  0  0  0  0  0
    7.5649  -17.9852   21.9643 O   0  0  0  0  0  0  0  0  0  0  0  0
   12.5776  -17.5218   22.6717 O   0  0  0  0  0  0  0  0  0  0  0  0
   11.6975  -17.0641   21.7223 C   0  0  0  0  0  0  0  0  0  0  0  0
   10.2607  -17.3544   22.0980 C   0  0  2  0  0  0  0  0  0  0  0  0
    9.3517  -16.8962   21.0601 N   0  0  0  0  0  0  0  0  0  0  0  0
    9.9117  -16.7760   23.4149 C   0  0  0  0  0  0  0  0  0  0  0  0
   10.0460  -15.5308   23.5635 O   0  0  0  0  0  0  0  0  0  0  0  0
    7.1823  -15.7769   25.3711 C   0  0  0  0  0  0  0  0  0  0  0  0
    7.8913  -16.8170   26.2028 C   0  0  1  0  0  0  0  0  0  0  0  0
    7.2196  -18.0269   26.0308 O   0  0  0  0  0  0  0  0  0  0  0  0
    9.3486  -16.9437   25.8643 C   0  0  2  0  0  0  0  0  0  0  0  0
    9.4376  -17.5071   24.5234 N   0  0  0  0  0  0  0  0  0  0  0  0
   10.0170  -17.7850   26.8645 C   0  0  0  0  0  0  0  0  0  0  0  0
   10.5616  -18.8893   26.6060 O   0  0  0  0  0  0  0  0  0  0  0  0
   10.0527  -17.3400   28.1733 O   0  0  0  0  0  0  0  0  0  0  0  0
  2  1  1  1
  2 10  1  0
  3  2  1  0
  4  9  2  0
  4  3  1  0
  5  4  1  0
  6  7  1  0
  6  5  2  0
  7  8  2  0
  8  9  1  0
 10 11  2  0
 12 13  1  0
 14 13  1  6
 14 16  1  0
 15 10  1  0
 15 14  1  0
 16 17  2  0
 19 18  1  6
 19 21  1  0
 20 19  1  0
 21 23  1  0
 22 16  1  0
 21 22  1  6
 23 24  2  0
 23 25  1  0
M  END
$$$$
