FST.pdb
     RDKit          3D

 25 25  0  0  1  0  0  0  0  0999 V2000
    8.7657  -17.1836   20.4624 N   0  0  0  0  0  0  0  0  0  0  0  0
    9.9077  -16.3074   20.5402 C   0  0  1  0  0  0  0  0  0  0  0  0
    9.5731  -15.1894   21.4991 C   0  0  0  0  0  0  0  0  0  0  0  0
    8.6377  -14.2827   20.8203 C   0  0  0  0  0  0  0  0  0  0  0  0
    9.1039  -13.3888   19.8930 C   0  0  0  0  0  0  0  0  0  0  0  0
    8.2474  -12.5205   19.2367 C   0  0  0  0  0  0  0  0  0  0  0  0
    6.8985  -12.5668   19.5322 C   0  0  0  0  0  0  0  0  0  0  0  0
    6.4100  -13.4443   20.4482 C   0  0  0  0  0  0  0  0  0  0  0  0
    7.2880  -14.2991   21.0878 C   0  0  0  0  0  0  0  0  0  0  0  0
   11.1581  -17.0024   20.8587 C   0  0  0  0  0  0  0  0  0  0  0  0
   11.1706  -17.7760   21.8559 O   0  0  0  0  0  0  0  0  0  0  0  0
   14.8649  -16.3139   18.9433 O   0  0  0  0  0  0  0  0  0  0  0  0
   14.5812  -17.5879   19.3696 C   0  0  0  0  0  0  0  0  0  0  0  0
   13.5841  -17.5932   20.5078 C   0  0  2  0  0  0  0  0  0  0  0  0
   12.3716  -16.8818   20.1371 N   0  0  0  0  0  0  0  0  0  0  0  0
   14.1709  -17.0473   21.7522 C   0  0  0  0  0  0  0  0  0  0  0  0
   14.3640  -15.8024   21.8134 O   0  0  0  0  0  0  0  0  0  0  0  0
   13.3758  -18.1339   25.6318 C   0  0  0  0  0  0  0  0  0  0  0  0
   14.8285  -18.1452   25.2244 C   0  0  1  0  0  0  0  0  0  0  0  0
   15.1732  -19.4618   24.9210 O   0  0  0  0  0  0  0  0  0  0  0  0
   15.1222  -17.2213   24.0780 C   0  0  2  0  0  0  0  0  0  0  0  0
   14.5331  -17.8092   22.8819 N   0  0  0  0  0  0  0  0  0  0  0  0
   16.5732  -17.0393   23.9491 C   0  0  0  0  0  0  0  0  0  0  0  0
   17.2646  -17.5265   23.0177 O   0  0  0  0  0  0  0  0  0  0  0  0
   17.2247  -16.2863   24.9087 O   0  0  0  0  0  0  0  0  0  0  0  0
  2  1  1  1
  2 10  1  0
  3  2  1  0
  4  9  2  0
  4  3  1  0
  5  4  1  0
  6  7  1  0
  6  5  2  0
  7  8  2  0
  8  9  1  0
 10 11  2  0
 12 13  1  0
 14 13  1  6
 14 16  1  0
 15 10  1  0
 15 14  1  0
 16 17  2  0
 19 18  1  6
 19 21  1  0
 20 19  1  0
 21 23  1  0
 22 16  1  0
 21 22  1  6
 23 24  2  0
 23 25  1  0
M  END
$$$$
