FST.pdb
     RDKit          3D

 25 25  0  0  1  0  0  0  0  0999 V2000
    6.5959  -16.3772   25.9624 N   0  0  0  0  0  0  0  0  0  0  0  0
    7.2077  -15.5513   24.9517 C   0  0  1  0  0  0  0  0  0  0  0  0
    8.1869  -14.6265   25.6352 C   0  0  0  0  0  0  0  0  0  0  0  0
    7.4198  -13.5270   26.2354 C   0  0  0  0  0  0  0  0  0  0  0  0
    6.2346  -13.1335   25.6724 C   0  0  0  0  0  0  0  0  0  0  0  0
    5.4888  -12.0999   26.2142 C   0  0  0  0  0  0  0  0  0  0  0  0
    5.9604  -11.4613   27.3450 C   0  0  0  0  0  0  0  0  0  0  0  0
    7.1333  -11.8322   27.9234 C   0  0  0  0  0  0  0  0  0  0  0  0
    7.8568  -12.8670   27.3611 C   0  0  0  0  0  0  0  0  0  0  0  0
    7.7922  -16.3155   23.8462 C   0  0  0  0  0  0  0  0  0  0  0  0
    8.1765  -17.4954   24.0773 O   0  0  0  0  0  0  0  0  0  0  0  0
    8.8626  -14.6674   20.0722 O   0  0  0  0  0  0  0  0  0  0  0  0
    8.4917  -15.9877   20.1404 C   0  0  0  0  0  0  0  0  0  0  0  0
    8.7255  -16.5693   21.5176 C   0  0  2  0  0  0  0  0  0  0  0  0
    7.9672  -15.8418   22.5222 N   0  0  0  0  0  0  0  0  0  0  0  0
   10.1658  -16.6133   21.8559 C   0  0  0  0  0  0  0  0  0  0  0  0
   10.7139  -15.5412   22.2313 O   0  0  0  0  0  0  0  0  0  0  0  0
   12.0273  -18.3712   24.6197 C   0  0  0  0  0  0  0  0  0  0  0  0
   12.5269  -18.8203   23.2687 C   0  0  1  0  0  0  0  0  0  0  0  0
   11.8424  -19.9870   22.9303 O   0  0  0  0  0  0  0  0  0  0  0  0
   12.3767  -17.7672   22.2092 C   0  0  2  0  0  0  0  0  0  0  0  0
   10.9801  -17.7626   21.7935 N   0  0  0  0  0  0  0  0  0  0  0  0
   13.2862  -18.0554   21.0934 C   0  0  0  0  0  0  0  0  0  0  0  0
   12.9058  -18.4081   19.9472 O   0  0  0  0  0  0  0  0  0  0  0  0
   14.6463  -17.9330   21.3113 O   0  0  0  0  0  0  0  0  0  0  0  0
  2  1  1  1
  2 10  1  0
  3  2  1  0
  4  9  2  0
  4  3  1  0
  5  4  1  0
  6  7  1  0
  6  5  2  0
  7  8  2  0
  8  9  1  0
 10 11  2  0
 12 13  1  0
 14 13  1  6
 14 16  1  0
 15 10  1  0
 15 14  1  0
 16 17  2  0
 19 18  1  1
 19 21  1  0
 20 19  1  0
 21 23  1  0
 22 16  1  0
 21 22  1  6
 23 24  2  0
 23 25  1  0
M  END
$$$$
