FST.pdb
     RDKit          3D

 25 25  0  0  1  0  0  0  0  0999 V2000
    6.5511  -16.3678   25.8661 N   0  0  0  0  0  0  0  0  0  0  0  0
    7.2448  -15.5820   24.8766 C   0  0  1  0  0  0  0  0  0  0  0  0
    8.2549  -14.7168   25.5927 C   0  0  0  0  0  0  0  0  0  0  0  0
    7.5293  -13.5976   26.2078 C   0  0  0  0  0  0  0  0  0  0  0  0
    7.4318  -13.5134   27.5716 C   0  0  0  0  0  0  0  0  0  0  0  0
    6.7540  -12.4710   28.1815 C   0  0  0  0  0  0  0  0  0  0  0  0
    6.1690  -11.5033   27.3876 C   0  0  0  0  0  0  0  0  0  0  0  0
    6.2509  -11.5632   26.0320 C   0  0  0  0  0  0  0  0  0  0  0  0
    6.9337  -12.6150   25.4506 C   0  0  0  0  0  0  0  0  0  0  0  0
    7.8185  -16.3818   23.7908 C   0  0  0  0  0  0  0  0  0  0  0  0
    8.2534  -17.5340   24.0674 O   0  0  0  0  0  0  0  0  0  0  0  0
    8.0926  -14.8395   20.0768 O   0  0  0  0  0  0  0  0  0  0  0  0
    8.5088  -16.1480   20.0718 C   0  0  0  0  0  0  0  0  0  0  0  0
    8.7653  -16.6640   21.4710 C   0  0  2  0  0  0  0  0  0  0  0  0
    7.9302  -15.9718   22.4391 N   0  0  0  0  0  0  0  0  0  0  0  0
   10.1977  -16.5755   21.8330 C   0  0  0  0  0  0  0  0  0  0  0  0
   10.6557  -15.4425   22.1448 O   0  0  0  0  0  0  0  0  0  0  0  0
   12.2786  -17.9711   24.7026 C   0  0  0  0  0  0  0  0  0  0  0  0
   12.7525  -18.4849   23.3655 C   0  0  1  0  0  0  0  0  0  0  0  0
   12.1293  -19.7114   23.1379 O   0  0  0  0  0  0  0  0  0  0  0  0
   12.4961  -17.5208   22.2435 C   0  0  2  0  0  0  0  0  0  0  0  0
   11.0975  -17.6607   21.8591 N   0  0  0  0  0  0  0  0  0  0  0  0
   13.4084  -17.8054   21.1291 C   0  0  0  0  0  0  0  0  0  0  0  0
   13.0386  -18.2489   20.0113 O   0  0  0  0  0  0  0  0  0  0  0  0
   14.7588  -17.5731   21.3150 O   0  0  0  0  0  0  0  0  0  0  0  0
  2  1  1  1
  2 10  1  0
  3  2  1  0
  4  9  2  0
  4  3  1  0
  5  4  1  0
  6  7  1  0
  6  5  2  0
  7  8  2  0
  8  9  1  0
 10 11  2  0
 12 13  1  0
 14 13  1  6
 14 16  1  0
 15 10  1  0
 15 14  1  0
 16 17  2  0
 19 18  1  1
 19 21  1  0
 20 19  1  0
 21 23  1  0
 22 16  1  0
 21 22  1  6
 23 24  2  0
 23 25  1  0
M  END
$$$$
