FST.pdb
     RDKit          3D

 25 25  0  0  1  0  0  0  0  0999 V2000
    6.2692  -16.6691   25.8330 N   0  0  0  0  0  0  0  0  0  0  0  0
    6.9857  -15.6932   25.0504 C   0  0  1  0  0  0  0  0  0  0  0  0
    7.8459  -14.8823   25.9905 C   0  0  0  0  0  0  0  0  0  0  0  0
    7.1465  -13.6189   26.2597 C   0  0  0  0  0  0  0  0  0  0  0  0
    5.8550  -13.4490   25.8361 C   0  0  0  0  0  0  0  0  0  0  0  0
    5.1691  -12.2696   26.0739 C   0  0  0  0  0  0  0  0  0  0  0  0
    5.8114  -11.2519   26.7527 C   0  0  0  0  0  0  0  0  0  0  0  0
    7.0927  -11.3948   27.1838 C   0  0  0  0  0  0  0  0  0  0  0  0
    7.7528  -12.5829   26.9324 C   0  0  0  0  0  0  0  0  0  0  0  0
    7.7260  -16.2733   23.9265 C   0  0  0  0  0  0  0  0  0  0  0  0
    8.1707  -17.4480   24.0510 O   0  0  0  0  0  0  0  0  0  0  0  0
    8.6535  -13.9750   20.6716 O   0  0  0  0  0  0  0  0  0  0  0  0
    8.9630  -15.2985   20.4772 C   0  0  0  0  0  0  0  0  0  0  0  0
    9.0372  -16.0586   21.7836 C   0  0  2  0  0  0  0  0  0  0  0  0
    7.9912  -15.6244   22.6951 N   0  0  0  0  0  0  0  0  0  0  0  0
   10.3755  -15.9478   22.4060 C   0  0  0  0  0  0  0  0  0  0  0  0
   10.6179  -14.9220   23.0986 O   0  0  0  0  0  0  0  0  0  0  0  0
   12.0857  -18.3720   24.8953 C   0  0  0  0  0  0  0  0  0  0  0  0
   12.9163  -18.1413   23.6570 C   0  0  1  0  0  0  0  0  0  0  0  0
   12.6546  -19.1857   22.7708 O   0  0  0  0  0  0  0  0  0  0  0  0
   12.6626  -16.8045   23.0224 C   0  0  2  0  0  0  0  0  0  0  0  0
   11.4076  -16.9012   22.2883 N   0  0  0  0  0  0  0  0  0  0  0  0
   13.7889  -16.4495   22.1504 C   0  0  0  0  0  0  0  0  0  0  0  0
   14.9441  -16.1764   22.5674 O   0  0  0  0  0  0  0  0  0  0  0  0
   13.5713  -16.4117   20.7854 O   0  0  0  0  0  0  0  0  0  0  0  0
  2  1  1  1
  2 10  1  0
  3  2  1  0
  4  9  2  0
  4  3  1  0
  5  4  1  0
  6  7  1  0
  6  5  2  0
  7  8  2  0
  8  9  1  0
 10 11  2  0
 12 13  1  0
 14 13  1  6
 14 16  1  0
 15 10  1  0
 15 14  1  0
 16 17  2  0
 19 18  1  1
 19 21  1  0
 20 19  1  0
 21 23  1  0
 22 16  1  0
 21 22  1  6
 23 24  2  0
 23 25  1  0
M  END
$$$$
