FST.pdb
     RDKit          3D

 25 25  0  0  1  0  0  0  0  0999 V2000
    6.2394  -16.7352   25.8672 N   0  0  0  0  0  0  0  0  0  0  0  0
    7.0390  -15.8437   25.0650 C   0  0  1  0  0  0  0  0  0  0  0  0
    7.9438  -15.0672   25.9922 C   0  0  0  0  0  0  0  0  0  0  0  0
    7.3295  -13.7525   26.2198 C   0  0  0  0  0  0  0  0  0  0  0  0
    5.9668  -13.6185   26.1787 C   0  0  0  0  0  0  0  0  0  0  0  0
    5.3577  -12.3925   26.3884 C   0  0  0  0  0  0  0  0  0  0  0  0
    6.1514  -11.2905   26.6430 C   0  0  0  0  0  0  0  0  0  0  0  0
    7.5058  -11.3961   26.6892 C   0  0  0  0  0  0  0  0  0  0  0  0
    8.0864  -12.6323   26.4762 C   0  0  0  0  0  0  0  0  0  0  0  0
    7.7502  -16.5164   23.9744 C   0  0  0  0  0  0  0  0  0  0  0  0
    8.0397  -17.7366   24.1174 O   0  0  0  0  0  0  0  0  0  0  0  0
    9.1801  -14.5913   20.4772 O   0  0  0  0  0  0  0  0  0  0  0  0
    8.8354  -15.9188   20.4120 C   0  0  0  0  0  0  0  0  0  0  0  0
    8.9509  -16.5988   21.7588 C   0  0  2  0  0  0  0  0  0  0  0  0
    8.1477  -15.9110   22.7565 N   0  0  0  0  0  0  0  0  0  0  0  0
   10.3611  -16.7201   22.1915 C   0  0  0  0  0  0  0  0  0  0  0  0
   10.8729  -15.7447   22.8059 O   0  0  0  0  0  0  0  0  0  0  0  0
   12.4255  -19.9473   23.8028 C   0  0  0  0  0  0  0  0  0  0  0  0
   12.9592  -19.3356   22.5311 C   0  0  1  0  0  0  0  0  0  0  0  0
   12.4936  -20.1030   21.4640 O   0  0  0  0  0  0  0  0  0  0  0  0
   12.5842  -17.8902   22.3743 C   0  0  2  0  0  0  0  0  0  0  0  0
   11.1843  -17.8438   21.9729 N   0  0  0  0  0  0  0  0  0  0  0  0
   13.4655  -17.2553   21.3867 C   0  0  0  0  0  0  0  0  0  0  0  0
   13.0759  -16.8162   20.2739 O   0  0  0  0  0  0  0  0  0  0  0  0
   14.8078  -17.1301   21.6943 O   0  0  0  0  0  0  0  0  0  0  0  0
  2  1  1  1
  2 10  1  0
  3  2  1  0
  4  9  2  0
  4  3  1  0
  5  4  1  0
  6  7  1  0
  6  5  2  0
  7  8  2  0
  8  9  1  0
 10 11  2  0
 12 13  1  0
 14 13  1  6
 14 16  1  0
 15 10  1  0
 15 14  1  0
 16 17  2  0
 19 18  1  1
 19 21  1  0
 20 19  1  0
 21 23  1  0
 22 16  1  0
 21 22  1  6
 23 24  2  0
 23 25  1  0
M  END
$$$$
