FST.pdb
     RDKit          3D

 25 25  0  0  1  0  0  0  0  0999 V2000
    8.1607  -16.4843   17.4739 N   0  0  0  0  0  0  0  0  0  0  0  0
    9.3365  -16.4582   18.3074 C   0  0  1  0  0  0  0  0  0  0  0  0
    9.7911  -15.0229   18.4274 C   0  0  0  0  0  0  0  0  0  0  0  0
    8.8329  -14.3207   19.2914 C   0  0  0  0  0  0  0  0  0  0  0  0
    7.7186  -13.7402   18.7458 C   0  0  0  0  0  0  0  0  0  0  0  0
    6.7971  -13.0707   19.5336 C   0  0  0  0  0  0  0  0  0  0  0  0
    7.0177  -12.9939   20.8954 C   0  0  0  0  0  0  0  0  0  0  0  0
    8.1153  -13.5613   21.4622 C   0  0  0  0  0  0  0  0  0  0  0  0
    9.0181  -14.2232   20.6515 C   0  0  0  0  0  0  0  0  0  0  0  0
    9.1543  -17.1286   19.5978 C   0  0  0  0  0  0  0  0  0  0  0  0
    7.9756  -17.3269   20.0031 O   0  0  0  0  0  0  0  0  0  0  0  0
   10.6551  -20.2349   22.9213 O   0  0  0  0  0  0  0  0  0  0  0  0
   10.8802  -19.5106   21.7767 C   0  0  0  0  0  0  0  0  0  0  0  0
    9.9543  -18.3184   21.6719 C   0  0  2  0  0  0  0  0  0  0  0  0
   10.1978  -17.5804   20.4433 N   0  0  0  0  0  0  0  0  0  0  0  0
   10.0567  -17.4398   22.8585 C   0  0  0  0  0  0  0  0  0  0  0  0
   11.0557  -16.6739   22.9376 O   0  0  0  0  0  0  0  0  0  0  0  0
    7.5528  -14.9071   24.4955 C   0  0  0  0  0  0  0  0  0  0  0  0
    7.9963  -15.9722   25.4677 C   0  0  1  0  0  0  0  0  0  0  0  0
    6.9924  -16.9383   25.5247 O   0  0  0  0  0  0  0  0  0  0  0  0
    9.3225  -16.5773   25.1084 C   0  0  2  0  0  0  0  0  0  0  0  0
    9.1231  -17.3875   23.9138 N   0  0  0  0  0  0  0  0  0  0  0  0
    9.8267  -17.3689   26.2373 C   0  0  0  0  0  0  0  0  0  0  0  0
   10.0500  -18.6060   26.1865 O   0  0  0  0  0  0  0  0  0  0  0  0
   10.0730  -16.7185   27.4325 O   0  0  0  0  0  0  0  0  0  0  0  0
  2  1  1  1
  2 10  1  0
  3  2  1  0
  4  9  2  0
  4  3  1  0
  5  4  1  0
  6  7  1  0
  6  5  2  0
  7  8  2  0
  8  9  1  0
 10 11  2  0
 12 13  1  0
 14 13  1  1
 14 16  1  0
 15 10  1  0
 15 14  1  0
 16 17  2  0
 19 18  1  6
 19 21  1  0
 20 19  1  0
 21 23  1  0
 22 16  1  0
 21 22  1  6
 23 24  2  0
 23 25  1  0
M  END
$$$$
