FST.pdb
     RDKit          3D

 25 25  0  0  1  0  0  0  0  0999 V2000
    6.0703  -17.8439   21.2721 N   0  0  0  0  0  0  0  0  0  0  0  0
    6.8962  -16.7337   21.6762 C   0  0  1  0  0  0  0  0  0  0  0  0
    6.0188  -15.5074   21.7635 C   0  0  0  0  0  0  0  0  0  0  0  0
    6.8020  -14.3616   21.2827 C   0  0  0  0  0  0  0  0  0  0  0  0
    7.2352  -13.4102   22.1679 C   0  0  0  0  0  0  0  0  0  0  0  0
    7.9748  -12.3180   21.7456 C   0  0  0  0  0  0  0  0  0  0  0  0
    8.2749  -12.1974   20.4023 C   0  0  0  0  0  0  0  0  0  0  0  0
    7.8572  -13.1273   19.5031 C   0  0  0  0  0  0  0  0  0  0  0  0
    7.1207  -14.2069   19.9530 C   0  0  0  0  0  0  0  0  0  0  0  0
    7.6701  -16.9925   22.8935 C   0  0  0  0  0  0  0  0  0  0  0  0
    7.0392  -17.2702   23.9509 O   0  0  0  0  0  0  0  0  0  0  0  0
   11.9291  -17.3864   23.1185 O   0  0  0  0  0  0  0  0  0  0  0  0
   11.0461  -18.1075   23.8838 C   0  0  0  0  0  0  0  0  0  0  0  0
    9.7990  -17.3132   24.2059 C   0  0  2  0  0  0  0  0  0  0  0  0
    9.0833  -16.9583   22.9913 N   0  0  0  0  0  0  0  0  0  0  0  0
   10.1076  -16.1161   25.0197 C   0  0  0  0  0  0  0  0  0  0  0  0
   10.7735  -15.1927   24.4769 O   0  0  0  0  0  0  0  0  0  0  0  0
    8.7518  -13.0815   26.3029 C   0  0  0  0  0  0  0  0  0  0  0  0
    9.1565  -13.9036   27.5016 C   0  0  1  0  0  0  0  0  0  0  0  0
    8.0190  -14.5624   27.9670 O   0  0  0  0  0  0  0  0  0  0  0  0
   10.2673  -14.8683   27.2020 C   0  0  2  0  0  0  0  0  0  0  0  0
    9.7151  -15.9215   26.3599 N   0  0  0  0  0  0  0  0  0  0  0  0
   10.8176  -15.3937   28.4575 C   0  0  0  0  0  0  0  0  0  0  0  0
   10.7670  -16.6041   28.7971 O   0  0  0  0  0  0  0  0  0  0  0  0
   11.4305  -14.5068   29.3235 O   0  0  0  0  0  0  0  0  0  0  0  0
  2  1  1  1
  2 10  1  0
  3  2  1  0
  4  9  2  0
  4  3  1  0
  5  4  1  0
  6  7  1  0
  6  5  2  0
  7  8  2  0
  8  9  1  0
 10 11  2  0
 12 13  1  0
 14 13  1  6
 14 16  1  0
 15 10  1  0
 15 14  1  0
 16 17  2  0
 19 18  1  6
 19 21  1  0
 20 19  1  0
 21 23  1  0
 22 16  1  0
 21 22  1  6
 23 24  2  0
 23 25  1  0
M  END
$$$$
