FST.pdb
     RDKit          3D

 25 25  0  0  1  0  0  0  0  0999 V2000
    5.6672  -17.8527   25.6151 N   0  0  0  0  0  0  0  0  0  0  0  0
    6.1740  -16.5224   25.3884 C   0  0  1  0  0  0  0  0  0  0  0  0
    6.6881  -15.9888   26.7046 C   0  0  0  0  0  0  0  0  0  0  0  0
    6.8152  -14.5310   26.5775 C   0  0  0  0  0  0  0  0  0  0  0  0
    8.0562  -13.9586   26.4848 C   0  0  0  0  0  0  0  0  0  0  0  0
    8.2090  -12.5874   26.3648 C   0  0  0  0  0  0  0  0  0  0  0  0
    7.0795  -11.7921   26.3393 C   0  0  0  0  0  0  0  0  0  0  0  0
    5.8364  -12.3346   26.4295 C   0  0  0  0  0  0  0  0  0  0  0  0
    5.7140  -13.7063   26.5484 C   0  0  0  0  0  0  0  0  0  0  0  0
    7.1518  -16.4462   24.2993 C   0  0  0  0  0  0  0  0  0  0  0  0
    8.1012  -17.2780   24.2939 O   0  0  0  0  0  0  0  0  0  0  0  0
    8.6530  -14.4669   20.0792 O   0  0  0  0  0  0  0  0  0  0  0  0
    7.7912  -14.4309   21.1475 C   0  0  0  0  0  0  0  0  0  0  0  0
    8.1107  -15.5026   22.1668 C   0  0  2  0  0  0  0  0  0  0  0  0
    7.1265  -15.5091   23.2368 N   0  0  0  0  0  0  0  0  0  0  0  0
    9.4847  -15.3602   22.6984 C   0  0  0  0  0  0  0  0  0  0  0  0
    9.7263  -14.3723   23.4443 O   0  0  0  0  0  0  0  0  0  0  0  0
   11.6255  -17.5203   25.0182 C   0  0  0  0  0  0  0  0  0  0  0  0
   12.2744  -17.3445   23.6675 C   0  0  1  0  0  0  0  0  0  0  0  0
   11.9383  -18.4514   22.8888 O   0  0  0  0  0  0  0  0  0  0  0  0
   11.8863  -16.0598   22.9943 C   0  0  2  0  0  0  0  0  0  0  0  0
   10.5520  -16.2442   22.4387 N   0  0  0  0  0  0  0  0  0  0  0  0
   12.8751  -15.7243   21.9623 C   0  0  0  0  0  0  0  0  0  0  0  0
   12.6265  -15.7013   20.7292 O   0  0  0  0  0  0  0  0  0  0  0  0
   14.1606  -15.4136   22.3661 O   0  0  0  0  0  0  0  0  0  0  0  0
  2  1  1  1
  2 10  1  0
  3  2  1  0
  4  9  2  0
  4  3  1  0
  5  4  1  0
  6  7  1  0
  6  5  2  0
  7  8  2  0
  8  9  1  0
 10 11  2  0
 12 13  1  0
 14 13  1  6
 14 16  1  0
 15 10  1  0
 15 14  1  0
 16 17  2  0
 19 18  1  1
 19 21  1  0
 20 19  1  0
 21 23  1  0
 22 16  1  0
 21 22  1  6
 23 24  2  0
 23 25  1  0
M  END
$$$$
