FST.pdb
     RDKit          3D

 25 25  0  0  1  0  0  0  0  0999 V2000
    7.3427  -14.3693   20.7027 N   0  0  0  0  0  0  0  0  0  0  0  0
    7.6539  -14.1380   22.0910 C   0  0  1  0  0  0  0  0  0  0  0  0
    6.4351  -13.5340   22.7476 C   0  0  0  0  0  0  0  0  0  0  0  0
    6.7617  -13.2896   24.1587 C   0  0  0  0  0  0  0  0  0  0  0  0
    6.2521  -14.1099   25.1302 C   0  0  0  0  0  0  0  0  0  0  0  0
    6.5409  -13.9052   26.4691 C   0  0  0  0  0  0  0  0  0  0  0  0
    7.3605  -12.8493   26.8187 C   0  0  0  0  0  0  0  0  0  0  0  0
    7.8793  -12.0204   25.8745 C   0  0  0  0  0  0  0  0  0  0  0  0
    7.5742  -12.2486   24.5458 C   0  0  0  0  0  0  0  0  0  0  0  0
    8.1681  -15.3242   22.7812 C   0  0  0  0  0  0  0  0  0  0  0  0
    7.4106  -16.3288   22.8807 O   0  0  0  0  0  0  0  0  0  0  0  0
   12.2970  -16.0521   23.6370 O   0  0  0  0  0  0  0  0  0  0  0  0
   11.3675  -16.9621   23.1973 C   0  0  0  0  0  0  0  0  0  0  0  0
   10.0043  -16.7155   23.8061 C   0  0  2  0  0  0  0  0  0  0  0  0
    9.4580  -15.4459   23.3551 N   0  0  0  0  0  0  0  0  0  0  0  0
   10.0428  -16.7918   25.2838 C   0  0  0  0  0  0  0  0  0  0  0  0
   10.2717  -15.7276   25.9210 O   0  0  0  0  0  0  0  0  0  0  0  0
    8.6770  -20.1528   27.3958 C   0  0  0  0  0  0  0  0  0  0  0  0
    8.7893  -18.7832   28.0187 C   0  0  1  0  0  0  0  0  0  0  0  0
    8.8660  -18.9514   29.4008 O   0  0  0  0  0  0  0  0  0  0  0  0
    9.9551  -17.9954   27.4947 C   0  0  2  0  0  0  0  0  0  0  0  0
    9.8424  -17.9633   26.0423 N   0  0  0  0  0  0  0  0  0  0  0  0
   11.2098  -18.6142   27.9398 C   0  0  0  0  0  0  0  0  0  0  0  0
   12.0564  -19.1278   27.1636 O   0  0  0  0  0  0  0  0  0  0  0  0
   11.4822  -18.6360   29.2953 O   0  0  0  0  0  0  0  0  0  0  0  0
  2  1  1  6
  2 10  1  0
  3  2  1  0
  4  9  2  0
  4  3  1  0
  5  4  1  0
  6  7  1  0
  6  5  2  0
  7  8  2  0
  8  9  1  0
 10 11  2  0
 12 13  1  0
 14 13  1  6
 14 16  1  0
 15 10  1  0
 15 14  1  0
 16 17  2  0
 19 18  1  6
 19 21  1  0
 20 19  1  0
 21 23  1  0
 22 16  1  0
 21 22  1  6
 23 24  2  0
 23 25  1  0
M  END
$$$$
