FST.pdb
     RDKit          3D

 25 25  0  0  1  0  0  0  0  0999 V2000
    6.0273  -17.0027   25.4514 N   0  0  0  0  0  0  0  0  0  0  0  0
    6.8832  -15.9508   24.9627 C   0  0  1  0  0  0  0  0  0  0  0  0
    7.5696  -15.3188   26.1504 C   0  0  0  0  0  0  0  0  0  0  0  0
    7.0642  -13.9458   26.2811 C   0  0  0  0  0  0  0  0  0  0  0  0
    7.6732  -12.9255   25.5994 C   0  0  0  0  0  0  0  0  0  0  0  0
    7.2207  -11.6206   25.7024 C   0  0  0  0  0  0  0  0  0  0  0  0
    6.1328  -11.3559   26.5119 C   0  0  0  0  0  0  0  0  0  0  0  0
    5.5104  -12.3500   27.1991 C   0  0  0  0  0  0  0  0  0  0  0  0
    5.9835  -13.6430   27.0773 C   0  0  0  0  0  0  0  0  0  0  0  0
    7.8067  -16.3881   23.9122 C   0  0  0  0  0  0  0  0  0  0  0  0
    8.4814  -17.4358   24.1125 O   0  0  0  0  0  0  0  0  0  0  0  0
    7.7783  -14.6039   20.3928 O   0  0  0  0  0  0  0  0  0  0  0  0
    8.9397  -15.3343   20.4483 C   0  0  0  0  0  0  0  0  0  0  0  0
    9.0461  -16.1287   21.7317 C   0  0  2  0  0  0  0  0  0  0  0  0
    8.0131  -15.7306   22.6740 N   0  0  0  0  0  0  0  0  0  0  0  0
   10.3947  -16.0209   22.3321 C   0  0  0  0  0  0  0  0  0  0  0  0
   10.7267  -14.9128   22.8348 O   0  0  0  0  0  0  0  0  0  0  0  0
   12.0803  -18.0984   25.1983 C   0  0  0  0  0  0  0  0  0  0  0  0
   12.8412  -18.1457   23.8963 C   0  0  1  0  0  0  0  0  0  0  0  0
   12.4545  -19.3031   23.2215 O   0  0  0  0  0  0  0  0  0  0  0  0
   12.6341  -16.9214   23.0523 C   0  0  2  0  0  0  0  0  0  0  0  0
   11.3441  -17.0617   22.3894 N   0  0  0  0  0  0  0  0  0  0  0  0
   13.7383  -16.7891   22.0940 C   0  0  0  0  0  0  0  0  0  0  0  0
   14.9290  -16.5465   22.4200 O   0  0  0  0  0  0  0  0  0  0  0  0
   13.4568  -16.9396   20.7486 O   0  0  0  0  0  0  0  0  0  0  0  0
  2  1  1  1
  2 10  1  0
  3  2  1  0
  4  9  2  0
  4  3  1  0
  5  4  1  0
  6  7  1  0
  6  5  2  0
  7  8  2  0
  8  9  1  0
 10 11  2  0
 12 13  1  0
 14 13  1  6
 14 16  1  0
 15 10  1  0
 15 14  1  0
 16 17  2  0
 19 18  1  1
 19 21  1  0
 20 19  1  0
 21 23  1  0
 22 16  1  0
 21 22  1  6
 23 24  2  0
 23 25  1  0
M  END
$$$$
