FST.pdb
     RDKit          3D

 25 25  0  0  1  0  0  0  0  0999 V2000
    5.9770  -17.1597   25.7756 N   0  0  0  0  0  0  0  0  0  0  0  0
    6.8105  -16.1243   25.2178 C   0  0  1  0  0  0  0  0  0  0  0  0
    7.5065  -15.4209   26.3588 C   0  0  0  0  0  0  0  0  0  0  0  0
    7.0614  -14.0211   26.3598 C   0  0  0  0  0  0  0  0  0  0  0  0
    7.9790  -13.0120   26.2323 C   0  0  0  0  0  0  0  0  0  0  0  0
    7.5909  -11.6826   26.2304 C   0  0  0  0  0  0  0  0  0  0  0  0
    6.2487  -11.3814   26.3604 C   0  0  0  0  0  0  0  0  0  0  0  0
    5.3178  -12.3636   26.4885 C   0  0  0  0  0  0  0  0  0  0  0  0
    5.7339  -13.6817   26.4871 C   0  0  0  0  0  0  0  0  0  0  0  0
    7.7235  -16.6050   24.1771 C   0  0  0  0  0  0  0  0  0  0  0  0
    8.2403  -17.7474   24.3215 O   0  0  0  0  0  0  0  0  0  0  0  0
    9.1854  -14.3183   20.8632 O   0  0  0  0  0  0  0  0  0  0  0  0
    8.9208  -15.6583   20.7233 C   0  0  0  0  0  0  0  0  0  0  0  0
    9.0421  -16.3978   22.0379 C   0  0  2  0  0  0  0  0  0  0  0  0
    8.0832  -15.8920   23.0066 N   0  0  0  0  0  0  0  0  0  0  0  0
   10.4228  -16.3478   22.5687 C   0  0  0  0  0  0  0  0  0  0  0  0
   10.7681  -15.3188   23.2112 O   0  0  0  0  0  0  0  0  0  0  0  0
   12.6450  -19.3383   24.4184 C   0  0  0  0  0  0  0  0  0  0  0  0
   13.2205  -18.6805   23.1885 C   0  0  1  0  0  0  0  0  0  0  0  0
   12.9167  -19.4895   22.0941 O   0  0  0  0  0  0  0  0  0  0  0  0
   12.7259  -17.2769   22.9894 C   0  0  2  0  0  0  0  0  0  0  0  0
   11.3895  -17.3627   22.4152 N   0  0  0  0  0  0  0  0  0  0  0  0
   13.6560  -16.5435   22.1221 C   0  0  0  0  0  0  0  0  0  0  0  0
   13.3819  -16.1679   20.9531 O   0  0  0  0  0  0  0  0  0  0  0  0
   14.9124  -16.2449   22.6166 O   0  0  0  0  0  0  0  0  0  0  0  0
  2  1  1  1
  2 10  1  0
  3  2  1  0
  4  9  2  0
  4  3  1  0
  5  4  1  0
  6  7  1  0
  6  5  2  0
  7  8  2  0
  8  9  1  0
 10 11  2  0
 12 13  1  0
 14 13  1  6
 14 16  1  0
 15 10  1  0
 15 14  1  0
 16 17  2  0
 19 18  1  1
 19 21  1  0
 20 19  1  0
 21 23  1  0
 22 16  1  0
 21 22  1  6
 23 24  2  0
 23 25  1  0
M  END
$$$$
