NRP.pdb
     RDKit          3D

 27 27  0  0  1  0  0  0  0  0999 V2000
   19.0107  -21.6399  -14.7043 N   0  0  0  0  0  0  0  0  0  0  0  0
   19.2686  -20.5406  -13.8332 C   0  0  0  0  0  0  0  0  0  0  0  0
   18.3528  -20.0878  -13.1252 O   0  0  0  0  0  0  0  0  0  0  0  0
   20.6178  -19.9695  -13.7959 C   0  0  0  0  0  0  0  0  0  0  0  0
   21.5681  -20.6508  -14.7830 C   0  0  2  0  0  0  0  0  0  0  0  0
   21.6455  -22.0374  -14.4098 N   0  0  0  0  0  0  0  0  0  0  0  0
   22.8664  -19.9392  -14.6574 C   0  0  0  0  0  0  0  0  0  0  0  0
   22.8791  -18.7159  -14.8786 O   0  0  0  0  0  0  0  0  0  0  0  0
   24.9914  -19.6761  -10.0345 N   0  0  0  0  0  0  0  0  0  0  0  0
   25.3804  -20.8636   -9.3632 C   0  0  0  0  0  0  0  0  0  0  0  0
   24.7796  -21.2861   -8.3195 N   0  0  0  0  0  0  0  0  0  0  0  0
   26.4896  -21.6136   -9.8788 N   0  0  0  0  0  0  0  0  0  0  0  0
   26.9201  -21.4697  -11.2524 C   0  0  0  0  0  0  0  0  0  0  0  0
   25.7883  -20.7610  -12.0013 C   0  0  0  0  0  0  0  0  0  0  0  0
   26.2454  -20.5748  -13.3999 C   0  0  0  0  0  0  0  0  0  0  0  0
   25.3009  -19.8354  -14.2869 C   0  0  2  0  0  0  0  0  0  0  0  0
   24.0711  -20.6117  -14.2973 N   0  0  0  0  0  0  0  0  0  0  0  0
   25.8451  -19.5230  -15.6058 C   0  0  0  0  0  0  0  0  0  0  0  0
   25.6449  -20.4469  -16.4947 O   0  0  0  0  0  0  0  0  0  0  0  0
   25.0451  -22.1722   -7.8674 N   0  0  0  0  0  0  0  0  0  0  0  0
   26.5438  -18.3492  -15.9820 C   0  0  0  0  0  0  0  0  0  0  0  0
   26.9191  -17.2530  -15.1521 C   0  0  0  0  0  0  0  0  0  0  0  0
   27.7591  -16.3210  -16.0586 C   0  0  0  0  0  0  0  0  0  0  0  0
   27.1006  -16.6097  -17.4045 C   0  0  1  0  0  0  0  0  0  0  0  0
   27.0037  -18.1077  -17.3218 C   0  0  0  0  0  0  0  0  0  0  0  0
   28.2858  -18.7779  -17.6282 O   0  0  0  0  0  0  0  0  0  0  0  0
   28.7102  -18.7388  -18.8106 O   0  0  0  0  0  0  0  0  0  0  0  0
  2  1  1  0
  2  3  2  0
  4  5  1  0
  4  2  1  0
  5  6  1  1
  7  8  2  0
  7  5  1  0
  9 10  1  0
 10 11  2  0
 12 13  1  0
 12 10  1  0
 13 14  1  0
 14 15  1  0
 16 15  1  1
 16 17  1  0
 17  7  1  0
 18 16  1  0
 19 18  2  0
 20 18  1  0
 21 20  1  0
 22 21  1  0
 23 24  1  0
 23 22  1  0
 24 20  1  0
 25 27  1  0
 24 25  1  6
 26 25  2  0
M  END
$$$$
