NRP.pdb
     RDKit          3D

 27 27  0  0  1  0  0  0  0  0999 V2000
   19.0902  -21.9940  -14.0166 N   0  0  0  0  0  0  0  0  0  0  0  0
   20.4605  -22.3586  -13.8647 C   0  0  0  0  0  0  0  0  0  0  0  0
   20.7788  -23.5599  -13.8381 O   0  0  0  0  0  0  0  0  0  0  0  0
   21.4649  -21.2984  -13.7430 C   0  0  0  0  0  0  0  0  0  0  0  0
   22.2161  -21.3554  -12.4110 C   0  0  2  0  0  0  0  0  0  0  0  0
   21.3586  -20.7723  -11.4146 N   0  0  0  0  0  0  0  0  0  0  0  0
   23.4736  -20.5915  -12.6182 C   0  0  0  0  0  0  0  0  0  0  0  0
   23.4213  -19.3535  -12.5181 O   0  0  0  0  0  0  0  0  0  0  0  0
   31.2490  -22.6633  -10.4076 N   0  0  0  0  0  0  0  0  0  0  0  0
   30.3273  -21.7189   -9.8875 C   0  0  0  0  0  0  0  0  0  0  0  0
   30.2809  -21.4217   -8.6470 N   0  0  0  0  0  0  0  0  0  0  0  0
   29.4161  -21.0770  -10.7910 N   0  0  0  0  0  0  0  0  0  0  0  0
   29.4091  -21.3944  -12.2023 C   0  0  0  0  0  0  0  0  0  0  0  0
   28.3585  -20.4925  -12.8557 C   0  0  0  0  0  0  0  0  0  0  0  0
   27.0338  -21.0972  -12.5739 C   0  0  0  0  0  0  0  0  0  0  0  0
   25.8669  -20.3835  -13.1691 C   0  0  2  0  0  0  0  0  0  0  0  0
   24.7112  -21.2311  -12.9223 N   0  0  0  0  0  0  0  0  0  0  0  0
   26.0581  -19.9905  -14.5628 C   0  0  0  0  0  0  0  0  0  0  0  0
   25.7442  -20.9113  -15.4214 O   0  0  0  0  0  0  0  0  0  0  0  0
   29.5923  -20.7501   -8.2801 N   0  0  0  0  0  0  0  0  0  0  0  0
   26.5373  -18.7447  -15.0377 C   0  0  0  0  0  0  0  0  0  0  0  0
   27.0512  -17.6578  -14.2721 C   0  0  0  0  0  0  0  0  0  0  0  0
   27.5340  -16.6167  -15.3108 C   0  0  0  0  0  0  0  0  0  0  0  0
   26.5466  -16.9017  -16.4387 C   0  0  1  0  0  0  0  0  0  0  0  0
   26.5842  -18.4046  -16.4331 C   0  0  0  0  0  0  0  0  0  0  0  0
   27.7732  -18.9460  -17.1259 O   0  0  0  0  0  0  0  0  0  0  0  0
   28.6666  -19.4957  -16.4335 O   0  0  0  0  0  0  0  0  0  0  0  0
  2  1  1  0
  2  3  2  0
  4  5  1  0
  4  2  1  0
  5  6  1  1
  7  8  2  0
  7  5  1  0
  9 10  1  0
 10 11  2  0
 12 13  1  0
 12 10  1  0
 13 14  1  0
 14 15  1  0
 16 15  1  6
 16 17  1  0
 17  7  1  0
 18 16  1  0
 19 18  2  0
 20 18  1  0
 21 20  1  0
 22 21  1  0
 23 24  1  0
 23 22  1  0
 24 20  1  0
 25 27  1  0
 24 25  1  6
 26 25  2  0
M  END
$$$$
