NRP.pdb
     RDKit          3D

 27 27  0  0  1  0  0  0  0  0999 V2000
   12.8469  -20.4676    2.2343 N   0  0  0  0  0  0  0  0  0  0  0  0
   13.3698  -21.0832    3.4096 C   0  0  0  0  0  0  0  0  0  0  0  0
   12.6526  -21.8510    4.0739 O   0  0  0  0  0  0  0  0  0  0  0  0
   14.7503  -20.7917    3.8059 C   0  0  0  0  0  0  0  0  0  0  0  0
   15.4357  -19.8076    2.8553 C   0  0  2  0  0  0  0  0  0  0  0  0
   15.7850  -20.5384    1.6670 N   0  0  0  0  0  0  0  0  0  0  0  0
   16.6181  -19.2870    3.5892 C   0  0  0  0  0  0  0  0  0  0  0  0
   17.6799  -19.9279    3.5037 O   0  0  0  0  0  0  0  0  0  0  0  0
   19.2879  -11.2255    5.2025 N   0  0  0  0  0  0  0  0  0  0  0  0
   20.0194  -11.9653    6.1667 C   0  0  0  0  0  0  0  0  0  0  0  0
   20.8588  -11.4160    6.9558 N   0  0  0  0  0  0  0  0  0  0  0  0
   19.8054  -13.3812    6.2549 N   0  0  0  0  0  0  0  0  0  0  0  0
   18.7016  -14.0183    5.5704 C   0  0  0  0  0  0  0  0  0  0  0  0
   18.8121  -15.5196    5.8497 C   0  0  0  0  0  0  0  0  0  0  0  0
   17.6962  -16.1772    5.1272 C   0  0  0  0  0  0  0  0  0  0  0  0
   17.7883  -17.6628    5.0269 C   0  0  2  0  0  0  0  0  0  0  0  0
   16.5645  -18.0961    4.3716 N   0  0  0  0  0  0  0  0  0  0  0  0
   18.0786  -18.3273    6.2947 C   0  0  0  0  0  0  0  0  0  0  0  0
   17.0334  -18.5403    7.0335 O   0  0  0  0  0  0  0  0  0  0  0  0
   21.3915  -11.9672    7.6431 N   0  0  0  0  0  0  0  0  0  0  0  0
   19.3485  -18.7407    6.7678 C   0  0  0  0  0  0  0  0  0  0  0  0
   20.6028  -18.6463    6.0975 C   0  0  0  0  0  0  0  0  0  0  0  0
   21.6542  -19.1322    7.1243 C   0  0  0  0  0  0  0  0  0  0  0  0
   20.8072  -20.1323    7.9058 C   0  0  2  0  0  0  0  0  0  0  0  0
   19.5479  -19.3266    8.0646 C   0  0  0  0  0  0  0  0  0  0  0  0
   19.6468  -18.3252    9.1483 O   0  0  0  0  0  0  0  0  0  0  0  0
   19.7148  -17.1107    8.8321 O   0  0  0  0  0  0  0  0  0  0  0  0
  2  1  1  0
  2  3  2  0
  4  5  1  0
  4  2  1  0
  5  6  1  6
  7  8  2  0
  7  5  1  0
  9 10  1  0
 10 11  2  0
 12 13  1  0
 12 10  1  0
 13 14  1  0
 14 15  1  0
 16 15  1  1
 16 17  1  0
 17  7  1  0
 18 16  1  0
 19 18  2  0
 20 18  1  0
 21 20  1  0
 22 21  1  0
 23 24  1  0
 23 22  1  0
 24 20  1  0
 25 27  1  0
 24 25  1  1
 26 25  2  0
M  END
$$$$
