NRP.pdb
     RDKit          3D

 27 27  0  0  1  0  0  0  0  0999 V2000
   18.0321  -18.6787  -14.6545 N   0  0  0  0  0  0  0  0  0  0  0  0
   18.9609  -19.6471  -15.1374 C   0  0  0  0  0  0  0  0  0  0  0  0
   18.5731  -20.5413  -15.9089 O   0  0  0  0  0  0  0  0  0  0  0  0
   20.3593  -19.5615  -14.7074 C   0  0  0  0  0  0  0  0  0  0  0  0
   20.8656  -20.8723  -14.1015 C   0  0  2  0  0  0  0  0  0  0  0  0
   20.3483  -20.9486  -12.7619 N   0  0  0  0  0  0  0  0  0  0  0  0
   22.3488  -20.7992  -14.1511 C   0  0  0  0  0  0  0  0  0  0  0  0
   22.9114  -19.9644  -13.4215 O   0  0  0  0  0  0  0  0  0  0  0  0
   26.2612  -27.1191  -17.6491 N   0  0  0  0  0  0  0  0  0  0  0  0
   26.4210  -26.8366  -16.2682 C   0  0  0  0  0  0  0  0  0  0  0  0
   27.1739  -27.5357  -15.5109 N   0  0  0  0  0  0  0  0  0  0  0  0
   25.7091  -25.7248  -15.7064 N   0  0  0  0  0  0  0  0  0  0  0  0
   24.7841  -24.9462  -16.5007 C   0  0  0  0  0  0  0  0  0  0  0  0
   24.1676  -23.9005  -15.5677 C   0  0  0  0  0  0  0  0  0  0  0  0
   25.1298  -22.7749  -15.4838 C   0  0  0  0  0  0  0  0  0  0  0  0
   24.5707  -21.4951  -14.9597 C   0  0  2  0  0  0  0  0  0  0  0  0
   23.1246  -21.6453  -14.9970 N   0  0  0  0  0  0  0  0  0  0  0  0
   25.0852  -20.3033  -15.6291 C   0  0  0  0  0  0  0  0  0  0  0  0
   24.3348  -19.8722  -16.5959 O   0  0  0  0  0  0  0  0  0  0  0  0
   27.2718  -27.3258  -14.5077 N   0  0  0  0  0  0  0  0  0  0  0  0
   26.2822  -19.6077  -15.3278 C   0  0  0  0  0  0  0  0  0  0  0  0
   27.2673  -19.9464  -14.3550 C   0  0  0  0  0  0  0  0  0  0  0  0
   28.4043  -18.9136  -14.5460 C   0  0  0  0  0  0  0  0  0  0  0  0
   27.5879  -17.7192  -15.0309 C   0  0  1  0  0  0  0  0  0  0  0  0
   26.6869  -18.4123  -16.0148 C   0  0  0  0  0  0  0  0  0  0  0  0
   27.3550  -18.6797  -17.3067 O   0  0  0  0  0  0  0  0  0  0  0  0
   27.6406  -19.8695  -17.5941 O   0  0  0  0  0  0  0  0  0  0  0  0
  2  1  1  0
  2  3  2  0
  4  5  1  0
  4  2  1  0
  5  6  1  1
  7  8  2  0
  7  5  1  0
  9 10  1  0
 10 11  2  0
 12 13  1  0
 12 10  1  0
 13 14  1  0
 14 15  1  0
 16 15  1  6
 16 17  1  0
 17  7  1  0
 18 16  1  0
 19 18  2  0
 20 18  1  0
 21 20  1  0
 22 21  1  0
 23 24  1  0
 23 22  1  0
 24 20  1  0
 25 27  1  0
 24 25  1  6
 26 25  2  0
M  END
$$$$
