NRP.pdb
     RDKit          3D

 27 27  0  0  1  0  0  0  0  0999 V2000
   14.1385  -21.6465    3.7044 N   0  0  0  0  0  0  0  0  0  0  0  0
   15.4615  -22.0747    3.3880 C   0  0  0  0  0  0  0  0  0  0  0  0
   15.6944  -23.2846    3.2232 O   0  0  0  0  0  0  0  0  0  0  0  0
   16.5199  -21.0685    3.2646 C   0  0  0  0  0  0  0  0  0  0  0  0
   16.0144  -19.6516    3.5450 C   0  0  2  0  0  0  0  0  0  0  0  0
   15.7080  -19.0509    2.2748 N   0  0  0  0  0  0  0  0  0  0  0  0
   17.1141  -18.9610    4.2671 C   0  0  0  0  0  0  0  0  0  0  0  0
   18.2333  -19.5023    4.2701 O   0  0  0  0  0  0  0  0  0  0  0  0
   19.9894  -11.0786    5.3117 N   0  0  0  0  0  0  0  0  0  0  0  0
   20.5512  -11.7401    6.4337 C   0  0  0  0  0  0  0  0  0  0  0  0
   21.5401  -11.2619    7.0838 N   0  0  0  0  0  0  0  0  0  0  0  0
   19.9851  -12.9912    6.8495 N   0  0  0  0  0  0  0  0  0  0  0  0
   18.9547  -13.6447    6.0725 C   0  0  0  0  0  0  0  0  0  0  0  0
   18.6555  -14.9781    6.7629 C   0  0  0  0  0  0  0  0  0  0  0  0
   17.7146  -15.7173    5.8866 C   0  0  0  0  0  0  0  0  0  0  0  0
   18.0567  -17.1495    5.6472 C   0  0  2  0  0  0  0  0  0  0  0  0
   16.9201  -17.7198    4.9416 N   0  0  0  0  0  0  0  0  0  0  0  0
   18.4632  -17.8725    6.8494 C   0  0  0  0  0  0  0  0  0  0  0  0
   17.4753  -18.3626    7.5332 O   0  0  0  0  0  0  0  0  0  0  0  0
   21.9557  -11.7664    7.8791 N   0  0  0  0  0  0  0  0  0  0  0  0
   19.7862  -18.0752    7.3142 C   0  0  0  0  0  0  0  0  0  0  0  0
   21.0024  -17.6780    6.6862 C   0  0  0  0  0  0  0  0  0  0  0  0
   22.1216  -18.0458    7.6903 C   0  0  0  0  0  0  0  0  0  0  0  0
   21.4803  -19.2593    8.3569 C   0  0  2  0  0  0  0  0  0  0  0  0
   20.0873  -18.7305    8.5571 C   0  0  0  0  0  0  0  0  0  0  0  0
   19.9824  -17.8349    9.7291 O   0  0  0  0  0  0  0  0  0  0  0  0
   19.8278  -16.6042    9.5259 O   0  0  0  0  0  0  0  0  0  0  0  0
  2  1  1  0
  2  3  2  0
  4  5  1  0
  4  2  1  0
  5  6  1  6
  7  8  2  0
  7  5  1  0
  9 10  1  0
 10 11  2  0
 12 13  1  0
 12 10  1  0
 13 14  1  0
 14 15  1  0
 16 15  1  1
 16 17  1  0
 17  7  1  0
 18 16  1  0
 19 18  2  0
 20 18  1  0
 21 20  1  0
 22 21  1  0
 23 24  1  0
 23 22  1  0
 24 20  1  0
 25 27  1  0
 24 25  1  1
 26 25  2  0
M  END
$$$$
