NRP.pdb
     RDKit          3D

 27 27  0  0  1  0  0  0  0  0999 V2000
   25.9596  -25.1684  -17.0438 N   0  0  0  0  0  0  0  0  0  0  0  0
   24.6515  -25.6460  -16.7361 C   0  0  0  0  0  0  0  0  0  0  0  0
   24.2498  -26.7091  -17.2397 O   0  0  0  0  0  0  0  0  0  0  0  0
   23.8091  -24.8641  -15.8269 C   0  0  0  0  0  0  0  0  0  0  0  0
   24.5155  -23.6089  -15.3100 C   0  0  2  0  0  0  0  0  0  0  0  0
   25.5557  -24.0441  -14.4174 N   0  0  0  0  0  0  0  0  0  0  0  0
   23.4682  -22.7993  -14.6353 C   0  0  0  0  0  0  0  0  0  0  0  0
   23.1318  -23.1315  -13.4855 O   0  0  0  0  0  0  0  0  0  0  0  0
   20.7002  -14.6231  -16.2940 N   0  0  0  0  0  0  0  0  0  0  0  0
   19.9118  -15.0312  -15.1878 C   0  0  0  0  0  0  0  0  0  0  0  0
   19.1072  -14.2386  -14.5932 N   0  0  0  0  0  0  0  0  0  0  0  0
   20.0257  -16.3839  -14.7233 N   0  0  0  0  0  0  0  0  0  0  0  0
   21.0073  -17.2891  -15.2798 C   0  0  0  0  0  0  0  0  0  0  0  0
   20.9154  -18.5913  -14.4797 C   0  0  0  0  0  0  0  0  0  0  0  0
   21.8737  -19.5435  -15.0919 C   0  0  0  0  0  0  0  0  0  0  0  0
   21.9004  -20.9039  -14.4801 C   0  0  2  0  0  0  0  0  0  0  0  0
   22.8538  -21.6753  -15.2618 N   0  0  0  0  0  0  0  0  0  0  0  0
   20.5824  -21.5161  -14.3345 C   0  0  0  0  0  0  0  0  0  0  0  0
   20.0571  -21.9164  -15.4515 O   0  0  0  0  0  0  0  0  0  0  0  0
   18.4904  -14.5658  -13.8366 N   0  0  0  0  0  0  0  0  0  0  0  0
   19.8584  -21.7018  -13.1309 C   0  0  0  0  0  0  0  0  0  0  0  0
   20.2408  -21.3142  -11.8137 C   0  0  0  0  0  0  0  0  0  0  0  0
   19.0251  -21.6530  -10.9174 C   0  0  0  0  0  0  0  0  0  0  0  0
   18.4706  -22.8532  -11.6791 C   0  0  2  0  0  0  0  0  0  0  0  0
   18.5650  -22.3259  -13.0839 C   0  0  0  0  0  0  0  0  0  0  0  0
   17.4594  -21.4032  -13.4200 O   0  0  0  0  0  0  0  0  0  0  0  0
   17.7319  -20.1903  -13.6053 O   0  0  0  0  0  0  0  0  0  0  0  0
  2  1  1  0
  2  3  2  0
  4  5  1  0
  4  2  1  0
  5  6  1  1
  7  8  2  0
  7  5  1  0
  9 10  1  0
 10 11  2  0
 12 13  1  0
 12 10  1  0
 13 14  1  0
 14 15  1  0
 16 15  1  6
 16 17  1  0
 17  7  1  0
 18 16  1  0
 19 18  2  0
 20 18  1  0
 21 20  1  0
 22 21  1  0
 23 24  1  0
 23 22  1  0
 24 20  1  0
 25 27  1  0
 24 25  1  1
 26 25  2  0
M  END
$$$$
