NRP.pdb
     RDKit          3D

 27 27  0  0  1  0  0  0  0  0999 V2000
   23.0565  -22.0023   -8.0789 N   0  0  0  0  0  0  0  0  0  0  0  0
   22.5506  -21.0950   -9.0559 C   0  0  0  0  0  0  0  0  0  0  0  0
   21.3287  -20.8757   -9.1184 O   0  0  0  0  0  0  0  0  0  0  0  0
   23.4927  -20.4402   -9.9677 C   0  0  0  0  0  0  0  0  0  0  0  0
   24.9214  -20.9643   -9.8070 C   0  0  2  0  0  0  0  0  0  0  0  0
   25.3972  -20.5148   -8.5265 N   0  0  0  0  0  0  0  0  0  0  0  0
   25.6929  -20.4034  -10.9462 C   0  0  0  0  0  0  0  0  0  0  0  0
   26.1448  -19.2514  -10.8270 O   0  0  0  0  0  0  0  0  0  0  0  0
   28.8686  -24.6826  -17.4070 N   0  0  0  0  0  0  0  0  0  0  0  0
   29.1877  -23.3874  -17.8893 C   0  0  0  0  0  0  0  0  0  0  0  0
   29.4337  -23.1587  -19.1206 N   0  0  0  0  0  0  0  0  0  0  0  0
   29.2349  -22.2981  -16.9566 N   0  0  0  0  0  0  0  0  0  0  0  0
   28.8712  -22.4814  -15.5685 C   0  0  0  0  0  0  0  0  0  0  0  0
   27.8910  -21.3600  -15.2139 C   0  0  0  0  0  0  0  0  0  0  0  0
   27.5897  -21.4902  -13.7675 C   0  0  0  0  0  0  0  0  0  0  0  0
   26.6453  -20.4743  -13.2183 C   0  0  2  0  0  0  0  0  0  0  0  0
   25.9220  -21.1391  -12.1460 N   0  0  0  0  0  0  0  0  0  0  0  0
   25.8043  -19.8373  -14.2283 C   0  0  0  0  0  0  0  0  0  0  0  0
   24.7967  -20.5594  -14.6119 O   0  0  0  0  0  0  0  0  0  0  0  0
   29.6857  -22.2175  -19.4532 N   0  0  0  0  0  0  0  0  0  0  0  0
   25.9863  -18.5545  -14.8016 C   0  0  0  0  0  0  0  0  0  0  0  0
   27.0772  -17.6582  -14.6068 C   0  0  0  0  0  0  0  0  0  0  0  0
   26.8101  -16.4726  -15.5655 C   0  0  0  0  0  0  0  0  0  0  0  0
   25.2844  -16.4885  -15.5751 C   0  0  2  0  0  0  0  0  0  0  0  0
   25.0484  -17.9664  -15.7177 C   0  0  0  0  0  0  0  0  0  0  0  0
   25.2183  -18.4374  -17.1091 O   0  0  0  0  0  0  0  0  0  0  0  0
   26.2830  -19.0339  -17.4098 O   0  0  0  0  0  0  0  0  0  0  0  0
  2  1  1  0
  2  3  2  0
  4  5  1  0
  4  2  1  0
  5  6  1  1
  7  8  2  0
  7  5  1  0
  9 10  1  0
 10 11  2  0
 12 13  1  0
 12 10  1  0
 13 14  1  0
 14 15  1  0
 16 15  1  6
 16 17  1  0
 17  7  1  0
 18 16  1  0
 19 18  2  0
 20 18  1  0
 21 20  1  0
 22 21  1  0
 23 24  1  0
 23 22  1  0
 24 20  1  0
 25 27  1  0
 24 25  1  6
 26 25  2  0
M  END
$$$$
