NRP.pdb
     RDKit          3D

 27 27  0  0  1  0  0  0  0  0999 V2000
   28.4104  -22.6233  -14.6682 N   0  0  0  0  0  0  0  0  0  0  0  0
   27.6276  -21.4543  -14.9022 C   0  0  0  0  0  0  0  0  0  0  0  0
   27.2395  -21.1933  -16.0538 O   0  0  0  0  0  0  0  0  0  0  0  0
   27.2991  -20.5850  -13.7690 C   0  0  0  0  0  0  0  0  0  0  0  0
   26.0198  -21.0198  -13.0506 C   0  0  2  0  0  0  0  0  0  0  0  0
   24.9204  -20.7401  -13.9345 N   0  0  0  0  0  0  0  0  0  0  0  0
   25.9709  -20.2331  -11.7912 C   0  0  0  0  0  0  0  0  0  0  0  0
   25.4308  -19.1140  -11.8290 O   0  0  0  0  0  0  0  0  0  0  0  0
   20.4581  -23.0440   -7.6581 N   0  0  0  0  0  0  0  0  0  0  0  0
   20.5717  -22.1614   -8.7627 C   0  0  0  0  0  0  0  0  0  0  0  0
   19.7576  -22.1890   -9.7453 N   0  0  0  0  0  0  0  0  0  0  0  0
   21.6412  -21.2050   -8.7722 N   0  0  0  0  0  0  0  0  0  0  0  0
   22.7661  -21.3271   -7.8709 C   0  0  0  0  0  0  0  0  0  0  0  0
   23.7117  -20.1632   -8.1798 C   0  0  0  0  0  0  0  0  0  0  0  0
   24.4936  -20.5481   -9.3799 C   0  0  0  0  0  0  0  0  0  0  0  0
   25.9478  -20.2195   -9.3266 C   0  0  2  0  0  0  0  0  0  0  0  0
   26.5169  -20.7208  -10.5675 N   0  0  0  0  0  0  0  0  0  0  0  0
   26.6164  -20.6771   -8.1113 C   0  0  0  0  0  0  0  0  0  0  0  0
   26.5348  -21.9564   -7.9106 O   0  0  0  0  0  0  0  0  0  0  0  0
   19.8727  -21.5662  -10.5570 N   0  0  0  0  0  0  0  0  0  0  0  0
   27.3154  -19.8788   -7.1724 C   0  0  0  0  0  0  0  0  0  0  0  0
   27.3509  -18.4563   -7.0912 C   0  0  0  0  0  0  0  0  0  0  0  0
   28.1622  -18.1388   -5.8117 C   0  0  0  0  0  0  0  0  0  0  0  0
   29.0971  -19.3445   -5.7942 C   0  0  1  0  0  0  0  0  0  0  0  0
   28.1103  -20.4335   -6.1117 C   0  0  0  0  0  0  0  0  0  0  0  0
   27.3119  -20.8378   -4.9345 O   0  0  0  0  0  0  0  0  0  0  0  0
   26.0725  -20.6301   -4.9561 O   0  0  0  0  0  0  0  0  0  0  0  0
  2  1  1  0
  2  3  2  0
  4  5  1  0
  4  2  1  0
  5  6  1  6
  7  8  2  0
  7  5  1  0
  9 10  1  0
 10 11  2  0
 12 13  1  0
 12 10  1  0
 13 14  1  0
 14 15  1  0
 16 15  1  1
 16 17  1  0
 17  7  1  0
 18 16  1  0
 19 18  2  0
 20 18  1  0
 21 20  1  0
 22 21  1  0
 23 24  1  0
 23 22  1  0
 24 20  1  0
 25 27  1  0
 24 25  1  1
 26 25  2  0
M  END
$$$$
