NRP.pdb
     RDKit          3D

 27 27  0  0  1  0  0  0  0  0999 V2000
   18.4096  -21.0011  -15.3360 N   0  0  0  0  0  0  0  0  0  0  0  0
   19.5706  -21.6117  -14.7764 C   0  0  0  0  0  0  0  0  0  0  0  0
   19.5516  -22.8202  -14.4864 O   0  0  0  0  0  0  0  0  0  0  0  0
   20.7647  -20.7910  -14.5565 C   0  0  0  0  0  0  0  0  0  0  0  0
   21.1528  -20.7084  -13.0785 C   0  0  2  0  0  0  0  0  0  0  0  0
   20.2327  -19.8008  -12.4479 N   0  0  0  0  0  0  0  0  0  0  0  0
   22.5583  -20.2273  -13.0515 C   0  0  0  0  0  0  0  0  0  0  0  0
   22.7543  -19.0068  -13.1843 O   0  0  0  0  0  0  0  0  0  0  0  0
   29.6226  -21.0152   -9.1939 N   0  0  0  0  0  0  0  0  0  0  0  0
   30.2294  -21.6644  -10.2995 C   0  0  0  0  0  0  0  0  0  0  0  0
   31.4779  -21.9268  -10.3363 N   0  0  0  0  0  0  0  0  0  0  0  0
   29.4071  -22.0375  -11.4145 N   0  0  0  0  0  0  0  0  0  0  0  0
   27.9792  -22.2171  -11.2681 C   0  0  0  0  0  0  0  0  0  0  0  0
   27.3073  -21.2712  -12.2671 C   0  0  0  0  0  0  0  0  0  0  0  0
   25.8449  -21.3710  -12.0407 C   0  0  0  0  0  0  0  0  0  0  0  0
   25.0002  -20.5464  -12.9528 C   0  0  2  0  0  0  0  0  0  0  0  0
   23.6627  -21.1129  -12.8806 N   0  0  0  0  0  0  0  0  0  0  0  0
   25.5411  -20.4102  -14.3027 C   0  0  0  0  0  0  0  0  0  0  0  0
   25.2059  -21.3709  -15.1079 O   0  0  0  0  0  0  0  0  0  0  0  0
   31.9063  -22.3915  -11.1490 N   0  0  0  0  0  0  0  0  0  0  0  0
   26.3656  -19.3651  -14.7879 C   0  0  0  0  0  0  0  0  0  0  0  0
   27.0141  -18.3437  -14.0344 C   0  0  0  0  0  0  0  0  0  0  0  0
   27.8710  -17.5603  -15.0582 C   0  0  0  0  0  0  0  0  0  0  0  0
   27.0095  -17.7392  -16.3048 C   0  0  2  0  0  0  0  0  0  0  0  0
   26.6848  -19.2018  -16.1793 C   0  0  0  0  0  0  0  0  0  0  0  0
   27.7934  -20.0707  -16.6295 O   0  0  0  0  0  0  0  0  0  0  0  0
   28.3854  -20.7729  -15.7715 O   0  0  0  0  0  0  0  0  0  0  0  0
  2  1  1  0
  2  3  2  0
  4  5  1  0
  4  2  1  0
  5  6  1  1
  7  8  2  0
  7  5  1  0
  9 10  1  0
 10 11  2  0
 12 13  1  0
 12 10  1  0
 13 14  1  0
 14 15  1  0
 16 15  1  1
 16 17  1  0
 17  7  1  0
 18 16  1  0
 19 18  2  0
 20 18  1  0
 21 20  1  0
 22 21  1  0
 23 24  1  0
 23 22  1  0
 24 20  1  0
 25 27  1  0
 24 25  1  6
 26 25  2  0
M  END
$$$$
