NRP.pdb
     RDKit          3D

 27 27  0  0  1  0  0  0  0  0999 V2000
   19.1948  -17.7940  -17.5380 N   0  0  0  0  0  0  0  0  0  0  0  0
   19.9346  -16.7030  -16.9937 C   0  0  0  0  0  0  0  0  0  0  0  0
   19.4586  -15.5554  -17.0334 O   0  0  0  0  0  0  0  0  0  0  0  0
   21.2471  -16.9663  -16.3973 C   0  0  0  0  0  0  0  0  0  0  0  0
   21.6544  -18.4373  -16.5076 C   0  0  2  0  0  0  0  0  0  0  0  0
   20.6418  -19.2096  -15.8396 N   0  0  0  0  0  0  0  0  0  0  0  0
   22.9885  -18.5412  -15.8618 C   0  0  0  0  0  0  0  0  0  0  0  0
   23.8508  -17.7033  -16.1780 O   0  0  0  0  0  0  0  0  0  0  0  0
   25.2516  -20.7177   -8.4752 N   0  0  0  0  0  0  0  0  0  0  0  0
   24.2236  -20.8806   -9.4390 C   0  0  0  0  0  0  0  0  0  0  0  0
   22.9879  -20.9113   -9.1208 N   0  0  0  0  0  0  0  0  0  0  0  0
   24.5899  -21.0155  -10.8196 N   0  0  0  0  0  0  0  0  0  0  0  0
   25.9647  -20.8801  -11.2488 C   0  0  0  0  0  0  0  0  0  0  0  0
   25.9690  -21.0085  -12.7745 C   0  0  0  0  0  0  0  0  0  0  0  0
   24.6454  -20.5393  -13.2517 C   0  0  0  0  0  0  0  0  0  0  0  0
   24.6755  -19.6688  -14.4628 C   0  0  2  0  0  0  0  0  0  0  0  0
   23.2960  -19.5568  -14.9093 N   0  0  0  0  0  0  0  0  0  0  0  0
   25.6220  -20.1059  -15.4856 C   0  0  0  0  0  0  0  0  0  0  0  0
   25.2047  -21.1032  -16.2032 O   0  0  0  0  0  0  0  0  0  0  0  0
   22.2525  -21.0341   -9.8307 N   0  0  0  0  0  0  0  0  0  0  0  0
   26.9022  -19.5592  -15.7500 C   0  0  0  0  0  0  0  0  0  0  0  0
   27.5297  -18.4543  -15.1044 C   0  0  0  0  0  0  0  0  0  0  0  0
   28.9529  -18.3807  -15.7085 C   0  0  0  0  0  0  0  0  0  0  0  0
   28.6675  -18.9231  -17.1058 C   0  0  1  0  0  0  0  0  0  0  0  0
   27.7885  -20.0894  -16.7490 C   0  0  0  0  0  0  0  0  0  0  0  0
   28.5606  -21.2608  -16.2814 O   0  0  0  0  0  0  0  0  0  0  0  0
   28.4899  -21.5737  -15.0662 O   0  0  0  0  0  0  0  0  0  0  0  0
  2  1  1  0
  2  3  2  0
  4  5  1  0
  4  2  1  0
  5  6  1  1
  7  8  2  0
  7  5  1  0
  9 10  1  0
 10 11  2  0
 12 13  1  0
 12 10  1  0
 13 14  1  0
 14 15  1  0
 16 15  1  1
 16 17  1  0
 17  7  1  0
 18 16  1  0
 19 18  2  0
 20 18  1  0
 21 20  1  0
 22 21  1  0
 23 24  1  0
 23 22  1  0
 24 20  1  0
 25 27  1  0
 24 25  1  1
 26 25  2  0
M  END
$$$$
