NRP.pdb
     RDKit          3D

 27 27  0  0  1  0  0  0  0  0999 V2000
   18.0990  -17.6875  -17.2746 N   0  0  0  0  0  0  0  0  0  0  0  0
   18.6690  -18.2255  -16.0832 C   0  0  0  0  0  0  0  0  0  0  0  0
   17.9600  -18.8870  -15.3055 O   0  0  0  0  0  0  0  0  0  0  0  0
   20.0872  -17.9821  -15.8054 C   0  0  0  0  0  0  0  0  0  0  0  0
   20.9976  -18.4899  -16.9257 C   0  0  2  0  0  0  0  0  0  0  0  0
   20.8470  -19.9190  -16.9803 N   0  0  0  0  0  0  0  0  0  0  0  0
   22.3726  -18.0613  -16.5606 C   0  0  0  0  0  0  0  0  0  0  0  0
   22.5881  -16.8420  -16.4501 O   0  0  0  0  0  0  0  0  0  0  0  0
   26.2806  -22.1314  -10.7468 N   0  0  0  0  0  0  0  0  0  0  0  0
   25.2480  -21.1946  -10.4857 C   0  0  0  0  0  0  0  0  0  0  0  0
   24.7239  -21.0604   -9.3297 N   0  0  0  0  0  0  0  0  0  0  0  0
   24.7784  -20.3704  -11.5622 N   0  0  0  0  0  0  0  0  0  0  0  0
   25.4461  -20.3582  -12.8454 C   0  0  0  0  0  0  0  0  0  0  0  0
   24.6951  -19.3575  -13.7280 C   0  0  0  0  0  0  0  0  0  0  0  0
   25.3621  -19.3637  -15.0527 C   0  0  0  0  0  0  0  0  0  0  0  0
   24.7555  -18.4643  -16.0768 C   0  0  2  0  0  0  0  0  0  0  0  0
   23.4272  -18.9952  -16.3389 N   0  0  0  0  0  0  0  0  0  0  0  0
   25.5865  -18.2670  -17.2616 C   0  0  0  0  0  0  0  0  0  0  0  0
   25.3596  -19.1162  -18.2162 O   0  0  0  0  0  0  0  0  0  0  0  0
   23.9760  -20.3750   -9.1543 N   0  0  0  0  0  0  0  0  0  0  0  0
   26.5773  -17.2720  -17.4502 C   0  0  0  0  0  0  0  0  0  0  0  0
   27.0030  -16.2772  -16.5225 C   0  0  0  0  0  0  0  0  0  0  0  0
   28.1833  -15.5513  -17.2125 C   0  0  0  0  0  0  0  0  0  0  0  0
   27.7591  -15.6993  -18.6707 C   0  0  1  0  0  0  0  0  0  0  0  0
   27.3342  -17.1414  -18.6647 C   0  0  0  0  0  0  0  0  0  0  0  0
   28.4809  -18.0721  -18.7403 O   0  0  0  0  0  0  0  0  0  0  0  0
   28.7636  -18.7523  -17.7219 O   0  0  0  0  0  0  0  0  0  0  0  0
  2  1  1  0
  2  3  2  0
  4  5  1  0
  4  2  1  0
  5  6  1  1
  7  8  2  0
  7  5  1  0
  9 10  1  0
 10 11  2  0
 12 13  1  0
 12 10  1  0
 13 14  1  0
 14 15  1  0
 16 15  1  1
 16 17  1  0
 17  7  1  0
 18 16  1  0
 19 18  2  0
 20 18  1  0
 21 20  1  0
 22 21  1  0
 23 24  1  0
 23 22  1  0
 24 20  1  0
 25 27  1  0
 24 25  1  6
 26 25  2  0
M  END
$$$$
