NRP.pdb
     RDKit          3D

 27 27  0  0  1  0  0  0  0  0999 V2000
   22.3791  -16.8145  -19.9937 N   0  0  0  0  0  0  0  0  0  0  0  0
   23.3906  -15.8095  -20.0224 C   0  0  0  0  0  0  0  0  0  0  0  0
   23.0669  -14.6094  -20.0103 O   0  0  0  0  0  0  0  0  0  0  0  0
   24.7962  -16.2221  -20.0658 C   0  0  0  0  0  0  0  0  0  0  0  0
   25.6527  -15.4882  -19.0316 C   0  0  2  0  0  0  0  0  0  0  0  0
   26.5371  -14.6151  -19.7553 N   0  0  0  0  0  0  0  0  0  0  0  0
   26.3690  -16.5445  -18.2708 C   0  0  0  0  0  0  0  0  0  0  0  0
   27.2326  -17.2058  -18.8728 O   0  0  0  0  0  0  0  0  0  0  0  0
   24.4407  -20.4285  -12.3676 N   0  0  0  0  0  0  0  0  0  0  0  0
   25.6371  -20.6498  -11.6385 C   0  0  0  0  0  0  0  0  0  0  0  0
   25.8220  -21.6957  -10.9307 N   0  0  0  0  0  0  0  0  0  0  0  0
   26.6741  -19.6602  -11.7012 N   0  0  0  0  0  0  0  0  0  0  0  0
   26.5270  -18.4679  -12.5071 C   0  0  0  0  0  0  0  0  0  0  0  0
   26.6057  -18.9083  -13.9713 C   0  0  0  0  0  0  0  0  0  0  0  0
   26.6869  -17.6744  -14.7903 C   0  0  0  0  0  0  0  0  0  0  0  0
   26.8306  -17.8916  -16.2592 C   0  0  2  0  0  0  0  0  0  0  0  0
   26.0950  -16.8114  -16.8972 N   0  0  0  0  0  0  0  0  0  0  0  0
   26.4622  -19.2344  -16.7003 C   0  0  0  0  0  0  0  0  0  0  0  0
   25.1860  -19.4106  -16.8547 O   0  0  0  0  0  0  0  0  0  0  0  0
   26.6871  -21.8333  -10.3898 N   0  0  0  0  0  0  0  0  0  0  0  0
   27.3402  -20.3152  -16.9619 C   0  0  0  0  0  0  0  0  0  0  0  0
   28.7537  -20.3543  -16.7830 C   0  0  0  0  0  0  0  0  0  0  0  0
   29.1679  -21.8100  -17.1077 C   0  0  0  0  0  0  0  0  0  0  0  0
   28.1001  -22.1568  -18.1409 C   0  0  2  0  0  0  0  0  0  0  0  0
   26.8899  -21.5880  -17.4537 C   0  0  0  0  0  0  0  0  0  0  0  0
   26.3714  -22.4743  -16.3897 O   0  0  0  0  0  0  0  0  0  0  0  0
   26.4677  -22.0913  -15.1965 O   0  0  0  0  0  0  0  0  0  0  0  0
  2  1  1  0
  2  3  2  0
  4  5  1  0
  4  2  1  0
  5  6  1  6
  7  8  2  0
  7  5  1  0
  9 10  1  0
 10 11  2  0
 12 13  1  0
 12 10  1  0
 13 14  1  0
 14 15  1  0
 16 15  1  1
 16 17  1  0
 17  7  1  0
 18 16  1  0
 19 18  2  0
 20 18  1  0
 21 20  1  0
 22 21  1  0
 23 24  1  0
 23 22  1  0
 24 20  1  0
 25 27  1  0
 24 25  1  1
 26 25  2  0
M  END
$$$$
