NRP.pdb
     RDKit          3D

 27 27  0  0  1  0  0  0  0  0999 V2000
   27.2426  -20.2826  -11.7040 N   0  0  0  0  0  0  0  0  0  0  0  0
   26.0510  -21.0654  -11.7410 C   0  0  0  0  0  0  0  0  0  0  0  0
   25.6451  -21.6185  -10.7045 O   0  0  0  0  0  0  0  0  0  0  0  0
   25.3312  -21.1977  -13.0106 C   0  0  0  0  0  0  0  0  0  0  0  0
   23.8726  -20.7472  -12.9050 C   0  0  2  0  0  0  0  0  0  0  0  0
   23.1194  -21.8623  -12.3977 N   0  0  0  0  0  0  0  0  0  0  0  0
   23.4686  -20.3460  -14.2774 C   0  0  0  0  0  0  0  0  0  0  0  0
   23.6008  -21.1829  -15.1871 O   0  0  0  0  0  0  0  0  0  0  0  0
   17.5119  -14.7706  -16.5699 N   0  0  0  0  0  0  0  0  0  0  0  0
   17.5362  -16.1849  -16.4643 C   0  0  0  0  0  0  0  0  0  0  0  0
   16.5010  -16.8645  -16.1550 N   0  0  0  0  0  0  0  0  0  0  0  0
   18.7703  -16.8725  -16.7147 N   0  0  0  0  0  0  0  0  0  0  0  0
   20.0038  -16.1479  -16.9297 C   0  0  0  0  0  0  0  0  0  0  0  0
   21.0894  -17.1909  -17.2089 C   0  0  0  0  0  0  0  0  0  0  0  0
   21.5401  -17.7086  -15.8941 C   0  0  0  0  0  0  0  0  0  0  0  0
   22.5972  -18.7596  -15.9504 C   0  0  2  0  0  0  0  0  0  0  0  0
   22.9444  -19.0523  -14.5688 N   0  0  0  0  0  0  0  0  0  0  0  0
   23.7266  -18.4212  -16.8126 C   0  0  0  0  0  0  0  0  0  0  0  0
   24.5654  -17.5842  -16.2839 O   0  0  0  0  0  0  0  0  0  0  0  0
   16.5321  -17.8913  -16.0868 N   0  0  0  0  0  0  0  0  0  0  0  0
   23.9742  -18.9061  -18.1206 C   0  0  0  0  0  0  0  0  0  0  0  0
   23.1822  -19.8174  -18.8781 C   0  0  0  0  0  0  0  0  0  0  0  0
   23.8594  -19.8920  -20.2680 C   0  0  0  0  0  0  0  0  0  0  0  0
   25.3093  -19.6461  -19.8611 C   0  0  1  0  0  0  0  0  0  0  0  0
   25.1120  -18.5057  -18.9015 C   0  0  0  0  0  0  0  0  0  0  0  0
   24.9210  -17.2107  -19.5893 O   0  0  0  0  0  0  0  0  0  0  0  0
   23.7597  -16.7337  -19.6484 O   0  0  0  0  0  0  0  0  0  0  0  0
  2  1  1  0
  2  3  2  0
  4  5  1  0
  4  2  1  0
  5  6  1  6
  7  8  2  0
  7  5  1  0
  9 10  1  0
 10 11  2  0
 12 13  1  0
 12 10  1  0
 13 14  1  0
 14 15  1  0
 16 15  1  1
 16 17  1  0
 17  7  1  0
 18 16  1  0
 19 18  2  0
 20 18  1  0
 21 20  1  0
 22 21  1  0
 23 24  1  0
 23 22  1  0
 24 20  1  0
 25 27  1  0
 24 25  1  6
 26 25  2  0
M  END
$$$$
