NRP.pdb
     RDKit          3D

 27 27  0  0  1  0  0  0  0  0999 V2000
   28.4298  -24.2190  -19.8840 N   0  0  0  0  0  0  0  0  0  0  0  0
   28.1897  -24.7247  -18.5723 C   0  0  0  0  0  0  0  0  0  0  0  0
   28.0797  -25.9501  -18.3952 O   0  0  0  0  0  0  0  0  0  0  0  0
   28.0780  -23.7780  -17.4591 C   0  0  0  0  0  0  0  0  0  0  0  0
   28.2155  -22.3232  -17.9133 C   0  0  2  0  0  0  0  0  0  0  0  0
   29.6108  -22.0890  -18.1713 N   0  0  0  0  0  0  0  0  0  0  0  0
   27.6807  -21.4957  -16.8011 C   0  0  0  0  0  0  0  0  0  0  0  0
   28.4302  -21.2719  -15.8348 O   0  0  0  0  0  0  0  0  0  0  0  0
   21.5694  -15.9064  -17.6189 N   0  0  0  0  0  0  0  0  0  0  0  0
   21.4511  -17.2910  -17.3343 C   0  0  0  0  0  0  0  0  0  0  0  0
   20.4486  -17.9832  -17.7150 N   0  0  0  0  0  0  0  0  0  0  0  0
   22.4977  -17.9327  -16.5917 N   0  0  0  0  0  0  0  0  0  0  0  0
   23.5959  -17.1748  -16.0331 C   0  0  0  0  0  0  0  0  0  0  0  0
   24.4672  -18.1632  -15.2533 C   0  0  0  0  0  0  0  0  0  0  0  0
   25.1194  -19.0455  -16.2513 C   0  0  0  0  0  0  0  0  0  0  0  0
   25.9432  -20.1519  -15.6832 C   0  0  2  0  0  0  0  0  0  0  0  0
   26.3576  -20.9643  -16.8160 N   0  0  0  0  0  0  0  0  0  0  0  0
   25.2889  -20.8860  -14.6033 C   0  0  0  0  0  0  0  0  0  0  0  0
   24.3777  -21.7186  -15.0037 O   0  0  0  0  0  0  0  0  0  0  0  0
   20.3684  -18.9841  -17.4878 N   0  0  0  0  0  0  0  0  0  0  0  0
   25.5512  -20.7718  -13.2156 C   0  0  0  0  0  0  0  0  0  0  0  0
   26.5580  -19.9891  -12.5791 C   0  0  0  0  0  0  0  0  0  0  0  0
   26.3033  -20.1495  -11.0608 C   0  0  0  0  0  0  0  0  0  0  0  0
   25.7206  -21.5596  -11.0454 C   0  0  2  0  0  0  0  0  0  0  0  0
   24.7811  -21.4571  -12.2146 C   0  0  0  0  0  0  0  0  0  0  0  0
   23.5208  -20.7636  -11.8718 O   0  0  0  0  0  0  0  0  0  0  0  0
   23.3438  -19.5992  -12.3108 O   0  0  0  0  0  0  0  0  0  0  0  0
  2  1  1  0
  2  3  2  0
  4  5  1  0
  4  2  1  0
  5  6  1  1
  7  8  2  0
  7  5  1  0
  9 10  1  0
 10 11  2  0
 12 13  1  0
 12 10  1  0
 13 14  1  0
 14 15  1  0
 16 15  1  6
 16 17  1  0
 17  7  1  0
 18 16  1  0
 19 18  2  0
 20 18  1  0
 21 20  1  0
 22 21  1  0
 23 24  1  0
 23 22  1  0
 24 20  1  0
 25 27  1  0
 24 25  1  1
 26 25  2  0
M  END
$$$$
