NRP.pdb
     RDKit          3D

 27 27  0  0  1  0  0  0  0  0999 V2000
   28.6421  -22.8142  -18.0484 N   0  0  0  0  0  0  0  0  0  0  0  0
   29.2260  -22.6471  -16.7580 C   0  0  0  0  0  0  0  0  0  0  0  0
   30.0989  -23.4422  -16.3695 O   0  0  0  0  0  0  0  0  0  0  0  0
   28.7774  -21.5334  -15.9178 C   0  0  0  0  0  0  0  0  0  0  0  0
   27.7269  -20.6639  -16.6122 C   0  0  2  0  0  0  0  0  0  0  0  0
   28.4179  -19.5426  -17.1895 N   0  0  0  0  0  0  0  0  0  0  0  0
   26.7582  -20.2717  -15.5560 C   0  0  0  0  0  0  0  0  0  0  0  0
   27.0952  -19.3713  -14.7679 O   0  0  0  0  0  0  0  0  0  0  0  0
   20.1790  -15.7940  -16.3738 N   0  0  0  0  0  0  0  0  0  0  0  0
   19.4575  -16.9478  -15.9738 C   0  0  0  0  0  0  0  0  0  0  0  0
   18.1834  -16.9648  -15.8995 N   0  0  0  0  0  0  0  0  0  0  0  0
   20.1894  -18.1363  -15.6415 N   0  0  0  0  0  0  0  0  0  0  0  0
   21.5169  -18.3722  -16.1657 C   0  0  0  0  0  0  0  0  0  0  0  0
   22.3681  -18.8911  -15.0036 C   0  0  0  0  0  0  0  0  0  0  0  0
   23.5660  -19.5329  -15.5978 C   0  0  0  0  0  0  0  0  0  0  0  0
   24.4761  -20.2075  -14.6272 C   0  0  2  0  0  0  0  0  0  0  0  0
   25.4798  -20.8903  -15.4282 N   0  0  0  0  0  0  0  0  0  0  0  0
   23.7870  -21.0489  -13.6523 C   0  0  0  0  0  0  0  0  0  0  0  0
   23.2097  -22.0915  -14.1654 O   0  0  0  0  0  0  0  0  0  0  0  0
   17.6789  -17.7637  -15.4907 N   0  0  0  0  0  0  0  0  0  0  0  0
   23.6974  -20.8336  -12.2547 C   0  0  0  0  0  0  0  0  0  0  0  0
   24.2351  -19.7490  -11.5025 C   0  0  0  0  0  0  0  0  0  0  0  0
   23.7311  -19.9644  -10.0548 C   0  0  0  0  0  0  0  0  0  0  0  0
   23.6506  -21.4880  -10.0346 C   0  0  2  0  0  0  0  0  0  0  0  0
   22.9993  -21.7239  -11.3689 C   0  0  0  0  0  0  0  0  0  0  0  0
   21.5394  -21.4899  -11.3380 O   0  0  0  0  0  0  0  0  0  0  0  0
   20.8342  -22.2253  -10.6021 O   0  0  0  0  0  0  0  0  0  0  0  0
  2  1  1  0
  2  3  2  0
  4  5  1  0
  4  2  1  0
  5  6  1  1
  7  8  2  0
  7  5  1  0
  9 10  1  0
 10 11  2  0
 12 13  1  0
 12 10  1  0
 13 14  1  0
 14 15  1  0
 16 15  1  6
 16 17  1  0
 17  7  1  0
 18 16  1  0
 19 18  2  0
 20 18  1  0
 21 20  1  0
 22 21  1  0
 23 24  1  0
 23 22  1  0
 24 20  1  0
 25 27  1  0
 24 25  1  1
 26 25  2  0
M  END
$$$$
