VDW.pdb
     RDKit          3D

 30 31  0  0  1  0  0  0  0  0999 V2000
   31.0902  -17.0454  -18.0224 C   0  0  0  0  0  0  0  0  0  0  0  0
   29.8270  -16.9625  -17.2183 C   0  0  1  0  0  0  0  0  0  0  0  0
   28.8090  -16.0934  -17.9156 C   0  0  0  0  0  0  0  0  0  0  0  0
   29.2080  -18.3076  -16.9592 C   0  0  2  0  0  0  0  0  0  0  0  0
   28.9694  -18.9591  -18.2316 N   0  0  0  0  0  0  0  0  0  0  0  0
   27.9973  -18.2693  -16.1286 C   0  0  0  0  0  0  0  0  0  0  0  0
   27.9694  -17.5415  -15.0970 O   0  0  0  0  0  0  0  0  0  0  0  0
   26.8035  -19.0098  -16.3932 N   0  0  0  0  0  0  0  0  0  0  0  0
   25.6696  -19.0336  -15.5049 C   0  0  1  0  0  0  0  0  0  0  0  0
   24.3856  -18.7667  -16.2357 C   0  0  0  0  0  0  0  0  0  0  0  0
   23.2480  -18.5759  -15.3323 C   0  0  0  0  0  0  0  0  0  0  0  0
   23.3448  -18.5200  -14.0683 O   0  0  0  0  0  0  0  0  0  0  0  0
   25.5889  -20.2765  -14.7166 C   0  0  0  0  0  0  0  0  0  0  0  0
   26.2624  -21.2763  -15.0506 O   0  0  0  0  0  0  0  0  0  0  0  0
   21.9380  -18.4379  -15.8107 O   0  0  0  0  0  0  0  0  0  0  0  0
   24.7429  -20.3227  -13.5814 N   0  0  0  0  0  0  0  0  0  0  0  0
   24.5641  -21.5464  -12.8228 C   0  0  1  0  0  0  0  0  0  0  0  0
   25.8252  -21.8759  -12.0861 C   0  0  0  0  0  0  0  0  0  0  0  0
   25.9759  -21.1490  -10.8113 C   0  0  0  0  0  0  0  0  0  0  0  0
   24.9674  -20.4882  -10.1531 C   0  0  0  0  0  0  0  0  0  0  0  0
   25.4573  -19.9448   -9.0318 N   0  0  0  0  0  0  0  0  0  0  0  0
   26.7807  -20.2406   -8.9432 C   0  0  0  0  0  0  0  0  0  0  0  0
   27.7152  -19.9048   -7.9721 C   0  0  0  0  0  0  0  0  0  0  0  0
   29.0147  -20.3342   -8.1174 C   0  0  0  0  0  0  0  0  0  0  0  0
   29.3317  -21.0851   -9.2305 C   0  0  0  0  0  0  0  0  0  0  0  0
   28.4224  -21.4251  -10.1973 C   0  0  0  0  0  0  0  0  0  0  0  0
   27.1068  -20.9904  -10.0505 C   0  0  0  0  0  0  0  0  0  0  0  0
   23.4399  -21.3785  -11.8295 C   0  0  0  0  0  0  0  0  0  0  0  0
   23.0071  -22.3611  -11.1856 O   0  0  0  0  0  0  0  0  0  0  0  0
   22.8752  -20.1369  -11.6195 O   0  0  0  0  0  0  0  0  0  0  0  0
  2  1  1  6
  3  2  1  0
  4  5  1  6
  4  2  1  0
  6  4  1  0
  7  6  2  0
  8  6  1  0
  9 10  1  6
  9  8  1  0
 10 11  1  0
 11 12  2  0
 13  9  1  0
 14 13  2  0
 15 11  1  0
 16 13  1  0
 17 18  1  1
 17 16  1  0
 18 19  1  0
 19 20  2  0
 19 27  1  0
 20 21  1  0
 21 22  1  0
 22 23  2  0
 24 23  1  0
 25 24  2  0
 26 27  2  0
 26 25  1  0
 27 22  1  0
 28 30  1  0
 28 17  1  0
 29 28  2  0
M  END
$$$$
