VDW.pdb
     RDKit          3D

 30 31  0  0  1  0  0  0  0  0999 V2000
   27.9553  -24.4788  -16.9796 C   0  0  0  0  0  0  0  0  0  0  0  0
   29.2123  -24.0997  -17.7044 C   0  0  1  0  0  0  0  0  0  0  0  0
   29.3534  -24.8984  -18.9773 C   0  0  0  0  0  0  0  0  0  0  0  0
   29.2713  -22.6379  -18.0498 C   0  0  2  0  0  0  0  0  0  0  0  0
   30.5400  -22.3667  -18.6958 N   0  0  0  0  0  0  0  0  0  0  0  0
   29.0307  -21.7358  -16.9160 C   0  0  0  0  0  0  0  0  0  0  0  0
   29.8314  -20.7854  -16.6921 O   0  0  0  0  0  0  0  0  0  0  0  0
   27.9304  -21.8416  -16.0095 N   0  0  0  0  0  0  0  0  0  0  0  0
   27.3770  -20.7186  -15.2967 C   0  0  1  0  0  0  0  0  0  0  0  0
   27.1215  -19.5534  -16.2081 C   0  0  0  0  0  0  0  0  0  0  0  0
   26.5569  -18.3978  -15.5065 C   0  0  0  0  0  0  0  0  0  0  0  0
   25.6031  -17.6903  -15.9535 O   0  0  0  0  0  0  0  0  0  0  0  0
   26.1707  -21.0707  -14.5263 C   0  0  0  0  0  0  0  0  0  0  0  0
   25.1299  -21.4305  -15.1197 O   0  0  0  0  0  0  0  0  0  0  0  0
   27.0414  -17.9797  -14.2596 O   0  0  0  0  0  0  0  0  0  0  0  0
   26.2062  -20.9969  -13.1122 N   0  0  0  0  0  0  0  0  0  0  0  0
   25.1850  -21.6283  -12.2976 C   0  0  1  0  0  0  0  0  0  0  0  0
   25.8111  -22.2414  -11.0836 C   0  0  0  0  0  0  0  0  0  0  0  0
   26.2255  -21.2561  -10.0669 C   0  0  0  0  0  0  0  0  0  0  0  0
   25.3924  -20.3502   -9.4570 C   0  0  0  0  0  0  0  0  0  0  0  0
   26.1012  -19.6162   -8.5902 N   0  0  0  0  0  0  0  0  0  0  0  0
   27.3955  -20.0291   -8.6218 C   0  0  0  0  0  0  0  0  0  0  0  0
   28.5011  -19.5808   -7.9107 C   0  0  0  0  0  0  0  0  0  0  0  0
   29.7230  -20.1752   -8.1293 C   0  0  0  0  0  0  0  0  0  0  0  0
   29.7937  -21.1979   -9.0526 C   0  0  0  0  0  0  0  0  0  0  0  0
   28.7133  -21.6521   -9.7621 C   0  0  0  0  0  0  0  0  0  0  0  0
   27.4761  -21.0505   -9.5410 C   0  0  0  0  0  0  0  0  0  0  0  0
   24.1640  -20.6043  -11.8645 C   0  0  0  0  0  0  0  0  0  0  0  0
   24.4328  -19.3821  -11.9013 O   0  0  0  0  0  0  0  0  0  0  0  0
   22.9197  -21.0048  -11.4221 O   0  0  0  0  0  0  0  0  0  0  0  0
  2  1  1  6
  3  2  1  0
  4  5  1  1
  4  2  1  0
  6  4  1  0
  7  6  2  0
  8  6  1  0
  9 10  1  6
  9  8  1  0
 10 11  1  0
 11 12  2  0
 13  9  1  0
 14 13  2  0
 15 11  1  0
 16 13  1  0
 17 18  1  1
 17 16  1  0
 18 19  1  0
 19 20  2  0
 19 27  1  0
 20 21  1  0
 21 22  1  0
 22 23  2  0
 24 23  1  0
 25 24  2  0
 26 27  2  0
 26 25  1  0
 27 22  1  0
 28 30  1  0
 28 17  1  0
 29 28  2  0
M  END
$$$$
