VDW.pdb
     RDKit          3D

 30 31  0  0  1  0  0  0  0  0999 V2000
   29.4351  -17.4623  -16.2198 C   0  0  0  0  0  0  0  0  0  0  0  0
   28.3762  -17.6312  -15.1713 C   0  0  1  0  0  0  0  0  0  0  0  0
   27.3256  -16.5551  -15.2987 C   0  0  0  0  0  0  0  0  0  0  0  0
   27.6968  -18.9706  -15.2352 C   0  0  2  0  0  0  0  0  0  0  0  0
   27.0671  -19.1078  -16.5333 N   0  0  0  0  0  0  0  0  0  0  0  0
   26.7527  -19.2256  -14.1394 C   0  0  0  0  0  0  0  0  0  0  0  0
   25.9822  -18.3039  -13.7504 O   0  0  0  0  0  0  0  0  0  0  0  0
   26.6235  -20.4701  -13.4478 N   0  0  0  0  0  0  0  0  0  0  0  0
   25.6680  -20.6983  -12.3941 C   0  0  1  0  0  0  0  0  0  0  0  0
   24.7348  -21.8268  -12.7252 C   0  0  0  0  0  0  0  0  0  0  0  0
   23.5465  -21.3834  -13.4585 C   0  0  0  0  0  0  0  0  0  0  0  0
   23.2852  -20.1702  -13.7231 O   0  0  0  0  0  0  0  0  0  0  0  0
   26.3053  -20.8983  -11.0801 C   0  0  0  0  0  0  0  0  0  0  0  0
   27.5367  -21.1051  -11.0048 O   0  0  0  0  0  0  0  0  0  0  0  0
   22.5884  -22.2896  -13.9326 O   0  0  0  0  0  0  0  0  0  0  0  0
   25.5083  -20.8527   -9.9100 N   0  0  0  0  0  0  0  0  0  0  0  0
   26.1018  -20.9381   -8.5888 C   0  0  1  0  0  0  0  0  0  0  0  0
   27.1097  -19.8448   -8.4134 C   0  0  0  0  0  0  0  0  0  0  0  0
   27.5478  -19.6590   -7.0171 C   0  0  0  0  0  0  0  0  0  0  0  0
   26.8818  -18.9193   -6.0705 C   0  0  0  0  0  0  0  0  0  0  0  0
   27.5598  -18.9695   -4.9171 N   0  0  0  0  0  0  0  0  0  0  0  0
   28.6683  -19.7357   -5.0932 C   0  0  0  0  0  0  0  0  0  0  0  0
   29.6743  -20.0822   -4.2005 C   0  0  0  0  0  0  0  0  0  0  0  0
   30.7056  -20.8842   -4.6333 C   0  0  0  0  0  0  0  0  0  0  0  0
   30.6922  -21.3108   -5.9453 C   0  0  0  0  0  0  0  0  0  0  0  0
   29.7078  -20.9785   -6.8384 C   0  0  0  0  0  0  0  0  0  0  0  0
   28.6636  -20.1665   -6.4005 C   0  0  0  0  0  0  0  0  0  0  0  0
   25.0324  -20.7998   -7.5325 C   0  0  0  0  0  0  0  0  0  0  0  0
   25.2874  -21.0474   -6.3321 O   0  0  0  0  0  0  0  0  0  0  0  0
   23.7585  -20.3979   -7.8790 O   0  0  0  0  0  0  0  0  0  0  0  0
  2  1  1  6
  3  2  1  0
  4  5  1  6
  4  2  1  0
  6  4  1  0
  7  6  2  0
  8  6  1  0
  9 10  1  6
  9  8  1  0
 10 11  1  0
 11 12  2  0
 13  9  1  0
 14 13  2  0
 15 11  1  0
 16 13  1  0
 17 18  1  1
 17 16  1  0
 18 19  1  0
 19 20  2  0
 19 27  1  0
 20 21  1  0
 21 22  1  0
 22 23  2  0
 24 23  1  0
 25 24  2  0
 26 27  2  0
 26 25  1  0
 27 22  1  0
 28 30  1  0
 28 17  1  0
 29 28  2  0
M  END
$$$$
