VDW.pdb
     RDKit          3D

 30 31  0  0  1  0  0  0  0  0999 V2000
   29.4021  -23.2681  -19.3905 C   0  0  0  0  0  0  0  0  0  0  0  0
   28.8628  -22.7075  -18.1082 C   0  0  1  0  0  0  0  0  0  0  0  0
   29.9474  -22.6374  -17.0610 C   0  0  0  0  0  0  0  0  0  0  0  0
   28.2691  -21.3362  -18.2722 C   0  0  2  0  0  0  0  0  0  0  0  0
   29.2362  -20.4915  -18.9441 N   0  0  0  0  0  0  0  0  0  0  0  0
   27.7866  -20.7301  -17.0244 C   0  0  0  0  0  0  0  0  0  0  0  0
   28.4410  -20.8920  -15.9566 O   0  0  0  0  0  0  0  0  0  0  0  0
   26.5982  -19.9444  -16.9062 N   0  0  0  0  0  0  0  0  0  0  0  0
   26.1129  -19.4205  -15.6550 C   0  0  1  0  0  0  0  0  0  0  0  0
   25.3418  -18.1469  -15.8476 C   0  0  0  0  0  0  0  0  0  0  0  0
   24.8539  -17.5831  -14.5865 C   0  0  0  0  0  0  0  0  0  0  0  0
   25.0434  -18.1136  -13.4495 O   0  0  0  0  0  0  0  0  0  0  0  0
   25.3329  -20.4081  -14.8876 C   0  0  0  0  0  0  0  0  0  0  0  0
   24.5090  -21.1470  -15.4706 O   0  0  0  0  0  0  0  0  0  0  0  0
   24.1245  -16.3872  -14.5435 O   0  0  0  0  0  0  0  0  0  0  0  0
   25.5286  -20.5087  -13.4883 N   0  0  0  0  0  0  0  0  0  0  0  0
   24.8031  -21.4813  -12.6928 C   0  0  1  0  0  0  0  0  0  0  0  0
   25.7020  -22.0452  -11.6365 C   0  0  0  0  0  0  0  0  0  0  0  0
   25.9458  -21.1243  -10.5101 C   0  0  0  0  0  0  0  0  0  0  0  0
   25.0003  -20.3120   -9.9331 C   0  0  0  0  0  0  0  0  0  0  0  0
   25.5672  -19.6149   -8.9405 N   0  0  0  0  0  0  0  0  0  0  0  0
   26.8790  -19.9594   -8.8564 C   0  0  0  0  0  0  0  0  0  0  0  0
   27.8731  -19.5147   -7.9944 C   0  0  0  0  0  0  0  0  0  0  0  0
   29.1439  -20.0286   -8.1170 C   0  0  0  0  0  0  0  0  0  0  0  0
   29.3736  -20.9702   -9.0990 C   0  0  0  0  0  0  0  0  0  0  0  0
   28.4046  -21.4196   -9.9571 C   0  0  0  0  0  0  0  0  0  0  0  0
   27.1180  -20.8994   -9.8331 C   0  0  0  0  0  0  0  0  0  0  0  0
   23.6146  -20.8250  -12.0329 C   0  0  0  0  0  0  0  0  0  0  0  0
   23.5942  -19.5877  -11.8436 O   0  0  0  0  0  0  0  0  0  0  0  0
   22.5345  -21.5836  -11.6298 O   0  0  0  0  0  0  0  0  0  0  0  0
  2  1  1  6
  3  2  1  0
  4  5  1  1
  4  2  1  0
  6  4  1  0
  7  6  2  0
  8  6  1  0
  9 10  1  6
  9  8  1  0
 10 11  1  0
 11 12  2  0
 13  9  1  0
 14 13  2  0
 15 11  1  0
 16 13  1  0
 17 18  1  1
 17 16  1  0
 18 19  1  0
 19 20  2  0
 19 27  1  0
 20 21  1  0
 21 22  1  0
 22 23  2  0
 24 23  1  0
 25 24  2  0
 26 27  2  0
 26 25  1  0
 27 22  1  0
 28 30  1  0
 28 17  1  0
 29 28  2  0
M  END
$$$$
