VDW.pdb
     RDKit          3D

 30 31  0  0  1  0  0  0  0  0999 V2000
   25.7493  -14.4995  -15.9666 C   0  0  0  0  0  0  0  0  0  0  0  0
   26.1524  -15.9417  -16.0494 C   0  0  1  0  0  0  0  0  0  0  0  0
   27.6509  -16.0820  -15.9372 C   0  0  0  0  0  0  0  0  0  0  0  0
   25.5131  -16.7908  -14.9864 C   0  0  2  0  0  0  0  0  0  0  0  0
   25.6779  -16.1306  -13.7068 N   0  0  0  0  0  0  0  0  0  0  0  0
   25.9890  -18.1798  -14.9508 C   0  0  0  0  0  0  0  0  0  0  0  0
   25.7116  -18.9605  -15.9037 O   0  0  0  0  0  0  0  0  0  0  0  0
   26.7668  -18.7482  -13.8945 N   0  0  0  0  0  0  0  0  0  0  0  0
   27.1364  -20.1395  -13.8396 C   0  0  1  0  0  0  0  0  0  0  0  0
   28.5203  -20.3682  -14.3746 C   0  0  0  0  0  0  0  0  0  0  0  0
   28.8090  -21.7846  -14.6135 C   0  0  0  0  0  0  0  0  0  0  0  0
   29.9507  -22.3149  -14.4535 O   0  0  0  0  0  0  0  0  0  0  0  0
   26.9802  -20.7181  -12.4930 C   0  0  0  0  0  0  0  0  0  0  0  0
   27.9225  -21.3529  -11.9696 O   0  0  0  0  0  0  0  0  0  0  0  0
   27.8206  -22.6786  -15.0467 O   0  0  0  0  0  0  0  0  0  0  0  0
   25.7551  -20.5458  -11.8032 N   0  0  0  0  0  0  0  0  0  0  0  0
   25.6049  -20.9525  -10.4186 C   0  0  1  0  0  0  0  0  0  0  0  0
   26.6407  -20.2758   -9.5755 C   0  0  0  0  0  0  0  0  0  0  0  0
   26.5118  -20.5602   -8.1337 C   0  0  0  0  0  0  0  0  0  0  0  0
   25.4929  -21.2781   -7.5567 C   0  0  0  0  0  0  0  0  0  0  0  0
   25.6943  -21.3414   -6.2346 N   0  0  0  0  0  0  0  0  0  0  0  0
   26.8374  -20.6714   -5.9327 C   0  0  0  0  0  0  0  0  0  0  0  0
   27.4598  -20.4584   -4.7095 C   0  0  0  0  0  0  0  0  0  0  0  0
   28.6294  -19.7339   -4.6712 C   0  0  0  0  0  0  0  0  0  0  0  0
   29.1341  -19.2489   -5.8601 C   0  0  0  0  0  0  0  0  0  0  0  0
   28.5330  -19.4501   -7.0748 C   0  0  0  0  0  0  0  0  0  0  0  0
   27.3489  -20.1834   -7.1138 C   0  0  0  0  0  0  0  0  0  0  0  0
   24.2327  -20.5746   -9.9155 C   0  0  0  0  0  0  0  0  0  0  0  0
   23.5878  -19.6495  -10.4590 O   0  0  0  0  0  0  0  0  0  0  0  0
   23.6724  -21.2464   -8.8481 O   0  0  0  0  0  0  0  0  0  0  0  0
  2  1  1  1
  3  2  1  0
  4  5  1  1
  4  2  1  0
  6  4  1  0
  7  6  2  0
  8  6  1  0
  9 10  1  1
  9  8  1  0
 10 11  1  0
 11 12  2  0
 13  9  1  0
 14 13  2  0
 15 11  1  0
 16 13  1  0
 17 18  1  1
 17 16  1  0
 18 19  1  0
 19 20  2  0
 19 27  1  0
 20 21  1  0
 21 22  1  0
 22 23  2  0
 24 23  1  0
 25 24  2  0
 26 27  2  0
 26 25  1  0
 27 22  1  0
 28 30  1  0
 28 17  1  0
 29 28  2  0
M  END
$$$$
