VDW.pdb
     RDKit          3D

 30 31  0  0  1  0  0  0  0  0999 V2000
   26.2305  -16.0000  -18.2504 C   0  0  0  0  0  0  0  0  0  0  0  0
   27.0657  -16.6454  -19.3159 C   0  0  1  0  0  0  0  0  0  0  0  0
   28.1742  -15.7203  -19.7554 C   0  0  0  0  0  0  0  0  0  0  0  0
   27.6768  -17.9456  -18.8739 C   0  0  2  0  0  0  0  0  0  0  0  0
   28.5820  -18.4057  -19.9080 N   0  0  0  0  0  0  0  0  0  0  0  0
   26.7022  -18.9789  -18.5004 C   0  0  0  0  0  0  0  0  0  0  0  0
   25.8999  -19.4247  -19.3677 O   0  0  0  0  0  0  0  0  0  0  0  0
   26.5755  -19.5459  -17.1942 N   0  0  0  0  0  0  0  0  0  0  0  0
   25.5632  -20.5078  -16.8399 C   0  0  1  0  0  0  0  0  0  0  0  0
   26.1458  -21.8752  -16.6284 C   0  0  0  0  0  0  0  0  0  0  0  0
   27.3497  -21.8557  -15.7937 C   0  0  0  0  0  0  0  0  0  0  0  0
   27.3668  -22.1617  -14.5624 O   0  0  0  0  0  0  0  0  0  0  0  0
   24.7553  -20.0848  -15.6820 C   0  0  0  0  0  0  0  0  0  0  0  0
   25.2743  -19.4047  -14.7694 O   0  0  0  0  0  0  0  0  0  0  0  0
   28.6008  -21.4888  -16.3076 O   0  0  0  0  0  0  0  0  0  0  0  0
   23.3900  -20.4568  -15.6174 N   0  0  0  0  0  0  0  0  0  0  0  0
   22.5544  -20.0691  -14.4965 C   0  0  1  0  0  0  0  0  0  0  0  0
   22.5116  -18.5765  -14.3874 C   0  0  0  0  0  0  0  0  0  0  0  0
   21.8104  -17.9188  -15.5063 C   0  0  0  0  0  0  0  0  0  0  0  0
   20.4693  -18.0369  -15.7787 C   0  0  0  0  0  0  0  0  0  0  0  0
   20.1753  -17.3068  -16.8617 N   0  0  0  0  0  0  0  0  0  0  0  0
   21.3103  -16.7072  -17.3077 C   0  0  0  0  0  0  0  0  0  0  0  0
   21.5158  -15.8594  -18.3884 C   0  0  0  0  0  0  0  0  0  0  0  0
   22.7827  -15.3793  -18.6306 C   0  0  0  0  0  0  0  0  0  0  0  0
   23.7988  -15.7655  -17.7811 C   0  0  0  0  0  0  0  0  0  0  0  0
   23.6133  -16.6006  -16.7108 C   0  0  0  0  0  0  0  0  0  0  0  0
   22.3308  -17.0868  -16.4654 C   0  0  0  0  0  0  0  0  0  0  0  0
   21.1519  -20.5916  -14.6931 C   0  0  0  0  0  0  0  0  0  0  0  0
   20.8244  -21.1486  -15.7654 O   0  0  0  0  0  0  0  0  0  0  0  0
   20.2126  -20.4609  -13.6905 O   0  0  0  0  0  0  0  0  0  0  0  0
  2  1  1  1
  3  2  1  0
  4  5  1  6
  4  2  1  0
  6  4  1  0
  7  6  2  0
  8  6  1  0
  9 10  1  1
  9  8  1  0
 10 11  1  0
 11 12  2  0
 13  9  1  0
 14 13  2  0
 15 11  1  0
 16 13  1  0
 17 18  1  6
 17 16  1  0
 18 19  1  0
 19 20  2  0
 19 27  1  0
 20 21  1  0
 21 22  1  0
 22 23  2  0
 24 23  1  0
 25 24  2  0
 26 27  2  0
 26 25  1  0
 27 22  1  0
 28 30  1  0
 28 17  1  0
 29 28  2  0
M  END
$$$$
