VDW.pdb
     RDKit          3D

 30 31  0  0  1  0  0  0  0  0999 V2000
   28.2041  -30.3472  -17.1350 C   0  0  0  0  0  0  0  0  0  0  0  0
   26.8336  -30.2457  -16.5344 C   0  0  1  0  0  0  0  0  0  0  0  0
   26.7124  -28.9973  -15.6948 C   0  0  0  0  0  0  0  0  0  0  0  0
   25.7410  -30.2339  -17.5667 C   0  0  2  0  0  0  0  0  0  0  0  0
   25.9730  -29.1267  -18.4724 N   0  0  0  0  0  0  0  0  0  0  0  0
   24.3813  -30.2112  -17.0116 C   0  0  0  0  0  0  0  0  0  0  0  0
   23.6886  -29.1588  -17.0967 O   0  0  0  0  0  0  0  0  0  0  0  0
   23.7487  -31.3147  -16.3592 N   0  0  0  0  0  0  0  0  0  0  0  0
   22.4671  -31.2243  -15.7073 C   0  0  1  0  0  0  0  0  0  0  0  0
   21.5821  -32.3850  -16.0585 C   0  0  0  0  0  0  0  0  0  0  0  0
   20.2127  -32.2242  -15.5631 C   0  0  0  0  0  0  0  0  0  0  0  0
   19.2334  -31.8609  -16.2836 O   0  0  0  0  0  0  0  0  0  0  0  0
   22.5807  -31.0598  -14.2470 C   0  0  0  0  0  0  0  0  0  0  0  0
   23.5129  -31.6141  -13.6236 O   0  0  0  0  0  0  0  0  0  0  0  0
   19.8768  -32.4660  -14.2241 O   0  0  0  0  0  0  0  0  0  0  0  0
   21.6250  -30.2692  -13.5628 N   0  0  0  0  0  0  0  0  0  0  0  0
   21.7594  -29.9792  -12.1476 C   0  0  1  0  0  0  0  0  0  0  0  0
   22.4787  -28.6793  -11.9618 C   0  0  0  0  0  0  0  0  0  0  0  0
   21.5831  -27.5364  -11.7018 C   0  0  0  0  0  0  0  0  0  0  0  0
   20.8548  -27.3471  -10.5526 C   0  0  0  0  0  0  0  0  0  0  0  0
   20.1565  -26.2097  -10.6577 N   0  0  0  0  0  0  0  0  0  0  0  0
   20.4168  -25.6455  -11.8664 C   0  0  0  0  0  0  0  0  0  0  0  0
   19.9376  -24.4721  -12.4340 C   0  0  0  0  0  0  0  0  0  0  0  0
   20.3624  -24.1164  -13.6939 C   0  0  0  0  0  0  0  0  0  0  0  0
   21.2526  -24.9491  -14.3401 C   0  0  0  0  0  0  0  0  0  0  0  0
   21.7350  -26.1096  -13.7946 C   0  0  0  0  0  0  0  0  0  0  0  0
   21.3049  -26.4700  -12.5192 C   0  0  0  0  0  0  0  0  0  0  0  0
   20.3952  -29.8860  -11.5080 C   0  0  0  0  0  0  0  0  0  0  0  0
   19.3764  -29.6855  -12.2073 O   0  0  0  0  0  0  0  0  0  0  0  0
   20.2555  -30.0212  -10.1417 O   0  0  0  0  0  0  0  0  0  0  0  0
  2  1  1  6
  3  2  1  0
  4  5  1  6
  4  2  1  0
  6  4  1  0
  7  6  2  0
  8  6  1  0
  9 10  1  1
  9  8  1  0
 10 11  1  0
 11 12  2  0
 13  9  1  0
 14 13  2  0
 15 11  1  0
 16 13  1  0
 17 18  1  6
 17 16  1  0
 18 19  1  0
 19 20  2  0
 19 27  1  0
 20 21  1  0
 21 22  1  0
 22 23  2  0
 24 23  1  0
 25 24  2  0
 26 27  2  0
 26 25  1  0
 27 22  1  0
 28 30  1  0
 28 17  1  0
 29 28  2  0
M  END
$$$$
