VDW.pdb
     RDKit          3D

 30 31  0  0  1  0  0  0  0  0999 V2000
   28.4582  -15.4693  -16.2658 C   0  0  0  0  0  0  0  0  0  0  0  0
   28.0543  -16.8800  -15.9564 C   0  0  1  0  0  0  0  0  0  0  0  0
   26.9874  -16.9056  -14.8891 C   0  0  0  0  0  0  0  0  0  0  0  0
   27.5421  -17.6203  -17.1602 C   0  0  2  0  0  0  0  0  0  0  0  0
   26.5378  -16.8036  -17.8119 N   0  0  0  0  0  0  0  0  0  0  0  0
   27.0469  -18.9734  -16.8759 C   0  0  0  0  0  0  0  0  0  0  0  0
   25.8072  -19.1694  -16.7371 O   0  0  0  0  0  0  0  0  0  0  0  0
   27.8736  -20.1314  -16.7366 N   0  0  0  0  0  0  0  0  0  0  0  0
   27.3733  -21.4216  -16.3358 C   0  0  1  0  0  0  0  0  0  0  0  0
   28.1954  -22.5390  -16.9097 C   0  0  0  0  0  0  0  0  0  0  0  0
   27.6269  -23.8608  -16.6339 C   0  0  0  0  0  0  0  0  0  0  0  0
   26.5157  -24.0499  -16.0511 O   0  0  0  0  0  0  0  0  0  0  0  0
   27.2388  -21.5518  -14.8737 C   0  0  0  0  0  0  0  0  0  0  0  0
   28.2472  -21.7753  -14.1681 O   0  0  0  0  0  0  0  0  0  0  0  0
   28.2855  -25.0415  -17.0030 O   0  0  0  0  0  0  0  0  0  0  0  0
   25.9585  -21.4206  -14.2818 N   0  0  0  0  0  0  0  0  0  0  0  0
   25.7796  -21.5032  -12.8444 C   0  0  1  0  0  0  0  0  0  0  0  0
   26.6229  -20.4675  -12.1676 C   0  0  0  0  0  0  0  0  0  0  0  0
   26.4703  -20.4430  -10.7005 C   0  0  0  0  0  0  0  0  0  0  0  0
   25.2899  -20.2300  -10.0310 C   0  0  0  0  0  0  0  0  0  0  0  0
   25.5185  -20.2762   -8.7126 N   0  0  0  0  0  0  0  0  0  0  0  0
   26.8395  -20.5178   -8.5049 C   0  0  0  0  0  0  0  0  0  0  0  0
   27.5549  -20.6526   -7.3221 C   0  0  0  0  0  0  0  0  0  0  0  0
   28.9077  -20.8988   -7.3829 C   0  0  0  0  0  0  0  0  0  0  0  0
   29.4956  -21.0014   -8.6268 C   0  0  0  0  0  0  0  0  0  0  0  0
   28.8047  -20.8712   -9.8027 C   0  0  0  0  0  0  0  0  0  0  0  0
   27.4352  -20.6219   -9.7414 C   0  0  0  0  0  0  0  0  0  0  0  0
   24.3307  -21.2707  -12.4903 C   0  0  0  0  0  0  0  0  0  0  0  0
   23.6473  -20.4334  -13.1222 O   0  0  0  0  0  0  0  0  0  0  0  0
   23.7418  -21.9803  -11.4637 O   0  0  0  0  0  0  0  0  0  0  0  0
  2  1  1  6
  3  2  1  0
  4  5  1  1
  4  2  1  0
  6  4  1  0
  7  6  2  0
  8  6  1  0
  9 10  1  1
  9  8  1  0
 10 11  1  0
 11 12  2  0
 13  9  1  0
 14 13  2  0
 15 11  1  0
 16 13  1  0
 17 18  1  1
 17 16  1  0
 18 19  1  0
 19 20  2  0
 19 27  1  0
 20 21  1  0
 21 22  1  0
 22 23  2  0
 24 23  1  0
 25 24  2  0
 26 27  2  0
 26 25  1  0
 27 22  1  0
 28 30  1  0
 28 17  1  0
 29 28  2  0
M  END
$$$$
