VDW.pdb
     RDKit          3D

 30 31  0  0  1  0  0  0  0  0999 V2000
   28.9619  -19.4239  -16.6992 C   0  0  0  0  0  0  0  0  0  0  0  0
   28.2010  -19.3994  -15.4070 C   0  0  1  0  0  0  0  0  0  0  0  0
   28.3682  -18.0677  -14.7168 C   0  0  0  0  0  0  0  0  0  0  0  0
   26.7319  -19.6619  -15.5871 C   0  0  2  0  0  0  0  0  0  0  0  0
   26.2404  -18.8205  -16.6599 N   0  0  0  0  0  0  0  0  0  0  0  0
   25.9335  -19.5109  -14.3636 C   0  0  0  0  0  0  0  0  0  0  0  0
   25.7774  -18.3652  -13.8562 O   0  0  0  0  0  0  0  0  0  0  0  0
   25.2939  -20.5849  -13.6699 N   0  0  0  0  0  0  0  0  0  0  0  0
   24.5256  -20.4066  -12.4643 C   0  0  1  0  0  0  0  0  0  0  0  0
   23.1286  -20.9359  -12.6125 C   0  0  0  0  0  0  0  0  0  0  0  0
   22.3226  -20.1536  -13.5532 C   0  0  0  0  0  0  0  0  0  0  0  0
   21.6320  -20.6591  -14.4901 O   0  0  0  0  0  0  0  0  0  0  0  0
   25.1897  -20.9726  -11.2763 C   0  0  0  0  0  0  0  0  0  0  0  0
   25.7262  -22.1011  -11.3351 O   0  0  0  0  0  0  0  0  0  0  0  0
   22.2541  -18.7555  -13.4846 O   0  0  0  0  0  0  0  0  0  0  0  0
   25.2122  -20.2246  -10.0736 N   0  0  0  0  0  0  0  0  0  0  0  0
   25.7538  -20.7818   -8.8484 C   0  0  1  0  0  0  0  0  0  0  0  0
   26.6964  -19.8035   -8.2190 C   0  0  0  0  0  0  0  0  0  0  0  0
   27.1201  -20.1788   -6.8567 C   0  0  0  0  0  0  0  0  0  0  0  0
   26.5911  -21.2099   -6.1192 C   0  0  0  0  0  0  0  0  0  0  0  0
   27.2110  -21.2649   -4.9338 N   0  0  0  0  0  0  0  0  0  0  0  0
   28.1450  -20.2792   -4.8813 C   0  0  0  0  0  0  0  0  0  0  0  0
   29.0335  -19.9339   -3.8712 C   0  0  0  0  0  0  0  0  0  0  0  0
   29.8920  -18.8763   -4.0683 C   0  0  0  0  0  0  0  0  0  0  0  0
   29.8298  -18.2024   -5.2706 C   0  0  0  0  0  0  0  0  0  0  0  0
   28.9598  -18.5302   -6.2769 C   0  0  0  0  0  0  0  0  0  0  0  0
   28.0905  -19.6007   -6.0777 C   0  0  0  0  0  0  0  0  0  0  0  0
   24.6356  -21.0848   -7.8806 C   0  0  0  0  0  0  0  0  0  0  0  0
   23.5176  -20.5359   -8.0073 O   0  0  0  0  0  0  0  0  0  0  0  0
   24.8337  -21.9726   -6.8428 O   0  0  0  0  0  0  0  0  0  0  0  0
  2  1  1  6
  3  2  1  0
  4  5  1  6
  4  2  1  0
  6  4  1  0
  7  6  2  0
  8  6  1  0
  9 10  1  6
  9  8  1  0
 10 11  1  0
 11 12  2  0
 13  9  1  0
 14 13  2  0
 15 11  1  0
 16 13  1  0
 17 18  1  1
 17 16  1  0
 18 19  1  0
 19 20  2  0
 19 27  1  0
 20 21  1  0
 21 22  1  0
 22 23  2  0
 24 23  1  0
 25 24  2  0
 26 27  2  0
 26 25  1  0
 27 22  1  0
 28 30  1  0
 28 17  1  0
 29 28  2  0
M  END
$$$$
