VDW.pdb
     RDKit          3D

 30 31  0  0  1  0  0  0  0  0999 V2000
   27.3854  -16.5654  -13.4122 C   0  0  0  0  0  0  0  0  0  0  0  0
   26.3482  -16.5971  -14.4951 C   0  0  1  0  0  0  0  0  0  0  0  0
   26.6802  -15.6001  -15.5785 C   0  0  0  0  0  0  0  0  0  0  0  0
   26.2001  -17.9539  -15.1249 C   0  0  2  0  0  0  0  0  0  0  0  0
   25.3186  -17.8382  -16.2694 N   0  0  0  0  0  0  0  0  0  0  0  0
   25.7614  -19.0078  -14.2008 C   0  0  0  0  0  0  0  0  0  0  0  0
   24.5624  -19.0336  -13.8053 O   0  0  0  0  0  0  0  0  0  0  0  0
   26.6017  -20.0453  -13.6897 N   0  0  0  0  0  0  0  0  0  0  0  0
   26.1457  -21.0576  -12.7716 C   0  0  1  0  0  0  0  0  0  0  0  0
   26.6597  -22.4179  -13.1445 C   0  0  0  0  0  0  0  0  0  0  0  0
   26.4341  -22.7423  -14.5553 C   0  0  0  0  0  0  0  0  0  0  0  0
   25.3671  -22.4706  -15.1861 O   0  0  0  0  0  0  0  0  0  0  0  0
   26.4550  -20.7345  -11.3671 C   0  0  0  0  0  0  0  0  0  0  0  0
   27.5378  -20.1809  -11.0743 O   0  0  0  0  0  0  0  0  0  0  0  0
   27.4047  -23.3923  -15.3297 O   0  0  0  0  0  0  0  0  0  0  0  0
   25.5138  -21.0574  -10.3590 N   0  0  0  0  0  0  0  0  0  0  0  0
   25.8114  -20.8496   -8.9543 C   0  0  1  0  0  0  0  0  0  0  0  0
   25.9224  -19.3837   -8.6703 C   0  0  0  0  0  0  0  0  0  0  0  0
   27.1240  -19.0176   -7.8967 C   0  0  0  0  0  0  0  0  0  0  0  0
   28.1224  -18.1817   -8.3338 C   0  0  0  0  0  0  0  0  0  0  0  0
   29.0530  -18.0718   -7.3776 N   0  0  0  0  0  0  0  0  0  0  0  0
   28.6784  -18.8278   -6.3123 C   0  0  0  0  0  0  0  0  0  0  0  0
   29.3061  -19.0361   -5.0910 C   0  0  0  0  0  0  0  0  0  0  0  0
   28.7104  -19.8617   -4.1649 C   0  0  0  0  0  0  0  0  0  0  0  0
   27.5066  -20.4492   -4.4954 C   0  0  0  0  0  0  0  0  0  0  0  0
   26.8742  -20.2542   -5.6951 C   0  0  0  0  0  0  0  0  0  0  0  0
   27.4772  -19.4185   -6.6328 C   0  0  0  0  0  0  0  0  0  0  0  0
   24.7132  -21.4373   -8.1014 C   0  0  0  0  0  0  0  0  0  0  0  0
   23.5433  -21.5218   -8.5391 O   0  0  0  0  0  0  0  0  0  0  0  0
   24.9872  -21.8893   -6.8266 O   0  0  0  0  0  0  0  0  0  0  0  0
  2  1  1  1
  3  2  1  0
  4  5  1  6
  4  2  1  0
  6  4  1  0
  7  6  2  0
  8  6  1  0
  9 10  1  6
  9  8  1  0
 10 11  1  0
 11 12  2  0
 13  9  1  0
 14 13  2  0
 15 11  1  0
 16 13  1  0
 17 18  1  6
 17 16  1  0
 18 19  1  0
 19 20  2  0
 19 27  1  0
 20 21  1  0
 21 22  1  0
 22 23  2  0
 24 23  1  0
 25 24  2  0
 26 27  2  0
 26 25  1  0
 27 22  1  0
 28 30  1  0
 28 17  1  0
 29 28  2  0
M  END
$$$$
