VDW.pdb
     RDKit          3D

 30 31  0  0  1  0  0  0  0  0999 V2000
   29.0702  -22.7135  -15.4949 C   0  0  0  0  0  0  0  0  0  0  0  0
   29.0210  -21.8223  -16.7001 C   0  0  1  0  0  0  0  0  0  0  0  0
   29.4743  -22.5679  -17.9315 C   0  0  0  0  0  0  0  0  0  0  0  0
   27.6502  -21.2626  -16.9593 C   0  0  2  0  0  0  0  0  0  0  0  0
   27.7125  -20.4121  -18.1311 N   0  0  0  0  0  0  0  0  0  0  0  0
   27.0500  -20.5699  -15.8117 C   0  0  0  0  0  0  0  0  0  0  0  0
   26.8092  -19.3324  -15.8842 O   0  0  0  0  0  0  0  0  0  0  0  0
   26.7015  -21.1944  -14.5739 N   0  0  0  0  0  0  0  0  0  0  0  0
   25.8830  -20.5653  -13.5690 C   0  0  1  0  0  0  0  0  0  0  0  0
   24.5157  -20.2345  -14.0934 C   0  0  0  0  0  0  0  0  0  0  0  0
   23.6500  -19.6294  -13.0780 C   0  0  0  0  0  0  0  0  0  0  0  0
   23.8798  -18.5127  -12.5209 O   0  0  0  0  0  0  0  0  0  0  0  0
   25.8037  -21.3510  -12.3244 C   0  0  0  0  0  0  0  0  0  0  0  0
   25.4712  -22.5563  -12.3632 O   0  0  0  0  0  0  0  0  0  0  0  0
   22.4762  -20.2557  -12.6375 O   0  0  0  0  0  0  0  0  0  0  0  0
   26.1081  -20.7258  -11.0904 N   0  0  0  0  0  0  0  0  0  0  0  0
   26.2074  -21.4902   -9.8613 C   0  0  1  0  0  0  0  0  0  0  0  0
   27.5478  -21.2679   -9.2320 C   0  0  0  0  0  0  0  0  0  0  0  0
   27.5341  -20.2774   -8.1390 C   0  0  0  0  0  0  0  0  0  0  0  0
   26.7736  -19.1338   -8.1168 C   0  0  0  0  0  0  0  0  0  0  0  0
   27.0086  -18.4723   -6.9767 N   0  0  0  0  0  0  0  0  0  0  0  0
   27.9177  -19.1688   -6.2451 C   0  0  0  0  0  0  0  0  0  0  0  0
   28.4747  -18.8936   -5.0029 C   0  0  0  0  0  0  0  0  0  0  0  0
   29.3892  -19.7733   -4.4702 C   0  0  0  0  0  0  0  0  0  0  0  0
   29.7131  -20.8978   -5.2010 C   0  0  0  0  0  0  0  0  0  0  0  0
   29.1730  -21.1842   -6.4272 C   0  0  0  0  0  0  0  0  0  0  0  0
   28.2472  -20.2937   -6.9668 C   0  0  0  0  0  0  0  0  0  0  0  0
   25.1298  -21.0586   -8.8963 C   0  0  0  0  0  0  0  0  0  0  0  0
   25.0367  -21.5899   -7.7666 O   0  0  0  0  0  0  0  0  0  0  0  0
   24.2328  -20.0711   -9.2496 O   0  0  0  0  0  0  0  0  0  0  0  0
  2  1  1  1
  3  2  1  0
  4  5  1  6
  4  2  1  0
  6  4  1  0
  7  6  2  0
  8  6  1  0
  9 10  1  6
  9  8  1  0
 10 11  1  0
 11 12  2  0
 13  9  1  0
 14 13  2  0
 15 11  1  0
 16 13  1  0
 17 18  1  1
 17 16  1  0
 18 19  1  0
 19 20  2  0
 19 27  1  0
 20 21  1  0
 21 22  1  0
 22 23  2  0
 24 23  1  0
 25 24  2  0
 26 27  2  0
 26 25  1  0
 27 22  1  0
 28 30  1  0
 28 17  1  0
 29 28  2  0
M  END
$$$$
