VDW.pdb
     RDKit          3D

 30 31  0  0  1  0  0  0  0  0999 V2000
   30.9597  -17.8001  -18.2518 C   0  0  0  0  0  0  0  0  0  0  0  0
   29.9739  -18.0269  -17.1445 C   0  0  1  0  0  0  0  0  0  0  0  0
   29.7941  -16.7707  -16.3274 C   0  0  0  0  0  0  0  0  0  0  0  0
   28.6260  -18.4694  -17.6415 C   0  0  2  0  0  0  0  0  0  0  0  0
   28.2369  -17.6140  -18.7449 N   0  0  0  0  0  0  0  0  0  0  0  0
   27.5872  -18.5323  -16.6052 C   0  0  0  0  0  0  0  0  0  0  0  0
   27.5163  -17.6205  -15.7345 O   0  0  0  0  0  0  0  0  0  0  0  0
   26.6132  -19.5723  -16.4895 N   0  0  0  0  0  0  0  0  0  0  0  0
   25.6175  -19.6166  -15.4492 C   0  0  1  0  0  0  0  0  0  0  0  0
   24.2329  -19.7611  -16.0113 C   0  0  0  0  0  0  0  0  0  0  0  0
   23.1941  -19.7137  -14.9792 C   0  0  0  0  0  0  0  0  0  0  0  0
   23.2942  -19.0562  -13.8986 O   0  0  0  0  0  0  0  0  0  0  0  0
   25.8956  -20.6519  -14.4376 C   0  0  0  0  0  0  0  0  0  0  0  0
   26.7067  -21.5711  -14.6868 O   0  0  0  0  0  0  0  0  0  0  0  0
   21.9845  -20.4085  -15.1141 O   0  0  0  0  0  0  0  0  0  0  0  0
   25.2357  -20.5917  -13.1857 N   0  0  0  0  0  0  0  0  0  0  0  0
   25.4611  -21.5973  -12.1645 C   0  0  1  0  0  0  0  0  0  0  0  0
   26.7776  -21.3540  -11.4942 C   0  0  0  0  0  0  0  0  0  0  0  0
   26.6628  -20.6854  -10.1842 C   0  0  0  0  0  0  0  0  0  0  0  0
   25.5485  -20.0244   -9.7280 C   0  0  0  0  0  0  0  0  0  0  0  0
   25.7946  -19.5423   -8.5035 N   0  0  0  0  0  0  0  0  0  0  0  0
   27.0619  -19.8788   -8.1464 C   0  0  0  0  0  0  0  0  0  0  0  0
   27.7705  -19.6103   -6.9825 C   0  0  0  0  0  0  0  0  0  0  0  0
   29.0625  -20.0699   -6.8649 C   0  0  0  0  0  0  0  0  0  0  0  0
   29.5985  -20.7824   -7.9177 C   0  0  0  0  0  0  0  0  0  0  0  0
   28.9133  -21.0560   -9.0723 C   0  0  0  0  0  0  0  0  0  0  0  0
   27.6054  -20.5907   -9.1915 C   0  0  0  0  0  0  0  0  0  0  0  0
   24.3615  -21.5400  -11.1318 C   0  0  0  0  0  0  0  0  0  0  0  0
   23.6458  -20.5190  -11.0199 O   0  0  0  0  0  0  0  0  0  0  0  0
   24.1324  -22.6151  -10.2975 O   0  0  0  0  0  0  0  0  0  0  0  0
  2  1  1  6
  3  2  1  0
  4  5  1  6
  4  2  1  0
  6  4  1  0
  7  6  2  0
  8  6  1  0
  9 10  1  6
  9  8  1  0
 10 11  1  0
 11 12  2  0
 13  9  1  0
 14 13  2  0
 15 11  1  0
 16 13  1  0
 17 18  1  1
 17 16  1  0
 18 19  1  0
 19 20  2  0
 19 27  1  0
 20 21  1  0
 21 22  1  0
 22 23  2  0
 24 23  1  0
 25 24  2  0
 26 27  2  0
 26 25  1  0
 27 22  1  0
 28 30  1  0
 28 17  1  0
 29 28  2  0
M  END
$$$$
