VDW.pdb
     RDKit          3D

 30 31  0  0  1  0  0  0  0  0999 V2000
   21.0363  -18.8428  -14.6289 C   0  0  0  0  0  0  0  0  0  0  0  0
   22.2078  -19.7792  -14.6365 C   0  0  1  0  0  0  0  0  0  0  0  0
   23.2347  -19.3375  -15.6506 C   0  0  0  0  0  0  0  0  0  0  0  0
   22.8785  -19.8894  -13.2958 C   0  0  2  0  0  0  0  0  0  0  0  0
   23.1457  -18.5535  -12.8017 N   0  0  0  0  0  0  0  0  0  0  0  0
   24.0846  -20.7274  -13.2872 C   0  0  0  0  0  0  0  0  0  0  0  0
   23.9789  -21.9772  -13.4339 O   0  0  0  0  0  0  0  0  0  0  0  0
   25.4170  -20.2366  -13.1210 N   0  0  0  0  0  0  0  0  0  0  0  0
   26.5724  -21.0915  -13.0221 C   0  0  1  0  0  0  0  0  0  0  0  0
   27.7753  -20.4777  -13.6778 C   0  0  0  0  0  0  0  0  0  0  0  0
   27.5261  -20.0871  -15.0677 C   0  0  0  0  0  0  0  0  0  0  0  0
   26.6023  -20.5736  -15.7888 O   0  0  0  0  0  0  0  0  0  0  0  0
   26.8658  -21.4951  -11.6352 C   0  0  0  0  0  0  0  0  0  0  0  0
   27.7867  -22.3083  -11.3997 O   0  0  0  0  0  0  0  0  0  0  0  0
   28.3095  -19.1239  -15.7177 O   0  0  0  0  0  0  0  0  0  0  0  0
   26.0951  -20.9518  -10.5782 N   0  0  0  0  0  0  0  0  0  0  0  0
   26.2948  -21.3735   -9.2044 C   0  0  1  0  0  0  0  0  0  0  0  0
   27.7024  -21.0843   -8.7841 C   0  0  0  0  0  0  0  0  0  0  0  0
   27.8050  -20.1098   -7.6814 C   0  0  0  0  0  0  0  0  0  0  0  0
   27.2508  -18.8530   -7.6818 C   0  0  0  0  0  0  0  0  0  0  0  0
   27.5395  -18.2455   -6.5241 N   0  0  0  0  0  0  0  0  0  0  0  0
   28.2798  -19.0898   -5.7586 C   0  0  0  0  0  0  0  0  0  0  0  0
   28.8146  -18.9182   -4.4884 C   0  0  0  0  0  0  0  0  0  0  0  0
   29.5385  -19.9433   -3.9234 C   0  0  0  0  0  0  0  0  0  0  0  0
   29.7007  -21.1041   -4.6511 C   0  0  0  0  0  0  0  0  0  0  0  0
   29.1799  -21.2896   -5.9047 C   0  0  0  0  0  0  0  0  0  0  0  0
   28.4471  -20.2519   -6.4770 C   0  0  0  0  0  0  0  0  0  0  0  0
   25.3444  -20.6341   -8.2940 C   0  0  0  0  0  0  0  0  0  0  0  0
   24.7914  -19.5771   -8.6740 O   0  0  0  0  0  0  0  0  0  0  0  0
   25.0737  -21.1161   -7.0296 O   0  0  0  0  0  0  0  0  0  0  0  0
  2  1  1  1
  3  2  1  0
  4  5  1  6
  4  2  1  0
  6  4  1  0
  7  6  2  0
  8  6  1  0
  9 10  1  1
  9  8  1  0
 10 11  1  0
 11 12  2  0
 13  9  1  0
 14 13  2  0
 15 11  1  0
 16 13  1  0
 17 18  1  1
 17 16  1  0
 18 19  1  0
 19 20  2  0
 19 27  1  0
 20 21  1  0
 21 22  1  0
 22 23  2  0
 24 23  1  0
 25 24  2  0
 26 27  2  0
 26 25  1  0
 27 22  1  0
 28 30  1  0
 28 17  1  0
 29 28  2  0
M  END
$$$$
