VDW.pdb
     RDKit          3D

 30 31  0  0  1  0  0  0  0  0999 V2000
   30.1404  -18.9026  -18.0836 C   0  0  0  0  0  0  0  0  0  0  0  0
   29.1182  -18.9923  -16.9899 C   0  0  1  0  0  0  0  0  0  0  0  0
   29.6939  -18.5042  -15.6829 C   0  0  0  0  0  0  0  0  0  0  0  0
   27.8727  -18.2046  -17.2860 C   0  0  2  0  0  0  0  0  0  0  0  0
   28.2552  -16.8550  -17.6500 N   0  0  0  0  0  0  0  0  0  0  0  0
   26.8747  -18.2187  -16.2085 C   0  0  0  0  0  0  0  0  0  0  0  0
   26.8855  -17.3078  -15.3340 O   0  0  0  0  0  0  0  0  0  0  0  0
   25.8545  -19.2084  -16.0552 N   0  0  0  0  0  0  0  0  0  0  0  0
   24.9526  -19.2530  -14.9327 C   0  0  1  0  0  0  0  0  0  0  0  0
   23.5249  -19.0702  -15.3595 C   0  0  0  0  0  0  0  0  0  0  0  0
   22.5860  -19.1233  -14.2361 C   0  0  0  0  0  0  0  0  0  0  0  0
   21.4294  -19.6414  -14.2994 O   0  0  0  0  0  0  0  0  0  0  0  0
   25.1164  -20.4703  -14.1179 C   0  0  0  0  0  0  0  0  0  0  0  0
   24.5190  -21.5227  -14.4347 O   0  0  0  0  0  0  0  0  0  0  0  0
   22.9052  -18.5927  -12.9789 O   0  0  0  0  0  0  0  0  0  0  0  0
   25.9556  -20.4322  -12.9774 N   0  0  0  0  0  0  0  0  0  0  0  0
   26.1179  -21.5919  -12.1208 C   0  0  1  0  0  0  0  0  0  0  0  0
   27.2774  -21.3825  -11.1970 C   0  0  0  0  0  0  0  0  0  0  0  0
   26.9181  -20.7061   -9.9362 C   0  0  0  0  0  0  0  0  0  0  0  0
   25.7001  -20.1316   -9.6656 C   0  0  0  0  0  0  0  0  0  0  0  0
   25.7239  -19.6128   -8.4316 N   0  0  0  0  0  0  0  0  0  0  0  0
   26.9470  -19.8392   -7.8843 C   0  0  0  0  0  0  0  0  0  0  0  0
   27.4526  -19.4965   -6.6369 C   0  0  0  0  0  0  0  0  0  0  0  0
   28.7450  -19.8472   -6.3196 C   0  0  0  0  0  0  0  0  0  0  0  0
   29.4851  -20.5292   -7.2634 C   0  0  0  0  0  0  0  0  0  0  0  0
   29.0017  -20.8750   -8.4979 C   0  0  0  0  0  0  0  0  0  0  0  0
   27.6932  -20.5199   -8.8194 C   0  0  0  0  0  0  0  0  0  0  0  0
   24.8671  -21.8095  -11.3040 C   0  0  0  0  0  0  0  0  0  0  0  0
   24.0217  -20.8947  -11.1783 O   0  0  0  0  0  0  0  0  0  0  0  0
   24.6410  -23.0221  -10.6853 O   0  0  0  0  0  0  0  0  0  0  0  0
  2  1  1  6
  3  2  1  0
  4  5  1  1
  4  2  1  0
  6  4  1  0
  7  6  2  0
  8  6  1  0
  9 10  1  6
  9  8  1  0
 10 11  1  0
 11 12  2  0
 13  9  1  0
 14 13  2  0
 15 11  1  0
 16 13  1  0
 17 18  1  1
 17 16  1  0
 18 19  1  0
 19 20  2  0
 19 27  1  0
 20 21  1  0
 21 22  1  0
 22 23  2  0
 24 23  1  0
 25 24  2  0
 26 27  2  0
 26 25  1  0
 27 22  1  0
 28 30  1  0
 28 17  1  0
 29 28  2  0
M  END
$$$$
