VDW.pdb
     RDKit          3D

 30 31  0  0  1  0  0  0  0  0999 V2000
   28.7626  -21.1477  -18.6831 C   0  0  0  0  0  0  0  0  0  0  0  0
   28.3926  -20.3597  -17.4618 C   0  0  1  0  0  0  0  0  0  0  0  0
   27.0476  -19.6993  -17.6425 C   0  0  0  0  0  0  0  0  0  0  0  0
   28.3485  -21.1980  -16.2148 C   0  0  2  0  0  0  0  0  0  0  0  0
   27.4500  -22.3128  -16.4392 N   0  0  0  0  0  0  0  0  0  0  0  0
   28.0047  -20.4550  -14.9955 C   0  0  0  0  0  0  0  0  0  0  0  0
   28.8042  -19.5874  -14.5454 O   0  0  0  0  0  0  0  0  0  0  0  0
   26.8014  -20.6331  -14.2444 N   0  0  0  0  0  0  0  0  0  0  0  0
   26.5533  -19.9939  -12.9774 C   0  0  1  0  0  0  0  0  0  0  0  0
   25.3836  -19.0556  -13.0480 C   0  0  0  0  0  0  0  0  0  0  0  0
   24.2270  -19.6416  -13.7302 C   0  0  0  0  0  0  0  0  0  0  0  0
   23.8329  -20.8363  -13.5641 O   0  0  0  0  0  0  0  0  0  0  0  0
   26.4008  -20.9579  -11.8728 C   0  0  0  0  0  0  0  0  0  0  0  0
   26.7462  -22.1502  -12.0282 O   0  0  0  0  0  0  0  0  0  0  0  0
   23.4526  -18.9067  -14.6382 O   0  0  0  0  0  0  0  0  0  0  0  0
   25.8612  -20.5178  -10.6393 N   0  0  0  0  0  0  0  0  0  0  0  0
   25.5860  -21.4486   -9.5609 C   0  0  1  0  0  0  0  0  0  0  0  0
   26.8157  -21.6387   -8.7282 C   0  0  0  0  0  0  0  0  0  0  0  0
   27.1448  -20.4771   -7.8806 C   0  0  0  0  0  0  0  0  0  0  0  0
   26.6461  -19.2083   -8.0485 C   0  0  0  0  0  0  0  0  0  0  0  0
   27.1543  -18.4082   -7.1030 N   0  0  0  0  0  0  0  0  0  0  0  0
   27.9847  -19.1369   -6.3118 C   0  0  0  0  0  0  0  0  0  0  0  0
   28.7385  -18.7587   -5.2082 C   0  0  0  0  0  0  0  0  0  0  0  0
   29.5112  -19.7024   -4.5707 C   0  0  0  0  0  0  0  0  0  0  0  0
   29.5010  -20.9918   -5.0614 C   0  0  0  0  0  0  0  0  0  0  0  0
   28.7634  -21.3815   -6.1482 C   0  0  0  0  0  0  0  0  0  0  0  0
   27.9811  -20.4262   -6.7939 C   0  0  0  0  0  0  0  0  0  0  0  0
   24.4753  -20.9149   -8.6891 C   0  0  0  0  0  0  0  0  0  0  0  0
   23.9796  -19.7865   -8.9089 O   0  0  0  0  0  0  0  0  0  0  0  0
   23.9925  -21.6667   -7.6373 O   0  0  0  0  0  0  0  0  0  0  0  0
  2  1  1  6
  3  2  1  0
  4  5  1  6
  4  2  1  0
  6  4  1  0
  7  6  2  0
  8  6  1  0
  9 10  1  6
  9  8  1  0
 10 11  1  0
 11 12  2  0
 13  9  1  0
 14 13  2  0
 15 11  1  0
 16 13  1  0
 17 18  1  1
 17 16  1  0
 18 19  1  0
 19 20  2  0
 19 27  1  0
 20 21  1  0
 21 22  1  0
 22 23  2  0
 24 23  1  0
 25 24  2  0
 26 27  2  0
 26 25  1  0
 27 22  1  0
 28 30  1  0
 28 17  1  0
 29 28  2  0
M  END
$$$$
