MDH.pdb
     RDKit          3D

 27 27  0  0  1  0  0  0  0  0999 V2000
   27.2992  -14.7745  -15.1887 C   0  0  0  0  0  0  0  0  0  0  0  0
   25.9700  -13.6523  -15.6904 S   0  0  0  0  0  0  0  0  0  0  0  0
   24.7287  -14.5474  -16.6384 C   0  0  0  0  0  0  0  0  0  0  0  0
   23.6636  -13.5830  -17.1699 C   0  0  0  0  0  0  0  0  0  0  0  0
   22.9834  -12.9981  -15.9657 C   0  0  2  0  0  0  0  0  0  0  0  0
   22.3971  -14.0917  -15.2161 N   0  0  0  0  0  0  0  0  0  0  0  0
   21.9168  -12.0320  -16.3715 C   0  0  0  0  0  0  0  0  0  0  0  0
   22.1347  -11.1455  -17.2311 O   0  0  0  0  0  0  0  0  0  0  0  0
   20.6575  -12.1187  -15.7833 N   0  0  0  0  0  0  0  0  0  0  0  0
   19.5895  -11.1701  -16.2777 C   0  0  1  0  0  0  0  0  0  0  0  0
   18.3493  -11.7830  -15.7083 C   0  0  0  0  0  0  0  0  0  0  0  0
   17.8072  -12.9829  -16.3047 C   0  0  0  0  0  0  0  0  0  0  0  0
   17.6204  -13.2847  -17.4891 O   0  0  0  0  0  0  0  0  0  0  0  0
   19.9705   -9.8996  -15.6416 C   0  0  0  0  0  0  0  0  0  0  0  0
   20.2463   -9.8681  -14.4210 O   0  0  0  0  0  0  0  0  0  0  0  0
   17.4233  -13.9896  -15.3643 O   0  0  0  0  0  0  0  0  0  0  0  0
   20.0457   -8.6950  -16.3569 N   0  0  0  0  0  0  0  0  0  0  0  0
   20.4074   -7.4488  -15.6706 C   0  0  1  0  0  0  0  0  0  0  0  0
   21.0847   -6.4669  -16.5736 C   0  0  0  0  0  0  0  0  0  0  0  0
   21.3593   -5.2084  -15.8489 C   0  0  0  0  0  0  0  0  0  0  0  0
   22.1267   -5.0276  -14.7098 C   0  0  0  0  0  0  0  0  0  0  0  0
   22.1213   -3.7347  -14.3723 N   0  0  0  0  0  0  0  0  0  0  0  0
   21.3612   -3.1096  -15.2855 C   0  0  0  0  0  0  0  0  0  0  0  0
   20.9051   -3.9970  -16.1708 N   0  0  0  0  0  0  0  0  0  0  0  0
   19.1572   -6.9007  -15.0866 C   0  0  0  0  0  0  0  0  0  0  0  0
   18.1110   -6.9559  -15.7907 O   0  0  0  0  0  0  0  0  0  0  0  0
   19.1742   -6.3576  -13.8171 O   0  0  0  0  0  0  0  0  0  0  0  0
  2  1  1  0
  3  2  1  0
  4  3  1  0
  4  5  1  0
  5  7  1  0
  5  6  1  6
  7  8  2  0
  9 10  1  0
  9  7  1  0
 10 11  1  1
 12 11  1  0
 13 12  2  0
 14 17  1  0
 14 10  1  0
 15 14  2  0
 16 12  1  0
 18 17  1  0
 18 19  1  6
 20 19  1  0
 21 20  2  0
 22 21  1  0
 22 23  1  0
 23 24  2  0
 24 20  1  0
 25 18  1  0
 26 25  2  0
 27 25  1  0
M  END
$$$$
