MDH.pdb
     RDKit          3D

 27 27  0  0  1  0  0  0  0  0999 V2000
   26.4154  -20.4791   -7.0699 C   0  0  0  0  0  0  0  0  0  0  0  0
   26.2836  -19.6325   -8.6649 S   0  0  0  0  0  0  0  0  0  0  0  0
   25.7756  -20.7946   -9.9425 C   0  0  0  0  0  0  0  0  0  0  0  0
   25.6455  -20.0820  -11.2925 C   0  0  0  0  0  0  0  0  0  0  0  0
   25.3496  -21.1485  -12.3073 C   0  0  2  0  0  0  0  0  0  0  0  0
   26.6157  -21.6939  -12.7555 N   0  0  0  0  0  0  0  0  0  0  0  0
   24.5995  -20.5847  -13.4714 C   0  0  0  0  0  0  0  0  0  0  0  0
   25.1672  -19.8574  -14.3206 O   0  0  0  0  0  0  0  0  0  0  0  0
   23.2447  -20.8729  -13.6149 N   0  0  0  0  0  0  0  0  0  0  0  0
   22.5472  -20.3512  -14.8503 C   0  0  1  0  0  0  0  0  0  0  0  0
   22.1512  -21.6203  -15.5363 C   0  0  0  0  0  0  0  0  0  0  0  0
   22.6192  -21.8826  -16.8785 C   0  0  0  0  0  0  0  0  0  0  0  0
   21.9968  -22.0782  -17.9288 O   0  0  0  0  0  0  0  0  0  0  0  0
   21.4139  -19.6023  -14.2858 C   0  0  0  0  0  0  0  0  0  0  0  0
   21.4507  -19.2123  -13.0969 O   0  0  0  0  0  0  0  0  0  0  0  0
   24.0426  -21.9214  -17.0117 O   0  0  0  0  0  0  0  0  0  0  0  0
   20.2698  -19.2932  -15.0368 N   0  0  0  0  0  0  0  0  0  0  0  0
   19.5328  -18.0492  -14.7836 C   0  0  1  0  0  0  0  0  0  0  0  0
   20.3617  -16.8271  -15.0231 C   0  0  0  0  0  0  0  0  0  0  0  0
   19.5706  -15.6090  -14.7494 C   0  0  0  0  0  0  0  0  0  0  0  0
   18.2796  -15.5211  -14.2549 C   0  0  0  0  0  0  0  0  0  0  0  0
   17.9302  -14.2354  -14.1540 N   0  0  0  0  0  0  0  0  0  0  0  0
   18.9858  -13.5230  -14.5788 C   0  0  0  0  0  0  0  0  0  0  0  0
   19.9693  -14.3505  -14.9356 N   0  0  0  0  0  0  0  0  0  0  0  0
   18.3240  -18.0822  -15.6452 C   0  0  0  0  0  0  0  0  0  0  0  0
   17.2219  -17.7668  -15.1168 O   0  0  0  0  0  0  0  0  0  0  0  0
   18.4376  -18.4491  -16.9716 O   0  0  0  0  0  0  0  0  0  0  0  0
  2  1  1  0
  3  2  1  0
  4  3  1  0
  4  5  1  0
  5  7  1  0
  5  6  1  6
  7  8  2  0
  9 10  1  0
  9  7  1  0
 10 11  1  6
 12 11  1  0
 13 12  2  0
 14 17  1  0
 14 10  1  0
 15 14  2  0
 16 12  1  0
 18 17  1  0
 18 19  1  6
 20 19  1  0
 21 20  2  0
 22 21  1  0
 22 23  1  0
 23 24  2  0
 24 20  1  0
 25 18  1  0
 26 25  2  0
 27 25  1  0
M  END
$$$$
