MDH.pdb
     RDKit          3D

 27 27  0  0  1  0  0  0  0  0999 V2000
   25.0703  -15.7921  -19.1515 C   0  0  0  0  0  0  0  0  0  0  0  0
   24.5413  -14.2155  -18.4355 S   0  0  0  0  0  0  0  0  0  0  0  0
   24.8734  -14.1966  -16.6662 C   0  0  0  0  0  0  0  0  0  0  0  0
   24.3655  -12.8936  -16.0407 C   0  0  0  0  0  0  0  0  0  0  0  0
   25.3013  -11.8118  -16.4978 C   0  0  2  0  0  0  0  0  0  0  0  0
   26.5695  -12.0127  -15.8248 N   0  0  0  0  0  0  0  0  0  0  0  0
   24.7582  -10.4594  -16.1635 C   0  0  0  0  0  0  0  0  0  0  0  0
   24.6404  -10.0815  -14.9737 O   0  0  0  0  0  0  0  0  0  0  0  0
   24.3760   -9.6036  -17.1935 N   0  0  0  0  0  0  0  0  0  0  0  0
   23.8280   -8.2487  -16.8078 C   0  0  1  0  0  0  0  0  0  0  0  0
   24.2538   -7.4056  -17.9679 C   0  0  0  0  0  0  0  0  0  0  0  0
   23.8222   -6.0283  -18.0462 C   0  0  0  0  0  0  0  0  0  0  0  0
   23.0705   -5.3730  -17.3152 O   0  0  0  0  0  0  0  0  0  0  0  0
   22.3786   -8.4938  -16.7517 C   0  0  0  0  0  0  0  0  0  0  0  0
   21.8377   -9.2474  -17.5922 O   0  0  0  0  0  0  0  0  0  0  0  0
   24.3562   -5.3033  -19.1572 O   0  0  0  0  0  0  0  0  0  0  0  0
   21.5563   -7.9130  -15.7745 N   0  0  0  0  0  0  0  0  0  0  0  0
   20.1404   -8.2888  -15.6808 C   0  0  1  0  0  0  0  0  0  0  0  0
   19.9416   -9.6547  -15.1040 C   0  0  0  0  0  0  0  0  0  0  0  0
   18.4996   -9.9600  -14.9937 C   0  0  0  0  0  0  0  0  0  0  0  0
   17.4266   -9.1610  -15.3530 C   0  0  0  0  0  0  0  0  0  0  0  0
   16.2862   -9.8062  -15.0909 N   0  0  0  0  0  0  0  0  0  0  0  0
   16.6355  -10.9949  -14.5739 C   0  0  0  0  0  0  0  0  0  0  0  0
   17.9652  -11.0843  -14.5167 N   0  0  0  0  0  0  0  0  0  0  0  0
   19.4689   -7.2385  -14.8743 C   0  0  0  0  0  0  0  0  0  0  0  0
   20.2031   -6.4242  -14.2489 O   0  0  0  0  0  0  0  0  0  0  0  0
   18.0897   -7.1836  -14.8321 O   0  0  0  0  0  0  0  0  0  0  0  0
  2  1  1  0
  3  2  1  0
  4  3  1  0
  4  5  1  0
  5  7  1  0
  5  6  1  1
  7  8  2  0
  9 10  1  0
  9  7  1  0
 10 11  1  6
 12 11  1  0
 13 12  2  0
 14 17  1  0
 14 10  1  0
 15 14  2  0
 16 12  1  0
 18 17  1  0
 18 19  1  1
 20 19  1  0
 21 20  2  0
 22 21  1  0
 22 23  1  0
 23 24  2  0
 24 20  1  0
 25 18  1  0
 26 25  2  0
 27 25  1  0
M  END
$$$$
