MDH.pdb
     RDKit          3D

 27 27  0  0  1  0  0  0  0  0999 V2000
   30.8728  -20.4722   -9.7977 C   0  0  0  0  0  0  0  0  0  0  0  0
   29.4087  -20.3465  -10.8553 S   0  0  0  0  0  0  0  0  0  0  0  0
   28.6152  -21.9552  -11.0080 C   0  0  0  0  0  0  0  0  0  0  0  0
   27.4868  -21.8988  -12.0426 C   0  0  0  0  0  0  0  0  0  0  0  0
   26.5204  -20.8564  -11.5585 C   0  0  2  0  0  0  0  0  0  0  0  0
   26.0973  -21.2334  -10.2242 N   0  0  0  0  0  0  0  0  0  0  0  0
   25.3321  -20.7692  -12.4618 C   0  0  0  0  0  0  0  0  0  0  0  0
   25.4654  -20.6267  -13.7005 O   0  0  0  0  0  0  0  0  0  0  0  0
   24.0530  -20.8478  -11.9167 N   0  0  0  0  0  0  0  0  0  0  0  0
   22.9034  -21.0939  -12.8669 C   0  0  1  0  0  0  0  0  0  0  0  0
   21.7865  -21.4037  -11.9211 C   0  0  0  0  0  0  0  0  0  0  0  0
   20.4482  -21.5917  -12.4337 C   0  0  0  0  0  0  0  0  0  0  0  0
   20.0449  -22.1647  -13.4524 O   0  0  0  0  0  0  0  0  0  0  0  0
   22.7652  -19.7959  -13.5450 C   0  0  0  0  0  0  0  0  0  0  0  0
   22.7418  -18.7386  -12.8753 O   0  0  0  0  0  0  0  0  0  0  0  0
   19.4185  -21.0178  -11.6240 O   0  0  0  0  0  0  0  0  0  0  0  0
   22.6612  -19.6850  -14.9398 N   0  0  0  0  0  0  0  0  0  0  0  0
   22.3834  -18.3835  -15.5594 C   0  0  1  0  0  0  0  0  0  0  0  0
   23.1974  -18.1443  -16.7916 C   0  0  0  0  0  0  0  0  0  0  0  0
   22.8688  -16.8268  -17.3755 C   0  0  0  0  0  0  0  0  0  0  0  0
   23.2213  -15.5719  -16.9066 C   0  0  0  0  0  0  0  0  0  0  0  0
   22.7255  -14.6381  -17.7237 N   0  0  0  0  0  0  0  0  0  0  0  0
   22.0700  -15.2950  -18.6937 C   0  0  0  0  0  0  0  0  0  0  0  0
   22.1578  -16.6091  -18.4820 N   0  0  0  0  0  0  0  0  0  0  0  0
   20.9253  -18.3411  -15.8360 C   0  0  0  0  0  0  0  0  0  0  0  0
   20.3000  -17.2936  -15.5121 O   0  0  0  0  0  0  0  0  0  0  0  0
   20.3079  -19.4258  -16.4271 O   0  0  0  0  0  0  0  0  0  0  0  0
  2  1  1  0
  3  2  1  0
  4  3  1  0
  4  5  1  0
  5  7  1  0
  5  6  1  1
  7  8  2  0
  9 10  1  0
  9  7  1  0
 10 11  1  1
 12 11  1  0
 13 12  2  0
 14 17  1  0
 14 10  1  0
 15 14  2  0
 16 12  1  0
 18 17  1  0
 18 19  1  6
 20 19  1  0
 21 20  2  0
 22 21  1  0
 22 23  1  0
 23 24  2  0
 24 20  1  0
 25 18  1  0
 26 25  2  0
 27 25  1  0
M  END
$$$$
