MDH.pdb
     RDKit          3D

 27 27  0  0  1  0  0  0  0  0999 V2000
   27.4344  -10.2283  -15.6613 C   0  0  0  0  0  0  0  0  0  0  0  0
   27.2034  -12.0004  -15.3713 S   0  0  0  0  0  0  0  0  0  0  0  0
   25.4480  -12.3891  -15.2796 C   0  0  0  0  0  0  0  0  0  0  0  0
   24.6120  -11.2109  -15.7895 C   0  0  0  0  0  0  0  0  0  0  0  0
   23.1891  -11.6888  -15.8326 C   0  0  2  0  0  0  0  0  0  0  0  0
   23.1339  -12.8289  -16.7262 N   0  0  0  0  0  0  0  0  0  0  0  0
   22.2786  -10.6112  -16.3281 C   0  0  0  0  0  0  0  0  0  0  0  0
   22.2949  -10.2462  -17.5276 O   0  0  0  0  0  0  0  0  0  0  0  0
   21.3958  -10.0016  -15.4402 N   0  0  0  0  0  0  0  0  0  0  0  0
   20.3972   -9.0212  -16.0116 C   0  0  1  0  0  0  0  0  0  0  0  0
   19.1909   -9.2873  -15.1679 C   0  0  0  0  0  0  0  0  0  0  0  0
   18.1967  -10.2335  -15.6216 C   0  0  0  0  0  0  0  0  0  0  0  0
   18.0704  -10.8181  -16.7037 O   0  0  0  0  0  0  0  0  0  0  0  0
   21.0347   -7.7227  -15.7443 C   0  0  0  0  0  0  0  0  0  0  0  0
   21.6079   -7.5197  -14.6502 O   0  0  0  0  0  0  0  0  0  0  0  0
   17.1911  -10.5448  -14.6537 O   0  0  0  0  0  0  0  0  0  0  0  0
   21.0345   -6.6792  -16.6821 N   0  0  0  0  0  0  0  0  0  0  0  0
   21.8014   -5.4541  -16.4254 C   0  0  1  0  0  0  0  0  0  0  0  0
   22.6096   -5.0196  -17.6069 C   0  0  0  0  0  0  0  0  0  0  0  0
   23.6069   -6.0537  -17.9544 C   0  0  0  0  0  0  0  0  0  0  0  0
   23.5217   -7.0285  -18.9350 C   0  0  0  0  0  0  0  0  0  0  0  0
   24.6358   -7.7660  -18.9247 N   0  0  0  0  0  0  0  0  0  0  0  0
   25.4122   -7.2633  -17.9517 C   0  0  0  0  0  0  0  0  0  0  0  0
   24.7917   -6.2352  -17.3708 N   0  0  0  0  0  0  0  0  0  0  0  0
   20.8267   -4.4167  -16.0033 C   0  0  0  0  0  0  0  0  0  0  0  0
   19.6027   -4.7247  -16.0197 O   0  0  0  0  0  0  0  0  0  0  0  0
   21.2772   -3.1710  -15.6131 O   0  0  0  0  0  0  0  0  0  0  0  0
  2  1  1  0
  3  2  1  0
  4  3  1  0
  4  5  1  0
  5  7  1  0
  5  6  1  6
  7  8  2  0
  9 10  1  0
  9  7  1  0
 10 11  1  1
 12 11  1  0
 13 12  2  0
 14 17  1  0
 14 10  1  0
 15 14  2  0
 16 12  1  0
 18 17  1  0
 18 19  1  6
 20 19  1  0
 21 20  2  0
 22 21  1  0
 22 23  1  0
 23 24  2  0
 24 20  1  0
 25 18  1  0
 26 25  2  0
 27 25  1  0
M  END
$$$$
