MDH.pdb
     RDKit          3D

 27 27  0  0  1  0  0  0  0  0999 V2000
   19.0201  -11.6853  -21.0765 C   0  0  0  0  0  0  0  0  0  0  0  0
   17.7262  -12.0213  -19.8554 S   0  0  0  0  0  0  0  0  0  0  0  0
   18.3654  -11.7708  -18.1912 C   0  0  0  0  0  0  0  0  0  0  0  0
   18.8547  -10.3295  -18.0175 C   0  0  0  0  0  0  0  0  0  0  0  0
   19.5275  -10.2695  -16.6763 C   0  0  2  0  0  0  0  0  0  0  0  0
   18.9016  -11.2617  -15.8246 N   0  0  0  0  0  0  0  0  0  0  0  0
   19.3818   -8.9124  -16.0660 C   0  0  0  0  0  0  0  0  0  0  0  0
   18.3417   -8.5858  -15.4464 O   0  0  0  0  0  0  0  0  0  0  0  0
   20.4214   -7.9938  -16.1881 N   0  0  0  0  0  0  0  0  0  0  0  0
   20.3006   -6.6971  -15.4208 C   0  0  1  0  0  0  0  0  0  0  0  0
   21.6213   -6.6321  -14.7212 C   0  0  0  0  0  0  0  0  0  0  0  0
   21.8660   -5.5868  -13.7533 C   0  0  0  0  0  0  0  0  0  0  0  0
   22.8610   -5.3410  -13.0617 O   0  0  0  0  0  0  0  0  0  0  0  0
   20.1472   -5.7031  -16.4943 C   0  0  0  0  0  0  0  0  0  0  0  0
   20.8686   -5.7674  -17.5153 O   0  0  0  0  0  0  0  0  0  0  0  0
   20.7713   -4.6858  -13.5661 O   0  0  0  0  0  0  0  0  0  0  0  0
   19.2049   -4.6658  -16.4277 N   0  0  0  0  0  0  0  0  0  0  0  0
   19.0939   -3.6961  -17.5243 C   0  0  1  0  0  0  0  0  0  0  0  0
   17.6759   -3.4309  -17.9202 C   0  0  0  0  0  0  0  0  0  0  0  0
   17.1578   -4.5413  -18.7467 C   0  0  0  0  0  0  0  0  0  0  0  0
   17.4162   -4.8063  -20.0816 C   0  0  0  0  0  0  0  0  0  0  0  0
   16.7520   -5.9050  -20.4520 N   0  0  0  0  0  0  0  0  0  0  0  0
   16.0846   -6.3265  -19.3661 C   0  0  0  0  0  0  0  0  0  0  0  0
   16.3302   -5.5057  -18.3437 N   0  0  0  0  0  0  0  0  0  0  0  0
   19.7900   -2.4623  -17.0797 C   0  0  0  0  0  0  0  0  0  0  0  0
   19.8163   -1.4864  -17.8799 O   0  0  0  0  0  0  0  0  0  0  0  0
   20.3765   -2.4185  -15.8302 O   0  0  0  0  0  0  0  0  0  0  0  0
  2  1  1  0
  3  2  1  0
  4  3  1  0
  4  5  1  0
  5  7  1  0
  5  6  1  1
  7  8  2  0
  9 10  1  0
  9  7  1  0
 10 11  1  6
 12 11  1  0
 13 12  2  0
 14 17  1  0
 14 10  1  0
 15 14  2  0
 16 12  1  0
 18 17  1  0
 18 19  1  1
 20 19  1  0
 21 20  2  0
 22 21  1  0
 22 23  1  0
 23 24  2  0
 24 20  1  0
 25 18  1  0
 26 25  2  0
 27 25  1  0
M  END
$$$$
