MDH.pdb
     RDKit          3D

 27 27  0  0  1  0  0  0  0  0999 V2000
   30.8464  -21.5197  -10.4549 C   0  0  0  0  0  0  0  0  0  0  0  0
   29.4011  -20.7453  -11.2226 S   0  0  0  0  0  0  0  0  0  0  0  0
   27.9025  -21.2307  -10.3511 C   0  0  0  0  0  0  0  0  0  0  0  0
   26.6921  -20.4732  -10.9059 C   0  0  0  0  0  0  0  0  0  0  0  0
   25.9497  -21.4430  -11.7795 C   0  0  2  0  0  0  0  0  0  0  0  0
   26.8664  -21.9048  -12.8033 N   0  0  0  0  0  0  0  0  0  0  0  0
   24.7653  -20.7896  -12.4164 C   0  0  0  0  0  0  0  0  0  0  0  0
   23.9681  -20.0919  -11.7456 O   0  0  0  0  0  0  0  0  0  0  0  0
   24.5435  -20.9594  -13.7807 N   0  0  0  0  0  0  0  0  0  0  0  0
   23.3526  -20.2533  -14.3873 C   0  0  1  0  0  0  0  0  0  0  0  0
   23.7324  -20.2013  -15.8334 C   0  0  0  0  0  0  0  0  0  0  0  0
   24.8465  -19.3800  -16.2499 C   0  0  0  0  0  0  0  0  0  0  0  0
   25.0856  -18.1823  -16.0571 O   0  0  0  0  0  0  0  0  0  0  0  0
   22.2482  -21.1805  -14.0960 C   0  0  0  0  0  0  0  0  0  0  0  0
   22.4113  -22.4134  -14.2384 O   0  0  0  0  0  0  0  0  0  0  0  0
   25.8384  -20.0716  -17.0133 O   0  0  0  0  0  0  0  0  0  0  0  0
   20.9937  -20.7372  -13.6508 N   0  0  0  0  0  0  0  0  0  0  0  0
   20.1369  -21.6229  -12.8529 C   0  0  1  0  0  0  0  0  0  0  0  0
   20.6371  -21.8057  -11.4550 C   0  0  0  0  0  0  0  0  0  0  0  0
   19.7124  -22.6666  -10.6878 C   0  0  0  0  0  0  0  0  0  0  0  0
   18.5243  -23.2377  -11.1136 C   0  0  0  0  0  0  0  0  0  0  0  0
   17.9894  -23.9450  -10.1141 N   0  0  0  0  0  0  0  0  0  0  0  0
   18.8283  -23.8216   -9.0734 C   0  0  0  0  0  0  0  0  0  0  0  0
   19.8620  -23.0534   -9.4209 N   0  0  0  0  0  0  0  0  0  0  0  0
   18.7702  -21.0437  -12.8861 C   0  0  0  0  0  0  0  0  0  0  0  0
   18.6701  -19.7892  -12.9837 O   0  0  0  0  0  0  0  0  0  0  0  0
   17.6709  -21.8762  -12.8107 O   0  0  0  0  0  0  0  0  0  0  0  0
  2  1  1  0
  3  2  1  0
  4  3  1  0
  4  5  1  0
  5  7  1  0
  5  6  1  6
  7  8  2  0
  9 10  1  0
  9  7  1  0
 10 11  1  6
 12 11  1  0
 13 12  2  0
 14 17  1  0
 14 10  1  0
 15 14  2  0
 16 12  1  0
 18 17  1  0
 18 19  1  1
 20 19  1  0
 21 20  2  0
 22 21  1  0
 22 23  1  0
 23 24  2  0
 24 20  1  0
 25 18  1  0
 26 25  2  0
 27 25  1  0
M  END
$$$$
