MDH.pdb
     RDKit          3D

 27 27  0  0  1  0  0  0  0  0999 V2000
   26.9429  -17.1262  -15.3992 C   0  0  0  0  0  0  0  0  0  0  0  0
   25.5031  -18.2172  -15.5208 S   0  0  0  0  0  0  0  0  0  0  0  0
   24.1071  -17.3239  -16.2236 C   0  0  0  0  0  0  0  0  0  0  0  0
   24.1075  -15.8687  -15.7449 C   0  0  0  0  0  0  0  0  0  0  0  0
   22.9921  -15.1814  -16.4786 C   0  0  2  0  0  0  0  0  0  0  0  0
   22.8717  -15.8050  -17.7817 N   0  0  0  0  0  0  0  0  0  0  0  0
   23.2775  -13.7224  -16.6388 C   0  0  0  0  0  0  0  0  0  0  0  0
   23.5389  -12.9981  -15.6492 O   0  0  0  0  0  0  0  0  0  0  0  0
   23.2525  -13.1576  -17.9115 N   0  0  0  0  0  0  0  0  0  0  0  0
   23.4542  -11.6632  -18.0159 C   0  0  1  0  0  0  0  0  0  0  0  0
   24.1084  -11.5363  -19.3552 C   0  0  0  0  0  0  0  0  0  0  0  0
   25.5301  -11.7652  -19.4801 C   0  0  0  0  0  0  0  0  0  0  0  0
   26.4874  -11.2522  -18.8891 O   0  0  0  0  0  0  0  0  0  0  0  0
   22.0759  -11.1507  -17.9768 C   0  0  0  0  0  0  0  0  0  0  0  0
   21.2127  -11.6146  -18.7556 O   0  0  0  0  0  0  0  0  0  0  0  0
   25.8873  -12.7523  -20.4512 O   0  0  0  0  0  0  0  0  0  0  0  0
   21.6735  -10.1468  -17.0831 N   0  0  0  0  0  0  0  0  0  0  0  0
   20.2857   -9.6683  -17.0846 C   0  0  1  0  0  0  0  0  0  0  0  0
   19.6810   -9.6439  -15.7165 C   0  0  0  0  0  0  0  0  0  0  0  0
   18.3221   -9.0646  -15.7665 C   0  0  0  0  0  0  0  0  0  0  0  0
   17.2166   -9.5360  -16.4555 C   0  0  0  0  0  0  0  0  0  0  0  0
   16.1794   -8.7219  -16.2392 N   0  0  0  0  0  0  0  0  0  0  0  0
   16.6247   -7.7513  -15.4257 C   0  0  0  0  0  0  0  0  0  0  0  0
   17.9117   -7.9598  -15.1436 N   0  0  0  0  0  0  0  0  0  0  0  0
   20.2947   -8.3242  -17.7155 C   0  0  0  0  0  0  0  0  0  0  0  0
   21.3650   -7.6580  -17.6544 O   0  0  0  0  0  0  0  0  0  0  0  0
   19.1561   -7.8514  -18.3377 O   0  0  0  0  0  0  0  0  0  0  0  0
  2  1  1  0
  3  2  1  0
  4  3  1  0
  4  5  1  0
  5  7  1  0
  5  6  1  6
  7  8  2  0
  9 10  1  0
  9  7  1  0
 10 11  1  6
 12 11  1  0
 13 12  2  0
 14 17  1  0
 14 10  1  0
 15 14  2  0
 16 12  1  0
 18 17  1  0
 18 19  1  1
 20 19  1  0
 21 20  2  0
 22 21  1  0
 22 23  1  0
 23 24  2  0
 24 20  1  0
 25 18  1  0
 26 25  2  0
 27 25  1  0
M  END
$$$$
