MDH.pdb
     RDKit          3D

 27 27  0  0  1  0  0  0  0  0999 V2000
   30.1125  -21.0246   -6.0763 C   0  0  0  0  0  0  0  0  0  0  0  0
   28.4483  -20.6906   -5.4464 S   0  0  0  0  0  0  0  0  0  0  0  0
   27.5363  -19.6711   -6.6167 C   0  0  0  0  0  0  0  0  0  0  0  0
   27.1618  -20.4869   -7.8582 C   0  0  0  0  0  0  0  0  0  0  0  0
   26.4575  -19.5421   -8.7889 C   0  0  2  0  0  0  0  0  0  0  0  0
   25.4514  -18.8352   -8.0211 N   0  0  0  0  0  0  0  0  0  0  0  0
   25.8090  -20.2843   -9.9133 C   0  0  0  0  0  0  0  0  0  0  0  0
   26.4706  -21.0474  -10.6563 O   0  0  0  0  0  0  0  0  0  0  0  0
   24.4442  -20.1247  -10.1392 N   0  0  0  0  0  0  0  0  0  0  0  0
   23.8539  -20.8033  -11.3540 C   0  0  1  0  0  0  0  0  0  0  0  0
   22.3963  -20.8184  -11.0173 C   0  0  0  0  0  0  0  0  0  0  0  0
   21.4360  -21.2212  -12.0198 C   0  0  0  0  0  0  0  0  0  0  0  0
   20.2028  -21.1346  -12.0401 O   0  0  0  0  0  0  0  0  0  0  0  0
   24.2032  -19.8752  -12.4405 C   0  0  0  0  0  0  0  0  0  0  0  0
   24.1380  -18.6391  -12.2537 O   0  0  0  0  0  0  0  0  0  0  0  0
   22.0118  -21.8202  -13.1837 O   0  0  0  0  0  0  0  0  0  0  0  0
   24.6205  -20.3212  -13.7036 N   0  0  0  0  0  0  0  0  0  0  0  0
   25.0055  -19.3545  -14.7391 C   0  0  1  0  0  0  0  0  0  0  0  0
   26.2562  -19.7468  -15.4601 C   0  0  0  0  0  0  0  0  0  0  0  0
   26.5629  -18.7685  -16.5247 C   0  0  0  0  0  0  0  0  0  0  0  0
   26.3184  -17.4049  -16.5291 C   0  0  0  0  0  0  0  0  0  0  0  0
   26.7462  -16.8817  -17.6818 N   0  0  0  0  0  0  0  0  0  0  0  0
   27.2530  -17.9008  -18.3937 C   0  0  0  0  0  0  0  0  0  0  0  0
   27.1416  -19.0325  -17.6963 N   0  0  0  0  0  0  0  0  0  0  0  0
   23.8473  -19.2255  -15.6592 C   0  0  0  0  0  0  0  0  0  0  0  0
   23.2682  -20.2871  -16.0210 O   0  0  0  0  0  0  0  0  0  0  0  0
   23.4453  -17.9745  -16.0839 O   0  0  0  0  0  0  0  0  0  0  0  0
  2  1  1  0
  3  2  1  0
  4  3  1  0
  4  5  1  0
  5  7  1  0
  5  6  1  1
  7  8  2  0
  9 10  1  0
  9  7  1  0
 10 11  1  1
 12 11  1  0
 13 12  2  0
 14 17  1  0
 14 10  1  0
 15 14  2  0
 16 12  1  0
 18 17  1  0
 18 19  1  6
 20 19  1  0
 21 20  2  0
 22 21  1  0
 22 23  1  0
 23 24  2  0
 24 20  1  0
 25 18  1  0
 26 25  2  0
 27 25  1  0
M  END
$$$$
