MDH.pdb
     RDKit          3D

 27 27  0  0  1  0  0  0  0  0999 V2000
   14.1575  -16.3292  -16.3449 C   0  0  0  0  0  0  0  0  0  0  0  0
   15.7539  -15.4890  -16.4984 S   0  0  0  0  0  0  0  0  0  0  0  0
   16.9971  -16.3363  -15.5099 C   0  0  0  0  0  0  0  0  0  0  0  0
   18.3339  -15.5912  -15.5786 C   0  0  0  0  0  0  0  0  0  0  0  0
   18.8832  -15.8332  -16.9551 C   0  0  2  0  0  0  0  0  0  0  0  0
   19.2614  -17.2301  -17.0393 N   0  0  0  0  0  0  0  0  0  0  0  0
   20.0750  -14.9684  -17.2142 C   0  0  0  0  0  0  0  0  0  0  0  0
   21.1813  -15.2061  -16.6738 O   0  0  0  0  0  0  0  0  0  0  0  0
   19.9538  -13.8782  -18.0721 N   0  0  0  0  0  0  0  0  0  0  0  0
   21.1970  -13.0626  -18.3442 C   0  0  1  0  0  0  0  0  0  0  0  0
   21.4497  -13.3633  -19.7877 C   0  0  0  0  0  0  0  0  0  0  0  0
   22.8035  -13.5787  -20.2459 C   0  0  0  0  0  0  0  0  0  0  0  0
   23.6174  -14.4694  -19.9755 O   0  0  0  0  0  0  0  0  0  0  0  0
   20.7384  -11.6872  -18.0952 C   0  0  0  0  0  0  0  0  0  0  0  0
   19.5927  -11.3341  -18.4551 O   0  0  0  0  0  0  0  0  0  0  0  0
   23.2796  -12.5947  -21.1680 O   0  0  0  0  0  0  0  0  0  0  0  0
   21.5420  -10.7326  -17.4537 N   0  0  0  0  0  0  0  0  0  0  0  0
   21.0611   -9.3563  -17.2821 C   0  0  1  0  0  0  0  0  0  0  0  0
   21.9592   -8.5342  -16.4129 C   0  0  0  0  0  0  0  0  0  0  0  0
   21.9703   -9.0694  -15.0352 C   0  0  0  0  0  0  0  0  0  0  0  0
   22.9490   -9.8355  -14.4234 C   0  0  0  0  0  0  0  0  0  0  0  0
   22.5750  -10.1148  -13.1714 N   0  0  0  0  0  0  0  0  0  0  0  0
   21.3778   -9.5332  -12.9966 C   0  0  0  0  0  0  0  0  0  0  0  0
   21.0172   -8.9063  -14.1174 N   0  0  0  0  0  0  0  0  0  0  0  0
   20.9172   -8.7781  -18.6420 C   0  0  0  0  0  0  0  0  0  0  0  0
   19.9324   -8.0167  -18.8513 O   0  0  0  0  0  0  0  0  0  0  0  0
   21.8449   -9.0832  -19.6184 O   0  0  0  0  0  0  0  0  0  0  0  0
  2  1  1  0
  3  2  1  0
  4  3  1  0
  4  5  1  0
  5  7  1  0
  5  6  1  1
  7  8  2  0
  9 10  1  0
  9  7  1  0
 10 11  1  6
 12 11  1  0
 13 12  2  0
 14 17  1  0
 14 10  1  0
 15 14  2  0
 16 12  1  0
 18 17  1  0
 18 19  1  1
 20 19  1  0
 21 20  2  0
 22 21  1  0
 22 23  1  0
 23 24  2  0
 24 20  1  0
 25 18  1  0
 26 25  2  0
 27 25  1  0
M  END
$$$$
