MDH.pdb
     RDKit          3D

 27 27  0  0  1  0  0  0  0  0999 V2000
   21.1131  -23.1366    3.5034 C   0  0  0  0  0  0  0  0  0  0  0  0
   19.6465  -22.7428    4.4894 S   0  0  0  0  0  0  0  0  0  0  0  0
   18.5540  -24.1713    4.5717 C   0  0  0  0  0  0  0  0  0  0  0  0
   19.3695  -25.4681    4.5874 C   0  0  0  0  0  0  0  0  0  0  0  0
   18.3751  -26.5933    4.6031 C   0  0  2  0  0  0  0  0  0  0  0  0
   17.2643  -26.1880    5.4417 N   0  0  0  0  0  0  0  0  0  0  0  0
   18.9912  -27.8428    5.1459 C   0  0  0  0  0  0  0  0  0  0  0  0
   19.1575  -28.0040    6.3782 O   0  0  0  0  0  0  0  0  0  0  0  0
   19.3875  -28.8466    4.2658 N   0  0  0  0  0  0  0  0  0  0  0  0
   19.9675  -30.1087    4.8621 C   0  0  1  0  0  0  0  0  0  0  0  0
   19.5957  -31.1307    3.8348 C   0  0  0  0  0  0  0  0  0  0  0  0
   18.2326  -31.6059    3.7610 C   0  0  0  0  0  0  0  0  0  0  0  0
   17.5073  -32.1203    4.6201 O   0  0  0  0  0  0  0  0  0  0  0  0
   21.4069  -29.8088    4.9081 C   0  0  0  0  0  0  0  0  0  0  0  0
   21.8389  -28.7358    4.4296 O   0  0  0  0  0  0  0  0  0  0  0  0
   17.6217  -31.4537    2.4770 O   0  0  0  0  0  0  0  0  0  0  0  0
   22.3387  -30.6874    5.4811 N   0  0  0  0  0  0  0  0  0  0  0  0
   23.7599  -30.3242    5.5375 C   0  0  1  0  0  0  0  0  0  0  0  0
   23.9921  -28.9963    6.1862 C   0  0  0  0  0  0  0  0  0  0  0  0
   25.4407  -28.7486    6.3435 C   0  0  0  0  0  0  0  0  0  0  0  0
   26.3412  -28.3066    5.3880 C   0  0  0  0  0  0  0  0  0  0  0  0
   27.5569  -28.2132    5.9345 N   0  0  0  0  0  0  0  0  0  0  0  0
   27.4247  -28.5908    7.2160 C   0  0  0  0  0  0  0  0  0  0  0  0
   26.1529  -28.9117    7.4586 N   0  0  0  0  0  0  0  0  0  0  0  0
   24.4571  -31.4241    6.2507 C   0  0  0  0  0  0  0  0  0  0  0  0
   25.5492  -31.8329    5.7677 O   0  0  0  0  0  0  0  0  0  0  0  0
   23.9027  -31.9570    7.3977 O   0  0  0  0  0  0  0  0  0  0  0  0
  2  1  1  0
  3  2  1  0
  4  3  1  0
  4  5  1  0
  5  7  1  0
  5  6  1  1
  7  8  2  0
  9 10  1  0
  9  7  1  0
 10 11  1  6
 12 11  1  0
 13 12  2  0
 14 17  1  0
 14 10  1  0
 15 14  2  0
 16 12  1  0
 18 17  1  0
 18 19  1  1
 20 19  1  0
 21 20  2  0
 22 21  1  0
 22 23  1  0
 23 24  2  0
 24 20  1  0
 25 18  1  0
 26 25  2  0
 27 25  1  0
M  END
$$$$
