MDH.pdb
     RDKit          3D

 27 27  0  0  1  0  0  0  0  0999 V2000
   27.2636  -16.3170  -14.5636 C   0  0  0  0  0  0  0  0  0  0  0  0
   25.9361  -15.2247  -15.1315 S   0  0  0  0  0  0  0  0  0  0  0  0
   26.5811  -14.0285  -16.3122 C   0  0  0  0  0  0  0  0  0  0  0  0
   25.5214  -12.9702  -16.6343 C   0  0  0  0  0  0  0  0  0  0  0  0
   24.3420  -13.7098  -17.1973 C   0  0  2  0  0  0  0  0  0  0  0  0
   24.7794  -14.3832  -18.4042 N   0  0  0  0  0  0  0  0  0  0  0  0
   23.2249  -12.7689  -17.5177 C   0  0  0  0  0  0  0  0  0  0  0  0
   23.2127  -12.1133  -18.5865 O   0  0  0  0  0  0  0  0  0  0  0  0
   22.1783  -12.6181  -16.6115 N   0  0  0  0  0  0  0  0  0  0  0  0
   21.0436  -11.6993  -17.0026 C   0  0  1  0  0  0  0  0  0  0  0  0
   19.8495  -12.4795  -16.5513 C   0  0  0  0  0  0  0  0  0  0  0  0
   19.4200  -13.6312  -17.3118 C   0  0  0  0  0  0  0  0  0  0  0  0
   19.3377  -13.8102  -18.5325 O   0  0  0  0  0  0  0  0  0  0  0  0
   21.3099  -10.4997  -16.1939 C   0  0  0  0  0  0  0  0  0  0  0  0
   21.6644  -10.6157  -14.9990 O   0  0  0  0  0  0  0  0  0  0  0  0
   19.0246  -14.7517  -16.5160 O   0  0  0  0  0  0  0  0  0  0  0  0
   21.1871   -9.2021  -16.7130 N   0  0  0  0  0  0  0  0  0  0  0  0
   21.3774   -8.0360  -15.8418 C   0  0  1  0  0  0  0  0  0  0  0  0
   21.8167   -6.8189  -16.5925 C   0  0  0  0  0  0  0  0  0  0  0  0
   21.8455   -5.6451  -15.6947 C   0  0  0  0  0  0  0  0  0  0  0  0
   21.8913   -5.6285  -14.3102 C   0  0  0  0  0  0  0  0  0  0  0  0
   21.9034   -4.3628  -13.8823 N   0  0  0  0  0  0  0  0  0  0  0  0
   21.8658   -3.5926  -14.9813 C   0  0  0  0  0  0  0  0  0  0  0  0
   21.8311   -4.3654  -16.0679 N   0  0  0  0  0  0  0  0  0  0  0  0
   20.0941   -7.8188  -15.1271 C   0  0  0  0  0  0  0  0  0  0  0  0
   19.0273   -8.0628  -15.7561 O   0  0  0  0  0  0  0  0  0  0  0  0
   20.1041   -7.3658  -13.8227 O   0  0  0  0  0  0  0  0  0  0  0  0
  2  1  1  0
  3  2  1  0
  4  3  1  0
  4  5  1  0
  5  7  1  0
  5  6  1  6
  7  8  2  0
  9 10  1  0
  9  7  1  0
 10 11  1  1
 12 11  1  0
 13 12  2  0
 14 17  1  0
 14 10  1  0
 15 14  2  0
 16 12  1  0
 18 17  1  0
 18 19  1  6
 20 19  1  0
 21 20  2  0
 22 21  1  0
 22 23  1  0
 23 24  2  0
 24 20  1  0
 25 18  1  0
 26 25  2  0
 27 25  1  0
M  END
$$$$
