KNH.pdb
     RDKit          3D

 28 28  0  0  1  0  0  0  0  0999 V2000
   10.5028  -15.7772   14.0491 N   0  0  0  0  0  0  0  0  0  0  0  0
    9.2855  -15.8040   14.8711 C   0  0  1  0  0  0  0  0  0  0  0  0
    8.7045  -17.1897   14.7767 C   0  0  0  0  0  0  0  0  0  0  0  0
    9.6455  -18.2760   15.1756 C   0  0  0  0  0  0  0  0  0  0  0  0
    8.9944  -19.6363   15.0683 C   0  0  0  0  0  0  0  0  0  0  0  0
    9.9594  -20.7311   15.4346 C   0  0  0  0  0  0  0  0  0  0  0  0
    9.2276  -21.9974   15.2722 N   0  0  0  0  0  0  0  0  0  0  0  0
    9.5708  -15.3779   16.2527 C   0  0  0  0  0  0  0  0  0  0  0  0
   10.7351  -15.4863   16.6986 O   0  0  0  0  0  0  0  0  0  0  0  0
    8.3106  -12.0282   20.6416 N   0  0  0  0  0  0  0  0  0  0  0  0
    7.6869  -13.2656   20.2950 C   0  0  0  0  0  0  0  0  0  0  0  0
    7.2833  -13.9905   21.2429 O   0  0  0  0  0  0  0  0  0  0  0  0
    7.4985  -13.7221   18.9096 C   0  0  0  0  0  0  0  0  0  0  0  0
    8.7485  -14.4165   18.4182 C   0  0  2  0  0  0  0  0  0  0  0  0
    8.5320  -14.8528   17.0601 N   0  0  0  0  0  0  0  0  0  0  0  0
    8.9910  -15.6006   19.2923 C   0  0  0  0  0  0  0  0  0  0  0  0
    8.6125  -16.7339   18.8922 O   0  0  0  0  0  0  0  0  0  0  0  0
    9.6363  -15.4220   20.5413 N   0  0  0  0  0  0  0  0  0  0  0  0
   10.6732  -16.3424   21.0023 C   0  0  1  0  0  0  0  0  0  0  0  0
   11.7219  -16.5420   19.9697 C   0  0  0  0  0  0  0  0  0  0  0  0
   11.6623  -17.9073   19.4164 C   0  0  0  0  0  0  0  0  0  0  0  0
   10.6211  -18.8134   19.6363 C   0  0  0  0  0  0  0  0  0  0  0  0
   10.9294  -19.9277   18.9754 N   0  0  0  0  0  0  0  0  0  0  0  0
   12.1006  -19.7763   18.3542 C   0  0  0  0  0  0  0  0  0  0  0  0
   12.5483  -18.5446   18.6226 N   0  0  0  0  0  0  0  0  0  0  0  0
   11.1653  -15.9586   22.3359 C   0  0  0  0  0  0  0  0  0  0  0  0
   10.6151  -14.9191   23.0696 O   0  0  0  0  0  0  0  0  0  0  0  0
   12.1221  -16.5643   22.8775 O   0  0  0  0  0  0  0  0  0  0  0  0
  2  1  1  6
  3  2  1  0
  3  4  1  0
  4  5  1  0
  5  6  1  0
  7  6  1  0
  8  9  2  0
  8  2  1  0
 10 11  1  0
 11 12  2  0
 11 13  1  0
 14 13  1  1
 14 15  1  0
 15  8  1  0
 16 17  2  0
 16 14  1  0
 18 16  1  0
 19 20  1  6
 19 18  1  0
 20 21  1  0
 21 25  1  0
 21 22  2  0
 22 23  1  0
 24 23  1  0
 25 24  2  0
 26 19  1  0
 27 26  1  0
 28 26  2  0
M  END
$$$$
