KNH.pdb
     RDKit          3D

 28 28  0  0  1  0  0  0  0  0999 V2000
    8.0642  -19.2289   18.9784 N   0  0  0  0  0  0  0  0  0  0  0  0
    9.2026  -18.4198   18.5230 C   0  0  1  0  0  0  0  0  0  0  0  0
    8.7797  -17.7083   17.2654 C   0  0  0  0  0  0  0  0  0  0  0  0
    9.0616  -18.4641   16.0108 C   0  0  0  0  0  0  0  0  0  0  0  0
    8.7375  -17.6394   14.7858 C   0  0  0  0  0  0  0  0  0  0  0  0
    8.9517  -18.4319   13.5248 C   0  0  0  0  0  0  0  0  0  0  0  0
    8.3594  -17.6406   12.4346 N   0  0  0  0  0  0  0  0  0  0  0  0
    9.6648  -17.5108   19.5869 C   0  0  0  0  0  0  0  0  0  0  0  0
    9.6525  -16.2758   19.3848 O   0  0  0  0  0  0  0  0  0  0  0  0
   10.1305  -15.0276   24.2105 N   0  0  0  0  0  0  0  0  0  0  0  0
   10.1036  -16.4551   24.1657 C   0  0  0  0  0  0  0  0  0  0  0  0
   10.5444  -17.0696   25.1731 O   0  0  0  0  0  0  0  0  0  0  0  0
    9.5948  -17.2240   23.0198 C   0  0  0  0  0  0  0  0  0  0  0  0
   10.6022  -17.2021   21.8924 C   0  0  2  0  0  0  0  0  0  0  0  0
   10.1166  -18.0381   20.8216 N   0  0  0  0  0  0  0  0  0  0  0  0
   11.8876  -17.7509   22.4133 C   0  0  0  0  0  0  0  0  0  0  0  0
   11.9615  -18.9843   22.6600 O   0  0  0  0  0  0  0  0  0  0  0  0
   12.9851  -16.8774   22.6158 N   0  0  0  0  0  0  0  0  0  0  0  0
   14.2357  -17.3485   23.2062 C   0  0  1  0  0  0  0  0  0  0  0  0
   15.3986  -16.5671   22.7132 C   0  0  0  0  0  0  0  0  0  0  0  0
   15.7514  -16.9605   21.3369 C   0  0  0  0  0  0  0  0  0  0  0  0
   15.2004  -18.0460   20.6504 C   0  0  0  0  0  0  0  0  0  0  0  0
   15.7682  -18.0732   19.4461 N   0  0  0  0  0  0  0  0  0  0  0  0
   16.6421  -17.0710   19.3348 C   0  0  0  0  0  0  0  0  0  0  0  0
   16.6326  -16.3920   20.4873 N   0  0  0  0  0  0  0  0  0  0  0  0
   14.1216  -17.4550   24.6703 C   0  0  0  0  0  0  0  0  0  0  0  0
   14.8494  -18.3688   25.4165 O   0  0  0  0  0  0  0  0  0  0  0  0
   13.3464  -16.7116   25.3200 O   0  0  0  0  0  0  0  0  0  0  0  0
  2  1  1  1
  3  2  1  0
  3  4  1  0
  4  5  1  0
  5  6  1  0
  7  6  1  0
  8  9  2  0
  8  2  1  0
 10 11  1  0
 11 12  2  0
 11 13  1  0
 14 13  1  1
 14 15  1  0
 15  8  1  0
 16 17  2  0
 16 14  1  0
 18 16  1  0
 19 20  1  1
 19 18  1  0
 20 21  1  0
 21 25  1  0
 21 22  2  0
 22 23  1  0
 24 23  1  0
 25 24  2  0
 26 19  1  0
 27 26  1  0
 28 26  2  0
M  END
$$$$
