KNH.pdb
     RDKit          3D

 28 28  0  0  1  0  0  0  0  0999 V2000
    9.9399  -18.2854   15.8355 N   0  0  0  0  0  0  0  0  0  0  0  0
    8.7002  -17.9122   16.5298 C   0  0  1  0  0  0  0  0  0  0  0  0
    7.5870  -18.7432   15.9493 C   0  0  0  0  0  0  0  0  0  0  0  0
    7.8114  -19.1648   14.5363 C   0  0  0  0  0  0  0  0  0  0  0  0
    6.5052  -19.4642   13.8363 C   0  0  0  0  0  0  0  0  0  0  0  0
    6.3713  -20.9335   13.5409 C   0  0  0  0  0  0  0  0  0  0  0  0
    5.1298  -21.0869   12.7659 N   0  0  0  0  0  0  0  0  0  0  0  0
    8.8461  -18.0599   17.9888 C   0  0  0  0  0  0  0  0  0  0  0  0
    7.8737  -17.7957   18.7310 O   0  0  0  0  0  0  0  0  0  0  0  0
   11.8334  -21.8405   18.7952 N   0  0  0  0  0  0  0  0  0  0  0  0
   11.0618  -21.0556   19.7056 C   0  0  0  0  0  0  0  0  0  0  0  0
   10.0125  -21.5777   20.1674 O   0  0  0  0  0  0  0  0  0  0  0  0
   11.4296  -19.6930   20.1197 C   0  0  0  0  0  0  0  0  0  0  0  0
   10.2514  -18.7620   19.9438 C   0  0  2  0  0  0  0  0  0  0  0  0
   10.0775  -18.4964   18.5364 N   0  0  0  0  0  0  0  0  0  0  0  0
   10.5591  -17.4900   20.6595 C   0  0  0  0  0  0  0  0  0  0  0  0
   11.5195  -16.7842   20.2505 O   0  0  0  0  0  0  0  0  0  0  0  0
    9.7692  -17.1104   21.7732 N   0  0  0  0  0  0  0  0  0  0  0  0
   10.0810  -15.9183   22.5583 C   0  0  1  0  0  0  0  0  0  0  0  0
    8.9066  -15.0155   22.6665 C   0  0  0  0  0  0  0  0  0  0  0  0
    8.6258  -14.3606   21.3758 C   0  0  0  0  0  0  0  0  0  0  0  0
    9.3749  -14.5397   20.2096 C   0  0  0  0  0  0  0  0  0  0  0  0
    8.8122  -13.7865   19.2666 N   0  0  0  0  0  0  0  0  0  0  0  0
    7.7556  -13.1453   19.7697 C   0  0  0  0  0  0  0  0  0  0  0  0
    7.6413  -13.4948   21.0558 N   0  0  0  0  0  0  0  0  0  0  0  0
   10.7200  -16.2787   23.8349 C   0  0  0  0  0  0  0  0  0  0  0  0
   11.4568  -15.3774   24.5875 O   0  0  0  0  0  0  0  0  0  0  0  0
   10.6262  -17.4380   24.3071 O   0  0  0  0  0  0  0  0  0  0  0  0
  2  1  1  6
  3  2  1  0
  3  4  1  0
  4  5  1  0
  5  6  1  0
  7  6  1  0
  8  9  2  0
  8  2  1  0
 10 11  1  0
 11 12  2  0
 11 13  1  0
 14 13  1  6
 14 15  1  0
 15  8  1  0
 16 17  2  0
 16 14  1  0
 18 16  1  0
 19 20  1  1
 19 18  1  0
 20 21  1  0
 21 25  1  0
 21 22  2  0
 22 23  1  0
 24 23  1  0
 25 24  2  0
 26 19  1  0
 27 26  1  0
 28 26  2  0
M  END
$$$$
