KNH.pdb
     RDKit          3D

 28 28  0  0  1  0  0  0  0  0999 V2000
   10.5439  -14.6842   15.7155 N   0  0  0  0  0  0  0  0  0  0  0  0
   10.7652  -16.1052   16.0153 C   0  0  1  0  0  0  0  0  0  0  0  0
   11.2878  -16.7573   14.7630 C   0  0  0  0  0  0  0  0  0  0  0  0
   10.6588  -16.2589   13.5057 C   0  0  0  0  0  0  0  0  0  0  0  0
    9.2643  -16.8155   13.3288 C   0  0  0  0  0  0  0  0  0  0  0  0
    8.7083  -16.4684   11.9744 C   0  0  0  0  0  0  0  0  0  0  0  0
    7.3098  -16.9260   11.9729 N   0  0  0  0  0  0  0  0  0  0  0  0
   11.6544  -16.2680   17.1792 C   0  0  0  0  0  0  0  0  0  0  0  0
   11.9746  -17.4202   17.5483 O   0  0  0  0  0  0  0  0  0  0  0  0
   15.6720  -13.8180   16.8839 N   0  0  0  0  0  0  0  0  0  0  0  0
   15.0844  -14.6729   17.8658 C   0  0  0  0  0  0  0  0  0  0  0  0
   15.4281  -15.8847   17.8516 O   0  0  0  0  0  0  0  0  0  0  0  0
   14.1159  -14.2116   18.8720 C   0  0  0  0  0  0  0  0  0  0  0  0
   13.0000  -15.2213   19.0186 C   0  0  2  0  0  0  0  0  0  0  0  0
   12.1364  -15.1271   17.8667 N   0  0  0  0  0  0  0  0  0  0  0  0
   12.2310  -14.8817   20.2506 C   0  0  0  0  0  0  0  0  0  0  0  0
   12.5068  -13.8133   20.8591 O   0  0  0  0  0  0  0  0  0  0  0  0
   11.2170  -15.7628   20.7022 N   0  0  0  0  0  0  0  0  0  0  0  0
   10.4009  -15.4501   21.8731 C   0  0  1  0  0  0  0  0  0  0  0  0
    8.9521  -15.4676   21.5470 C   0  0  0  0  0  0  0  0  0  0  0  0
    8.6660  -14.6189   20.3759 C   0  0  0  0  0  0  0  0  0  0  0  0
    8.5019  -13.2315   20.4160 C   0  0  0  0  0  0  0  0  0  0  0  0
    8.2593  -12.8325   19.1689 N   0  0  0  0  0  0  0  0  0  0  0  0
    8.2611  -13.8848   18.3484 C   0  0  0  0  0  0  0  0  0  0  0  0
    8.5089  -14.9745   19.0836 N   0  0  0  0  0  0  0  0  0  0  0  0
   10.7980  -16.2718   23.0285 C   0  0  0  0  0  0  0  0  0  0  0  0
   10.2430  -16.1145   24.2890 O   0  0  0  0  0  0  0  0  0  0  0  0
   11.6726  -17.1661   22.9233 O   0  0  0  0  0  0  0  0  0  0  0  0
  2  1  1  6
  3  2  1  0
  3  4  1  0
  4  5  1  0
  5  6  1  0
  7  6  1  0
  8  9  2  0
  8  2  1  0
 10 11  1  0
 11 12  2  0
 11 13  1  0
 14 13  1  6
 14 15  1  0
 15  8  1  0
 16 17  2  0
 16 14  1  0
 18 16  1  0
 19 20  1  6
 19 18  1  0
 20 21  1  0
 21 25  1  0
 21 22  2  0
 22 23  1  0
 24 23  1  0
 25 24  2  0
 26 19  1  0
 27 26  1  0
 28 26  2  0
M  END
$$$$
