KNH.pdb
     RDKit          3D

 28 28  0  0  1  0  0  0  0  0999 V2000
    8.7729  -15.6167   19.8495 N   0  0  0  0  0  0  0  0  0  0  0  0
    8.8993  -14.2131   20.2642 C   0  0  1  0  0  0  0  0  0  0  0  0
    8.0340  -13.3894   19.3479 C   0  0  0  0  0  0  0  0  0  0  0  0
    8.4500  -13.4274   17.9161 C   0  0  0  0  0  0  0  0  0  0  0  0
    7.8778  -14.6344   17.2077 C   0  0  0  0  0  0  0  0  0  0  0  0
    8.2244  -14.6202   15.7436 C   0  0  0  0  0  0  0  0  0  0  0  0
    7.5798  -15.8052   15.1557 N   0  0  0  0  0  0  0  0  0  0  0  0
    8.5675  -14.0510   21.6909 C   0  0  0  0  0  0  0  0  0  0  0  0
    8.6563  -12.9181   22.2150 O   0  0  0  0  0  0  0  0  0  0  0  0
    7.0012  -15.1643   26.5193 N   0  0  0  0  0  0  0  0  0  0  0  0
    6.4477  -16.1079   25.6009 C   0  0  0  0  0  0  0  0  0  0  0  0
    5.6032  -16.9245   26.0558 O   0  0  0  0  0  0  0  0  0  0  0  0
    6.8118  -16.1679   24.1771 C   0  0  0  0  0  0  0  0  0  0  0  0
    7.8032  -15.0744   23.8491 C   0  0  2  0  0  0  0  0  0  0  0  0
    8.1537  -15.1712   22.4529 N   0  0  0  0  0  0  0  0  0  0  0  0
    9.0185  -15.2888   24.6870 C   0  0  0  0  0  0  0  0  0  0  0  0
    8.9409  -15.0811   25.9274 O   0  0  0  0  0  0  0  0  0  0  0  0
   10.2206  -15.7175   24.0711 N   0  0  0  0  0  0  0  0  0  0  0  0
   10.9682  -16.8669   24.5759 C   0  0  1  0  0  0  0  0  0  0  0  0
   10.1101  -18.0754   24.6704 C   0  0  0  0  0  0  0  0  0  0  0  0
    9.8238  -18.4086   26.0777 C   0  0  0  0  0  0  0  0  0  0  0  0
   10.2512  -17.6609   27.1784 C   0  0  0  0  0  0  0  0  0  0  0  0
    9.7974  -18.2781   28.2676 N   0  0  0  0  0  0  0  0  0  0  0  0
    9.1112  -19.3678   27.9178 C   0  0  0  0  0  0  0  0  0  0  0  0
    9.1268  -19.4481   26.5826 N   0  0  0  0  0  0  0  0  0  0  0  0
   12.2285  -17.0439   23.8354 C   0  0  0  0  0  0  0  0  0  0  0  0
   13.4523  -16.6084   24.3196 O   0  0  0  0  0  0  0  0  0  0  0  0
   12.2525  -17.6053   22.7130 O   0  0  0  0  0  0  0  0  0  0  0  0
  2  1  1  6
  3  2  1  0
  3  4  1  0
  4  5  1  0
  5  6  1  0
  7  6  1  0
  8  9  2  0
  8  2  1  0
 10 11  1  0
 11 12  2  0
 11 13  1  0
 14 13  1  1
 14 15  1  0
 15  8  1  0
 16 17  2  0
 16 14  1  0
 18 16  1  0
 19 20  1  6
 19 18  1  0
 20 21  1  0
 21 25  1  0
 21 22  2  0
 22 23  1  0
 24 23  1  0
 25 24  2  0
 26 19  1  0
 27 26  1  0
 28 26  2  0
M  END
$$$$
