KNH.pdb
     RDKit          3D

 28 28  0  0  1  0  0  0  0  0999 V2000
   10.7574  -16.1796   16.4451 N   0  0  0  0  0  0  0  0  0  0  0  0
   11.4251  -15.1706   17.2783 C   0  0  1  0  0  0  0  0  0  0  0  0
   10.3580  -14.4404   18.0496 C   0  0  0  0  0  0  0  0  0  0  0  0
    8.9774  -14.6387   17.5210 C   0  0  0  0  0  0  0  0  0  0  0  0
    7.9772  -13.7731   18.2533 C   0  0  0  0  0  0  0  0  0  0  0  0
    6.5806  -14.0078   17.7453 C   0  0  0  0  0  0  0  0  0  0  0  0
    5.6940  -13.1802   18.5785 N   0  0  0  0  0  0  0  0  0  0  0  0
   12.4528  -15.7882   18.1352 C   0  0  0  0  0  0  0  0  0  0  0  0
   12.7117  -17.0051   18.0002 O   0  0  0  0  0  0  0  0  0  0  0  0
   16.2772  -13.2978   17.9892 N   0  0  0  0  0  0  0  0  0  0  0  0
   16.0232  -14.5012   18.7157 C   0  0  0  0  0  0  0  0  0  0  0  0
   16.4406  -15.5765   18.2094 O   0  0  0  0  0  0  0  0  0  0  0  0
   15.3109  -14.5405   20.0019 C   0  0  0  0  0  0  0  0  0  0  0  0
   14.1793  -15.5412   19.9374 C   0  0  2  0  0  0  0  0  0  0  0  0
   13.1348  -15.0051   19.0987 N   0  0  0  0  0  0  0  0  0  0  0  0
   13.6593  -15.7377   21.3215 C   0  0  0  0  0  0  0  0  0  0  0  0
   14.3308  -15.2879   22.2882 O   0  0  0  0  0  0  0  0  0  0  0  0
   12.4321  -16.4201   21.5126 N   0  0  0  0  0  0  0  0  0  0  0  0
   11.8946  -16.6627   22.8494 C   0  0  1  0  0  0  0  0  0  0  0  0
   10.4269  -16.8874   22.8134 C   0  0  0  0  0  0  0  0  0  0  0  0
    9.7421  -15.7805   22.1209 C   0  0  0  0  0  0  0  0  0  0  0  0
   10.3655  -14.6149   21.6671 C   0  0  0  0  0  0  0  0  0  0  0  0
    9.4224  -13.8652   21.0997 N   0  0  0  0  0  0  0  0  0  0  0  0
    8.2449  -14.4891   21.1698 C   0  0  0  0  0  0  0  0  0  0  0  0
    8.4390  -15.6571   21.7923 N   0  0  0  0  0  0  0  0  0  0  0  0
   12.6742  -17.6947   23.5530 C   0  0  0  0  0  0  0  0  0  0  0  0
   12.4578  -18.0246   24.8819 O   0  0  0  0  0  0  0  0  0  0  0  0
   13.5861  -18.3326   22.9723 O   0  0  0  0  0  0  0  0  0  0  0  0
  2  1  1  1
  3  2  1  0
  3  4  1  0
  4  5  1  0
  5  6  1  0
  7  6  1  0
  8  9  2  0
  8  2  1  0
 10 11  1  0
 11 12  2  0
 11 13  1  0
 14 13  1  1
 14 15  1  0
 15  8  1  0
 16 17  2  0
 16 14  1  0
 18 16  1  0
 19 20  1  6
 19 18  1  0
 20 21  1  0
 21 25  1  0
 21 22  2  0
 22 23  1  0
 24 23  1  0
 25 24  2  0
 26 19  1  0
 27 26  1  0
 28 26  2  0
M  END
$$$$
