KNH.pdb
     RDKit          3D

 28 28  0  0  1  0  0  0  0  0999 V2000
    8.1289  -12.4997   18.5061 N   0  0  0  0  0  0  0  0  0  0  0  0
    8.4375  -13.9275   18.6616 C   0  0  1  0  0  0  0  0  0  0  0  0
    8.9808  -14.4204   17.3468 C   0  0  0  0  0  0  0  0  0  0  0  0
    8.0060  -14.3562   16.2197 C   0  0  0  0  0  0  0  0  0  0  0  0
    8.6275  -14.8305   14.9256 C   0  0  0  0  0  0  0  0  0  0  0  0
    7.6225  -14.8252   13.8059 C   0  0  0  0  0  0  0  0  0  0  0  0
    8.3566  -15.2124   12.5908 N   0  0  0  0  0  0  0  0  0  0  0  0
    9.3504  -14.1508   19.7968 C   0  0  0  0  0  0  0  0  0  0  0  0
   10.2763  -13.3356   20.0071 O   0  0  0  0  0  0  0  0  0  0  0  0
   10.1906  -16.1106   25.0041 N   0  0  0  0  0  0  0  0  0  0  0  0
   10.2233  -16.8816   23.8021 C   0  0  0  0  0  0  0  0  0  0  0  0
   11.0255  -17.8520   23.7640 O   0  0  0  0  0  0  0  0  0  0  0  0
    9.3797  -16.5992   22.6307 C   0  0  0  0  0  0  0  0  0  0  0  0
   10.0385  -15.5557   21.7570 C   0  0  2  0  0  0  0  0  0  0  0  0
    9.1743  -15.2789   20.6353 N   0  0  0  0  0  0  0  0  0  0  0  0
   11.3315  -16.1153   21.2673 C   0  0  0  0  0  0  0  0  0  0  0  0
   11.4107  -16.4915   20.0673 O   0  0  0  0  0  0  0  0  0  0  0  0
   12.4301  -16.2088   22.1577 N   0  0  0  0  0  0  0  0  0  0  0  0
   13.7675  -15.7688   21.7673 C   0  0  1  0  0  0  0  0  0  0  0  0
   13.7261  -14.4642   21.0588 C   0  0  0  0  0  0  0  0  0  0  0  0
   14.1240  -14.6190   19.6476 C   0  0  0  0  0  0  0  0  0  0  0  0
   14.3818  -15.8408   19.0199 C   0  0  0  0  0  0  0  0  0  0  0  0
   14.7087  -15.5683   17.7581 N   0  0  0  0  0  0  0  0  0  0  0  0
   14.6719  -14.2499   17.5554 C   0  0  0  0  0  0  0  0  0  0  0  0
   14.3155  -13.6702   18.7071 N   0  0  0  0  0  0  0  0  0  0  0  0
   14.7001  -15.8404   22.9045 C   0  0  0  0  0  0  0  0  0  0  0  0
   14.2974  -16.1804   24.1866 O   0  0  0  0  0  0  0  0  0  0  0  0
   15.9222  -15.5913   22.7627 O   0  0  0  0  0  0  0  0  0  0  0  0
  2  1  1  6
  3  2  1  0
  3  4  1  0
  4  5  1  0
  5  6  1  0
  7  6  1  0
  8  9  2  0
  8  2  1  0
 10 11  1  0
 11 12  2  0
 11 13  1  0
 14 13  1  1
 14 15  1  0
 15  8  1  0
 16 17  2  0
 16 14  1  0
 18 16  1  0
 19 20  1  1
 19 18  1  0
 20 21  1  0
 21 25  1  0
 21 22  2  0
 22 23  1  0
 24 23  1  0
 25 24  2  0
 26 19  1  0
 27 26  1  0
 28 26  2  0
M  END
$$$$
