KNH.pdb
     RDKit          3D

 28 28  0  0  1  0  0  0  0  0999 V2000
   10.0477  -16.9680   17.4690 N   0  0  0  0  0  0  0  0  0  0  0  0
    9.5307  -18.1244   18.2130 C   0  0  1  0  0  0  0  0  0  0  0  0
    9.4842  -19.2914   17.2629 C   0  0  0  0  0  0  0  0  0  0  0  0
    8.9726  -18.9532   15.9033 C   0  0  0  0  0  0  0  0  0  0  0  0
    8.9593  -20.1668   15.0017 C   0  0  0  0  0  0  0  0  0  0  0  0
    8.4721  -19.8139   13.6225 C   0  0  0  0  0  0  0  0  0  0  0  0
    8.5915  -21.0395   12.8168 N   0  0  0  0  0  0  0  0  0  0  0  0
   10.3361  -18.3797   19.4204 C   0  0  0  0  0  0  0  0  0  0  0  0
   10.1432  -19.4292   20.0742 O   0  0  0  0  0  0  0  0  0  0  0  0
   15.0484  -17.9347   18.8593 N   0  0  0  0  0  0  0  0  0  0  0  0
   14.1995  -18.2195   19.9721 C   0  0  0  0  0  0  0  0  0  0  0  0
   14.0424  -19.4311   20.2792 O   0  0  0  0  0  0  0  0  0  0  0  0
   13.5145  -17.1832   20.7595 C   0  0  0  0  0  0  0  0  0  0  0  0
   12.0882  -17.6012   21.0372 C   0  0  2  0  0  0  0  0  0  0  0  0
   11.3156  -17.4416   19.8291 N   0  0  0  0  0  0  0  0  0  0  0  0
   11.5455  -16.7075   22.1009 C   0  0  0  0  0  0  0  0  0  0  0  0
   12.1008  -16.7090   23.2320 O   0  0  0  0  0  0  0  0  0  0  0  0
   10.4273  -15.8853   21.8144 N   0  0  0  0  0  0  0  0  0  0  0  0
    9.5867  -15.3431   22.8793 C   0  0  1  0  0  0  0  0  0  0  0  0
    8.2025  -15.0896   22.4043 C   0  0  0  0  0  0  0  0  0  0  0  0
    8.2101  -14.3087   21.1538 C   0  0  0  0  0  0  0  0  0  0  0  0
    9.3609  -13.8703   20.4929 C   0  0  0  0  0  0  0  0  0  0  0  0
    8.9588  -13.2046   19.4120 N   0  0  0  0  0  0  0  0  0  0  0  0
    7.6257  -13.1983   19.3540 C   0  0  0  0  0  0  0  0  0  0  0  0
    7.1683  -13.8713   20.4157 N   0  0  0  0  0  0  0  0  0  0  0  0
    9.6955  -16.1544   24.1031 C   0  0  0  0  0  0  0  0  0  0  0  0
    9.4997  -17.5267   24.1151 O   0  0  0  0  0  0  0  0  0  0  0  0
    9.9740  -15.6317   25.2099 O   0  0  0  0  0  0  0  0  0  0  0  0
  2  1  1  6
  3  2  1  0
  3  4  1  0
  4  5  1  0
  5  6  1  0
  7  6  1  0
  8  9  2  0
  8  2  1  0
 10 11  1  0
 11 12  2  0
 11 13  1  0
 14 13  1  6
 14 15  1  0
 15  8  1  0
 16 17  2  0
 16 14  1  0
 18 16  1  0
 19 20  1  6
 19 18  1  0
 20 21  1  0
 21 25  1  0
 21 22  2  0
 22 23  1  0
 24 23  1  0
 25 24  2  0
 26 19  1  0
 27 26  1  0
 28 26  2  0
M  END
$$$$
