KNH.pdb
     RDKit          3D

 28 28  0  0  1  0  0  0  0  0999 V2000
    8.6839  -16.9047   18.6154 N   0  0  0  0  0  0  0  0  0  0  0  0
    9.4777  -16.4311   19.7573 C   0  0  1  0  0  0  0  0  0  0  0  0
    9.3101  -14.9371   19.8382 C   0  0  0  0  0  0  0  0  0  0  0  0
    8.1921  -14.4013   19.0089 C   0  0  0  0  0  0  0  0  0  0  0  0
    8.6926  -13.8741   17.6832 C   0  0  0  0  0  0  0  0  0  0  0  0
    7.5934  -13.1828   16.9232 C   0  0  0  0  0  0  0  0  0  0  0  0
    8.1268  -12.9156   15.5781 N   0  0  0  0  0  0  0  0  0  0  0  0
    9.0961  -17.1344   20.9948 C   0  0  0  0  0  0  0  0  0  0  0  0
    8.1689  -17.9743   20.9605 O   0  0  0  0  0  0  0  0  0  0  0  0
   12.5652  -19.9884   23.1359 N   0  0  0  0  0  0  0  0  0  0  0  0
   12.9056  -18.8252   22.3799 C   0  0  0  0  0  0  0  0  0  0  0  0
   14.1305  -18.6055   22.1847 O   0  0  0  0  0  0  0  0  0  0  0  0
   11.9107  -17.8917   21.8304 C   0  0  0  0  0  0  0  0  0  0  0  0
   10.7416  -17.7617   22.7804 C   0  0  2  0  0  0  0  0  0  0  0  0
    9.7767  -16.8561   22.2056 N   0  0  0  0  0  0  0  0  0  0  0  0
   11.2524  -17.2008   24.0646 C   0  0  0  0  0  0  0  0  0  0  0  0
   12.2989  -17.6933   24.5647 O   0  0  0  0  0  0  0  0  0  0  0  0
   10.5529  -16.1358   24.6850 N   0  0  0  0  0  0  0  0  0  0  0  0
    9.7411  -16.3509   25.8806 C   0  0  1  0  0  0  0  0  0  0  0  0
    8.3161  -16.5878   25.5355 C   0  0  0  0  0  0  0  0  0  0  0  0
    7.6682  -15.3405   25.0903 C   0  0  0  0  0  0  0  0  0  0  0  0
    8.0299  -14.6149   23.9520 C   0  0  0  0  0  0  0  0  0  0  0  0
    7.2188  -13.5605   23.8890 N   0  0  0  0  0  0  0  0  0  0  0  0
    6.3701  -13.5800   24.9185 C   0  0  0  0  0  0  0  0  0  0  0  0
    6.6434  -14.6651   25.6516 N   0  0  0  0  0  0  0  0  0  0  0  0
   10.3537  -17.3599   26.7607 C   0  0  0  0  0  0  0  0  0  0  0  0
    9.9946  -17.5148   28.0906 O   0  0  0  0  0  0  0  0  0  0  0  0
   11.2446  -18.1378   26.3402 O   0  0  0  0  0  0  0  0  0  0  0  0
  2  1  1  6
  3  2  1  0
  3  4  1  0
  4  5  1  0
  5  6  1  0
  7  6  1  0
  8  9  2  0
  8  2  1  0
 10 11  1  0
 11 12  2  0
 11 13  1  0
 14 13  1  6
 14 15  1  0
 15  8  1  0
 16 17  2  0
 16 14  1  0
 18 16  1  0
 19 20  1  6
 19 18  1  0
 20 21  1  0
 21 25  1  0
 21 22  2  0
 22 23  1  0
 24 23  1  0
 25 24  2  0
 26 19  1  0
 27 26  1  0
 28 26  2  0
M  END
$$$$
