KNH.pdb
     RDKit          3D

 28 28  0  0  1  0  0  0  0  0999 V2000
    8.4107  -13.1610   18.7734 N   0  0  0  0  0  0  0  0  0  0  0  0
    9.1318  -14.3094   19.3385 C   0  0  1  0  0  0  0  0  0  0  0  0
   10.5632  -13.8903   19.5438 C   0  0  0  0  0  0  0  0  0  0  0  0
   11.5321  -14.5514   18.6225 C   0  0  0  0  0  0  0  0  0  0  0  0
   12.9595  -14.2126   18.9881 C   0  0  0  0  0  0  0  0  0  0  0  0
   13.9258  -14.7661   17.9763 C   0  0  0  0  0  0  0  0  0  0  0  0
   15.2691  -14.3740   18.4312 N   0  0  0  0  0  0  0  0  0  0  0  0
    8.4774  -14.7922   20.5675 C   0  0  0  0  0  0  0  0  0  0  0  0
    8.0686  -13.9619   21.4099 O   0  0  0  0  0  0  0  0  0  0  0  0
    5.1126  -18.4728   23.1968 N   0  0  0  0  0  0  0  0  0  0  0  0
    6.4701  -18.6751   22.8011 C   0  0  0  0  0  0  0  0  0  0  0  0
    7.1756  -19.4219   23.5301 O   0  0  0  0  0  0  0  0  0  0  0  0
    7.0692  -18.0631   21.6053 C   0  0  0  0  0  0  0  0  0  0  0  0
    7.6616  -16.7163   21.9538 C   0  0  2  0  0  0  0  0  0  0  0  0
    8.3176  -16.1829   20.7847 N   0  0  0  0  0  0  0  0  0  0  0  0
    8.6626  -16.9212   23.0405 C   0  0  0  0  0  0  0  0  0  0  0  0
    9.8765  -17.0476   22.7272 O   0  0  0  0  0  0  0  0  0  0  0  0
    8.2260  -16.9681   24.3879 N   0  0  0  0  0  0  0  0  0  0  0  0
    8.9973  -16.3458   25.4615 C   0  0  1  0  0  0  0  0  0  0  0  0
    8.3368  -15.1135   25.9624 C   0  0  0  0  0  0  0  0  0  0  0  0
    9.0886  -14.5353   27.0911 C   0  0  0  0  0  0  0  0  0  0  0  0
   10.2374  -15.0958   27.6564 C   0  0  0  0  0  0  0  0  0  0  0  0
   10.6194  -14.2872   28.6430 N   0  0  0  0  0  0  0  0  0  0  0  0
    9.7805  -13.2533   28.7318 C   0  0  0  0  0  0  0  0  0  0  0  0
    8.8467  -13.4038   27.7858 N   0  0  0  0  0  0  0  0  0  0  0  0
    9.3583  -17.3325   26.4930 C   0  0  0  0  0  0  0  0  0  0  0  0
   10.4111  -17.1466   27.3754 O   0  0  0  0  0  0  0  0  0  0  0  0
    8.7193  -18.4053   26.6218 O   0  0  0  0  0  0  0  0  0  0  0  0
  2  1  1  1
  3  2  1  0
  3  4  1  0
  4  5  1  0
  5  6  1  0
  7  6  1  0
  8  9  2  0
  8  2  1  0
 10 11  1  0
 11 12  2  0
 11 13  1  0
 14 13  1  6
 14 15  1  0
 15  8  1  0
 16 17  2  0
 16 14  1  0
 18 16  1  0
 19 20  1  1
 19 18  1  0
 20 21  1  0
 21 25  1  0
 21 22  2  0
 22 23  1  0
 24 23  1  0
 25 24  2  0
 26 19  1  0
 27 26  1  0
 28 26  2  0
M  END
$$$$
