KNH.pdb
     RDKit          3D

 28 28  0  0  1  0  0  0  0  0999 V2000
    9.2247  -19.2966   19.3366 N   0  0  0  0  0  0  0  0  0  0  0  0
    8.9350  -18.2554   20.3316 C   0  0  1  0  0  0  0  0  0  0  0  0
    7.5384  -18.4913   20.8421 C   0  0  0  0  0  0  0  0  0  0  0  0
    6.5084  -18.6151   19.7704 C   0  0  0  0  0  0  0  0  0  0  0  0
    5.7985  -19.9482   19.8396 C   0  0  0  0  0  0  0  0  0  0  0  0
    4.6588  -20.0086   18.8591 C   0  0  0  0  0  0  0  0  0  0  0  0
    4.1520  -21.3895   18.9002 N   0  0  0  0  0  0  0  0  0  0  0  0
    9.9558  -18.2408   21.3945 C   0  0  0  0  0  0  0  0  0  0  0  0
   10.4121  -19.3257   21.8198 O   0  0  0  0  0  0  0  0  0  0  0  0
   13.4596  -16.8628   21.0898 N   0  0  0  0  0  0  0  0  0  0  0  0
   13.0048  -15.6560   21.7039 C   0  0  0  0  0  0  0  0  0  0  0  0
   13.3918  -14.5710   21.1941 O   0  0  0  0  0  0  0  0  0  0  0  0
   12.1229  -15.6237   22.8806 C   0  0  0  0  0  0  0  0  0  0  0  0
   11.3680  -16.9284   22.9985 C   0  0  2  0  0  0  0  0  0  0  0  0
   10.4095  -17.0073   21.9231 N   0  0  0  0  0  0  0  0  0  0  0  0
   10.6534  -16.9298   24.3078 C   0  0  0  0  0  0  0  0  0  0  0  0
   10.3184  -15.8256   24.8139 O   0  0  0  0  0  0  0  0  0  0  0  0
   10.3715  -18.1641   24.9445 N   0  0  0  0  0  0  0  0  0  0  0  0
    9.6797  -18.2183   26.2303 C   0  0  1  0  0  0  0  0  0  0  0  0
    8.5406  -19.1708   26.1957 C   0  0  0  0  0  0  0  0  0  0  0  0
    7.5307  -18.7475   25.2085 C   0  0  0  0  0  0  0  0  0  0  0  0
    7.4845  -17.4890   24.6026 C   0  0  0  0  0  0  0  0  0  0  0  0
    6.4378  -17.4920   23.7793 N   0  0  0  0  0  0  0  0  0  0  0  0
    5.8241  -18.6757   23.8315 C   0  0  0  0  0  0  0  0  0  0  0  0
    6.4898  -19.4419   24.7028 N   0  0  0  0  0  0  0  0  0  0  0  0
   10.6330  -18.4140   27.3352 C   0  0  0  0  0  0  0  0  0  0  0  0
   10.3024  -18.1873   28.6622 O   0  0  0  0  0  0  0  0  0  0  0  0
   11.8082  -18.8004   27.1223 O   0  0  0  0  0  0  0  0  0  0  0  0
  2  1  1  6
  3  2  1  0
  3  4  1  0
  4  5  1  0
  5  6  1  0
  7  6  1  0
  8  9  2  0
  8  2  1  0
 10 11  1  0
 11 12  2  0
 11 13  1  0
 14 13  1  6
 14 15  1  0
 15  8  1  0
 16 17  2  0
 16 14  1  0
 18 16  1  0
 19 20  1  6
 19 18  1  0
 20 21  1  0
 21 25  1  0
 21 22  2  0
 22 23  1  0
 24 23  1  0
 25 24  2  0
 26 19  1  0
 27 26  1  0
 28 26  2  0
M  END
$$$$
