KNH.pdb
     RDKit          3D

 28 28  0  0  1  0  0  0  0  0999 V2000
    8.0626  -15.5549   18.1436 N   0  0  0  0  0  0  0  0  0  0  0  0
    9.0502  -14.4673   18.1452 C   0  0  1  0  0  0  0  0  0  0  0  0
    8.3852  -13.2494   17.5613 C   0  0  0  0  0  0  0  0  0  0  0  0
    7.4383  -13.5444   16.4473 C   0  0  0  0  0  0  0  0  0  0  0  0
    8.0598  -13.2453   15.1018 C   0  0  0  0  0  0  0  0  0  0  0  0
    7.1558  -13.6741   13.9781 C   0  0  0  0  0  0  0  0  0  0  0  0
    7.8396  -13.2958   12.7313 N   0  0  0  0  0  0  0  0  0  0  0  0
    9.5953  -14.2497   19.4970 C   0  0  0  0  0  0  0  0  0  0  0  0
   10.4577  -13.3601   19.6732 O   0  0  0  0  0  0  0  0  0  0  0  0
    7.3016  -13.7813   22.3139 N   0  0  0  0  0  0  0  0  0  0  0  0
    7.5934  -15.0003   22.9989 C   0  0  0  0  0  0  0  0  0  0  0  0
    6.6975  -15.4634   23.7537 O   0  0  0  0  0  0  0  0  0  0  0  0
    8.8668  -15.7242   22.8656 C   0  0  0  0  0  0  0  0  0  0  0  0
    9.7662  -15.0136   21.8796 C   0  0  2  0  0  0  0  0  0  0  0  0
    9.1422  -15.0438   20.5790 N   0  0  0  0  0  0  0  0  0  0  0  0
   11.0642  -15.7468   21.8297 C   0  0  0  0  0  0  0  0  0  0  0  0
   11.0944  -16.8849   21.2898 O   0  0  0  0  0  0  0  0  0  0  0  0
   12.2221  -15.1489   22.3867 N   0  0  0  0  0  0  0  0  0  0  0  0
   13.4909  -15.8694   22.4628 C   0  0  1  0  0  0  0  0  0  0  0  0
   14.6213  -15.0330   21.9847 C   0  0  0  0  0  0  0  0  0  0  0  0
   14.5857  -14.8893   20.5178 C   0  0  0  0  0  0  0  0  0  0  0  0
   13.6963  -15.5567   19.6712 C   0  0  0  0  0  0  0  0  0  0  0  0
   13.9759  -15.1674   18.4287 N   0  0  0  0  0  0  0  0  0  0  0  0
   14.9867  -14.2964   18.4438 C   0  0  0  0  0  0  0  0  0  0  0  0
   15.3592  -14.1262   19.7172 N   0  0  0  0  0  0  0  0  0  0  0  0
   13.6737  -16.4784   23.7907 C   0  0  0  0  0  0  0  0  0  0  0  0
   12.7719  -16.3030   24.8288 O   0  0  0  0  0  0  0  0  0  0  0  0
   14.6717  -17.1951   24.0481 O   0  0  0  0  0  0  0  0  0  0  0  0
  2  1  1  1
  3  2  1  0
  3  4  1  0
  4  5  1  0
  5  6  1  0
  7  6  1  0
  8  9  2  0
  8  2  1  0
 10 11  1  0
 11 12  2  0
 11 13  1  0
 14 13  1  1
 14 15  1  0
 15  8  1  0
 16 17  2  0
 16 14  1  0
 18 16  1  0
 19 20  1  1
 19 18  1  0
 20 21  1  0
 21 25  1  0
 21 22  2  0
 22 23  1  0
 24 23  1  0
 25 24  2  0
 26 19  1  0
 27 26  1  0
 28 26  2  0
M  END
$$$$
