KNH.pdb
     RDKit          3D

 28 28  0  0  1  0  0  0  0  0999 V2000
    7.7901  -15.9765   18.3108 N   0  0  0  0  0  0  0  0  0  0  0  0
    8.9871  -15.1534   18.5295 C   0  0  1  0  0  0  0  0  0  0  0  0
    8.7233  -13.7993   17.9266 C   0  0  0  0  0  0  0  0  0  0  0  0
    7.8161  -13.8231   16.7429 C   0  0  0  0  0  0  0  0  0  0  0  0
    8.5969  -13.7775   15.4490 C   0  0  0  0  0  0  0  0  0  0  0  0
    7.6894  -13.9436   14.2604 C   0  0  0  0  0  0  0  0  0  0  0  0
    8.5653  -14.0233   13.0806 N   0  0  0  0  0  0  0  0  0  0  0  0
    9.3402  -15.1027   19.9594 C   0  0  0  0  0  0  0  0  0  0  0  0
   10.3050  -14.3954   20.3269 O   0  0  0  0  0  0  0  0  0  0  0  0
    7.1252  -13.3692   22.8352 N   0  0  0  0  0  0  0  0  0  0  0  0
    6.8886  -14.7615   22.6210 C   0  0  0  0  0  0  0  0  0  0  0  0
    5.8776  -15.0735   21.9373 O   0  0  0  0  0  0  0  0  0  0  0  0
    7.7543  -15.8255   23.1517 C   0  0  0  0  0  0  0  0  0  0  0  0
    8.9827  -15.9758   22.2831 C   0  0  2  0  0  0  0  0  0  0  0  0
    8.5901  -15.8499   20.9005 N   0  0  0  0  0  0  0  0  0  0  0  0
    9.5511  -17.3341   22.5211 C   0  0  0  0  0  0  0  0  0  0  0  0
    9.1286  -18.2958   21.8251 O   0  0  0  0  0  0  0  0  0  0  0  0
   10.5448  -17.5072   23.5166 N   0  0  0  0  0  0  0  0  0  0  0  0
   11.7674  -18.2618   23.2507 C   0  0  1  0  0  0  0  0  0  0  0  0
   12.3724  -17.8767   21.9501 C   0  0  0  0  0  0  0  0  0  0  0  0
   13.5867  -18.6681   21.6799 C   0  0  0  0  0  0  0  0  0  0  0  0
   14.3455  -19.3241   22.6532 C   0  0  0  0  0  0  0  0  0  0  0  0
   15.3532  -19.9234   22.0218 N   0  0  0  0  0  0  0  0  0  0  0  0
   15.2734  -19.6836   20.7116 C   0  0  0  0  0  0  0  0  0  0  0  0
   14.1965  -18.9182   20.5022 N   0  0  0  0  0  0  0  0  0  0  0  0
   12.6770  -18.2186   24.4076 C   0  0  0  0  0  0  0  0  0  0  0  0
   13.1109  -17.0324   24.9788 O   0  0  0  0  0  0  0  0  0  0  0  0
   13.1092  -19.2713   24.9374 O   0  0  0  0  0  0  0  0  0  0  0  0
  2  1  1  1
  3  2  1  0
  3  4  1  0
  4  5  1  0
  5  6  1  0
  7  6  1  0
  8  9  2  0
  8  2  1  0
 10 11  1  0
 11 12  2  0
 11 13  1  0
 14 13  1  1
 14 15  1  0
 15  8  1  0
 16 17  2  0
 16 14  1  0
 18 16  1  0
 19 20  1  6
 19 18  1  0
 20 21  1  0
 21 25  1  0
 21 22  2  0
 22 23  1  0
 24 23  1  0
 25 24  2  0
 26 19  1  0
 27 26  1  0
 28 26  2  0
M  END
$$$$
