DNY.pdb
     RDKit          3D

 29 29  0  0  1  0  0  0  0  0999 V2000
   11.0629  -18.6428   19.0427 N   0  0  0  0  0  0  0  0  0  0  0  0
   11.5240  -17.2949   19.2174 C   0  0  1  0  0  0  0  0  0  0  0  0
   11.8395  -16.5935   17.9398 C   0  0  0  0  0  0  0  0  0  0  0  0
   12.9351  -17.2010   17.1730 C   0  0  0  0  0  0  0  0  0  0  0  0
   12.7330  -17.9244   16.1864 O   0  0  0  0  0  0  0  0  0  0  0  0
   10.6462  -16.4627   20.0521 C   0  0  0  0  0  0  0  0  0  0  0  0
   10.9567  -15.2817   20.3031 O   0  0  0  0  0  0  0  0  0  0  0  0
   14.2627  -16.9795   17.5353 O   0  0  0  0  0  0  0  0  0  0  0  0
    6.3004  -15.1668   20.5853 N   0  0  0  0  0  0  0  0  0  0  0  0
    6.2019  -16.3957   21.2791 C   0  0  0  0  0  0  0  0  0  0  0  0
    5.0788  -16.9362   21.3942 O   0  0  0  0  0  0  0  0  0  0  0  0
    7.3991  -17.0300   21.8558 C   0  0  0  0  0  0  0  0  0  0  0  0
    8.6138  -16.2570   21.4887 C   0  0  2  0  0  0  0  0  0  0  0  0
    9.4486  -16.9923   20.5810 N   0  0  0  0  0  0  0  0  0  0  0  0
    9.4536  -15.9298   22.6795 C   0  0  0  0  0  0  0  0  0  0  0  0
   10.0048  -14.8103   22.7793 O   0  0  0  0  0  0  0  0  0  0  0  0
   10.7622  -14.3453   31.0336 O   0  0  0  0  0  0  0  0  0  0  0  0
   10.3726  -14.6585   29.7177 C   0  0  0  0  0  0  0  0  0  0  0  0
   10.4126  -13.7136   28.7194 C   0  0  0  0  0  0  0  0  0  0  0  0
   10.0321  -13.9974   27.4064 C   0  0  0  0  0  0  0  0  0  0  0  0
    9.6008  -15.2677   27.0959 C   0  0  0  0  0  0  0  0  0  0  0  0
    9.1896  -15.6126   25.7263 C   0  0  0  0  0  0  0  0  0  0  0  0
   10.1876  -16.5105   25.0199 C   0  0  2  0  0  0  0  0  0  0  0  0
    9.6610  -16.8571   23.7331 N   0  0  0  0  0  0  0  0  0  0  0  0
   10.4711  -17.6660   25.8699 C   0  0  0  0  0  0  0  0  0  0  0  0
   11.5971  -17.6511   26.6769 O   0  0  0  0  0  0  0  0  0  0  0  0
    9.5646  -16.2126   28.1106 C   0  0  0  0  0  0  0  0  0  0  0  0
    9.9449  -15.9222   29.4141 C   0  0  0  0  0  0  0  0  0  0  0  0
    9.7300  -18.6764   25.8966 O   0  0  0  0  0  0  0  0  0  0  0  0
  2  1  1  6
  2  3  1  0
  4  8  1  0
  4  3  1  0
  5  4  2  0
  6  2  1  0
  7  6  2  0
  9 10  1  0
 10 12  1  0
 11 10  2  0
 13 12  1  1
 13 14  1  0
 14  6  1  0
 15 13  1  0
 15 16  2  0
 17 18  1  0
 18 28  2  0
 19 18  1  0
 19 20  2  0
 20 21  1  0
 21 27  2  0
 21 22  1  0
 23 24  1  0
 23 22  1  1
 23 25  1  0
 24 15  1  0
 25 26  1  0
 28 27  1  0
 29 25  2  0
M  END
$$$$
