DNY.pdb
     RDKit          3D

 29 29  0  0  1  0  0  0  0  0999 V2000
    7.1713  -18.2125   20.5824 N   0  0  0  0  0  0  0  0  0  0  0  0
    8.4545  -18.1661   19.9410 C   0  0  1  0  0  0  0  0  0  0  0  0
    8.4045  -18.4093   18.4706 C   0  0  0  0  0  0  0  0  0  0  0  0
    7.6680  -19.6199   18.0843 C   0  0  0  0  0  0  0  0  0  0  0  0
    6.4405  -19.7234   18.2261 O   0  0  0  0  0  0  0  0  0  0  0  0
    9.2276  -16.9502   20.2302 C   0  0  0  0  0  0  0  0  0  0  0  0
   10.3655  -16.8014   19.7432 O   0  0  0  0  0  0  0  0  0  0  0  0
    8.3368  -20.7123   17.5345 O   0  0  0  0  0  0  0  0  0  0  0  0
    6.7279  -13.4437   19.7007 N   0  0  0  0  0  0  0  0  0  0  0  0
    8.1212  -13.4310   19.9448 C   0  0  0  0  0  0  0  0  0  0  0  0
    8.9037  -13.3214   18.9741 O   0  0  0  0  0  0  0  0  0  0  0  0
    8.6438  -13.5437   21.3168 C   0  0  0  0  0  0  0  0  0  0  0  0
    9.4464  -14.7862   21.4573 C   0  0  2  0  0  0  0  0  0  0  0  0
    8.6934  -15.9439   21.0646 N   0  0  0  0  0  0  0  0  0  0  0  0
    9.8874  -15.0149   22.8657 C   0  0  0  0  0  0  0  0  0  0  0  0
   10.9372  -14.4859   23.2960 O   0  0  0  0  0  0  0  0  0  0  0  0
    6.0591  -10.8328   26.7054 O   0  0  0  0  0  0  0  0  0  0  0  0
    6.5991  -12.1199   26.5230 C   0  0  0  0  0  0  0  0  0  0  0  0
    7.9549  -12.3118   26.3970 C   0  0  0  0  0  0  0  0  0  0  0  0
    8.5167  -13.5769   26.2155 C   0  0  0  0  0  0  0  0  0  0  0  0
    7.6869  -14.6744   26.1601 C   0  0  0  0  0  0  0  0  0  0  0  0
    8.2338  -16.0267   25.9699 C   0  0  0  0  0  0  0  0  0  0  0  0
    9.5016  -16.0378   25.1369 C   0  0  2  0  0  0  0  0  0  0  0  0
    9.1492  -15.8280   23.7639 N   0  0  0  0  0  0  0  0  0  0  0  0
   10.2155  -17.2912   25.3759 C   0  0  0  0  0  0  0  0  0  0  0  0
   10.6893  -17.5669   26.6482 O   0  0  0  0  0  0  0  0  0  0  0  0
    6.3212  -14.4691   26.2884 C   0  0  0  0  0  0  0  0  0  0  0  0
    5.7704  -13.2073   26.4688 C   0  0  0  0  0  0  0  0  0  0  0  0
   10.4173  -18.1313   24.4680 O   0  0  0  0  0  0  0  0  0  0  0  0
  2  1  1  6
  2  3  1  0
  4  8  1  0
  4  3  1  0
  5  4  2  0
  6  2  1  0
  7  6  2  0
  9 10  1  0
 10 12  1  0
 11 10  2  0
 13 12  1  1
 13 14  1  0
 14  6  1  0
 15 13  1  0
 15 16  2  0
 17 18  1  0
 18 28  2  0
 19 18  1  0
 19 20  2  0
 20 21  1  0
 21 27  2  0
 21 22  1  0
 23 24  1  0
 23 22  1  1
 23 25  1  0
 24 15  1  0
 25 26  1  0
 28 27  1  0
 29 25  2  0
M  END
$$$$
