DNY.pdb
     RDKit          3D

 29 29  0  0  1  0  0  0  0  0999 V2000
    9.6770  -13.4399   19.4326 N   0  0  0  0  0  0  0  0  0  0  0  0
    8.3251  -13.8193   19.7297 C   0  0  1  0  0  0  0  0  0  0  0  0
    7.4940  -14.0907   18.5216 C   0  0  0  0  0  0  0  0  0  0  0  0
    8.2014  -13.9027   17.2483 C   0  0  0  0  0  0  0  0  0  0  0  0
    9.4066  -13.6158   17.1949 O   0  0  0  0  0  0  0  0  0  0  0  0
    8.2084  -14.9276   20.6877 C   0  0  0  0  0  0  0  0  0  0  0  0
    7.0839  -15.3327   21.0421 O   0  0  0  0  0  0  0  0  0  0  0  0
    7.5292  -14.0440   16.0354 O   0  0  0  0  0  0  0  0  0  0  0  0
   10.5229  -18.4533   19.2911 N   0  0  0  0  0  0  0  0  0  0  0  0
    9.7490  -18.4164   20.4747 C   0  0  0  0  0  0  0  0  0  0  0  0
    8.6278  -18.9728   20.4810 O   0  0  0  0  0  0  0  0  0  0  0  0
   10.2525  -17.7362   21.6797 C   0  0  0  0  0  0  0  0  0  0  0  0
    9.3045  -16.6719   22.0993 C   0  0  2  0  0  0  0  0  0  0  0  0
    9.3651  -15.5391   21.2191 N   0  0  0  0  0  0  0  0  0  0  0  0
    9.5979  -16.1671   23.4739 C   0  0  0  0  0  0  0  0  0  0  0  0
   10.5875  -15.4290   23.6813 O   0  0  0  0  0  0  0  0  0  0  0  0
    5.9929  -10.5444   25.5271 O   0  0  0  0  0  0  0  0  0  0  0  0
    6.4437  -11.8476   25.8097 C   0  0  0  0  0  0  0  0  0  0  0  0
    7.5473  -12.0632   26.6012 C   0  0  0  0  0  0  0  0  0  0  0  0
    8.0155  -13.3446   26.8974 C   0  0  0  0  0  0  0  0  0  0  0  0
    7.3513  -14.4344   26.3801 C   0  0  0  0  0  0  0  0  0  0  0  0
    7.8085  -15.8033   26.6648 C   0  0  0  0  0  0  0  0  0  0  0  0
    9.0956  -16.1566   25.9439 C   0  0  2  0  0  0  0  0  0  0  0  0
    8.7824  -16.4957   24.5874 N   0  0  0  0  0  0  0  0  0  0  0  0
    9.7716  -17.2263   26.6764 C   0  0  0  0  0  0  0  0  0  0  0  0
   10.3542  -16.9431   27.9010 O   0  0  0  0  0  0  0  0  0  0  0  0
    6.2395  -14.2051   25.5832 C   0  0  0  0  0  0  0  0  0  0  0  0
    5.7802  -12.9272   25.2935 C   0  0  0  0  0  0  0  0  0  0  0  0
    9.8453  -18.3974   26.2361 O   0  0  0  0  0  0  0  0  0  0  0  0
  2  1  1  6
  2  3  1  0
  4  8  1  0
  4  3  1  0
  5  4  2  0
  6  2  1  0
  7  6  2  0
  9 10  1  0
 10 12  1  0
 11 10  2  0
 13 12  1  6
 13 14  1  0
 14  6  1  0
 15 13  1  0
 15 16  2  0
 17 18  1  0
 18 28  2  0
 19 18  1  0
 19 20  2  0
 20 21  1  0
 21 27  2  0
 21 22  1  0
 23 24  1  0
 23 22  1  1
 23 25  1  0
 24 15  1  0
 25 26  1  0
 28 27  1  0
 29 25  2  0
M  END
$$$$
