DNY.pdb
     RDKit          3D

 29 29  0  0  1  0  0  0  0  0999 V2000
    9.6391  -17.2003   18.6185 N   0  0  0  0  0  0  0  0  0  0  0  0
    8.8843  -16.1131   19.1735 C   0  0  1  0  0  0  0  0  0  0  0  0
    7.9364  -15.4818   18.2107 C   0  0  0  0  0  0  0  0  0  0  0  0
    8.5771  -14.9186   17.0151 C   0  0  0  0  0  0  0  0  0  0  0  0
    9.8066  -14.9284   16.8543 O   0  0  0  0  0  0  0  0  0  0  0  0
    8.1931  -16.4399   20.4286 C   0  0  0  0  0  0  0  0  0  0  0  0
    6.9480  -16.4920   20.4622 O   0  0  0  0  0  0  0  0  0  0  0  0
    7.8100  -14.3448   16.0026 O   0  0  0  0  0  0  0  0  0  0  0  0
   10.0383  -19.9724   21.2704 N   0  0  0  0  0  0  0  0  0  0  0  0
    9.6598  -19.3213   22.4678 C   0  0  0  0  0  0  0  0  0  0  0  0
   10.5024  -19.2084   23.3865 O   0  0  0  0  0  0  0  0  0  0  0  0
    8.2987  -18.7840   22.6321 C   0  0  0  0  0  0  0  0  0  0  0  0
    8.3459  -17.3050   22.7663 C   0  0  2  0  0  0  0  0  0  0  0  0
    8.9299  -16.6919   21.6067 N   0  0  0  0  0  0  0  0  0  0  0  0
    9.1611  -16.8725   23.9405 C   0  0  0  0  0  0  0  0  0  0  0  0
   10.3909  -16.6723   23.8204 O   0  0  0  0  0  0  0  0  0  0  0  0
    5.9972  -10.8735   25.4504 O   0  0  0  0  0  0  0  0  0  0  0  0
    6.5849  -12.0595   25.9292 C   0  0  0  0  0  0  0  0  0  0  0  0
    5.8776  -13.2381   25.9709 C   0  0  0  0  0  0  0  0  0  0  0  0
    6.4361  -14.4283   26.4407 C   0  0  0  0  0  0  0  0  0  0  0  0
    7.7415  -14.4262   26.8789 C   0  0  0  0  0  0  0  0  0  0  0  0
    8.3717  -15.6563   27.3826 C   0  0  0  0  0  0  0  0  0  0  0  0
    9.3293  -16.2791   26.3845 C   0  0  2  0  0  0  0  0  0  0  0  0
    8.5881  -16.6724   25.2230 N   0  0  0  0  0  0  0  0  0  0  0  0
   10.0378  -17.3825   27.0314 C   0  0  0  0  0  0  0  0  0  0  0  0
   10.9185  -17.1066   28.0646 O   0  0  0  0  0  0  0  0  0  0  0  0
    8.4453  -13.2320   26.8322 C   0  0  0  0  0  0  0  0  0  0  0  0
    7.8824  -12.0524   26.3634 C   0  0  0  0  0  0  0  0  0  0  0  0
    9.8784  -18.5763   26.6848 O   0  0  0  0  0  0  0  0  0  0  0  0
  2  1  1  6
  2  3  1  0
  4  8  1  0
  4  3  1  0
  5  4  2  0
  6  2  1  0
  7  6  2  0
  9 10  1  0
 10 12  1  0
 11 10  2  0
 13 12  1  6
 13 14  1  0
 14  6  1  0
 15 13  1  0
 15 16  2  0
 17 18  1  0
 18 28  2  0
 19 18  1  0
 19 20  2  0
 20 21  1  0
 21 27  2  0
 21 22  1  0
 23 24  1  0
 23 22  1  1
 23 25  1  0
 24 15  1  0
 25 26  1  0
 28 27  1  0
 29 25  2  0
M  END
$$$$
