DNY.pdb
     RDKit          3D

 29 29  0  0  1  0  0  0  0  0999 V2000
    8.6730  -19.8532   16.9662 N   0  0  0  0  0  0  0  0  0  0  0  0
    9.4179  -19.0018   17.8494 C   0  0  1  0  0  0  0  0  0  0  0  0
   10.0335  -17.8224   17.1757 C   0  0  0  0  0  0  0  0  0  0  0  0
   11.2381  -18.1344   16.3954 C   0  0  0  0  0  0  0  0  0  0  0  0
   11.6883  -19.2860   16.3019 O   0  0  0  0  0  0  0  0  0  0  0  0
    8.6740  -18.5756   19.0430 C   0  0  0  0  0  0  0  0  0  0  0  0
    7.7120  -17.7903   18.9337 O   0  0  0  0  0  0  0  0  0  0  0  0
   11.9272  -17.1278   15.7210 O   0  0  0  0  0  0  0  0  0  0  0  0
    5.8336  -19.4722   23.4051 N   0  0  0  0  0  0  0  0  0  0  0  0
    7.2148  -19.7723   23.4608 C   0  0  0  0  0  0  0  0  0  0  0  0
    7.7853  -19.7881   24.5749 O   0  0  0  0  0  0  0  0  0  0  0  0
    7.9701  -20.0623   22.2304 C   0  0  0  0  0  0  0  0  0  0  0  0
    8.2491  -18.8027   21.4935 C   0  0  2  0  0  0  0  0  0  0  0  0
    9.0437  -19.0455   20.3224 N   0  0  0  0  0  0  0  0  0  0  0  0
    8.9993  -17.8170   22.3279 C   0  0  0  0  0  0  0  0  0  0  0  0
   10.2037  -18.0100   22.6091 O   0  0  0  0  0  0  0  0  0  0  0  0
    7.6039  -12.5726   18.1863 O   0  0  0  0  0  0  0  0  0  0  0  0
    7.7762  -13.0131   19.5121 C   0  0  0  0  0  0  0  0  0  0  0  0
    6.7136  -13.4753   20.2525 C   0  0  0  0  0  0  0  0  0  0  0  0
    6.8564  -13.9181   21.5688 C   0  0  0  0  0  0  0  0  0  0  0  0
    8.1044  -13.8926   22.1502 C   0  0  0  0  0  0  0  0  0  0  0  0
    8.3028  -14.3488   23.5345 C   0  0  0  0  0  0  0  0  0  0  0  0
    9.0707  -15.6542   23.6204 C   0  0  2  0  0  0  0  0  0  0  0  0
    8.3911  -16.6380   22.8309 N   0  0  0  0  0  0  0  0  0  0  0  0
    9.2170  -16.0273   25.0266 C   0  0  0  0  0  0  0  0  0  0  0  0
   10.0851  -15.3062   25.8301 O   0  0  0  0  0  0  0  0  0  0  0  0
    9.1689  -13.4246   21.3942 C   0  0  0  0  0  0  0  0  0  0  0  0
    9.0183  -12.9860   20.0853 C   0  0  0  0  0  0  0  0  0  0  0  0
    8.5833  -16.9808   25.5365 O   0  0  0  0  0  0  0  0  0  0  0  0
  2  1  1  6
  2  3  1  0
  4  8  1  0
  4  3  1  0
  5  4  2  0
  6  2  1  0
  7  6  2  0
  9 10  1  0
 10 12  1  0
 11 10  2  0
 13 12  1  1
 13 14  1  0
 14  6  1  0
 15 13  1  0
 15 16  2  0
 17 18  1  0
 18 28  2  0
 19 18  1  0
 19 20  2  0
 20 21  1  0
 21 27  2  0
 21 22  1  0
 23 24  1  0
 23 22  1  1
 23 25  1  0
 24 15  1  0
 25 26  1  0
 28 27  1  0
 29 25  2  0
M  END
$$$$
