DNY.pdb
     RDKit          3D

 29 29  0  0  1  0  0  0  0  0999 V2000
   11.7116  -18.9482   18.6771 N   0  0  0  0  0  0  0  0  0  0  0  0
   11.7855  -17.5201   18.5538 C   0  0  1  0  0  0  0  0  0  0  0  0
   11.7656  -17.0331   17.1445 C   0  0  0  0  0  0  0  0  0  0  0  0
   12.9007  -17.4905   16.3323 C   0  0  0  0  0  0  0  0  0  0  0  0
   12.7489  -18.0648   15.2438 O   0  0  0  0  0  0  0  0  0  0  0  0
   10.7913  -16.7951   19.3573 C   0  0  0  0  0  0  0  0  0  0  0  0
   10.8054  -15.5491   19.3953 O   0  0  0  0  0  0  0  0  0  0  0  0
   14.2100  -17.2897   16.7659 O   0  0  0  0  0  0  0  0  0  0  0  0
    5.9849  -15.6457   21.4270 N   0  0  0  0  0  0  0  0  0  0  0  0
    6.6222  -16.8350   21.8518 C   0  0  0  0  0  0  0  0  0  0  0  0
    6.3705  -17.2804   22.9942 O   0  0  0  0  0  0  0  0  0  0  0  0
    7.5650  -17.5388   20.9664 C   0  0  0  0  0  0  0  0  0  0  0  0
    8.8777  -16.8426   20.9612 C   0  0  2  0  0  0  0  0  0  0  0  0
    9.8165  -17.5004   20.0967 N   0  0  0  0  0  0  0  0  0  0  0  0
    9.4973  -16.8000   22.3194 C   0  0  0  0  0  0  0  0  0  0  0  0
   10.4558  -17.5532   22.6037 O   0  0  0  0  0  0  0  0  0  0  0  0
   10.5001  -14.4414   30.8603 O   0  0  0  0  0  0  0  0  0  0  0  0
   10.0630  -14.5576   29.5273 C   0  0  0  0  0  0  0  0  0  0  0  0
    9.8622  -15.7888   28.9487 C   0  0  0  0  0  0  0  0  0  0  0  0
    9.4290  -15.9325   27.6293 C   0  0  0  0  0  0  0  0  0  0  0  0
    9.1935  -14.8035   26.8770 C   0  0  0  0  0  0  0  0  0  0  0  0
    8.7367  -14.9061   25.4825 C   0  0  0  0  0  0  0  0  0  0  0  0
    9.5876  -15.8477   24.6514 C   0  0  2  0  0  0  0  0  0  0  0  0
    9.0352  -15.9192   23.3312 N   0  0  0  0  0  0  0  0  0  0  0  0
    9.6629  -17.1416   25.3282 C   0  0  0  0  0  0  0  0  0  0  0  0
    8.5908  -18.0144   25.2387 O   0  0  0  0  0  0  0  0  0  0  0  0
    9.3993  -13.5671   27.4708 C   0  0  0  0  0  0  0  0  0  0  0  0
    9.8302  -13.4328   28.7840 C   0  0  0  0  0  0  0  0  0  0  0  0
   10.6666  -17.4939   25.9910 O   0  0  0  0  0  0  0  0  0  0  0  0
  2  1  1  6
  2  3  1  0
  4  8  1  0
  4  3  1  0
  5  4  2  0
  6  2  1  0
  7  6  2  0
  9 10  1  0
 10 12  1  0
 11 10  2  0
 13 12  1  1
 13 14  1  0
 14  6  1  0
 15 13  1  0
 15 16  2  0
 17 18  1  0
 18 28  2  0
 19 18  1  0
 19 20  2  0
 20 21  1  0
 21 27  2  0
 21 22  1  0
 23 24  1  0
 23 22  1  1
 23 25  1  0
 24 15  1  0
 25 26  1  0
 28 27  1  0
 29 25  2  0
M  END
$$$$
