DNY.pdb
     RDKit          3D

 29 29  0  0  1  0  0  0  0  0999 V2000
    9.8083  -16.6746   19.2280 N   0  0  0  0  0  0  0  0  0  0  0  0
    8.4215  -16.3154   19.3154 C   0  0  1  0  0  0  0  0  0  0  0  0
    7.6056  -16.7669   18.1517 C   0  0  0  0  0  0  0  0  0  0  0  0
    8.2224  -16.5046   16.8448 C   0  0  0  0  0  0  0  0  0  0  0  0
    8.6284  -15.3800   16.5164 O   0  0  0  0  0  0  0  0  0  0  0  0
    7.7759  -16.7121   20.5746 C   0  0  0  0  0  0  0  0  0  0  0  0
    6.5717  -16.4546   20.7689 O   0  0  0  0  0  0  0  0  0  0  0  0
    8.3752  -17.5305   15.9136 O   0  0  0  0  0  0  0  0  0  0  0  0
    9.5764  -20.4447   21.4851 N   0  0  0  0  0  0  0  0  0  0  0  0
    9.2035  -19.8643   22.7200 C   0  0  0  0  0  0  0  0  0  0  0  0
   10.0356  -19.8464   23.6549 O   0  0  0  0  0  0  0  0  0  0  0  0
    7.8603  -19.2897   22.9040 C   0  0  0  0  0  0  0  0  0  0  0  0
    7.9218  -17.8078   22.8140 C   0  0  2  0  0  0  0  0  0  0  0  0
    8.5122  -17.3819   21.5764 N   0  0  0  0  0  0  0  0  0  0  0  0
    8.7406  -17.2111   23.9113 C   0  0  0  0  0  0  0  0  0  0  0  0
    9.9081  -16.8175   23.6900 O   0  0  0  0  0  0  0  0  0  0  0  0
    6.2959  -10.8161   25.0328 O   0  0  0  0  0  0  0  0  0  0  0  0
    6.7275  -12.0404   25.5770 C   0  0  0  0  0  0  0  0  0  0  0  0
    8.0270  -12.2169   25.9909 C   0  0  0  0  0  0  0  0  0  0  0  0
    8.4812  -13.4201   26.5341 C   0  0  0  0  0  0  0  0  0  0  0  0
    7.5997  -14.4703   26.6615 C   0  0  0  0  0  0  0  0  0  0  0  0
    8.0334  -15.7568   27.2277 C   0  0  0  0  0  0  0  0  0  0  0  0
    8.9878  -16.5086   26.3194 C   0  0  2  0  0  0  0  0  0  0  0  0
    8.2406  -17.0661   25.2311 N   0  0  0  0  0  0  0  0  0  0  0  0
    9.7088  -17.5056   27.1093 C   0  0  0  0  0  0  0  0  0  0  0  0
   10.5811  -17.0817   28.0986 O   0  0  0  0  0  0  0  0  0  0  0  0
    6.2916  -14.2810   26.2409 C   0  0  0  0  0  0  0  0  0  0  0  0
    5.8477  -13.0809   25.7017 C   0  0  0  0  0  0  0  0  0  0  0  0
    9.5675  -18.7371   26.9247 O   0  0  0  0  0  0  0  0  0  0  0  0
  2  1  1  6
  2  3  1  0
  4  8  1  0
  4  3  1  0
  5  4  2  0
  6  2  1  0
  7  6  2  0
  9 10  1  0
 10 12  1  0
 11 10  2  0
 13 12  1  1
 13 14  1  0
 14  6  1  0
 15 13  1  0
 15 16  2  0
 17 18  1  0
 18 28  2  0
 19 18  1  0
 19 20  2  0
 20 21  1  0
 21 27  2  0
 21 22  1  0
 23 24  1  0
 23 22  1  1
 23 25  1  0
 24 15  1  0
 25 26  1  0
 28 27  1  0
 29 25  2  0
M  END
$$$$
