DNY.pdb
     RDKit          3D

 29 29  0  0  1  0  0  0  0  0999 V2000
   11.3967  -17.9941   17.9787 N   0  0  0  0  0  0  0  0  0  0  0  0
   10.3508  -17.0320   17.7777 C   0  0  1  0  0  0  0  0  0  0  0  0
    9.5141  -17.2917   16.5710 C   0  0  0  0  0  0  0  0  0  0  0  0
   10.2520  -17.2364   15.3022 C   0  0  0  0  0  0  0  0  0  0  0  0
   11.4860  -17.1234   15.2568 O   0  0  0  0  0  0  0  0  0  0  0  0
    9.4959  -16.8187   18.9540 C   0  0  0  0  0  0  0  0  0  0  0  0
    8.5883  -15.9647   18.9215 O   0  0  0  0  0  0  0  0  0  0  0  0
    9.5771  -17.3116   14.0850 O   0  0  0  0  0  0  0  0  0  0  0  0
    7.3045  -19.9873   19.6036 N   0  0  0  0  0  0  0  0  0  0  0  0
    7.1160  -19.0542   20.6500 C   0  0  0  0  0  0  0  0  0  0  0  0
    6.0099  -18.4776   20.7534 O   0  0  0  0  0  0  0  0  0  0  0  0
    8.2010  -18.7656   21.6028 C   0  0  0  0  0  0  0  0  0  0  0  0
    8.8359  -17.4629   21.2747 C   0  0  2  0  0  0  0  0  0  0  0  0
    9.6969  -17.5727   20.1310 N   0  0  0  0  0  0  0  0  0  0  0  0
    9.6736  -16.9466   22.3982 C   0  0  0  0  0  0  0  0  0  0  0  0
   10.8916  -17.2279   22.4631 O   0  0  0  0  0  0  0  0  0  0  0  0
   10.7551  -14.4566   30.8744 O   0  0  0  0  0  0  0  0  0  0  0  0
   10.2647  -14.6400   29.5678 C   0  0  0  0  0  0  0  0  0  0  0  0
   10.5844  -13.7634   28.5577 C   0  0  0  0  0  0  0  0  0  0  0  0
   10.1120  -13.9218   27.2536 C   0  0  0  0  0  0  0  0  0  0  0  0
    9.2963  -14.9929   26.9642 C   0  0  0  0  0  0  0  0  0  0  0  0
    8.7744  -15.2000   25.6046 C   0  0  0  0  0  0  0  0  0  0  0  0
    9.7529  -15.9279   24.7024 C   0  0  2  0  0  0  0  0  0  0  0  0
    9.1358  -16.1282   23.4248 N   0  0  0  0  0  0  0  0  0  0  0  0
   10.1683  -17.1683   25.3557 C   0  0  0  0  0  0  0  0  0  0  0  0
   11.4101  -17.2269   25.9670 O   0  0  0  0  0  0  0  0  0  0  0  0
    8.9804  -15.8706   27.9907 C   0  0  0  0  0  0  0  0  0  0  0  0
    9.4546  -15.7059   29.2853 C   0  0  0  0  0  0  0  0  0  0  0  0
    9.4396  -18.1876   25.3840 O   0  0  0  0  0  0  0  0  0  0  0  0
  2  1  1  1
  2  3  1  0
  4  8  1  0
  4  3  1  0
  5  4  2  0
  6  2  1  0
  7  6  2  0
  9 10  1  0
 10 12  1  0
 11 10  2  0
 13 12  1  1
 13 14  1  0
 14  6  1  0
 15 13  1  0
 15 16  2  0
 17 18  1  0
 18 28  2  0
 19 18  1  0
 19 20  2  0
 20 21  1  0
 21 27  2  0
 21 22  1  0
 23 24  1  0
 23 22  1  1
 23 25  1  0
 24 15  1  0
 25 26  1  0
 28 27  1  0
 29 25  2  0
M  END
$$$$
