DNY.pdb
     RDKit          3D

 29 29  0  0  1  0  0  0  0  0999 V2000
    9.5946  -15.5314   18.4196 N   0  0  0  0  0  0  0  0  0  0  0  0
    8.7742  -14.4909   18.9712 C   0  0  1  0  0  0  0  0  0  0  0  0
    7.8817  -13.8323   17.9744 C   0  0  0  0  0  0  0  0  0  0  0  0
    8.0684  -14.3013   16.5951 C   0  0  0  0  0  0  0  0  0  0  0  0
    8.1342  -15.5056   16.3071 O   0  0  0  0  0  0  0  0  0  0  0  0
    8.0036  -14.8967   20.1550 C   0  0  0  0  0  0  0  0  0  0  0  0
    7.3639  -14.0480   20.8065 O   0  0  0  0  0  0  0  0  0  0  0  0
    8.1790  -13.3915   15.5451 O   0  0  0  0  0  0  0  0  0  0  0  0
    4.4692  -17.5417   20.8590 N   0  0  0  0  0  0  0  0  0  0  0  0
    5.7620  -18.0603   20.6124 C   0  0  0  0  0  0  0  0  0  0  0  0
    6.0161  -18.5386   19.4840 O   0  0  0  0  0  0  0  0  0  0  0  0
    6.7928  -18.0377   21.6637 C   0  0  0  0  0  0  0  0  0  0  0  0
    7.3630  -16.6715   21.7909 C   0  0  2  0  0  0  0  0  0  0  0  0
    7.9846  -16.2470   20.5683 N   0  0  0  0  0  0  0  0  0  0  0  0
    8.4072  -16.5946   22.8559 C   0  0  0  0  0  0  0  0  0  0  0  0
    9.6117  -16.7937   22.5795 O   0  0  0  0  0  0  0  0  0  0  0  0
    5.3046  -11.3859   27.1937 O   0  0  0  0  0  0  0  0  0  0  0  0
    6.3420  -12.2320   26.7584 C   0  0  0  0  0  0  0  0  0  0  0  0
    6.4881  -12.5534   25.4294 C   0  0  0  0  0  0  0  0  0  0  0  0
    7.5077  -13.3896   24.9707 C   0  0  0  0  0  0  0  0  0  0  0  0
    8.4009  -13.9134   25.8784 C   0  0  0  0  0  0  0  0  0  0  0  0
    9.4908  -14.7994   25.4413 C   0  0  0  0  0  0  0  0  0  0  0  0
    9.0461  -16.2394   25.2682 C   0  0  2  0  0  0  0  0  0  0  0  0
    8.0865  -16.2976   24.2057 N   0  0  0  0  0  0  0  0  0  0  0  0
    8.5392  -16.7365   26.5464 C   0  0  0  0  0  0  0  0  0  0  0  0
    9.4160  -16.8873   27.6083 O   0  0  0  0  0  0  0  0  0  0  0  0
    8.2440  -13.5825   27.2161 C   0  0  0  0  0  0  0  0  0  0  0  0
    7.2271  -12.7499   27.6642 C   0  0  0  0  0  0  0  0  0  0  0  0
    7.3340  -17.0339   26.7195 O   0  0  0  0  0  0  0  0  0  0  0  0
  2  1  1  6
  2  3  1  0
  4  8  1  0
  4  3  1  0
  5  4  2  0
  6  2  1  0
  7  6  2  0
  9 10  1  0
 10 12  1  0
 11 10  2  0
 13 12  1  6
 13 14  1  0
 14  6  1  0
 15 13  1  0
 15 16  2  0
 17 18  1  0
 18 28  2  0
 19 18  1  0
 19 20  2  0
 20 21  1  0
 21 27  2  0
 21 22  1  0
 23 24  1  0
 23 22  1  1
 23 25  1  0
 24 15  1  0
 25 26  1  0
 28 27  1  0
 29 25  2  0
M  END
$$$$
