DNY.pdb
     RDKit          3D

 29 29  0  0  1  0  0  0  0  0999 V2000
    7.4137  -17.7926   19.3272 N   0  0  0  0  0  0  0  0  0  0  0  0
    8.8230  -17.7705   19.0565 C   0  0  1  0  0  0  0  0  0  0  0  0
    9.1633  -17.9130   17.6116 C   0  0  0  0  0  0  0  0  0  0  0  0
    8.4699  -19.0169   16.9348 C   0  0  0  0  0  0  0  0  0  0  0  0
    7.2351  -19.0602   16.8306 O   0  0  0  0  0  0  0  0  0  0  0  0
    9.5283  -16.6180   19.6345 C   0  0  0  0  0  0  0  0  0  0  0  0
   10.7673  -16.5264   19.5315 O   0  0  0  0  0  0  0  0  0  0  0  0
    9.1905  -20.0713   16.3763 O   0  0  0  0  0  0  0  0  0  0  0  0
    7.5081  -13.1076   18.3361 N   0  0  0  0  0  0  0  0  0  0  0  0
    8.7314  -13.0591   19.0447 C   0  0  0  0  0  0  0  0  0  0  0  0
    9.7940  -12.8907   18.4049 O   0  0  0  0  0  0  0  0  0  0  0  0
    8.7563  -13.2033   20.5099 C   0  0  0  0  0  0  0  0  0  0  0  0
    9.4546  -14.4592   20.8879 C   0  0  2  0  0  0  0  0  0  0  0  0
    8.8125  -15.6087   20.3152 N   0  0  0  0  0  0  0  0  0  0  0  0
    9.4758  -14.6680   22.3665 C   0  0  0  0  0  0  0  0  0  0  0  0
    9.6144  -13.6959   23.1429 O   0  0  0  0  0  0  0  0  0  0  0  0
    6.5274  -10.8454   26.7827 O   0  0  0  0  0  0  0  0  0  0  0  0
    6.8072  -12.1192   26.2532 C   0  0  0  0  0  0  0  0  0  0  0  0
    6.9814  -12.3061   24.9020 C   0  0  0  0  0  0  0  0  0  0  0  0
    7.2598  -13.5581   24.3507 C   0  0  0  0  0  0  0  0  0  0  0  0
    7.3644  -14.6475   25.1864 C   0  0  0  0  0  0  0  0  0  0  0  0
    7.6560  -15.9860   24.6504 C   0  0  0  0  0  0  0  0  0  0  0  0
    9.1277  -16.1906   24.3449 C   0  0  2  0  0  0  0  0  0  0  0  0
    9.3423  -15.9554   22.9478 N   0  0  0  0  0  0  0  0  0  0  0  0
    9.5220  -17.5287   24.7832 C   0  0  0  0  0  0  0  0  0  0  0  0
    9.5823  -17.8049   26.1394 O   0  0  0  0  0  0  0  0  0  0  0  0
    7.1869  -14.4474   26.5473 C   0  0  0  0  0  0  0  0  0  0  0  0
    6.9103  -13.1986   27.0878 C   0  0  0  0  0  0  0  0  0  0  0  0
    9.8097  -18.4415   23.9740 O   0  0  0  0  0  0  0  0  0  0  0  0
  2  1  1  6
  2  3  1  0
  4  8  1  0
  4  3  1  0
  5  4  2  0
  6  2  1  0
  7  6  2  0
  9 10  1  0
 10 12  1  0
 11 10  2  0
 13 12  1  1
 13 14  1  0
 14  6  1  0
 15 13  1  0
 15 16  2  0
 17 18  1  0
 18 28  2  0
 19 18  1  0
 19 20  2  0
 20 21  1  0
 21 27  2  0
 21 22  1  0
 23 24  1  0
 23 22  1  6
 23 25  1  0
 24 15  1  0
 25 26  1  0
 28 27  1  0
 29 25  2  0
M  END
$$$$
