DNY.pdb
     RDKit          3D

 29 29  0  0  1  0  0  0  0  0999 V2000
    9.8577  -18.6071   20.1302 N   0  0  0  0  0  0  0  0  0  0  0  0
   10.7831  -17.5552   19.8186 C   0  0  1  0  0  0  0  0  0  0  0  0
   10.9164  -17.2801   18.3590 C   0  0  0  0  0  0  0  0  0  0  0  0
   11.4760  -18.3951   17.5838 C   0  0  0  0  0  0  0  0  0  0  0  0
   10.9219  -18.8410   16.5681 O   0  0  0  0  0  0  0  0  0  0  0  0
   10.5417  -16.3051   20.5525 C   0  0  0  0  0  0  0  0  0  0  0  0
   11.4517  -15.4607   20.6669 O   0  0  0  0  0  0  0  0  0  0  0  0
   12.6708  -18.9994   17.9710 O   0  0  0  0  0  0  0  0  0  0  0  0
    7.1866  -13.8466   19.4833 N   0  0  0  0  0  0  0  0  0  0  0  0
    6.9672  -14.7758   20.5271 C   0  0  0  0  0  0  0  0  0  0  0  0
    6.2798  -15.7955   20.2937 O   0  0  0  0  0  0  0  0  0  0  0  0
    7.5376  -14.5494   21.8657 C   0  0  0  0  0  0  0  0  0  0  0  0
    8.9945  -14.8410   21.8561 C   0  0  2  0  0  0  0  0  0  0  0  0
    9.2822  -16.0510   21.1386 N   0  0  0  0  0  0  0  0  0  0  0  0
    9.5423  -15.0155   23.2345 C   0  0  0  0  0  0  0  0  0  0  0  0
   10.5625  -14.3867   23.5964 O   0  0  0  0  0  0  0  0  0  0  0  0
    6.4178  -10.6843   27.0308 O   0  0  0  0  0  0  0  0  0  0  0  0
    6.8868  -12.0047   26.8960 C   0  0  0  0  0  0  0  0  0  0  0  0
    6.1193  -12.9750   26.2958 C   0  0  0  0  0  0  0  0  0  0  0  0
    6.5599  -14.2916   26.1490 C   0  0  0  0  0  0  0  0  0  0  0  0
    7.8072  -14.6349   26.6210 C   0  0  0  0  0  0  0  0  0  0  0  0
    8.3132  -16.0098   26.4889 C   0  0  0  0  0  0  0  0  0  0  0  0
    9.4544  -16.1248   25.4962 C   0  0  2  0  0  0  0  0  0  0  0  0
    8.9416  -15.8867   24.1795 N   0  0  0  0  0  0  0  0  0  0  0  0
   10.0895  -17.4326   25.6523 C   0  0  0  0  0  0  0  0  0  0  0  0
   10.1022  -18.3098   24.5802 O   0  0  0  0  0  0  0  0  0  0  0  0
    8.5726  -13.6482   27.2246 C   0  0  0  0  0  0  0  0  0  0  0  0
    8.1269  -12.3408   27.3665 C   0  0  0  0  0  0  0  0  0  0  0  0
   10.6260  -17.7932   26.7260 O   0  0  0  0  0  0  0  0  0  0  0  0
  2  1  1  6
  2  3  1  0
  4  8  1  0
  4  3  1  0
  5  4  2  0
  6  2  1  0
  7  6  2  0
  9 10  1  0
 10 12  1  0
 11 10  2  0
 13 12  1  1
 13 14  1  0
 14  6  1  0
 15 13  1  0
 15 16  2  0
 17 18  1  0
 18 28  2  0
 19 18  1  0
 19 20  2  0
 20 21  1  0
 21 27  2  0
 21 22  1  0
 23 24  1  0
 23 22  1  1
 23 25  1  0
 24 15  1  0
 25 26  1  0
 28 27  1  0
 29 25  2  0
M  END
$$$$
