DNY.pdb
     RDKit          3D

 29 29  0  0  1  0  0  0  0  0999 V2000
    9.0998  -15.9819   20.0950 N   0  0  0  0  0  0  0  0  0  0  0  0
    8.1816  -14.9640   20.5201 C   0  0  1  0  0  0  0  0  0  0  0  0
    7.3951  -14.3567   19.4082 C   0  0  0  0  0  0  0  0  0  0  0  0
    8.1998  -13.9682   18.2425 C   0  0  0  0  0  0  0  0  0  0  0  0
    9.3912  -14.2899   18.1217 O   0  0  0  0  0  0  0  0  0  0  0  0
    7.2867  -15.3785   21.6097 C   0  0  0  0  0  0  0  0  0  0  0  0
    6.4006  -14.6040   22.0208 O   0  0  0  0  0  0  0  0  0  0  0  0
    7.6401  -13.2119   17.2141 O   0  0  0  0  0  0  0  0  0  0  0  0
    5.9434  -19.2837   20.6040 N   0  0  0  0  0  0  0  0  0  0  0  0
    5.3841  -18.5947   21.7056 C   0  0  0  0  0  0  0  0  0  0  0  0
    4.2636  -18.0527   21.5736 O   0  0  0  0  0  0  0  0  0  0  0  0
    6.1058  -18.5162   22.9867 C   0  0  0  0  0  0  0  0  0  0  0  0
    6.5474  -17.1202   23.2396 C   0  0  2  0  0  0  0  0  0  0  0  0
    7.4248  -16.6522   22.2039 N   0  0  0  0  0  0  0  0  0  0  0  0
    7.2916  -16.9902   24.5279 C   0  0  0  0  0  0  0  0  0  0  0  0
    6.9601  -17.6719   25.5241 O   0  0  0  0  0  0  0  0  0  0  0  0
    5.8954  -10.3464   25.8433 O   0  0  0  0  0  0  0  0  0  0  0  0
    6.4556  -11.6075   26.1210 C   0  0  0  0  0  0  0  0  0  0  0  0
    7.4142  -12.1566   25.3022 C   0  0  0  0  0  0  0  0  0  0  0  0
    7.9863  -13.4049   25.5544 C   0  0  0  0  0  0  0  0  0  0  0  0
    7.5787  -14.1149   26.6616 C   0  0  0  0  0  0  0  0  0  0  0  0
    8.1532  -15.4342   26.9672 C   0  0  0  0  0  0  0  0  0  0  0  0
    9.1153  -15.9195   25.8995 C   0  0  2  0  0  0  0  0  0  0  0  0
    8.3890  -16.1035   24.6781 N   0  0  0  0  0  0  0  0  0  0  0  0
    9.7812  -17.1309   26.3758 C   0  0  0  0  0  0  0  0  0  0  0  0
   10.6509  -17.0456   27.4508 O   0  0  0  0  0  0  0  0  0  0  0  0
    6.6114  -13.5514   27.4805 C   0  0  0  0  0  0  0  0  0  0  0  0
    6.0475  -12.3090   27.2226 C   0  0  0  0  0  0  0  0  0  0  0  0
    9.5947  -18.2511   25.8455 O   0  0  0  0  0  0  0  0  0  0  0  0
  2  1  1  6
  2  3  1  0
  4  8  1  0
  4  3  1  0
  5  4  2  0
  6  2  1  0
  7  6  2  0
  9 10  1  0
 10 12  1  0
 11 10  2  0
 13 12  1  6
 13 14  1  0
 14  6  1  0
 15 13  1  0
 15 16  2  0
 17 18  1  0
 18 28  2  0
 19 18  1  0
 19 20  2  0
 20 21  1  0
 21 27  2  0
 21 22  1  0
 23 24  1  0
 23 22  1  1
 23 25  1  0
 24 15  1  0
 25 26  1  0
 28 27  1  0
 29 25  2  0
M  END
$$$$
