DNY.pdb
     RDKit          3D

 29 29  0  0  1  0  0  0  0  0999 V2000
    7.9546  -19.2513   21.9483 N   0  0  0  0  0  0  0  0  0  0  0  0
    8.5853  -19.2288   20.6592 C   0  0  1  0  0  0  0  0  0  0  0  0
    7.8580  -20.0086   19.6167 C   0  0  0  0  0  0  0  0  0  0  0  0
    8.5544  -20.0854   18.3258 C   0  0  0  0  0  0  0  0  0  0  0  0
    8.2194  -19.3985   17.3494 O   0  0  0  0  0  0  0  0  0  0  0  0
    8.8932  -17.8798   20.1640 C   0  0  0  0  0  0  0  0  0  0  0  0
    9.5400  -17.7331   19.1084 O   0  0  0  0  0  0  0  0  0  0  0  0
    9.6352  -20.9484   18.1528 O   0  0  0  0  0  0  0  0  0  0  0  0
    7.3820  -12.2908   20.1173 N   0  0  0  0  0  0  0  0  0  0  0  0
    7.7845  -13.4243   19.3729 C   0  0  0  0  0  0  0  0  0  0  0  0
    8.3974  -13.2528   18.2951 O   0  0  0  0  0  0  0  0  0  0  0  0
    7.4894  -14.7834   19.8566 C   0  0  0  0  0  0  0  0  0  0  0  0
    8.7163  -15.4022   20.4219 C   0  0  2  0  0  0  0  0  0  0  0  0
    8.4656  -16.7399   20.8795 N   0  0  0  0  0  0  0  0  0  0  0  0
    9.2445  -14.6375   21.5910 C   0  0  0  0  0  0  0  0  0  0  0  0
    9.0152  -13.4121   21.7039 O   0  0  0  0  0  0  0  0  0  0  0  0
    6.1109  -10.6017   26.6885 O   0  0  0  0  0  0  0  0  0  0  0  0
    6.6255  -11.7520   26.0613 C   0  0  0  0  0  0  0  0  0  0  0  0
    7.2623  -12.7328   26.7848 C   0  0  0  0  0  0  0  0  0  0  0  0
    7.7815  -13.8833   26.1881 C   0  0  0  0  0  0  0  0  0  0  0  0
    7.6537  -14.0454   24.8267 C   0  0  0  0  0  0  0  0  0  0  0  0
    8.1856  -15.2408   24.1546 C   0  0  0  0  0  0  0  0  0  0  0  0
    9.6948  -15.2098   24.0041 C   0  0  2  0  0  0  0  0  0  0  0  0
   10.0168  -15.2548   22.6086 N   0  0  0  0  0  0  0  0  0  0  0  0
   10.2715  -16.3093   24.7764 C   0  0  0  0  0  0  0  0  0  0  0  0
   10.8510  -17.3745   24.1064 O   0  0  0  0  0  0  0  0  0  0  0  0
    7.0097  -13.0499   24.1070 C   0  0  0  0  0  0  0  0  0  0  0  0
    6.4958  -11.9085   24.7082 C   0  0  0  0  0  0  0  0  0  0  0  0
   10.2614  -16.3257   26.0295 O   0  0  0  0  0  0  0  0  0  0  0  0
  2  1  1  1
  2  3  1  0
  4  8  1  0
  4  3  1  0
  5  4  2  0
  6  2  1  0
  7  6  2  0
  9 10  1  0
 10 12  1  0
 11 10  2  0
 13 12  1  1
 13 14  1  0
 14  6  1  0
 15 13  1  0
 15 16  2  0
 17 18  1  0
 18 28  2  0
 19 18  1  0
 19 20  2  0
 20 21  1  0
 21 27  2  0
 21 22  1  0
 23 24  1  0
 23 22  1  6
 23 25  1  0
 24 15  1  0
 25 26  1  0
 28 27  1  0
 29 25  2  0
M  END
$$$$
