DNY.pdb
     RDKit          3D

 29 29  0  0  1  0  0  0  0  0999 V2000
    9.4568  -19.5827   20.1965 N   0  0  0  0  0  0  0  0  0  0  0  0
    9.7430  -18.1805   20.0876 C   0  0  1  0  0  0  0  0  0  0  0  0
    9.7893  -17.6803   18.6835 C   0  0  0  0  0  0  0  0  0  0  0  0
   10.7769  -18.3587   17.8339 C   0  0  0  0  0  0  0  0  0  0  0  0
   10.5197  -19.4084   17.2261 O   0  0  0  0  0  0  0  0  0  0  0  0
    8.8725  -17.3239   20.9050 C   0  0  0  0  0  0  0  0  0  0  0  0
    8.9622  -16.0830   20.8255 O   0  0  0  0  0  0  0  0  0  0  0  0
   12.0592  -17.8347   17.6793 O   0  0  0  0  0  0  0  0  0  0  0  0
    5.4734  -20.2104   21.8051 N   0  0  0  0  0  0  0  0  0  0  0  0
    5.3634  -19.0405   22.5927 C   0  0  0  0  0  0  0  0  0  0  0  0
    5.1192  -19.1557   23.8149 O   0  0  0  0  0  0  0  0  0  0  0  0
    5.5338  -17.7092   21.9870 C   0  0  0  0  0  0  0  0  0  0  0  0
    6.8541  -17.1415   22.3643 C   0  0  2  0  0  0  0  0  0  0  0  0
    7.9324  -17.8959   21.7901 N   0  0  0  0  0  0  0  0  0  0  0  0
    7.0652  -17.1427   23.8428 C   0  0  0  0  0  0  0  0  0  0  0  0
    6.1577  -16.7569   24.6138 O   0  0  0  0  0  0  0  0  0  0  0  0
   11.0635  -14.0704   30.6858 O   0  0  0  0  0  0  0  0  0  0  0  0
   10.3987  -14.4845   29.5162 C   0  0  0  0  0  0  0  0  0  0  0  0
   10.2159  -15.8182   29.2355 C   0  0  0  0  0  0  0  0  0  0  0  0
    9.5603  -16.2561   28.0833 C   0  0  0  0  0  0  0  0  0  0  0  0
    9.0781  -15.3223   27.1935 C   0  0  0  0  0  0  0  0  0  0  0  0
    8.3812  -15.7370   25.9662 C   0  0  0  0  0  0  0  0  0  0  0  0
    9.1885  -16.7128   25.1312 C   0  0  2  0  0  0  0  0  0  0  0  0
    8.2829  -17.5736   24.4298 N   0  0  0  0  0  0  0  0  0  0  0  0
   10.1209  -17.4256   26.0034 C   0  0  0  0  0  0  0  0  0  0  0  0
    9.9256  -18.7764   26.2408 O   0  0  0  0  0  0  0  0  0  0  0  0
    9.2681  -13.9801   27.4868 C   0  0  0  0  0  0  0  0  0  0  0  0
    9.9213  -13.5527   28.6352 C   0  0  0  0  0  0  0  0  0  0  0  0
   11.0962  -16.8578   26.5484 O   0  0  0  0  0  0  0  0  0  0  0  0
  2  1  1  6
  2  3  1  0
  4  8  1  0
  4  3  1  0
  5  4  2  0
  6  2  1  0
  7  6  2  0
  9 10  1  0
 10 12  1  0
 11 10  2  0
 13 12  1  1
 13 14  1  0
 14  6  1  0
 15 13  1  0
 15 16  2  0
 17 18  1  0
 18 28  2  0
 19 18  1  0
 19 20  2  0
 20 21  1  0
 21 27  2  0
 21 22  1  0
 23 24  1  0
 23 22  1  1
 23 25  1  0
 24 15  1  0
 25 26  1  0
 28 27  1  0
 29 25  2  0
M  END
$$$$
