YWS.pdb
     RDKit          3D

 33 35  0  0  1  0  0  0  0  0999 V2000
   16.6427  -24.5588   -9.4024 O   0  0  0  0  0  0  0  0  0  0  0  0
   17.4606  -23.6426  -10.0440 C   0  0  0  0  0  0  0  0  0  0  0  0
   18.6562  -24.0807  -10.6102 C   0  0  0  0  0  0  0  0  0  0  0  0
   19.5215  -23.2345  -11.2632 C   0  0  0  0  0  0  0  0  0  0  0  0
   19.1932  -21.8843  -11.3650 C   0  0  0  0  0  0  0  0  0  0  0  0
   20.1498  -21.0063  -12.0758 C   0  0  0  0  0  0  0  0  0  0  0  0
   21.5469  -21.1964  -11.4899 C   0  0  2  0  0  0  0  0  0  0  0  0
   21.6950  -20.4180  -10.2778 N   0  0  0  0  0  0  0  0  0  0  0  0
   22.5755  -20.8055  -12.4855 C   0  0  0  0  0  0  0  0  0  0  0  0
   23.0723  -19.6358  -12.4900 O   0  0  0  0  0  0  0  0  0  0  0  0
   18.0079  -21.4567  -10.8023 C   0  0  0  0  0  0  0  0  0  0  0  0
   17.1502  -22.3144  -10.1510 C   0  0  0  0  0  0  0  0  0  0  0  0
   23.0722  -21.6841  -13.4849 N   0  0  0  0  0  0  0  0  0  0  0  0
   24.1712  -21.3100  -14.3406 C   0  0  1  0  0  0  0  0  0  0  0  0
   25.3123  -22.2624  -14.0991 C   0  0  0  0  0  0  0  0  0  0  0  0
   26.3648  -21.6120  -13.2487 C   0  0  0  0  0  0  0  0  0  0  0  0
   26.6997  -21.9260  -11.9384 C   0  0  0  0  0  0  0  0  0  0  0  0
   27.6920  -21.1078  -11.5475 N   0  0  0  0  0  0  0  0  0  0  0  0
   28.0380  -20.2611  -12.5316 C   0  0  0  0  0  0  0  0  0  0  0  0
   28.9783  -19.2453  -12.6423 C   0  0  0  0  0  0  0  0  0  0  0  0
   29.0623  -18.5580  -13.8438 C   0  0  0  0  0  0  0  0  0  0  0  0
   28.2499  -18.8524  -14.9134 C   0  0  0  0  0  0  0  0  0  0  0  0
   27.3297  -19.8688  -14.7610 C   0  0  0  0  0  0  0  0  0  0  0  0
   27.2101  -20.5750  -13.5941 C   0  0  0  0  0  0  0  0  0  0  0  0
   23.7840  -21.2171  -15.7598 C   0  0  0  0  0  0  0  0  0  0  0  0
   23.0092  -22.0946  -16.2196 O   0  0  0  0  0  0  0  0  0  0  0  0
   22.7715  -18.0150  -17.6731 O   0  0  0  0  0  0  0  0  0  0  0  0
   23.7269  -18.6784  -18.4203 C   0  0  0  0  0  0  0  0  0  0  0  0
   23.8174  -20.1426  -17.9867 C   0  0  2  0  0  0  0  0  0  0  0  0
   24.2615  -20.1704  -16.6076 N   0  0  0  0  0  0  0  0  0  0  0  0
   24.7534  -20.8203  -18.8852 C   0  0  0  0  0  0  0  0  0  0  0  0
   25.9120  -21.0675  -18.4532 O   0  0  0  0  0  0  0  0  0  0  0  0
   24.4462  -21.2036  -20.1708 O   0  0  0  0  0  0  0  0  0  0  0  0
  2  1  1  0
  3  2  2  0
  4  3  1  0
  5 11  1  0
  5  4  2  0
  6  5  1  0
  7  6  1  0
  7  8  1  1
  9 13  1  0
  9  7  1  0
 10  9  2  0
 11 12  2  0
 12  2  1  0
 14 13  1  0
 14 15  1  6
 15 16  1  0
 16 17  2  0
 17 18  1  0
 19 18  1  0
 20 19  2  0
 21 20  1  0
 22 23  1  0
 22 21  2  0
 23 24  2  0
 24 16  1  0
 24 19  1  0
 25 14  1  0
 26 25  2  0
 27 28  1  0
 29 28  1  6
 29 30  1  0
 30 25  1  0
 31 33  1  0
 31 29  1  0
 32 31  2  0
M  END
$$$$
