YWS.pdb
     RDKit          3D

 33 35  0  0  1  0  0  0  0  0999 V2000
   30.0705  -16.7902  -19.0292 O   0  0  0  0  0  0  0  0  0  0  0  0
   29.3066  -17.3206  -18.0020 C   0  0  0  0  0  0  0  0  0  0  0  0
   29.9050  -17.5628  -16.7671 C   0  0  0  0  0  0  0  0  0  0  0  0
   29.2155  -18.0870  -15.6988 C   0  0  0  0  0  0  0  0  0  0  0  0
   27.8642  -18.3893  -15.8535 C   0  0  0  0  0  0  0  0  0  0  0  0
   27.1572  -18.9510  -14.6806 C   0  0  0  0  0  0  0  0  0  0  0  0
   27.7215  -20.3331  -14.3602 C   0  0  2  0  0  0  0  0  0  0  0  0
   27.4434  -21.2540  -15.4425 N   0  0  0  0  0  0  0  0  0  0  0  0
   27.1449  -20.8379  -13.0895 C   0  0  0  0  0  0  0  0  0  0  0  0
   26.0384  -21.4628  -13.0743 O   0  0  0  0  0  0  0  0  0  0  0  0
   27.2774  -18.1472  -17.0788 C   0  0  0  0  0  0  0  0  0  0  0  0
   27.9792  -17.6219  -18.1406 C   0  0  0  0  0  0  0  0  0  0  0  0
   27.7673  -20.6668  -11.8243 N   0  0  0  0  0  0  0  0  0  0  0  0
   27.0522  -20.8989  -10.5935 C   0  0  1  0  0  0  0  0  0  0  0  0
   27.9489  -20.5297   -9.4414 C   0  0  0  0  0  0  0  0  0  0  0  0
   27.2070  -20.6518   -8.1418 C   0  0  0  0  0  0  0  0  0  0  0  0
   25.9231  -21.1439   -7.9495 C   0  0  0  0  0  0  0  0  0  0  0  0
   25.6378  -21.0805   -6.6374 N   0  0  0  0  0  0  0  0  0  0  0  0
   26.6675  -20.5701   -5.9416 C   0  0  0  0  0  0  0  0  0  0  0  0
   26.8821  -20.3009   -4.5963 C   0  0  0  0  0  0  0  0  0  0  0  0
   28.1022  -19.7579   -4.2231 C   0  0  0  0  0  0  0  0  0  0  0  0
   29.0913  -19.4830   -5.1380 C   0  0  0  0  0  0  0  0  0  0  0  0
   28.8369  -19.7659   -6.4639 C   0  0  0  0  0  0  0  0  0  0  0  0
   27.6477  -20.3021   -6.8798 C   0  0  0  0  0  0  0  0  0  0  0  0
   25.7467  -20.2160  -10.5540 C   0  0  0  0  0  0  0  0  0  0  0  0
   25.7372  -18.9672  -10.4047 O   0  0  0  0  0  0  0  0  0  0  0  0
   22.9632  -21.5119  -12.6816 O   0  0  0  0  0  0  0  0  0  0  0  0
   22.7327  -20.2560  -12.1517 C   0  0  0  0  0  0  0  0  0  0  0  0
   23.2802  -20.1728  -10.7257 C   0  0  2  0  0  0  0  0  0  0  0  0
   24.5150  -20.9298  -10.6797 N   0  0  0  0  0  0  0  0  0  0  0  0
   22.2636  -20.7132   -9.8218 C   0  0  0  0  0  0  0  0  0  0  0  0
   21.1308  -20.1595   -9.8092 O   0  0  0  0  0  0  0  0  0  0  0  0
   22.4687  -21.7875   -8.9863 O   0  0  0  0  0  0  0  0  0  0  0  0
  2  1  1  0
  3  2  2  0
  4  3  1  0
  5 11  1  0
  5  4  2  0
  6  5  1  0
  7  6  1  0
  7  8  1  6
  9 13  1  0
  9  7  1  0
 10  9  2  0
 11 12  2  0
 12  2  1  0
 14 13  1  0
 14 15  1  1
 15 16  1  0
 16 17  2  0
 17 18  1  0
 19 18  1  0
 20 19  2  0
 21 20  1  0
 22 23  1  0
 22 21  2  0
 23 24  2  0
 24 16  1  0
 24 19  1  0
 25 14  1  0
 26 25  2  0
 27 28  1  0
 29 28  1  6
 29 30  1  0
 30 25  1  0
 31 33  1  0
 31 29  1  0
 32 31  2  0
M  END
$$$$
