YWS.pdb
     RDKit          3D

 33 35  0  0  1  0  0  0  0  0999 V2000
   16.8942  -16.3718  -21.7163 O   0  0  0  0  0  0  0  0  0  0  0  0
   17.0890  -15.3797  -20.7688 C   0  0  0  0  0  0  0  0  0  0  0  0
   16.3859  -15.4419  -19.5673 C   0  0  0  0  0  0  0  0  0  0  0  0
   16.5236  -14.4970  -18.5776 C   0  0  0  0  0  0  0  0  0  0  0  0
   17.4004  -13.4334  -18.7806 C   0  0  0  0  0  0  0  0  0  0  0  0
   17.5212  -12.4379  -17.6917 C   0  0  0  0  0  0  0  0  0  0  0  0
   18.8765  -12.5953  -17.0064 C   0  0  2  0  0  0  0  0  0  0  0  0
   18.9475  -13.8665  -16.3166 N   0  0  0  0  0  0  0  0  0  0  0  0
   19.1012  -11.4774  -16.0568 C   0  0  0  0  0  0  0  0  0  0  0  0
   18.3588  -11.3245  -15.0367 O   0  0  0  0  0  0  0  0  0  0  0  0
   18.0938  -13.3775  -19.9724 C   0  0  0  0  0  0  0  0  0  0  0  0
   17.9467  -14.3302  -20.9554 C   0  0  0  0  0  0  0  0  0  0  0  0
   20.1356  -10.5161  -16.2091 N   0  0  0  0  0  0  0  0  0  0  0  0
   20.2122   -9.3491  -15.3651 C   0  0  1  0  0  0  0  0  0  0  0  0
   21.6537   -8.9261  -15.2619 C   0  0  0  0  0  0  0  0  0  0  0  0
   21.7765   -7.6900  -14.4186 C   0  0  0  0  0  0  0  0  0  0  0  0
   21.6207   -7.5918  -13.0425 C   0  0  0  0  0  0  0  0  0  0  0  0
   21.8138   -6.3105  -12.6851 N   0  0  0  0  0  0  0  0  0  0  0  0
   22.0911   -5.5456  -13.7542 C   0  0  0  0  0  0  0  0  0  0  0  0
   22.3646   -4.1953  -13.9279 C   0  0  0  0  0  0  0  0  0  0  0  0
   22.6126   -3.7369  -15.2129 C   0  0  0  0  0  0  0  0  0  0  0  0
   22.5950   -4.5732  -16.3042 C   0  0  0  0  0  0  0  0  0  0  0  0
   22.3192   -5.9073  -16.0872 C   0  0  0  0  0  0  0  0  0  0  0  0
   22.0680   -6.4058  -14.8370 C   0  0  0  0  0  0  0  0  0  0  0  0
   19.3198   -8.2634  -15.8095 C   0  0  0  0  0  0  0  0  0  0  0  0
   19.3069   -7.9726  -17.0330 O   0  0  0  0  0  0  0  0  0  0  0  0
   16.1746   -7.1115  -13.6165 O   0  0  0  0  0  0  0  0  0  0  0  0
   16.1954   -6.8060  -14.9646 C   0  0  0  0  0  0  0  0  0  0  0  0
   17.6249   -6.5057  -15.4189 C   0  0  2  0  0  0  0  0  0  0  0  0
   18.4848   -7.5484  -14.8963 N   0  0  0  0  0  0  0  0  0  0  0  0
   17.9882   -5.1810  -14.9133 C   0  0  0  0  0  0  0  0  0  0  0  0
   18.9407   -5.1042  -14.0907 O   0  0  0  0  0  0  0  0  0  0  0  0
   17.3543   -4.0159  -15.2808 O   0  0  0  0  0  0  0  0  0  0  0  0
  2  1  1  0
  3  2  2  0
  4  3  1  0
  5 11  1  0
  5  4  2  0
  6  5  1  0
  7  6  1  0
  7  8  1  1
  9 13  1  0
  9  7  1  0
 10  9  2  0
 11 12  2  0
 12  2  1  0
 14 13  1  0
 14 15  1  6
 15 16  1  0
 16 17  2  0
 17 18  1  0
 19 18  1  0
 20 19  2  0
 21 20  1  0
 22 23  1  0
 22 21  2  0
 23 24  2  0
 24 16  1  0
 24 19  1  0
 25 14  1  0
 26 25  2  0
 27 28  1  0
 29 28  1  1
 29 30  1  0
 30 25  1  0
 31 33  1  0
 31 29  1  0
 32 31  2  0
M  END
$$$$
