YWS.pdb
     RDKit          3D

 33 35  0  0  1  0  0  0  0  0999 V2000
   28.9553  -22.1825  -22.8687 O   0  0  0  0  0  0  0  0  0  0  0  0
   28.2744  -22.3786  -21.6780 C   0  0  0  0  0  0  0  0  0  0  0  0
   28.0748  -21.2954  -20.8244 C   0  0  0  0  0  0  0  0  0  0  0  0
   27.4095  -21.4081  -19.6261 C   0  0  0  0  0  0  0  0  0  0  0  0
   26.9135  -22.6536  -19.2468 C   0  0  0  0  0  0  0  0  0  0  0  0
   26.2029  -22.7336  -17.9507 C   0  0  0  0  0  0  0  0  0  0  0  0
   27.2031  -23.0470  -16.8405 C   0  0  2  0  0  0  0  0  0  0  0  0
   27.6821  -24.4081  -16.9636 N   0  0  0  0  0  0  0  0  0  0  0  0
   26.5745  -22.8372  -15.5128 C   0  0  0  0  0  0  0  0  0  0  0  0
   25.7953  -23.7071  -15.0116 O   0  0  0  0  0  0  0  0  0  0  0  0
   27.1143  -23.7224  -20.0964 C   0  0  0  0  0  0  0  0  0  0  0  0
   27.7823  -23.5961  -21.2936 C   0  0  0  0  0  0  0  0  0  0  0  0
   26.7883  -21.6788  -14.7192 N   0  0  0  0  0  0  0  0  0  0  0  0
   26.1403  -21.5085  -13.4420 C   0  0  1  0  0  0  0  0  0  0  0  0
   27.0052  -20.6277  -12.5796 C   0  0  0  0  0  0  0  0  0  0  0  0
   26.4151  -20.5009  -11.2048 C   0  0  0  0  0  0  0  0  0  0  0  0
   25.1189  -20.1265  -10.8774 C   0  0  0  0  0  0  0  0  0  0  0  0
   25.0002  -20.1394   -9.5385 N   0  0  0  0  0  0  0  0  0  0  0  0
   26.1532  -20.5039   -8.9531 C   0  0  0  0  0  0  0  0  0  0  0  0
   26.5533  -20.6710   -7.6340 C   0  0  0  0  0  0  0  0  0  0  0  0
   27.8591  -21.0691   -7.3905 C   0  0  0  0  0  0  0  0  0  0  0  0
   28.7554  -21.2994   -8.4075 C   0  0  0  0  0  0  0  0  0  0  0  0
   28.3168  -21.1218   -9.7033 C   0  0  0  0  0  0  0  0  0  0  0  0
   27.0372  -20.7298   -9.9925 C   0  0  0  0  0  0  0  0  0  0  0  0
   24.7554  -21.0193  -13.5650 C   0  0  0  0  0  0  0  0  0  0  0  0
   24.5754  -19.8656  -14.0323 O   0  0  0  0  0  0  0  0  0  0  0  0
   21.5073  -23.2927  -12.3644 O   0  0  0  0  0  0  0  0  0  0  0  0
   21.3391  -22.4779  -13.4686 C   0  0  0  0  0  0  0  0  0  0  0  0
   22.3028  -21.2917  -13.4049 C   0  0  2  0  0  0  0  0  0  0  0  0
   23.6344  -21.8138  -13.1720 N   0  0  0  0  0  0  0  0  0  0  0  0
   21.8567  -20.4077  -12.3269 C   0  0  0  0  0  0  0  0  0  0  0  0
   22.6465  -20.2047  -11.3652 O   0  0  0  0  0  0  0  0  0  0  0  0
   20.6294  -19.7853  -12.2995 O   0  0  0  0  0  0  0  0  0  0  0  0
  2  1  1  0
  3  2  2  0
  4  3  1  0
  5 11  1  0
  5  4  2  0
  6  5  1  0
  7  6  1  0
  7  8  1  1
  9 13  1  0
  9  7  1  0
 10  9  2  0
 11 12  2  0
 12  2  1  0
 14 13  1  0
 14 15  1  1
 15 16  1  0
 16 17  2  0
 17 18  1  0
 19 18  1  0
 20 19  2  0
 21 20  1  0
 22 23  1  0
 22 21  2  0
 23 24  2  0
 24 16  1  0
 24 19  1  0
 25 14  1  0
 26 25  2  0
 27 28  1  0
 29 28  1  1
 29 30  1  0
 30 25  1  0
 31 33  1  0
 31 29  1  0
 32 31  2  0
M  END
$$$$
