YWS.pdb
     RDKit          3D

 33 35  0  0  1  0  0  0  0  0999 V2000
   27.2164  -20.8617  -23.9335 O   0  0  0  0  0  0  0  0  0  0  0  0
   26.4124  -20.6926  -22.8177 C   0  0  0  0  0  0  0  0  0  0  0  0
   26.9894  -20.7521  -21.5507 C   0  0  0  0  0  0  0  0  0  0  0  0
   26.2601  -20.5944  -20.3955 C   0  0  0  0  0  0  0  0  0  0  0  0
   24.8891  -20.3657  -20.4916 C   0  0  0  0  0  0  0  0  0  0  0  0
   24.1396  -20.2006  -19.2258 C   0  0  0  0  0  0  0  0  0  0  0  0
   23.8065  -18.7248  -19.0205 C   0  0  2  0  0  0  0  0  0  0  0  0
   25.0146  -17.9653  -18.7743 N   0  0  0  0  0  0  0  0  0  0  0  0
   22.8569  -18.5680  -17.8912 C   0  0  0  0  0  0  0  0  0  0  0  0
   23.2723  -18.3350  -16.7129 O   0  0  0  0  0  0  0  0  0  0  0  0
   24.3237  -20.3079  -21.7491 C   0  0  0  0  0  0  0  0  0  0  0  0
   25.0653  -20.4675  -22.8981 C   0  0  0  0  0  0  0  0  0  0  0  0
   21.4470  -18.6637  -18.0341 N   0  0  0  0  0  0  0  0  0  0  0  0
   20.5594  -18.4656  -16.9147 C   0  0  1  0  0  0  0  0  0  0  0  0
   19.3002  -17.8066  -17.4124 C   0  0  0  0  0  0  0  0  0  0  0  0
   19.5242  -16.3356  -17.6126 C   0  0  0  0  0  0  0  0  0  0  0  0
   20.3797  -15.5100  -16.8957 C   0  0  0  0  0  0  0  0  0  0  0  0
   20.2816  -14.2650  -17.3928 N   0  0  0  0  0  0  0  0  0  0  0  0
   19.4022  -14.2161  -18.4074 C   0  0  0  0  0  0  0  0  0  0  0  0
   18.9468  -13.2022  -19.2397 C   0  0  0  0  0  0  0  0  0  0  0  0
   18.0076  -13.5217  -20.2086 C   0  0  0  0  0  0  0  0  0  0  0  0
   17.5226  -14.7989  -20.3643 C   0  0  0  0  0  0  0  0  0  0  0  0
   18.0016  -15.7761  -19.5167 C   0  0  0  0  0  0  0  0  0  0  0  0
   18.9287  -15.5083  -18.5454 C   0  0  0  0  0  0  0  0  0  0  0  0
   20.3055  -19.7063  -16.1607 C   0  0  0  0  0  0  0  0  0  0  0  0
   19.8278  -20.6890  -16.7835 O   0  0  0  0  0  0  0  0  0  0  0  0
   20.3969  -19.9874  -11.9616 O   0  0  0  0  0  0  0  0  0  0  0  0
   20.9356  -21.0186  -12.7084 C   0  0  0  0  0  0  0  0  0  0  0  0
   20.2894  -21.0644  -14.0942 C   0  0  2  0  0  0  0  0  0  0  0  0
   20.5857  -19.8137  -14.7634 N   0  0  0  0  0  0  0  0  0  0  0  0
   18.8515  -21.2700  -13.9130 C   0  0  0  0  0  0  0  0  0  0  0  0
   18.0963  -20.2637  -13.9968 O   0  0  0  0  0  0  0  0  0  0  0  0
   18.2747  -22.4931  -13.6572 O   0  0  0  0  0  0  0  0  0  0  0  0
  2  1  1  0
  3  2  2  0
  4  3  1  0
  5 11  1  0
  5  4  2  0
  6  5  1  0
  7  6  1  0
  7  8  1  1
  9 13  1  0
  9  7  1  0
 10  9  2  0
 11 12  2  0
 12  2  1  0
 14 13  1  0
 14 15  1  6
 15 16  1  0
 16 17  2  0
 17 18  1  0
 19 18  1  0
 20 19  2  0
 21 20  1  0
 22 23  1  0
 22 21  2  0
 23 24  2  0
 24 16  1  0
 24 19  1  0
 25 14  1  0
 26 25  2  0
 27 28  1  0
 29 28  1  1
 29 30  1  0
 30 25  1  0
 31 33  1  0
 31 29  1  0
 32 31  2  0
M  END
$$$$
