YWS.pdb
     RDKit          3D

 33 35  0  0  1  0  0  0  0  0999 V2000
   30.4709  -16.9744  -18.9545 O   0  0  0  0  0  0  0  0  0  0  0  0
   29.6054  -17.5305  -18.0262 C   0  0  0  0  0  0  0  0  0  0  0  0
   29.9855  -17.5754  -16.6863 C   0  0  0  0  0  0  0  0  0  0  0  0
   29.1837  -18.1106  -15.7055 C   0  0  0  0  0  0  0  0  0  0  0  0
   27.9408  -18.6296  -16.0617 C   0  0  0  0  0  0  0  0  0  0  0  0
   27.1072  -19.1958  -14.9774 C   0  0  0  0  0  0  0  0  0  0  0  0
   27.7069  -20.5212  -14.5139 C   0  0  2  0  0  0  0  0  0  0  0  0
   27.5303  -21.5370  -15.5307 N   0  0  0  0  0  0  0  0  0  0  0  0
   27.0773  -20.9485  -13.2399 C   0  0  0  0  0  0  0  0  0  0  0  0
   25.9394  -21.5144  -13.2285 O   0  0  0  0  0  0  0  0  0  0  0  0
   27.5702  -18.5822  -17.3902 C   0  0  0  0  0  0  0  0  0  0  0  0
   28.3825  -18.0436  -18.3626 C   0  0  0  0  0  0  0  0  0  0  0  0
   27.6805  -20.7637  -11.9674 N   0  0  0  0  0  0  0  0  0  0  0  0
   26.9492  -20.9902  -10.7451 C   0  0  1  0  0  0  0  0  0  0  0  0
   27.8068  -20.5556   -9.5861 C   0  0  0  0  0  0  0  0  0  0  0  0
   27.0337  -20.6436   -8.3021 C   0  0  0  0  0  0  0  0  0  0  0  0
   25.7249  -21.0763   -8.1365 C   0  0  0  0  0  0  0  0  0  0  0  0
   25.4160  -21.0000   -6.8304 N   0  0  0  0  0  0  0  0  0  0  0  0
   26.4535  -20.5373   -6.1133 C   0  0  0  0  0  0  0  0  0  0  0  0
   26.6527  -20.2783   -4.7636 C   0  0  0  0  0  0  0  0  0  0  0  0
   27.8885  -19.7917   -4.3650 C   0  0  0  0  0  0  0  0  0  0  0  0
   28.9076  -19.5625   -5.2592 C   0  0  0  0  0  0  0  0  0  0  0  0
   28.6677  -19.8333   -6.5903 C   0  0  0  0  0  0  0  0  0  0  0  0
   27.4640  -20.3145   -7.0310 C   0  0  0  0  0  0  0  0  0  0  0  0
   25.6180  -20.3576  -10.7505 C   0  0  0  0  0  0  0  0  0  0  0  0
   25.5517  -19.1185  -10.5458 O   0  0  0  0  0  0  0  0  0  0  0  0
   22.4848  -22.2958  -12.4338 O   0  0  0  0  0  0  0  0  0  0  0  0
   22.5269  -20.9140  -12.4494 C   0  0  0  0  0  0  0  0  0  0  0  0
   23.1813  -20.3884  -11.1705 C   0  0  2  0  0  0  0  0  0  0  0  0
   24.4240  -21.1088  -10.9796 N   0  0  0  0  0  0  0  0  0  0  0  0
   22.2429  -20.5976  -10.0668 C   0  0  0  0  0  0  0  0  0  0  0  0
   22.5917  -21.3713   -9.1343 O   0  0  0  0  0  0  0  0  0  0  0  0
   21.0048  -20.0020   -9.9852 O   0  0  0  0  0  0  0  0  0  0  0  0
  2  1  1  0
  3  2  2  0
  4  3  1  0
  5 11  1  0
  5  4  2  0
  6  5  1  0
  7  6  1  0
  7  8  1  6
  9 13  1  0
  9  7  1  0
 10  9  2  0
 11 12  2  0
 12  2  1  0
 14 13  1  0
 14 15  1  1
 15 16  1  0
 16 17  2  0
 17 18  1  0
 19 18  1  0
 20 19  2  0
 21 20  1  0
 22 23  1  0
 22 21  2  0
 23 24  2  0
 24 16  1  0
 24 19  1  0
 25 14  1  0
 26 25  2  0
 27 28  1  0
 29 28  1  6
 29 30  1  0
 30 25  1  0
 31 33  1  0
 31 29  1  0
 32 31  2  0
M  END
$$$$
