YWS.pdb
     RDKit          3D

 33 35  0  0  1  0  0  0  0  0999 V2000
   29.1585  -18.0373  -17.0795 O   0  0  0  0  0  0  0  0  0  0  0  0
   28.7117  -18.6830  -15.9378 C   0  0  0  0  0  0  0  0  0  0  0  0
   29.6303  -19.3599  -15.1380 C   0  0  0  0  0  0  0  0  0  0  0  0
   29.2665  -20.0245  -13.9903 C   0  0  0  0  0  0  0  0  0  0  0  0
   27.9265  -20.0232  -13.6085 C   0  0  0  0  0  0  0  0  0  0  0  0
   27.5753  -20.7489  -12.3670 C   0  0  0  0  0  0  0  0  0  0  0  0
   26.0786  -20.6069  -12.1007 C   0  0  2  0  0  0  0  0  0  0  0  0
   25.6682  -19.2268  -12.2554 N   0  0  0  0  0  0  0  0  0  0  0  0
   25.7542  -21.0941  -10.7372 C   0  0  0  0  0  0  0  0  0  0  0  0
   26.1090  -22.2525  -10.3533 O   0  0  0  0  0  0  0  0  0  0  0  0
   27.0217  -19.3511  -14.4046 C   0  0  0  0  0  0  0  0  0  0  0  0
   27.3991  -18.6895  -15.5516 C   0  0  0  0  0  0  0  0  0  0  0  0
   25.0409  -20.3250   -9.7796 N   0  0  0  0  0  0  0  0  0  0  0  0
   24.5603  -20.9067   -8.5505 C   0  0  1  0  0  0  0  0  0  0  0  0
   24.7091  -19.8906   -7.4491 C   0  0  0  0  0  0  0  0  0  0  0  0
   26.1583  -19.5644   -7.2314 C   0  0  0  0  0  0  0  0  0  0  0  0
   27.0308  -18.9687   -8.1322 C   0  0  0  0  0  0  0  0  0  0  0  0
   28.2341  -18.8551   -7.5439 N   0  0  0  0  0  0  0  0  0  0  0  0
   28.2104  -19.3454   -6.2933 C   0  0  0  0  0  0  0  0  0  0  0  0
   29.1598  -19.4649   -5.2871 C   0  0  0  0  0  0  0  0  0  0  0  0
   28.7729  -20.0390   -4.0856 C   0  0  0  0  0  0  0  0  0  0  0  0
   27.4911  -20.4866   -3.8679 C   0  0  0  0  0  0  0  0  0  0  0  0
   26.5793  -20.3488   -4.8938 C   0  0  0  0  0  0  0  0  0  0  0  0
   26.9150  -19.7886   -6.0972 C   0  0  0  0  0  0  0  0  0  0  0  0
   23.1905  -21.4384   -8.6675 C   0  0  0  0  0  0  0  0  0  0  0  0
   22.5221  -21.1299   -9.6872 O   0  0  0  0  0  0  0  0  0  0  0  0
   19.6124  -24.1110   -6.7782 O   0  0  0  0  0  0  0  0  0  0  0  0
   20.8521  -23.5253   -6.6014 C   0  0  0  0  0  0  0  0  0  0  0  0
   21.2708  -22.7762   -7.8677 C   0  0  2  0  0  0  0  0  0  0  0  0
   22.6177  -22.2813   -7.6657 N   0  0  0  0  0  0  0  0  0  0  0  0
   20.3093  -21.6949   -8.0888 C   0  0  0  0  0  0  0  0  0  0  0  0
   19.1442  -22.0071   -8.4563 O   0  0  0  0  0  0  0  0  0  0  0  0
   20.5992  -20.3600   -7.9200 O   0  0  0  0  0  0  0  0  0  0  0  0
  2  1  1  0
  3  2  2  0
  4  3  1  0
  5 11  1  0
  5  4  2  0
  6  5  1  0
  7  6  1  0
  7  8  1  1
  9 13  1  0
  9  7  1  0
 10  9  2  0
 11 12  2  0
 12  2  1  0
 14 13  1  0
 14 15  1  1
 15 16  1  0
 16 17  2  0
 17 18  1  0
 19 18  1  0
 20 19  2  0
 21 20  1  0
 22 23  1  0
 22 21  2  0
 23 24  2  0
 24 16  1  0
 24 19  1  0
 25 14  1  0
 26 25  2  0
 27 28  1  0
 29 28  1  1
 29 30  1  0
 30 25  1  0
 31 33  1  0
 31 29  1  0
 32 31  2  0
M  END
$$$$
