YWS.pdb
     RDKit          3D

 33 35  0  0  1  0  0  0  0  0999 V2000
   25.6461  -17.1597  -17.6760 O   0  0  0  0  0  0  0  0  0  0  0  0
   25.2025  -17.9043  -16.5949 C   0  0  0  0  0  0  0  0  0  0  0  0
   25.1410  -17.3053  -15.3383 C   0  0  0  0  0  0  0  0  0  0  0  0
   24.7124  -17.9763  -14.2169 C   0  0  0  0  0  0  0  0  0  0  0  0
   24.3230  -19.3086  -14.3381 C   0  0  0  0  0  0  0  0  0  0  0  0
   23.8673  -19.9956  -13.1087 C   0  0  0  0  0  0  0  0  0  0  0  0
   25.0800  -20.4220  -12.2848 C   0  0  2  0  0  0  0  0  0  0  0  0
   25.8732  -21.3865  -13.0180 N   0  0  0  0  0  0  0  0  0  0  0  0
   24.6407  -20.9919  -10.9871 C   0  0  0  0  0  0  0  0  0  0  0  0
   24.2082  -22.1843  -10.9076 O   0  0  0  0  0  0  0  0  0  0  0  0
   24.3862  -19.8961  -15.5852 C   0  0  0  0  0  0  0  0  0  0  0  0
   24.8174  -19.2130  -16.7001 C   0  0  0  0  0  0  0  0  0  0  0  0
   24.6681  -20.2693   -9.7647 N   0  0  0  0  0  0  0  0  0  0  0  0
   24.2382  -20.8669   -8.5244 C   0  0  1  0  0  0  0  0  0  0  0  0
   24.8774  -20.1183   -7.3849 C   0  0  0  0  0  0  0  0  0  0  0  0
   26.3675  -20.3003   -7.4106 C   0  0  0  0  0  0  0  0  0  0  0  0
   27.1436  -20.7320   -8.4778 C   0  0  0  0  0  0  0  0  0  0  0  0
   28.4287  -20.7555   -8.0842 N   0  0  0  0  0  0  0  0  0  0  0  0
   28.5514  -20.3608   -6.8059 C   0  0  0  0  0  0  0  0  0  0  0  0
   29.6291  -20.2097   -5.9433 C   0  0  0  0  0  0  0  0  0  0  0  0
   29.3790  -19.7675   -4.6531 C   0  0  0  0  0  0  0  0  0  0  0  0
   28.1090  -19.4788   -4.2119 C   0  0  0  0  0  0  0  0  0  0  0  0
   27.0671  -19.6424   -5.1010 C   0  0  0  0  0  0  0  0  0  0  0  0
   27.2651  -20.0764   -6.3843 C   0  0  0  0  0  0  0  0  0  0  0  0
   22.7712  -20.9536   -8.4107 C   0  0  0  0  0  0  0  0  0  0  0  0
   22.0916  -19.9528   -8.7544 O   0  0  0  0  0  0  0  0  0  0  0  0
   20.6408  -24.2130   -8.8186 O   0  0  0  0  0  0  0  0  0  0  0  0
   20.0332  -22.9715   -8.7892 C   0  0  0  0  0  0  0  0  0  0  0  0
   20.6837  -22.0873   -7.7237 C   0  0  2  0  0  0  0  0  0  0  0  0
   22.1178  -22.1292   -7.9274 N   0  0  0  0  0  0  0  0  0  0  0  0
   20.2939  -22.6047   -6.4111 C   0  0  0  0  0  0  0  0  0  0  0  0
   21.2081  -22.9951   -5.6355 O   0  0  0  0  0  0  0  0  0  0  0  0
   18.9921  -22.6907   -5.9727 O   0  0  0  0  0  0  0  0  0  0  0  0
  2  1  1  0
  3  2  2  0
  4  3  1  0
  5 11  1  0
  5  4  2  0
  6  5  1  0
  7  6  1  0
  7  8  1  6
  9 13  1  0
  9  7  1  0
 10  9  2  0
 11 12  2  0
 12  2  1  0
 14 13  1  0
 14 15  1  1
 15 16  1  0
 16 17  2  0
 17 18  1  0
 19 18  1  0
 20 19  2  0
 21 20  1  0
 22 23  1  0
 22 21  2  0
 23 24  2  0
 24 16  1  0
 24 19  1  0
 25 14  1  0
 26 25  2  0
 27 28  1  0
 29 28  1  6
 29 30  1  0
 30 25  1  0
 31 33  1  0
 31 29  1  0
 32 31  2  0
M  END
$$$$
