YWS.pdb
     RDKit          3D

 33 35  0  0  1  0  0  0  0  0999 V2000
   24.9357  -24.2021  -23.7160 O   0  0  0  0  0  0  0  0  0  0  0  0
   24.5414  -24.2429  -22.3883 C   0  0  0  0  0  0  0  0  0  0  0  0
   25.1208  -25.1820  -21.5373 C   0  0  0  0  0  0  0  0  0  0  0  0
   24.7837  -25.2860  -20.2080 C   0  0  0  0  0  0  0  0  0  0  0  0
   23.8248  -24.4195  -19.6876 C   0  0  0  0  0  0  0  0  0  0  0  0
   23.4900  -24.5626  -18.2528 C   0  0  0  0  0  0  0  0  0  0  0  0
   24.5327  -23.8304  -17.4115 C   0  0  2  0  0  0  0  0  0  0  0  0
   25.7221  -24.6431  -17.2640 N   0  0  0  0  0  0  0  0  0  0  0  0
   23.9689  -23.4912  -16.0814 C   0  0  0  0  0  0  0  0  0  0  0  0
   24.0380  -24.3101  -15.1120 O   0  0  0  0  0  0  0  0  0  0  0  0
   23.2548  -23.4918  -20.5354 C   0  0  0  0  0  0  0  0  0  0  0  0
   23.6012  -23.3981  -21.8646 C   0  0  0  0  0  0  0  0  0  0  0  0
   23.3248  -22.2582  -15.7949 N   0  0  0  0  0  0  0  0  0  0  0  0
   22.7552  -21.9874  -14.4978 C   0  0  1  0  0  0  0  0  0  0  0  0
   23.1137  -20.5796  -14.1015 C   0  0  0  0  0  0  0  0  0  0  0  0
   22.8473  -20.3642  -12.6397 C   0  0  0  0  0  0  0  0  0  0  0  0
   21.7209  -19.7903  -12.0659 C   0  0  0  0  0  0  0  0  0  0  0  0
   21.8808  -19.7874  -10.7312 N   0  0  0  0  0  0  0  0  0  0  0  0
   23.0589  -20.3311  -10.3830 C   0  0  0  0  0  0  0  0  0  0  0  0
   23.6920  -20.5625   -9.1689 C   0  0  0  0  0  0  0  0  0  0  0  0
   24.9420  -21.1627   -9.1855 C   0  0  0  0  0  0  0  0  0  0  0  0
   25.5620  -21.5295  -10.3567 C   0  0  0  0  0  0  0  0  0  0  0  0
   24.8982  -21.2817  -11.5403 C   0  0  0  0  0  0  0  0  0  0  0  0
   23.6632  -20.6915  -11.5737 C   0  0  0  0  0  0  0  0  0  0  0  0
   21.3066  -22.2540  -14.4432 C   0  0  0  0  0  0  0  0  0  0  0  0
   20.6011  -21.8870  -15.4175 O   0  0  0  0  0  0  0  0  0  0  0  0
   19.6328  -23.7795  -11.0714 O   0  0  0  0  0  0  0  0  0  0  0  0
   18.9058  -24.0651  -12.2121 C   0  0  0  0  0  0  0  0  0  0  0  0
   19.2602  -23.0805  -13.3279 C   0  0  2  0  0  0  0  0  0  0  0  0
   20.6991  -22.9087  -13.3276 N   0  0  0  0  0  0  0  0  0  0  0  0
   18.5513  -21.8275  -13.0635 C   0  0  0  0  0  0  0  0  0  0  0  0
   19.2391  -20.8066  -12.7902 O   0  0  0  0  0  0  0  0  0  0  0  0
   17.1816  -21.6960  -13.0951 O   0  0  0  0  0  0  0  0  0  0  0  0
  2  1  1  0
  3  2  2  0
  4  3  1  0
  5 11  1  0
  5  4  2  0
  6  5  1  0
  7  6  1  0
  7  8  1  1
  9 13  1  0
  9  7  1  0
 10  9  2  0
 11 12  2  0
 12  2  1  0
 14 13  1  0
 14 15  1  6
 15 16  1  0
 16 17  2  0
 17 18  1  0
 19 18  1  0
 20 19  2  0
 21 20  1  0
 22 23  1  0
 22 21  2  0
 23 24  2  0
 24 16  1  0
 24 19  1  0
 25 14  1  0
 26 25  2  0
 27 28  1  0
 29 28  1  1
 29 30  1  0
 30 25  1  0
 31 33  1  0
 31 29  1  0
 32 31  2  0
M  END
$$$$
