YWS.pdb
     RDKit          3D

 33 35  0  0  1  0  0  0  0  0999 V2000
   16.9994  -22.5565  -11.3044 O   0  0  0  0  0  0  0  0  0  0  0  0
   18.3559  -22.3927  -11.5351 C   0  0  0  0  0  0  0  0  0  0  0  0
   18.8084  -22.2473  -12.8450 C   0  0  0  0  0  0  0  0  0  0  0  0
   20.1375  -22.0805  -13.1564 C   0  0  0  0  0  0  0  0  0  0  0  0
   21.0722  -22.0554  -12.1235 C   0  0  0  0  0  0  0  0  0  0  0  0
   22.4923  -21.8733  -12.4994 C   0  0  0  0  0  0  0  0  0  0  0  0
   22.9826  -20.5183  -11.9946 C   0  0  2  0  0  0  0  0  0  0  0  0
   22.2828  -19.4457  -12.6705 N   0  0  0  0  0  0  0  0  0  0  0  0
   24.4464  -20.3946  -12.2041 C   0  0  0  0  0  0  0  0  0  0  0  0
   24.9226  -19.5392  -13.0144 O   0  0  0  0  0  0  0  0  0  0  0  0
   20.6178  -22.1999  -10.8285 C   0  0  0  0  0  0  0  0  0  0  0  0
   19.2841  -22.3663  -10.5302 C   0  0  0  0  0  0  0  0  0  0  0  0
   25.4045  -21.2008  -11.5338 N   0  0  0  0  0  0  0  0  0  0  0  0
   26.8208  -21.0080  -11.7265 C   0  0  1  0  0  0  0  0  0  0  0  0
   27.5484  -21.5818  -10.5394 C   0  0  0  0  0  0  0  0  0  0  0  0
   27.1890  -20.8278   -9.2918 C   0  0  0  0  0  0  0  0  0  0  0  0
   25.9572  -20.2746   -8.9690 C   0  0  0  0  0  0  0  0  0  0  0  0
   26.0595  -19.6882   -7.7637 N   0  0  0  0  0  0  0  0  0  0  0  0
   27.2993  -19.8214   -7.2636 C   0  0  0  0  0  0  0  0  0  0  0  0
   27.9129  -19.4112   -6.0874 C   0  0  0  0  0  0  0  0  0  0  0  0
   29.2481  -19.7340   -5.8976 C   0  0  0  0  0  0  0  0  0  0  0  0
   29.9699  -20.4401   -6.8309 C   0  0  0  0  0  0  0  0  0  0  0  0
   29.3219  -20.8284   -7.9852 C   0  0  0  0  0  0  0  0  0  0  0  0
   28.0053  -20.5326   -8.2168 C   0  0  0  0  0  0  0  0  0  0  0  0
   27.3000  -21.5423  -13.0139 C   0  0  0  0  0  0  0  0  0  0  0  0
   28.5225  -21.4244  -13.2844 O   0  0  0  0  0  0  0  0  0  0  0  0
   24.7471  -23.1240  -15.9753 O   0  0  0  0  0  0  0  0  0  0  0  0
   26.0121  -23.6543  -15.8020 C   0  0  0  0  0  0  0  0  0  0  0  0
   26.9556  -22.5985  -15.2231 C   0  0  2  0  0  0  0  0  0  0  0  0
   26.4208  -22.1796  -13.9431 N   0  0  0  0  0  0  0  0  0  0  0  0
   27.0349  -21.4937  -16.1800 C   0  0  0  0  0  0  0  0  0  0  0  0
   26.3861  -20.4433  -15.9238 O   0  0  0  0  0  0  0  0  0  0  0  0
   27.7737  -21.5316  -17.3406 O   0  0  0  0  0  0  0  0  0  0  0  0
  2  1  1  0
  3  2  2  0
  4  3  1  0
  5 11  1  0
  5  4  2  0
  6  5  1  0
  7  6  1  0
  7  8  1  6
  9 13  1  0
  9  7  1  0
 10  9  2  0
 11 12  2  0
 12  2  1  0
 14 13  1  0
 14 15  1  1
 15 16  1  0
 16 17  2  0
 17 18  1  0
 19 18  1  0
 20 19  2  0
 21 20  1  0
 22 23  1  0
 22 21  2  0
 23 24  2  0
 24 16  1  0
 24 19  1  0
 25 14  1  0
 26 25  2  0
 27 28  1  0
 29 28  1  6
 29 30  1  0
 30 25  1  0
 31 33  1  0
 31 29  1  0
 32 31  2  0
M  END
$$$$
