PLW.pdb
     RDKit          3D

 30 32  0  0  1  0  0  0  0  0999 V2000
    6.9729  -18.7407   20.9197 N   0  0  0  0  0  0  0  0  0  0  0  0
    6.0036  -18.2993   19.9726 C   0  0  0  0  0  0  0  0  0  0  0  0
    6.6115  -18.4800   18.6201 C   0  0  0  0  0  0  0  0  0  0  0  0
    8.0278  -18.9318   18.8541 C   0  0  0  0  0  0  0  0  0  0  0  0
    8.2817  -18.6812   20.3478 C   0  0  1  0  0  0  0  0  0  0  0  0
    8.9471  -17.3654   20.4376 C   0  0  0  0  0  0  0  0  0  0  0  0
   10.0276  -17.2369   19.7727 O   0  0  0  0  0  0  0  0  0  0  0  0
    7.0370  -12.6283   20.0442 C   0  0  0  0  0  0  0  0  0  0  0  0
    7.5516  -14.0560   20.3417 C   0  0  2  0  0  0  0  0  0  0  0  0
    6.4451  -14.7914   21.0741 C   0  0  0  0  0  0  0  0  0  0  0  0
    8.7164  -13.9167   21.2777 C   0  0  0  0  0  0  0  0  0  0  0  0
    9.4487  -15.1751   21.6067 C   0  0  2  0  0  0  0  0  0  0  0  0
    8.5245  -16.2558   21.1659 N   0  0  0  0  0  0  0  0  0  0  0  0
    9.7721  -15.3649   23.0301 C   0  0  0  0  0  0  0  0  0  0  0  0
   10.6111  -14.5567   23.5511 O   0  0  0  0  0  0  0  0  0  0  0  0
    9.2438  -16.3492   23.8734 N   0  0  0  0  0  0  0  0  0  0  0  0
    9.7519  -16.5908   25.2331 C   0  0  1  0  0  0  0  0  0  0  0  0
    8.5632  -16.7220   26.1191 C   0  0  0  0  0  0  0  0  0  0  0  0
    7.5835  -15.6309   26.0975 C   0  0  0  0  0  0  0  0  0  0  0  0
    6.2910  -15.7675   25.5817 C   0  0  0  0  0  0  0  0  0  0  0  0
    5.6799  -14.5903   25.6876 N   0  0  0  0  0  0  0  0  0  0  0  0
    6.4816  -13.6716   26.2434 C   0  0  0  0  0  0  0  0  0  0  0  0
    6.2918  -12.3338   26.5664 C   0  0  0  0  0  0  0  0  0  0  0  0
    7.3471  -11.6787   27.1584 C   0  0  0  0  0  0  0  0  0  0  0  0
    8.5498  -12.2985   27.4300 C   0  0  0  0  0  0  0  0  0  0  0  0
    8.7151  -13.6180   27.1026 C   0  0  0  0  0  0  0  0  0  0  0  0
    7.6754  -14.3110   26.5044 C   0  0  0  0  0  0  0  0  0  0  0  0
   10.6745  -17.7288   25.2565 C   0  0  0  0  0  0  0  0  0  0  0  0
   11.5054  -18.0475   26.3181 O   0  0  0  0  0  0  0  0  0  0  0  0
   10.7811  -18.5297   24.2586 O   0  0  0  0  0  0  0  0  0  0  0  0
  1  2  1  0
  3  2  1  0
  4  5  1  0
  4  3  1  0
  5  1  1  0
  5  6  1  6
  7  6  2  0
  9  8  1  1
  9 11  1  0
 10  9  1  0
 12 11  1  1
 12 14  1  0
 12 13  1  0
 13  6  1  0
 14 15  2  0
 16 14  1  0
 16 17  1  0
 17 18  1  1
 19 18  1  0
 20 19  2  0
 21 20  1  0
 22 21  1  0
 22 27  2  0
 23 22  1  0
 24 23  2  0
 24 25  1  0
 25 26  2  0
 26 27  1  0
 27 19  1  0
 28 29  1  0
 28 17  1  0
 30 28  2  0
M  END
$$$$
