PLW.pdb
     RDKit          3D

 30 32  0  0  1  0  0  0  0  0999 V2000
    7.4993  -17.9616   19.5145 N   0  0  0  0  0  0  0  0  0  0  0  0
    8.7415  -18.4989   19.0676 C   0  0  0  0  0  0  0  0  0  0  0  0
    9.2423  -19.3874   20.1590 C   0  0  0  0  0  0  0  0  0  0  0  0
    8.2783  -19.2293   21.3038 C   0  0  0  0  0  0  0  0  0  0  0  0
    7.4319  -18.0001   20.9419 C   0  0  1  0  0  0  0  0  0  0  0  0
    8.0562  -16.8525   21.6312 C   0  0  0  0  0  0  0  0  0  0  0  0
    9.0795  -16.3462   21.0632 O   0  0  0  0  0  0  0  0  0  0  0  0
    6.9068  -13.3610   26.5379 C   0  0  0  0  0  0  0  0  0  0  0  0
    7.9234  -13.5283   25.3846 C   0  0  2  0  0  0  0  0  0  0  0  0
    7.8788  -12.2587   24.5555 C   0  0  0  0  0  0  0  0  0  0  0  0
    7.4343  -14.6601   24.5290 C   0  0  0  0  0  0  0  0  0  0  0  0
    8.3567  -15.1104   23.4453 C   0  0  2  0  0  0  0  0  0  0  0  0
    7.6505  -16.2666   22.8280 N   0  0  0  0  0  0  0  0  0  0  0  0
    9.6927  -15.5398   23.8898 C   0  0  0  0  0  0  0  0  0  0  0  0
   10.6234  -14.6671   23.8693 O   0  0  0  0  0  0  0  0  0  0  0  0
   10.0428  -16.8187   24.3380 N   0  0  0  0  0  0  0  0  0  0  0  0
   11.4312  -17.2086   24.6306 C   0  0  1  0  0  0  0  0  0  0  0  0
   11.9242  -16.2829   25.6866 C   0  0  0  0  0  0  0  0  0  0  0  0
   11.3245  -16.4016   27.0197 C   0  0  0  0  0  0  0  0  0  0  0  0
   11.1410  -17.6231   27.6749 C   0  0  0  0  0  0  0  0  0  0  0  0
   10.5490  -17.3789   28.8412 N   0  0  0  0  0  0  0  0  0  0  0  0
   10.3242  -16.0688   29.0103 C   0  0  0  0  0  0  0  0  0  0  0  0
    9.7575  -15.3412   30.0494 C   0  0  0  0  0  0  0  0  0  0  0  0
    9.6999  -13.9751   29.8960 C   0  0  0  0  0  0  0  0  0  0  0  0
   10.1761  -13.3316   28.7719 C   0  0  0  0  0  0  0  0  0  0  0  0
   10.7306  -14.0687   27.7596 C   0  0  0  0  0  0  0  0  0  0  0  0
   10.8055  -15.4471   27.8772 C   0  0  0  0  0  0  0  0  0  0  0  0
   11.5201  -18.6335   24.9606 C   0  0  0  0  0  0  0  0  0  0  0  0
   12.7051  -19.3267   25.1456 O   0  0  0  0  0  0  0  0  0  0  0  0
   10.4700  -19.3592   25.0995 O   0  0  0  0  0  0  0  0  0  0  0  0
  1  2  1  0
  3  2  1  0
  4  5  1  0
  4  3  1  0
  5  1  1  0
  5  6  1  1
  7  6  2  0
  9  8  1  1
  9 11  1  0
 10  9  1  0
 12 11  1  1
 12 14  1  0
 12 13  1  0
 13  6  1  0
 14 15  2  0
 16 14  1  0
 16 17  1  0
 17 18  1  1
 19 18  1  0
 20 19  2  0
 21 20  1  0
 22 21  1  0
 22 27  2  0
 23 22  1  0
 24 23  2  0
 24 25  1  0
 25 26  2  0
 26 27  1  0
 27 19  1  0
 28 29  1  0
 28 17  1  0
 30 28  2  0
M  END
$$$$
