PLW.pdb
     RDKit          3D

 30 32  0  0  1  0  0  0  0  0999 V2000
    7.4147  -19.0368   20.7613 N   0  0  0  0  0  0  0  0  0  0  0  0
    6.4456  -18.5219   19.8519 C   0  0  0  0  0  0  0  0  0  0  0  0
    7.1184  -18.4152   18.5224 C   0  0  0  0  0  0  0  0  0  0  0  0
    8.5603  -18.7800   18.7519 C   0  0  0  0  0  0  0  0  0  0  0  0
    8.7333  -18.7700   20.2778 C   0  0  1  0  0  0  0  0  0  0  0  0
    9.2711  -17.4382   20.6229 C   0  0  0  0  0  0  0  0  0  0  0  0
   10.4787  -17.2149   20.2791 O   0  0  0  0  0  0  0  0  0  0  0  0
    8.8565  -13.4301   19.2730 C   0  0  0  0  0  0  0  0  0  0  0  0
    7.7031  -13.9446   20.1656 C   0  0  2  0  0  0  0  0  0  0  0  0
    6.6411  -12.8619   20.1999 C   0  0  0  0  0  0  0  0  0  0  0  0
    8.2560  -14.0981   21.5523 C   0  0  0  0  0  0  0  0  0  0  0  0
    9.2870  -15.1621   21.7343 C   0  0  2  0  0  0  0  0  0  0  0  0
    8.6060  -16.4055   21.2795 N   0  0  0  0  0  0  0  0  0  0  0  0
    9.7663  -15.3490   23.1135 C   0  0  0  0  0  0  0  0  0  0  0  0
   10.5447  -14.4557   23.5872 O   0  0  0  0  0  0  0  0  0  0  0  0
    9.4473  -16.4157   23.9616 N   0  0  0  0  0  0  0  0  0  0  0  0
    9.9662  -16.5256   25.3342 C   0  0  1  0  0  0  0  0  0  0  0  0
    8.7855  -16.6563   26.2309 C   0  0  0  0  0  0  0  0  0  0  0  0
    7.7155  -15.6641   26.0844 C   0  0  0  0  0  0  0  0  0  0  0  0
    6.4482  -15.9684   25.5779 C   0  0  0  0  0  0  0  0  0  0  0  0
    5.7358  -14.8449   25.5512 N   0  0  0  0  0  0  0  0  0  0  0  0
    6.4459  -13.8049   26.0092 C   0  0  0  0  0  0  0  0  0  0  0  0
    6.1358  -12.4620   26.1838 C   0  0  0  0  0  0  0  0  0  0  0  0
    7.1207  -11.6569   26.7081 C   0  0  0  0  0  0  0  0  0  0  0  0
    8.3680  -12.1359   27.0535 C   0  0  0  0  0  0  0  0  0  0  0  0
    8.6522  -13.4633   26.8725 C   0  0  0  0  0  0  0  0  0  0  0  0
    7.6862  -14.3053   26.3461 C   0  0  0  0  0  0  0  0  0  0  0  0
   10.9512  -17.6052   25.4404 C   0  0  0  0  0  0  0  0  0  0  0  0
   11.7820  -18.0176   24.4115 O   0  0  0  0  0  0  0  0  0  0  0  0
   11.1109  -18.2661   26.5297 O   0  0  0  0  0  0  0  0  0  0  0  0
  1  2  1  0
  3  2  1  0
  4  5  1  0
  4  3  1  0
  5  1  1  0
  5  6  1  1
  7  6  2  0
  9  8  1  6
  9 11  1  0
 10  9  1  0
 12 11  1  1
 12 14  1  0
 12 13  1  0
 13  6  1  0
 14 15  2  0
 16 14  1  0
 16 17  1  0
 17 18  1  1
 19 18  1  0
 20 19  2  0
 21 20  1  0
 22 21  1  0
 22 27  2  0
 23 22  1  0
 24 23  2  0
 24 25  1  0
 25 26  2  0
 26 27  1  0
 27 19  1  0
 28 29  1  0
 28 17  1  0
 30 28  2  0
M  END
$$$$
