PLW.pdb
     RDKit          3D

 30 32  0  0  1  0  0  0  0  0999 V2000
    7.7828  -20.1587   20.4845 N   0  0  0  0  0  0  0  0  0  0  0  0
    7.4328  -20.4275   19.1293 C   0  0  0  0  0  0  0  0  0  0  0  0
    8.7081  -20.7106   18.4046 C   0  0  0  0  0  0  0  0  0  0  0  0
    9.8155  -20.4659   19.3939 C   0  0  0  0  0  0  0  0  0  0  0  0
    9.1453  -19.7336   20.5655 C   0  0  1  0  0  0  0  0  0  0  0  0
    9.3683  -18.2921   20.3322 C   0  0  0  0  0  0  0  0  0  0  0  0
   10.4757  -17.9776   19.7837 O   0  0  0  0  0  0  0  0  0  0  0  0
    6.5037  -12.9909   21.4787 C   0  0  0  0  0  0  0  0  0  0  0  0
    7.9096  -13.6021   21.2756 C   0  0  2  0  0  0  0  0  0  0  0  0
    8.4370  -13.0906   19.9483 C   0  0  0  0  0  0  0  0  0  0  0  0
    7.7304  -15.0879   21.1635 C   0  0  0  0  0  0  0  0  0  0  0  0
    8.9818  -15.8936   21.0490 C   0  0  2  0  0  0  0  0  0  0  0  0
    8.5048  -17.2448   20.6448 N   0  0  0  0  0  0  0  0  0  0  0  0
    9.7748  -16.0091   22.2838 C   0  0  0  0  0  0  0  0  0  0  0  0
   10.8568  -15.3357   22.3479 O   0  0  0  0  0  0  0  0  0  0  0  0
    9.4543  -16.7877   23.4018 N   0  0  0  0  0  0  0  0  0  0  0  0
   10.0555  -16.5664   24.7265 C   0  0  1  0  0  0  0  0  0  0  0  0
    9.7083  -15.1763   25.1293 C   0  0  0  0  0  0  0  0  0  0  0  0
    8.3112  -14.9075   25.4854 C   0  0  0  0  0  0  0  0  0  0  0  0
    7.2901  -15.8548   25.3632 C   0  0  0  0  0  0  0  0  0  0  0  0
    6.1501  -15.2808   25.7393 N   0  0  0  0  0  0  0  0  0  0  0  0
    6.3424  -14.0068   26.1073 C   0  0  0  0  0  0  0  0  0  0  0  0
    5.4784  -13.0266   26.5793 C   0  0  0  0  0  0  0  0  0  0  0  0
    6.0296  -11.8037   26.8858 C   0  0  0  0  0  0  0  0  0  0  0  0
    7.3756  -11.5365   26.7406 C   0  0  0  0  0  0  0  0  0  0  0  0
    8.2091  -12.5176   26.2732 C   0  0  0  0  0  0  0  0  0  0  0  0
    7.6908  -13.7618   25.9530 C   0  0  0  0  0  0  0  0  0  0  0  0
    9.6471  -17.6089   25.6716 C   0  0  0  0  0  0  0  0  0  0  0  0
   10.1774  -17.7732   26.9408 O   0  0  0  0  0  0  0  0  0  0  0  0
    8.7440  -18.4715   25.3734 O   0  0  0  0  0  0  0  0  0  0  0  0
  1  2  1  0
  3  2  1  0
  4  5  1  0
  4  3  1  0
  5  1  1  0
  5  6  1  6
  7  6  2  0
  9  8  1  6
  9 11  1  0
 10  9  1  0
 12 11  1  1
 12 14  1  0
 12 13  1  0
 13  6  1  0
 14 15  2  0
 16 14  1  0
 16 17  1  0
 17 18  1  1
 19 18  1  0
 20 19  2  0
 21 20  1  0
 22 21  1  0
 22 27  2  0
 23 22  1  0
 24 23  2  0
 24 25  1  0
 25 26  2  0
 26 27  1  0
 27 19  1  0
 28 29  1  0
 28 17  1  0
 30 28  2  0
M  END
$$$$
