PLW.pdb
     RDKit          3D

 30 32  0  0  1  0  0  0  0  0999 V2000
    8.1151  -16.9303   16.6046 N   0  0  0  0  0  0  0  0  0  0  0  0
    8.1721  -15.5383   16.3040 C   0  0  0  0  0  0  0  0  0  0  0  0
    9.4497  -15.0257   16.8842 C   0  0  0  0  0  0  0  0  0  0  0  0
   10.0580  -16.1761   17.6401 C   0  0  0  0  0  0  0  0  0  0  0  0
    8.9387  -17.2232   17.7357 C   0  0  1  0  0  0  0  0  0  0  0  0
    8.2959  -17.0202   19.0501 C   0  0  0  0  0  0  0  0  0  0  0  0
    7.8461  -15.8492   19.2795 O   0  0  0  0  0  0  0  0  0  0  0  0
    4.4869  -17.5063   20.8240 C   0  0  0  0  0  0  0  0  0  0  0  0
    5.3125  -18.7850   20.5503 C   0  0  2  0  0  0  0  0  0  0  0  0
    4.4307  -19.9726   20.8866 C   0  0  0  0  0  0  0  0  0  0  0  0
    6.4667  -18.7761   21.5096 C   0  0  0  0  0  0  0  0  0  0  0  0
    7.4460  -17.6611   21.3486 C   0  0  2  0  0  0  0  0  0  0  0  0
    8.1287  -17.9641   20.0607 N   0  0  0  0  0  0  0  0  0  0  0  0
    8.4535  -17.5453   22.4155 C   0  0  0  0  0  0  0  0  0  0  0  0
    9.5013  -18.2659   22.3098 O   0  0  0  0  0  0  0  0  0  0  0  0
    8.3750  -16.7148   23.5394 N   0  0  0  0  0  0  0  0  0  0  0  0
    9.4567  -16.6117   24.5316 C   0  0  1  0  0  0  0  0  0  0  0  0
    9.4224  -15.2215   25.0620 C   0  0  0  0  0  0  0  0  0  0  0  0
    8.1215  -14.6953   25.4885 C   0  0  0  0  0  0  0  0  0  0  0  0
    6.9928  -15.4977   25.6813 C   0  0  0  0  0  0  0  0  0  0  0  0
    5.9822  -14.7072   26.0340 N   0  0  0  0  0  0  0  0  0  0  0  0
    6.3626  -13.4236   26.0907 C   0  0  0  0  0  0  0  0  0  0  0  0
    5.6821  -12.2578   26.4192 C   0  0  0  0  0  0  0  0  0  0  0  0
    6.4024  -11.0857   26.3917 C   0  0  0  0  0  0  0  0  0  0  0  0
    7.7404  -11.0422   26.0567 C   0  0  0  0  0  0  0  0  0  0  0  0
    8.3913  -12.2037   25.7359 C   0  0  0  0  0  0  0  0  0  0  0  0
    7.6992  -13.4037   25.7517 C   0  0  0  0  0  0  0  0  0  0  0  0
    9.3470  -17.6667   25.5425 C   0  0  0  0  0  0  0  0  0  0  0  0
   10.3607  -18.0320   26.4131 O   0  0  0  0  0  0  0  0  0  0  0  0
    8.2692  -18.3489   25.6894 O   0  0  0  0  0  0  0  0  0  0  0  0
  1  2  1  0
  3  2  1  0
  4  5  1  0
  4  3  1  0
  5  1  1  0
  5  6  1  1
  7  6  2  0
  9  8  1  1
  9 11  1  0
 10  9  1  0
 12 11  1  1
 12 14  1  0
 12 13  1  0
 13  6  1  0
 14 15  2  0
 16 14  1  0
 16 17  1  0
 17 18  1  1
 19 18  1  0
 20 19  2  0
 21 20  1  0
 22 21  1  0
 22 27  2  0
 23 22  1  0
 24 23  2  0
 24 25  1  0
 25 26  2  0
 26 27  1  0
 27 19  1  0
 28 29  1  0
 28 17  1  0
 30 28  2  0
M  END
$$$$
