PLW.pdb
     RDKit          3D

 30 32  0  0  1  0  0  0  0  0999 V2000
    7.4976  -18.8469   20.6202 N   0  0  0  0  0  0  0  0  0  0  0  0
    6.6196  -18.2752   19.6540 C   0  0  0  0  0  0  0  0  0  0  0  0
    7.3859  -18.1904   18.3745 C   0  0  0  0  0  0  0  0  0  0  0  0
    8.7888  -18.6300   18.6963 C   0  0  0  0  0  0  0  0  0  0  0  0
    8.8577  -18.6428   20.2304 C   0  0  1  0  0  0  0  0  0  0  0  0
    9.4367  -17.3432   20.6277 C   0  0  0  0  0  0  0  0  0  0  0  0
   10.6479  -17.1404   20.2842 O   0  0  0  0  0  0  0  0  0  0  0  0
    8.9581  -13.3874   19.3761 C   0  0  0  0  0  0  0  0  0  0  0  0
    7.8664  -13.8711   20.3589 C   0  0  2  0  0  0  0  0  0  0  0  0
    6.8282  -12.7695   20.4586 C   0  0  0  0  0  0  0  0  0  0  0  0
    8.5191  -14.0183   21.7023 C   0  0  0  0  0  0  0  0  0  0  0  0
    9.5249  -15.1141   21.8274 C   0  0  2  0  0  0  0  0  0  0  0  0
    8.8065  -16.3209   21.3334 N   0  0  0  0  0  0  0  0  0  0  0  0
   10.0174  -15.3678   23.1911 C   0  0  0  0  0  0  0  0  0  0  0  0
   10.8555  -14.5352   23.6736 O   0  0  0  0  0  0  0  0  0  0  0  0
    9.6518  -16.4379   24.0159 N   0  0  0  0  0  0  0  0  0  0  0  0
   10.1357  -16.5807   25.3982 C   0  0  1  0  0  0  0  0  0  0  0  0
    8.9335  -16.7496   26.2592 C   0  0  0  0  0  0  0  0  0  0  0  0
    7.7996  -15.8518   26.0163 C   0  0  0  0  0  0  0  0  0  0  0  0
    6.6139  -16.2599   25.3977 C   0  0  0  0  0  0  0  0  0  0  0  0
    5.8128  -15.2014   25.3062 N   0  0  0  0  0  0  0  0  0  0  0  0
    6.3868  -14.1078   25.8258 C   0  0  0  0  0  0  0  0  0  0  0  0
    5.9478  -12.7976   25.9709 C   0  0  0  0  0  0  0  0  0  0  0  0
    6.8087  -11.9149   26.5815 C   0  0  0  0  0  0  0  0  0  0  0  0
    8.0564  -12.2876   27.0382 C   0  0  0  0  0  0  0  0  0  0  0  0
    8.4689  -13.5845   26.8844 C   0  0  0  0  0  0  0  0  0  0  0  0
    7.6301  -14.5023   26.2735 C   0  0  0  0  0  0  0  0  0  0  0  0
   11.1303  -17.6518   25.5004 C   0  0  0  0  0  0  0  0  0  0  0  0
   11.4888  -18.4956   24.4619 O   0  0  0  0  0  0  0  0  0  0  0  0
   11.7522  -17.8905   26.5981 O   0  0  0  0  0  0  0  0  0  0  0  0
  1  2  1  0
  3  2  1  0
  4  5  1  0
  4  3  1  0
  5  1  1  0
  5  6  1  1
  7  6  2  0
  9  8  1  6
  9 11  1  0
 10  9  1  0
 12 11  1  1
 12 14  1  0
 12 13  1  0
 13  6  1  0
 14 15  2  0
 16 14  1  0
 16 17  1  0
 17 18  1  1
 19 18  1  0
 20 19  2  0
 21 20  1  0
 22 21  1  0
 22 27  2  0
 23 22  1  0
 24 23  2  0
 24 25  1  0
 25 26  2  0
 26 27  1  0
 27 19  1  0
 28 29  1  0
 28 17  1  0
 30 28  2  0
M  END
$$$$
