PLW.pdb
     RDKit          3D

 30 32  0  0  1  0  0  0  0  0999 V2000
   10.8506  -19.1266   18.9751 N   0  0  0  0  0  0  0  0  0  0  0  0
   10.3927  -18.6002   17.7323 C   0  0  0  0  0  0  0  0  0  0  0  0
   11.4373  -17.6419   17.2610 C   0  0  0  0  0  0  0  0  0  0  0  0
   12.4572  -17.5575   18.3645 C   0  0  0  0  0  0  0  0  0  0  0  0
   11.7894  -18.2296   19.5731 C   0  0  1  0  0  0  0  0  0  0  0  0
   11.1945  -17.1400   20.3738 C   0  0  0  0  0  0  0  0  0  0  0  0
   12.0028  -16.2485   20.7956 O   0  0  0  0  0  0  0  0  0  0  0  0
    6.0534  -14.2107   21.0908 C   0  0  0  0  0  0  0  0  0  0  0  0
    7.4843  -14.3243   21.6664 C   0  0  2  0  0  0  0  0  0  0  0  0
    8.3487  -13.3186   20.9298 C   0  0  0  0  0  0  0  0  0  0  0  0
    7.9838  -15.6996   21.3329 C   0  0  0  0  0  0  0  0  0  0  0  0
    9.3875  -16.0048   21.7384 C   0  0  2  0  0  0  0  0  0  0  0  0
    9.8537  -16.9818   20.7163 N   0  0  0  0  0  0  0  0  0  0  0  0
    9.5450  -16.5933   23.0784 C   0  0  0  0  0  0  0  0  0  0  0  0
    9.9463  -17.8031   23.1414 O   0  0  0  0  0  0  0  0  0  0  0  0
    9.2989  -15.9507   24.2972 N   0  0  0  0  0  0  0  0  0  0  0  0
    9.9547  -16.3460   25.5537 C   0  0  1  0  0  0  0  0  0  0  0  0
    9.3578  -15.5109   26.6314 C   0  0  0  0  0  0  0  0  0  0  0  0
    8.0310  -14.9377   26.3823 C   0  0  0  0  0  0  0  0  0  0  0  0
    6.9209  -15.7011   26.0080 C   0  0  0  0  0  0  0  0  0  0  0  0
    5.8933  -14.8739   25.8342 N   0  0  0  0  0  0  0  0  0  0  0  0
    6.2442  -13.6023   26.0694 C   0  0  0  0  0  0  0  0  0  0  0  0
    5.5305  -12.4108   26.0336 C   0  0  0  0  0  0  0  0  0  0  0  0
    6.2160  -11.2626   26.3577 C   0  0  0  0  0  0  0  0  0  0  0  0
    7.5513  -11.2663   26.7061 C   0  0  0  0  0  0  0  0  0  0  0  0
    8.2354  -12.4524   26.7344 C   0  0  0  0  0  0  0  0  0  0  0  0
    7.5794  -13.6296   26.4134 C   0  0  0  0  0  0  0  0  0  0  0  0
    9.8623  -17.7931   25.7640 C   0  0  0  0  0  0  0  0  0  0  0  0
    9.0485  -18.6447   25.0349 O   0  0  0  0  0  0  0  0  0  0  0  0
   10.5489  -18.3866   26.6723 O   0  0  0  0  0  0  0  0  0  0  0  0
  1  2  1  0
  3  2  1  0
  4  5  1  0
  4  3  1  0
  5  1  1  0
  5  6  1  1
  7  6  2  0
  9  8  1  6
  9 11  1  0
 10  9  1  0
 12 11  1  6
 12 14  1  0
 12 13  1  0
 13  6  1  0
 14 15  2  0
 16 14  1  0
 16 17  1  0
 17 18  1  1
 19 18  1  0
 20 19  2  0
 21 20  1  0
 22 21  1  0
 22 27  2  0
 23 22  1  0
 24 23  2  0
 24 25  1  0
 25 26  2  0
 26 27  1  0
 27 19  1  0
 28 29  1  0
 28 17  1  0
 30 28  2  0
M  END
$$$$
