PLW.pdb
     RDKit          3D

 30 32  0  0  1  0  0  0  0  0999 V2000
    6.9813  -18.9406   20.8313 N   0  0  0  0  0  0  0  0  0  0  0  0
    6.1428  -18.4016   19.8127 C   0  0  0  0  0  0  0  0  0  0  0  0
    6.9222  -18.4598   18.5396 C   0  0  0  0  0  0  0  0  0  0  0  0
    8.2968  -18.9464   18.9116 C   0  0  0  0  0  0  0  0  0  0  0  0
    8.3534  -18.8409   20.4426 C   0  0  1  0  0  0  0  0  0  0  0  0
    8.9987  -17.5465   20.7429 C   0  0  0  0  0  0  0  0  0  0  0  0
   10.2291  -17.4459   20.4234 O   0  0  0  0  0  0  0  0  0  0  0  0
    7.2743  -12.3011   20.2789 C   0  0  0  0  0  0  0  0  0  0  0  0
    7.9790  -13.6759   20.2075 C   0  0  2  0  0  0  0  0  0  0  0  0
    6.9941  -14.6574   19.6011 C   0  0  0  0  0  0  0  0  0  0  0  0
    8.2519  -14.1033   21.6200 C   0  0  0  0  0  0  0  0  0  0  0  0
    9.1947  -15.2481   21.7893 C   0  0  2  0  0  0  0  0  0  0  0  0
    8.4121  -16.4300   21.3340 N   0  0  0  0  0  0  0  0  0  0  0  0
    9.6672  -15.4802   23.1639 C   0  0  0  0  0  0  0  0  0  0  0  0
   10.4949  -14.6376   23.6470 O   0  0  0  0  0  0  0  0  0  0  0  0
    9.2929  -16.5396   23.9985 N   0  0  0  0  0  0  0  0  0  0  0  0
    9.8323  -16.7139   25.3564 C   0  0  1  0  0  0  0  0  0  0  0  0
    8.6665  -16.7484   26.2809 C   0  0  0  0  0  0  0  0  0  0  0  0
    7.6214  -15.7384   26.0848 C   0  0  0  0  0  0  0  0  0  0  0  0
    6.3392  -16.0392   25.6149 C   0  0  0  0  0  0  0  0  0  0  0  0
    5.6569  -14.9004   25.5254 N   0  0  0  0  0  0  0  0  0  0  0  0
    6.4011  -13.8534   25.9069 C   0  0  0  0  0  0  0  0  0  0  0  0
    6.1295  -12.4940   25.9991 C   0  0  0  0  0  0  0  0  0  0  0  0
    7.1431  -11.6847   26.4584 C   0  0  0  0  0  0  0  0  0  0  0  0
    8.3819  -12.1750   26.8179 C   0  0  0  0  0  0  0  0  0  0  0  0
    8.6279  -13.5186   26.7186 C   0  0  0  0  0  0  0  0  0  0  0  0
    7.6322  -14.3653   26.2594 C   0  0  0  0  0  0  0  0  0  0  0  0
   10.7171  -17.8798   25.4264 C   0  0  0  0  0  0  0  0  0  0  0  0
   11.4668  -18.2343   26.5361 O   0  0  0  0  0  0  0  0  0  0  0  0
   10.8651  -18.6735   24.4280 O   0  0  0  0  0  0  0  0  0  0  0  0
  1  2  1  0
  3  2  1  0
  4  5  1  0
  4  3  1  0
  5  1  1  0
  5  6  1  6
  7  6  2  0
  9  8  1  1
  9 11  1  0
 10  9  1  0
 12 11  1  1
 12 14  1  0
 12 13  1  0
 13  6  1  0
 14 15  2  0
 16 14  1  0
 16 17  1  0
 17 18  1  1
 19 18  1  0
 20 19  2  0
 21 20  1  0
 22 21  1  0
 22 27  2  0
 23 22  1  0
 24 23  2  0
 24 25  1  0
 25 26  2  0
 26 27  1  0
 27 19  1  0
 28 29  1  0
 28 17  1  0
 30 28  2  0
M  END
$$$$
