PLW.pdb
     RDKit          3D

 30 32  0  0  1  0  0  0  0  0999 V2000
    7.2254  -14.9789   19.8435 N   0  0  0  0  0  0  0  0  0  0  0  0
    6.3378  -13.8637   19.8391 C   0  0  0  0  0  0  0  0  0  0  0  0
    7.1824  -12.6435   19.6673 C   0  0  0  0  0  0  0  0  0  0  0  0
    8.6112  -13.1149   19.6992 C   0  0  0  0  0  0  0  0  0  0  0  0
    8.5403  -14.5593   20.2158 C   0  0  1  0  0  0  0  0  0  0  0  0
    8.7890  -14.4895   21.6702 C   0  0  0  0  0  0  0  0  0  0  0  0
    9.9223  -14.0237   22.0236 O   0  0  0  0  0  0  0  0  0  0  0  0
    7.8528  -12.3204   25.0927 C   0  0  0  0  0  0  0  0  0  0  0  0
    6.7221  -13.2908   24.6788 C   0  0  2  0  0  0  0  0  0  0  0  0
    5.5500  -13.0417   25.6092 C   0  0  0  0  0  0  0  0  0  0  0  0
    7.2254  -14.6827   24.9270 C   0  0  0  0  0  0  0  0  0  0  0  0
    8.3786  -15.1235   24.0880 C   0  0  2  0  0  0  0  0  0  0  0  0
    7.9246  -14.8752   22.6920 N   0  0  0  0  0  0  0  0  0  0  0  0
    8.7592  -16.5384   24.2292 C   0  0  0  0  0  0  0  0  0  0  0  0
    7.9720  -17.2912   24.8940 O   0  0  0  0  0  0  0  0  0  0  0  0
    9.9054  -17.1425   23.7000 N   0  0  0  0  0  0  0  0  0  0  0  0
   11.2025  -17.1374   24.3948 C   0  0  1  0  0  0  0  0  0  0  0  0
   11.2006  -15.9561   25.3000 C   0  0  0  0  0  0  0  0  0  0  0  0
   11.0618  -16.2096   26.7379 C   0  0  0  0  0  0  0  0  0  0  0  0
   10.9943  -17.4925   27.2899 C   0  0  0  0  0  0  0  0  0  0  0  0
   10.8406  -17.3660   28.6056 N   0  0  0  0  0  0  0  0  0  0  0  0
   10.8015  -16.0775   28.9715 C   0  0  0  0  0  0  0  0  0  0  0  0
   10.6732  -15.4576   30.2081 C   0  0  0  0  0  0  0  0  0  0  0  0
   10.6910  -14.0818   30.2215 C   0  0  0  0  0  0  0  0  0  0  0  0
   10.8289  -13.3281   29.0738 C   0  0  0  0  0  0  0  0  0  0  0  0
   10.9536  -13.9602   27.8653 C   0  0  0  0  0  0  0  0  0  0  0  0
   10.9393  -15.3445   27.8114 C   0  0  0  0  0  0  0  0  0  0  0  0
   11.4545  -18.4235   25.0501 C   0  0  0  0  0  0  0  0  0  0  0  0
   10.5318  -19.4523   25.1472 O   0  0  0  0  0  0  0  0  0  0  0  0
   12.5836  -18.6887   25.6010 O   0  0  0  0  0  0  0  0  0  0  0  0
  1  2  1  0
  3  2  1  0
  4  5  1  0
  4  3  1  0
  5  1  1  0
  5  6  1  1
  7  6  2  0
  9  8  1  1
  9 11  1  0
 10  9  1  0
 12 11  1  1
 12 14  1  0
 12 13  1  0
 13  6  1  0
 14 15  2  0
 16 14  1  0
 16 17  1  0
 17 18  1  1
 19 18  1  0
 20 19  2  0
 21 20  1  0
 22 21  1  0
 22 27  2  0
 23 22  1  0
 24 23  2  0
 24 25  1  0
 25 26  2  0
 26 27  1  0
 27 19  1  0
 28 29  1  0
 28 17  1  0
 30 28  2  0
M  END
$$$$
