PLW.pdb
     RDKit          3D

 30 32  0  0  1  0  0  0  0  0999 V2000
    8.3817  -19.2909   18.9198 N   0  0  0  0  0  0  0  0  0  0  0  0
    9.3082  -20.2534   19.4162 C   0  0  0  0  0  0  0  0  0  0  0  0
    8.9181  -20.5353   20.8304 C   0  0  0  0  0  0  0  0  0  0  0  0
    7.7940  -19.5877   21.1519 C   0  0  0  0  0  0  0  0  0  0  0  0
    7.7961  -18.5670   20.0045 C   0  0  1  0  0  0  0  0  0  0  0  0
    8.5801  -17.4103   20.4834 C   0  0  0  0  0  0  0  0  0  0  0  0
    9.8216  -17.4153   20.1926 O   0  0  0  0  0  0  0  0  0  0  0  0
    8.6268  -13.3526   19.1408 C   0  0  0  0  0  0  0  0  0  0  0  0
    7.4821  -13.7820   20.0878 C   0  0  2  0  0  0  0  0  0  0  0  0
    6.5081  -12.6222   20.1739 C   0  0  0  0  0  0  0  0  0  0  0  0
    8.0879  -13.9825   21.4461 C   0  0  0  0  0  0  0  0  0  0  0  0
    8.9774  -15.1714   21.5996 C   0  0  2  0  0  0  0  0  0  0  0  0
    8.1128  -16.3206   21.2144 N   0  0  0  0  0  0  0  0  0  0  0  0
    9.5054  -15.3954   22.9552 C   0  0  0  0  0  0  0  0  0  0  0  0
   10.4182  -14.6031   23.3646 O   0  0  0  0  0  0  0  0  0  0  0  0
    9.0996  -16.3966   23.8450 N   0  0  0  0  0  0  0  0  0  0  0  0
    9.7202  -16.5895   25.1652 C   0  0  1  0  0  0  0  0  0  0  0  0
    8.6109  -16.6676   26.1544 C   0  0  0  0  0  0  0  0  0  0  0  0
    7.5237  -15.6917   26.0256 C   0  0  0  0  0  0  0  0  0  0  0  0
    6.2331  -16.0287   25.6062 C   0  0  0  0  0  0  0  0  0  0  0  0
    5.5084  -14.9134   25.5706 N   0  0  0  0  0  0  0  0  0  0  0  0
    6.2321  -13.8482   25.9410 C   0  0  0  0  0  0  0  0  0  0  0  0
    5.9180  -12.5014   26.0735 C   0  0  0  0  0  0  0  0  0  0  0  0
    6.9224  -11.6656   26.5046 C   0  0  0  0  0  0  0  0  0  0  0  0
    8.1923  -12.1184   26.7990 C   0  0  0  0  0  0  0  0  0  0  0  0
    8.4800  -13.4503   26.6609 C   0  0  0  0  0  0  0  0  0  0  0  0
    7.4947  -14.3228   26.2283 C   0  0  0  0  0  0  0  0  0  0  0  0
   10.6295  -17.7384   25.1574 C   0  0  0  0  0  0  0  0  0  0  0  0
   10.8056  -18.5964   24.0842 O   0  0  0  0  0  0  0  0  0  0  0  0
   11.3434  -18.0389   26.1815 O   0  0  0  0  0  0  0  0  0  0  0  0
  1  2  1  0
  3  2  1  0
  4  5  1  0
  4  3  1  0
  5  1  1  0
  5  6  1  1
  7  6  2  0
  9  8  1  6
  9 11  1  0
 10  9  1  0
 12 11  1  1
 12 14  1  0
 12 13  1  0
 13  6  1  0
 14 15  2  0
 16 14  1  0
 16 17  1  0
 17 18  1  1
 19 18  1  0
 20 19  2  0
 21 20  1  0
 22 21  1  0
 22 27  2  0
 23 22  1  0
 24 23  2  0
 24 25  1  0
 25 26  2  0
 26 27  1  0
 27 19  1  0
 28 29  1  0
 28 17  1  0
 30 28  2  0
M  END
$$$$
