PLW.pdb
     RDKit          3D

 30 32  0  0  1  0  0  0  0  0999 V2000
    7.4890  -15.0580   19.1085 N   0  0  0  0  0  0  0  0  0  0  0  0
    6.5481  -13.9883   19.0653 C   0  0  0  0  0  0  0  0  0  0  0  0
    7.3351  -12.7312   18.8868 C   0  0  0  0  0  0  0  0  0  0  0  0
    8.7845  -13.1307   18.9558 C   0  0  0  0  0  0  0  0  0  0  0  0
    8.7738  -14.5673   19.4985 C   0  0  1  0  0  0  0  0  0  0  0  0
    8.9888  -14.4588   20.9559 C   0  0  0  0  0  0  0  0  0  0  0  0
   10.1437  -14.0632   21.3244 O   0  0  0  0  0  0  0  0  0  0  0  0
    5.6844  -13.8346   26.0001 C   0  0  0  0  0  0  0  0  0  0  0  0
    7.1459  -13.9763   25.5150 C   0  0  2  0  0  0  0  0  0  0  0  0
    7.7831  -12.6017   25.5931 C   0  0  0  0  0  0  0  0  0  0  0  0
    7.0919  -14.3826   24.0712 C   0  0  0  0  0  0  0  0  0  0  0  0
    8.4056  -14.6468   23.4137 C   0  0  2  0  0  0  0  0  0  0  0  0
    8.0718  -14.7404   21.9658 N   0  0  0  0  0  0  0  0  0  0  0  0
    9.0864  -15.8822   23.8347 C   0  0  0  0  0  0  0  0  0  0  0  0
    8.5534  -16.9892   23.4898 O   0  0  0  0  0  0  0  0  0  0  0  0
   10.2696  -15.9613   24.5781 N   0  0  0  0  0  0  0  0  0  0  0  0
   10.8758  -17.2411   24.9781 C   0  0  1  0  0  0  0  0  0  0  0  0
   11.9075  -16.9261   26.0035 C   0  0  0  0  0  0  0  0  0  0  0  0
   11.4373  -16.5974   27.3533 C   0  0  0  0  0  0  0  0  0  0  0  0
   11.2490  -17.5532   28.3564 C   0  0  0  0  0  0  0  0  0  0  0  0
   10.7909  -16.9285   29.4382 N   0  0  0  0  0  0  0  0  0  0  0  0
   10.6606  -15.6122   29.2241 C   0  0  0  0  0  0  0  0  0  0  0  0
   10.2430  -14.5667   30.0382 C   0  0  0  0  0  0  0  0  0  0  0  0
   10.2500  -13.3057   29.4877 C   0  0  0  0  0  0  0  0  0  0  0  0
   10.6489  -13.0628   28.1891 C   0  0  0  0  0  0  0  0  0  0  0  0
   11.0564  -14.1085   27.4042 C   0  0  0  0  0  0  0  0  0  0  0  0
   11.0623  -15.3930   27.9231 C   0  0  0  0  0  0  0  0  0  0  0  0
    9.8517  -18.2005   25.3996 C   0  0  0  0  0  0  0  0  0  0  0  0
    8.5930  -17.8559   25.8641 O   0  0  0  0  0  0  0  0  0  0  0  0
   10.0627  -19.4668   25.3702 O   0  0  0  0  0  0  0  0  0  0  0  0
  1  2  1  0
  3  2  1  0
  4  5  1  0
  4  3  1  0
  5  1  1  0
  5  6  1  1
  7  6  2  0
  9  8  1  6
  9 11  1  0
 10  9  1  0
 12 11  1  1
 12 14  1  0
 12 13  1  0
 13  6  1  0
 14 15  2  0
 16 14  1  0
 16 17  1  0
 17 18  1  1
 19 18  1  0
 20 19  2  0
 21 20  1  0
 22 21  1  0
 22 27  2  0
 23 22  1  0
 24 23  2  0
 24 25  1  0
 25 26  2  0
 26 27  1  0
 27 19  1  0
 28 29  1  0
 28 17  1  0
 30 28  2  0
M  END
$$$$
