PLW.pdb
     RDKit          3D

 30 32  0  0  1  0  0  0  0  0999 V2000
    7.6600  -16.9082   20.5045 N   0  0  0  0  0  0  0  0  0  0  0  0
    6.2384  -16.8571   20.5918 C   0  0  0  0  0  0  0  0  0  0  0  0
    5.8184  -15.5529   19.9965 C   0  0  0  0  0  0  0  0  0  0  0  0
    7.0875  -14.8092   19.6786 C   0  0  0  0  0  0  0  0  0  0  0  0
    8.1945  -15.5860   20.4061 C   0  0  1  0  0  0  0  0  0  0  0  0
    8.4034  -14.8955   21.6952 C   0  0  0  0  0  0  0  0  0  0  0  0
    8.2932  -13.6253   21.6752 O   0  0  0  0  0  0  0  0  0  0  0  0
    5.7096  -13.9642   26.1407 C   0  0  0  0  0  0  0  0  0  0  0  0
    7.1050  -13.4892   25.6731 C   0  0  2  0  0  0  0  0  0  0  0  0
    7.0091  -11.9987   25.4073 C   0  0  0  0  0  0  0  0  0  0  0  0
    7.3889  -14.1769   24.3697 C   0  0  0  0  0  0  0  0  0  0  0  0
    8.7741  -14.7046   24.1936 C   0  0  2  0  0  0  0  0  0  0  0  0
    8.7063  -15.4784   22.9235 N   0  0  0  0  0  0  0  0  0  0  0  0
    9.2578  -15.5833   25.2710 C   0  0  0  0  0  0  0  0  0  0  0  0
    8.9192  -15.2845   26.4645 O   0  0  0  0  0  0  0  0  0  0  0  0
   10.0550  -16.7228   25.1126 N   0  0  0  0  0  0  0  0  0  0  0  0
   11.5131  -16.6562   24.9268 C   0  0  1  0  0  0  0  0  0  0  0  0
   12.1296  -17.2226   26.1572 C   0  0  0  0  0  0  0  0  0  0  0  0
   11.4803  -16.9192   27.4368 C   0  0  0  0  0  0  0  0  0  0  0  0
   10.9248  -17.8964   28.2685 C   0  0  0  0  0  0  0  0  0  0  0  0
   10.3949  -17.2843   29.3244 N   0  0  0  0  0  0  0  0  0  0  0  0
   10.5609  -15.9565   29.2539 C   0  0  0  0  0  0  0  0  0  0  0  0
   10.2014  -14.9201   30.1065 C   0  0  0  0  0  0  0  0  0  0  0  0
   10.5536  -13.6463   29.7237 C   0  0  0  0  0  0  0  0  0  0  0  0
   11.2331  -13.3824   28.5519 C   0  0  0  0  0  0  0  0  0  0  0  0
   11.5772  -14.4194   27.7261 C   0  0  0  0  0  0  0  0  0  0  0  0
   11.2390  -15.7161   28.0773 C   0  0  0  0  0  0  0  0  0  0  0  0
   11.9150  -17.3026   23.6747 C   0  0  0  0  0  0  0  0  0  0  0  0
   11.0703  -18.0429   22.8639 O   0  0  0  0  0  0  0  0  0  0  0  0
   13.1189  -17.2274   23.2345 O   0  0  0  0  0  0  0  0  0  0  0  0
  1  2  1  0
  3  2  1  0
  4  5  1  0
  4  3  1  0
  5  1  1  0
  5  6  1  1
  7  6  2  0
  9  8  1  6
  9 11  1  0
 10  9  1  0
 12 11  1  1
 12 14  1  0
 12 13  1  0
 13  6  1  0
 14 15  2  0
 16 14  1  0
 16 17  1  0
 17 18  1  1
 19 18  1  0
 20 19  2  0
 21 20  1  0
 22 21  1  0
 22 27  2  0
 23 22  1  0
 24 23  2  0
 24 25  1  0
 25 26  2  0
 26 27  1  0
 27 19  1  0
 28 29  1  0
 28 17  1  0
 30 28  2  0
M  END
$$$$
