PLW.pdb
     RDKit          3D

 30 32  0  0  1  0  0  0  0  0999 V2000
    7.2195  -15.4566   18.9746 N   0  0  0  0  0  0  0  0  0  0  0  0
    6.1706  -14.4928   18.9272 C   0  0  0  0  0  0  0  0  0  0  0  0
    6.7790  -13.2198   18.4364 C   0  0  0  0  0  0  0  0  0  0  0  0
    8.2576  -13.4774   18.3256 C   0  0  0  0  0  0  0  0  0  0  0  0
    8.4860  -14.8006   19.0708 C   0  0  1  0  0  0  0  0  0  0  0  0
    8.9018  -14.4357   20.4405 C   0  0  0  0  0  0  0  0  0  0  0  0
   10.0316  -13.8542   20.5473 O   0  0  0  0  0  0  0  0  0  0  0  0
    6.4016  -13.7922   25.9479 C   0  0  0  0  0  0  0  0  0  0  0  0
    7.7590  -13.7125   25.2111 C   0  0  2  0  0  0  0  0  0  0  0  0
    8.0754  -12.2433   25.0048 C   0  0  0  0  0  0  0  0  0  0  0  0
    7.5637  -14.3402   23.8620 C   0  0  0  0  0  0  0  0  0  0  0  0
    8.7592  -14.3618   22.9684 C   0  0  2  0  0  0  0  0  0  0  0  0
    8.1973  -14.6567   21.6216 N   0  0  0  0  0  0  0  0  0  0  0  0
    9.7784  -15.3709   23.2997 C   0  0  0  0  0  0  0  0  0  0  0  0
   10.6748  -15.6053   22.4223 O   0  0  0  0  0  0  0  0  0  0  0  0
    9.8621  -16.1003   24.4913 N   0  0  0  0  0  0  0  0  0  0  0  0
   11.0322  -16.9199   24.8439 C   0  0  1  0  0  0  0  0  0  0  0  0
   10.7570  -17.5085   26.1829 C   0  0  0  0  0  0  0  0  0  0  0  0
    9.9247  -16.7274   27.1038 C   0  0  0  0  0  0  0  0  0  0  0  0
    8.5651  -16.9782   27.3131 C   0  0  0  0  0  0  0  0  0  0  0  0
    8.1094  -16.0759   28.1783 N   0  0  0  0  0  0  0  0  0  0  0  0
    9.0789  -15.2350   28.5637 C   0  0  0  0  0  0  0  0  0  0  0  0
    9.0928  -14.1610   29.4448 C   0  0  0  0  0  0  0  0  0  0  0  0
   10.2948  -13.5152   29.6228 C   0  0  0  0  0  0  0  0  0  0  0  0
   11.4485  -13.8965   28.9687 C   0  0  0  0  0  0  0  0  0  0  0  0
   11.4116  -14.9581   28.1042 C   0  0  0  0  0  0  0  0  0  0  0  0
   10.2194  -15.6329   27.8982 C   0  0  0  0  0  0  0  0  0  0  0  0
   11.3341  -17.8895   23.7877 C   0  0  0  0  0  0  0  0  0  0  0  0
   10.4388  -18.2955   22.8117 O   0  0  0  0  0  0  0  0  0  0  0  0
   12.4860  -18.4497   23.6973 O   0  0  0  0  0  0  0  0  0  0  0  0
  1  2  1  0
  3  2  1  0
  4  5  1  0
  4  3  1  0
  5  1  1  0
  5  6  1  1
  7  6  2  0
  9  8  1  1
  9 11  1  0
 10  9  1  0
 12 11  1  1
 12 14  1  0
 12 13  1  0
 13  6  1  0
 14 15  2  0
 16 14  1  0
 16 17  1  0
 17 18  1  1
 19 18  1  0
 20 19  2  0
 21 20  1  0
 22 21  1  0
 22 27  2  0
 23 22  1  0
 24 23  2  0
 24 25  1  0
 25 26  2  0
 26 27  1  0
 27 19  1  0
 28 29  1  0
 28 17  1  0
 30 28  2  0
M  END
$$$$
