QNA.pdb
     RDKit          3D

 23 22  0  0  1  0  0  0  0  0999 V2000
    8.5776  -12.7352   17.0383 N   0  0  0  0  0  0  0  0  0  0  0  0
    7.9364  -13.9970   17.1484 C   0  0  0  0  0  0  0  0  0  0  0  0
    7.1825  -14.4104   16.2313 O   0  0  0  0  0  0  0  0  0  0  0  0
    8.1397  -14.8392   18.3283 C   0  0  0  0  0  0  0  0  0  0  0  0
    9.0652  -14.2045   19.3462 C   0  0  0  0  0  0  0  0  0  0  0  0
    9.1492  -15.1704   20.5052 C   0  0  2  0  0  0  0  0  0  0  0  0
    8.0347  -16.0879   20.3612 N   0  0  0  0  0  0  0  0  0  0  0  0
    9.1000  -14.5128   21.8132 C   0  0  0  0  0  0  0  0  0  0  0  0
    9.8886  -13.5978   22.1721 O   0  0  0  0  0  0  0  0  0  0  0  0
    7.3763  -12.5823   26.3187 N   0  0  0  0  0  0  0  0  0  0  0  0
    6.3177  -13.2489   25.6289 C   0  0  0  0  0  0  0  0  0  0  0  0
    5.1729  -13.0760   26.0994 O   0  0  0  0  0  0  0  0  0  0  0  0
    6.5463  -14.0867   24.4418 C   0  0  0  0  0  0  0  0  0  0  0  0
    7.9854  -14.3082   24.0876 C   0  0  2  0  0  0  0  0  0  0  0  0
    8.1145  -14.9093   22.7548 N   0  0  0  0  0  0  0  0  0  0  0  0
    8.7766  -15.0272   25.0854 C   0  0  0  0  0  0  0  0  0  0  0  0
    9.2005  -14.5778   26.1728 O   0  0  0  0  0  0  0  0  0  0  0  0
    9.5047  -18.6502   25.5086 C   0  0  0  0  0  0  0  0  0  0  0  0
    9.9030  -17.1997   25.7118 C   0  0  2  0  0  0  0  0  0  0  0  0
    9.1122  -16.3871   24.8112 N   0  0  0  0  0  0  0  0  0  0  0  0
   11.3282  -16.9716   25.4016 C   0  0  0  0  0  0  0  0  0  0  0  0
   12.3558  -17.5417   26.1366 O   0  0  0  0  0  0  0  0  0  0  0  0
   11.6454  -16.2381   24.4410 O   0  0  0  0  0  0  0  0  0  0  0  0
  2  1  1  0
  2  4  1  0
  3  2  2  0
  5  4  1  0
  6  5  1  0
  6  7  1  1
  8  6  1  0
  8  9  2  0
 10 11  1  0
 11 13  1  0
 11 12  2  0
 14 13  1  1
 14 16  1  0
 14 15  1  0
 15  8  1  0
 16 20  1  0
 17 16  2  0
 19 18  1  6
 19 21  1  0
 20 19  1  0
 21 23  2  0
 21 22  1  0
M  END
$$$$
