QNA.pdb
     RDKit          3D

 23 22  0  0  1  0  0  0  0  0999 V2000
   10.7282  -21.7803   14.8713 N   0  0  0  0  0  0  0  0  0  0  0  0
   11.6337  -20.8522   14.2933 C   0  0  0  0  0  0  0  0  0  0  0  0
   11.3947  -20.3459   13.1677 O   0  0  0  0  0  0  0  0  0  0  0  0
   12.8599  -20.4676   14.9943 C   0  0  0  0  0  0  0  0  0  0  0  0
   12.5898  -19.8864   16.3672 C   0  0  0  0  0  0  0  0  0  0  0  0
   13.9401  -19.5835   16.9740 C   0  0  2  0  0  0  0  0  0  0  0  0
   14.8575  -20.5847   16.4634 N   0  0  0  0  0  0  0  0  0  0  0  0
   13.9346  -19.5995   18.4387 C   0  0  0  0  0  0  0  0  0  0  0  0
   13.3504  -18.7394   19.1507 O   0  0  0  0  0  0  0  0  0  0  0  0
   13.9833  -23.3984   23.1044 N   0  0  0  0  0  0  0  0  0  0  0  0
   13.6642  -22.1697   22.4494 C   0  0  0  0  0  0  0  0  0  0  0  0
   13.2522  -21.2527   23.1918 O   0  0  0  0  0  0  0  0  0  0  0  0
   13.8066  -21.9828   20.9974 C   0  0  0  0  0  0  0  0  0  0  0  0
   14.6032  -20.7821   20.5862 C   0  0  2  0  0  0  0  0  0  0  0  0
   14.6206  -20.6349   19.1259 N   0  0  0  0  0  0  0  0  0  0  0  0
   15.9470  -20.6918   21.1560 C   0  0  0  0  0  0  0  0  0  0  0  0
   16.2952  -21.0178   22.3122 O   0  0  0  0  0  0  0  0  0  0  0  0
   18.6873  -18.5135   20.0216 C   0  0  0  0  0  0  0  0  0  0  0  0
   18.2550  -19.7136   20.8442 C   0  0  2  0  0  0  0  0  0  0  0  0
   16.9876  -20.1814   20.3231 N   0  0  0  0  0  0  0  0  0  0  0  0
   18.0645  -19.3662   22.2665 C   0  0  0  0  0  0  0  0  0  0  0  0
   19.0135  -19.6408   23.2387 O   0  0  0  0  0  0  0  0  0  0  0  0
   17.0122  -18.8005   22.6324 O   0  0  0  0  0  0  0  0  0  0  0  0
  2  1  1  0
  2  4  1  0
  3  2  2  0
  5  4  1  0
  6  5  1  0
  6  7  1  6
  8  6  1  0
  8  9  2  0
 10 11  1  0
 11 13  1  0
 11 12  2  0
 14 13  1  6
 14 16  1  0
 14 15  1  0
 15  8  1  0
 16 20  1  0
 17 16  2  0
 19 18  1  6
 19 21  1  0
 20 19  1  0
 21 23  2  0
 21 22  1  0
M  END
$$$$
