QNA.pdb
     RDKit          3D

 23 22  0  0  1  0  0  0  0  0999 V2000
    7.7673  -12.8838   16.0262 N   0  0  0  0  0  0  0  0  0  0  0  0
    7.9351  -13.8018   14.9564 C   0  0  0  0  0  0  0  0  0  0  0  0
    8.1357  -13.3870   13.7868 O   0  0  0  0  0  0  0  0  0  0  0  0
    7.8780  -15.2453   15.1932 C   0  0  0  0  0  0  0  0  0  0  0  0
    7.6017  -15.5886   16.6428 C   0  0  0  0  0  0  0  0  0  0  0  0
    8.9397  -15.9130   17.2656 C   0  0  2  0  0  0  0  0  0  0  0  0
    9.5364  -16.9517   16.4472 N   0  0  0  0  0  0  0  0  0  0  0  0
    8.8391  -16.3581   18.6575 C   0  0  0  0  0  0  0  0  0  0  0  0
    8.2057  -15.7365   19.5521 O   0  0  0  0  0  0  0  0  0  0  0  0
    7.3605  -20.5548   20.2112 N   0  0  0  0  0  0  0  0  0  0  0  0
    8.6930  -20.3734   19.7294 C   0  0  0  0  0  0  0  0  0  0  0  0
    8.9626  -20.9518   18.6549 O   0  0  0  0  0  0  0  0  0  0  0  0
    9.6919  -19.5617   20.4413 C   0  0  0  0  0  0  0  0  0  0  0  0
    9.4411  -18.0845   20.4222 C   0  0  2  0  0  0  0  0  0  0  0  0
    9.4841  -17.5593   19.0523 N   0  0  0  0  0  0  0  0  0  0  0  0
   10.2680  -17.2929   21.3323 C   0  0  0  0  0  0  0  0  0  0  0  0
   11.4908  -17.0552   21.2201 O   0  0  0  0  0  0  0  0  0  0  0  0
    9.3533  -15.1186   24.2413 C   0  0  0  0  0  0  0  0  0  0  0  0
   10.3554  -15.9684   23.4815 C   0  0  2  0  0  0  0  0  0  0  0  0
    9.6343  -16.7205   22.4759 N   0  0  0  0  0  0  0  0  0  0  0  0
   11.0440  -16.9298   24.3653 C   0  0  0  0  0  0  0  0  0  0  0  0
   10.8348  -18.2980   24.2922 O   0  0  0  0  0  0  0  0  0  0  0  0
   11.8538  -16.5160   25.2224 O   0  0  0  0  0  0  0  0  0  0  0  0
  2  1  1  0
  2  4  1  0
  3  2  2  0
  5  4  1  0
  6  5  1  0
  6  7  1  6
  8  6  1  0
  8  9  2  0
 10 11  1  0
 11 13  1  0
 11 12  2  0
 14 13  1  6
 14 16  1  0
 14 15  1  0
 15  8  1  0
 16 20  1  0
 17 16  2  0
 19 18  1  1
 19 21  1  0
 20 19  1  0
 21 23  2  0
 21 22  1  0
M  END
$$$$
