QNA.pdb
     RDKit          3D

 23 22  0  0  1  0  0  0  0  0999 V2000
    7.2173  -12.3579   18.9103 N   0  0  0  0  0  0  0  0  0  0  0  0
    7.4531  -13.7402   18.6887 C   0  0  0  0  0  0  0  0  0  0  0  0
    6.9537  -14.3195   17.6910 O   0  0  0  0  0  0  0  0  0  0  0  0
    8.2798  -14.5161   19.6147 C   0  0  0  0  0  0  0  0  0  0  0  0
    8.7604  -13.6967   20.7950 C   0  0  0  0  0  0  0  0  0  0  0  0
    9.5976  -14.6247   21.6443 C   0  0  2  0  0  0  0  0  0  0  0  0
    9.6918  -15.8776   20.9190 N   0  0  0  0  0  0  0  0  0  0  0  0
    9.0391  -14.8514   22.9793 C   0  0  0  0  0  0  0  0  0  0  0  0
    8.5659  -13.9398   23.7094 O   0  0  0  0  0  0  0  0  0  0  0  0
    5.6540  -17.7178   24.2059 N   0  0  0  0  0  0  0  0  0  0  0  0
    6.9658  -18.2638   24.0580 C   0  0  0  0  0  0  0  0  0  0  0  0
    7.1122  -19.0704   23.1148 O   0  0  0  0  0  0  0  0  0  0  0  0
    8.0798  -17.9085   24.9503 C   0  0  0  0  0  0  0  0  0  0  0  0
    8.5368  -16.4842   24.8604 C   0  0  2  0  0  0  0  0  0  0  0  0
    9.0160  -16.1679   23.5096 N   0  0  0  0  0  0  0  0  0  0  0  0
    9.4897  -16.0620   25.8862 C   0  0  0  0  0  0  0  0  0  0  0  0
   10.7067  -16.3448   25.9417 O   0  0  0  0  0  0  0  0  0  0  0  0
    9.1094  -13.5252   28.6228 C   0  0  0  0  0  0  0  0  0  0  0  0
    9.8664  -14.6562   27.9508 C   0  0  2  0  0  0  0  0  0  0  0  0
    9.0023  -15.2391   26.9456 N   0  0  0  0  0  0  0  0  0  0  0  0
   10.2346  -15.7176   28.9087 C   0  0  0  0  0  0  0  0  0  0  0  0
   11.2757  -15.5824   29.8137 O   0  0  0  0  0  0  0  0  0  0  0  0
    9.5950  -16.7911   28.9228 O   0  0  0  0  0  0  0  0  0  0  0  0
  2  1  1  0
  2  4  1  0
  3  2  2  0
  5  4  1  0
  6  5  1  0
  6  7  1  6
  8  6  1  0
  8  9  2  0
 10 11  1  0
 11 13  1  0
 11 12  2  0
 14 13  1  6
 14 16  1  0
 14 15  1  0
 15  8  1  0
 16 20  1  0
 17 16  2  0
 19 18  1  1
 19 21  1  0
 20 19  1  0
 21 23  2  0
 21 22  1  0
M  END
$$$$
