QNA.pdb
     RDKit          3D

 23 22  0  0  1  0  0  0  0  0999 V2000
    8.0822  -13.2765   15.2066 N   0  0  0  0  0  0  0  0  0  0  0  0
    7.2384  -14.2269   15.8390 C   0  0  0  0  0  0  0  0  0  0  0  0
    6.7733  -15.1975   15.1894 O   0  0  0  0  0  0  0  0  0  0  0  0
    6.8941  -14.0961   17.2558 C   0  0  0  0  0  0  0  0  0  0  0  0
    7.6740  -12.9963   17.9469 C   0  0  0  0  0  0  0  0  0  0  0  0
    9.0882  -13.5073   18.0966 C   0  0  2  0  0  0  0  0  0  0  0  0
    9.4035  -14.2178   16.8717 N   0  0  0  0  0  0  0  0  0  0  0  0
    9.2679  -14.3863   19.2544 C   0  0  0  0  0  0  0  0  0  0  0  0
    9.0589  -14.0339   20.4460 O   0  0  0  0  0  0  0  0  0  0  0  0
    6.8593  -17.3537   20.4030 N   0  0  0  0  0  0  0  0  0  0  0  0
    7.9770  -17.7624   19.6128 C   0  0  0  0  0  0  0  0  0  0  0  0
    7.7266  -18.0233   18.4165 O   0  0  0  0  0  0  0  0  0  0  0  0
    9.3383  -17.8730   20.1588 C   0  0  0  0  0  0  0  0  0  0  0  0
   10.1337  -16.6031   20.1452 C   0  0  2  0  0  0  0  0  0  0  0  0
    9.7033  -15.7223   19.0528 N   0  0  0  0  0  0  0  0  0  0  0  0
   11.5865  -16.7690   20.1673 C   0  0  0  0  0  0  0  0  0  0  0  0
   12.2185  -17.8482   20.1683 O   0  0  0  0  0  0  0  0  0  0  0  0
   14.3528  -14.3563   19.5694 C   0  0  0  0  0  0  0  0  0  0  0  0
   13.8355  -15.6206   20.2308 C   0  0  2  0  0  0  0  0  0  0  0  0
   12.3884  -15.5885   20.1894 N   0  0  0  0  0  0  0  0  0  0  0  0
   14.2508  -15.7117   21.6447 C   0  0  0  0  0  0  0  0  0  0  0  0
   15.5664  -15.9210   22.0275 O   0  0  0  0  0  0  0  0  0  0  0  0
   13.3983  -15.5982   22.5512 O   0  0  0  0  0  0  0  0  0  0  0  0
  2  1  1  0
  2  4  1  0
  3  2  2  0
  5  4  1  0
  6  5  1  0
  6  7  1  6
  8  6  1  0
  8  9  2  0
 10 11  1  0
 11 13  1  0
 11 12  2  0
 14 13  1  6
 14 16  1  0
 14 15  1  0
 15  8  1  0
 16 20  1  0
 17 16  2  0
 19 18  1  1
 19 21  1  0
 20 19  1  0
 21 23  2  0
 21 22  1  0
M  END
$$$$
