QNA.pdb
     RDKit          3D

 23 22  0  0  1  0  0  0  0  0999 V2000
    9.3692  -14.7790   13.1314 N   0  0  0  0  0  0  0  0  0  0  0  0
    7.9497  -14.7731   13.1507 C   0  0  0  0  0  0  0  0  0  0  0  0
    7.2979  -15.3084   12.2186 O   0  0  0  0  0  0  0  0  0  0  0  0
    7.2191  -14.1454   14.2530 C   0  0  0  0  0  0  0  0  0  0  0  0
    8.1392  -13.5429   15.2951 C   0  0  0  0  0  0  0  0  0  0  0  0
    8.7121  -14.7017   16.0776 C   0  0  2  0  0  0  0  0  0  0  0  0
    7.5919  -15.5469   16.4456 N   0  0  0  0  0  0  0  0  0  0  0  0
    9.4493  -14.2863   17.2732 C   0  0  0  0  0  0  0  0  0  0  0  0
   10.3732  -13.4293   17.2693 O   0  0  0  0  0  0  0  0  0  0  0  0
    7.5528  -13.2152   20.3953 N   0  0  0  0  0  0  0  0  0  0  0  0
    7.9226  -14.3576   21.1692 C   0  0  0  0  0  0  0  0  0  0  0  0
    7.0998  -14.7087   22.0418 O   0  0  0  0  0  0  0  0  0  0  0  0
    9.1859  -15.0822   20.9628 C   0  0  0  0  0  0  0  0  0  0  0  0
    9.9469  -14.6951   19.7314 C   0  0  2  0  0  0  0  0  0  0  0  0
    9.1254  -14.8672   18.5273 N   0  0  0  0  0  0  0  0  0  0  0  0
   11.2630  -15.3150   19.5828 C   0  0  0  0  0  0  0  0  0  0  0  0
   11.5045  -16.5287   19.4017 O   0  0  0  0  0  0  0  0  0  0  0  0
   14.6011  -13.8968   18.8548 C   0  0  0  0  0  0  0  0  0  0  0  0
   13.7637  -14.9610   19.5403 C   0  0  2  0  0  0  0  0  0  0  0  0
   12.4075  -14.4648   19.6469 N   0  0  0  0  0  0  0  0  0  0  0  0
   14.2524  -15.2532   20.9024 C   0  0  0  0  0  0  0  0  0  0  0  0
   15.4667  -15.8756   21.1457 O   0  0  0  0  0  0  0  0  0  0  0  0
   13.5597  -14.9351   21.8926 O   0  0  0  0  0  0  0  0  0  0  0  0
  2  1  1  0
  2  4  1  0
  3  2  2  0
  5  4  1  0
  6  5  1  0
  6  7  1  1
  8  6  1  0
  8  9  2  0
 10 11  1  0
 11 13  1  0
 11 12  2  0
 14 13  1  1
 14 16  1  0
 14 15  1  0
 15  8  1  0
 16 20  1  0
 17 16  2  0
 19 18  1  1
 19 21  1  0
 20 19  1  0
 21 23  2  0
 21 22  1  0
M  END
$$$$
