QNA.pdb
     RDKit          3D

 23 22  0  0  1  0  0  0  0  0999 V2000
    7.0775  -15.0420   17.4338 N   0  0  0  0  0  0  0  0  0  0  0  0
    7.6589  -13.7594   17.2545 C   0  0  0  0  0  0  0  0  0  0  0  0
    7.9348  -13.3407   16.1017 O   0  0  0  0  0  0  0  0  0  0  0  0
    7.9478  -12.9014   18.4049 C   0  0  0  0  0  0  0  0  0  0  0  0
    7.4643  -13.4953   19.7122 C   0  0  0  0  0  0  0  0  0  0  0  0
    8.6747  -14.1149   20.3713 C   0  0  2  0  0  0  0  0  0  0  0  0
    9.0959  -15.2097   19.5178 N   0  0  0  0  0  0  0  0  0  0  0  0
    8.4115  -14.6006   21.7279 C   0  0  0  0  0  0  0  0  0  0  0  0
    8.2168  -13.8488   22.7203 O   0  0  0  0  0  0  0  0  0  0  0  0
    6.0658  -17.6835   25.7152 N   0  0  0  0  0  0  0  0  0  0  0  0
    6.8131  -18.2086   24.6168 C   0  0  0  0  0  0  0  0  0  0  0  0
    7.3098  -19.3417   24.7936 O   0  0  0  0  0  0  0  0  0  0  0  0
    6.9940  -17.4743   23.3552 C   0  0  0  0  0  0  0  0  0  0  0  0
    8.1952  -16.5798   23.3069 C   0  0  2  0  0  0  0  0  0  0  0  0
    8.3671  -15.9986   21.9701 N   0  0  0  0  0  0  0  0  0  0  0  0
    9.4382  -17.1660   23.8069 C   0  0  0  0  0  0  0  0  0  0  0  0
    9.6240  -17.6870   24.9286 O   0  0  0  0  0  0  0  0  0  0  0  0
   12.4800  -18.3074   22.0501 C   0  0  0  0  0  0  0  0  0  0  0  0
   11.8477  -17.7349   23.3055 C   0  0  2  0  0  0  0  0  0  0  0  0
   10.5723  -17.1543   22.9405 N   0  0  0  0  0  0  0  0  0  0  0  0
   12.6791  -16.6724   23.9052 C   0  0  0  0  0  0  0  0  0  0  0  0
   13.9311  -16.9166   24.4474 O   0  0  0  0  0  0  0  0  0  0  0  0
   12.2574  -15.4965   23.9363 O   0  0  0  0  0  0  0  0  0  0  0  0
  2  1  1  0
  2  4  1  0
  3  2  2  0
  5  4  1  0
  6  5  1  0
  6  7  1  6
  8  6  1  0
  8  9  2  0
 10 11  1  0
 11 13  1  0
 11 12  2  0
 14 13  1  6
 14 16  1  0
 14 15  1  0
 15  8  1  0
 16 20  1  0
 17 16  2  0
 19 18  1  6
 19 21  1  0
 20 19  1  0
 21 23  2  0
 21 22  1  0
M  END
$$$$
