QNA.pdb
     RDKit          3D

 23 22  0  0  1  0  0  0  0  0999 V2000
   10.2705  -13.0666   20.0012 N   0  0  0  0  0  0  0  0  0  0  0  0
    9.1606  -12.8042   19.1558 C   0  0  0  0  0  0  0  0  0  0  0  0
    9.3384  -12.4140   17.9741 O   0  0  0  0  0  0  0  0  0  0  0  0
    7.7913  -12.9820   19.6419 C   0  0  0  0  0  0  0  0  0  0  0  0
    7.7386  -13.4189   21.0917 C   0  0  0  0  0  0  0  0  0  0  0  0
    7.8855  -14.9228   21.0883 C   0  0  2  0  0  0  0  0  0  0  0  0
    6.7444  -15.4487   20.3630 N   0  0  0  0  0  0  0  0  0  0  0  0
    7.9446  -15.5030   22.4320 C   0  0  0  0  0  0  0  0  0  0  0  0
    6.9305  -15.7505   23.1380 O   0  0  0  0  0  0  0  0  0  0  0  0
   11.6599  -18.7366   26.0191 N   0  0  0  0  0  0  0  0  0  0  0  0
   10.3620  -18.3169   25.5947 C   0  0  0  0  0  0  0  0  0  0  0  0
    9.4350  -18.5223   26.4074 O   0  0  0  0  0  0  0  0  0  0  0  0
   10.1187  -17.6835   24.2897 C   0  0  0  0  0  0  0  0  0  0  0  0
    9.3678  -16.3878   24.3421 C   0  0  2  0  0  0  0  0  0  0  0  0
    9.2073  -15.8161   22.9999 N   0  0  0  0  0  0  0  0  0  0  0  0
    9.8780  -15.4016   25.2938 C   0  0  0  0  0  0  0  0  0  0  0  0
   11.0475  -14.9644   25.3667 O   0  0  0  0  0  0  0  0  0  0  0  0
    8.1595  -13.0052   27.5343 C   0  0  0  0  0  0  0  0  0  0  0  0
    9.3512  -13.9038   27.2585 C   0  0  2  0  0  0  0  0  0  0  0  0
    8.9626  -14.8670   26.2495 N   0  0  0  0  0  0  0  0  0  0  0  0
    9.7706  -14.6472   28.4631 C   0  0  0  0  0  0  0  0  0  0  0  0
   10.4815  -14.0589   29.4973 O   0  0  0  0  0  0  0  0  0  0  0  0
    9.4837  -15.8581   28.5773 O   0  0  0  0  0  0  0  0  0  0  0  0
  2  1  1  0
  2  4  1  0
  3  2  2  0
  5  4  1  0
  6  5  1  0
  6  7  1  1
  8  6  1  0
  8  9  2  0
 10 11  1  0
 11 13  1  0
 11 12  2  0
 14 13  1  6
 14 16  1  0
 14 15  1  0
 15  8  1  0
 16 20  1  0
 17 16  2  0
 19 18  1  1
 19 21  1  0
 20 19  1  0
 21 23  2  0
 21 22  1  0
M  END
$$$$
