QNA.pdb
     RDKit          3D

 23 22  0  0  1  0  0  0  0  0999 V2000
    8.8867  -20.9792   17.4017 N   0  0  0  0  0  0  0  0  0  0  0  0
   10.2243  -20.5267   17.5472 C   0  0  0  0  0  0  0  0  0  0  0  0
   11.0881  -20.8019   16.6763 O   0  0  0  0  0  0  0  0  0  0  0  0
   10.6232  -19.7330   18.7108 C   0  0  0  0  0  0  0  0  0  0  0  0
    9.4641  -19.4363   19.6403 C   0  0  0  0  0  0  0  0  0  0  0  0
   10.0406  -18.6694   20.8077 C   0  0  2  0  0  0  0  0  0  0  0  0
   11.4688  -18.5699   20.5730 N   0  0  0  0  0  0  0  0  0  0  0  0
    9.7816  -19.3029   22.1027 C   0  0  0  0  0  0  0  0  0  0  0  0
    8.6292  -19.5541   22.5465 O   0  0  0  0  0  0  0  0  0  0  0  0
   13.3417  -19.6431   25.1207 N   0  0  0  0  0  0  0  0  0  0  0  0
   13.1017  -20.9941   24.7234 C   0  0  0  0  0  0  0  0  0  0  0  0
   14.0965  -21.7501   24.7500 O   0  0  0  0  0  0  0  0  0  0  0  0
   11.7758  -21.4768   24.3080 C   0  0  0  0  0  0  0  0  0  0  0  0
   10.7239  -20.4169   24.1832 C   0  0  2  0  0  0  0  0  0  0  0  0
   10.8757  -19.6675   22.9303 N   0  0  0  0  0  0  0  0  0  0  0  0
   10.5872  -19.5258   25.3346 C   0  0  0  0  0  0  0  0  0  0  0  0
   11.3268  -18.5611   25.6287 O   0  0  0  0  0  0  0  0  0  0  0  0
    7.7849  -18.9943   27.7222 C   0  0  0  0  0  0  0  0  0  0  0  0
    9.2711  -18.9625   27.4158 C   0  0  2  0  0  0  0  0  0  0  0  0
    9.5019  -19.7622   26.2309 N   0  0  0  0  0  0  0  0  0  0  0  0
   10.0724  -19.5338   28.5164 C   0  0  0  0  0  0  0  0  0  0  0  0
   10.7850  -20.7159   28.3895 O   0  0  0  0  0  0  0  0  0  0  0  0
   10.1257  -18.9446   29.6170 O   0  0  0  0  0  0  0  0  0  0  0  0
  2  1  1  0
  2  4  1  0
  3  2  2  0
  5  4  1  0
  6  5  1  0
  6  7  1  6
  8  6  1  0
  8  9  2  0
 10 11  1  0
 11 13  1  0
 11 12  2  0
 14 13  1  1
 14 16  1  0
 14 15  1  0
 15  8  1  0
 16 20  1  0
 17 16  2  0
 19 18  1  1
 19 21  1  0
 20 19  1  0
 21 23  2  0
 21 22  1  0
M  END
$$$$
