QNA.pdb
     RDKit          3D

 23 22  0  0  1  0  0  0  0  0999 V2000
   13.5232  -16.0377   15.1150 N   0  0  0  0  0  0  0  0  0  0  0  0
   12.6570  -16.2244   14.0058 C   0  0  0  0  0  0  0  0  0  0  0  0
   13.0780  -16.0552   12.8335 O   0  0  0  0  0  0  0  0  0  0  0  0
   11.2606  -16.6164   14.2046 C   0  0  0  0  0  0  0  0  0  0  0  0
   10.9296  -16.8796   15.6595 C   0  0  0  0  0  0  0  0  0  0  0  0
    9.4435  -17.1473   15.7158 C   0  0  2  0  0  0  0  0  0  0  0  0
    8.8556  -16.4599   14.5816 N   0  0  0  0  0  0  0  0  0  0  0  0
    8.8197  -16.6964   16.9621 C   0  0  0  0  0  0  0  0  0  0  0  0
    8.3359  -15.5453   17.1318 O   0  0  0  0  0  0  0  0  0  0  0  0
    5.7432  -19.4940   18.3094 N   0  0  0  0  0  0  0  0  0  0  0  0
    7.0136  -19.5135   18.9623 C   0  0  0  0  0  0  0  0  0  0  0  0
    7.7599  -20.4705   18.6640 O   0  0  0  0  0  0  0  0  0  0  0  0
    7.4287  -18.4812   19.9244 C   0  0  0  0  0  0  0  0  0  0  0  0
    8.0530  -17.2614   19.3180 C   0  0  2  0  0  0  0  0  0  0  0  0
    8.7408  -17.5886   18.0633 N   0  0  0  0  0  0  0  0  0  0  0  0
    8.9026  -16.4769   20.2131 C   0  0  0  0  0  0  0  0  0  0  0  0
   10.1349  -16.6069   20.3832 O   0  0  0  0  0  0  0  0  0  0  0  0
    8.0801  -13.5481   22.4367 C   0  0  0  0  0  0  0  0  0  0  0  0
    8.9957  -14.6658   21.9715 C   0  0  2  0  0  0  0  0  0  0  0  0
    8.2823  -15.4480   20.9836 N   0  0  0  0  0  0  0  0  0  0  0  0
    9.3745  -15.5644   23.0800 C   0  0  0  0  0  0  0  0  0  0  0  0
   10.4077  -15.2771   23.9581 O   0  0  0  0  0  0  0  0  0  0  0  0
    8.7517  -16.6337   23.2535 O   0  0  0  0  0  0  0  0  0  0  0  0
  2  1  1  0
  2  4  1  0
  3  2  2  0
  5  4  1  0
  6  5  1  0
  6  7  1  6
  8  6  1  0
  8  9  2  0
 10 11  1  0
 11 13  1  0
 11 12  2  0
 14 13  1  1
 14 16  1  0
 14 15  1  0
 15  8  1  0
 16 20  1  0
 17 16  2  0
 19 18  1  1
 19 21  1  0
 20 19  1  0
 21 23  2  0
 21 22  1  0
M  END
$$$$
