QNA.pdb
     RDKit          3D

 23 22  0  0  1  0  0  0  0  0999 V2000
    6.0275  -20.5214   16.5271 N   0  0  0  0  0  0  0  0  0  0  0  0
    7.0744  -21.0962   17.2945 C   0  0  0  0  0  0  0  0  0  0  0  0
    7.4088  -22.2952   17.1186 O   0  0  0  0  0  0  0  0  0  0  0  0
    7.7832  -20.3065   18.3030 C   0  0  0  0  0  0  0  0  0  0  0  0
    6.9758  -19.1201   18.7889 C   0  0  0  0  0  0  0  0  0  0  0  0
    7.5660  -17.9009   18.1191 C   0  0  2  0  0  0  0  0  0  0  0  0
    8.3346  -18.3820   16.9867 N   0  0  0  0  0  0  0  0  0  0  0  0
    8.4153  -17.1047   19.0080 C   0  0  0  0  0  0  0  0  0  0  0  0
    9.6101  -17.3929   19.2859 O   0  0  0  0  0  0  0  0  0  0  0  0
    6.5672  -12.4450   19.0546 N   0  0  0  0  0  0  0  0  0  0  0  0
    7.8222  -13.0195   19.4229 C   0  0  0  0  0  0  0  0  0  0  0  0
    8.7480  -12.8705   18.5968 O   0  0  0  0  0  0  0  0  0  0  0  0
    8.0250  -13.7414   20.6883 C   0  0  0  0  0  0  0  0  0  0  0  0
    8.6425  -15.1001   20.5531 C   0  0  2  0  0  0  0  0  0  0  0  0
    7.8877  -15.9312   19.6076 N   0  0  0  0  0  0  0  0  0  0  0  0
    8.8984  -15.8040   21.8091 C   0  0  0  0  0  0  0  0  0  0  0  0
    8.0621  -16.0848   22.6956 O   0  0  0  0  0  0  0  0  0  0  0  0
   10.6810  -18.4627   22.8200 C   0  0  0  0  0  0  0  0  0  0  0  0
   10.6012  -17.0054   23.2366 C   0  0  2  0  0  0  0  0  0  0  0  0
   10.2363  -16.2255   22.0723 N   0  0  0  0  0  0  0  0  0  0  0  0
   11.8971  -16.5037   23.7353 C   0  0  0  0  0  0  0  0  0  0  0  0
   12.3895  -16.8191   24.9920 O   0  0  0  0  0  0  0  0  0  0  0  0
   12.5965  -15.7626   23.0121 O   0  0  0  0  0  0  0  0  0  0  0  0
  2  1  1  0
  2  4  1  0
  3  2  2  0
  5  4  1  0
  6  5  1  0
  6  7  1  6
  8  6  1  0
  8  9  2  0
 10 11  1  0
 11 13  1  0
 11 12  2  0
 14 13  1  1
 14 16  1  0
 14 15  1  0
 15  8  1  0
 16 20  1  0
 17 16  2  0
 19 18  1  6
 19 21  1  0
 20 19  1  0
 21 23  2  0
 21 22  1  0
M  END
$$$$
