QNA.pdb
     RDKit          3D

 23 22  0  0  1  0  0  0  0  0999 V2000
    8.8392  -12.2299   19.6665 N   0  0  0  0  0  0  0  0  0  0  0  0
    8.2029  -13.1824   18.8279 C   0  0  0  0  0  0  0  0  0  0  0  0
    8.5479  -13.3030   17.6251 O   0  0  0  0  0  0  0  0  0  0  0  0
    7.1356  -14.0403   19.3455 C   0  0  0  0  0  0  0  0  0  0  0  0
    6.9278  -13.8777   20.8374 C   0  0  0  0  0  0  0  0  0  0  0  0
    8.0488  -14.6371   21.5082 C   0  0  2  0  0  0  0  0  0  0  0  0
    8.1944  -15.8858   20.7842 N   0  0  0  0  0  0  0  0  0  0  0  0
    7.8036  -14.8990   22.9284 C   0  0  0  0  0  0  0  0  0  0  0  0
    7.2437  -14.0834   23.7090 O   0  0  0  0  0  0  0  0  0  0  0  0
    5.3682  -18.1769   24.1443 N   0  0  0  0  0  0  0  0  0  0  0  0
    6.7551  -18.5171   24.1062 C   0  0  0  0  0  0  0  0  0  0  0  0
    7.0890  -19.3253   23.2133 O   0  0  0  0  0  0  0  0  0  0  0  0
    7.7363  -17.9599   25.0498 C   0  0  0  0  0  0  0  0  0  0  0  0
    8.0034  -16.4934   24.8969 C   0  0  2  0  0  0  0  0  0  0  0  0
    8.2103  -16.1386   23.4878 N   0  0  0  0  0  0  0  0  0  0  0  0
    9.0588  -15.9524   25.7526 C   0  0  0  0  0  0  0  0  0  0  0  0
   10.2929  -16.0606   25.5812 O   0  0  0  0  0  0  0  0  0  0  0  0
    8.8949  -13.4957   28.5657 C   0  0  0  0  0  0  0  0  0  0  0  0
    9.6109  -14.6046   27.8164 C   0  0  2  0  0  0  0  0  0  0  0  0
    8.6624  -15.2191   26.9111 N   0  0  0  0  0  0  0  0  0  0  0  0
   10.1149  -15.6496   28.7294 C   0  0  0  0  0  0  0  0  0  0  0  0
    9.6770  -16.9637   28.6791 O   0  0  0  0  0  0  0  0  0  0  0  0
   10.9723  -15.3609   29.5913 O   0  0  0  0  0  0  0  0  0  0  0  0
  2  1  1  0
  2  4  1  0
  3  2  2  0
  5  4  1  0
  6  5  1  0
  6  7  1  6
  8  6  1  0
  8  9  2  0
 10 11  1  0
 11 13  1  0
 11 12  2  0
 14 13  1  6
 14 16  1  0
 14 15  1  0
 15  8  1  0
 16 20  1  0
 17 16  2  0
 19 18  1  1
 19 21  1  0
 20 19  1  0
 21 23  2  0
 21 22  1  0
M  END
$$$$
