QNA.pdb
     RDKit          3D

 23 22  0  0  1  0  0  0  0  0999 V2000
    7.8606  -12.9305   16.0277 N   0  0  0  0  0  0  0  0  0  0  0  0
    8.1317  -14.1927   15.4370 C   0  0  0  0  0  0  0  0  0  0  0  0
    8.0184  -14.3521   14.1952 O   0  0  0  0  0  0  0  0  0  0  0  0
    8.5472  -15.3300   16.2597 C   0  0  0  0  0  0  0  0  0  0  0  0
    9.5999  -14.9564   17.2832 C   0  0  0  0  0  0  0  0  0  0  0  0
    9.8581  -16.2004   18.1013 C   0  0  2  0  0  0  0  0  0  0  0  0
    8.7211  -17.0768   17.8922 N   0  0  0  0  0  0  0  0  0  0  0  0
   10.0343  -15.9290   19.5299 C   0  0  0  0  0  0  0  0  0  0  0  0
   11.0910  -15.4625   20.0336 O   0  0  0  0  0  0  0  0  0  0  0  0
    6.4916  -13.6435   21.0254 N   0  0  0  0  0  0  0  0  0  0  0  0
    7.5067  -13.9824   21.9717 C   0  0  0  0  0  0  0  0  0  0  0  0
    8.1637  -13.0216   22.4267 O   0  0  0  0  0  0  0  0  0  0  0  0
    7.7717  -15.3669   22.3915 C   0  0  0  0  0  0  0  0  0  0  0  0
    9.0477  -15.9557   21.8715 C   0  0  2  0  0  0  0  0  0  0  0  0
    8.9669  -16.1979   20.4261 N   0  0  0  0  0  0  0  0  0  0  0  0
    9.5394  -17.1300   22.5912 C   0  0  0  0  0  0  0  0  0  0  0  0
    9.0810  -18.2921   22.5327 O   0  0  0  0  0  0  0  0  0  0  0  0
   12.6989  -17.8180   24.3861 C   0  0  0  0  0  0  0  0  0  0  0  0
   11.1996  -18.0246   24.2717 C   0  0  2  0  0  0  0  0  0  0  0  0
   10.6605  -16.9557   23.4571 N   0  0  0  0  0  0  0  0  0  0  0  0
   10.5351  -17.9755   25.5891 C   0  0  0  0  0  0  0  0  0  0  0  0
   10.6840  -18.9716   26.5414 O   0  0  0  0  0  0  0  0  0  0  0  0
    9.8034  -17.0052   25.8802 O   0  0  0  0  0  0  0  0  0  0  0  0
  2  1  1  0
  2  4  1  0
  3  2  2  0
  5  4  1  0
  6  5  1  0
  6  7  1  1
  8  6  1  0
  8  9  2  0
 10 11  1  0
 11 13  1  0
 11 12  2  0
 14 13  1  1
 14 16  1  0
 14 15  1  0
 15  8  1  0
 16 20  1  0
 17 16  2  0
 19 18  1  1
 19 21  1  0
 20 19  1  0
 21 23  2  0
 21 22  1  0
M  END
$$$$
