YPY.pdb
     RDKit          3D

 32 34  0  0  1  0  0  0  0  0999 V2000
   10.4745  -12.7366  -10.0872 O   0  0  0  0  0  0  0  0  0  0  0  0
   10.4112  -13.9028   -9.3129 C   0  0  0  0  0  0  0  0  0  0  0  0
    9.2128  -14.3511   -8.8026 C   0  0  0  0  0  0  0  0  0  0  0  0
    9.1516  -15.5000   -8.0402 C   0  0  0  0  0  0  0  0  0  0  0  0
   10.2845  -16.2583   -7.7494 C   0  0  0  0  0  0  0  0  0  0  0  0
   10.1500  -17.4878   -6.9277 C   0  0  0  0  0  0  0  0  0  0  0  0
   10.1179  -18.6546   -7.8482 C   0  0  2  0  0  0  0  0  0  0  0  0
    8.9482  -18.6719   -8.6826 N   0  0  0  0  0  0  0  0  0  0  0  0
   10.3145  -19.9668   -7.2360 C   0  0  0  0  0  0  0  0  0  0  0  0
    9.2159  -20.6190   -7.0909 O   0  0  0  0  0  0  0  0  0  0  0  0
   11.4764  -15.8017   -8.2639 C   0  0  0  0  0  0  0  0  0  0  0  0
   11.5407  -14.6400   -9.0356 C   0  0  0  0  0  0  0  0  0  0  0  0
   11.4940  -20.5777   -6.8051 N   0  0  0  0  0  0  0  0  0  0  0  0
   12.8329  -20.0210   -6.8010 C   0  0  0  0  0  0  0  0  0  0  0  0
   13.7723  -21.1334   -6.4386 C   0  0  0  0  0  0  0  0  0  0  0  0
   12.9589  -22.4088   -6.4837 C   0  0  0  0  0  0  0  0  0  0  0  0
   11.5464  -21.9358   -6.2717 C   0  0  1  0  0  0  0  0  0  0  0  0
   11.2056  -21.9468   -4.8229 C   0  0  0  0  0  0  0  0  0  0  0  0
   11.5458  -20.9664   -4.1191 O   0  0  0  0  0  0  0  0  0  0  0  0
    4.7328  -20.8918   -5.4379 O   0  0  0  0  0  0  0  0  0  0  0  0
    5.7233  -21.5930   -4.7653 C   0  0  0  0  0  0  0  0  0  0  0  0
    6.1756  -21.1786   -3.5271 C   0  0  0  0  0  0  0  0  0  0  0  0
    7.1569  -21.8487   -2.8288 C   0  0  0  0  0  0  0  0  0  0  0  0
    7.7074  -22.9784   -3.3929 C   0  0  0  0  0  0  0  0  0  0  0  0
    8.7622  -23.7172   -2.6700 C   0  0  0  0  0  0  0  0  0  0  0  0
   10.0707  -23.0168   -2.8122 C   0  0  2  0  0  0  0  0  0  0  0  0
   10.5203  -23.0012   -4.2002 N   0  0  0  0  0  0  0  0  0  0  0  0
   11.1628  -23.5904   -2.0011 C   0  0  0  0  0  0  0  0  0  0  0  0
   11.0232  -23.6756   -0.7562 O   0  0  0  0  0  0  0  0  0  0  0  0
    7.2463  -23.3929   -4.6447 C   0  0  0  0  0  0  0  0  0  0  0  0
    6.2717  -22.7277   -5.3382 C   0  0  0  0  0  0  0  0  0  0  0  0
   12.3676  -24.0603   -2.5044 O   0  0  0  0  0  0  0  0  0  0  0  0
  2  1  1  0
  3  2  2  0
  4  3  1  0
  5 11  1  0
  5  4  2  0
  6  5  1  0
  7  6  1  0
  7  8  1  1
  9  7  1  0
  9 13  1  0
 10  9  2  0
 11 12  2  0
 12  2  1  0
 13 17  1  0
 13 14  1  0
 14 15  1  0
 16 17  1  0
 16 15  1  0
 17 18  1  1
 19 18  2  0
 20 21  1  0
 21 22  2  0
 21 31  1  0
 22 23  1  0
 23 24  2  0
 24 25  1  0
 26 25  1  6
 26 28  1  0
 26 27  1  0
 27 18  1  0
 28 32  1  0
 29 28  2  0
 30 24  1  0
 31 30  2  0
M  END
$$$$
