YPY.pdb
     RDKit          3D

 32 34  0  0  1  0  0  0  0  0999 V2000
   17.5694  -14.4623  -19.0615 O   0  0  0  0  0  0  0  0  0  0  0  0
   17.4737  -13.4735  -18.0731 C   0  0  0  0  0  0  0  0  0  0  0  0
   17.5653  -13.7952  -16.7368 C   0  0  0  0  0  0  0  0  0  0  0  0
   17.4712  -12.8204  -15.7642 C   0  0  0  0  0  0  0  0  0  0  0  0
   17.2807  -11.4757  -16.0781 C   0  0  0  0  0  0  0  0  0  0  0  0
   17.1933  -10.4752  -14.9843 C   0  0  0  0  0  0  0  0  0  0  0  0
   18.4233   -9.6414  -15.0246 C   0  0  2  0  0  0  0  0  0  0  0  0
   19.6147  -10.3949  -14.7459 N   0  0  0  0  0  0  0  0  0  0  0  0
   18.4041   -8.4214  -14.2205 C   0  0  0  0  0  0  0  0  0  0  0  0
   18.9780   -8.5673  -13.0792 O   0  0  0  0  0  0  0  0  0  0  0  0
   17.1907  -11.1652  -17.4157 C   0  0  0  0  0  0  0  0  0  0  0  0
   17.2859  -12.1495  -18.4013 C   0  0  0  0  0  0  0  0  0  0  0  0
   17.8635   -7.1691  -14.5201 N   0  0  0  0  0  0  0  0  0  0  0  0
   17.2708   -6.7328  -15.7694 C   0  0  0  0  0  0  0  0  0  0  0  0
   17.0297   -5.2566  -15.6518 C   0  0  0  0  0  0  0  0  0  0  0  0
   17.7374   -4.8091  -14.3912 C   0  0  0  0  0  0  0  0  0  0  0  0
   17.8192   -6.0647  -13.5661 C   0  0  1  0  0  0  0  0  0  0  0  0
   16.6306   -6.1824  -12.6780 C   0  0  0  0  0  0  0  0  0  0  0  0
   15.6200   -6.7891  -13.1055 O   0  0  0  0  0  0  0  0  0  0  0  0
   11.3481   -7.5390   -5.9849 O   0  0  0  0  0  0  0  0  0  0  0  0
   12.4287   -7.3824   -6.8410 C   0  0  0  0  0  0  0  0  0  0  0  0
   13.5283   -6.6313   -6.4722 C   0  0  0  0  0  0  0  0  0  0  0  0
   14.6198   -6.4533   -7.2947 C   0  0  0  0  0  0  0  0  0  0  0  0
   14.6097   -7.0507   -8.5359 C   0  0  0  0  0  0  0  0  0  0  0  0
   15.7639   -6.8770   -9.4406 C   0  0  0  0  0  0  0  0  0  0  0  0
   15.4778   -5.8086  -10.4404 C   0  0  2  0  0  0  0  0  0  0  0  0
   16.5812   -5.6480  -11.3815 N   0  0  0  0  0  0  0  0  0  0  0  0
   15.2003   -4.4818   -9.8553 C   0  0  0  0  0  0  0  0  0  0  0  0
   16.1522   -3.6877   -9.6557 O   0  0  0  0  0  0  0  0  0  0  0  0
   13.4956   -7.8091   -8.9033 C   0  0  0  0  0  0  0  0  0  0  0  0
   12.4117   -7.9862   -8.0867 C   0  0  0  0  0  0  0  0  0  0  0  0
   13.9436   -4.0162   -9.4954 O   0  0  0  0  0  0  0  0  0  0  0  0
  2  1  1  0
  3  2  2  0
  4  3  1  0
  5 11  1  0
  5  4  2  0
  6  5  1  0
  7  6  1  0
  7  8  1  1
  9  7  1  0
  9 13  1  0
 10  9  2  0
 11 12  2  0
 12  2  1  0
 13 17  1  0
 13 14  1  0
 14 15  1  0
 16 17  1  0
 16 15  1  0
 17 18  1  1
 19 18  2  0
 20 21  1  0
 21 22  2  0
 21 31  1  0
 22 23  1  0
 23 24  2  0
 24 25  1  0
 26 25  1  1
 26 28  1  0
 26 27  1  0
 27 18  1  0
 28 32  1  0
 29 28  2  0
 30 24  1  0
 31 30  2  0
M  END
$$$$
