YPY.pdb
     RDKit          3D

 32 34  0  0  1  0  0  0  0  0999 V2000
   19.8349  -16.3817  -17.4888 O   0  0  0  0  0  0  0  0  0  0  0  0
   20.5394  -17.3568  -16.7702 C   0  0  0  0  0  0  0  0  0  0  0  0
   21.5423  -17.0056  -15.8936 C   0  0  0  0  0  0  0  0  0  0  0  0
   22.2353  -17.9670  -15.1862 C   0  0  0  0  0  0  0  0  0  0  0  0
   21.9612  -19.3272  -15.3193 C   0  0  0  0  0  0  0  0  0  0  0  0
   22.7400  -20.3109  -14.5251 C   0  0  0  0  0  0  0  0  0  0  0  0
   23.9606  -20.6622  -15.2974 C   0  0  2  0  0  0  0  0  0  0  0  0
   23.7127  -21.6539  -16.3073 N   0  0  0  0  0  0  0  0  0  0  0  0
   25.1379  -21.0301  -14.5140 C   0  0  0  0  0  0  0  0  0  0  0  0
   25.2131  -22.2941  -14.2906 O   0  0  0  0  0  0  0  0  0  0  0  0
   20.9577  -19.6672  -16.1974 C   0  0  0  0  0  0  0  0  0  0  0  0
   20.2551  -18.6965  -16.9139 C   0  0  0  0  0  0  0  0  0  0  0  0
   26.1496  -20.2181  -13.9971 N   0  0  0  0  0  0  0  0  0  0  0  0
   26.3537  -18.8004  -14.2229 C   0  0  0  0  0  0  0  0  0  0  0  0
   27.6800  -18.4437  -13.6189 C   0  0  0  0  0  0  0  0  0  0  0  0
   28.3508  -19.7525  -13.2623 C   0  0  0  0  0  0  0  0  0  0  0  0
   27.2005  -20.7106  -13.1112 C   0  0  1  0  0  0  0  0  0  0  0  0
   26.7294  -20.7399  -11.6996 C   0  0  0  0  0  0  0  0  0  0  0  0
   25.8082  -19.9608  -11.3583 O   0  0  0  0  0  0  0  0  0  0  0  0
   27.7526  -19.3221   -3.3553 O   0  0  0  0  0  0  0  0  0  0  0  0
   27.9224  -19.7706   -4.6572 C   0  0  0  0  0  0  0  0  0  0  0  0
   28.7155  -19.0787   -5.5526 C   0  0  0  0  0  0  0  0  0  0  0  0
   28.9083  -19.4929   -6.8529 C   0  0  0  0  0  0  0  0  0  0  0  0
   28.2819  -20.6454   -7.2735 C   0  0  0  0  0  0  0  0  0  0  0  0
   28.4676  -21.1139   -8.6616 C   0  0  0  0  0  0  0  0  0  0  0  0
   27.1470  -21.4187   -9.2829 C   0  0  2  0  0  0  0  0  0  0  0  0
   27.2640  -21.5976  -10.7263 N   0  0  0  0  0  0  0  0  0  0  0  0
   26.1096  -20.3949   -9.0479 C   0  0  0  0  0  0  0  0  0  0  0  0
   25.0232  -20.7326   -8.5165 O   0  0  0  0  0  0  0  0  0  0  0  0
   27.4815  -21.3409   -6.3641 C   0  0  0  0  0  0  0  0  0  0  0  0
   27.2901  -20.9299   -5.0727 C   0  0  0  0  0  0  0  0  0  0  0  0
   26.2291  -19.0503   -9.3694 O   0  0  0  0  0  0  0  0  0  0  0  0
  2  1  1  0
  3  2  2  0
  4  3  1  0
  5 11  1  0
  5  4  2  0
  6  5  1  0
  7  6  1  0
  7  8  1  6
  9  7  1  0
  9 13  1  0
 10  9  2  0
 11 12  2  0
 12  2  1  0
 13 17  1  0
 13 14  1  0
 14 15  1  0
 16 17  1  0
 16 15  1  0
 17 18  1  1
 19 18  2  0
 20 21  1  0
 21 22  2  0
 21 31  1  0
 22 23  1  0
 23 24  2  0
 24 25  1  0
 26 25  1  6
 26 28  1  0
 26 27  1  0
 27 18  1  0
 28 32  1  0
 29 28  2  0
 30 24  1  0
 31 30  2  0
M  END
$$$$
