YPY.pdb
     RDKit          3D

 32 34  0  0  1  0  0  0  0  0999 V2000
   32.6737  -10.7306  -18.0527 O   0  0  0  0  0  0  0  0  0  0  0  0
   31.2783  -10.8479  -18.1056 C   0  0  0  0  0  0  0  0  0  0  0  0
   30.4797  -10.2499  -17.1557 C   0  0  0  0  0  0  0  0  0  0  0  0
   29.1054  -10.3659  -17.2090 C   0  0  0  0  0  0  0  0  0  0  0  0
   28.4603  -11.0853  -18.2137 C   0  0  0  0  0  0  0  0  0  0  0  0
   26.9777  -11.1671  -18.2172 C   0  0  0  0  0  0  0  0  0  0  0  0
   26.4656  -10.1876  -19.2113 C   0  0  2  0  0  0  0  0  0  0  0  0
   26.6191   -8.8257  -18.7793 N   0  0  0  0  0  0  0  0  0  0  0  0
   25.1042  -10.4082  -19.6944 C   0  0  0  0  0  0  0  0  0  0  0  0
   24.2103   -9.9421  -18.8963 O   0  0  0  0  0  0  0  0  0  0  0  0
   29.2672  -11.6785  -19.1574 C   0  0  0  0  0  0  0  0  0  0  0  0
   30.6576  -11.5624  -19.1058 C   0  0  0  0  0  0  0  0  0  0  0  0
   24.6677  -11.0355  -20.8632 N   0  0  0  0  0  0  0  0  0  0  0  0
   25.4731  -11.5053  -21.9736 C   0  0  0  0  0  0  0  0  0  0  0  0
   24.5265  -11.9148  -23.0633 C   0  0  0  0  0  0  0  0  0  0  0  0
   23.1571  -11.4269  -22.6427 C   0  0  0  0  0  0  0  0  0  0  0  0
   23.2637  -11.3193  -21.1457 C   0  0  1  0  0  0  0  0  0  0  0  0
   22.8429  -12.5930  -20.5009 C   0  0  0  0  0  0  0  0  0  0  0  0
   23.7234  -13.4358  -20.2065 O   0  0  0  0  0  0  0  0  0  0  0  0
   17.6615  -18.9662  -17.3061 O   0  0  0  0  0  0  0  0  0  0  0  0
   18.1981  -17.7379  -17.6642 C   0  0  0  0  0  0  0  0  0  0  0  0
   17.8237  -17.1102  -18.8369 C   0  0  0  0  0  0  0  0  0  0  0  0
   18.3342  -15.8905  -19.2260 C   0  0  0  0  0  0  0  0  0  0  0  0
   19.2565  -15.2751  -18.4085 C   0  0  0  0  0  0  0  0  0  0  0  0
   19.8230  -13.9684  -18.7990 C   0  0  0  0  0  0  0  0  0  0  0  0
   21.0326  -14.1651  -19.6483 C   0  0  2  0  0  0  0  0  0  0  0  0
   21.5068  -12.9018  -20.2035 N   0  0  0  0  0  0  0  0  0  0  0  0
   20.8431  -15.0991  -20.7758 C   0  0  0  0  0  0  0  0  0  0  0  0
   20.3627  -14.6706  -21.8538 O   0  0  0  0  0  0  0  0  0  0  0  0
   19.6312  -15.9141  -17.2242 C   0  0  0  0  0  0  0  0  0  0  0  0
   19.1242  -17.1251  -16.8375 C   0  0  0  0  0  0  0  0  0  0  0  0
   21.1586  -16.4503  -20.7534 O   0  0  0  0  0  0  0  0  0  0  0  0
  2  1  1  0
  3  2  2  0
  4  3  1  0
  5 11  1  0
  5  4  2  0
  6  5  1  0
  7  6  1  0
  7  8  1  1
  9  7  1  0
  9 13  1  0
 10  9  2  0
 11 12  2  0
 12  2  1  0
 13 17  1  0
 13 14  1  0
 14 15  1  0
 16 17  1  0
 16 15  1  0
 17 18  1  1
 19 18  2  0
 20 21  1  0
 21 22  2  0
 21 31  1  0
 22 23  1  0
 23 24  2  0
 24 25  1  0
 26 25  1  6
 26 28  1  0
 26 27  1  0
 27 18  1  0
 28 32  1  0
 29 28  2  0
 30 24  1  0
 31 30  2  0
M  END
$$$$
