YPY.pdb
     RDKit          3D

 32 34  0  0  1  0  0  0  0  0999 V2000
   16.0382  -17.6913  -17.5957 O   0  0  0  0  0  0  0  0  0  0  0  0
   16.7543  -16.5166  -17.3294 C   0  0  0  0  0  0  0  0  0  0  0  0
   17.9196  -16.5472  -16.5954 C   0  0  0  0  0  0  0  0  0  0  0  0
   18.6241  -15.3895  -16.3339 C   0  0  0  0  0  0  0  0  0  0  0  0
   18.1996  -14.1435  -16.7925 C   0  0  0  0  0  0  0  0  0  0  0  0
   19.0065  -12.9364  -16.4812 C   0  0  0  0  0  0  0  0  0  0  0  0
   19.5221  -12.3854  -17.7620 C   0  0  2  0  0  0  0  0  0  0  0  0
   20.5882  -13.1733  -18.3166 N   0  0  0  0  0  0  0  0  0  0  0  0
   19.8966  -10.9729  -17.7541 C   0  0  0  0  0  0  0  0  0  0  0  0
   21.1449  -10.7894  -17.5068 O   0  0  0  0  0  0  0  0  0  0  0  0
   17.0346  -14.1241  -17.5246 C   0  0  0  0  0  0  0  0  0  0  0  0
   16.3203  -15.2939  -17.7906 C   0  0  0  0  0  0  0  0  0  0  0  0
   19.1046   -9.8433  -17.9707 N   0  0  0  0  0  0  0  0  0  0  0  0
   17.7199   -9.7975  -18.3986 C   0  0  0  0  0  0  0  0  0  0  0  0
   17.3920   -8.3606  -18.6793 C   0  0  0  0  0  0  0  0  0  0  0  0
   18.7056   -7.6099  -18.6452 C   0  0  0  0  0  0  0  0  0  0  0  0
   19.5872   -8.4775  -17.7883 C   0  0  1  0  0  0  0  0  0  0  0  0
   19.4890   -8.0697  -16.3603 C   0  0  0  0  0  0  0  0  0  0  0  0
   18.7257   -8.7149  -15.6033 O   0  0  0  0  0  0  0  0  0  0  0  0
   20.6603   -5.1419   -8.3017 O   0  0  0  0  0  0  0  0  0  0  0  0
   20.8208   -5.5625   -9.6141 C   0  0  0  0  0  0  0  0  0  0  0  0
   21.2530   -4.6906  -10.5951 C   0  0  0  0  0  0  0  0  0  0  0  0
   21.4246   -5.0713  -11.9085 C   0  0  0  0  0  0  0  0  0  0  0  0
   21.1521   -6.3768  -12.2535 C   0  0  0  0  0  0  0  0  0  0  0  0
   21.3246   -6.8146  -13.6533 C   0  0  0  0  0  0  0  0  0  0  0  0
   20.0965   -6.5113  -14.4424 C   0  0  2  0  0  0  0  0  0  0  0  0
   20.2091   -6.9964  -15.8139 N   0  0  0  0  0  0  0  0  0  0  0  0
   19.7504   -5.0777  -14.5085 C   0  0  0  0  0  0  0  0  0  0  0  0
   19.0196   -4.5809  -13.6164 O   0  0  0  0  0  0  0  0  0  0  0  0
   20.7157   -7.2539  -11.2577 C   0  0  0  0  0  0  0  0  0  0  0  0
   20.5455   -6.8762   -9.9533 C   0  0  0  0  0  0  0  0  0  0  0  0
   20.1732   -4.2002  -15.4968 O   0  0  0  0  0  0  0  0  0  0  0  0
  2  1  1  0
  3  2  2  0
  4  3  1  0
  5 11  1  0
  5  4  2  0
  6  5  1  0
  7  6  1  0
  7  8  1  1
  9  7  1  0
  9 13  1  0
 10  9  2  0
 11 12  2  0
 12  2  1  0
 13 17  1  0
 13 14  1  0
 14 15  1  0
 16 17  1  0
 16 15  1  0
 17 18  1  1
 19 18  2  0
 20 21  1  0
 21 22  2  0
 21 31  1  0
 22 23  1  0
 23 24  2  0
 24 25  1  0
 26 25  1  6
 26 28  1  0
 26 27  1  0
 27 18  1  0
 28 32  1  0
 29 28  2  0
 30 24  1  0
 31 30  2  0
M  END
$$$$
