YPY.pdb
     RDKit          3D

 32 34  0  0  1  0  0  0  0  0999 V2000
   36.2452  -15.4094  -20.4383 O   0  0  0  0  0  0  0  0  0  0  0  0
   35.5426  -14.2368  -20.1299 C   0  0  0  0  0  0  0  0  0  0  0  0
   36.0825  -13.2859  -19.2922 C   0  0  0  0  0  0  0  0  0  0  0  0
   35.3896  -12.1313  -18.9893 C   0  0  0  0  0  0  0  0  0  0  0  0
   34.1226  -11.8691  -19.5080 C   0  0  0  0  0  0  0  0  0  0  0  0
   33.4324  -10.6049  -19.1472 C   0  0  0  0  0  0  0  0  0  0  0  0
   33.1212  -10.6495  -17.6943 C   0  0  2  0  0  0  0  0  0  0  0  0
   32.1718  -11.6753  -17.3608 N   0  0  0  0  0  0  0  0  0  0  0  0
   32.7271   -9.3845  -17.0782 C   0  0  0  0  0  0  0  0  0  0  0  0
   31.4560   -9.2856  -16.9115 O   0  0  0  0  0  0  0  0  0  0  0  0
   33.5925  -12.8253  -20.3437 C   0  0  0  0  0  0  0  0  0  0  0  0
   34.2916  -13.9939  -20.6517 C   0  0  0  0  0  0  0  0  0  0  0  0
   33.5213   -8.3126  -16.6654 N   0  0  0  0  0  0  0  0  0  0  0  0
   34.9587   -8.1706  -16.7933 C   0  0  0  0  0  0  0  0  0  0  0  0
   35.3518   -6.9462  -16.0202 C   0  0  0  0  0  0  0  0  0  0  0  0
   34.1293   -6.5309  -15.2308 C   0  0  0  0  0  0  0  0  0  0  0  0
   32.9864   -7.1224  -16.0104 C   0  0  1  0  0  0  0  0  0  0  0  0
   32.4830   -6.1480  -17.0166 C   0  0  0  0  0  0  0  0  0  0  0  0
   32.9909   -6.1530  -18.1629 O   0  0  0  0  0  0  0  0  0  0  0  0
   27.3708   -0.3204  -21.1479 O   0  0  0  0  0  0  0  0  0  0  0  0
   27.8920   -1.2033  -20.2131 C   0  0  0  0  0  0  0  0  0  0  0  0
   27.8837   -2.5668  -20.4372 C   0  0  0  0  0  0  0  0  0  0  0  0
   28.3921   -3.4744  -19.5331 C   0  0  0  0  0  0  0  0  0  0  0  0
   28.9297   -2.9978  -18.3577 C   0  0  0  0  0  0  0  0  0  0  0  0
   29.4807   -3.9456  -17.3683 C   0  0  0  0  0  0  0  0  0  0  0  0
   30.8885   -4.2923  -17.7163 C   0  0  2  0  0  0  0  0  0  0  0  0
   31.4651   -5.2200  -16.7489 N   0  0  0  0  0  0  0  0  0  0  0  0
   31.7980   -3.1334  -17.8127 C   0  0  0  0  0  0  0  0  0  0  0  0
   31.8570   -2.4872  -18.8876 O   0  0  0  0  0  0  0  0  0  0  0  0
   28.9356   -1.6185  -18.1365 C   0  0  0  0  0  0  0  0  0  0  0  0
   28.4311   -0.7171  -19.0343 C   0  0  0  0  0  0  0  0  0  0  0  0
   32.6189   -2.6772  -16.7911 O   0  0  0  0  0  0  0  0  0  0  0  0
  2  1  1  0
  3  2  2  0
  4  3  1  0
  5 11  1  0
  5  4  2  0
  6  5  1  0
  7  6  1  0
  7  8  1  6
  9  7  1  0
  9 13  1  0
 10  9  2  0
 11 12  2  0
 12  2  1  0
 13 17  1  0
 13 14  1  0
 14 15  1  0
 16 17  1  0
 16 15  1  0
 17 18  1  6
 19 18  2  0
 20 21  1  0
 21 22  2  0
 21 31  1  0
 22 23  1  0
 23 24  2  0
 24 25  1  0
 26 25  1  1
 26 28  1  0
 26 27  1  0
 27 18  1  0
 28 32  1  0
 29 28  2  0
 30 24  1  0
 31 30  2  0
M  END
$$$$
