YPY.pdb
     RDKit          3D

 32 34  0  0  1  0  0  0  0  0999 V2000
   22.5970  -15.1790  -20.4377 O   0  0  0  0  0  0  0  0  0  0  0  0
   22.8384  -15.8660  -19.2404 C   0  0  0  0  0  0  0  0  0  0  0  0
   24.1080  -16.2820  -18.9050 C   0  0  0  0  0  0  0  0  0  0  0  0
   24.3447  -16.9584  -17.7254 C   0  0  0  0  0  0  0  0  0  0  0  0
   23.3247  -17.2532  -16.8221 C   0  0  0  0  0  0  0  0  0  0  0  0
   23.6468  -17.9792  -15.5675 C   0  0  0  0  0  0  0  0  0  0  0  0
   24.1312  -19.3363  -15.9331 C   0  0  2  0  0  0  0  0  0  0  0  0
   23.1315  -20.1212  -16.6034 N   0  0  0  0  0  0  0  0  0  0  0  0
   24.7414  -20.1163  -14.8586 C   0  0  0  0  0  0  0  0  0  0  0  0
   23.8993  -20.8774  -14.2548 O   0  0  0  0  0  0  0  0  0  0  0  0
   22.0604  -16.8331  -17.1668 C   0  0  0  0  0  0  0  0  0  0  0  0
   21.8187  -16.1486  -18.3593 C   0  0  0  0  0  0  0  0  0  0  0  0
   26.0674  -20.1391  -14.4209 N   0  0  0  0  0  0  0  0  0  0  0  0
   27.2025  -19.4371  -14.9876 C   0  0  0  0  0  0  0  0  0  0  0  0
   28.4295  -19.9464  -14.2902 C   0  0  0  0  0  0  0  0  0  0  0  0
   27.9913  -21.1488  -13.4823 C   0  0  0  0  0  0  0  0  0  0  0  0
   26.5198  -20.9164  -13.2708 C   0  0  1  0  0  0  0  0  0  0  0  0
   26.2875  -20.1690  -12.0048 C   0  0  0  0  0  0  0  0  0  0  0  0
   26.4403  -18.9245  -12.0062 O   0  0  0  0  0  0  0  0  0  0  0  0
   19.7446  -21.9705  -10.8123 O   0  0  0  0  0  0  0  0  0  0  0  0
   20.9110  -21.2780  -10.5208 C   0  0  0  0  0  0  0  0  0  0  0  0
   21.7357  -20.8134  -11.5275 C   0  0  0  0  0  0  0  0  0  0  0  0
   22.9014  -20.1220  -11.2773 C   0  0  0  0  0  0  0  0  0  0  0  0
   23.2556  -19.8867   -9.9670 C   0  0  0  0  0  0  0  0  0  0  0  0
   24.4998  -19.1500   -9.6667 C   0  0  0  0  0  0  0  0  0  0  0  0
   25.6430  -20.0993   -9.5440 C   0  0  2  0  0  0  0  0  0  0  0  0
   25.9046  -20.7864  -10.8043 N   0  0  0  0  0  0  0  0  0  0  0  0
   25.4703  -21.1338   -8.5050 C   0  0  0  0  0  0  0  0  0  0  0  0
   25.3283  -22.3326   -8.8501 O   0  0  0  0  0  0  0  0  0  0  0  0
   22.4181  -20.3585   -8.9534 C   0  0  0  0  0  0  0  0  0  0  0  0
   21.2604  -21.0449   -9.2016 C   0  0  0  0  0  0  0  0  0  0  0  0
   25.4513  -20.8954   -7.1381 O   0  0  0  0  0  0  0  0  0  0  0  0
  2  1  1  0
  3  2  2  0
  4  3  1  0
  5 11  1  0
  5  4  2  0
  6  5  1  0
  7  6  1  0
  7  8  1  1
  9  7  1  0
  9 13  1  0
 10  9  2  0
 11 12  2  0
 12  2  1  0
 13 17  1  0
 13 14  1  0
 14 15  1  0
 16 17  1  0
 16 15  1  0
 17 18  1  1
 19 18  2  0
 20 21  1  0
 21 22  2  0
 21 31  1  0
 22 23  1  0
 23 24  2  0
 24 25  1  0
 26 25  1  6
 26 28  1  0
 26 27  1  0
 27 18  1  0
 28 32  1  0
 29 28  2  0
 30 24  1  0
 31 30  2  0
M  END
$$$$
