YPY.pdb
     RDKit          3D

 32 34  0  0  1  0  0  0  0  0999 V2000
   22.6832  -15.7455  -21.1546 O   0  0  0  0  0  0  0  0  0  0  0  0
   23.0314  -16.4664  -20.0044 C   0  0  0  0  0  0  0  0  0  0  0  0
   22.2661  -17.5278  -19.5739 C   0  0  0  0  0  0  0  0  0  0  0  0
   22.6101  -18.2373  -18.4411 C   0  0  0  0  0  0  0  0  0  0  0  0
   23.7356  -17.9217  -17.6817 C   0  0  0  0  0  0  0  0  0  0  0  0
   24.0536  -18.7282  -16.4761 C   0  0  0  0  0  0  0  0  0  0  0  0
   25.0995  -19.7171  -16.8474 C   0  0  2  0  0  0  0  0  0  0  0  0
   24.5929  -20.7777  -17.6740 N   0  0  0  0  0  0  0  0  0  0  0  0
   25.8840  -20.2726  -15.7467 C   0  0  0  0  0  0  0  0  0  0  0  0
   25.3997  -21.3752  -15.2960 O   0  0  0  0  0  0  0  0  0  0  0  0
   24.4931  -16.8599  -18.1205 C   0  0  0  0  0  0  0  0  0  0  0  0
   24.1473  -16.1409  -19.2662 C   0  0  0  0  0  0  0  0  0  0  0  0
   27.0439  -19.7791  -15.1457 N   0  0  0  0  0  0  0  0  0  0  0  0
   27.8543  -18.6538  -15.5689 C   0  0  0  0  0  0  0  0  0  0  0  0
   29.0916  -18.6568  -14.7201 C   0  0  0  0  0  0  0  0  0  0  0  0
   29.0877  -19.9697  -13.9673 C   0  0  0  0  0  0  0  0  0  0  0  0
   27.6348  -20.3602  -13.9437 C   0  0  1  0  0  0  0  0  0  0  0  0
   26.9728  -19.8291  -12.7209 C   0  0  0  0  0  0  0  0  0  0  0  0
   26.5895  -18.6353  -12.7167 O   0  0  0  0  0  0  0  0  0  0  0  0
   23.3764  -24.7500  -14.3507 O   0  0  0  0  0  0  0  0  0  0  0  0
   23.6249  -23.6474  -13.5461 C   0  0  0  0  0  0  0  0  0  0  0  0
   23.6689  -22.3722  -14.0766 C   0  0  0  0  0  0  0  0  0  0  0  0
   23.9125  -21.2533  -13.3097 C   0  0  0  0  0  0  0  0  0  0  0  0
   24.1207  -21.4177  -11.9579 C   0  0  0  0  0  0  0  0  0  0  0  0
   24.3859  -20.2381  -11.1099 C   0  0  0  0  0  0  0  0  0  0  0  0
   25.7602  -20.3147  -10.5370 C   0  0  2  0  0  0  0  0  0  0  0  0
   26.7538  -20.5976  -11.5675 N   0  0  0  0  0  0  0  0  0  0  0  0
   25.9249  -21.3275   -9.4755 C   0  0  0  0  0  0  0  0  0  0  0  0
   25.2160  -21.2540   -8.4417 O   0  0  0  0  0  0  0  0  0  0  0  0
   24.0748  -22.7090  -11.4270 C   0  0  0  0  0  0  0  0  0  0  0  0
   23.8327  -23.8202  -12.1883 C   0  0  0  0  0  0  0  0  0  0  0  0
   26.8187  -22.3881   -9.5172 O   0  0  0  0  0  0  0  0  0  0  0  0
  2  1  1  0
  3  2  2  0
  4  3  1  0
  5 11  1  0
  5  4  2  0
  6  5  1  0
  7  6  1  0
  7  8  1  1
  9  7  1  0
  9 13  1  0
 10  9  2  0
 11 12  2  0
 12  2  1  0
 13 17  1  0
 13 14  1  0
 14 15  1  0
 16 17  1  0
 16 15  1  0
 17 18  1  1
 19 18  2  0
 20 21  1  0
 21 22  2  0
 21 31  1  0
 22 23  1  0
 23 24  2  0
 24 25  1  0
 26 25  1  6
 26 28  1  0
 26 27  1  0
 27 18  1  0
 28 32  1  0
 29 28  2  0
 30 24  1  0
 31 30  2  0
M  END
$$$$
