YPY.pdb
     RDKit          3D

 32 34  0  0  1  0  0  0  0  0999 V2000
   20.4323  -16.1895  -17.4824 O   0  0  0  0  0  0  0  0  0  0  0  0
   20.9319  -17.0248  -16.4742 C   0  0  0  0  0  0  0  0  0  0  0  0
   22.1355  -16.7548  -15.8611 C   0  0  0  0  0  0  0  0  0  0  0  0
   22.6265  -17.5782  -14.8681 C   0  0  0  0  0  0  0  0  0  0  0  0
   21.9396  -18.7125  -14.4383 C   0  0  0  0  0  0  0  0  0  0  0  0
   22.5200  -19.5540  -13.3613 C   0  0  0  0  0  0  0  0  0  0  0  0
   23.5479  -20.4375  -13.9717 C   0  0  2  0  0  0  0  0  0  0  0  0
   22.9753  -21.5464  -14.6839 N   0  0  0  0  0  0  0  0  0  0  0  0
   24.6068  -20.9084  -13.0817 C   0  0  0  0  0  0  0  0  0  0  0  0
   24.2244  -21.8674  -12.3153 O   0  0  0  0  0  0  0  0  0  0  0  0
   20.7385  -18.9730  -15.0572 C   0  0  0  0  0  0  0  0  0  0  0  0
   20.2397  -18.1414  -16.0617 C   0  0  0  0  0  0  0  0  0  0  0  0
   25.9264  -20.4677  -12.9609 N   0  0  0  0  0  0  0  0  0  0  0  0
   26.5689  -19.3805  -13.6734 C   0  0  0  0  0  0  0  0  0  0  0  0
   28.0312  -19.4391  -13.3425 C   0  0  0  0  0  0  0  0  0  0  0  0
   28.2514  -20.7499  -12.6190 C   0  0  0  0  0  0  0  0  0  0  0  0
   26.8956  -21.0742  -12.0529 C   0  0  1  0  0  0  0  0  0  0  0  0
   26.7563  -20.5130  -10.6814 C   0  0  0  0  0  0  0  0  0  0  0  0
   26.2708  -19.3645  -10.5497 O   0  0  0  0  0  0  0  0  0  0  0  0
   29.0444  -19.0690   -2.3375 O   0  0  0  0  0  0  0  0  0  0  0  0
   28.7119  -19.7005   -3.5273 C   0  0  0  0  0  0  0  0  0  0  0  0
   29.6197  -19.7907   -4.5652 C   0  0  0  0  0  0  0  0  0  0  0  0
   29.3264  -20.4100   -5.7610 C   0  0  0  0  0  0  0  0  0  0  0  0
   28.0742  -20.9606   -5.9242 C   0  0  0  0  0  0  0  0  0  0  0  0
   27.7293  -21.6294   -7.1949 C   0  0  0  0  0  0  0  0  0  0  0  0
   27.2354  -20.6300   -8.1849 C   0  0  2  0  0  0  0  0  0  0  0  0
   27.1412  -21.2047   -9.5228 N   0  0  0  0  0  0  0  0  0  0  0  0
   28.0604  -19.4098   -8.2859 C   0  0  0  0  0  0  0  0  0  0  0  0
   29.1201  -19.4393   -8.9587 O   0  0  0  0  0  0  0  0  0  0  0  0
   27.1606  -20.8667   -4.8716 C   0  0  0  0  0  0  0  0  0  0  0  0
   27.4518  -20.2519   -3.6840 C   0  0  0  0  0  0  0  0  0  0  0  0
   27.7619  -18.1939   -7.6876 O   0  0  0  0  0  0  0  0  0  0  0  0
  2  1  1  0
  3  2  2  0
  4  3  1  0
  5 11  1  0
  5  4  2  0
  6  5  1  0
  7  6  1  0
  7  8  1  1
  9  7  1  0
  9 13  1  0
 10  9  2  0
 11 12  2  0
 12  2  1  0
 13 17  1  0
 13 14  1  0
 14 15  1  0
 16 17  1  0
 16 15  1  0
 17 18  1  1
 19 18  2  0
 20 21  1  0
 21 22  2  0
 21 31  1  0
 22 23  1  0
 23 24  2  0
 24 25  1  0
 26 25  1  1
 26 28  1  0
 26 27  1  0
 27 18  1  0
 28 32  1  0
 29 28  2  0
 30 24  1  0
 31 30  2  0
M  END
$$$$
