YPY.pdb
     RDKit          3D

 32 34  0  0  1  0  0  0  0  0999 V2000
   18.1410  -15.7183  -19.1333 O   0  0  0  0  0  0  0  0  0  0  0  0
   18.8037  -16.4223  -18.1189 C   0  0  0  0  0  0  0  0  0  0  0  0
   20.1196  -16.8033  -18.2631 C   0  0  0  0  0  0  0  0  0  0  0  0
   20.7714  -17.4965  -17.2633 C   0  0  0  0  0  0  0  0  0  0  0  0
   20.1409  -17.8440  -16.0696 C   0  0  0  0  0  0  0  0  0  0  0  0
   20.9001  -18.5857  -15.0311 C   0  0  0  0  0  0  0  0  0  0  0  0
   20.8885  -20.0270  -15.3947 C   0  0  2  0  0  0  0  0  0  0  0  0
   19.6096  -20.6448  -15.1764 N   0  0  0  0  0  0  0  0  0  0  0  0
   21.9466  -20.8494  -14.8122 C   0  0  0  0  0  0  0  0  0  0  0  0
   21.6100  -21.3710  -13.6862 O   0  0  0  0  0  0  0  0  0  0  0  0
   18.8267  -17.4587  -15.9358 C   0  0  0  0  0  0  0  0  0  0  0  0
   18.1654  -16.7571  -16.9456 C   0  0  0  0  0  0  0  0  0  0  0  0
   23.2245  -21.1289  -15.3011 N   0  0  0  0  0  0  0  0  0  0  0  0
   23.8227  -20.6686  -16.5391 C   0  0  0  0  0  0  0  0  0  0  0  0
   25.1206  -21.4035  -16.7022 C   0  0  0  0  0  0  0  0  0  0  0  0
   25.1298  -22.4896  -15.6483 C   0  0  0  0  0  0  0  0  0  0  0  0
   24.1873  -21.9706  -14.5965 C   0  0  1  0  0  0  0  0  0  0  0  0
   24.9297  -21.1817  -13.5758 C   0  0  0  0  0  0  0  0  0  0  0  0
   25.0551  -19.9460  -13.7473 O   0  0  0  0  0  0  0  0  0  0  0  0
   28.8313  -18.7679   -6.0935 O   0  0  0  0  0  0  0  0  0  0  0  0
   28.2072  -19.5144   -7.0826 C   0  0  0  0  0  0  0  0  0  0  0  0
   26.8552  -19.3781   -7.3334 C   0  0  0  0  0  0  0  0  0  0  0  0
   26.2005  -20.1015   -8.3069 C   0  0  0  0  0  0  0  0  0  0  0  0
   26.9284  -20.9971   -9.0589 C   0  0  0  0  0  0  0  0  0  0  0  0
   26.2549  -21.7882  -10.1084 C   0  0  0  0  0  0  0  0  0  0  0  0
   26.2161  -21.0207  -11.3861 C   0  0  2  0  0  0  0  0  0  0  0  0
   25.4990  -21.7505  -12.4263 N   0  0  0  0  0  0  0  0  0  0  0  0
   27.5432  -20.6689  -11.9288 C   0  0  0  0  0  0  0  0  0  0  0  0
   28.2130  -21.5453  -12.5288 O   0  0  0  0  0  0  0  0  0  0  0  0
   28.2948  -21.1307   -8.8012 C   0  0  0  0  0  0  0  0  0  0  0  0
   28.9452  -20.4123   -7.8347 C   0  0  0  0  0  0  0  0  0  0  0  0
   28.1369  -19.4181  -11.8351 O   0  0  0  0  0  0  0  0  0  0  0  0
  2  1  1  0
  3  2  2  0
  4  3  1  0
  5 11  1  0
  5  4  2  0
  6  5  1  0
  7  6  1  0
  7  8  1  1
  9  7  1  0
  9 13  1  0
 10  9  2  0
 11 12  2  0
 12  2  1  0
 13 17  1  0
 13 14  1  0
 14 15  1  0
 16 17  1  0
 16 15  1  0
 17 18  1  1
 19 18  2  0
 20 21  1  0
 21 22  2  0
 21 31  1  0
 22 23  1  0
 23 24  2  0
 24 25  1  0
 26 25  1  1
 26 28  1  0
 26 27  1  0
 27 18  1  0
 28 32  1  0
 29 28  2  0
 30 24  1  0
 31 30  2  0
M  END
$$$$
