KSP.pdb
     RDKit          3D

 23 23  0  0  1  0  0  0  0  0999 V2000
   20.9992  -11.2999  -16.7924 N   0  0  0  0  0  0  0  0  0  0  0  0
   19.8227  -10.5456  -17.1675 C   0  0  1  0  0  0  0  0  0  0  0  0
   18.5799  -11.3569  -16.9890 C   0  0  0  0  0  0  0  0  0  0  0  0
   18.6149  -12.6115  -17.8064 C   0  0  0  0  0  0  0  0  0  0  0  0
   18.5509  -13.8624  -16.9742 C   0  0  0  0  0  0  0  0  0  0  0  0
   18.5105  -15.0519  -17.9389 C   0  0  0  0  0  0  0  0  0  0  0  0
   18.5694  -16.2632  -17.1522 N   0  0  0  0  0  0  0  0  0  0  0  0
   19.7614   -9.2715  -16.3748 C   0  0  0  0  0  0  0  0  0  0  0  0
   18.7703   -8.5362  -16.5379 O   0  0  0  0  0  0  0  0  0  0  0  0
   21.6683   -6.8138  -12.5807 O   0  0  0  0  0  0  0  0  0  0  0  0
   21.6413   -7.9224  -13.4263 C   0  0  0  0  0  0  0  0  0  0  0  0
   20.7811   -7.7105  -14.6581 C   0  0  2  0  0  0  0  0  0  0  0  0
   20.7874   -8.9142  -15.4747 N   0  0  0  0  0  0  0  0  0  0  0  0
   21.1107   -6.4868  -15.4087 C   0  0  0  0  0  0  0  0  0  0  0  0
   21.9686   -6.5149  -16.3711 O   0  0  0  0  0  0  0  0  0  0  0  0
   20.5452   -5.2389  -15.1589 N   0  0  0  0  0  0  0  0  0  0  0  0
   19.5255   -4.9688  -14.1275 C   0  0  0  0  0  0  0  0  0  0  0  0
   18.8784   -3.6623  -14.5299 C   0  0  0  0  0  0  0  0  0  0  0  0
   19.3029   -3.5592  -15.9994 C   0  0  0  0  0  0  0  0  0  0  0  0
   20.7754   -3.9867  -15.8194 C   0  0  1  0  0  0  0  0  0  0  0  0
   21.3885   -3.0770  -14.7740 C   0  0  0  0  0  0  0  0  0  0  0  0
   21.3702   -3.3571  -13.5532 O   0  0  0  0  0  0  0  0  0  0  0  0
   21.9923   -1.8948  -15.1636 O   0  0  0  0  0  0  0  0  0  0  0  0
  2  1  1  1
  3  2  1  0
  4  3  1  0
  5  4  1  0
  5  6  1  0
  7  6  1  0
  8 13  1  0
  8  2  1  0
  9  8  2  0
 11 10  1  0
 12 11  1  1
 12 14  1  0
 12 13  1  0
 14 15  2  0
 16 20  1  0
 16 14  1  0
 17 18  1  0
 17 16  1  0
 18 19  1  0
 20 19  1  0
 20 21  1  1
 22 21  2  0
 23 21  1  0
M  END
$$$$
