KSP.pdb
     RDKit          3D

 23 23  0  0  1  0  0  0  0  0999 V2000
   20.2641  -16.5597  -17.8109 N   0  0  0  0  0  0  0  0  0  0  0  0
   19.5500  -15.3094  -17.6671 C   0  0  1  0  0  0  0  0  0  0  0  0
   18.3560  -15.4668  -16.7814 C   0  0  0  0  0  0  0  0  0  0  0  0
   17.3424  -16.3945  -17.3775 C   0  0  0  0  0  0  0  0  0  0  0  0
   16.0698  -16.4722  -16.5801 C   0  0  0  0  0  0  0  0  0  0  0  0
   15.0671  -17.2927  -17.3979 C   0  0  0  0  0  0  0  0  0  0  0  0
   13.8539  -17.4123  -16.6213 N   0  0  0  0  0  0  0  0  0  0  0  0
   20.4791  -14.2500  -17.1475 C   0  0  0  0  0  0  0  0  0  0  0  0
   20.8753  -14.3543  -15.9720 O   0  0  0  0  0  0  0  0  0  0  0  0
   21.0144  -10.4021  -19.1215 O   0  0  0  0  0  0  0  0  0  0  0  0
   22.0830  -11.1744  -18.6671 C   0  0  0  0  0  0  0  0  0  0  0  0
   21.7170  -12.0660  -17.4953 C   0  0  2  0  0  0  0  0  0  0  0  0
   20.8929  -13.1717  -17.9577 N   0  0  0  0  0  0  0  0  0  0  0  0
   21.1393  -11.3372  -16.3530 C   0  0  0  0  0  0  0  0  0  0  0  0
   19.8764  -11.4022  -16.1004 O   0  0  0  0  0  0  0  0  0  0  0  0
   21.8765  -10.5463  -15.4752 N   0  0  0  0  0  0  0  0  0  0  0  0
   23.3305  -10.3153  -15.5700 C   0  0  0  0  0  0  0  0  0  0  0  0
   23.7542   -9.8332  -14.2004 C   0  0  0  0  0  0  0  0  0  0  0  0
   22.5585  -10.2711  -13.3468 C   0  0  0  0  0  0  0  0  0  0  0  0
   21.4404   -9.8261  -14.3140 C   0  0  1  0  0  0  0  0  0  0  0  0
   21.6678   -8.3614  -14.6290 C   0  0  0  0  0  0  0  0  0  0  0  0
   22.2686   -7.9874  -15.6625 O   0  0  0  0  0  0  0  0  0  0  0  0
   21.2030   -7.3929  -13.7574 O   0  0  0  0  0  0  0  0  0  0  0  0
  2  1  1  1
  3  2  1  0
  4  3  1  0
  5  4  1  0
  5  6  1  0
  7  6  1  0
  8 13  1  0
  8  2  1  0
  9  8  2  0
 11 10  1  0
 12 11  1  6
 12 14  1  0
 12 13  1  0
 14 15  2  0
 16 20  1  0
 16 14  1  0
 17 18  1  0
 17 16  1  0
 18 19  1  0
 20 19  1  0
 20 21  1  6
 22 21  2  0
 23 21  1  0
M  END
$$$$
