KSP.pdb
     RDKit          3D

 23 23  0  0  1  0  0  0  0  0999 V2000
   23.6256  -20.8874  -12.9783 N   0  0  0  0  0  0  0  0  0  0  0  0
   25.0555  -20.9981  -12.7860 C   0  0  1  0  0  0  0  0  0  0  0  0
   25.8010  -20.5649  -14.0072 C   0  0  0  0  0  0  0  0  0  0  0  0
   25.6400  -21.5422  -15.1306 C   0  0  0  0  0  0  0  0  0  0  0  0
   25.8110  -22.9728  -14.6999 C   0  0  0  0  0  0  0  0  0  0  0  0
   25.6383  -23.8490  -15.9448 C   0  0  0  0  0  0  0  0  0  0  0  0
   26.9355  -24.3816  -16.2957 N   0  0  0  0  0  0  0  0  0  0  0  0
   25.4698  -20.2014  -11.5822 C   0  0  0  0  0  0  0  0  0  0  0  0
   25.4679  -18.9605  -11.6815 O   0  0  0  0  0  0  0  0  0  0  0  0
   23.8862  -21.2626   -8.2414 O   0  0  0  0  0  0  0  0  0  0  0  0
   24.4791  -20.0348   -8.5340 C   0  0  0  0  0  0  0  0  0  0  0  0
   25.8873  -20.1695   -9.0826 C   0  0  2  0  0  0  0  0  0  0  0  0
   25.8490  -20.8305  -10.3777 N   0  0  0  0  0  0  0  0  0  0  0  0
   26.8367  -20.7804   -8.1365 C   0  0  0  0  0  0  0  0  0  0  0  0
   27.2242  -22.0011   -8.2874 O   0  0  0  0  0  0  0  0  0  0  0  0
   27.3828  -20.1197   -7.0390 N   0  0  0  0  0  0  0  0  0  0  0  0
   27.0723  -18.7297   -6.6540 C   0  0  0  0  0  0  0  0  0  0  0  0
   28.2064  -18.2963   -5.7519 C   0  0  0  0  0  0  0  0  0  0  0  0
   29.2707  -19.3484   -6.0841 C   0  0  0  0  0  0  0  0  0  0  0  0
   28.3462  -20.5848   -6.0835 C   0  0  1  0  0  0  0  0  0  0  0  0
   27.6242  -20.6122   -4.7515 C   0  0  0  0  0  0  0  0  0  0  0  0
   26.4464  -20.2057   -4.6232 O   0  0  0  0  0  0  0  0  0  0  0  0
   28.2726  -21.0991   -3.6306 O   0  0  0  0  0  0  0  0  0  0  0  0
  2  1  1  6
  3  2  1  0
  4  3  1  0
  5  4  1  0
  5  6  1  0
  7  6  1  0
  8 13  1  0
  8  2  1  0
  9  8  2  0
 11 10  1  0
 12 11  1  1
 12 14  1  0
 12 13  1  0
 14 15  2  0
 16 20  1  0
 16 14  1  0
 17 18  1  0
 17 16  1  0
 18 19  1  0
 20 19  1  0
 20 21  1  1
 22 21  2  0
 23 21  1  0
M  END
$$$$
