KSP.pdb
     RDKit          3D

 23 23  0  0  1  0  0  0  0  0999 V2000
   18.8337  -12.7176  -17.0367 N   0  0  0  0  0  0  0  0  0  0  0  0
   19.8603  -11.7855  -17.4505 C   0  0  1  0  0  0  0  0  0  0  0  0
   19.5453  -11.1911  -18.7855 C   0  0  0  0  0  0  0  0  0  0  0  0
   19.0140  -12.2177  -19.7378 C   0  0  0  0  0  0  0  0  0  0  0  0
   19.8400  -12.3498  -20.9874 C   0  0  0  0  0  0  0  0  0  0  0  0
   19.1031  -13.3135  -21.9231 C   0  0  0  0  0  0  0  0  0  0  0  0
   19.9412  -13.5370  -23.0794 N   0  0  0  0  0  0  0  0  0  0  0  0
   20.0313  -10.7206  -16.4054 C   0  0  0  0  0  0  0  0  0  0  0  0
   19.0249  -10.0657  -16.0771 O   0  0  0  0  0  0  0  0  0  0  0  0
   23.9144   -9.9517  -14.8422 O   0  0  0  0  0  0  0  0  0  0  0  0
   22.7855   -9.6590  -14.0776 C   0  0  0  0  0  0  0  0  0  0  0  0
   21.5605   -9.3517  -14.9184 C   0  0  2  0  0  0  0  0  0  0  0  0
   21.2857  -10.4659  -15.8121 N   0  0  0  0  0  0  0  0  0  0  0  0
   21.6218   -8.0485  -15.6021 C   0  0  0  0  0  0  0  0  0  0  0  0
   21.9327   -7.9736  -16.8514 O   0  0  0  0  0  0  0  0  0  0  0  0
   21.3566   -6.8280  -14.9862 N   0  0  0  0  0  0  0  0  0  0  0  0
   20.9836   -6.6649  -13.5681 C   0  0  0  0  0  0  0  0  0  0  0  0
   20.3397   -5.2996  -13.4730 C   0  0  0  0  0  0  0  0  0  0  0  0
   20.0157   -5.0193  -14.9449 C   0  0  0  0  0  0  0  0  0  0  0  0
   21.3507   -5.5078  -15.5470 C   0  0  1  0  0  0  0  0  0  0  0  0
   22.4665   -4.7587  -14.8468 C   0  0  0  0  0  0  0  0  0  0  0  0
   23.0003   -5.1862  -13.7974 O   0  0  0  0  0  0  0  0  0  0  0  0
   22.9223   -3.5621  -15.3706 O   0  0  0  0  0  0  0  0  0  0  0  0
  2  1  1  1
  3  2  1  0
  4  3  1  0
  5  4  1  0
  5  6  1  0
  7  6  1  0
  8 13  1  0
  8  2  1  0
  9  8  2  0
 11 10  1  0
 12 11  1  6
 12 14  1  0
 12 13  1  0
 14 15  2  0
 16 20  1  0
 16 14  1  0
 17 18  1  0
 17 16  1  0
 18 19  1  0
 20 19  1  0
 20 21  1  1
 22 21  2  0
 23 21  1  0
M  END
$$$$
