KSP.pdb
     RDKit          3D

 23 23  0  0  1  0  0  0  0  0999 V2000
   25.7215  -22.0362  -12.3588 N   0  0  0  0  0  0  0  0  0  0  0  0
   26.3859  -20.7583  -12.4980 C   0  0  1  0  0  0  0  0  0  0  0  0
   25.7423  -19.9265  -13.5604 C   0  0  0  0  0  0  0  0  0  0  0  0
   25.0704  -20.7739  -14.5965 C   0  0  0  0  0  0  0  0  0  0  0  0
   23.7275  -21.2902  -14.1592 C   0  0  0  0  0  0  0  0  0  0  0  0
   23.1433  -22.0918  -15.3269 C   0  0  0  0  0  0  0  0  0  0  0  0
   21.9102  -22.6968  -14.8766 N   0  0  0  0  0  0  0  0  0  0  0  0
   26.3963  -20.0440  -11.1769 C   0  0  0  0  0  0  0  0  0  0  0  0
   26.7456  -18.8492  -11.1684 O   0  0  0  0  0  0  0  0  0  0  0  0
   24.2092  -21.4965   -8.0663 O   0  0  0  0  0  0  0  0  0  0  0  0
   24.7706  -20.2248   -7.9552 C   0  0  0  0  0  0  0  0  0  0  0  0
   26.1089  -20.1014   -8.6595 C   0  0  2  0  0  0  0  0  0  0  0  0
   26.0243  -20.6978   -9.9834 N   0  0  0  0  0  0  0  0  0  0  0  0
   27.2461  -20.5928   -7.8628 C   0  0  0  0  0  0  0  0  0  0  0  0
   27.8516  -21.6855   -8.1827 O   0  0  0  0  0  0  0  0  0  0  0  0
   27.7524  -19.9453   -6.7386 N   0  0  0  0  0  0  0  0  0  0  0  0
   27.2690  -18.6493   -6.2254 C   0  0  0  0  0  0  0  0  0  0  0  0
   28.3778  -18.1249   -5.3405 C   0  0  0  0  0  0  0  0  0  0  0  0
   29.5611  -18.9814   -5.8057 C   0  0  0  0  0  0  0  0  0  0  0  0
   28.8235  -20.3361   -5.8684 C   0  0  1  0  0  0  0  0  0  0  0  0
   28.1874  -20.5708   -4.5132 C   0  0  0  0  0  0  0  0  0  0  0  0
   26.9793  -20.3247   -4.2922 O   0  0  0  0  0  0  0  0  0  0  0  0
   28.9519  -21.0730   -3.4752 O   0  0  0  0  0  0  0  0  0  0  0  0
  2  1  1  1
  3  2  1  0
  4  3  1  0
  5  4  1  0
  5  6  1  0
  7  6  1  0
  8 13  1  0
  8  2  1  0
  9  8  2  0
 11 10  1  0
 12 11  1  1
 12 14  1  0
 12 13  1  0
 14 15  2  0
 16 20  1  0
 16 14  1  0
 17 18  1  0
 17 16  1  0
 18 19  1  0
 20 19  1  0
 20 21  1  1
 22 21  2  0
 23 21  1  0
M  END
$$$$
