KSP.pdb
     RDKit          3D

 23 23  0  0  1  0  0  0  0  0999 V2000
   22.7314  -18.1912  -17.3982 N   0  0  0  0  0  0  0  0  0  0  0  0
   22.4148  -17.1606  -16.4331 C   0  0  1  0  0  0  0  0  0  0  0  0
   22.3870  -17.7106  -15.0433 C   0  0  0  0  0  0  0  0  0  0  0  0
   21.0225  -18.2018  -14.6689 C   0  0  0  0  0  0  0  0  0  0  0  0
   20.6743  -19.5213  -15.3005 C   0  0  0  0  0  0  0  0  0  0  0  0
   21.1483  -20.6236  -14.3477 C   0  0  0  0  0  0  0  0  0  0  0  0
   20.7202  -21.8931  -14.8902 N   0  0  0  0  0  0  0  0  0  0  0  0
   23.3979  -16.0317  -16.5538 C   0  0  0  0  0  0  0  0  0  0  0  0
   24.5433  -16.3033  -16.9588 O   0  0  0  0  0  0  0  0  0  0  0  0
   23.0536  -13.1152  -18.7142 O   0  0  0  0  0  0  0  0  0  0  0  0
   24.1782  -13.4346  -17.9539 C   0  0  0  0  0  0  0  0  0  0  0  0
   23.8817  -13.5452  -16.4700 C   0  0  2  0  0  0  0  0  0  0  0  0
   23.0428  -14.7073  -16.2219 N   0  0  0  0  0  0  0  0  0  0  0  0
   23.3596  -12.3030  -15.8751 C   0  0  0  0  0  0  0  0  0  0  0  0
   22.0970  -12.1562  -15.6578 O   0  0  0  0  0  0  0  0  0  0  0  0
   24.1517  -11.2192  -15.5047 N   0  0  0  0  0  0  0  0  0  0  0  0
   25.6052  -11.1211  -15.7377 C   0  0  0  0  0  0  0  0  0  0  0  0
   26.0985  -10.0599  -14.7795 C   0  0  0  0  0  0  0  0  0  0  0  0
   24.9309   -9.9866  -13.7887 C   0  0  0  0  0  0  0  0  0  0  0  0
   23.7826  -10.0139  -14.8203 C   0  0  1  0  0  0  0  0  0  0  0  0
   24.0296   -8.8894  -15.8056 C   0  0  0  0  0  0  0  0  0  0  0  0
   23.7391   -7.6991  -15.5451 O   0  0  0  0  0  0  0  0  0  0  0  0
   24.5937   -9.1692  -17.0374 O   0  0  0  0  0  0  0  0  0  0  0  0
  2  1  1  6
  3  2  1  0
  4  3  1  0
  5  4  1  0
  5  6  1  0
  7  6  1  0
  8 13  1  0
  8  2  1  0
  9  8  2  0
 11 10  1  0
 12 11  1  6
 12 14  1  0
 12 13  1  0
 14 15  2  0
 16 20  1  0
 16 14  1  0
 17 18  1  0
 17 16  1  0
 18 19  1  0
 20 19  1  0
 20 21  1  6
 22 21  2  0
 23 21  1  0
M  END
$$$$
