KSP.pdb
     RDKit          3D

 23 23  0  0  1  0  0  0  0  0999 V2000
   18.9886  -11.9739  -15.6775 N   0  0  0  0  0  0  0  0  0  0  0  0
   19.5743  -11.0695  -16.6433 C   0  0  1  0  0  0  0  0  0  0  0  0
   18.9863  -11.2741  -18.0024 C   0  0  0  0  0  0  0  0  0  0  0  0
   19.1544  -12.6864  -18.4719 C   0  0  0  0  0  0  0  0  0  0  0  0
   18.6098  -12.9196  -19.8541 C   0  0  0  0  0  0  0  0  0  0  0  0
   18.8549  -14.3919  -20.1999 C   0  0  0  0  0  0  0  0  0  0  0  0
   18.3316  -14.6291  -21.5262 N   0  0  0  0  0  0  0  0  0  0  0  0
   19.4011   -9.6509  -16.1816 C   0  0  0  0  0  0  0  0  0  0  0  0
   18.2700   -9.1422  -16.2880 O   0  0  0  0  0  0  0  0  0  0  0  0
   21.7124   -7.9700  -13.2477 O   0  0  0  0  0  0  0  0  0  0  0  0
   20.5309   -7.4119  -13.7348 C   0  0  0  0  0  0  0  0  0  0  0  0
   20.3994   -7.5190  -15.2425 C   0  0  2  0  0  0  0  0  0  0  0  0
   20.4782   -8.9145  -15.6448 N   0  0  0  0  0  0  0  0  0  0  0  0
   21.3203   -6.6390  -15.9823 C   0  0  0  0  0  0  0  0  0  0  0  0
   22.3644   -7.1198  -16.5669 O   0  0  0  0  0  0  0  0  0  0  0  0
   21.1511   -5.2631  -16.1151 N   0  0  0  0  0  0  0  0  0  0  0  0
   20.0410   -4.4913  -15.5247 C   0  0  0  0  0  0  0  0  0  0  0  0
   19.9908   -3.1946  -16.3017 C   0  0  0  0  0  0  0  0  0  0  0  0
   20.8008   -3.5633  -17.5500 C   0  0  0  0  0  0  0  0  0  0  0  0
   21.9469   -4.3139  -16.8383 C   0  0  1  0  0  0  0  0  0  0  0  0
   22.5228   -3.3794  -15.7935 C   0  0  0  0  0  0  0  0  0  0  0  0
   22.0388   -3.2877  -14.6419 O   0  0  0  0  0  0  0  0  0  0  0  0
   23.6189   -2.5951  -16.1054 O   0  0  0  0  0  0  0  0  0  0  0  0
  2  1  1  1
  3  2  1  0
  4  3  1  0
  5  4  1  0
  5  6  1  0
  7  6  1  0
  8 13  1  0
  8  2  1  0
  9  8  2  0
 11 10  1  0
 12 11  1  1
 12 14  1  0
 12 13  1  0
 14 15  2  0
 16 20  1  0
 16 14  1  0
 17 18  1  0
 17 16  1  0
 18 19  1  0
 20 19  1  0
 20 21  1  1
 22 21  2  0
 23 21  1  0
M  END
$$$$
