KSP.pdb
     RDKit          3D

 23 23  0  0  1  0  0  0  0  0999 V2000
   18.7899  -12.9866  -17.3501 N   0  0  0  0  0  0  0  0  0  0  0  0
   18.4034  -11.6013  -17.5091 C   0  0  1  0  0  0  0  0  0  0  0  0
   16.9812  -11.3860  -17.1023 C   0  0  0  0  0  0  0  0  0  0  0  0
   16.1914  -12.6576  -17.1544 C   0  0  0  0  0  0  0  0  0  0  0  0
   14.7387  -12.4666  -16.8160 C   0  0  0  0  0  0  0  0  0  0  0  0
   14.3266  -13.6234  -15.8999 C   0  0  0  0  0  0  0  0  0  0  0  0
   13.2076  -14.3000  -16.5159 N   0  0  0  0  0  0  0  0  0  0  0  0
   19.3344  -10.7206  -16.7260 C   0  0  0  0  0  0  0  0  0  0  0  0
   19.0666  -10.5172  -15.5275 O   0  0  0  0  0  0  0  0  0  0  0  0
   22.6587   -8.6994  -18.6360 O   0  0  0  0  0  0  0  0  0  0  0  0
   22.7341   -9.2450  -17.3548 C   0  0  0  0  0  0  0  0  0  0  0  0
   21.3997   -9.2546  -16.6326 C   0  0  2  0  0  0  0  0  0  0  0  0
   20.4746  -10.1409  -17.3212 N   0  0  0  0  0  0  0  0  0  0  0  0
   20.8520   -7.9108  -16.3804 C   0  0  0  0  0  0  0  0  0  0  0  0
   19.8607   -7.4625  -17.0728 O   0  0  0  0  0  0  0  0  0  0  0  0
   21.3339   -7.0388  -15.4073 N   0  0  0  0  0  0  0  0  0  0  0  0
   22.4962   -7.3067  -14.5391 C   0  0  0  0  0  0  0  0  0  0  0  0
   22.3531   -6.3611  -13.3673 C   0  0  0  0  0  0  0  0  0  0  0  0
   20.8758   -5.9673  -13.4803 C   0  0  0  0  0  0  0  0  0  0  0  0
   20.8353   -5.7543  -15.0089 C   0  0  1  0  0  0  0  0  0  0  0  0
   21.9266   -4.7629  -15.3590 C   0  0  0  0  0  0  0  0  0  0  0  0
   23.0610   -5.1288  -15.7441 O   0  0  0  0  0  0  0  0  0  0  0  0
   21.6784   -3.4059  -15.2556 O   0  0  0  0  0  0  0  0  0  0  0  0
  2  1  1  1
  3  2  1  0
  4  3  1  0
  5  4  1  0
  5  6  1  0
  7  6  1  0
  8 13  1  0
  8  2  1  0
  9  8  2  0
 11 10  1  0
 12 11  1  6
 12 14  1  0
 12 13  1  0
 14 15  2  0
 16 20  1  0
 16 14  1  0
 17 18  1  0
 17 16  1  0
 18 19  1  0
 20 19  1  0
 20 21  1  1
 22 21  2  0
 23 21  1  0
M  END
$$$$
