KSP.pdb
     RDKit          3D

 23 23  0  0  1  0  0  0  0  0999 V2000
   17.0676  -11.0427  -17.9614 N   0  0  0  0  0  0  0  0  0  0  0  0
   17.3158  -11.3734  -16.5747 C   0  0  1  0  0  0  0  0  0  0  0  0
   17.1591  -12.8400  -16.3316 C   0  0  0  0  0  0  0  0  0  0  0  0
   16.0674  -13.4275  -17.1719 C   0  0  0  0  0  0  0  0  0  0  0  0
   15.8045  -14.8774  -16.8720 C   0  0  0  0  0  0  0  0  0  0  0  0
   14.7785  -15.3771  -17.8943 C   0  0  0  0  0  0  0  0  0  0  0  0
   14.4506  -16.7450  -17.5613 N   0  0  0  0  0  0  0  0  0  0  0  0
   18.6829  -10.8968  -16.1751 C   0  0  0  0  0  0  0  0  0  0  0  0
   19.0577  -11.1263  -15.0105 O   0  0  0  0  0  0  0  0  0  0  0  0
   22.7462   -8.5621  -17.7250 O   0  0  0  0  0  0  0  0  0  0  0  0
   21.4796   -9.0884  -17.9770 C   0  0  0  0  0  0  0  0  0  0  0  0
   20.7846   -9.5917  -16.7257 C   0  0  2  0  0  0  0  0  0  0  0  0
   19.5186  -10.2125  -17.0827 N   0  0  0  0  0  0  0  0  0  0  0  0
   20.6654   -8.5773  -15.6644 C   0  0  0  0  0  0  0  0  0  0  0  0
   19.6181   -7.8294  -15.5821 O   0  0  0  0  0  0  0  0  0  0  0  0
   21.6334   -8.3458  -14.6904 N   0  0  0  0  0  0  0  0  0  0  0  0
   22.9228   -9.0571  -14.6001 C   0  0  0  0  0  0  0  0  0  0  0  0
   23.4034   -8.8463  -13.1816 C   0  0  0  0  0  0  0  0  0  0  0  0
   22.1079   -8.4067  -12.4899 C   0  0  0  0  0  0  0  0  0  0  0  0
   21.6099   -7.4358  -13.5820 C   0  0  1  0  0  0  0  0  0  0  0  0
   22.7203   -6.4387  -13.8449 C   0  0  0  0  0  0  0  0  0  0  0  0
   22.9869   -5.5117  -13.0458 O   0  0  0  0  0  0  0  0  0  0  0  0
   23.4740   -6.5414  -15.0005 O   0  0  0  0  0  0  0  0  0  0  0  0
  2  1  1  6
  3  2  1  0
  4  3  1  0
  5  4  1  0
  5  6  1  0
  7  6  1  0
  8 13  1  0
  8  2  1  0
  9  8  2  0
 11 10  1  0
 12 11  1  6
 12 14  1  0
 12 13  1  0
 14 15  2  0
 16 20  1  0
 16 14  1  0
 17 18  1  0
 17 16  1  0
 18 19  1  0
 20 19  1  0
 20 21  1  6
 22 21  2  0
 23 21  1  0
M  END
$$$$
