KSP.pdb
     RDKit          3D

 23 23  0  0  1  0  0  0  0  0999 V2000
   21.6049  -11.4954  -17.5683 N   0  0  0  0  0  0  0  0  0  0  0  0
   20.5958  -10.6492  -18.1678 C   0  0  1  0  0  0  0  0  0  0  0  0
   19.3749  -11.4337  -18.5266 C   0  0  0  0  0  0  0  0  0  0  0  0
   19.6049  -12.2979  -19.7281 C   0  0  0  0  0  0  0  0  0  0  0  0
   20.4610  -13.4997  -19.4380 C   0  0  0  0  0  0  0  0  0  0  0  0
   20.6864  -14.2317  -20.7649 C   0  0  0  0  0  0  0  0  0  0  0  0
   21.4613  -15.4205  -20.4895 N   0  0  0  0  0  0  0  0  0  0  0  0
   20.2637   -9.5173  -17.2383 C   0  0  0  0  0  0  0  0  0  0  0  0
   19.3739   -8.7214  -17.5913 O   0  0  0  0  0  0  0  0  0  0  0  0
   22.6032   -8.7939  -13.6843 O   0  0  0  0  0  0  0  0  0  0  0  0
   21.2166   -8.6461  -13.6990 C   0  0  0  0  0  0  0  0  0  0  0  0
   20.6720   -8.2768  -15.0662 C   0  0  2  0  0  0  0  0  0  0  0  0
   20.9323   -9.3555  -16.0066 N   0  0  0  0  0  0  0  0  0  0  0  0
   21.1163   -6.9567  -15.5451 C   0  0  0  0  0  0  0  0  0  0  0  0
   22.0655   -6.8554  -16.4122 O   0  0  0  0  0  0  0  0  0  0  0  0
   20.5704   -5.7467  -15.1241 N   0  0  0  0  0  0  0  0  0  0  0  0
   19.5063   -5.6111  -14.1112 C   0  0  0  0  0  0  0  0  0  0  0  0
   18.9139   -4.2363  -14.3275 C   0  0  0  0  0  0  0  0  0  0  0  0
   19.4158   -3.9140  -15.7398 C   0  0  0  0  0  0  0  0  0  0  0  0
   20.8659   -4.4134  -15.5626 C   0  0  1  0  0  0  0  0  0  0  0  0
   21.4473   -3.7033  -14.3568 C   0  0  0  0  0  0  0  0  0  0  0  0
   21.3768   -4.1837  -13.2022 O   0  0  0  0  0  0  0  0  0  0  0  0
   22.0802   -2.4838  -14.5190 O   0  0  0  0  0  0  0  0  0  0  0  0
  2  1  1  1
  3  2  1  0
  4  3  1  0
  5  4  1  0
  5  6  1  0
  7  6  1  0
  8 13  1  0
  8  2  1  0
  9  8  2  0
 11 10  1  0
 12 11  1  1
 12 14  1  0
 12 13  1  0
 14 15  2  0
 16 20  1  0
 16 14  1  0
 17 18  1  0
 17 16  1  0
 18 19  1  0
 20 19  1  0
 20 21  1  1
 22 21  2  0
 23 21  1  0
M  END
$$$$
