KSP.pdb
     RDKit          3D

 23 23  0  0  1  0  0  0  0  0999 V2000
   25.4444  -22.0493  -12.8336 N   0  0  0  0  0  0  0  0  0  0  0  0
   24.7299  -21.2835  -13.8320 C   0  0  1  0  0  0  0  0  0  0  0  0
   23.2725  -21.2005  -13.5099 C   0  0  0  0  0  0  0  0  0  0  0  0
   22.5778  -22.5064  -13.7450 C   0  0  0  0  0  0  0  0  0  0  0  0
   21.0857  -22.4218  -13.5781 C   0  0  0  0  0  0  0  0  0  0  0  0
   20.5195  -23.8269  -13.8072 C   0  0  0  0  0  0  0  0  0  0  0  0
   19.1052  -23.7889  -13.5111 N   0  0  0  0  0  0  0  0  0  0  0  0
   25.3399  -19.9168  -13.9571 C   0  0  0  0  0  0  0  0  0  0  0  0
   25.4643  -19.2419  -12.9185 O   0  0  0  0  0  0  0  0  0  0  0  0
   27.7479  -19.0606  -17.1243 O   0  0  0  0  0  0  0  0  0  0  0  0
   27.7178  -18.2175  -16.0139 C   0  0  0  0  0  0  0  0  0  0  0  0
   26.3353  -18.0881  -15.4022 C   0  0  2  0  0  0  0  0  0  0  0  0
   25.7598  -19.4092  -15.2047 N   0  0  0  0  0  0  0  0  0  0  0  0
   25.4497  -17.1615  -16.1280 C   0  0  0  0  0  0  0  0  0  0  0  0
   24.4604  -17.6058  -16.8258 O   0  0  0  0  0  0  0  0  0  0  0  0
   25.5932  -15.7763  -16.1234 N   0  0  0  0  0  0  0  0  0  0  0  0
   26.6565  -15.0431  -15.4103 C   0  0  0  0  0  0  0  0  0  0  0  0
   26.1528  -13.6228  -15.2814 C   0  0  0  0  0  0  0  0  0  0  0  0
   24.6548  -13.8122  -15.5464 C   0  0  0  0  0  0  0  0  0  0  0  0
   24.7777  -14.7748  -16.7472 C   0  0  1  0  0  0  0  0  0  0  0  0
   25.6645  -14.1055  -17.7777 C   0  0  0  0  0  0  0  0  0  0  0  0
   25.2168  -13.2813  -18.6079 O   0  0  0  0  0  0  0  0  0  0  0  0
   27.0150  -14.4032  -17.8164 O   0  0  0  0  0  0  0  0  0  0  0  0
  2  1  1  1
  3  2  1  0
  4  3  1  0
  5  4  1  0
  5  6  1  0
  7  6  1  0
  8 13  1  0
  8  2  1  0
  9  8  2  0
 11 10  1  0
 12 11  1  6
 12 14  1  0
 12 13  1  0
 14 15  2  0
 16 20  1  0
 16 14  1  0
 17 18  1  0
 17 16  1  0
 18 19  1  0
 20 19  1  0
 20 21  1  6
 22 21  2  0
 23 21  1  0
M  END
$$$$
