KSP.pdb
     RDKit          3D

 23 23  0  0  1  0  0  0  0  0999 V2000
   24.0821  -21.2699   -9.7274 N   0  0  0  0  0  0  0  0  0  0  0  0
   23.6788  -21.0182  -11.0941 C   0  0  1  0  0  0  0  0  0  0  0  0
   22.8149  -19.8018  -11.1882 C   0  0  0  0  0  0  0  0  0  0  0  0
   21.3818  -20.1581  -11.4388 C   0  0  0  0  0  0  0  0  0  0  0  0
   21.0224  -21.5379  -10.9611 C   0  0  0  0  0  0  0  0  0  0  0  0
   19.5381  -21.7570  -11.2712 C   0  0  0  0  0  0  0  0  0  0  0  0
   19.1711  -23.0662  -10.7805 N   0  0  0  0  0  0  0  0  0  0  0  0
   24.8938  -20.8936  -11.9681 C   0  0  0  0  0  0  0  0  0  0  0  0
   25.7492  -20.0464  -11.6517 O   0  0  0  0  0  0  0  0  0  0  0  0
   26.3113  -23.7776  -14.4691 O   0  0  0  0  0  0  0  0  0  0  0  0
   26.0652  -22.5825  -15.1442 C   0  0  0  0  0  0  0  0  0  0  0  0
   25.9540  -21.3869  -14.2167 C   0  0  2  0  0  0  0  0  0  0  0  0
   25.0665  -21.7052  -13.1091 N   0  0  0  0  0  0  0  0  0  0  0  0
   25.6103  -20.1313  -14.9058 C   0  0  0  0  0  0  0  0  0  0  0  0
   24.4280  -19.6263  -14.8048 O   0  0  0  0  0  0  0  0  0  0  0  0
   26.4973  -19.4030  -15.6946 N   0  0  0  0  0  0  0  0  0  0  0  0
   27.8884  -19.8010  -15.9827 C   0  0  0  0  0  0  0  0  0  0  0  0
   28.5858  -18.5374  -16.4354 C   0  0  0  0  0  0  0  0  0  0  0  0
   27.6179  -17.4635  -15.9255 C   0  0  0  0  0  0  0  0  0  0  0  0
   26.3035  -18.1471  -16.3597 C   0  0  1  0  0  0  0  0  0  0  0  0
   26.4137  -18.4451  -17.8414 C   0  0  0  0  0  0  0  0  0  0  0  0
   26.7657  -19.5677  -18.2711 O   0  0  0  0  0  0  0  0  0  0  0  0
   26.1194  -17.4561  -18.7629 O   0  0  0  0  0  0  0  0  0  0  0  0
  2  1  1  1
  3  2  1  0
  4  3  1  0
  5  4  1  0
  5  6  1  0
  7  6  1  0
  8 13  1  0
  8  2  1  0
  9  8  2  0
 11 10  1  0
 12 11  1  6
 12 14  1  0
 12 13  1  0
 14 15  2  0
 16 20  1  0
 16 14  1  0
 17 18  1  0
 17 16  1  0
 18 19  1  0
 20 19  1  0
 20 21  1  6
 22 21  2  0
 23 21  1  0
M  END
$$$$
