KSP.pdb
     RDKit          3D

 23 23  0  0  1  0  0  0  0  0999 V2000
   20.2748  -20.0067  -12.8193 N   0  0  0  0  0  0  0  0  0  0  0  0
   21.2286  -20.9041  -13.4348 C   0  0  1  0  0  0  0  0  0  0  0  0
   20.8715  -21.1789  -14.8601 C   0  0  0  0  0  0  0  0  0  0  0  0
   19.6009  -21.9641  -14.9716 C   0  0  0  0  0  0  0  0  0  0  0  0
   19.6453  -23.2707  -14.2286 C   0  0  0  0  0  0  0  0  0  0  0  0
   18.3243  -23.9971  -14.5015 C   0  0  0  0  0  0  0  0  0  0  0  0
   18.3760  -25.2778  -13.8332 N   0  0  0  0  0  0  0  0  0  0  0  0
   22.6125  -20.3324  -13.3192 C   0  0  0  0  0  0  0  0  0  0  0  0
   22.8248  -19.2222  -13.8409 O   0  0  0  0  0  0  0  0  0  0  0  0
   25.4570  -21.5496  -10.5627 O   0  0  0  0  0  0  0  0  0  0  0  0
   25.8664  -21.6481  -11.8922 C   0  0  0  0  0  0  0  0  0  0  0  0
   25.0608  -20.7682  -12.8297 C   0  0  2  0  0  0  0  0  0  0  0  0
   23.6409  -21.0235  -12.6445 N   0  0  0  0  0  0  0  0  0  0  0  0
   25.4954  -20.8446  -14.2350 C   0  0  0  0  0  0  0  0  0  0  0  0
   24.7960  -21.4874  -15.1072 O   0  0  0  0  0  0  0  0  0  0  0  0
   26.6533  -20.2498  -14.7298 N   0  0  0  0  0  0  0  0  0  0  0  0
   27.7355  -19.6933  -13.8957 C   0  0  0  0  0  0  0  0  0  0  0  0
   28.5053  -18.7583  -14.8018 C   0  0  0  0  0  0  0  0  0  0  0  0
   27.4983  -18.5480  -15.9384 C   0  0  0  0  0  0  0  0  0  0  0  0
   27.0473  -20.0168  -16.0891 C   0  0  1  0  0  0  0  0  0  0  0  0
   28.2913  -20.8545  -16.3062 C   0  0  0  0  0  0  0  0  0  0  0  0
   28.9585  -20.7954  -17.3646 O   0  0  0  0  0  0  0  0  0  0  0  0
   28.7178  -21.7179  -15.3129 O   0  0  0  0  0  0  0  0  0  0  0  0
  2  1  1  6
  3  2  1  0
  4  3  1  0
  5  4  1  0
  5  6  1  0
  7  6  1  0
  8 13  1  0
  8  2  1  0
  9  8  2  0
 11 10  1  0
 12 11  1  1
 12 14  1  0
 12 13  1  0
 14 15  2  0
 16 20  1  0
 16 14  1  0
 17 18  1  0
 17 16  1  0
 18 19  1  0
 20 19  1  0
 20 21  1  1
 22 21  2  0
 23 21  1  0
M  END
$$$$
