HVA.pdb
     RDKit          3D

 23 23  0  0  1  0  0  0  0  0999 V2000
    6.1911  -15.9373   21.9135 N   0  0  0  0  0  0  0  0  0  0  0  0
    7.5790  -16.2491   22.0453 C   0  0  1  0  0  0  0  0  0  0  0  0
    8.3350  -16.1562   20.7493 C   0  0  0  0  0  0  0  0  0  0  0  0
    8.0915  -14.8096   20.1706 C   0  0  0  0  0  0  0  0  0  0  0  0
    7.2565  -13.8197   20.5898 C   0  0  0  0  0  0  0  0  0  0  0  0
    7.3300  -12.7468   19.7822 N   0  0  0  0  0  0  0  0  0  0  0  0
    8.2219  -13.0591   18.8393 C   0  0  0  0  0  0  0  0  0  0  0  0
    8.7006  -14.3139   19.0557 N   0  0  0  0  0  0  0  0  0  0  0  0
    8.1951  -15.4065   23.1139 C   0  0  0  0  0  0  0  0  0  0  0  0
    9.4067  -15.0349   23.0372 O   0  0  0  0  0  0  0  0  0  0  0  0
    6.6004  -12.3684   25.1985 C   0  0  0  0  0  0  0  0  0  0  0  0
    7.1180  -13.4693   26.1370 C   0  0  2  0  0  0  0  0  0  0  0  0
    7.7885  -12.7282   27.2694 C   0  0  0  0  0  0  0  0  0  0  0  0
    8.1354  -14.2885   25.3712 C   0  0  2  0  0  0  0  0  0  0  0  0
    7.4826  -14.9769   24.2572 N   0  0  0  0  0  0  0  0  0  0  0  0
    8.7117  -15.3377   26.2372 C   0  0  0  0  0  0  0  0  0  0  0  0
    7.9081  -16.2065   26.7257 O   0  0  0  0  0  0  0  0  0  0  0  0
   11.8495  -17.0700   26.9597 C   0  0  0  0  0  0  0  0  0  0  0  0
   10.5316  -16.5251   27.5050 C   0  0  2  0  0  0  0  0  0  0  0  0
   10.0603  -15.4898   26.5859 N   0  0  0  0  0  0  0  0  0  0  0  0
   10.6722  -16.0188   28.8745 C   0  0  0  0  0  0  0  0  0  0  0  0
   10.6523  -14.7849   29.0860 O   0  0  0  0  0  0  0  0  0  0  0  0
   10.8281  -16.8649   29.9569 O   0  0  0  0  0  0  0  0  0  0  0  0
  2  1  1  6
  2  3  1  0
  4  3  1  0
  5  4  2  0
  6  7  1  0
  6  5  1  0
  7  8  2  0
  8  4  1  0
  9 15  1  0
  9  2  1  0
 10  9  2  0
 12 11  1  6
 12 14  1  0
 13 12  1  0
 14 15  1  6
 16 14  1  0
 17 16  2  0
 19 18  1  6
 19 21  1  0
 19 20  1  0
 20 16  1  0
 21 23  1  0
 22 21  2  0
M  END
$$$$
