HVA.pdb
     RDKit          3D

 23 23  0  0  1  0  0  0  0  0999 V2000
    9.1652  -17.4363   16.1665 N   0  0  0  0  0  0  0  0  0  0  0  0
    8.2251  -17.3350   17.2374 C   0  0  1  0  0  0  0  0  0  0  0  0
    7.7641  -18.6700   17.7523 C   0  0  0  0  0  0  0  0  0  0  0  0
    6.7999  -19.2327   16.7719 C   0  0  0  0  0  0  0  0  0  0  0  0
    6.1900  -18.6373   15.7104 C   0  0  0  0  0  0  0  0  0  0  0  0
    5.3800  -19.4984   15.0691 N   0  0  0  0  0  0  0  0  0  0  0  0
    5.4767  -20.6537   15.7310 C   0  0  0  0  0  0  0  0  0  0  0  0
    6.3381  -20.5157   16.7747 N   0  0  0  0  0  0  0  0  0  0  0  0
    8.7787  -16.4761   18.3269 C   0  0  0  0  0  0  0  0  0  0  0  0
   10.0221  -16.4649   18.5836 O   0  0  0  0  0  0  0  0  0  0  0  0
    7.3593  -12.7423   19.4929 C   0  0  0  0  0  0  0  0  0  0  0  0
    7.5005  -13.7720   20.6245 C   0  0  2  0  0  0  0  0  0  0  0  0
    8.0185  -12.9824   21.8032 C   0  0  0  0  0  0  0  0  0  0  0  0
    8.5254  -14.7984   20.1898 C   0  0  2  0  0  0  0  0  0  0  0  0
    7.9696  -15.6366   19.1270 N   0  0  0  0  0  0  0  0  0  0  0  0
    8.8591  -15.7021   21.3100 C   0  0  0  0  0  0  0  0  0  0  0  0
    7.9400  -16.4904   21.7259 O   0  0  0  0  0  0  0  0  0  0  0  0
   11.8030  -17.2825   22.8024 C   0  0  0  0  0  0  0  0  0  0  0  0
   10.3665  -16.8031   22.9966 C   0  0  2  0  0  0  0  0  0  0  0  0
   10.0889  -15.7939   21.9753 N   0  0  0  0  0  0  0  0  0  0  0  0
   10.1385  -16.2884   24.3512 C   0  0  0  0  0  0  0  0  0  0  0  0
    9.9698  -15.0606   24.5292 O   0  0  0  0  0  0  0  0  0  0  0  0
   10.1023  -17.1198   25.4554 O   0  0  0  0  0  0  0  0  0  0  0  0
  2  1  1  6
  2  3  1  0
  4  3  1  0
  5  4  2  0
  6  7  1  0
  6  5  1  0
  7  8  2  0
  8  4  1  0
  9 15  1  0
  9  2  1  0
 10  9  2  0
 12 11  1  6
 12 14  1  0
 13 12  1  0
 14 15  1  6
 16 14  1  0
 17 16  2  0
 19 18  1  1
 19 21  1  0
 19 20  1  0
 20 16  1  0
 21 23  1  0
 22 21  2  0
M  END
$$$$
