HVA.pdb
     RDKit          3D

 23 23  0  0  1  0  0  0  0  0999 V2000
    8.9178  -15.5417   20.8197 N   0  0  0  0  0  0  0  0  0  0  0  0
    8.1275  -15.9529   21.9365 C   0  0  1  0  0  0  0  0  0  0  0  0
    8.0970  -17.4438   22.1264 C   0  0  0  0  0  0  0  0  0  0  0  0
    7.3375  -18.0358   20.9949 C   0  0  0  0  0  0  0  0  0  0  0  0
    6.8372  -17.4422   19.8767 C   0  0  0  0  0  0  0  0  0  0  0  0
    6.2070  -18.3348   19.0926 N   0  0  0  0  0  0  0  0  0  0  0  0
    6.3082  -19.5087   19.7203 C   0  0  0  0  0  0  0  0  0  0  0  0
    6.9944  -19.3510   20.8841 N   0  0  0  0  0  0  0  0  0  0  0  0
    8.5740  -15.2407   23.1713 C   0  0  0  0  0  0  0  0  0  0  0  0
    9.8066  -15.0475   23.4059 O   0  0  0  0  0  0  0  0  0  0  0  0
    6.4209  -12.2957   24.9078 C   0  0  0  0  0  0  0  0  0  0  0  0
    6.9573  -13.2839   25.9548 C   0  0  2  0  0  0  0  0  0  0  0  0
    7.4403  -12.4168   27.0931 C   0  0  0  0  0  0  0  0  0  0  0  0
    8.1199  -14.0292   25.3335 C   0  0  2  0  0  0  0  0  0  0  0  0
    7.6701  -14.7455   24.1395 N   0  0  0  0  0  0  0  0  0  0  0  0
    8.6386  -15.0492   26.2680 C   0  0  0  0  0  0  0  0  0  0  0  0
    7.8293  -15.9643   26.6511 O   0  0  0  0  0  0  0  0  0  0  0  0
   11.8734  -16.4991   27.2456 C   0  0  0  0  0  0  0  0  0  0  0  0
   10.4061  -16.2559   27.5906 C   0  0  2  0  0  0  0  0  0  0  0  0
    9.9379  -15.1273   26.7869 N   0  0  0  0  0  0  0  0  0  0  0  0
   10.2113  -16.0241   29.0259 C   0  0  0  0  0  0  0  0  0  0  0  0
    9.9496  -14.8717   29.4394 O   0  0  0  0  0  0  0  0  0  0  0  0
   10.3072  -17.0450   29.9534 O   0  0  0  0  0  0  0  0  0  0  0  0
  2  1  1  6
  2  3  1  0
  4  3  1  0
  5  4  2  0
  6  7  1  0
  6  5  1  0
  7  8  2  0
  8  4  1  0
  9 15  1  0
  9  2  1  0
 10  9  2  0
 12 11  1  6
 12 14  1  0
 13 12  1  0
 14 15  1  6
 16 14  1  0
 17 16  2  0
 19 18  1  1
 19 21  1  0
 19 20  1  0
 20 16  1  0
 21 23  1  0
 22 21  2  0
M  END
$$$$
