HVA.pdb
     RDKit          3D

 23 23  0  0  1  0  0  0  0  0999 V2000
    9.1598  -17.5800   16.4042 N   0  0  0  0  0  0  0  0  0  0  0  0
    8.4643  -17.7035   17.6460 C   0  0  1  0  0  0  0  0  0  0  0  0
    8.4777  -19.1014   18.1985 C   0  0  0  0  0  0  0  0  0  0  0  0
    7.6118  -19.9452   17.3349 C   0  0  0  0  0  0  0  0  0  0  0  0
    6.3277  -19.7458   16.9293 C   0  0  0  0  0  0  0  0  0  0  0  0
    5.9021  -20.7544   16.1480 N   0  0  0  0  0  0  0  0  0  0  0  0
    6.9278  -21.6041   16.0565 C   0  0  0  0  0  0  0  0  0  0  0  0
    7.9829  -21.1311   16.7731 N   0  0  0  0  0  0  0  0  0  0  0  0
    8.9885  -16.7085   18.6291 C   0  0  0  0  0  0  0  0  0  0  0  0
   10.2363  -16.5699   18.8180 O   0  0  0  0  0  0  0  0  0  0  0  0
    7.5554  -12.9167   19.5532 C   0  0  0  0  0  0  0  0  0  0  0  0
    7.6235  -13.9010   20.7310 C   0  0  2  0  0  0  0  0  0  0  0  0
    8.0716  -13.0661   21.9071 C   0  0  0  0  0  0  0  0  0  0  0  0
    8.6691  -14.9452   20.4005 C   0  0  2  0  0  0  0  0  0  0  0  0
    8.1454  -15.8731   19.3976 N   0  0  0  0  0  0  0  0  0  0  0  0
    8.9899  -15.7518   21.5960 C   0  0  0  0  0  0  0  0  0  0  0  0
    8.0774  -16.5293   22.0455 O   0  0  0  0  0  0  0  0  0  0  0  0
   11.9186  -16.8663   23.5918 C   0  0  0  0  0  0  0  0  0  0  0  0
   10.4218  -16.5825   23.4904 C   0  0  2  0  0  0  0  0  0  0  0  0
   10.2010  -15.7611   22.3008 N   0  0  0  0  0  0  0  0  0  0  0  0
    9.9020  -15.9412   24.7028 C   0  0  0  0  0  0  0  0  0  0  0  0
    9.6043  -14.7252   24.6838 O   0  0  0  0  0  0  0  0  0  0  0  0
    9.7254  -16.6387   25.8836 O   0  0  0  0  0  0  0  0  0  0  0  0
  2  1  1  6
  2  3  1  0
  4  3  1  0
  5  4  2  0
  6  7  1  0
  6  5  1  0
  7  8  2  0
  8  4  1  0
  9 15  1  0
  9  2  1  0
 10  9  2  0
 12 11  1  6
 12 14  1  0
 13 12  1  0
 14 15  1  6
 16 14  1  0
 17 16  2  0
 19 18  1  1
 19 21  1  0
 19 20  1  0
 20 16  1  0
 21 23  1  0
 22 21  2  0
M  END
$$$$
