HVA.pdb
     RDKit          3D

 23 23  0  0  1  0  0  0  0  0999 V2000
   10.2378  -17.2959   16.2070 N   0  0  0  0  0  0  0  0  0  0  0  0
    9.2755  -17.4366   17.2534 C   0  0  1  0  0  0  0  0  0  0  0  0
    9.1051  -18.8561   17.7178 C   0  0  0  0  0  0  0  0  0  0  0  0
    8.4221  -19.6141   16.6378 C   0  0  0  0  0  0  0  0  0  0  0  0
    7.0930  -19.8061   16.4151 C   0  0  0  0  0  0  0  0  0  0  0  0
    6.8871  -20.5609   15.3212 N   0  0  0  0  0  0  0  0  0  0  0  0
    8.0994  -20.8516   14.8438 C   0  0  0  0  0  0  0  0  0  0  0  0
    9.0526  -20.2843   15.6313 N   0  0  0  0  0  0  0  0  0  0  0  0
    9.6055  -16.5147   18.3815 C   0  0  0  0  0  0  0  0  0  0  0  0
   10.8028  -16.3668   18.7770 O   0  0  0  0  0  0  0  0  0  0  0  0
    7.8997  -12.8740   19.0751 C   0  0  0  0  0  0  0  0  0  0  0  0
    7.8622  -13.8019   20.2991 C   0  0  2  0  0  0  0  0  0  0  0  0
    8.1510  -12.9008   21.4762 C   0  0  0  0  0  0  0  0  0  0  0  0
    8.9675  -14.8243   20.1377 C   0  0  2  0  0  0  0  0  0  0  0  0
    8.6249  -15.7622   19.0682 N   0  0  0  0  0  0  0  0  0  0  0  0
    9.1151  -15.6248   21.3707 C   0  0  0  0  0  0  0  0  0  0  0  0
    8.1783  -16.4503   21.6538 O   0  0  0  0  0  0  0  0  0  0  0  0
   11.6478  -16.4236   24.0034 C   0  0  0  0  0  0  0  0  0  0  0  0
   10.2007  -16.3441   23.5232 C   0  0  2  0  0  0  0  0  0  0  0  0
   10.1837  -15.5806   22.2760 N   0  0  0  0  0  0  0  0  0  0  0  0
    9.3180  -15.7568   24.5369 C   0  0  0  0  0  0  0  0  0  0  0  0
    8.9920  -14.5508   24.4535 O   0  0  0  0  0  0  0  0  0  0  0  0
    8.8249  -16.4951   25.5968 O   0  0  0  0  0  0  0  0  0  0  0  0
  2  1  1  6
  2  3  1  0
  4  3  1  0
  5  4  2  0
  6  7  1  0
  6  5  1  0
  7  8  2  0
  8  4  1  0
  9 15  1  0
  9  2  1  0
 10  9  2  0
 12 11  1  6
 12 14  1  0
 13 12  1  0
 14 15  1  6
 16 14  1  0
 17 16  2  0
 19 18  1  1
 19 21  1  0
 19 20  1  0
 20 16  1  0
 21 23  1  0
 22 21  2  0
M  END
$$$$
