HVA.pdb
     RDKit          3D

 23 23  0  0  1  0  0  0  0  0999 V2000
   11.4326  -17.2736   20.4330 N   0  0  0  0  0  0  0  0  0  0  0  0
   11.1061  -17.6398   21.7747 C   0  0  1  0  0  0  0  0  0  0  0  0
   12.1818  -18.4436   22.4503 C   0  0  0  0  0  0  0  0  0  0  0  0
   12.1019  -19.8374   21.9417 C   0  0  0  0  0  0  0  0  0  0  0  0
   11.3293  -20.8756   22.3642 C   0  0  0  0  0  0  0  0  0  0  0  0
   11.5586  -21.9813   21.6337 N   0  0  0  0  0  0  0  0  0  0  0  0
   12.4875  -21.6413   20.7372 C   0  0  0  0  0  0  0  0  0  0  0  0
   12.8347  -20.3369   20.9058 N   0  0  0  0  0  0  0  0  0  0  0  0
   10.7368  -16.4257   22.5627 C   0  0  0  0  0  0  0  0  0  0  0  0
   11.4660  -15.3866   22.5442 O   0  0  0  0  0  0  0  0  0  0  0  0
    7.4302  -14.3466   22.6154 C   0  0  0  0  0  0  0  0  0  0  0  0
    7.7207  -14.9134   24.0136 C   0  0  2  0  0  0  0  0  0  0  0  0
    7.3011  -13.8210   24.9683 C   0  0  0  0  0  0  0  0  0  0  0  0
    9.2124  -15.1533   24.1139 C   0  0  2  0  0  0  0  0  0  0  0  0
    9.5740  -16.3568   23.3644 N   0  0  0  0  0  0  0  0  0  0  0  0
    9.6035  -15.3962   25.5179 C   0  0  0  0  0  0  0  0  0  0  0  0
    9.4476  -16.5811   25.9771 O   0  0  0  0  0  0  0  0  0  0  0  0
   10.7288  -13.4806   28.5419 C   0  0  0  0  0  0  0  0  0  0  0  0
   10.4824  -14.7897   27.7957 C   0  0  2  0  0  0  0  0  0  0  0  0
   10.1357  -14.4595   26.4140 N   0  0  0  0  0  0  0  0  0  0  0  0
    9.4457  -15.6021   28.4413 C   0  0  0  0  0  0  0  0  0  0  0  0
    8.2453  -15.4468   28.1210 O   0  0  0  0  0  0  0  0  0  0  0  0
    9.7479  -16.5471   29.4044 O   0  0  0  0  0  0  0  0  0  0  0  0
  2  1  1  6
  2  3  1  0
  4  3  1  0
  5  4  2  0
  6  7  1  0
  6  5  1  0
  7  8  2  0
  8  4  1  0
  9 15  1  0
  9  2  1  0
 10  9  2  0
 12 11  1  6
 12 14  1  0
 13 12  1  0
 14 15  1  6
 16 14  1  0
 17 16  2  0
 19 18  1  1
 19 21  1  0
 19 20  1  0
 20 16  1  0
 21 23  1  0
 22 21  2  0
M  END
$$$$
