HVA.pdb
     RDKit          3D

 23 23  0  0  1  0  0  0  0  0999 V2000
    8.0691  -14.8730   20.7792 N   0  0  0  0  0  0  0  0  0  0  0  0
    7.8938  -15.6883   21.9391 C   0  0  1  0  0  0  0  0  0  0  0  0
    8.4387  -17.0797   21.7757 C   0  0  0  0  0  0  0  0  0  0  0  0
    7.6640  -17.7536   20.7018 C   0  0  0  0  0  0  0  0  0  0  0  0
    6.3328  -18.0294   20.6304 C   0  0  0  0  0  0  0  0  0  0  0  0
    6.0272  -18.6574   19.4811 N   0  0  0  0  0  0  0  0  0  0  0  0
    7.1775  -18.7819   18.8152 C   0  0  0  0  0  0  0  0  0  0  0  0
    8.1910  -18.2373   19.5408 N   0  0  0  0  0  0  0  0  0  0  0  0
    8.4610  -15.0027   23.1389 C   0  0  0  0  0  0  0  0  0  0  0  0
    9.6922  -14.6982   23.1977 O   0  0  0  0  0  0  0  0  0  0  0  0
    6.4781  -12.1965   25.1991 C   0  0  0  0  0  0  0  0  0  0  0  0
    7.1152  -13.2199   26.1516 C   0  0  2  0  0  0  0  0  0  0  0  0
    7.6821  -12.3948   27.2824 C   0  0  0  0  0  0  0  0  0  0  0  0
    8.2302  -13.9176   25.4012 C   0  0  2  0  0  0  0  0  0  0  0  0
    7.6787  -14.6554   24.2644 N   0  0  0  0  0  0  0  0  0  0  0  0
    8.8937  -14.9124   26.2691 C   0  0  0  0  0  0  0  0  0  0  0  0
    8.1744  -15.8657   26.7305 O   0  0  0  0  0  0  0  0  0  0  0  0
   12.3339  -15.8553   27.4257 C   0  0  0  0  0  0  0  0  0  0  0  0
   10.8132  -15.9576   27.5149 C   0  0  2  0  0  0  0  0  0  0  0  0
   10.2431  -14.9284   26.6463 N   0  0  0  0  0  0  0  0  0  0  0  0
   10.3354  -15.8345   28.8962 C   0  0  0  0  0  0  0  0  0  0  0  0
    9.9973  -14.7133   29.3393 O   0  0  0  0  0  0  0  0  0  0  0  0
   10.2427  -16.9256   29.7404 O   0  0  0  0  0  0  0  0  0  0  0  0
  2  1  1  6
  2  3  1  0
  4  3  1  0
  5  4  2  0
  6  7  1  0
  6  5  1  0
  7  8  2  0
  8  4  1  0
  9 15  1  0
  9  2  1  0
 10  9  2  0
 12 11  1  6
 12 14  1  0
 13 12  1  0
 14 15  1  6
 16 14  1  0
 17 16  2  0
 19 18  1  1
 19 21  1  0
 19 20  1  0
 20 16  1  0
 21 23  1  0
 22 21  2  0
M  END
$$$$
