HVA.pdb
     RDKit          3D

 23 23  0  0  1  0  0  0  0  0999 V2000
    8.2095  -17.8413   18.0373 N   0  0  0  0  0  0  0  0  0  0  0  0
    9.6112  -17.6361   18.2218 C   0  0  1  0  0  0  0  0  0  0  0  0
   10.3228  -17.2257   16.9630 C   0  0  0  0  0  0  0  0  0  0  0  0
    9.9073  -18.1511   15.8775 C   0  0  0  0  0  0  0  0  0  0  0  0
    9.3211  -17.8803   14.6791 C   0  0  0  0  0  0  0  0  0  0  0  0
    9.1036  -19.0073   13.9782 N   0  0  0  0  0  0  0  0  0  0  0  0
    9.5569  -20.0053   14.7403 C   0  0  0  0  0  0  0  0  0  0  0  0
   10.0523  -19.5068   15.9050 N   0  0  0  0  0  0  0  0  0  0  0  0
    9.8462  -16.6710   19.3374 C   0  0  0  0  0  0  0  0  0  0  0  0
   11.0206  -16.2986   19.6441 O   0  0  0  0  0  0  0  0  0  0  0  0
    7.8607  -13.2895   20.0913 C   0  0  0  0  0  0  0  0  0  0  0  0
    7.8558  -14.2219   21.3125 C   0  0  2  0  0  0  0  0  0  0  0  0
    8.0403  -13.3059   22.4990 C   0  0  0  0  0  0  0  0  0  0  0  0
    9.0390  -15.1580   21.1836 C   0  0  2  0  0  0  0  0  0  0  0  0
    8.7965  -16.1207   20.1087 N   0  0  0  0  0  0  0  0  0  0  0  0
    9.2142  -15.9432   22.4228 C   0  0  0  0  0  0  0  0  0  0  0  0
    8.2304  -16.6672   22.8064 O   0  0  0  0  0  0  0  0  0  0  0  0
   11.9273  -17.2518   24.5622 C   0  0  0  0  0  0  0  0  0  0  0  0
   10.4629  -16.8470   24.4110 C   0  0  2  0  0  0  0  0  0  0  0  0
   10.3555  -15.9848   23.2347 N   0  0  0  0  0  0  0  0  0  0  0  0
    9.9473  -16.1928   25.6184 C   0  0  0  0  0  0  0  0  0  0  0  0
    9.8776  -16.8344   26.6912 O   0  0  0  0  0  0  0  0  0  0  0  0
    9.5292  -14.8748   25.6168 O   0  0  0  0  0  0  0  0  0  0  0  0
  2  1  1  6
  2  3  1  0
  4  3  1  0
  5  4  2  0
  6  7  1  0
  6  5  1  0
  7  8  2  0
  8  4  1  0
  9 15  1  0
  9  2  1  0
 10  9  2  0
 12 11  1  6
 12 14  1  0
 13 12  1  0
 14 15  1  6
 16 14  1  0
 17 16  2  0
 19 18  1  1
 19 21  1  0
 19 20  1  0
 20 16  1  0
 21 23  1  0
 22 21  2  0
M  END
$$$$
