HVA.pdb
     RDKit          3D

 23 23  0  0  1  0  0  0  0  0999 V2000
    8.8828  -17.6955   17.0979 N   0  0  0  0  0  0  0  0  0  0  0  0
   10.2262  -17.4874   17.5372 C   0  0  1  0  0  0  0  0  0  0  0  0
   11.1703  -17.1413   16.4198 C   0  0  0  0  0  0  0  0  0  0  0  0
   11.2049  -18.2879   15.4755 C   0  0  0  0  0  0  0  0  0  0  0  0
   11.9181  -19.4457   15.5374 C   0  0  0  0  0  0  0  0  0  0  0  0
   11.6652  -20.2302   14.4747 N   0  0  0  0  0  0  0  0  0  0  0  0
   10.7813  -19.5627   13.7294 C   0  0  0  0  0  0  0  0  0  0  0  0
   10.4851  -18.3739   14.3204 N   0  0  0  0  0  0  0  0  0  0  0  0
   10.2569  -16.4704   18.6308 C   0  0  0  0  0  0  0  0  0  0  0  0
   11.3567  -16.0804   19.1311 O   0  0  0  0  0  0  0  0  0  0  0  0
    7.8204  -13.2495   19.0174 C   0  0  0  0  0  0  0  0  0  0  0  0
    7.8498  -14.1114   20.2889 C   0  0  2  0  0  0  0  0  0  0  0  0
    7.8785  -13.1197   21.4276 C   0  0  0  0  0  0  0  0  0  0  0  0
    9.1281  -14.9227   20.2676 C   0  0  2  0  0  0  0  0  0  0  0  0
    9.0861  -15.8880   19.1688 N   0  0  0  0  0  0  0  0  0  0  0  0
    9.2642  -15.7056   21.5132 C   0  0  0  0  0  0  0  0  0  0  0  0
    8.3744  -16.5949   21.7512 O   0  0  0  0  0  0  0  0  0  0  0  0
   11.6089  -17.1376   23.7552 C   0  0  0  0  0  0  0  0  0  0  0  0
   10.2951  -16.3608   23.7125 C   0  0  2  0  0  0  0  0  0  0  0  0
   10.2754  -15.5814   22.4753 N   0  0  0  0  0  0  0  0  0  0  0  0
   10.1207  -15.5129   24.8966 C   0  0  0  0  0  0  0  0  0  0  0  0
   10.1760  -14.2673   24.7827 O   0  0  0  0  0  0  0  0  0  0  0  0
    9.8941  -16.0447   26.1527 O   0  0  0  0  0  0  0  0  0  0  0  0
  2  1  1  6
  2  3  1  0
  4  3  1  0
  5  4  2  0
  6  7  1  0
  6  5  1  0
  7  8  2  0
  8  4  1  0
  9 15  1  0
  9  2  1  0
 10  9  2  0
 12 11  1  6
 12 14  1  0
 13 12  1  0
 14 15  1  6
 16 14  1  0
 17 16  2  0
 19 18  1  1
 19 21  1  0
 19 20  1  0
 20 16  1  0
 21 23  1  0
 22 21  2  0
M  END
$$$$
