HVA.pdb
     RDKit          3D

 23 23  0  0  1  0  0  0  0  0999 V2000
    9.4323  -17.5487   16.0137 N   0  0  0  0  0  0  0  0  0  0  0  0
    8.6041  -17.5811   17.1772 C   0  0  1  0  0  0  0  0  0  0  0  0
    8.4023  -18.9663   17.7251 C   0  0  0  0  0  0  0  0  0  0  0  0
    7.3758  -19.6449   16.8923 C   0  0  0  0  0  0  0  0  0  0  0  0
    6.2426  -20.2987   17.2683 C   0  0  0  0  0  0  0  0  0  0  0  0
    5.5800  -20.7772   16.2002 N   0  0  0  0  0  0  0  0  0  0  0  0
    6.3009  -20.4233   15.1338 C   0  0  0  0  0  0  0  0  0  0  0  0
    7.4021  -19.7309   15.5316 N   0  0  0  0  0  0  0  0  0  0  0  0
    9.1344  -16.6424   18.2111 C   0  0  0  0  0  0  0  0  0  0  0  0
   10.3798  -16.5617   18.4446 O   0  0  0  0  0  0  0  0  0  0  0  0
    7.6130  -12.9284   19.1029 C   0  0  0  0  0  0  0  0  0  0  0  0
    7.7926  -13.8347   20.3305 C   0  0  2  0  0  0  0  0  0  0  0  0
    8.3095  -12.9191   21.4146 C   0  0  0  0  0  0  0  0  0  0  0  0
    8.8335  -14.8789   19.9854 C   0  0  2  0  0  0  0  0  0  0  0  0
    8.3000  -15.7998   18.9813 N   0  0  0  0  0  0  0  0  0  0  0  0
    9.1623  -15.6932   21.1735 C   0  0  0  0  0  0  0  0  0  0  0  0
    8.2607  -16.4903   21.6104 O   0  0  0  0  0  0  0  0  0  0  0  0
   12.0855  -16.7462   23.2184 C   0  0  0  0  0  0  0  0  0  0  0  0
   10.5858  -16.4909   23.0883 C   0  0  2  0  0  0  0  0  0  0  0  0
   10.3703  -15.6903   21.8837 N   0  0  0  0  0  0  0  0  0  0  0  0
   10.0344  -15.8422   24.2828 C   0  0  0  0  0  0  0  0  0  0  0  0
    9.7779  -14.6169   24.2621 O   0  0  0  0  0  0  0  0  0  0  0  0
    9.7833  -16.5427   25.4481 O   0  0  0  0  0  0  0  0  0  0  0  0
  2  1  1  6
  2  3  1  0
  4  3  1  0
  5  4  2  0
  6  7  1  0
  6  5  1  0
  7  8  2  0
  8  4  1  0
  9 15  1  0
  9  2  1  0
 10  9  2  0
 12 11  1  6
 12 14  1  0
 13 12  1  0
 14 15  1  6
 16 14  1  0
 17 16  2  0
 19 18  1  1
 19 21  1  0
 19 20  1  0
 20 16  1  0
 21 23  1  0
 22 21  2  0
M  END
$$$$
