YGS.pdb
     RDKit          3D

 23 23  0  0  1  0  0  0  0  0999 V2000
   31.5975    4.9289  -10.2798 O   0  0  0  0  0  0  0  0  0  0  0  0
   31.9976    4.6154   -8.9768 C   0  0  0  0  0  0  0  0  0  0  0  0
   32.1717    3.3123   -8.5620 C   0  0  0  0  0  0  0  0  0  0  0  0
   32.5669    3.0282   -7.2718 C   0  0  0  0  0  0  0  0  0  0  0  0
   32.8064    4.0222   -6.3377 C   0  0  0  0  0  0  0  0  0  0  0  0
   33.2337    3.6993   -4.9444 C   0  0  0  0  0  0  0  0  0  0  0  0
   31.9922    3.3908   -4.1336 C   0  0  2  0  0  0  0  0  0  0  0  0
   31.2557    4.6305   -3.9984 N   0  0  0  0  0  0  0  0  0  0  0  0
   32.2899    2.8556   -2.8085 C   0  0  0  0  0  0  0  0  0  0  0  0
   32.9092    1.7488   -2.7109 O   0  0  0  0  0  0  0  0  0  0  0  0
   32.6305    5.3242   -6.7584 C   0  0  0  0  0  0  0  0  0  0  0  0
   32.2352    5.6084   -8.0488 C   0  0  0  0  0  0  0  0  0  0  0  0
   31.9383    3.4808   -1.5884 N   0  0  0  0  0  0  0  0  0  0  0  0
   32.3203    2.9110   -0.3445 C   0  0  0  0  0  0  0  0  0  0  0  0
   31.2220    2.8942    0.6596 C   0  0  0  0  0  0  0  0  0  0  0  0
   31.4601    2.4926    1.8274 O   0  0  0  0  0  0  0  0  0  0  0  0
   27.3709    4.6771    2.4909 O   0  0  0  0  0  0  0  0  0  0  0  0
   28.4439    4.7344    1.5883 C   0  0  0  0  0  0  0  0  0  0  0  0
   28.8039    3.3027    1.2504 C   0  0  2  0  0  0  0  0  0  0  0  0
   29.9228    3.3146    0.3417 N   0  0  0  0  0  0  0  0  0  0  0  0
   27.5984    2.6825    0.6414 C   0  0  0  0  0  0  0  0  0  0  0  0
   27.5643    2.2883   -0.5434 O   0  0  0  0  0  0  0  0  0  0  0  0
   26.4767    2.5439    1.4343 O   0  0  0  0  0  0  0  0  0  0  0  0
  2  1  1  0
  2  3  2  0
  4  3  1  0
  5  4  2  0
  6  5  1  0
  7  6  1  0
  7  8  1  1
  9  7  1  0
  9 13  1  0
 10  9  2  0
 11 12  2  0
 11  5  1  0
 12  2  1  0
 14 13  1  0
 14 15  1  0
 15 20  1  0
 16 15  2  0
 18 17  1  0
 19 21  1  0
 19 18  1  6
 20 19  1  0
 21 23  1  0
 22 21  2  0
M  END
$$$$
