YGS.pdb
     RDKit          3D

 23 23  0  0  1  0  0  0  0  0999 V2000
   24.1032  -24.5461  -24.2303 O   0  0  0  0  0  0  0  0  0  0  0  0
   23.4708  -24.8896  -23.0310 C   0  0  0  0  0  0  0  0  0  0  0  0
   22.2180  -25.4642  -23.0067 C   0  0  0  0  0  0  0  0  0  0  0  0
   21.6148  -25.7941  -21.8113 C   0  0  0  0  0  0  0  0  0  0  0  0
   22.2266  -25.5691  -20.5895 C   0  0  0  0  0  0  0  0  0  0  0  0
   21.5612  -25.9316  -19.3033 C   0  0  0  0  0  0  0  0  0  0  0  0
   20.5865  -24.8266  -18.9530 C   0  0  2  0  0  0  0  0  0  0  0  0
   21.3729  -23.6862  -18.5304 N   0  0  0  0  0  0  0  0  0  0  0  0
   19.6569  -25.1965  -17.8899 C   0  0  0  0  0  0  0  0  0  0  0  0
   18.9330  -26.2328  -18.0312 O   0  0  0  0  0  0  0  0  0  0  0  0
   23.4801  -24.9939  -20.6199 C   0  0  0  0  0  0  0  0  0  0  0  0
   24.0834  -24.6639  -21.8154 C   0  0  0  0  0  0  0  0  0  0  0  0
   19.4877  -24.4802  -16.6810 N   0  0  0  0  0  0  0  0  0  0  0  0
   18.5756  -24.9331  -15.6907 C   0  0  0  0  0  0  0  0  0  0  0  0
   18.6348  -24.1462  -14.4290 C   0  0  0  0  0  0  0  0  0  0  0  0
   19.5112  -23.2535  -14.2994 O   0  0  0  0  0  0  0  0  0  0  0  0
   16.0501  -25.0920  -11.3722 O   0  0  0  0  0  0  0  0  0  0  0  0
   16.3369  -23.7281  -11.5360 C   0  0  0  0  0  0  0  0  0  0  0  0
   17.7279  -23.6451  -12.1291 C   0  0  2  0  0  0  0  0  0  0  0  0
   17.7384  -24.3708  -13.3745 N   0  0  0  0  0  0  0  0  0  0  0  0
   18.6616  -24.2336  -11.1338 C   0  0  0  0  0  0  0  0  0  0  0  0
   19.2387  -25.3274  -11.3098 O   0  0  0  0  0  0  0  0  0  0  0  0
   18.8894  -23.5270   -9.9698 O   0  0  0  0  0  0  0  0  0  0  0  0
  2  1  1  0
  2  3  2  0
  4  3  1  0
  5  4  2  0
  6  5  1  0
  7  6  1  0
  7  8  1  1
  9  7  1  0
  9 13  1  0
 10  9  2  0
 11 12  2  0
 11  5  1  0
 12  2  1  0
 14 13  1  0
 14 15  1  0
 15 20  1  0
 16 15  2  0
 18 17  1  0
 19 21  1  0
 19 18  1  1
 20 19  1  0
 21 23  1  0
 22 21  2  0
M  END
$$$$
