YGS.pdb
     RDKit          3D

 23 23  0  0  1  0  0  0  0  0999 V2000
   18.4709  -28.1789   -9.6240 O   0  0  0  0  0  0  0  0  0  0  0  0
   19.3687  -27.5723  -10.5086 C   0  0  0  0  0  0  0  0  0  0  0  0
   19.0132  -26.4819  -11.2733 C   0  0  0  0  0  0  0  0  0  0  0  0
   19.9161  -25.9009  -12.1386 C   0  0  0  0  0  0  0  0  0  0  0  0
   21.2092  -26.3750  -12.2833 C   0  0  0  0  0  0  0  0  0  0  0  0
   22.1758  -25.7357  -13.2241 C   0  0  0  0  0  0  0  0  0  0  0  0
   21.8513  -26.2130  -14.6244 C   0  0  2  0  0  0  0  0  0  0  0  0
   22.1712  -27.6246  -14.6755 N   0  0  0  0  0  0  0  0  0  0  0  0
   22.6005  -25.5074  -15.6597 C   0  0  0  0  0  0  0  0  0  0  0  0
   23.7307  -25.9614  -16.0263 O   0  0  0  0  0  0  0  0  0  0  0  0
   21.5594  -27.4664  -11.5155 C   0  0  0  0  0  0  0  0  0  0  0  0
   20.6563  -28.0475  -10.6501 C   0  0  0  0  0  0  0  0  0  0  0  0
   22.1643  -24.3278  -16.3088 N   0  0  0  0  0  0  0  0  0  0  0  0
   22.9436  -23.7351  -17.3380 C   0  0  0  0  0  0  0  0  0  0  0  0
   22.8116  -24.4245  -18.6502 C   0  0  0  0  0  0  0  0  0  0  0  0
   22.1277  -25.4770  -18.7279 O   0  0  0  0  0  0  0  0  0  0  0  0
   24.9091  -22.8698  -21.5582 O   0  0  0  0  0  0  0  0  0  0  0  0
   23.7951  -23.4947  -22.1395 C   0  0  0  0  0  0  0  0  0  0  0  0
   23.2829  -24.4980  -21.1273 C   0  0  2  0  0  0  0  0  0  0  0  0
   23.4298  -23.9337  -19.8090 N   0  0  0  0  0  0  0  0  0  0  0  0
   24.0872  -25.7363  -21.2958 C   0  0  0  0  0  0  0  0  0  0  0  0
   24.9027  -26.1367  -20.4386 O   0  0  0  0  0  0  0  0  0  0  0  0
   23.9124  -26.4633  -22.4565 O   0  0  0  0  0  0  0  0  0  0  0  0
  2  1  1  0
  2  3  2  0
  4  3  1  0
  5  4  2  0
  6  5  1  0
  7  6  1  0
  7  8  1  1
  9  7  1  0
  9 13  1  0
 10  9  2  0
 11 12  2  0
 11  5  1  0
 12  2  1  0
 14 13  1  0
 14 15  1  0
 15 20  1  0
 16 15  2  0
 18 17  1  0
 19 21  1  0
 19 18  1  6
 20 19  1  0
 21 23  1  0
 22 21  2  0
M  END
$$$$
