YGS.pdb
     RDKit          3D

 23 23  0  0  1  0  0  0  0  0999 V2000
   29.5859  -13.6460  -16.5565 O   0  0  0  0  0  0  0  0  0  0  0  0
   28.5084  -12.7732  -16.7400 C   0  0  0  0  0  0  0  0  0  0  0  0
   27.4857  -13.0537  -17.6207 C   0  0  0  0  0  0  0  0  0  0  0  0
   26.4337  -12.1773  -17.7843 C   0  0  0  0  0  0  0  0  0  0  0  0
   26.3498  -10.9862  -17.0829 C   0  0  0  0  0  0  0  0  0  0  0  0
   25.2047  -10.0471  -17.2706 C   0  0  0  0  0  0  0  0  0  0  0  0
   24.2347  -10.2573  -16.1266 C   0  0  2  0  0  0  0  0  0  0  0  0
   23.8551  -11.6549  -16.1444 N   0  0  0  0  0  0  0  0  0  0  0  0
   23.0379   -9.4276  -16.2285 C   0  0  0  0  0  0  0  0  0  0  0  0
   21.9859   -9.9172  -16.7496 O   0  0  0  0  0  0  0  0  0  0  0  0
   27.3761  -10.7108  -16.2030 C   0  0  0  0  0  0  0  0  0  0  0  0
   28.4282  -11.5873  -16.0393 C   0  0  0  0  0  0  0  0  0  0  0  0
   22.9456   -8.0870  -15.7843 N   0  0  0  0  0  0  0  0  0  0  0  0
   21.7326   -7.3600  -15.9183 C   0  0  0  0  0  0  0  0  0  0  0  0
   21.7840   -6.0065  -15.3019 C   0  0  0  0  0  0  0  0  0  0  0  0
   22.8913   -5.5387  -14.9323 O   0  0  0  0  0  0  0  0  0  0  0  0
   21.0022   -3.2124  -16.7879 O   0  0  0  0  0  0  0  0  0  0  0  0
   21.4493   -3.0058  -15.4739 C   0  0  0  0  0  0  0  0  0  0  0  0
   20.6061   -3.8946  -14.5836 C   0  0  2  0  0  0  0  0  0  0  0  0
   20.6291   -5.2327  -15.1194 N   0  0  0  0  0  0  0  0  0  0  0  0
   19.2342   -3.3232  -14.5714 C   0  0  0  0  0  0  0  0  0  0  0  0
   18.2654   -3.8744  -15.1352 O   0  0  0  0  0  0  0  0  0  0  0  0
   19.0405   -2.1308  -13.9030 O   0  0  0  0  0  0  0  0  0  0  0  0
  2  1  1  0
  2  3  2  0
  4  3  1  0
  5  4  2  0
  6  5  1  0
  7  6  1  0
  7  8  1  6
  9  7  1  0
  9 13  1  0
 10  9  2  0
 11 12  2  0
 11  5  1  0
 12  2  1  0
 14 13  1  0
 14 15  1  0
 15 20  1  0
 16 15  2  0
 18 17  1  0
 19 21  1  0
 19 18  1  6
 20 19  1  0
 21 23  1  0
 22 21  2  0
M  END
$$$$
