YGS.pdb
     RDKit          3D

 23 23  0  0  1  0  0  0  0  0999 V2000
   18.7416  -22.2658  -20.4135 O   0  0  0  0  0  0  0  0  0  0  0  0
   18.5851  -21.2159  -19.5026 C   0  0  0  0  0  0  0  0  0  0  0  0
   18.6953  -21.4095  -18.1422 C   0  0  0  0  0  0  0  0  0  0  0  0
   18.5370  -20.3585  -17.2637 C   0  0  0  0  0  0  0  0  0  0  0  0
   18.2628  -19.0714  -17.6950 C   0  0  0  0  0  0  0  0  0  0  0  0
   18.0939  -17.9433  -16.7320 C   0  0  0  0  0  0  0  0  0  0  0  0
   19.4145  -17.2082  -16.6360 C   0  0  2  0  0  0  0  0  0  0  0  0
   20.3939  -18.1582  -16.1502 N   0  0  0  0  0  0  0  0  0  0  0  0
   19.3674  -16.0574  -15.7390 C   0  0  0  0  0  0  0  0  0  0  0  0
   20.0088  -16.0995  -14.6414 O   0  0  0  0  0  0  0  0  0  0  0  0
   18.1536  -18.8836  -19.0573 C   0  0  0  0  0  0  0  0  0  0  0  0
   18.3120  -19.9348  -19.9360 C   0  0  0  0  0  0  0  0  0  0  0  0
   18.6486  -14.8652  -15.9936 N   0  0  0  0  0  0  0  0  0  0  0  0
   18.6587  -13.7975  -15.0566 C   0  0  0  0  0  0  0  0  0  0  0  0
   17.9589  -12.5777  -15.5433 C   0  0  0  0  0  0  0  0  0  0  0  0
   16.8321  -12.6900  -16.0904 O   0  0  0  0  0  0  0  0  0  0  0  0
   15.9742   -8.7558  -15.5685 O   0  0  0  0  0  0  0  0  0  0  0  0
   16.5880   -9.9176  -15.0760 C   0  0  0  0  0  0  0  0  0  0  0  0
   17.8925  -10.0724  -15.8297 C   0  0  2  0  0  0  0  0  0  0  0  0
   18.5206  -11.3000  -15.4099 N   0  0  0  0  0  0  0  0  0  0  0  0
   18.7244   -8.8832  -15.5093 C   0  0  0  0  0  0  0  0  0  0  0  0
   18.6484   -7.8114  -16.1462 O   0  0  0  0  0  0  0  0  0  0  0  0
   19.6146   -8.9857  -14.4589 O   0  0  0  0  0  0  0  0  0  0  0  0
  2  1  1  0
  2  3  2  0
  4  3  1  0
  5  4  2  0
  6  5  1  0
  7  6  1  0
  7  8  1  1
  9  7  1  0
  9 13  1  0
 10  9  2  0
 11 12  2  0
 11  5  1  0
 12  2  1  0
 14 13  1  0
 14 15  1  0
 15 20  1  0
 16 15  2  0
 18 17  1  0
 19 21  1  0
 19 18  1  1
 20 19  1  0
 21 23  1  0
 22 21  2  0
M  END
$$$$
