YGS.pdb
     RDKit          3D

 23 23  0  0  1  0  0  0  0  0999 V2000
   19.0185  -12.3556  -22.8254 O   0  0  0  0  0  0  0  0  0  0  0  0
   19.5336  -12.9255  -21.6565 C   0  0  0  0  0  0  0  0  0  0  0  0
   20.0245  -12.1540  -20.6251 C   0  0  0  0  0  0  0  0  0  0  0  0
   20.5273  -12.7391  -19.4821 C   0  0  0  0  0  0  0  0  0  0  0  0
   20.5653  -14.1130  -19.3122 C   0  0  0  0  0  0  0  0  0  0  0  0
   21.1127  -14.7323  -18.0691 C   0  0  0  0  0  0  0  0  0  0  0  0
   19.9519  -15.0223  -17.1405 C   0  0  2  0  0  0  0  0  0  0  0  0
   18.9675  -15.7556  -17.9091 N   0  0  0  0  0  0  0  0  0  0  0  0
   19.3397  -13.8158  -16.5922 C   0  0  0  0  0  0  0  0  0  0  0  0
   19.9946  -13.1105  -15.7606 O   0  0  0  0  0  0  0  0  0  0  0  0
   20.0727  -14.8800  -20.3476 C   0  0  0  0  0  0  0  0  0  0  0  0
   19.5698  -14.2948  -21.4907 C   0  0  0  0  0  0  0  0  0  0  0  0
   18.0429  -13.3507  -16.9161 N   0  0  0  0  0  0  0  0  0  0  0  0
   17.5322  -12.1602  -16.3331 C   0  0  0  0  0  0  0  0  0  0  0  0
   18.0844  -10.9200  -16.9424 C   0  0  0  0  0  0  0  0  0  0  0  0
   18.9973  -11.0091  -17.8028 O   0  0  0  0  0  0  0  0  0  0  0  0
   16.2676   -7.5068  -15.9298 O   0  0  0  0  0  0  0  0  0  0  0  0
   16.7802   -7.4950  -17.2360 C   0  0  0  0  0  0  0  0  0  0  0  0
   17.9816   -8.4171  -17.2394 C   0  0  2  0  0  0  0  0  0  0  0  0
   17.6154   -9.6480  -16.5847 N   0  0  0  0  0  0  0  0  0  0  0  0
   19.0756   -7.7098  -16.5240 C   0  0  0  0  0  0  0  0  0  0  0  0
   19.5696   -8.1298  -15.4564 O   0  0  0  0  0  0  0  0  0  0  0  0
   19.5543   -6.5393  -17.0779 O   0  0  0  0  0  0  0  0  0  0  0  0
  2  1  1  0
  2  3  2  0
  4  3  1  0
  5  4  2  0
  6  5  1  0
  7  6  1  0
  7  8  1  6
  9  7  1  0
  9 13  1  0
 10  9  2  0
 11 12  2  0
 11  5  1  0
 12  2  1  0
 14 13  1  0
 14 15  1  0
 15 20  1  0
 16 15  2  0
 18 17  1  0
 19 21  1  0
 19 18  1  1
 20 19  1  0
 21 23  1  0
 22 21  2  0
M  END
$$$$
