YGS.pdb
     RDKit          3D

 23 23  0  0  1  0  0  0  0  0999 V2000
   14.2291  -15.9562  -16.8495 O   0  0  0  0  0  0  0  0  0  0  0  0
   15.0407  -14.8171  -16.8413 C   0  0  0  0  0  0  0  0  0  0  0  0
   15.6598  -14.3557  -17.9833 C   0  0  0  0  0  0  0  0  0  0  0  0
   16.4555  -13.2300  -17.9502 C   0  0  0  0  0  0  0  0  0  0  0  0
   16.6719  -12.5135  -16.7849 C   0  0  0  0  0  0  0  0  0  0  0  0
   17.5361  -11.2965  -16.7644 C   0  0  0  0  0  0  0  0  0  0  0  0
   18.9815  -11.7486  -16.7713 C   0  0  2  0  0  0  0  0  0  0  0  0
   19.2164  -12.4359  -15.5182 N   0  0  0  0  0  0  0  0  0  0  0  0
   19.9278  -10.6451  -16.9049 C   0  0  0  0  0  0  0  0  0  0  0  0
   19.9048   -9.9319  -17.9578 O   0  0  0  0  0  0  0  0  0  0  0  0
   16.0499  -12.9799  -15.6453 C   0  0  0  0  0  0  0  0  0  0  0  0
   15.2541  -14.1058  -15.6784 C   0  0  0  0  0  0  0  0  0  0  0  0
   20.8962  -10.2912  -15.9354 N   0  0  0  0  0  0  0  0  0  0  0  0
   21.8421   -9.2638  -16.1959 C   0  0  0  0  0  0  0  0  0  0  0  0
   21.7931   -8.1515  -15.2085 C   0  0  0  0  0  0  0  0  0  0  0  0
   21.2857   -8.3543  -14.0758 O   0  0  0  0  0  0  0  0  0  0  0  0
   23.0681   -3.5610  -14.3293 O   0  0  0  0  0  0  0  0  0  0  0  0
   22.9580   -4.5807  -15.2871 C   0  0  0  0  0  0  0  0  0  0  0  0
   22.3116   -5.7610  -14.5923 C   0  0  2  0  0  0  0  0  0  0  0  0
   22.2980   -6.8774  -15.5041 N   0  0  0  0  0  0  0  0  0  0  0  0
   20.9393   -5.3409  -14.2059 C   0  0  0  0  0  0  0  0  0  0  0  0
   19.9876   -5.3084  -15.0143 O   0  0  0  0  0  0  0  0  0  0  0  0
   20.7254   -4.9742  -12.8922 O   0  0  0  0  0  0  0  0  0  0  0  0
  2  1  1  0
  2  3  2  0
  4  3  1  0
  5  4  2  0
  6  5  1  0
  7  6  1  0
  7  8  1  1
  9  7  1  0
  9 13  1  0
 10  9  2  0
 11 12  2  0
 11  5  1  0
 12  2  1  0
 14 13  1  0
 14 15  1  0
 15 20  1  0
 16 15  2  0
 18 17  1  0
 19 21  1  0
 19 18  1  6
 20 19  1  0
 21 23  1  0
 22 21  2  0
M  END
$$$$
