YGS.pdb
     RDKit          3D

 23 23  0  0  1  0  0  0  0  0999 V2000
   19.0472  -20.5620  -16.2734 O   0  0  0  0  0  0  0  0  0  0  0  0
   19.3835  -19.2188  -16.4711 C   0  0  0  0  0  0  0  0  0  0  0  0
   18.9960  -18.2335  -15.5883 C   0  0  0  0  0  0  0  0  0  0  0  0
   19.3398  -16.9157  -15.8048 C   0  0  0  0  0  0  0  0  0  0  0  0
   20.0817  -16.5178  -16.9044 C   0  0  0  0  0  0  0  0  0  0  0  0
   20.4464  -15.0873  -17.1255 C   0  0  0  0  0  0  0  0  0  0  0  0
   19.2293  -14.3739  -17.6766 C   0  0  2  0  0  0  0  0  0  0  0  0
   18.8766  -15.0341  -18.9165 N   0  0  0  0  0  0  0  0  0  0  0  0
   19.4613  -12.9552  -17.9306 C   0  0  0  0  0  0  0  0  0  0  0  0
   19.7015  -12.5685  -19.1183 O   0  0  0  0  0  0  0  0  0  0  0  0
   20.4666  -17.5082  -17.7843 C   0  0  0  0  0  0  0  0  0  0  0  0
   20.1228  -18.8262  -17.5679 C   0  0  0  0  0  0  0  0  0  0  0  0
   19.4410  -11.9445  -16.9401 N   0  0  0  0  0  0  0  0  0  0  0  0
   19.6322  -10.5812  -17.2902 C   0  0  0  0  0  0  0  0  0  0  0  0
   19.5893   -9.6598  -16.1225 C   0  0  0  0  0  0  0  0  0  0  0  0
   19.0069  -10.0252  -15.0695 O   0  0  0  0  0  0  0  0  0  0  0  0
   21.5109   -7.3047  -12.9913 O   0  0  0  0  0  0  0  0  0  0  0  0
   21.3363   -8.1892  -14.0666 C   0  0  0  0  0  0  0  0  0  0  0  0
   20.3634   -7.5271  -15.0199 C   0  0  2  0  0  0  0  0  0  0  0  0
   20.1818   -8.3896  -16.1605 N   0  0  0  0  0  0  0  0  0  0  0  0
   20.9508   -6.2161  -15.4010 C   0  0  0  0  0  0  0  0  0  0  0  0
   21.4023   -5.9817  -16.5418 O   0  0  0  0  0  0  0  0  0  0  0  0
   20.9910   -5.2260  -14.4396 O   0  0  0  0  0  0  0  0  0  0  0  0
  2  1  1  0
  2  3  2  0
  4  3  1  0
  5  4  2  0
  6  5  1  0
  7  6  1  0
  7  8  1  6
  9  7  1  0
  9 13  1  0
 10  9  2  0
 11 12  2  0
 11  5  1  0
 12  2  1  0
 14 13  1  0
 14 15  1  0
 15 20  1  0
 16 15  2  0
 18 17  1  0
 19 21  1  0
 19 18  1  1
 20 19  1  0
 21 23  1  0
 22 21  2  0
M  END
$$$$
