YGS.pdb
     RDKit          3D

 23 23  0  0  1  0  0  0  0  0999 V2000
   28.3562  -18.8232   -4.9036 O   0  0  0  0  0  0  0  0  0  0  0  0
   28.0418  -19.2510   -6.1976 C   0  0  0  0  0  0  0  0  0  0  0  0
   27.5011  -18.3977   -7.1356 C   0  0  0  0  0  0  0  0  0  0  0  0
   27.1994  -18.8429   -8.4053 C   0  0  0  0  0  0  0  0  0  0  0  0
   27.4204  -20.1518   -8.8001 C   0  0  0  0  0  0  0  0  0  0  0  0
   27.0887  -20.6195  -10.1783 C   0  0  0  0  0  0  0  0  0  0  0  0
   25.6110  -20.3823  -10.4101 C   0  0  2  0  0  0  0  0  0  0  0  0
   24.8944  -21.2945   -9.5429 N   0  0  0  0  0  0  0  0  0  0  0  0
   25.2034  -20.6063  -11.7939 C   0  0  0  0  0  0  0  0  0  0  0  0
   24.8508  -21.7736  -12.1557 O   0  0  0  0  0  0  0  0  0  0  0  0
   27.9616  -21.0011   -7.8573 C   0  0  0  0  0  0  0  0  0  0  0  0
   28.2633  -20.5559   -6.5873 C   0  0  0  0  0  0  0  0  0  0  0  0
   25.1660  -19.6072  -12.7956 N   0  0  0  0  0  0  0  0  0  0  0  0
   24.9991  -19.9559  -14.1625 C   0  0  0  0  0  0  0  0  0  0  0  0
   26.2549  -19.8580  -14.9548 C   0  0  0  0  0  0  0  0  0  0  0  0
   26.8892  -18.7722  -14.9737 O   0  0  0  0  0  0  0  0  0  0  0  0
   28.3247  -22.9373  -15.4828 O   0  0  0  0  0  0  0  0  0  0  0  0
   28.4293  -22.3082  -16.7328 C   0  0  0  0  0  0  0  0  0  0  0  0
   27.9038  -20.8991  -16.5551 C   0  0  2  0  0  0  0  0  0  0  0  0
   26.7555  -20.9454  -15.6849 N   0  0  0  0  0  0  0  0  0  0  0  0
   27.5573  -20.3896  -17.9076 C   0  0  0  0  0  0  0  0  0  0  0  0
   26.3954  -20.0660  -18.2328 O   0  0  0  0  0  0  0  0  0  0  0  0
   28.5764  -20.2754  -18.8319 O   0  0  0  0  0  0  0  0  0  0  0  0
  2  1  1  0
  2  3  2  0
  4  3  1  0
  5  4  2  0
  6  5  1  0
  7  6  1  0
  7  8  1  1
  9  7  1  0
  9 13  1  0
 10  9  2  0
 11 12  2  0
 11  5  1  0
 12  2  1  0
 14 13  1  0
 14 15  1  0
 15 20  1  0
 16 15  2  0
 18 17  1  0
 19 21  1  0
 19 18  1  6
 20 19  1  0
 21 23  1  0
 22 21  2  0
M  END
$$$$
