YGS.pdb
     RDKit          3D

 23 23  0  0  1  0  0  0  0  0999 V2000
   24.4537  -21.3267   -7.7664 O   0  0  0  0  0  0  0  0  0  0  0  0
   24.7409  -21.2407   -9.1326 C   0  0  0  0  0  0  0  0  0  0  0  0
   25.6529  -22.0776   -9.7392 C   0  0  0  0  0  0  0  0  0  0  0  0
   25.9194  -21.9736  -11.0882 C   0  0  0  0  0  0  0  0  0  0  0  0
   25.2940  -21.0364  -11.8936 C   0  0  0  0  0  0  0  0  0  0  0  0
   25.5927  -20.9355  -13.3526 C   0  0  0  0  0  0  0  0  0  0  0  0
   27.0341  -20.4966  -13.5061 C   0  0  2  0  0  0  0  0  0  0  0  0
   27.2521  -19.4205  -12.5615 N   0  0  0  0  0  0  0  0  0  0  0  0
   27.3529  -20.0327  -14.8530 C   0  0  0  0  0  0  0  0  0  0  0  0
   27.4985  -20.8860  -15.7850 O   0  0  0  0  0  0  0  0  0  0  0  0
   24.3823  -20.2017  -11.2811 C   0  0  0  0  0  0  0  0  0  0  0  0
   24.1158  -20.3057   -9.9319 C   0  0  0  0  0  0  0  0  0  0  0  0
   27.5186  -18.6761  -15.2207 N   0  0  0  0  0  0  0  0  0  0  0  0
   27.8694  -18.3225  -16.5511 C   0  0  0  0  0  0  0  0  0  0  0  0
   26.7651  -18.5267  -17.5274 C   0  0  0  0  0  0  0  0  0  0  0  0
   26.8429  -17.9984  -18.6660 O   0  0  0  0  0  0  0  0  0  0  0  0
   22.6511  -20.9064  -18.4292 O   0  0  0  0  0  0  0  0  0  0  0  0
   23.6281  -20.5849  -17.4745 C   0  0  0  0  0  0  0  0  0  0  0  0
   24.5393  -19.5584  -18.1145 C   0  0  2  0  0  0  0  0  0  0  0  0
   25.6341  -19.2943  -17.2149 N   0  0  0  0  0  0  0  0  0  0  0  0
   23.7195  -18.3444  -18.3654 C   0  0  0  0  0  0  0  0  0  0  0  0
   23.3315  -18.0123  -19.5054 O   0  0  0  0  0  0  0  0  0  0  0  0
   23.3814  -17.5614  -17.2798 O   0  0  0  0  0  0  0  0  0  0  0  0
  2  1  1  0
  2  3  2  0
  4  3  1  0
  5  4  2  0
  6  5  1  0
  7  6  1  0
  7  8  1  1
  9  7  1  0
  9 13  1  0
 10  9  2  0
 11 12  2  0
 11  5  1  0
 12  2  1  0
 14 13  1  0
 14 15  1  0
 15 20  1  0
 16 15  2  0
 18 17  1  0
 19 21  1  0
 19 18  1  1
 20 19  1  0
 21 23  1  0
 22 21  2  0
M  END
$$$$
