YGS.pdb
     RDKit          3D

 23 23  0  0  1  0  0  0  0  0999 V2000
   21.4023  -21.6895   -7.4054 O   0  0  0  0  0  0  0  0  0  0  0  0
   22.4456  -21.1894   -8.1914 C   0  0  0  0  0  0  0  0  0  0  0  0
   23.7214  -21.0318   -7.6938 C   0  0  0  0  0  0  0  0  0  0  0  0
   24.7338  -20.5367   -8.4884 C   0  0  0  0  0  0  0  0  0  0  0  0
   24.5257  -20.1766   -9.8094 C   0  0  0  0  0  0  0  0  0  0  0  0
   25.6315  -19.6418  -10.6576 C   0  0  0  0  0  0  0  0  0  0  0  0
   25.5487  -20.3133  -12.0126 C   0  0  2  0  0  0  0  0  0  0  0  0
   25.8405  -21.7171  -11.8083 N   0  0  0  0  0  0  0  0  0  0  0  0
   26.4846  -19.7593  -12.9863 C   0  0  0  0  0  0  0  0  0  0  0  0
   26.2533  -18.6130  -13.4869 O   0  0  0  0  0  0  0  0  0  0  0  0
   23.2470  -20.3364  -10.3019 C   0  0  0  0  0  0  0  0  0  0  0  0
   22.2345  -20.8316   -9.5072 C   0  0  0  0  0  0  0  0  0  0  0  0
   27.6608  -20.4070  -13.4336 N   0  0  0  0  0  0  0  0  0  0  0  0
   28.5117  -19.7885  -14.3883 C   0  0  0  0  0  0  0  0  0  0  0  0
   28.3131  -20.2959  -15.7730 C   0  0  0  0  0  0  0  0  0  0  0  0
   28.2379  -19.4774  -16.7249 O   0  0  0  0  0  0  0  0  0  0  0  0
   29.3188  -23.9765  -16.5391 O   0  0  0  0  0  0  0  0  0  0  0  0
   28.1422  -23.7348  -17.2645 C   0  0  0  0  0  0  0  0  0  0  0  0
   27.9918  -22.2308  -17.3593 C   0  0  2  0  0  0  0  0  0  0  0  0
   28.2066  -21.6661  -16.0505 N   0  0  0  0  0  0  0  0  0  0  0  0
   26.6201  -21.9611  -17.8638 C   0  0  0  0  0  0  0  0  0  0  0  0
   25.7217  -21.4643  -17.1522 O   0  0  0  0  0  0  0  0  0  0  0  0
   26.3446  -22.2797  -19.1786 O   0  0  0  0  0  0  0  0  0  0  0  0
  2  1  1  0
  2  3  2  0
  4  3  1  0
  5  4  2  0
  6  5  1  0
  7  6  1  0
  7  8  1  1
  9  7  1  0
  9 13  1  0
 10  9  2  0
 11 12  2  0
 11  5  1  0
 12  2  1  0
 14 13  1  0
 14 15  1  0
 15 20  1  0
 16 15  2  0
 18 17  1  0
 19 21  1  0
 19 18  1  1
 20 19  1  0
 21 23  1  0
 22 21  2  0
M  END
$$$$
