YGS.pdb
     RDKit          3D

 23 23  0  0  1  0  0  0  0  0999 V2000
   31.8307   -8.1791  -17.2106 O   0  0  0  0  0  0  0  0  0  0  0  0
   31.7664   -6.9445  -16.5564 C   0  0  0  0  0  0  0  0  0  0  0  0
   30.9038   -5.9490  -16.9628 C   0  0  0  0  0  0  0  0  0  0  0  0
   30.8585   -4.7397  -16.3016 C   0  0  0  0  0  0  0  0  0  0  0  0
   31.6654   -4.4650  -15.2101 C   0  0  0  0  0  0  0  0  0  0  0  0
   31.6054   -3.1510  -14.5043 C   0  0  0  0  0  0  0  0  0  0  0  0
   32.4371   -2.1590  -15.2904 C   0  0  2  0  0  0  0  0  0  0  0  0
   33.8272   -2.4736  -15.0326 N   0  0  0  0  0  0  0  0  0  0  0  0
   32.1766   -0.7710  -14.9209 C   0  0  0  0  0  0  0  0  0  0  0  0
   31.0182   -0.2835  -15.1170 O   0  0  0  0  0  0  0  0  0  0  0  0
   32.5266   -5.4649  -14.8080 C   0  0  0  0  0  0  0  0  0  0  0  0
   32.5719   -6.6744  -15.4692 C   0  0  0  0  0  0  0  0  0  0  0  0
   33.1300    0.1035  -14.3469 N   0  0  0  0  0  0  0  0  0  0  0  0
   32.8038    1.4608  -14.0835 C   0  0  0  0  0  0  0  0  0  0  0  0
   32.1964    1.6727  -12.7417 C   0  0  0  0  0  0  0  0  0  0  0  0
   32.3402    0.7937  -11.8538 O   0  0  0  0  0  0  0  0  0  0  0  0
   32.4805    2.8561   -9.4888 O   0  0  0  0  0  0  0  0  0  0  0  0
   31.8717    3.8311  -10.2937 C   0  0  0  0  0  0  0  0  0  0  0  0
   30.8586    3.1099  -11.1580 C   0  0  2  0  0  0  0  0  0  0  0  0
   31.4645    2.8287  -12.4354 N   0  0  0  0  0  0  0  0  0  0  0  0
   29.6793    4.0053  -11.2861 C   0  0  0  0  0  0  0  0  0  0  0  0
   29.3359    4.5229  -12.3698 O   0  0  0  0  0  0  0  0  0  0  0  0
   28.9429    4.2652  -10.1475 O   0  0  0  0  0  0  0  0  0  0  0  0
  2  1  1  0
  2  3  2  0
  4  3  1  0
  5  4  2  0
  6  5  1  0
  7  6  1  0
  7  8  1  1
  9  7  1  0
  9 13  1  0
 10  9  2  0
 11 12  2  0
 11  5  1  0
 12  2  1  0
 14 13  1  0
 14 15  1  0
 15 20  1  0
 16 15  2  0
 18 17  1  0
 19 21  1  0
 19 18  1  1
 20 19  1  0
 21 23  1  0
 22 21  2  0
M  END
$$$$
