YGS.pdb
     RDKit          3D

 23 23  0  0  1  0  0  0  0  0999 V2000
   28.1625  -15.0853  -20.5246 O   0  0  0  0  0  0  0  0  0  0  0  0
   27.8890  -15.5399  -19.2304 C   0  0  0  0  0  0  0  0  0  0  0  0
   26.7019  -15.2504  -18.5924 C   0  0  0  0  0  0  0  0  0  0  0  0
   26.4552  -15.7101  -17.3160 C   0  0  0  0  0  0  0  0  0  0  0  0
   27.3734  -16.4759  -16.6172 C   0  0  0  0  0  0  0  0  0  0  0  0
   27.0924  -16.9665  -15.2358 C   0  0  0  0  0  0  0  0  0  0  0  0
   26.8404  -18.4580  -15.3110 C   0  0  2  0  0  0  0  0  0  0  0  0
   25.5416  -18.6377  -15.9264 N   0  0  0  0  0  0  0  0  0  0  0  0
   26.8532  -19.1094  -14.0046 C   0  0  0  0  0  0  0  0  0  0  0  0
   25.9472  -18.8224  -13.1592 O   0  0  0  0  0  0  0  0  0  0  0  0
   28.5596  -16.7625  -17.2607 C   0  0  0  0  0  0  0  0  0  0  0  0
   28.8064  -16.3027  -18.5373 C   0  0  0  0  0  0  0  0  0  0  0  0
   27.8149  -20.0598  -13.5866 N   0  0  0  0  0  0  0  0  0  0  0  0
   27.7688  -20.6118  -12.2785 C   0  0  0  0  0  0  0  0  0  0  0  0
   26.4967  -21.3251  -11.9828 C   0  0  0  0  0  0  0  0  0  0  0  0
   26.2159  -22.3741  -12.6173 O   0  0  0  0  0  0  0  0  0  0  0  0
   24.3085  -19.8618   -8.9920 O   0  0  0  0  0  0  0  0  0  0  0  0
   24.0776  -21.2312   -9.1930 C   0  0  0  0  0  0  0  0  0  0  0  0
   24.3600  -21.5092  -10.6547 C   0  0  2  0  0  0  0  0  0  0  0  0
   25.5965  -20.8610  -11.0132 N   0  0  0  0  0  0  0  0  0  0  0  0
   23.2080  -20.9785  -11.4295 C   0  0  0  0  0  0  0  0  0  0  0  0
   23.2911  -19.9705  -12.1625 O   0  0  0  0  0  0  0  0  0  0  0  0
   22.0015  -21.6410  -11.3224 O   0  0  0  0  0  0  0  0  0  0  0  0
  2  1  1  0
  2  3  2  0
  4  3  1  0
  5  4  2  0
  6  5  1  0
  7  6  1  0
  7  8  1  1
  9  7  1  0
  9 13  1  0
 10  9  2  0
 11 12  2  0
 11  5  1  0
 12  2  1  0
 14 13  1  0
 14 15  1  0
 15 20  1  0
 16 15  2  0
 18 17  1  0
 19 21  1  0
 19 18  1  1
 20 19  1  0
 21 23  1  0
 22 21  2  0
M  END
$$$$
