WDE.pdb
     RDKit          3D

 32 33  0  0  1  0  0  0  0  0999 V2000
   27.4850  -22.8415  -13.0722 N   0  0  0  0  0  0  0  0  0  0  0  0
   26.4274  -22.0203  -12.5685 C   0  0  1  0  0  0  0  0  0  0  0  0
   26.9527  -20.6580  -12.1292 C   0  0  0  0  0  0  0  0  0  0  0  0
   27.9785  -20.7587  -11.0689 C   0  0  0  0  0  0  0  0  0  0  0  0
   29.2887  -21.1170  -11.2323 C   0  0  0  0  0  0  0  0  0  0  0  0
   29.8419  -21.0993  -10.0078 N   0  0  0  0  0  0  0  0  0  0  0  0
   28.9287  -20.7421   -9.0815 C   0  0  0  0  0  0  0  0  0  0  0  0
   29.0185  -20.5847   -7.7142 C   0  0  0  0  0  0  0  0  0  0  0  0
   27.9178  -20.2057   -7.0081 C   0  0  0  0  0  0  0  0  0  0  0  0
   26.6832  -19.9648   -7.6141 C   0  0  0  0  0  0  0  0  0  0  0  0
   26.6272  -20.1320   -8.9785 C   0  0  0  0  0  0  0  0  0  0  0  0
   27.7243  -20.5153   -9.7180 C   0  0  0  0  0  0  0  0  0  0  0  0
   25.3307  -21.7777  -13.5571 C   0  0  0  0  0  0  0  0  0  0  0  0
   25.3574  -22.1426  -14.7316 O   0  0  0  0  0  0  0  0  0  0  0  0
   24.2051  -21.0776  -13.0671 N   0  0  0  0  0  0  0  0  0  0  0  0
   22.9361  -20.9367  -13.7596 C   0  0  1  0  0  0  0  0  0  0  0  0
   22.4636  -22.2482  -14.2244 C   0  0  0  0  0  0  0  0  0  0  0  0
   21.1842  -22.2497  -14.9548 C   0  0  0  0  0  0  0  0  0  0  0  0
   21.1007  -21.8702  -16.1376 O   0  0  0  0  0  0  0  0  0  0  0  0
   21.9796  -20.1255  -13.0133 C   0  0  0  0  0  0  0  0  0  0  0  0
   21.8253  -20.3240  -11.7875 O   0  0  0  0  0  0  0  0  0  0  0  0
   20.0295  -22.6856  -14.3199 O   0  0  0  0  0  0  0  0  0  0  0  0
   21.2350  -19.1257  -13.6634 N   0  0  0  0  0  0  0  0  0  0  0  0
   20.3388  -18.2169  -12.9698 C   0  0  1  0  0  0  0  0  0  0  0  0
   20.0003  -17.0686  -13.9209 C   0  0  0  0  0  0  0  0  0  0  0  0
   19.0107  -16.1198  -13.3345 C   0  0  0  0  0  0  0  0  0  0  0  0
   18.6138  -15.1619  -14.4014 C   0  0  0  0  0  0  0  0  0  0  0  0
   17.4647  -15.1467  -14.8951 O   0  0  0  0  0  0  0  0  0  0  0  0
   19.1007  -18.9905  -12.6582 C   0  0  0  0  0  0  0  0  0  0  0  0
   18.3779  -18.6880  -11.5232 O   0  0  0  0  0  0  0  0  0  0  0  0
   19.5422  -14.2381  -14.8880 O   0  0  0  0  0  0  0  0  0  0  0  0
   18.6838  -19.9180  -13.3972 O   0  0  0  0  0  0  0  0  0  0  0  0
  2  3  1  0
  2  1  1  6
  3  4  1  0
  4  5  2  0
  5  6  1  0
  7  6  1  0
  8  7  2  0
  9  8  1  0
 10 11  1  0
 10  9  2  0
 11 12  2  0
 12  4  1  0
 12  7  1  0
 13 14  2  0
 13  2  1  0
 15 13  1  0
 16 15  1  0
 16 17  1  1
 18 17  1  0
 19 18  2  0
 20 16  1  0
 20 21  2  0
 22 18  1  0
 23 20  1  0
 24 23  1  0
 24 25  1  6
 26 27  1  0
 26 25  1  0
 27 31  1  0
 28 27  2  0
 29 24  1  0
 30 29  1  0
 32 29  2  0
M  END
$$$$
