WDE.pdb
     RDKit          3D

 32 33  0  0  1  0  0  0  0  0999 V2000
   26.6853  -22.4536  -12.9597 N   0  0  0  0  0  0  0  0  0  0  0  0
   25.7744  -21.6452  -12.2092 C   0  0  1  0  0  0  0  0  0  0  0  0
   26.4081  -20.3105  -11.8327 C   0  0  0  0  0  0  0  0  0  0  0  0
   27.5580  -20.4651  -10.9160 C   0  0  0  0  0  0  0  0  0  0  0  0
   28.8631  -20.6706  -11.2713 C   0  0  0  0  0  0  0  0  0  0  0  0
   29.5558  -20.7769  -10.1248 N   0  0  0  0  0  0  0  0  0  0  0  0
   28.7350  -20.6446   -9.0625 C   0  0  0  0  0  0  0  0  0  0  0  0
   28.9752  -20.6776   -7.7047 C   0  0  0  0  0  0  0  0  0  0  0  0
   27.9409  -20.5098   -6.8355 C   0  0  0  0  0  0  0  0  0  0  0  0
   26.6276  -20.3021   -7.2620 C   0  0  0  0  0  0  0  0  0  0  0  0
   26.4220  -20.2760   -8.6221 C   0  0  0  0  0  0  0  0  0  0  0  0
   27.4492  -20.4435   -9.5244 C   0  0  0  0  0  0  0  0  0  0  0  0
   24.4994  -21.3452  -12.9325 C   0  0  0  0  0  0  0  0  0  0  0  0
   24.4121  -21.1652  -14.1463 O   0  0  0  0  0  0  0  0  0  0  0  0
   23.3391  -21.2720  -12.1288 N   0  0  0  0  0  0  0  0  0  0  0  0
   21.9842  -21.0988  -12.6227 C   0  0  1  0  0  0  0  0  0  0  0  0
   21.0218  -21.6853  -11.6797 C   0  0  0  0  0  0  0  0  0  0  0  0
   19.6090  -21.6487  -12.0956 C   0  0  0  0  0  0  0  0  0  0  0  0
   18.7864  -20.8785  -11.5663 O   0  0  0  0  0  0  0  0  0  0  0  0
   21.7195  -19.7317  -13.0593 C   0  0  0  0  0  0  0  0  0  0  0  0
   21.8374  -18.7893  -12.2447 O   0  0  0  0  0  0  0  0  0  0  0  0
   19.1671  -22.4901  -13.1071 O   0  0  0  0  0  0  0  0  0  0  0  0
   21.3351  -19.4708  -14.3863 N   0  0  0  0  0  0  0  0  0  0  0  0
   21.0477  -18.1384  -14.8889 C   0  0  1  0  0  0  0  0  0  0  0  0
   21.2544  -18.1494  -16.4037 C   0  0  0  0  0  0  0  0  0  0  0  0
   20.8976  -16.8460  -17.0341 C   0  0  0  0  0  0  0  0  0  0  0  0
   21.0644  -16.9931  -18.5051 C   0  0  0  0  0  0  0  0  0  0  0  0
   21.3472  -18.0869  -19.0417 O   0  0  0  0  0  0  0  0  0  0  0  0
   19.6128  -17.8645  -14.5812 C   0  0  0  0  0  0  0  0  0  0  0  0
   19.2028  -16.5683  -14.3495 O   0  0  0  0  0  0  0  0  0  0  0  0
   20.9075  -15.8823  -19.3379 O   0  0  0  0  0  0  0  0  0  0  0  0
   18.7514  -18.7782  -14.5243 O   0  0  0  0  0  0  0  0  0  0  0  0
  2  3  1  0
  2  1  1  6
  3  4  1  0
  4  5  2  0
  5  6  1  0
  7  6  1  0
  8  7  2  0
  9  8  1  0
 10 11  1  0
 10  9  2  0
 11 12  2  0
 12  4  1  0
 12  7  1  0
 13 14  2  0
 13  2  1  0
 15 13  1  0
 16 15  1  0
 16 17  1  1
 18 17  1  0
 19 18  2  0
 20 16  1  0
 20 21  2  0
 22 18  1  0
 23 20  1  0
 24 23  1  0
 24 25  1  6
 26 27  1  0
 26 25  1  0
 27 31  1  0
 28 27  2  0
 29 24  1  0
 30 29  1  0
 32 29  2  0
M  END
$$$$
