WDE.pdb
     RDKit          3D

 32 33  0  0  1  0  0  0  0  0999 V2000
   15.4112  -15.9392    6.2983 N   0  0  0  0  0  0  0  0  0  0  0  0
   16.2421  -17.0668    6.0070 C   0  0  1  0  0  0  0  0  0  0  0  0
   17.6557  -16.6266    5.6429 C   0  0  0  0  0  0  0  0  0  0  0  0
   17.6792  -15.6482    4.5344 C   0  0  0  0  0  0  0  0  0  0  0  0
   17.0003  -15.7399    3.3503 C   0  0  0  0  0  0  0  0  0  0  0  0
   17.3332  -14.6508    2.6371 N   0  0  0  0  0  0  0  0  0  0  0  0
   18.1949  -13.8776    3.3294 C   0  0  0  0  0  0  0  0  0  0  0  0
   18.8077  -12.6807    3.0223 C   0  0  0  0  0  0  0  0  0  0  0  0
   19.6485  -12.1055    3.9255 C   0  0  0  0  0  0  0  0  0  0  0  0
   19.9229  -12.6802    5.1681 C   0  0  0  0  0  0  0  0  0  0  0  0
   19.2968  -13.8742    5.4427 C   0  0  0  0  0  0  0  0  0  0  0  0
   18.4421  -14.4791    4.5477 C   0  0  0  0  0  0  0  0  0  0  0  0
   16.3554  -18.0393    7.1385 C   0  0  0  0  0  0  0  0  0  0  0  0
   16.5059  -17.7226    8.3177 O   0  0  0  0  0  0  0  0  0  0  0  0
   16.2796  -19.4055    6.7850 N   0  0  0  0  0  0  0  0  0  0  0  0
   16.2964  -20.5176    7.7191 C   0  0  1  0  0  0  0  0  0  0  0  0
   15.6723  -21.7007    7.1106 C   0  0  0  0  0  0  0  0  0  0  0  0
   14.3766  -21.4753    6.4468 C   0  0  0  0  0  0  0  0  0  0  0  0
   14.1627  -21.8446    5.2773 O   0  0  0  0  0  0  0  0  0  0  0  0
   17.6068  -20.7132    8.3310 C   0  0  0  0  0  0  0  0  0  0  0  0
   18.6151  -20.1813    7.8151 O   0  0  0  0  0  0  0  0  0  0  0  0
   13.3538  -20.8351    7.1328 O   0  0  0  0  0  0  0  0  0  0  0  0
   17.7397  -21.4928    9.4934 N   0  0  0  0  0  0  0  0  0  0  0  0
   18.9833  -21.6203   10.2336 C   0  0  1  0  0  0  0  0  0  0  0  0
   19.2964  -20.2656   10.8694 C   0  0  0  0  0  0  0  0  0  0  0  0
   19.3055  -20.3270   12.3592 C   0  0  0  0  0  0  0  0  0  0  0  0
   20.5058  -19.5887   12.8361 C   0  0  0  0  0  0  0  0  0  0  0  0
   21.6672  -20.0277   12.6843 O   0  0  0  0  0  0  0  0  0  0  0  0
   18.7429  -22.6324   11.3043 C   0  0  0  0  0  0  0  0  0  0  0  0
   19.8177  -23.2387   11.9201 O   0  0  0  0  0  0  0  0  0  0  0  0
   20.3554  -18.3594   13.4829 O   0  0  0  0  0  0  0  0  0  0  0  0
   17.5864  -22.9589   11.6732 O   0  0  0  0  0  0  0  0  0  0  0  0
  2  3  1  0
  2  1  1  1
  3  4  1  0
  4  5  2  0
  5  6  1  0
  7  6  1  0
  8  7  2  0
  9  8  1  0
 10 11  1  0
 10  9  2  0
 11 12  2  0
 12  4  1  0
 12  7  1  0
 13 14  2  0
 13  2  1  0
 15 13  1  0
 16 15  1  0
 16 17  1  6
 18 17  1  0
 19 18  2  0
 20 16  1  0
 20 21  2  0
 22 18  1  0
 23 20  1  0
 24 23  1  0
 24 25  1  1
 26 27  1  0
 26 25  1  0
 27 31  1  0
 28 27  2  0
 29 24  1  0
 30 29  1  0
 32 29  2  0
M  END
$$$$
