WDE.pdb
     RDKit          3D

 32 33  0  0  1  0  0  0  0  0999 V2000
   27.1000  -20.7473  -15.8528 N   0  0  0  0  0  0  0  0  0  0  0  0
   26.3832  -21.0714  -14.6579 C   0  0  1  0  0  0  0  0  0  0  0  0
   26.5169  -19.9621  -13.6205 C   0  0  0  0  0  0  0  0  0  0  0  0
   27.9091  -19.7823  -13.1558 C   0  0  0  0  0  0  0  0  0  0  0  0
   28.8753  -19.0170  -13.7495 C   0  0  0  0  0  0  0  0  0  0  0  0
   29.9857  -19.1660  -13.0077 N   0  0  0  0  0  0  0  0  0  0  0  0
   29.7530  -19.9951  -11.9694 C   0  0  0  0  0  0  0  0  0  0  0  0
   30.5671  -20.4446  -10.9508 C   0  0  0  0  0  0  0  0  0  0  0  0
   30.0630  -21.2929  -10.0129 C   0  0  0  0  0  0  0  0  0  0  0  0
   28.7388  -21.7353  -10.0347 C   0  0  0  0  0  0  0  0  0  0  0  0
   27.9540  -21.2695  -11.0642 C   0  0  0  0  0  0  0  0  0  0  0  0
   28.4375  -20.4113  -12.0271 C   0  0  0  0  0  0  0  0  0  0  0  0
   24.9213  -21.3032  -14.8771 C   0  0  0  0  0  0  0  0  0  0  0  0
   24.2467  -20.7372  -15.7361 O   0  0  0  0  0  0  0  0  0  0  0  0
   24.3123  -22.2445  -14.0167 N   0  0  0  0  0  0  0  0  0  0  0  0
   22.9265  -22.6739  -14.0870 C   0  0  1  0  0  0  0  0  0  0  0  0
   22.8337  -24.1249  -13.8733 C   0  0  0  0  0  0  0  0  0  0  0  0
   23.2782  -24.9704  -14.9948 C   0  0  0  0  0  0  0  0  0  0  0  0
   23.2796  -24.5587  -16.1697 O   0  0  0  0  0  0  0  0  0  0  0  0
   22.0413  -21.8380  -13.2823 C   0  0  0  0  0  0  0  0  0  0  0  0
   22.1189  -21.8790  -12.0341 O   0  0  0  0  0  0  0  0  0  0  0  0
   23.7126  -26.2658  -14.7503 O   0  0  0  0  0  0  0  0  0  0  0  0
   21.1066  -20.9899  -13.9018 N   0  0  0  0  0  0  0  0  0  0  0  0
   20.2037  -20.1213  -13.1664 C   0  0  1  0  0  0  0  0  0  0  0  0
   20.0220  -18.8355  -13.9735 C   0  0  0  0  0  0  0  0  0  0  0  0
   20.7424  -18.8787  -15.2783 C   0  0  0  0  0  0  0  0  0  0  0  0
   20.5017  -17.5848  -15.9721 C   0  0  0  0  0  0  0  0  0  0  0  0
   19.3994  -16.9954  -15.9281 O   0  0  0  0  0  0  0  0  0  0  0  0
   18.8994  -20.8411  -13.0709 C   0  0  0  0  0  0  0  0  0  0  0  0
   17.9567  -20.4211  -12.1561 O   0  0  0  0  0  0  0  0  0  0  0  0
   21.5283  -16.9883  -16.7085 O   0  0  0  0  0  0  0  0  0  0  0  0
   18.6208  -21.8268  -13.7996 O   0  0  0  0  0  0  0  0  0  0  0  0
  2  3  1  0
  2  1  1  6
  3  4  1  0
  4  5  2  0
  5  6  1  0
  7  6  1  0
  8  7  2  0
  9  8  1  0
 10 11  1  0
 10  9  2  0
 11 12  2  0
 12  4  1  0
 12  7  1  0
 13 14  2  0
 13  2  1  0
 15 13  1  0
 16 15  1  0
 16 17  1  1
 18 17  1  0
 19 18  2  0
 20 16  1  0
 20 21  2  0
 22 18  1  0
 23 20  1  0
 24 23  1  0
 24 25  1  6
 26 27  1  0
 26 25  1  0
 27 31  1  0
 28 27  2  0
 29 24  1  0
 30 29  1  0
 32 29  2  0
M  END
$$$$
