WDE.pdb
     RDKit          3D

 32 33  0  0  1  0  0  0  0  0999 V2000
   27.2853  -22.1130  -10.1583 N   0  0  0  0  0  0  0  0  0  0  0  0
   26.5958  -20.9621   -9.6616 C   0  0  1  0  0  0  0  0  0  0  0  0
   27.5683  -19.8258   -9.3655 C   0  0  0  0  0  0  0  0  0  0  0  0
   28.6016  -20.2040   -8.3777 C   0  0  0  0  0  0  0  0  0  0  0  0
   29.7518  -20.9018   -8.6262 C   0  0  0  0  0  0  0  0  0  0  0  0
   30.3747  -21.0393   -7.4435 N   0  0  0  0  0  0  0  0  0  0  0  0
   29.6595  -20.4530   -6.4615 C   0  0  0  0  0  0  0  0  0  0  0  0
   29.8851  -20.3315   -5.1062 C   0  0  0  0  0  0  0  0  0  0  0  0
   28.9803  -19.6726   -4.3312 C   0  0  0  0  0  0  0  0  0  0  0  0
   27.8164  -19.1049   -4.8535 C   0  0  0  0  0  0  0  0  0  0  0  0
   27.6208  -19.2450   -6.2081 C   0  0  0  0  0  0  0  0  0  0  0  0
   28.5188  -19.9069   -7.0161 C   0  0  0  0  0  0  0  0  0  0  0  0
   25.5599  -20.4292  -10.6007 C   0  0  0  0  0  0  0  0  0  0  0  0
   24.8597  -19.4424  -10.3791 O   0  0  0  0  0  0  0  0  0  0  0  0
   25.4073  -21.1376  -11.8141 N   0  0  0  0  0  0  0  0  0  0  0  0
   24.5241  -20.7587  -12.9031 C   0  0  1  0  0  0  0  0  0  0  0  0
   24.9675  -21.3842  -14.1567 C   0  0  0  0  0  0  0  0  0  0  0  0
   24.2040  -21.0202  -15.3630 C   0  0  0  0  0  0  0  0  0  0  0  0
   23.8234  -21.8748  -16.1843 O   0  0  0  0  0  0  0  0  0  0  0  0
   23.1145  -20.9146  -12.5591 C   0  0  0  0  0  0  0  0  0  0  0  0
   22.7272  -21.9663  -12.0025 O   0  0  0  0  0  0  0  0  0  0  0  0
   23.8907  -19.6897  -15.6040 O   0  0  0  0  0  0  0  0  0  0  0  0
   22.1944  -19.8917  -12.8484 N   0  0  0  0  0  0  0  0  0  0  0  0
   20.7915  -19.9482  -12.4752 C   0  0  1  0  0  0  0  0  0  0  0  0
   20.1284  -18.6476  -12.9296 C   0  0  0  0  0  0  0  0  0  0  0  0
   18.6982  -18.5658  -12.5157 C   0  0  0  0  0  0  0  0  0  0  0  0
   18.1293  -17.3191  -13.0948 C   0  0  0  0  0  0  0  0  0  0  0  0
   18.8031  -16.5424  -13.8070 O   0  0  0  0  0  0  0  0  0  0  0  0
   20.1967  -21.0992  -13.2167 C   0  0  0  0  0  0  0  0  0  0  0  0
   19.2384  -21.8796  -12.6047 O   0  0  0  0  0  0  0  0  0  0  0  0
   16.7968  -16.9807  -12.8455 O   0  0  0  0  0  0  0  0  0  0  0  0
   20.5373  -21.3903  -14.3912 O   0  0  0  0  0  0  0  0  0  0  0  0
  2  3  1  0
  2  1  1  6
  3  4  1  0
  4  5  2  0
  5  6  1  0
  7  6  1  0
  8  7  2  0
  9  8  1  0
 10 11  1  0
 10  9  2  0
 11 12  2  0
 12  4  1  0
 12  7  1  0
 13 14  2  0
 13  2  1  0
 15 13  1  0
 16 15  1  0
 16 17  1  6
 18 17  1  0
 19 18  2  0
 20 16  1  0
 20 21  2  0
 22 18  1  0
 23 20  1  0
 24 23  1  0
 24 25  1  6
 26 27  1  0
 26 25  1  0
 27 31  1  0
 28 27  2  0
 29 24  1  0
 30 29  1  0
 32 29  2  0
M  END
$$$$
