WDE.pdb
     RDKit          3D

 32 33  0  0  1  0  0  0  0  0999 V2000
   24.8003  -20.0194   -8.7785 N   0  0  0  0  0  0  0  0  0  0  0  0
   25.9109  -20.0534   -9.6797 C   0  0  1  0  0  0  0  0  0  0  0  0
   27.1425  -20.6523   -9.0095 C   0  0  0  0  0  0  0  0  0  0  0  0
   27.3164  -20.1854   -7.6173 C   0  0  0  0  0  0  0  0  0  0  0  0
   26.4326  -19.4340   -6.8920 C   0  0  0  0  0  0  0  0  0  0  0  0
   27.0069  -19.2235   -5.6955 N   0  0  0  0  0  0  0  0  0  0  0  0
   28.2177  -19.8156   -5.6415 C   0  0  0  0  0  0  0  0  0  0  0  0
   29.1665  -19.8796   -4.6425 C   0  0  0  0  0  0  0  0  0  0  0  0
   30.3249  -20.5613   -4.8592 C   0  0  0  0  0  0  0  0  0  0  0  0
   30.6007  -21.2091   -6.0650 C   0  0  0  0  0  0  0  0  0  0  0  0
   29.6346  -21.1248   -7.0409 C   0  0  0  0  0  0  0  0  0  0  0  0
   28.4539  -20.4416   -6.8495 C   0  0  0  0  0  0  0  0  0  0  0  0
   25.6522  -20.8427  -10.9242 C   0  0  0  0  0  0  0  0  0  0  0  0
   25.1047  -21.9440  -10.9503 O   0  0  0  0  0  0  0  0  0  0  0  0
   26.0823  -20.2461  -12.1311 N   0  0  0  0  0  0  0  0  0  0  0  0
   25.5939  -20.5845  -13.4566 C   0  0  1  0  0  0  0  0  0  0  0  0
   25.5685  -19.3874  -14.3085 C   0  0  0  0  0  0  0  0  0  0  0  0
   24.5459  -18.3809  -13.9742 C   0  0  0  0  0  0  0  0  0  0  0  0
   23.3546  -18.6898  -13.7861 O   0  0  0  0  0  0  0  0  0  0  0  0
   26.2505  -21.7648  -14.0092 C   0  0  0  0  0  0  0  0  0  0  0  0
   27.4964  -21.8635  -13.9494 O   0  0  0  0  0  0  0  0  0  0  0  0
   24.9059  -17.0453  -13.8604 O   0  0  0  0  0  0  0  0  0  0  0  0
   25.4915  -22.7873  -14.6051 N   0  0  0  0  0  0  0  0  0  0  0  0
   26.0736  -24.0004  -15.1529 C   0  0  1  0  0  0  0  0  0  0  0  0
   24.9317  -24.9067  -15.6139 C   0  0  0  0  0  0  0  0  0  0  0  0
   25.4241  -26.1256  -16.3176 C   0  0  0  0  0  0  0  0  0  0  0  0
   24.2385  -26.8618  -16.8328 C   0  0  0  0  0  0  0  0  0  0  0  0
   23.0665  -26.4924  -16.5993 O   0  0  0  0  0  0  0  0  0  0  0  0
   26.8929  -23.5886  -16.3309 C   0  0  0  0  0  0  0  0  0  0  0  0
   28.1409  -24.1446  -16.5185 O   0  0  0  0  0  0  0  0  0  0  0  0
   24.4152  -28.0124  -17.6054 O   0  0  0  0  0  0  0  0  0  0  0  0
   26.4870  -22.7453  -17.1701 O   0  0  0  0  0  0  0  0  0  0  0  0
  2  3  1  0
  2  1  1  1
  3  4  1  0
  4  5  2  0
  5  6  1  0
  7  6  1  0
  8  7  2  0
  9  8  1  0
 10 11  1  0
 10  9  2  0
 11 12  2  0
 12  4  1  0
 12  7  1  0
 13 14  2  0
 13  2  1  0
 15 13  1  0
 16 15  1  0
 16 17  1  6
 18 17  1  0
 19 18  2  0
 20 16  1  0
 20 21  2  0
 22 18  1  0
 23 20  1  0
 24 23  1  0
 24 25  1  6
 26 27  1  0
 26 25  1  0
 27 31  1  0
 28 27  2  0
 29 24  1  0
 30 29  1  0
 32 29  2  0
M  END
$$$$
