WDE.pdb
     RDKit          3D

 32 33  0  0  1  0  0  0  0  0999 V2000
   26.1730  -22.6725  -13.8134 N   0  0  0  0  0  0  0  0  0  0  0  0
   25.3587  -21.7167  -13.1278 C   0  0  1  0  0  0  0  0  0  0  0  0
   26.0614  -20.3670  -13.0308 C   0  0  0  0  0  0  0  0  0  0  0  0
   27.2509  -20.4065  -12.1532 C   0  0  0  0  0  0  0  0  0  0  0  0
   28.5597  -20.3942  -12.5513 C   0  0  0  0  0  0  0  0  0  0  0  0
   29.2974  -20.4681  -11.4306 N   0  0  0  0  0  0  0  0  0  0  0  0
   28.5011  -20.5251  -10.3433 C   0  0  0  0  0  0  0  0  0  0  0  0
   28.7877  -20.6068   -8.9966 C   0  0  0  0  0  0  0  0  0  0  0  0
   27.7688  -20.6484   -8.0945 C   0  0  0  0  0  0  0  0  0  0  0  0
   26.4261  -20.6112   -8.4759 C   0  0  0  0  0  0  0  0  0  0  0  0
   26.1747  -20.5311   -9.8262 C   0  0  0  0  0  0  0  0  0  0  0  0
   27.1854  -20.4881  -10.7611 C   0  0  0  0  0  0  0  0  0  0  0  0
   24.0306  -21.4823  -13.7758 C   0  0  0  0  0  0  0  0  0  0  0  0
   23.8326  -21.5090  -14.9896 O   0  0  0  0  0  0  0  0  0  0  0  0
   22.9563  -21.2152  -12.8971 N   0  0  0  0  0  0  0  0  0  0  0  0
   21.5690  -21.0464  -13.2927 C   0  0  1  0  0  0  0  0  0  0  0  0
   20.6971  -21.8789  -12.4524 C   0  0  0  0  0  0  0  0  0  0  0  0
   19.2694  -21.8865  -12.8157 C   0  0  0  0  0  0  0  0  0  0  0  0
   18.8634  -22.3877  -13.8806 O   0  0  0  0  0  0  0  0  0  0  0  0
   21.1946  -19.6427  -13.4314 C   0  0  0  0  0  0  0  0  0  0  0  0
   21.3812  -18.8564  -12.4761 O   0  0  0  0  0  0  0  0  0  0  0  0
   18.3370  -21.3238  -11.9552 O   0  0  0  0  0  0  0  0  0  0  0  0
   20.6287  -19.1726  -14.6295 N   0  0  0  0  0  0  0  0  0  0  0  0
   20.1571  -17.8106  -14.8114 C   0  0  1  0  0  0  0  0  0  0  0  0
   20.5664  -17.3512  -16.2111 C   0  0  0  0  0  0  0  0  0  0  0  0
   22.0470  -17.2997  -16.3805 C   0  0  0  0  0  0  0  0  0  0  0  0
   22.3297  -16.7405  -17.7298 C   0  0  0  0  0  0  0  0  0  0  0  0
   21.5415  -16.8781  -18.6912 O   0  0  0  0  0  0  0  0  0  0  0  0
   18.6681  -17.8560  -14.7147 C   0  0  0  0  0  0  0  0  0  0  0  0
   17.9611  -16.6823  -14.5589 O   0  0  0  0  0  0  0  0  0  0  0  0
   23.5139  -16.0345  -17.9566 O   0  0  0  0  0  0  0  0  0  0  0  0
   18.0236  -18.9338  -14.7706 O   0  0  0  0  0  0  0  0  0  0  0  0
  2  3  1  0
  2  1  1  6
  3  4  1  0
  4  5  2  0
  5  6  1  0
  7  6  1  0
  8  7  2  0
  9  8  1  0
 10 11  1  0
 10  9  2  0
 11 12  2  0
 12  4  1  0
 12  7  1  0
 13 14  2  0
 13  2  1  0
 15 13  1  0
 16 15  1  0
 16 17  1  1
 18 17  1  0
 19 18  2  0
 20 16  1  0
 20 21  2  0
 22 18  1  0
 23 20  1  0
 24 23  1  0
 24 25  1  6
 26 27  1  0
 26 25  1  0
 27 31  1  0
 28 27  2  0
 29 24  1  0
 30 29  1  0
 32 29  2  0
M  END
$$$$
