WDE.pdb
     RDKit          3D

 32 33  0  0  1  0  0  0  0  0999 V2000
   26.2232  -21.7495  -15.2850 N   0  0  0  0  0  0  0  0  0  0  0  0
   25.9580  -20.9609  -14.1211 C   0  0  1  0  0  0  0  0  0  0  0  0
   26.4226  -19.5219  -14.3163 C   0  0  0  0  0  0  0  0  0  0  0  0
   27.8955  -19.4015  -14.3667 C   0  0  0  0  0  0  0  0  0  0  0  0
   28.6334  -18.8207  -15.3617 C   0  0  0  0  0  0  0  0  0  0  0  0
   29.9223  -18.9584  -15.0073 N   0  0  0  0  0  0  0  0  0  0  0  0
   30.0217  -19.6027  -13.8264 C   0  0  0  0  0  0  0  0  0  0  0  0
   31.1136  -19.9697  -13.0679 C   0  0  0  0  0  0  0  0  0  0  0  0
   30.9232  -20.6233  -11.8888 C   0  0  0  0  0  0  0  0  0  0  0  0
   29.6535  -20.9438  -11.4044 C   0  0  0  0  0  0  0  0  0  0  0  0
   28.5861  -20.5650  -12.1855 C   0  0  0  0  0  0  0  0  0  0  0  0
   28.7491  -19.9035  -13.3827 C   0  0  0  0  0  0  0  0  0  0  0  0
   24.5112  -20.9148  -13.7422 C   0  0  0  0  0  0  0  0  0  0  0  0
   23.5829  -21.1958  -14.4988 O   0  0  0  0  0  0  0  0  0  0  0  0
   24.2358  -20.5158  -12.4146 N   0  0  0  0  0  0  0  0  0  0  0  0
   22.9439  -20.6144  -11.7582 C   0  0  1  0  0  0  0  0  0  0  0  0
   23.1088  -20.5395  -10.2999 C   0  0  0  0  0  0  0  0  0  0  0  0
   23.9238  -21.6038   -9.6888 C   0  0  0  0  0  0  0  0  0  0  0  0
   24.3773  -21.5048   -8.5336 O   0  0  0  0  0  0  0  0  0  0  0  0
   21.9482  -19.7258  -12.3487 C   0  0  0  0  0  0  0  0  0  0  0  0
   22.2229  -18.5170  -12.5194 O   0  0  0  0  0  0  0  0  0  0  0  0
   24.2014  -22.7576  -10.4087 O   0  0  0  0  0  0  0  0  0  0  0  0
   20.6874  -20.2209  -12.7256 N   0  0  0  0  0  0  0  0  0  0  0  0
   19.6671  -19.4082  -13.3651 C   0  0  1  0  0  0  0  0  0  0  0  0
   19.4354  -19.9604  -14.7719 C   0  0  0  0  0  0  0  0  0  0  0  0
   18.8562  -21.3343  -14.7534 C   0  0  0  0  0  0  0  0  0  0  0  0
   17.5486  -21.2847  -15.4611 C   0  0  0  0  0  0  0  0  0  0  0  0
   17.0728  -20.2214  -15.9167 O   0  0  0  0  0  0  0  0  0  0  0  0
   18.4235  -19.5654  -12.5544 C   0  0  0  0  0  0  0  0  0  0  0  0
   17.3738  -18.6912  -12.7436 O   0  0  0  0  0  0  0  0  0  0  0  0
   16.8050  -22.4550  -15.6325 O   0  0  0  0  0  0  0  0  0  0  0  0
   18.2915  -20.4736  -11.6954 O   0  0  0  0  0  0  0  0  0  0  0  0
  2  3  1  0
  2  1  1  6
  3  4  1  0
  4  5  2  0
  5  6  1  0
  7  6  1  0
  8  7  2  0
  9  8  1  0
 10 11  1  0
 10  9  2  0
 11 12  2  0
 12  4  1  0
 12  7  1  0
 13 14  2  0
 13  2  1  0
 15 13  1  0
 16 15  1  0
 16 17  1  1
 18 17  1  0
 19 18  2  0
 20 16  1  0
 20 21  2  0
 22 18  1  0
 23 20  1  0
 24 23  1  0
 24 25  1  6
 26 27  1  0
 26 25  1  0
 27 31  1  0
 28 27  2  0
 29 24  1  0
 30 29  1  0
 32 29  2  0
M  END
$$$$
