WDE.pdb
     RDKit          3D

 32 33  0  0  1  0  0  0  0  0999 V2000
   27.6798  -18.9619   -9.8741 N   0  0  0  0  0  0  0  0  0  0  0  0
   26.9899  -20.2138   -9.8168 C   0  0  1  0  0  0  0  0  0  0  0  0
   26.5061  -20.5088   -8.4013 C   0  0  0  0  0  0  0  0  0  0  0  0
   27.1432  -19.6391   -7.3894 C   0  0  0  0  0  0  0  0  0  0  0  0
   27.3143  -18.2841   -7.4690 C   0  0  0  0  0  0  0  0  0  0  0  0
   27.9568  -17.9166   -6.3475 N   0  0  0  0  0  0  0  0  0  0  0  0
   28.1946  -18.9898   -5.5656 C   0  0  0  0  0  0  0  0  0  0  0  0
   28.8125  -19.1153   -4.3389 C   0  0  0  0  0  0  0  0  0  0  0  0
   28.9164  -20.3441   -3.7619 C   0  0  0  0  0  0  0  0  0  0  0  0
   28.4181  -21.5011   -4.3641 C   0  0  0  0  0  0  0  0  0  0  0  0
   27.8090  -21.3415   -5.5874 C   0  0  0  0  0  0  0  0  0  0  0  0
   27.6903  -20.1109   -6.1948 C   0  0  0  0  0  0  0  0  0  0  0  0
   25.7987  -20.2865  -10.7194 C   0  0  0  0  0  0  0  0  0  0  0  0
   24.9389  -19.4114  -10.8111 O   0  0  0  0  0  0  0  0  0  0  0  0
   25.6916  -21.4577  -11.5031 N   0  0  0  0  0  0  0  0  0  0  0  0
   24.9159  -21.5836  -12.7246 C   0  0  1  0  0  0  0  0  0  0  0  0
   25.5396  -22.5654  -13.6226 C   0  0  0  0  0  0  0  0  0  0  0  0
   26.5102  -22.0265  -14.5911 C   0  0  0  0  0  0  0  0  0  0  0  0
   27.6019  -22.5839  -14.8090 O   0  0  0  0  0  0  0  0  0  0  0  0
   23.4894  -21.7503  -12.4656 C   0  0  0  0  0  0  0  0  0  0  0  0
   23.1100  -22.5791  -11.6084 O   0  0  0  0  0  0  0  0  0  0  0  0
   26.2127  -20.8649  -15.2901 O   0  0  0  0  0  0  0  0  0  0  0  0
   22.5442  -20.9856  -13.1717 N   0  0  0  0  0  0  0  0  0  0  0  0
   21.1249  -20.9828  -12.8620 C   0  0  1  0  0  0  0  0  0  0  0  0
   20.4811  -19.8111  -13.6039 C   0  0  0  0  0  0  0  0  0  0  0  0
   19.0099  -19.7339  -13.3738 C   0  0  0  0  0  0  0  0  0  0  0  0
   18.7079  -18.3871  -12.8188 C   0  0  0  0  0  0  0  0  0  0  0  0
   17.6106  -18.1126  -12.2849 O   0  0  0  0  0  0  0  0  0  0  0  0
   20.5706  -22.2686  -13.3798 C   0  0  0  0  0  0  0  0  0  0  0  0
   19.4351  -22.7997  -12.8049 O   0  0  0  0  0  0  0  0  0  0  0  0
   19.6681  -17.3745  -12.8875 O   0  0  0  0  0  0  0  0  0  0  0  0
   21.1026  -22.8953  -14.3308 O   0  0  0  0  0  0  0  0  0  0  0  0
  2  3  1  0
  2  1  1  1
  3  4  1  0
  4  5  2  0
  5  6  1  0
  7  6  1  0
  8  7  2  0
  9  8  1  0
 10 11  1  0
 10  9  2  0
 11 12  2  0
 12  4  1  0
 12  7  1  0
 13 14  2  0
 13  2  1  0
 15 13  1  0
 16 15  1  0
 16 17  1  1
 18 17  1  0
 19 18  2  0
 20 16  1  0
 20 21  2  0
 22 18  1  0
 23 20  1  0
 24 23  1  0
 24 25  1  6
 26 27  1  0
 26 25  1  0
 27 31  1  0
 28 27  2  0
 29 24  1  0
 30 29  1  0
 32 29  2  0
M  END
$$$$
