WDE.pdb
     RDKit          3D

 32 33  0  0  1  0  0  0  0  0999 V2000
   16.7343  -15.6686    5.4656 N   0  0  0  0  0  0  0  0  0  0  0  0
   16.9223  -16.9876    4.9447 C   0  0  1  0  0  0  0  0  0  0  0  0
   18.2664  -17.1105    4.2353 C   0  0  0  0  0  0  0  0  0  0  0  0
   18.5412  -15.9699    3.3353 C   0  0  0  0  0  0  0  0  0  0  0  0
   17.7432  -14.8766    3.1363 C   0  0  0  0  0  0  0  0  0  0  0  0
   18.3674  -14.1129    2.2238 N   0  0  0  0  0  0  0  0  0  0  0  0
   19.5283  -14.6848    1.8430 C   0  0  0  0  0  0  0  0  0  0  0  0
   20.4993  -14.2873    0.9478 C   0  0  0  0  0  0  0  0  0  0  0  0
   21.5949  -15.0718    0.7532 C   0  0  0  0  0  0  0  0  0  0  0  0
   21.7839  -16.2788    1.4292 C   0  0  0  0  0  0  0  0  0  0  0  0
   20.7966  -16.6468    2.3138 C   0  0  0  0  0  0  0  0  0  0  0  0
   19.6774  -15.8734    2.5300 C   0  0  0  0  0  0  0  0  0  0  0  0
   16.8685  -18.0598    5.9870 C   0  0  0  0  0  0  0  0  0  0  0  0
   17.2130  -17.9112    7.1585 O   0  0  0  0  0  0  0  0  0  0  0  0
   16.3825  -19.3143    5.5541 N   0  0  0  0  0  0  0  0  0  0  0  0
   16.6062  -20.5808    6.2292 C   0  0  1  0  0  0  0  0  0  0  0  0
   15.9403  -21.6689    5.4997 C   0  0  0  0  0  0  0  0  0  0  0  0
   15.9502  -22.9863    6.1591 C   0  0  0  0  0  0  0  0  0  0  0  0
   16.0795  -23.1049    7.3916 O   0  0  0  0  0  0  0  0  0  0  0  0
   18.0086  -20.7895    6.5748 C   0  0  0  0  0  0  0  0  0  0  0  0
   18.8701  -20.8215    5.6678 O   0  0  0  0  0  0  0  0  0  0  0  0
   15.8107  -24.1383    5.3976 O   0  0  0  0  0  0  0  0  0  0  0  0
   18.3936  -20.9528    7.9171 N   0  0  0  0  0  0  0  0  0  0  0  0
   19.7715  -21.1409    8.3371 C   0  0  1  0  0  0  0  0  0  0  0  0
   20.0855  -20.0980    9.4102 C   0  0  0  0  0  0  0  0  0  0  0  0
   21.2332  -19.2240    9.0328 C   0  0  0  0  0  0  0  0  0  0  0  0
   21.3869  -18.1937   10.0949 C   0  0  0  0  0  0  0  0  0  0  0  0
   20.6719  -18.1768   11.1211 O   0  0  0  0  0  0  0  0  0  0  0  0
   19.8565  -22.5090    8.9283 C   0  0  0  0  0  0  0  0  0  0  0  0
   18.7336  -23.3092    8.9540 O   0  0  0  0  0  0  0  0  0  0  0  0
   22.3564  -17.1965    9.9622 O   0  0  0  0  0  0  0  0  0  0  0  0
   20.9231  -22.9681    9.4096 O   0  0  0  0  0  0  0  0  0  0  0  0
  2  3  1  0
  2  1  1  1
  3  4  1  0
  4  5  2  0
  5  6  1  0
  7  6  1  0
  8  7  2  0
  9  8  1  0
 10 11  1  0
 10  9  2  0
 11 12  2  0
 12  4  1  0
 12  7  1  0
 13 14  2  0
 13  2  1  0
 15 13  1  0
 16 15  1  0
 16 17  1  6
 18 17  1  0
 19 18  2  0
 20 16  1  0
 20 21  2  0
 22 18  1  0
 23 20  1  0
 24 23  1  0
 24 25  1  1
 26 27  1  0
 26 25  1  0
 27 31  1  0
 28 27  2  0
 29 24  1  0
 30 29  1  0
 32 29  2  0
M  END
$$$$
