EVL.pdb
     RDKit          3D

 25 24  0  0  1  0  0  0  0  0999 V2000
   19.2525  -11.9931  -17.8982 N   0  0  0  0  0  0  0  0  0  0  0  0
   18.2512  -11.2479  -17.1343 C   0  0  1  0  0  0  0  0  0  0  0  0
   17.2238  -12.2209  -16.6268 C   0  0  0  0  0  0  0  0  0  0  0  0
   16.4615  -12.9316  -17.6824 C   0  0  0  0  0  0  0  0  0  0  0  0
   15.4224  -13.8538  -17.2020 C   0  0  0  0  0  0  0  0  0  0  0  0
   14.2364  -13.4837  -17.0852 O   0  0  0  0  0  0  0  0  0  0  0  0
   18.9133  -10.4816  -16.0201 C   0  0  0  0  0  0  0  0  0  0  0  0
   18.2280  -10.0912  -15.0594 O   0  0  0  0  0  0  0  0  0  0  0  0
   15.7219  -15.1613  -16.8634 O   0  0  0  0  0  0  0  0  0  0  0  0
   23.2428   -9.9110  -16.4772 C   0  0  0  0  0  0  0  0  0  0  0  0
   22.5410  -10.2457  -15.1552 C   0  0  1  0  0  0  0  0  0  0  0  0
   23.3908   -9.4236  -14.1455 C   0  0  0  0  0  0  0  0  0  0  0  0
   21.1654   -9.6170  -15.1458 C   0  0  2  0  0  0  0  0  0  0  0  0
   20.2841  -10.2435  -16.1214 N   0  0  0  0  0  0  0  0  0  0  0  0
   21.1138   -8.1659  -15.2712 C   0  0  0  0  0  0  0  0  0  0  0  0
   21.3247   -7.7059  -16.4607 O   0  0  0  0  0  0  0  0  0  0  0  0
   20.4123   -2.8285  -13.7227 C   0  0  0  0  0  0  0  0  0  0  0  0
   19.5140   -3.6659  -14.6017 C   0  0  1  0  0  0  0  0  0  0  0  0
   19.9716   -3.3793  -16.0421 C   0  0  0  0  0  0  0  0  0  0  0  0
   19.6171   -5.1276  -14.4071 C   0  0  0  0  0  0  0  0  0  0  0  0
   20.9497   -5.7568  -14.5278 C   0  0  2  0  0  0  0  0  0  0  0  0
   20.8657   -7.1988  -14.2973 N   0  0  0  0  0  0  0  0  0  0  0  0
   22.0359   -5.1386  -13.7704 C   0  0  0  0  0  0  0  0  0  0  0  0
   22.2607   -5.5347  -12.4604 O   0  0  0  0  0  0  0  0  0  0  0  0
   22.8053   -4.2488  -14.2261 O   0  0  0  0  0  0  0  0  0  0  0  0
  2  1  1  1
  2  3  1  0
  3  4  1  0
  5  6  2  0
  5  4  1  0
  7  8  2  0
  7  2  1  0
  9  5  1  0
 11 10  1  6
 11 13  1  0
 12 11  1  0
 13 14  1  6
 14  7  1  0
 15 22  1  0
 15 13  1  0
 16 15  2  0
 18 17  1  1
 18 20  1  0
 19 18  1  0
 21 20  1  1
 21 23  1  0
 21 22  1  0
 23 24  1  0
 25 23  2  0
M  END
$$$$
