EVL.pdb
     RDKit          3D

 25 24  0  0  1  0  0  0  0  0999 V2000
   25.2419  -19.1050  -16.8227 N   0  0  0  0  0  0  0  0  0  0  0  0
   26.0902  -19.0434  -15.6318 C   0  0  1  0  0  0  0  0  0  0  0  0
   27.1197  -17.9680  -15.8402 C   0  0  0  0  0  0  0  0  0  0  0  0
   27.9142  -18.0969  -17.0863 C   0  0  0  0  0  0  0  0  0  0  0  0
   28.3596  -19.4584  -17.4163 C   0  0  0  0  0  0  0  0  0  0  0  0
   27.7301  -20.1622  -18.2321 O   0  0  0  0  0  0  0  0  0  0  0  0
   25.2485  -18.8005  -14.4073 C   0  0  0  0  0  0  0  0  0  0  0  0
   24.3040  -17.9949  -14.4685 O   0  0  0  0  0  0  0  0  0  0  0  0
   29.4895  -20.0060  -16.8354 O   0  0  0  0  0  0  0  0  0  0  0  0
   22.9766  -19.7361  -13.7059 C   0  0  0  0  0  0  0  0  0  0  0  0
   23.4068  -20.1512  -12.2936 C   0  0  1  0  0  0  0  0  0  0  0  0
   23.5588  -21.6892  -12.4639 C   0  0  0  0  0  0  0  0  0  0  0  0
   24.7987  -19.6262  -12.0199 C   0  0  2  0  0  0  0  0  0  0  0  0
   25.5743  -19.5018  -13.2463 N   0  0  0  0  0  0  0  0  0  0  0  0
   25.5681  -20.3274  -10.9999 C   0  0  0  0  0  0  0  0  0  0  0  0
   26.0085  -21.4931  -11.3434 O   0  0  0  0  0  0  0  0  0  0  0  0
   28.5636  -18.6466   -6.6647 C   0  0  0  0  0  0  0  0  0  0  0  0
   27.9686  -19.4605   -7.7892 C   0  0  1  0  0  0  0  0  0  0  0  0
   29.0369  -20.5095   -8.1421 C   0  0  0  0  0  0  0  0  0  0  0  0
   26.7376  -20.2061   -7.4523 C   0  0  0  0  0  0  0  0  0  0  0  0
   25.9694  -20.8225   -8.5551 C   0  0  2  0  0  0  0  0  0  0  0  0
   25.9041  -19.9242   -9.7077 N   0  0  0  0  0  0  0  0  0  0  0  0
   24.6615  -21.3763   -8.2114 C   0  0  0  0  0  0  0  0  0  0  0  0
   23.5220  -20.8302   -8.7830 O   0  0  0  0  0  0  0  0  0  0  0  0
   24.4823  -22.3373   -7.4140 O   0  0  0  0  0  0  0  0  0  0  0  0
  2  1  1  6
  2  3  1  0
  3  4  1  0
  5  6  2  0
  5  4  1  0
  7  8  2  0
  7  2  1  0
  9  5  1  0
 11 10  1  6
 11 13  1  0
 12 11  1  0
 13 14  1  6
 14  7  1  0
 15 22  1  0
 15 13  1  0
 16 15  2  0
 18 17  1  1
 18 20  1  0
 19 18  1  0
 21 20  1  1
 21 23  1  0
 21 22  1  0
 23 24  1  0
 25 23  2  0
M  END
$$$$
