EVL.pdb
     RDKit          3D

 25 24  0  0  1  0  0  0  0  0999 V2000
   16.1485  -13.3937  -15.3786 N   0  0  0  0  0  0  0  0  0  0  0  0
   15.9213  -11.9483  -15.4091 C   0  0  1  0  0  0  0  0  0  0  0  0
   14.4383  -11.7029  -15.3972 C   0  0  0  0  0  0  0  0  0  0  0  0
   13.7344  -12.0691  -16.6506 C   0  0  0  0  0  0  0  0  0  0  0  0
   12.2688  -11.9626  -16.6091 C   0  0  0  0  0  0  0  0  0  0  0  0
   11.5484  -12.9814  -16.6118 O   0  0  0  0  0  0  0  0  0  0  0  0
   16.6199  -11.2887  -14.2499 C   0  0  0  0  0  0  0  0  0  0  0  0
   16.7941  -11.9304  -13.1998 O   0  0  0  0  0  0  0  0  0  0  0  0
   11.6383  -10.7320  -16.5655 O   0  0  0  0  0  0  0  0  0  0  0  0
   18.5619   -7.6562  -15.3232 C   0  0  0  0  0  0  0  0  0  0  0  0
   19.0161   -8.5313  -14.1484 C   0  0  1  0  0  0  0  0  0  0  0  0
   19.5451   -7.4562  -13.1576 C   0  0  0  0  0  0  0  0  0  0  0  0
   17.8040   -9.1452  -13.4838 C   0  0  2  0  0  0  0  0  0  0  0  0
   17.0444   -9.9699  -14.4132 N   0  0  0  0  0  0  0  0  0  0  0  0
   16.9187   -8.2296  -12.7751 C   0  0  0  0  0  0  0  0  0  0  0  0
   16.0879   -7.5767  -13.5196 O   0  0  0  0  0  0  0  0  0  0  0  0
   13.3439   -6.4638   -8.8392 C   0  0  0  0  0  0  0  0  0  0  0  0
   14.8326   -6.3111   -8.6364 C   0  0  1  0  0  0  0  0  0  0  0  0
   15.0739   -6.6133   -7.1475 C   0  0  0  0  0  0  0  0  0  0  0  0
   15.6784   -7.2509   -9.4021 C   0  0  0  0  0  0  0  0  0  0  0  0
   15.9444   -6.9518  -10.8255 C   0  0  2  0  0  0  0  0  0  0  0  0
   16.8321   -7.9567  -11.4101 N   0  0  0  0  0  0  0  0  0  0  0  0
   16.3697   -5.5894  -11.1391 C   0  0  0  0  0  0  0  0  0  0  0  0
   15.4203   -4.6530  -11.5203 O   0  0  0  0  0  0  0  0  0  0  0  0
   17.5644   -5.1871  -11.0898 O   0  0  0  0  0  0  0  0  0  0  0  0
  2  1  1  1
  2  3  1  0
  3  4  1  0
  5  6  2  0
  5  4  1  0
  7  8  2  0
  7  2  1  0
  9  5  1  0
 11 10  1  6
 11 13  1  0
 12 11  1  0
 13 14  1  6
 14  7  1  0
 15 22  1  0
 15 13  1  0
 16 15  2  0
 18 17  1  6
 18 20  1  0
 19 18  1  0
 21 20  1  1
 21 23  1  0
 21 22  1  0
 23 24  1  0
 25 23  2  0
M  END
$$$$
