EVL.pdb
     RDKit          3D

 25 24  0  0  1  0  0  0  0  0999 V2000
   19.4944  -23.0024   -8.6079 N   0  0  0  0  0  0  0  0  0  0  0  0
   20.1435  -22.6064   -7.3575 C   0  0  1  0  0  0  0  0  0  0  0  0
   19.5878  -23.4544   -6.2475 C   0  0  0  0  0  0  0  0  0  0  0  0
   18.1809  -23.1597   -5.8809 C   0  0  0  0  0  0  0  0  0  0  0  0
   17.1609  -23.7220   -6.7778 C   0  0  0  0  0  0  0  0  0  0  0  0
   17.2522  -24.8910   -7.2048 O   0  0  0  0  0  0  0  0  0  0  0  0
   21.6380  -22.7376   -7.4846 C   0  0  0  0  0  0  0  0  0  0  0  0
   22.1997  -23.7523   -7.0375 O   0  0  0  0  0  0  0  0  0  0  0  0
   16.0665  -22.9768   -7.1790 O   0  0  0  0  0  0  0  0  0  0  0  0
   22.9660  -20.3886  -10.7165 C   0  0  0  0  0  0  0  0  0  0  0  0
   23.5245  -21.7393  -10.2520 C   0  0  1  0  0  0  0  0  0  0  0  0
   24.9817  -21.6645  -10.7890 C   0  0  0  0  0  0  0  0  0  0  0  0
   23.6394  -21.7412   -8.7438 C   0  0  2  0  0  0  0  0  0  0  0  0
   22.3301  -21.6988   -8.1074 N   0  0  0  0  0  0  0  0  0  0  0  0
   24.5225  -20.7403   -8.1586 C   0  0  0  0  0  0  0  0  0  0  0  0
   24.0319  -19.5467   -8.0831 O   0  0  0  0  0  0  0  0  0  0  0  0
   28.5765  -20.5358   -4.1227 C   0  0  0  0  0  0  0  0  0  0  0  0
   27.4908  -20.0513   -5.0541 C   0  0  1  0  0  0  0  0  0  0  0  0
   27.3122  -18.5583   -4.7295 C   0  0  0  0  0  0  0  0  0  0  0  0
   27.8049  -20.1370   -6.4959 C   0  0  0  0  0  0  0  0  0  0  0  0
   26.7496  -19.7702   -7.4645 C   0  0  2  0  0  0  0  0  0  0  0  0
   25.8186  -20.8807   -7.6632 N   0  0  0  0  0  0  0  0  0  0  0  0
   27.1958  -19.1903   -8.7294 C   0  0  0  0  0  0  0  0  0  0  0  0
   27.2845  -17.8115   -8.8498 O   0  0  0  0  0  0  0  0  0  0  0  0
   27.5146  -19.8627   -9.7481 O   0  0  0  0  0  0  0  0  0  0  0  0
  2  1  1  6
  2  3  1  0
  3  4  1  0
  5  6  2  0
  5  4  1  0
  7  8  2  0
  7  2  1  0
  9  5  1  0
 11 10  1  1
 11 13  1  0
 12 11  1  0
 13 14  1  1
 14  7  1  0
 15 22  1  0
 15 13  1  0
 16 15  2  0
 18 17  1  1
 18 20  1  0
 19 18  1  0
 21 20  1  6
 21 23  1  0
 21 22  1  0
 23 24  1  0
 25 23  2  0
M  END
$$$$
