EVL.pdb
     RDKit          3D

 25 24  0  0  1  0  0  0  0  0999 V2000
   26.8184  -18.8340  -18.8910 N   0  0  0  0  0  0  0  0  0  0  0  0
   26.6306  -19.4696  -17.5862 C   0  0  1  0  0  0  0  0  0  0  0  0
   27.9708  -19.5712  -16.9130 C   0  0  0  0  0  0  0  0  0  0  0  0
   28.8004  -20.7231  -17.3436 C   0  0  0  0  0  0  0  0  0  0  0  0
   28.2857  -22.0491  -16.9722 C   0  0  0  0  0  0  0  0  0  0  0  0
   27.4533  -22.6410  -17.6891 O   0  0  0  0  0  0  0  0  0  0  0  0
   25.6365  -18.6896  -16.7675 C   0  0  0  0  0  0  0  0  0  0  0  0
   25.4588  -17.4843  -17.0130 O   0  0  0  0  0  0  0  0  0  0  0  0
   28.7051  -22.6858  -15.8179 O   0  0  0  0  0  0  0  0  0  0  0  0
   23.3798  -17.6376  -17.0595 C   0  0  0  0  0  0  0  0  0  0  0  0
   22.7366  -18.3149  -15.8432 C   0  0  1  0  0  0  0  0  0  0  0  0
   22.0243  -19.5243  -16.5123 C   0  0  0  0  0  0  0  0  0  0  0  0
   23.8198  -18.9056  -14.9683 C   0  0  2  0  0  0  0  0  0  0  0  0
   24.9528  -19.3678  -15.7582 N   0  0  0  0  0  0  0  0  0  0  0  0
   23.4030  -19.9355  -14.0250 C   0  0  0  0  0  0  0  0  0  0  0  0
   23.2021  -21.1053  -14.5369 O   0  0  0  0  0  0  0  0  0  0  0  0
   25.4027  -20.0839   -9.1340 C   0  0  0  0  0  0  0  0  0  0  0  0
   24.8656  -20.4404  -10.4997 C   0  0  1  0  0  0  0  0  0  0  0  0
   25.7758  -21.5692  -11.0133 C   0  0  0  0  0  0  0  0  0  0  0  0
   23.4843  -20.9662  -10.5225 C   0  0  0  0  0  0  0  0  0  0  0  0
   22.7552  -20.9609  -11.8088 C   0  0  2  0  0  0  0  0  0  0  0  0
   23.1930  -19.8466  -12.6491 N   0  0  0  0  0  0  0  0  0  0  0  0
   21.2990  -21.0588  -11.7355 C   0  0  0  0  0  0  0  0  0  0  0  0
   20.7211  -22.2157  -11.2344 O   0  0  0  0  0  0  0  0  0  0  0  0
   20.5047  -20.1499  -12.1024 O   0  0  0  0  0  0  0  0  0  0  0  0
  2  1  1  6
  2  3  1  0
  3  4  1  0
  5  6  2  0
  5  4  1  0
  7  8  2  0
  7  2  1  0
  9  5  1  0
 11 10  1  6
 11 13  1  0
 12 11  1  0
 13 14  1  6
 14  7  1  0
 15 22  1  0
 15 13  1  0
 16 15  2  0
 18 17  1  1
 18 20  1  0
 19 18  1  0
 21 20  1  1
 21 23  1  0
 21 22  1  0
 23 24  1  0
 25 23  2  0
M  END
$$$$
