EVL.pdb
     RDKit          3D

 25 24  0  0  1  0  0  0  0  0999 V2000
   26.4564  -18.7370  -16.9681 N   0  0  0  0  0  0  0  0  0  0  0  0
   26.7683  -19.6052  -15.8321 C   0  0  1  0  0  0  0  0  0  0  0  0
   28.2398  -19.4966  -15.5445 C   0  0  0  0  0  0  0  0  0  0  0  0
   29.1247  -20.0528  -16.5972 C   0  0  0  0  0  0  0  0  0  0  0  0
   28.9912  -21.4964  -16.8402 C   0  0  0  0  0  0  0  0  0  0  0  0
   28.6241  -21.9316  -17.9506 O   0  0  0  0  0  0  0  0  0  0  0  0
   25.9236  -19.2287  -14.6440 C   0  0  0  0  0  0  0  0  0  0  0  0
   25.6504  -18.0323  -14.4467 O   0  0  0  0  0  0  0  0  0  0  0  0
   29.2671  -22.4210  -15.8489 O   0  0  0  0  0  0  0  0  0  0  0  0
   23.4388  -22.3178  -13.1948 C   0  0  0  0  0  0  0  0  0  0  0  0
   23.2390  -20.8124  -12.9811 C   0  0  1  0  0  0  0  0  0  0  0  0
   22.4448  -20.7997  -11.6445 C   0  0  0  0  0  0  0  0  0  0  0  0
   24.5732  -20.1689  -12.6752 C   0  0  2  0  0  0  0  0  0  0  0  0
   25.4819  -20.2560  -13.8100 N   0  0  0  0  0  0  0  0  0  0  0  0
   25.2398  -20.6052  -11.4547 C   0  0  0  0  0  0  0  0  0  0  0  0
   25.8245  -21.7558  -11.5251 O   0  0  0  0  0  0  0  0  0  0  0  0
   28.7137  -19.1736   -6.6928 C   0  0  0  0  0  0  0  0  0  0  0  0
   27.6365  -20.1017   -7.2019 C   0  0  1  0  0  0  0  0  0  0  0  0
   26.5417  -20.0863   -6.1213 C   0  0  0  0  0  0  0  0  0  0  0  0
   26.9897  -19.6923   -8.4664 C   0  0  0  0  0  0  0  0  0  0  0  0
   25.9340  -20.5633   -9.0258 C   0  0  2  0  0  0  0  0  0  0  0  0
   25.3443  -19.9618  -10.2217 N   0  0  0  0  0  0  0  0  0  0  0  0
   24.9187  -21.0435   -8.0909 C   0  0  0  0  0  0  0  0  0  0  0  0
   23.6866  -20.4086   -8.0424 O   0  0  0  0  0  0  0  0  0  0  0  0
   25.0789  -22.0155   -7.3029 O   0  0  0  0  0  0  0  0  0  0  0  0
  2  1  1  6
  2  3  1  0
  3  4  1  0
  5  6  2  0
  5  4  1  0
  7  8  2  0
  7  2  1  0
  9  5  1  0
 11 10  1  1
 11 13  1  0
 12 11  1  0
 13 14  1  6
 14  7  1  0
 15 22  1  0
 15 13  1  0
 16 15  2  0
 18 17  1  1
 18 20  1  0
 19 18  1  0
 21 20  1  1
 21 23  1  0
 21 22  1  0
 23 24  1  0
 25 23  2  0
M  END
$$$$
