EVL.pdb
     RDKit          3D

 25 24  0  0  1  0  0  0  0  0999 V2000
   17.6961  -15.2799  -18.3710 N   0  0  0  0  0  0  0  0  0  0  0  0
   18.5841  -14.6489  -17.3937 C   0  0  1  0  0  0  0  0  0  0  0  0
   19.4879  -15.7066  -16.8245 C   0  0  0  0  0  0  0  0  0  0  0  0
   18.7908  -16.8141  -16.1259 C   0  0  0  0  0  0  0  0  0  0  0  0
   19.6595  -17.8717  -15.5894 C   0  0  0  0  0  0  0  0  0  0  0  0
   19.1912  -18.8064  -14.9081 O   0  0  0  0  0  0  0  0  0  0  0  0
   19.3523  -13.5265  -18.0395 C   0  0  0  0  0  0  0  0  0  0  0  0
   19.7076  -13.6363  -19.2255 O   0  0  0  0  0  0  0  0  0  0  0  0
   21.0235  -17.8680  -15.8204 O   0  0  0  0  0  0  0  0  0  0  0  0
   18.4489   -9.8273  -16.5921 C   0  0  0  0  0  0  0  0  0  0  0  0
   19.2169  -10.0660  -17.8980 C   0  0  1  0  0  0  0  0  0  0  0  0
   20.0152   -8.7379  -18.0260 C   0  0  0  0  0  0  0  0  0  0  0  0
   20.2494  -11.1496  -17.6804 C   0  0  2  0  0  0  0  0  0  0  0  0
   19.6320  -12.4012  -17.2641 N   0  0  0  0  0  0  0  0  0  0  0  0
   21.3655  -10.8164  -16.8043 C   0  0  0  0  0  0  0  0  0  0  0  0
   21.0865  -10.7814  -15.5426 O   0  0  0  0  0  0  0  0  0  0  0  0
   26.2055   -8.8970  -15.0994 C   0  0  0  0  0  0  0  0  0  0  0  0
   26.2147  -10.2656  -15.7380 C   0  0  1  0  0  0  0  0  0  0  0  0
   26.1640  -11.2617  -14.5670 C   0  0  0  0  0  0  0  0  0  0  0  0
   25.0568  -10.5709  -16.6046 C   0  0  0  0  0  0  0  0  0  0  0  0
   23.7136  -10.1518  -16.1502 C   0  0  2  0  0  0  0  0  0  0  0  0
   22.6929  -10.5339  -17.1258 N   0  0  0  0  0  0  0  0  0  0  0  0
   23.5730   -8.7628  -15.7186 C   0  0  0  0  0  0  0  0  0  0  0  0
   23.4289   -8.4833  -14.3679 O   0  0  0  0  0  0  0  0  0  0  0  0
   23.5716   -7.7713  -16.4987 O   0  0  0  0  0  0  0  0  0  0  0  0
  2  1  1  6
  2  3  1  0
  3  4  1  0
  5  6  2  0
  5  4  1  0
  7  8  2  0
  7  2  1  0
  9  5  1  0
 11 10  1  1
 11 13  1  0
 12 11  1  0
 13 14  1  1
 14  7  1  0
 15 22  1  0
 15 13  1  0
 16 15  2  0
 18 17  1  1
 18 20  1  0
 19 18  1  0
 21 20  1  6
 21 23  1  0
 21 22  1  0
 23 24  1  0
 25 23  2  0
M  END
$$$$
