EVL.pdb
     RDKit          3D

 25 24  0  0  1  0  0  0  0  0999 V2000
   24.6034  -18.2559  -17.0870 N   0  0  0  0  0  0  0  0  0  0  0  0
   25.5500  -18.2952  -15.9717 C   0  0  1  0  0  0  0  0  0  0  0  0
   26.2209  -16.9535  -15.8740 C   0  0  0  0  0  0  0  0  0  0  0  0
   27.1957  -16.6625  -16.9536 C   0  0  0  0  0  0  0  0  0  0  0  0
   28.2500  -17.6690  -17.1442 C   0  0  0  0  0  0  0  0  0  0  0  0
   28.3881  -18.6168  -16.3443 O   0  0  0  0  0  0  0  0  0  0  0  0
   24.8380  -18.6730  -14.7000 C   0  0  0  0  0  0  0  0  0  0  0  0
   23.8820  -17.9813  -14.3097 O   0  0  0  0  0  0  0  0  0  0  0  0
   29.1240  -17.6011  -18.2144 O   0  0  0  0  0  0  0  0  0  0  0  0
   23.6107  -21.8065  -14.5684 C   0  0  0  0  0  0  0  0  0  0  0  0
   24.1629  -21.7948  -13.1377 C   0  0  1  0  0  0  0  0  0  0  0  0
   25.3958  -22.7311  -13.2820 C   0  0  0  0  0  0  0  0  0  0  0  0
   24.7197  -20.4232  -12.8274 C   0  0  2  0  0  0  0  0  0  0  0  0
   25.2925  -19.7978  -14.0114 N   0  0  0  0  0  0  0  0  0  0  0  0
   25.6478  -20.3375  -11.7069 C   0  0  0  0  0  0  0  0  0  0  0  0
   26.8249  -20.8247  -11.9256 O   0  0  0  0  0  0  0  0  0  0  0  0
   28.8703  -20.3612   -7.3221 C   0  0  0  0  0  0  0  0  0  0  0  0
   27.5170  -19.6946   -7.2508 C   0  0  1  0  0  0  0  0  0  0  0  0
   27.7545  -18.3694   -6.5067 C   0  0  0  0  0  0  0  0  0  0  0  0
   26.9101  -19.3465   -8.5530 C   0  0  0  0  0  0  0  0  0  0  0  0
   26.0459  -20.3490   -9.2120 C   0  0  2  0  0  0  0  0  0  0  0  0
   25.4551  -19.8025  -10.4334 N   0  0  0  0  0  0  0  0  0  0  0  0
   25.0550  -21.0139   -8.3685 C   0  0  0  0  0  0  0  0  0  0  0  0
   25.4838  -21.8103   -7.3172 O   0  0  0  0  0  0  0  0  0  0  0  0
   23.8069  -20.9187   -8.5258 O   0  0  0  0  0  0  0  0  0  0  0  0
  2  1  1  6
  2  3  1  0
  3  4  1  0
  5  6  2  0
  5  4  1  0
  7  8  2  0
  7  2  1  0
  9  5  1  0
 11 10  1  6
 11 13  1  0
 12 11  1  0
 13 14  1  6
 14  7  1  0
 15 22  1  0
 15 13  1  0
 16 15  2  0
 18 17  1  6
 18 20  1  0
 19 18  1  0
 21 20  1  1
 21 23  1  0
 21 22  1  0
 23 24  1  0
 25 23  2  0
M  END
$$$$
