EVL.pdb
     RDKit          3D

 25 24  0  0  1  0  0  0  0  0999 V2000
   24.8961  -22.5987  -16.0157 N   0  0  0  0  0  0  0  0  0  0  0  0
   26.3291  -22.8782  -16.1170 C   0  0  1  0  0  0  0  0  0  0  0  0
   26.7857  -22.5089  -17.5009 C   0  0  0  0  0  0  0  0  0  0  0  0
   26.1510  -23.2831  -18.5955 C   0  0  0  0  0  0  0  0  0  0  0  0
   24.8418  -22.7885  -19.0454 C   0  0  0  0  0  0  0  0  0  0  0  0
   24.6300  -21.5675  -19.1917 O   0  0  0  0  0  0  0  0  0  0  0  0
   27.0804  -22.1304  -15.0478 C   0  0  0  0  0  0  0  0  0  0  0  0
   28.3224  -22.1005  -15.0849 O   0  0  0  0  0  0  0  0  0  0  0  0
   23.8012  -23.6571  -19.3220 O   0  0  0  0  0  0  0  0  0  0  0  0
   27.3028  -18.8902  -14.5707 C   0  0  0  0  0  0  0  0  0  0  0  0
   26.6746  -19.2168  -13.2103 C   0  0  1  0  0  0  0  0  0  0  0  0
   25.1668  -18.9839  -13.5100 C   0  0  0  0  0  0  0  0  0  0  0  0
   26.8175  -20.6974  -12.9357 C   0  0  2  0  0  0  0  0  0  0  0  0
   26.3351  -21.4977  -14.0527 N   0  0  0  0  0  0  0  0  0  0  0  0
   26.2550  -21.1823  -11.6816 C   0  0  0  0  0  0  0  0  0  0  0  0
   24.9933  -21.4617  -11.7130 O   0  0  0  0  0  0  0  0  0  0  0  0
   26.4613  -20.6205   -6.0170 C   0  0  0  0  0  0  0  0  0  0  0  0
   26.6690  -19.6044   -7.1149 C   0  0  1  0  0  0  0  0  0  0  0  0
   27.7566  -18.6525   -6.5883 C   0  0  0  0  0  0  0  0  0  0  0  0
   27.1650  -20.1465   -8.3975 C   0  0  0  0  0  0  0  0  0  0  0  0
   26.2845  -21.0587   -9.1584 C   0  0  2  0  0  0  0  0  0  0  0  0
   26.8785  -21.3943  -10.4522 N   0  0  0  0  0  0  0  0  0  0  0  0
   24.8826  -20.6644   -9.2796 C   0  0  0  0  0  0  0  0  0  0  0  0
   24.5591  -19.5191   -9.9917 O   0  0  0  0  0  0  0  0  0  0  0  0
   23.9176  -21.3003   -8.7737 O   0  0  0  0  0  0  0  0  0  0  0  0
  2  1  1  6
  2  3  1  0
  3  4  1  0
  5  6  2  0
  5  4  1  0
  7  8  2  0
  7  2  1  0
  9  5  1  0
 11 10  1  6
 11 13  1  0
 12 11  1  0
 13 14  1  6
 14  7  1  0
 15 22  1  0
 15 13  1  0
 16 15  2  0
 18 17  1  1
 18 20  1  0
 19 18  1  0
 21 20  1  6
 21 23  1  0
 21 22  1  0
 23 24  1  0
 25 23  2  0
M  END
$$$$
