EVL.pdb
     RDKit          3D

 25 24  0  0  1  0  0  0  0  0999 V2000
   23.7227  -17.6706  -17.0555 N   0  0  0  0  0  0  0  0  0  0  0  0
   24.1323  -17.8955  -15.6687 C   0  0  1  0  0  0  0  0  0  0  0  0
   22.9076  -17.8365  -14.7989 C   0  0  0  0  0  0  0  0  0  0  0  0
   21.6935  -18.4536  -15.3869 C   0  0  0  0  0  0  0  0  0  0  0  0
   20.9073  -19.2985  -14.4763 C   0  0  0  0  0  0  0  0  0  0  0  0
   20.2486  -18.7991  -13.5415 O   0  0  0  0  0  0  0  0  0  0  0  0
   24.8569  -19.2098  -15.5483 C   0  0  0  0  0  0  0  0  0  0  0  0
   24.5066  -20.1651  -16.2623 O   0  0  0  0  0  0  0  0  0  0  0  0
   20.8702  -20.6736  -14.6233 O   0  0  0  0  0  0  0  0  0  0  0  0
   28.1170  -19.6927  -16.2103 C   0  0  0  0  0  0  0  0  0  0  0  0
   28.1416  -20.2842  -14.7955 C   0  0  1  0  0  0  0  0  0  0  0  0
   28.7418  -19.1015  -13.9839 C   0  0  0  0  0  0  0  0  0  0  0  0
   26.7230  -20.4494  -14.2975 C   0  0  2  0  0  0  0  0  0  0  0  0
   25.9018  -19.2930  -14.6279 N   0  0  0  0  0  0  0  0  0  0  0  0
   26.5652  -20.8009  -12.8919 C   0  0  0  0  0  0  0  0  0  0  0  0
   27.6436  -21.1901  -12.2949 O   0  0  0  0  0  0  0  0  0  0  0  0
   27.6211  -19.4854   -7.8592 C   0  0  0  0  0  0  0  0  0  0  0  0
   26.5067  -20.2839   -8.4926 C   0  0  1  0  0  0  0  0  0  0  0  0
   25.2050  -19.6365   -7.9898 C   0  0  0  0  0  0  0  0  0  0  0  0
   26.4564  -20.2450   -9.9694 C   0  0  0  0  0  0  0  0  0  0  0  0
   25.4157  -21.0409  -10.6549 C   0  0  2  0  0  0  0  0  0  0  0  0
   25.4221  -20.7750  -12.0932 N   0  0  0  0  0  0  0  0  0  0  0  0
   24.0698  -20.9840  -10.0885 C   0  0  0  0  0  0  0  0  0  0  0  0
   23.7020  -21.9055   -9.1195 O   0  0  0  0  0  0  0  0  0  0  0  0
   23.1924  -20.1406  -10.4207 O   0  0  0  0  0  0  0  0  0  0  0  0
  2  1  1  6
  2  3  1  0
  3  4  1  0
  5  6  2  0
  5  4  1  0
  7  8  2  0
  7  2  1  0
  9  5  1  0
 11 10  1  6
 11 13  1  0
 12 11  1  0
 13 14  1  1
 14  7  1  0
 15 22  1  0
 15 13  1  0
 16 15  2  0
 18 17  1  1
 18 20  1  0
 19 18  1  0
 21 20  1  1
 21 23  1  0
 21 22  1  0
 23 24  1  0
 25 23  2  0
M  END
$$$$
