EVL.pdb
     RDKit          3D

 25 24  0  0  1  0  0  0  0  0999 V2000
   16.7373  -14.6192  -18.0306 N   0  0  0  0  0  0  0  0  0  0  0  0
   17.7433  -14.0298  -17.1462 C   0  0  1  0  0  0  0  0  0  0  0  0
   18.6975  -15.1134  -16.7278 C   0  0  0  0  0  0  0  0  0  0  0  0
   19.3788  -15.8115  -17.8454 C   0  0  0  0  0  0  0  0  0  0  0  0
   20.2915  -16.8953  -17.4536 C   0  0  0  0  0  0  0  0  0  0  0  0
   19.9957  -18.0908  -17.6543 O   0  0  0  0  0  0  0  0  0  0  0  0
   18.4403  -12.8899  -17.8402 C   0  0  0  0  0  0  0  0  0  0  0  0
   18.4792  -12.8665  -19.0823 O   0  0  0  0  0  0  0  0  0  0  0  0
   21.5074  -16.6284  -16.8502 O   0  0  0  0  0  0  0  0  0  0  0  0
   17.8259  -10.6725  -19.1607 C   0  0  0  0  0  0  0  0  0  0  0  0
   18.6802   -9.7864  -18.2458 C   0  0  1  0  0  0  0  0  0  0  0  0
   17.6184   -9.2990  -17.2199 C   0  0  0  0  0  0  0  0  0  0  0  0
   19.6419  -10.6541  -17.4646 C   0  0  2  0  0  0  0  0  0  0  0  0
   19.0170  -11.9004  -17.0437 N   0  0  0  0  0  0  0  0  0  0  0  0
   20.3220  -10.0210  -16.3417 C   0  0  0  0  0  0  0  0  0  0  0  0
   19.6767  -10.0415  -15.2218 O   0  0  0  0  0  0  0  0  0  0  0  0
   25.7384  -10.3353  -15.3143 C   0  0  0  0  0  0  0  0  0  0  0  0
   24.2295  -10.2810  -15.3436 C   0  0  1  0  0  0  0  0  0  0  0  0
   23.7672  -11.1702  -14.1766 C   0  0  0  0  0  0  0  0  0  0  0  0
   23.6367   -8.9456  -15.1196 C   0  0  0  0  0  0  0  0  0  0  0  0
   22.1629   -8.8315  -15.0851 C   0  0  2  0  0  0  0  0  0  0  0  0
   21.5698   -9.3997  -16.2955 N   0  0  0  0  0  0  0  0  0  0  0  0
   21.6162   -7.5140  -14.7680 C   0  0  0  0  0  0  0  0  0  0  0  0
   21.0412   -6.7570  -15.7779 O   0  0  0  0  0  0  0  0  0  0  0  0
   21.6267   -6.9965  -13.6175 O   0  0  0  0  0  0  0  0  0  0  0  0
  2  1  1  6
  2  3  1  0
  3  4  1  0
  5  6  2  0
  5  4  1  0
  7  8  2  0
  7  2  1  0
  9  5  1  0
 11 10  1  6
 11 13  1  0
 12 11  1  0
 13 14  1  1
 14  7  1  0
 15 22  1  0
 15 13  1  0
 16 15  2  0
 18 17  1  1
 18 20  1  0
 19 18  1  0
 21 20  1  6
 21 23  1  0
 21 22  1  0
 23 24  1  0
 25 23  2  0
M  END
$$$$
