EVL.pdb
     RDKit          3D

 25 24  0  0  1  0  0  0  0  0999 V2000
   18.2927   -5.8380  -15.2918 N   0  0  0  0  0  0  0  0  0  0  0  0
   19.5651   -6.1342  -15.9511 C   0  0  1  0  0  0  0  0  0  0  0  0
   20.4490   -4.9235  -15.8379 C   0  0  0  0  0  0  0  0  0  0  0  0
   20.0969   -3.8059  -16.7475 C   0  0  0  0  0  0  0  0  0  0  0  0
   20.9898   -2.6393  -16.6936 C   0  0  0  0  0  0  0  0  0  0  0  0
   21.8446   -2.4407  -17.5807 O   0  0  0  0  0  0  0  0  0  0  0  0
   20.1923   -7.3597  -15.3415 C   0  0  0  0  0  0  0  0  0  0  0  0
   20.1783   -7.4999  -14.1066 O   0  0  0  0  0  0  0  0  0  0  0  0
   20.9139   -1.7228  -15.6601 O   0  0  0  0  0  0  0  0  0  0  0  0
   18.9903  -10.4168  -15.6550 C   0  0  0  0  0  0  0  0  0  0  0  0
   20.3738  -10.7155  -16.2455 C   0  0  1  0  0  0  0  0  0  0  0  0
   20.0940  -10.5557  -17.7665 C   0  0  0  0  0  0  0  0  0  0  0  0
   21.3255   -9.5979  -15.8806 C   0  0  2  0  0  0  0  0  0  0  0  0
   20.7671   -8.2925  -16.2050 N   0  0  0  0  0  0  0  0  0  0  0  0
   22.6858   -9.7109  -16.3913 C   0  0  0  0  0  0  0  0  0  0  0  0
   22.9266   -9.0478  -17.4745 O   0  0  0  0  0  0  0  0  0  0  0  0
   28.2738   -9.9431  -16.2263 C   0  0  0  0  0  0  0  0  0  0  0  0
   27.4749  -11.2171  -16.0874 C   0  0  1  0  0  0  0  0  0  0  0  0
   28.2198  -12.0518  -15.0316 C   0  0  0  0  0  0  0  0  0  0  0  0
   26.0909  -11.0496  -15.5958 C   0  0  0  0  0  0  0  0  0  0  0  0
   25.0773  -10.5139  -16.5295 C   0  0  2  0  0  0  0  0  0  0  0  0
   23.7691  -10.4258  -15.8810 N   0  0  0  0  0  0  0  0  0  0  0  0
   25.0004  -11.1465  -17.8446 C   0  0  0  0  0  0  0  0  0  0  0  0
   24.2020  -12.2680  -18.0124 O   0  0  0  0  0  0  0  0  0  0  0  0
   25.6200  -10.7425  -18.8666 O   0  0  0  0  0  0  0  0  0  0  0  0
  2  1  1  1
  2  3  1  0
  3  4  1  0
  5  6  2  0
  5  4  1  0
  7  8  2  0
  7  2  1  0
  9  5  1  0
 11 10  1  1
 11 13  1  0
 12 11  1  0
 13 14  1  6
 14  7  1  0
 15 22  1  0
 15 13  1  0
 16 15  2  0
 18 17  1  1
 18 20  1  0
 19 18  1  0
 21 20  1  1
 21 23  1  0
 21 22  1  0
 23 24  1  0
 25 23  2  0
M  END
$$$$
