EVL.pdb
     RDKit          3D

 25 24  0  0  1  0  0  0  0  0999 V2000
   13.3511  -11.4205  -17.2417 N   0  0  0  0  0  0  0  0  0  0  0  0
   14.0488  -10.2372  -16.7371 C   0  0  1  0  0  0  0  0  0  0  0  0
   13.7482  -10.1010  -15.2705 C   0  0  0  0  0  0  0  0  0  0  0  0
   12.3355   -9.7821  -14.9494 C   0  0  0  0  0  0  0  0  0  0  0  0
   12.0285   -9.6321  -13.5197 C   0  0  0  0  0  0  0  0  0  0  0  0
   11.7603   -8.5152  -13.0320 O   0  0  0  0  0  0  0  0  0  0  0  0
   15.5251  -10.3493  -17.0107 C   0  0  0  0  0  0  0  0  0  0  0  0
   16.0542  -11.4735  -17.0419 O   0  0  0  0  0  0  0  0  0  0  0  0
   12.0262  -10.7212  -12.6666 O   0  0  0  0  0  0  0  0  0  0  0  0
   16.9914   -8.8237  -19.9601 C   0  0  0  0  0  0  0  0  0  0  0  0
   17.8141   -8.1937  -18.8295 C   0  0  1  0  0  0  0  0  0  0  0  0
   17.0316   -6.8723  -18.5865 C   0  0  0  0  0  0  0  0  0  0  0  0
   17.6431   -9.0130  -17.5696 C   0  0  2  0  0  0  0  0  0  0  0  0
   16.2381   -9.1685  -17.2192 N   0  0  0  0  0  0  0  0  0  0  0  0
   18.4132   -8.5863  -16.4081 C   0  0  0  0  0  0  0  0  0  0  0  0
   17.9027   -7.6076  -15.7354 O   0  0  0  0  0  0  0  0  0  0  0  0
   21.5104   -8.9121  -11.7752 C   0  0  0  0  0  0  0  0  0  0  0  0
   22.1882   -9.0251  -13.1200 C   0  0  1  0  0  0  0  0  0  0  0  0
   23.2643  -10.1101  -12.9438 C   0  0  0  0  0  0  0  0  0  0  0  0
   21.3217   -9.4645  -14.2341 C   0  0  0  0  0  0  0  0  0  0  0  0
   20.3475   -8.4985  -14.7852 C   0  0  2  0  0  0  0  0  0  0  0  0
   19.6188   -9.0814  -15.9116 N   0  0  0  0  0  0  0  0  0  0  0  0
   20.8520   -7.1605  -15.0865 C   0  0  0  0  0  0  0  0  0  0  0  0
   20.7487   -6.1645  -14.1270 O   0  0  0  0  0  0  0  0  0  0  0  0
   21.3878   -6.8309  -16.1800 O   0  0  0  0  0  0  0  0  0  0  0  0
  2  1  1  1
  2  3  1  0
  3  4  1  0
  5  6  2  0
  5  4  1  0
  7  8  2  0
  7  2  1  0
  9  5  1  0
 11 10  1  6
 11 13  1  0
 12 11  1  0
 13 14  1  1
 14  7  1  0
 15 22  1  0
 15 13  1  0
 16 15  2  0
 18 17  1  1
 18 20  1  0
 19 18  1  0
 21 20  1  6
 21 23  1  0
 21 22  1  0
 23 24  1  0
 25 23  2  0
M  END
$$$$
