EVL.pdb
     RDKit          3D

 25 24  0  0  1  0  0  0  0  0999 V2000
   19.2300  -20.2770  -15.6517 N   0  0  0  0  0  0  0  0  0  0  0  0
   20.3388  -19.6455  -14.9352 C   0  0  1  0  0  0  0  0  0  0  0  0
   19.7701  -18.6219  -13.9925 C   0  0  0  0  0  0  0  0  0  0  0  0
   18.3488  -18.2722  -14.2335 C   0  0  0  0  0  0  0  0  0  0  0  0
   17.4441  -18.4737  -13.0925 C   0  0  0  0  0  0  0  0  0  0  0  0
   16.5160  -19.3062  -13.1453 O   0  0  0  0  0  0  0  0  0  0  0  0
   21.1566  -20.6890  -14.2214 C   0  0  0  0  0  0  0  0  0  0  0  0
   20.5786  -21.5566  -13.5446 O   0  0  0  0  0  0  0  0  0  0  0  0
   17.5893  -17.7492  -11.9230 O   0  0  0  0  0  0  0  0  0  0  0  0
   24.6257  -21.7081  -16.1581 C   0  0  0  0  0  0  0  0  0  0  0  0
   23.9341  -22.5274  -15.0616 C   0  0  1  0  0  0  0  0  0  0  0  0
   25.1214  -23.3744  -14.5229 C   0  0  0  0  0  0  0  0  0  0  0  0
   23.5337  -21.6092  -13.9282 C   0  0  2  0  0  0  0  0  0  0  0  0
   22.5438  -20.6307  -14.3566 N   0  0  0  0  0  0  0  0  0  0  0  0
   24.6190  -20.9541  -13.2091 C   0  0  0  0  0  0  0  0  0  0  0  0
   24.9775  -19.8038  -13.6775 O   0  0  0  0  0  0  0  0  0  0  0  0
   25.8795  -20.8641   -7.7204 C   0  0  0  0  0  0  0  0  0  0  0  0
   25.7432  -20.3969   -9.1500 C   0  0  1  0  0  0  0  0  0  0  0  0
   26.0690  -18.8938   -9.1200 C   0  0  0  0  0  0  0  0  0  0  0  0
   26.6795  -21.0144  -10.1129 C   0  0  0  0  0  0  0  0  0  0  0  0
   26.5079  -20.7087  -11.5493 C   0  0  2  0  0  0  0  0  0  0  0  0
   25.3260  -21.3830  -12.0860 N   0  0  0  0  0  0  0  0  0  0  0  0
   27.6815  -20.8893  -12.4011 C   0  0  0  0  0  0  0  0  0  0  0  0
   28.5380  -19.8191  -12.6119 O   0  0  0  0  0  0  0  0  0  0  0  0
   27.9848  -21.9706  -12.9759 O   0  0  0  0  0  0  0  0  0  0  0  0
  2  1  1  1
  2  3  1  0
  3  4  1  0
  5  6  2  0
  5  4  1  0
  7  8  2  0
  7  2  1  0
  9  5  1  0
 11 10  1  6
 11 13  1  0
 12 11  1  0
 13 14  1  6
 14  7  1  0
 15 22  1  0
 15 13  1  0
 16 15  2  0
 18 17  1  1
 18 20  1  0
 19 18  1  0
 21 20  1  1
 21 23  1  0
 21 22  1  0
 23 24  1  0
 25 23  2  0
M  END
$$$$
