EHF.pdb
     RDKit          3D

 31 32  0  0  1  0  0  0  0  0999 V2000
    9.5028  -18.2463   19.1767 N   0  0  0  0  0  0  0  0  0  0  0  0
   10.4899  -17.8681   20.1308 C   0  0  1  0  0  0  0  0  0  0  0  0
   11.7750  -17.4919   19.4369 C   0  0  0  0  0  0  0  0  0  0  0  0
   12.9141  -18.4006   19.7590 C   0  0  0  0  0  0  0  0  0  0  0  0
   13.7871  -18.7116   18.6140 C   0  0  0  0  0  0  0  0  0  0  0  0
   14.0316  -19.8696   18.1802 O   0  0  0  0  0  0  0  0  0  0  0  0
   10.0763  -16.7317   21.0016 C   0  0  0  0  0  0  0  0  0  0  0  0
   10.9110  -15.8945   21.4782 O   0  0  0  0  0  0  0  0  0  0  0  0
   14.4023  -17.6392   17.9459 O   0  0  0  0  0  0  0  0  0  0  0  0
    8.6975  -16.6069   21.2901 N   0  0  0  0  0  0  0  0  0  0  0  0
    8.1597  -15.4760   22.1027 C   0  0  1  0  0  0  0  0  0  0  0  0
    7.1499  -14.7438   21.2635 C   0  0  0  0  0  0  0  0  0  0  0  0
    7.6799  -14.2922   19.9677 C   0  0  0  0  0  0  0  0  0  0  0  0
    8.2324  -13.0431   19.6672 C   0  0  0  0  0  0  0  0  0  0  0  0
    8.5912  -13.0230   18.3893 N   0  0  0  0  0  0  0  0  0  0  0  0
    8.2759  -14.2290   17.8859 C   0  0  0  0  0  0  0  0  0  0  0  0
    7.7297  -14.9876   18.8345 N   0  0  0  0  0  0  0  0  0  0  0  0
    7.6811  -16.0812   23.3339 C   0  0  0  0  0  0  0  0  0  0  0  0
    6.4119  -16.1133   23.5782 O   0  0  0  0  0  0  0  0  0  0  0  0
    8.4367  -16.6823   24.3669 N   0  0  0  0  0  0  0  0  0  0  0  0
    9.1874  -15.9131   25.3640 C   0  0  1  0  0  0  0  0  0  0  0  0
    9.2835  -14.4704   24.9496 C   0  0  0  0  0  0  0  0  0  0  0  0
    8.2953  -13.6668   25.6696 C   0  0  0  0  0  0  0  0  0  0  0  0
    6.9760  -13.5708   25.3088 C   0  0  0  0  0  0  0  0  0  0  0  0
    6.0548  -12.8188   26.0069 C   0  0  0  0  0  0  0  0  0  0  0  0
    6.4580  -12.1151   27.1340 C   0  0  0  0  0  0  0  0  0  0  0  0
    7.7812  -12.1957   27.5173 C   0  0  0  0  0  0  0  0  0  0  0  0
    8.6748  -12.9483   26.8077 C   0  0  0  0  0  0  0  0  0  0  0  0
    8.4995  -16.0252   26.6495 C   0  0  0  0  0  0  0  0  0  0  0  0
    7.2886  -16.6611   26.8639 O   0  0  0  0  0  0  0  0  0  0  0  0
    9.0180  -15.5093   27.6937 O   0  0  0  0  0  0  0  0  0  0  0  0
  2  1  1  6
  3  2  1  0
  3  4  1  0
  4  5  1  0
  5  9  1  0
  6  5  2  0
  7  2  1  0
  8  7  2  0
 10  7  1  0
 11 10  1  0
 11 12  1  6
 12 13  1  0
 13 17  1  0
 14 13  2  0
 14 15  1  0
 15 16  1  0
 17 16  2  0
 18 19  2  0
 18 11  1  0
 20 18  1  0
 21 22  1  6
 21 20  1  0
 23 28  1  0
 23 22  1  0
 24 23  2  0
 25 26  2  0
 25 24  1  0
 26 27  1  0
 27 28  2  0
 29 21  1  0
 30 29  1  0
 31 29  2  0
M  END
$$$$
