EHF.pdb
     RDKit          3D

 31 32  0  0  1  0  0  0  0  0999 V2000
    9.1159  -13.7905   18.3797 N   0  0  0  0  0  0  0  0  0  0  0  0
    9.2994  -15.1190   18.8583 C   0  0  1  0  0  0  0  0  0  0  0  0
   10.7528  -15.5129   18.7719 C   0  0  0  0  0  0  0  0  0  0  0  0
   11.6884  -14.4396   19.2187 C   0  0  0  0  0  0  0  0  0  0  0  0
   13.1127  -14.8110   19.1607 C   0  0  0  0  0  0  0  0  0  0  0  0
   13.9324  -14.4134   18.2895 O   0  0  0  0  0  0  0  0  0  0  0  0
    8.8416  -15.3181   20.2624 C   0  0  0  0  0  0  0  0  0  0  0  0
    8.7078  -14.3519   21.0830 O   0  0  0  0  0  0  0  0  0  0  0  0
   13.6069  -15.6780   20.1500 O   0  0  0  0  0  0  0  0  0  0  0  0
    8.5531  -16.6421   20.6668 N   0  0  0  0  0  0  0  0  0  0  0  0
    7.8863  -16.9432   21.9679 C   0  0  1  0  0  0  0  0  0  0  0  0
    7.4449  -18.3800   21.9389 C   0  0  0  0  0  0  0  0  0  0  0  0
    6.9371  -18.8646   23.2317 C   0  0  0  0  0  0  0  0  0  0  0  0
    6.7446  -18.1195   24.3994 C   0  0  0  0  0  0  0  0  0  0  0  0
    6.2756  -18.9171   25.3512 N   0  0  0  0  0  0  0  0  0  0  0  0
    6.1709  -20.1411   24.8053 C   0  0  0  0  0  0  0  0  0  0  0  0
    6.5682  -20.1065   23.5346 N   0  0  0  0  0  0  0  0  0  0  0  0
    8.8497  -16.5686   22.9891 C   0  0  0  0  0  0  0  0  0  0  0  0
   10.1129  -16.7272   22.7640 O   0  0  0  0  0  0  0  0  0  0  0  0
    8.6026  -16.0184   24.2680 N   0  0  0  0  0  0  0  0  0  0  0  0
    9.6704  -15.6321   25.1955 C   0  0  1  0  0  0  0  0  0  0  0  0
    9.6141  -14.1551   25.4739 C   0  0  0  0  0  0  0  0  0  0  0  0
    8.3090  -13.7901   26.0253 C   0  0  0  0  0  0  0  0  0  0  0  0
    8.0467  -13.6834   27.3668 C   0  0  0  0  0  0  0  0  0  0  0  0
    6.8135  -13.3252   27.8691 C   0  0  0  0  0  0  0  0  0  0  0  0
    5.7699  -13.0540   26.9942 C   0  0  0  0  0  0  0  0  0  0  0  0
    6.0091  -13.1547   25.6389 C   0  0  0  0  0  0  0  0  0  0  0  0
    7.2410  -13.5120   25.1664 C   0  0  0  0  0  0  0  0  0  0  0  0
    9.5018  -16.3873   26.4363 C   0  0  0  0  0  0  0  0  0  0  0  0
    8.4664  -17.2637   26.7131 O   0  0  0  0  0  0  0  0  0  0  0  0
   10.3547  -16.2629   27.3757 O   0  0  0  0  0  0  0  0  0  0  0  0
  2  1  1  1
  3  2  1  0
  3  4  1  0
  4  5  1  0
  5  9  1  0
  6  5  2  0
  7  2  1  0
  8  7  2  0
 10  7  1  0
 11 10  1  0
 11 12  1  6
 12 13  1  0
 13 17  1  0
 14 13  2  0
 14 15  1  0
 15 16  1  0
 17 16  2  0
 18 19  2  0
 18 11  1  0
 20 18  1  0
 21 22  1  1
 21 20  1  0
 23 28  1  0
 23 22  1  0
 24 23  2  0
 25 26  2  0
 25 24  1  0
 26 27  1  0
 27 28  2  0
 29 21  1  0
 30 29  1  0
 31 29  2  0
M  END
$$$$
