EHF.pdb
     RDKit          3D

 31 32  0  0  1  0  0  0  0  0999 V2000
    7.8903  -13.6654   18.5513 N   0  0  0  0  0  0  0  0  0  0  0  0
    8.7916  -14.1050   19.5623 C   0  0  1  0  0  0  0  0  0  0  0  0
    9.5902  -12.9424   20.0964 C   0  0  0  0  0  0  0  0  0  0  0  0
   10.8628  -12.7029   19.3548 C   0  0  0  0  0  0  0  0  0  0  0  0
   12.0150  -13.4690   19.8599 C   0  0  0  0  0  0  0  0  0  0  0  0
   11.9966  -14.2325   20.8628 O   0  0  0  0  0  0  0  0  0  0  0  0
    8.1215  -14.7808   20.7090 C   0  0  0  0  0  0  0  0  0  0  0  0
    6.8889  -14.6055   20.9825 O   0  0  0  0  0  0  0  0  0  0  0  0
   13.2371  -13.3451   19.1775 O   0  0  0  0  0  0  0  0  0  0  0  0
    8.9125  -15.6429   21.5033 N   0  0  0  0  0  0  0  0  0  0  0  0
    8.3099  -16.5557   22.5192 C   0  0  1  0  0  0  0  0  0  0  0  0
    8.5188  -17.9691   22.0516 C   0  0  0  0  0  0  0  0  0  0  0  0
    7.5522  -18.3984   21.0292 C   0  0  0  0  0  0  0  0  0  0  0  0
    6.2818  -17.8659   20.7877 C   0  0  0  0  0  0  0  0  0  0  0  0
    5.7174  -18.5268   19.7842 N   0  0  0  0  0  0  0  0  0  0  0  0
    6.6049  -19.4582   19.3944 C   0  0  0  0  0  0  0  0  0  0  0  0
    7.7039  -19.3788   20.1426 N   0  0  0  0  0  0  0  0  0  0  0  0
    8.9210  -16.1809   23.7830 C   0  0  0  0  0  0  0  0  0  0  0  0
   10.1985  -15.9914   23.8432 O   0  0  0  0  0  0  0  0  0  0  0  0
    8.2933  -15.9734   25.0330 N   0  0  0  0  0  0  0  0  0  0  0  0
    9.0358  -15.7208   26.2717 C   0  0  1  0  0  0  0  0  0  0  0  0
    8.1707  -14.9904   27.2619 C   0  0  0  0  0  0  0  0  0  0  0  0
    7.6918  -13.7322   26.6890 C   0  0  0  0  0  0  0  0  0  0  0  0
    6.4222  -13.5440   26.2067 C   0  0  0  0  0  0  0  0  0  0  0  0
    5.9833  -12.3468   25.6819 C   0  0  0  0  0  0  0  0  0  0  0  0
    6.8504  -11.2635   25.6280 C   0  0  0  0  0  0  0  0  0  0  0  0
    8.1340  -11.4282   26.1071 C   0  0  0  0  0  0  0  0  0  0  0  0
    8.5445  -12.6258   26.6225 C   0  0  0  0  0  0  0  0  0  0  0  0
    9.4640  -17.0049   26.8251 C   0  0  0  0  0  0  0  0  0  0  0  0
    9.1574  -18.2505   26.3043 O   0  0  0  0  0  0  0  0  0  0  0  0
   10.1833  -17.0342   27.8773 O   0  0  0  0  0  0  0  0  0  0  0  0
  2  1  1  6
  3  2  1  0
  3  4  1  0
  4  5  1  0
  5  9  1  0
  6  5  2  0
  7  2  1  0
  8  7  2  0
 10  7  1  0
 11 10  1  0
 11 12  1  6
 12 13  1  0
 13 17  1  0
 14 13  2  0
 14 15  1  0
 15 16  1  0
 17 16  2  0
 18 19  2  0
 18 11  1  0
 20 18  1  0
 21 22  1  1
 21 20  1  0
 23 28  1  0
 23 22  1  0
 24 23  2  0
 25 26  2  0
 25 24  1  0
 26 27  1  0
 27 28  2  0
 29 21  1  0
 30 29  1  0
 31 29  2  0
M  END
$$$$
