EHF.pdb
     RDKit          3D

 31 32  0  0  1  0  0  0  0  0999 V2000
    9.7134  -19.0343   21.2188 N   0  0  0  0  0  0  0  0  0  0  0  0
   10.9011  -18.2533   21.3031 C   0  0  1  0  0  0  0  0  0  0  0  0
   11.6120  -18.2323   19.9731 C   0  0  0  0  0  0  0  0  0  0  0  0
   11.0215  -19.1632   18.9672 C   0  0  0  0  0  0  0  0  0  0  0  0
   11.7044  -19.1617   17.6621 C   0  0  0  0  0  0  0  0  0  0  0  0
   11.2890  -18.5774   16.6253 O   0  0  0  0  0  0  0  0  0  0  0  0
   10.6629  -16.8457   21.7305 C   0  0  0  0  0  0  0  0  0  0  0  0
   11.5929  -15.9749   21.7700 O   0  0  0  0  0  0  0  0  0  0  0  0
   12.9156  -19.8658   17.5530 O   0  0  0  0  0  0  0  0  0  0  0  0
    9.3431  -16.4967   22.0996 N   0  0  0  0  0  0  0  0  0  0  0  0
    8.9739  -15.1037   22.4889 C   0  0  1  0  0  0  0  0  0  0  0  0
    7.6169  -14.8079   21.9134 C   0  0  0  0  0  0  0  0  0  0  0  0
    7.6495  -14.4472   20.4877 C   0  0  0  0  0  0  0  0  0  0  0  0
    8.7806  -14.2513   19.6890 C   0  0  0  0  0  0  0  0  0  0  0  0
    8.3943  -13.9341   18.4592 N   0  0  0  0  0  0  0  0  0  0  0  0
    7.0501  -13.9275   18.4718 C   0  0  0  0  0  0  0  0  0  0  0  0
    6.6065  -14.2354   19.6893 N   0  0  0  0  0  0  0  0  0  0  0  0
    9.1011  -15.0626   23.9357 C   0  0  0  0  0  0  0  0  0  0  0  0
    9.2285  -13.9232   24.5333 O   0  0  0  0  0  0  0  0  0  0  0  0
    9.1015  -16.1438   24.8470 N   0  0  0  0  0  0  0  0  0  0  0  0
    9.3745  -15.9865   26.2788 C   0  0  1  0  0  0  0  0  0  0  0  0
    8.1307  -15.5534   27.0052 C   0  0  0  0  0  0  0  0  0  0  0  0
    7.9466  -14.1072   26.8823 C   0  0  0  0  0  0  0  0  0  0  0  0
    8.9141  -13.1833   27.1828 C   0  0  0  0  0  0  0  0  0  0  0  0
    8.7278  -11.8236   27.0485 C   0  0  0  0  0  0  0  0  0  0  0  0
    7.5098  -11.3412   26.5882 C   0  0  0  0  0  0  0  0  0  0  0  0
    6.5199  -12.2515   26.2792 C   0  0  0  0  0  0  0  0  0  0  0  0
    6.7298  -13.5947   26.4213 C   0  0  0  0  0  0  0  0  0  0  0  0
    9.8466  -17.2670   26.8038 C   0  0  0  0  0  0  0  0  0  0  0  0
   10.0230  -18.4256   26.0666 O   0  0  0  0  0  0  0  0  0  0  0  0
   10.1339  -17.3786   28.0409 O   0  0  0  0  0  0  0  0  0  0  0  0
  2  1  1  6
  3  2  1  0
  3  4  1  0
  4  5  1  0
  5  9  1  0
  6  5  2  0
  7  2  1  0
  8  7  2  0
 10  7  1  0
 11 10  1  0
 11 12  1  1
 12 13  1  0
 13 17  1  0
 14 13  2  0
 14 15  1  0
 15 16  1  0
 17 16  2  0
 18 19  2  0
 18 11  1  0
 20 18  1  0
 21 22  1  1
 21 20  1  0
 23 28  1  0
 23 22  1  0
 24 23  2  0
 25 26  2  0
 25 24  1  0
 26 27  1  0
 27 28  2  0
 29 21  1  0
 30 29  1  0
 31 29  2  0
M  END
$$$$
