EHF.pdb
     RDKit          3D

 31 32  0  0  1  0  0  0  0  0999 V2000
    7.5141  -18.3742   19.7061 N   0  0  0  0  0  0  0  0  0  0  0  0
    8.6026  -18.4479   20.6213 C   0  0  1  0  0  0  0  0  0  0  0  0
    9.6992  -19.3211   20.0648 C   0  0  0  0  0  0  0  0  0  0  0  0
    9.3764  -20.7776   20.0996 C   0  0  0  0  0  0  0  0  0  0  0  0
   10.1259  -21.5431   21.1105 C   0  0  0  0  0  0  0  0  0  0  0  0
   10.9823  -21.0606   21.8997 O   0  0  0  0  0  0  0  0  0  0  0  0
    9.1873  -17.1208   20.9642 C   0  0  0  0  0  0  0  0  0  0  0  0
   10.4168  -16.8438   20.7734 O   0  0  0  0  0  0  0  0  0  0  0  0
    9.8746  -22.9220   21.2107 O   0  0  0  0  0  0  0  0  0  0  0  0
    8.3169  -16.1551   21.5205 N   0  0  0  0  0  0  0  0  0  0  0  0
    8.7599  -14.7558   21.7928 C   0  0  1  0  0  0  0  0  0  0  0  0
    7.8062  -13.8257   21.0959 C   0  0  0  0  0  0  0  0  0  0  0  0
    7.8889  -13.8909   19.6287 C   0  0  0  0  0  0  0  0  0  0  0  0
    8.4634  -12.9484   18.7698 C   0  0  0  0  0  0  0  0  0  0  0  0
    8.3348  -13.3675   17.5168 N   0  0  0  0  0  0  0  0  0  0  0  0
    7.6943  -14.5480   17.5736 C   0  0  0  0  0  0  0  0  0  0  0  0
    7.4284  -14.8592   18.8410 N   0  0  0  0  0  0  0  0  0  0  0  0
    8.8433  -14.6539   23.2398 C   0  0  0  0  0  0  0  0  0  0  0  0
    8.5382  -13.5396   23.8200 O   0  0  0  0  0  0  0  0  0  0  0  0
    9.2253  -15.6496   24.1683 N   0  0  0  0  0  0  0  0  0  0  0  0
    8.9396  -15.5605   25.6036 C   0  0  1  0  0  0  0  0  0  0  0  0
    7.4583  -15.4440   25.8371 C   0  0  0  0  0  0  0  0  0  0  0  0
    7.1053  -14.0694   26.1926 C   0  0  0  0  0  0  0  0  0  0  0  0
    5.8608  -13.5250   26.0056 C   0  0  0  0  0  0  0  0  0  0  0  0
    5.5416  -12.2309   26.3589 C   0  0  0  0  0  0  0  0  0  0  0  0
    6.5103  -11.4190   26.9339 C   0  0  0  0  0  0  0  0  0  0  0  0
    7.7709  -11.9441   27.1322 C   0  0  0  0  0  0  0  0  0  0  0  0
    8.0619  -13.2305   26.7729 C   0  0  0  0  0  0  0  0  0  0  0  0
    9.4613  -16.7612   26.2551 C   0  0  0  0  0  0  0  0  0  0  0  0
    9.8792  -16.8475   27.5722 O   0  0  0  0  0  0  0  0  0  0  0  0
    9.5600  -17.8484   25.5967 O   0  0  0  0  0  0  0  0  0  0  0  0
  2  1  1  6
  3  2  1  0
  3  4  1  0
  4  5  1  0
  5  9  1  0
  6  5  2  0
  7  2  1  0
  8  7  2  0
 10  7  1  0
 11 10  1  0
 11 12  1  1
 12 13  1  0
 13 17  1  0
 14 13  2  0
 14 15  1  0
 15 16  1  0
 17 16  2  0
 18 19  2  0
 18 11  1  0
 20 18  1  0
 21 22  1  6
 21 20  1  0
 23 28  1  0
 23 22  1  0
 24 23  2  0
 25 26  2  0
 25 24  1  0
 26 27  1  0
 27 28  2  0
 29 21  1  0
 30 29  1  0
 31 29  2  0
M  END
$$$$
