EHF.pdb
     RDKit          3D

 31 32  0  0  1  0  0  0  0  0999 V2000
    5.6112  -19.3898   19.6045 N   0  0  0  0  0  0  0  0  0  0  0  0
    5.6133  -18.3954   20.6237 C   0  0  1  0  0  0  0  0  0  0  0  0
    4.5454  -18.6897   21.6474 C   0  0  0  0  0  0  0  0  0  0  0  0
    3.2776  -19.2066   21.0540 C   0  0  0  0  0  0  0  0  0  0  0  0
    2.2062  -19.4593   22.0328 C   0  0  0  0  0  0  0  0  0  0  0  0
    2.1065  -20.4904   22.7510 O   0  0  0  0  0  0  0  0  0  0  0  0
    6.9186  -18.2655   21.3307 C   0  0  0  0  0  0  0  0  0  0  0  0
    7.5640  -19.2737   21.7687 O   0  0  0  0  0  0  0  0  0  0  0  0
    1.2102  -18.4797   22.1850 O   0  0  0  0  0  0  0  0  0  0  0  0
    7.4322  -16.9595   21.5051 N   0  0  0  0  0  0  0  0  0  0  0  0
    8.7576  -16.7109   22.1452 C   0  0  1  0  0  0  0  0  0  0  0  0
    9.4983  -15.7121   21.3002 C   0  0  0  0  0  0  0  0  0  0  0  0
   10.9179  -15.5758   21.6607 C   0  0  0  0  0  0  0  0  0  0  0  0
   12.0194  -16.1043   20.9801 C   0  0  0  0  0  0  0  0  0  0  0  0
   13.1305  -15.7645   21.6220 N   0  0  0  0  0  0  0  0  0  0  0  0
   12.7486  -15.0371   22.6861 C   0  0  0  0  0  0  0  0  0  0  0  0
   11.4216  -14.9257   22.7066 N   0  0  0  0  0  0  0  0  0  0  0  0
    8.4572  -16.3249   23.5134 C   0  0  0  0  0  0  0  0  0  0  0  0
    7.8279  -15.2187   23.7412 O   0  0  0  0  0  0  0  0  0  0  0  0
    8.7615  -17.0189   24.7072 N   0  0  0  0  0  0  0  0  0  0  0  0
    9.0221  -16.3453   25.9830 C   0  0  1  0  0  0  0  0  0  0  0  0
    7.7294  -16.0451   26.6910 C   0  0  0  0  0  0  0  0  0  0  0  0
    7.4006  -14.6246   26.5701 C   0  0  0  0  0  0  0  0  0  0  0  0
    8.2849  -13.6088   26.8269 C   0  0  0  0  0  0  0  0  0  0  0  0
    7.9618  -12.2747   26.6950 C   0  0  0  0  0  0  0  0  0  0  0  0
    6.6850  -11.9165   26.2834 C   0  0  0  0  0  0  0  0  0  0  0  0
    5.7766  -12.9211   26.0191 C   0  0  0  0  0  0  0  0  0  0  0  0
    6.1219  -14.2364   26.1577 C   0  0  0  0  0  0  0  0  0  0  0  0
    9.8581  -17.2186   26.8057 C   0  0  0  0  0  0  0  0  0  0  0  0
   10.3152  -16.9312   28.0805 O   0  0  0  0  0  0  0  0  0  0  0  0
   10.2253  -18.3535   26.3556 O   0  0  0  0  0  0  0  0  0  0  0  0
  2  1  1  6
  3  2  1  0
  3  4  1  0
  4  5  1  0
  5  9  1  0
  6  5  2  0
  7  2  1  0
  8  7  2  0
 10  7  1  0
 11 10  1  0
 11 12  1  6
 12 13  1  0
 13 17  1  0
 14 13  2  0
 14 15  1  0
 15 16  1  0
 17 16  2  0
 18 19  2  0
 18 11  1  0
 20 18  1  0
 21 22  1  1
 21 20  1  0
 23 28  1  0
 23 22  1  0
 24 23  2  0
 25 26  2  0
 25 24  1  0
 26 27  1  0
 27 28  2  0
 29 21  1  0
 30 29  1  0
 31 29  2  0
M  END
$$$$
