EHF.pdb
     RDKit          3D

 31 32  0  0  1  0  0  0  0  0999 V2000
    7.8464  -14.8388   18.1437 N   0  0  0  0  0  0  0  0  0  0  0  0
    8.6663  -14.6642   19.2949 C   0  0  1  0  0  0  0  0  0  0  0  0
    9.0696  -13.2181   19.4386 C   0  0  0  0  0  0  0  0  0  0  0  0
    9.9864  -12.9668   20.5890 C   0  0  0  0  0  0  0  0  0  0  0  0
   11.3920  -13.3280   20.3372 C   0  0  0  0  0  0  0  0  0  0  0  0
   12.1604  -13.8812   21.1694 O   0  0  0  0  0  0  0  0  0  0  0  0
    8.0169  -15.0991   20.5637 C   0  0  0  0  0  0  0  0  0  0  0  0
    6.8723  -14.6731   20.9287 O   0  0  0  0  0  0  0  0  0  0  0  0
   11.9295  -13.0359   19.0721 O   0  0  0  0  0  0  0  0  0  0  0  0
    8.7252  -16.0202   21.3697 N   0  0  0  0  0  0  0  0  0  0  0  0
    8.0617  -16.7805   22.4698 C   0  0  1  0  0  0  0  0  0  0  0  0
    8.1214  -18.2419   22.1223 C   0  0  0  0  0  0  0  0  0  0  0  0
    7.0718  -18.6656   21.1827 C   0  0  0  0  0  0  0  0  0  0  0  0
    5.7134  -18.3358   21.2251 C   0  0  0  0  0  0  0  0  0  0  0  0
    5.0937  -18.9157   20.2044 N   0  0  0  0  0  0  0  0  0  0  0  0
    6.0325  -19.5987   19.5268 C   0  0  0  0  0  0  0  0  0  0  0  0
    7.2174  -19.4469   20.1157 N   0  0  0  0  0  0  0  0  0  0  0  0
    8.7366  -16.3628   23.6868 C   0  0  0  0  0  0  0  0  0  0  0  0
   10.0177  -16.1887   23.6789 O   0  0  0  0  0  0  0  0  0  0  0  0
    8.1716  -16.0957   24.9553 N   0  0  0  0  0  0  0  0  0  0  0  0
    8.9713  -15.7375   26.1307 C   0  0  1  0  0  0  0  0  0  0  0  0
    8.1141  -15.0518   27.1589 C   0  0  0  0  0  0  0  0  0  0  0  0
    7.6163  -13.7779   26.6393 C   0  0  0  0  0  0  0  0  0  0  0  0
    6.3710  -13.6080   26.0914 C   0  0  0  0  0  0  0  0  0  0  0  0
    5.9128  -12.3965   25.6183 C   0  0  0  0  0  0  0  0  0  0  0  0
    6.7337  -11.2788   25.6889 C   0  0  0  0  0  0  0  0  0  0  0  0
    7.9920  -11.4244   26.2361 C   0  0  0  0  0  0  0  0  0  0  0  0
    8.4225  -12.6368   26.6980 C   0  0  0  0  0  0  0  0  0  0  0  0
    9.5491  -16.9598   26.6879 C   0  0  0  0  0  0  0  0  0  0  0  0
   10.5636  -17.0169   27.6283 O   0  0  0  0  0  0  0  0  0  0  0  0
    9.1162  -18.0970   26.3074 O   0  0  0  0  0  0  0  0  0  0  0  0
  2  1  1  6
  3  2  1  0
  3  4  1  0
  4  5  1  0
  5  9  1  0
  6  5  2  0
  7  2  1  0
  8  7  2  0
 10  7  1  0
 11 10  1  0
 11 12  1  6
 12 13  1  0
 13 17  1  0
 14 13  2  0
 14 15  1  0
 15 16  1  0
 17 16  2  0
 18 19  2  0
 18 11  1  0
 20 18  1  0
 21 22  1  1
 21 20  1  0
 23 28  1  0
 23 22  1  0
 24 23  2  0
 25 26  2  0
 25 24  1  0
 26 27  1  0
 27 28  2  0
 29 21  1  0
 30 29  1  0
 31 29  2  0
M  END
$$$$
