EHF.pdb
     RDKit          3D

 31 32  0  0  1  0  0  0  0  0999 V2000
    9.5674  -13.1947   19.3703 N   0  0  0  0  0  0  0  0  0  0  0  0
    8.2613  -13.3682   19.9104 C   0  0  1  0  0  0  0  0  0  0  0  0
    7.2412  -13.4525   18.8026 C   0  0  0  0  0  0  0  0  0  0  0  0
    7.8417  -13.4273   17.4367 C   0  0  0  0  0  0  0  0  0  0  0  0
    8.4439  -14.7030   17.0130 C   0  0  0  0  0  0  0  0  0  0  0  0
    7.9572  -15.8448   17.2328 O   0  0  0  0  0  0  0  0  0  0  0  0
    8.1241  -14.5789   20.7683 C   0  0  0  0  0  0  0  0  0  0  0  0
    6.9935  -15.0114   21.1675 O   0  0  0  0  0  0  0  0  0  0  0  0
    9.6586  -14.6546   16.3080 O   0  0  0  0  0  0  0  0  0  0  0  0
    9.3139  -15.2497   21.1348 N   0  0  0  0  0  0  0  0  0  0  0  0
    9.2957  -16.5128   21.9300 C   0  0  1  0  0  0  0  0  0  0  0  0
   10.4828  -17.3368   21.5150 C   0  0  0  0  0  0  0  0  0  0  0  0
   10.5815  -18.6226   22.2228 C   0  0  0  0  0  0  0  0  0  0  0  0
    9.5518  -19.3170   22.8657 C   0  0  0  0  0  0  0  0  0  0  0  0
   10.0418  -20.4347   23.3879 N   0  0  0  0  0  0  0  0  0  0  0  0
   11.3517  -20.4540   23.0863 C   0  0  0  0  0  0  0  0  0  0  0  0
   11.6723  -19.3663   22.3878 N   0  0  0  0  0  0  0  0  0  0  0  0
    9.2374  -16.0914   23.3194 C   0  0  0  0  0  0  0  0  0  0  0  0
    9.9935  -15.1244   23.7255 O   0  0  0  0  0  0  0  0  0  0  0  0
    8.4266  -16.6045   24.3580 N   0  0  0  0  0  0  0  0  0  0  0  0
    8.4669  -16.0969   25.7328 C   0  0  1  0  0  0  0  0  0  0  0  0
    7.1177  -15.5689   26.1366 C   0  0  0  0  0  0  0  0  0  0  0  0
    7.1442  -14.1080   26.2118 C   0  0  0  0  0  0  0  0  0  0  0  0
    6.0281  -13.3160   26.1282 C   0  0  0  0  0  0  0  0  0  0  0  0
    6.0698  -11.9404   26.2143 C   0  0  0  0  0  0  0  0  0  0  0  0
    7.2897  -11.3020   26.3946 C   0  0  0  0  0  0  0  0  0  0  0  0
    8.4277  -12.0776   26.4815 C   0  0  0  0  0  0  0  0  0  0  0  0
    8.3593  -13.4399   26.3929 C   0  0  0  0  0  0  0  0  0  0  0  0
    8.8680  -17.1894   26.6183 C   0  0  0  0  0  0  0  0  0  0  0  0
    9.4392  -17.0443   27.8711 O   0  0  0  0  0  0  0  0  0  0  0  0
    8.6984  -18.3985   26.2514 O   0  0  0  0  0  0  0  0  0  0  0  0
  2  1  1  6
  3  2  1  0
  3  4  1  0
  4  5  1  0
  5  9  1  0
  6  5  2  0
  7  2  1  0
  8  7  2  0
 10  7  1  0
 11 10  1  0
 11 12  1  1
 12 13  1  0
 13 17  1  0
 14 13  2  0
 14 15  1  0
 15 16  1  0
 17 16  2  0
 18 19  2  0
 18 11  1  0
 20 18  1  0
 21 22  1  1
 21 20  1  0
 23 28  1  0
 23 22  1  0
 24 23  2  0
 25 26  2  0
 25 24  1  0
 26 27  1  0
 27 28  2  0
 29 21  1  0
 30 29  1  0
 31 29  2  0
M  END
$$$$
