EHF.pdb
     RDKit          3D

 31 32  0  0  1  0  0  0  0  0999 V2000
    7.5123  -19.4819   21.4563 N   0  0  0  0  0  0  0  0  0  0  0  0
    8.9299  -19.5160   21.3264 C   0  0  1  0  0  0  0  0  0  0  0  0
    9.3219  -20.1063   19.9950 C   0  0  0  0  0  0  0  0  0  0  0  0
    8.3139  -21.0602   19.4463 C   0  0  0  0  0  0  0  0  0  0  0  0
    8.6570  -21.6153   18.1258 C   0  0  0  0  0  0  0  0  0  0  0  0
    8.6639  -20.9672   17.0446 O   0  0  0  0  0  0  0  0  0  0  0  0
    9.5752  -18.1789   21.4555 C   0  0  0  0  0  0  0  0  0  0  0  0
   10.8127  -17.9893   21.2162 O   0  0  0  0  0  0  0  0  0  0  0  0
    9.0045  -22.9750   18.0544 O   0  0  0  0  0  0  0  0  0  0  0  0
    8.7541  -17.1013   21.8609 N   0  0  0  0  0  0  0  0  0  0  0  0
    9.2757  -15.7066   21.9656 C   0  0  1  0  0  0  0  0  0  0  0  0
    8.1456  -14.7662   21.6513 C   0  0  0  0  0  0  0  0  0  0  0  0
    8.1186  -14.3291   20.2470 C   0  0  0  0  0  0  0  0  0  0  0  0
    9.0356  -14.6517   19.2415 C   0  0  0  0  0  0  0  0  0  0  0  0
    8.6672  -14.0600   18.1117 N   0  0  0  0  0  0  0  0  0  0  0  0
    7.5431  -13.3765   18.3884 C   0  0  0  0  0  0  0  0  0  0  0  0
    7.2168  -13.5397   19.6693 N   0  0  0  0  0  0  0  0  0  0  0  0
    9.8624  -15.6143   23.2917 C   0  0  0  0  0  0  0  0  0  0  0  0
   11.0301  -15.0788   23.4374 O   0  0  0  0  0  0  0  0  0  0  0  0
    9.3161  -16.0418   24.5239 N   0  0  0  0  0  0  0  0  0  0  0  0
    9.9609  -15.7934   25.8169 C   0  0  1  0  0  0  0  0  0  0  0  0
   10.0289  -14.3166   26.0938 C   0  0  0  0  0  0  0  0  0  0  0  0
    8.6825  -13.7470   26.1526 C   0  0  0  0  0  0  0  0  0  0  0  0
    8.0685  -13.3497   27.3124 C   0  0  0  0  0  0  0  0  0  0  0  0
    6.8034  -12.8023   27.3481 C   0  0  0  0  0  0  0  0  0  0  0  0
    6.0959  -12.6346   26.1651 C   0  0  0  0  0  0  0  0  0  0  0  0
    6.6926  -13.0271   24.9844 C   0  0  0  0  0  0  0  0  0  0  0  0
    7.9482  -13.5674   24.9761 C   0  0  0  0  0  0  0  0  0  0  0  0
    9.1865  -16.4679   26.8579 C   0  0  0  0  0  0  0  0  0  0  0  0
    8.0481  -17.2284   26.6517 O   0  0  0  0  0  0  0  0  0  0  0  0
    9.5492  -16.3788   28.0769 O   0  0  0  0  0  0  0  0  0  0  0  0
  2  1  1  6
  3  2  1  0
  3  4  1  0
  4  5  1  0
  5  9  1  0
  6  5  2  0
  7  2  1  0
  8  7  2  0
 10  7  1  0
 11 10  1  0
 11 12  1  1
 12 13  1  0
 13 17  1  0
 14 13  2  0
 14 15  1  0
 15 16  1  0
 17 16  2  0
 18 19  2  0
 18 11  1  0
 20 18  1  0
 21 22  1  1
 21 20  1  0
 23 28  1  0
 23 22  1  0
 24 23  2  0
 25 26  2  0
 25 24  1  0
 26 27  1  0
 27 28  2  0
 29 21  1  0
 30 29  1  0
 31 29  2  0
M  END
$$$$
