EHF.pdb
     RDKit          3D

 31 32  0  0  1  0  0  0  0  0999 V2000
    7.4037  -21.0415   23.2119 N   0  0  0  0  0  0  0  0  0  0  0  0
    6.6835  -19.8192   23.3339 C   0  0  1  0  0  0  0  0  0  0  0  0
    6.0879  -19.6954   24.7140 C   0  0  0  0  0  0  0  0  0  0  0  0
    6.7610  -20.5536   25.7325 C   0  0  0  0  0  0  0  0  0  0  0  0
    7.0211  -19.8825   27.0177 C   0  0  0  0  0  0  0  0  0  0  0  0
    6.1395  -19.3869   27.7701 O   0  0  0  0  0  0  0  0  0  0  0  0
    7.5104  -18.6081   23.0689 C   0  0  0  0  0  0  0  0  0  0  0  0
    8.7644  -18.5719   23.2946 O   0  0  0  0  0  0  0  0  0  0  0  0
    8.3549  -19.7803   27.4480 O   0  0  0  0  0  0  0  0  0  0  0  0
    6.8467  -17.4737   22.5471 N   0  0  0  0  0  0  0  0  0  0  0  0
    7.5884  -16.2480   22.1276 C   0  0  1  0  0  0  0  0  0  0  0  0
    6.6683  -15.4213   21.2732 C   0  0  0  0  0  0  0  0  0  0  0  0
    7.3609  -14.3728   20.5084 C   0  0  0  0  0  0  0  0  0  0  0  0
    8.7386  -14.1409   20.4445 C   0  0  0  0  0  0  0  0  0  0  0  0
    8.9676  -13.1012   19.6515 N   0  0  0  0  0  0  0  0  0  0  0  0
    7.7665  -12.6795   19.2196 C   0  0  0  0  0  0  0  0  0  0  0  0
    6.8052  -13.4437   19.7350 N   0  0  0  0  0  0  0  0  0  0  0  0
    8.0635  -15.6452   23.3614 C   0  0  0  0  0  0  0  0  0  0  0  0
    7.3291  -14.7720   23.9694 O   0  0  0  0  0  0  0  0  0  0  0  0
    9.2781  -15.8862   24.0440 N   0  0  0  0  0  0  0  0  0  0  0  0
    9.6623  -15.1822   25.2713 C   0  0  1  0  0  0  0  0  0  0  0  0
    8.6297  -15.3963   26.3438 C   0  0  0  0  0  0  0  0  0  0  0  0
    7.8173  -14.1918   26.5163 C   0  0  0  0  0  0  0  0  0  0  0  0
    6.4467  -14.1907   26.5533 C   0  0  0  0  0  0  0  0  0  0  0  0
    5.6968  -13.0472   26.7300 C   0  0  0  0  0  0  0  0  0  0  0  0
    6.3373  -11.8244   26.8804 C   0  0  0  0  0  0  0  0  0  0  0  0
    7.7166  -11.7994   26.8465 C   0  0  0  0  0  0  0  0  0  0  0  0
    8.4370  -12.9476   26.6698 C   0  0  0  0  0  0  0  0  0  0  0  0
   10.9607  -15.6918   25.7106 C   0  0  0  0  0  0  0  0  0  0  0  0
   11.6889  -16.6901   25.0860 O   0  0  0  0  0  0  0  0  0  0  0  0
   11.5123  -15.2085   26.7534 O   0  0  0  0  0  0  0  0  0  0  0  0
  2  1  1  1
  3  2  1  0
  3  4  1  0
  4  5  1  0
  5  9  1  0
  6  5  2  0
  7  2  1  0
  8  7  2  0
 10  7  1  0
 11 10  1  0
 11 12  1  1
 12 13  1  0
 13 17  1  0
 14 13  2  0
 14 15  1  0
 15 16  1  0
 17 16  2  0
 18 19  2  0
 18 11  1  0
 20 18  1  0
 21 22  1  1
 21 20  1  0
 23 28  1  0
 23 22  1  0
 24 23  2  0
 25 26  2  0
 25 24  1  0
 26 27  1  0
 27 28  2  0
 29 21  1  0
 30 29  1  0
 31 29  2  0
M  END
$$$$
