EHF.pdb
     RDKit          3D

 31 32  0  0  1  0  0  0  0  0999 V2000
   13.5898  -14.2493   18.8698 N   0  0  0  0  0  0  0  0  0  0  0  0
   12.8525  -15.2907   19.5020 C   0  0  1  0  0  0  0  0  0  0  0  0
   13.7894  -16.2820   20.1457 C   0  0  0  0  0  0  0  0  0  0  0  0
   15.0024  -15.6527   20.7454 C   0  0  0  0  0  0  0  0  0  0  0  0
   16.2473  -16.4124   20.5390 C   0  0  0  0  0  0  0  0  0  0  0  0
   16.8285  -16.5679   19.4313 O   0  0  0  0  0  0  0  0  0  0  0  0
   11.8986  -14.8047   20.5386 C   0  0  0  0  0  0  0  0  0  0  0  0
   12.1776  -13.8461   21.3311 O   0  0  0  0  0  0  0  0  0  0  0  0
   16.8420  -17.0171   21.6595 O   0  0  0  0  0  0  0  0  0  0  0  0
   10.6448  -15.4540   20.6185 N   0  0  0  0  0  0  0  0  0  0  0  0
    9.5020  -14.8735   21.3835 C   0  0  1  0  0  0  0  0  0  0  0  0
    8.2379  -15.1827   20.6308 C   0  0  0  0  0  0  0  0  0  0  0  0
    8.1647  -14.5319   19.3135 C   0  0  0  0  0  0  0  0  0  0  0  0
    8.1516  -13.1593   19.0463 C   0  0  0  0  0  0  0  0  0  0  0  0
    8.0743  -12.9730   17.7342 N   0  0  0  0  0  0  0  0  0  0  0  0
    8.0388  -14.1959   17.1771 C   0  0  0  0  0  0  0  0  0  0  0  0
    8.0932  -15.1285   18.1264 N   0  0  0  0  0  0  0  0  0  0  0  0
    9.6218  -15.4180   22.7254 C   0  0  0  0  0  0  0  0  0  0  0  0
   10.2098  -16.5557   22.9025 O   0  0  0  0  0  0  0  0  0  0  0  0
    9.1709  -14.8573   23.9426 N   0  0  0  0  0  0  0  0  0  0  0  0
    9.4600  -15.4468   25.2535 C   0  0  1  0  0  0  0  0  0  0  0  0
    9.5382  -14.3742   26.3050 C   0  0  0  0  0  0  0  0  0  0  0  0
    8.3374  -13.5389   26.2708 C   0  0  0  0  0  0  0  0  0  0  0  0
    7.8724  -12.9113   25.1440 C   0  0  0  0  0  0  0  0  0  0  0  0
    6.7309  -12.1380   25.1267 C   0  0  0  0  0  0  0  0  0  0  0  0
    5.9986  -11.9713   26.2946 C   0  0  0  0  0  0  0  0  0  0  0  0
    6.4466  -12.5930   27.4423 C   0  0  0  0  0  0  0  0  0  0  0  0
    7.5818  -13.3543   27.4329 C   0  0  0  0  0  0  0  0  0  0  0  0
    8.3971  -16.3970   25.5786 C   0  0  0  0  0  0  0  0  0  0  0  0
    8.3974  -17.2719   26.6516 O   0  0  0  0  0  0  0  0  0  0  0  0
    7.3593  -16.4651   24.8412 O   0  0  0  0  0  0  0  0  0  0  0  0
  2  1  1  1
  3  2  1  0
  3  4  1  0
  4  5  1  0
  5  9  1  0
  6  5  2  0
  7  2  1  0
  8  7  2  0
 10  7  1  0
 11 10  1  0
 11 12  1  6
 12 13  1  0
 13 17  1  0
 14 13  2  0
 14 15  1  0
 15 16  1  0
 17 16  2  0
 18 19  2  0
 18 11  1  0
 20 18  1  0
 21 22  1  1
 21 20  1  0
 23 28  1  0
 23 22  1  0
 24 23  2  0
 25 26  2  0
 25 24  1  0
 26 27  1  0
 27 28  2  0
 29 21  1  0
 30 29  1  0
 31 29  2  0
M  END
$$$$
