EHF.pdb
     RDKit          3D

 31 32  0  0  1  0  0  0  0  0999 V2000
    9.2468  -18.5057   20.4268 N   0  0  0  0  0  0  0  0  0  0  0  0
   10.5019  -17.9408   20.7919 C   0  0  1  0  0  0  0  0  0  0  0  0
   11.4800  -18.0502   19.6490 C   0  0  0  0  0  0  0  0  0  0  0  0
   10.9050  -18.6953   18.4325 C   0  0  0  0  0  0  0  0  0  0  0  0
   11.8343  -18.7825   17.2929 C   0  0  0  0  0  0  0  0  0  0  0  0
   12.4111  -17.8024   16.7491 O   0  0  0  0  0  0  0  0  0  0  0  0
   10.4180  -16.5109   21.2030 C   0  0  0  0  0  0  0  0  0  0  0  0
   11.4283  -15.7338   21.1904 O   0  0  0  0  0  0  0  0  0  0  0  0
   12.1052  -20.0548   16.7614 O   0  0  0  0  0  0  0  0  0  0  0  0
    9.1541  -16.0305   21.6171 N   0  0  0  0  0  0  0  0  0  0  0  0
    8.9589  -14.6292   22.0933 C   0  0  1  0  0  0  0  0  0  0  0  0
    7.7880  -14.0481   21.3508 C   0  0  0  0  0  0  0  0  0  0  0  0
    7.9643  -14.0395   19.8903 C   0  0  0  0  0  0  0  0  0  0  0  0
    8.3679  -12.9645   19.0920 C   0  0  0  0  0  0  0  0  0  0  0  0
    8.4031  -13.3547   17.8237 N   0  0  0  0  0  0  0  0  0  0  0  0
    8.0313  -14.6465   17.8119 C   0  0  0  0  0  0  0  0  0  0  0  0
    7.7689  -15.0542   19.0523 N   0  0  0  0  0  0  0  0  0  0  0  0
    8.8420  -14.7273   23.5383 C   0  0  0  0  0  0  0  0  0  0  0  0
    8.5449  -13.6747   24.2277 O   0  0  0  0  0  0  0  0  0  0  0  0
    9.0081  -15.8689   24.3559 N   0  0  0  0  0  0  0  0  0  0  0  0
    8.7680  -15.8620   25.8022 C   0  0  1  0  0  0  0  0  0  0  0  0
    7.2976  -15.7272   26.0890 C   0  0  0  0  0  0  0  0  0  0  0  0
    6.9364  -14.3182   26.2458 C   0  0  0  0  0  0  0  0  0  0  0  0
    5.7295  -13.7897   25.8663 C   0  0  0  0  0  0  0  0  0  0  0  0
    5.4005  -12.4611   26.0336 C   0  0  0  0  0  0  0  0  0  0  0  0
    6.3192  -11.5955   26.6124 C   0  0  0  0  0  0  0  0  0  0  0  0
    7.5414  -12.1037   27.0026 C   0  0  0  0  0  0  0  0  0  0  0  0
    7.8431  -13.4251   26.8255 C   0  0  0  0  0  0  0  0  0  0  0  0
    9.2799  -17.1119   26.3627 C   0  0  0  0  0  0  0  0  0  0  0  0
    9.8746  -18.1347   25.6437 O   0  0  0  0  0  0  0  0  0  0  0  0
    9.1950  -17.3269   27.6165 O   0  0  0  0  0  0  0  0  0  0  0  0
  2  1  1  6
  3  2  1  0
  3  4  1  0
  4  5  1  0
  5  9  1  0
  6  5  2  0
  7  2  1  0
  8  7  2  0
 10  7  1  0
 11 10  1  0
 11 12  1  6
 12 13  1  0
 13 17  1  0
 14 13  2  0
 14 15  1  0
 15 16  1  0
 17 16  2  0
 18 19  2  0
 18 11  1  0
 20 18  1  0
 21 22  1  6
 21 20  1  0
 23 28  1  0
 23 22  1  0
 24 23  2  0
 25 26  2  0
 25 24  1  0
 26 27  1  0
 27 28  2  0
 29 21  1  0
 30 29  1  0
 31 29  2  0
M  END
$$$$
