EHF.pdb
     RDKit          3D

 31 32  0  0  1  0  0  0  0  0999 V2000
    9.4051  -19.0004   19.5493 N   0  0  0  0  0  0  0  0  0  0  0  0
    9.5583  -18.8431   20.9562 C   0  0  1  0  0  0  0  0  0  0  0  0
   10.6636  -19.7329   21.4674 C   0  0  0  0  0  0  0  0  0  0  0  0
   10.1783  -20.8502   22.3294 C   0  0  0  0  0  0  0  0  0  0  0  0
   11.2455  -21.7109   22.8681 C   0  0  0  0  0  0  0  0  0  0  0  0
   11.8796  -21.4994   23.9368 O   0  0  0  0  0  0  0  0  0  0  0  0
    9.8516  -17.4430   21.3736 C   0  0  0  0  0  0  0  0  0  0  0  0
   11.0232  -16.9435   21.3214 O   0  0  0  0  0  0  0  0  0  0  0  0
   11.5929  -22.8613   22.1396 O   0  0  0  0  0  0  0  0  0  0  0  0
    8.7657  -16.6666   21.8403 N   0  0  0  0  0  0  0  0  0  0  0  0
    8.9429  -15.2590   22.3047 C   0  0  1  0  0  0  0  0  0  0  0  0
    7.7638  -14.4614   21.8210 C   0  0  0  0  0  0  0  0  0  0  0  0
    7.8829  -14.0275   20.4205 C   0  0  0  0  0  0  0  0  0  0  0  0
    8.9681  -14.2270   19.5612 C   0  0  0  0  0  0  0  0  0  0  0  0
    8.6931  -13.6845   18.3812 N   0  0  0  0  0  0  0  0  0  0  0  0
    7.4632  -13.1518   18.4841 C   0  0  0  0  0  0  0  0  0  0  0  0
    6.9801  -13.3590   19.7078 N   0  0  0  0  0  0  0  0  0  0  0  0
    9.1341  -15.3498   23.7422 C   0  0  0  0  0  0  0  0  0  0  0  0
    9.8922  -14.4906   24.3409 O   0  0  0  0  0  0  0  0  0  0  0  0
    8.5795  -16.2881   24.6429 N   0  0  0  0  0  0  0  0  0  0  0  0
    8.7849  -16.2267   26.0933 C   0  0  1  0  0  0  0  0  0  0  0  0
    7.4918  -15.9098   26.7930 C   0  0  0  0  0  0  0  0  0  0  0  0
    7.1714  -14.4892   26.6524 C   0  0  0  0  0  0  0  0  0  0  0  0
    6.0785  -14.0136   25.9748 C   0  0  0  0  0  0  0  0  0  0  0  0
    5.7843  -12.6710   25.8633 C   0  0  0  0  0  0  0  0  0  0  0  0
    6.6203  -11.7349   26.4575 C   0  0  0  0  0  0  0  0  0  0  0  0
    7.7272  -12.1890   27.1451 C   0  0  0  0  0  0  0  0  0  0  0  0
    7.9966  -13.5256   27.2408 C   0  0  0  0  0  0  0  0  0  0  0  0
    9.2998  -17.5192   26.5433 C   0  0  0  0  0  0  0  0  0  0  0  0
    9.7152  -17.8187   27.8297 O   0  0  0  0  0  0  0  0  0  0  0  0
    9.3946  -18.4866   25.7184 O   0  0  0  0  0  0  0  0  0  0  0  0
  2  1  1  6
  3  2  1  0
  3  4  1  0
  4  5  1  0
  5  9  1  0
  6  5  2  0
  7  2  1  0
  8  7  2  0
 10  7  1  0
 11 10  1  0
 11 12  1  1
 12 13  1  0
 13 17  1  0
 14 13  2  0
 14 15  1  0
 15 16  1  0
 17 16  2  0
 18 19  2  0
 18 11  1  0
 20 18  1  0
 21 22  1  1
 21 20  1  0
 23 28  1  0
 23 22  1  0
 24 23  2  0
 25 26  2  0
 25 24  1  0
 26 27  1  0
 27 28  2  0
 29 21  1  0
 30 29  1  0
 31 29  2  0
M  END
$$$$
