EHF.pdb
     RDKit          3D

 31 32  0  0  1  0  0  0  0  0999 V2000
    9.1355  -18.5462   20.3703 N   0  0  0  0  0  0  0  0  0  0  0  0
   10.4101  -17.9113   20.3785 C   0  0  1  0  0  0  0  0  0  0  0  0
   10.9950  -17.8883   18.9885 C   0  0  0  0  0  0  0  0  0  0  0  0
    9.9668  -17.9458   17.9085 C   0  0  0  0  0  0  0  0  0  0  0  0
   10.5188  -17.9644   16.5430 C   0  0  0  0  0  0  0  0  0  0  0  0
   11.0753  -16.9888   15.9709 O   0  0  0  0  0  0  0  0  0  0  0  0
   10.3802  -16.5152   20.8987 C   0  0  0  0  0  0  0  0  0  0  0  0
   11.4148  -15.7711   20.9241 O   0  0  0  0  0  0  0  0  0  0  0  0
   10.4213  -19.1598   15.8106 O   0  0  0  0  0  0  0  0  0  0  0  0
    9.1403  -16.0290   21.3743 N   0  0  0  0  0  0  0  0  0  0  0  0
    8.9619  -14.6123   21.8096 C   0  0  1  0  0  0  0  0  0  0  0  0
    7.7443  -14.0664   21.1170 C   0  0  0  0  0  0  0  0  0  0  0  0
    7.8566  -14.0592   19.6503 C   0  0  0  0  0  0  0  0  0  0  0  0
    8.2828  -13.0033   18.8384 C   0  0  0  0  0  0  0  0  0  0  0  0
    8.2410  -13.3876   17.5685 N   0  0  0  0  0  0  0  0  0  0  0  0
    7.7991  -14.6572   17.5689 C   0  0  0  0  0  0  0  0  0  0  0  0
    7.5695  -15.0571   18.8184 N   0  0  0  0  0  0  0  0  0  0  0  0
    8.9313  -14.6574   23.2616 C   0  0  0  0  0  0  0  0  0  0  0  0
    8.6948  -13.5758   23.9291 O   0  0  0  0  0  0  0  0  0  0  0  0
    9.1273  -15.7727   24.1084 N   0  0  0  0  0  0  0  0  0  0  0  0
    8.7606  -15.7767   25.5279 C   0  0  1  0  0  0  0  0  0  0  0  0
    7.2778  -15.5813   25.6870 C   0  0  0  0  0  0  0  0  0  0  0  0
    6.9854  -14.2043   26.0857 C   0  0  0  0  0  0  0  0  0  0  0  0
    5.7540  -13.6149   25.9588 C   0  0  0  0  0  0  0  0  0  0  0  0
    5.4925  -12.3194   26.3521 C   0  0  0  0  0  0  0  0  0  0  0  0
    6.5093  -11.5534   26.9068 C   0  0  0  0  0  0  0  0  0  0  0  0
    7.7579  -12.1244   27.0448 C   0  0  0  0  0  0  0  0  0  0  0  0
    7.9912  -13.4111   26.6467 C   0  0  0  0  0  0  0  0  0  0  0  0
    9.1671  -17.0562   26.1077 C   0  0  0  0  0  0  0  0  0  0  0  0
    9.2602  -17.3358   27.4605 O   0  0  0  0  0  0  0  0  0  0  0  0
    9.4727  -18.0303   25.3442 O   0  0  0  0  0  0  0  0  0  0  0  0
  2  1  1  6
  3  2  1  0
  3  4  1  0
  4  5  1  0
  5  9  1  0
  6  5  2  0
  7  2  1  0
  8  7  2  0
 10  7  1  0
 11 10  1  0
 11 12  1  6
 12 13  1  0
 13 17  1  0
 14 13  2  0
 14 15  1  0
 15 16  1  0
 17 16  2  0
 18 19  2  0
 18 11  1  0
 20 18  1  0
 21 22  1  6
 21 20  1  0
 23 28  1  0
 23 22  1  0
 24 23  2  0
 25 26  2  0
 25 24  1  0
 26 27  1  0
 27 28  2  0
 29 21  1  0
 30 29  1  0
 31 29  2  0
M  END
$$$$
