EHF.pdb
     RDKit          3D

 31 32  0  0  1  0  0  0  0  0999 V2000
    8.7811  -17.7887   19.2240 N   0  0  0  0  0  0  0  0  0  0  0  0
    9.6479  -17.5983   20.3376 C   0  0  1  0  0  0  0  0  0  0  0  0
   10.5192  -16.3858   20.1244 C   0  0  0  0  0  0  0  0  0  0  0  0
   11.9774  -16.7001   20.0815 C   0  0  0  0  0  0  0  0  0  0  0  0
   12.8395  -15.5473   19.7697 C   0  0  0  0  0  0  0  0  0  0  0  0
   12.4299  -14.3915   19.4774 O   0  0  0  0  0  0  0  0  0  0  0  0
    8.9307  -17.4391   21.6341 C   0  0  0  0  0  0  0  0  0  0  0  0
    7.9382  -16.6520   21.7760 O   0  0  0  0  0  0  0  0  0  0  0  0
   14.2311  -15.7407   19.7962 O   0  0  0  0  0  0  0  0  0  0  0  0
    9.3950  -18.2056   22.7281 N   0  0  0  0  0  0  0  0  0  0  0  0
    8.5857  -18.3804   23.9702 C   0  0  1  0  0  0  0  0  0  0  0  0
    8.6184  -19.8368   24.3414 C   0  0  0  0  0  0  0  0  0  0  0  0
    7.9418  -20.1341   25.6133 C   0  0  0  0  0  0  0  0  0  0  0  0
    8.4877  -20.7636   26.7365 C   0  0  0  0  0  0  0  0  0  0  0  0
    7.5582  -20.8511   27.6801 N   0  0  0  0  0  0  0  0  0  0  0  0
    6.4462  -20.2915   27.1726 C   0  0  0  0  0  0  0  0  0  0  0  0
    6.6793  -19.8626   25.9334 N   0  0  0  0  0  0  0  0  0  0  0  0
    9.1447  -17.4418   24.9283 C   0  0  0  0  0  0  0  0  0  0  0  0
   10.3701  -17.0506   24.7983 O   0  0  0  0  0  0  0  0  0  0  0  0
    8.5134  -16.8500   26.0466 N   0  0  0  0  0  0  0  0  0  0  0  0
    9.1781  -15.8816   26.9241 C   0  0  1  0  0  0  0  0  0  0  0  0
    8.1598  -15.0896   27.6975 C   0  0  0  0  0  0  0  0  0  0  0  0
    7.6308  -14.0005   26.8761 C   0  0  0  0  0  0  0  0  0  0  0  0
    8.2898  -12.8189   26.6536 C   0  0  0  0  0  0  0  0  0  0  0  0
    7.7821  -11.8077   25.8655 C   0  0  0  0  0  0  0  0  0  0  0  0
    6.5448  -11.9696   25.2563 C   0  0  0  0  0  0  0  0  0  0  0  0
    5.8619  -13.1503   25.4653 C   0  0  0  0  0  0  0  0  0  0  0  0
    6.3872  -14.1375   26.2514 C   0  0  0  0  0  0  0  0  0  0  0  0
   10.0533  -16.6114   27.8405 C   0  0  0  0  0  0  0  0  0  0  0  0
   11.0288  -16.0478   28.6452 O   0  0  0  0  0  0  0  0  0  0  0  0
    9.9491  -17.8778   27.9440 O   0  0  0  0  0  0  0  0  0  0  0  0
  2  1  1  6
  3  2  1  0
  3  4  1  0
  4  5  1  0
  5  9  1  0
  6  5  2  0
  7  2  1  0
  8  7  2  0
 10  7  1  0
 11 10  1  0
 11 12  1  1
 12 13  1  0
 13 17  1  0
 14 13  2  0
 14 15  1  0
 15 16  1  0
 17 16  2  0
 18 19  2  0
 18 11  1  0
 20 18  1  0
 21 22  1  1
 21 20  1  0
 23 28  1  0
 23 22  1  0
 24 23  2  0
 25 26  2  0
 25 24  1  0
 26 27  1  0
 27 28  2  0
 29 21  1  0
 30 29  1  0
 31 29  2  0
M  END
$$$$
