EHF.pdb
     RDKit          3D

 31 32  0  0  1  0  0  0  0  0999 V2000
    9.6898  -18.0266   19.1684 N   0  0  0  0  0  0  0  0  0  0  0  0
   10.4304  -17.7825   20.3599 C   0  0  1  0  0  0  0  0  0  0  0  0
   11.6169  -16.8979   20.0694 C   0  0  0  0  0  0  0  0  0  0  0  0
   12.4432  -16.5947   21.2745 C   0  0  0  0  0  0  0  0  0  0  0  0
   13.5467  -15.6492   21.0336 C   0  0  0  0  0  0  0  0  0  0  0  0
   14.2994  -15.1690   21.9234 O   0  0  0  0  0  0  0  0  0  0  0  0
    9.6278  -17.1504   21.4447 C   0  0  0  0  0  0  0  0  0  0  0  0
    8.9936  -16.0571   21.2797 O   0  0  0  0  0  0  0  0  0  0  0  0
   13.7873  -15.2429   19.7100 O   0  0  0  0  0  0  0  0  0  0  0  0
    9.5896  -17.8156   22.6920 N   0  0  0  0  0  0  0  0  0  0  0  0
    8.6786  -17.3808   23.7917 C   0  0  1  0  0  0  0  0  0  0  0  0
    8.0176  -18.6075   24.3559 C   0  0  0  0  0  0  0  0  0  0  0  0
    6.9244  -19.1237   23.5179 C   0  0  0  0  0  0  0  0  0  0  0  0
    6.4950  -18.6252   22.2838 C   0  0  0  0  0  0  0  0  0  0  0  0
    5.4808  -19.3619   21.8469 N   0  0  0  0  0  0  0  0  0  0  0  0
    5.2675  -20.3073   22.7784 C   0  0  0  0  0  0  0  0  0  0  0  0
    6.1344  -20.1620   23.7790 N   0  0  0  0  0  0  0  0  0  0  0  0
    9.5102  -16.6038   24.6950 C   0  0  0  0  0  0  0  0  0  0  0  0
   10.5832  -16.0381   24.2476 O   0  0  0  0  0  0  0  0  0  0  0  0
    9.3106  -16.3514   26.0719 N   0  0  0  0  0  0  0  0  0  0  0  0
   10.2033  -15.5059   26.8705 C   0  0  1  0  0  0  0  0  0  0  0  0
   10.1654  -14.0869   26.3731 C   0  0  0  0  0  0  0  0  0  0  0  0
    8.8156  -13.5375   26.5032 C   0  0  0  0  0  0  0  0  0  0  0  0
    7.8149  -13.7389   25.5878 C   0  0  0  0  0  0  0  0  0  0  0  0
    6.5438  -13.2243   25.7329 C   0  0  0  0  0  0  0  0  0  0  0  0
    6.2371  -12.4616   26.8519 C   0  0  0  0  0  0  0  0  0  0  0  0
    7.2279  -12.2445   27.7876 C   0  0  0  0  0  0  0  0  0  0  0  0
    8.4803  -12.7659   27.6202 C   0  0  0  0  0  0  0  0  0  0  0  0
    9.7708  -15.5642   28.2662 C   0  0  0  0  0  0  0  0  0  0  0  0
    8.6898  -16.2836   28.7465 O   0  0  0  0  0  0  0  0  0  0  0  0
   10.4108  -14.9139   29.1565 O   0  0  0  0  0  0  0  0  0  0  0  0
  2  1  1  6
  3  2  1  0
  3  4  1  0
  4  5  1  0
  5  9  1  0
  6  5  2  0
  7  2  1  0
  8  7  2  0
 10  7  1  0
 11 10  1  0
 11 12  1  1
 12 13  1  0
 13 17  1  0
 14 13  2  0
 14 15  1  0
 15 16  1  0
 17 16  2  0
 18 19  2  0
 18 11  1  0
 20 18  1  0
 21 22  1  6
 21 20  1  0
 23 28  1  0
 23 22  1  0
 24 23  2  0
 25 26  2  0
 25 24  1  0
 26 27  1  0
 27 28  2  0
 29 21  1  0
 30 29  1  0
 31 29  2  0
M  END
$$$$
