LDE.pdb
     RDKit          3D

 26 25  0  0  1  0  0  0  0  0999 V2000
   13.8165  -12.7199  -16.3768 C   0  0  0  0  0  0  0  0  0  0  0  0
   15.2701  -12.8646  -16.7313 C   0  0  1  0  0  0  0  0  0  0  0  0
   15.4137  -12.5915  -18.2112 C   0  0  0  0  0  0  0  0  0  0  0  0
   16.1840  -11.9976  -15.9183 C   0  0  0  0  0  0  0  0  0  0  0  0
   17.6090  -12.1459  -16.3405 C   0  0  2  0  0  0  0  0  0  0  0  0
   18.1201  -13.4024  -15.8115 N   0  0  0  0  0  0  0  0  0  0  0  0
   18.4575  -11.0684  -15.7899 C   0  0  0  0  0  0  0  0  0  0  0  0
   18.5227  -10.8460  -14.5484 O   0  0  0  0  0  0  0  0  0  0  0  0
   19.2568  -10.2106  -16.6218 N   0  0  0  0  0  0  0  0  0  0  0  0
   20.0207   -9.1337  -16.0548 C   0  0  1  0  0  0  0  0  0  0  0  0
   21.4741   -9.1949  -16.4113 C   0  0  0  0  0  0  0  0  0  0  0  0
   22.2938   -8.1312  -15.7965 C   0  0  0  0  0  0  0  0  0  0  0  0
   21.7919   -7.3216  -14.9801 O   0  0  0  0  0  0  0  0  0  0  0  0
   19.4774   -7.8132  -16.4674 C   0  0  0  0  0  0  0  0  0  0  0  0
   19.2762   -7.5926  -17.6869 O   0  0  0  0  0  0  0  0  0  0  0  0
   23.6384   -7.9938  -16.1004 O   0  0  0  0  0  0  0  0  0  0  0  0
   19.1834   -6.8075  -15.5364 N   0  0  0  0  0  0  0  0  0  0  0  0
   18.6574   -5.4800  -15.9218 C   0  0  1  0  0  0  0  0  0  0  0  0
   17.3231   -5.2437  -15.2995 C   0  0  0  0  0  0  0  0  0  0  0  0
   16.1837   -5.4055  -16.2285 C   0  0  0  0  0  0  0  0  0  0  0  0
   14.9047   -4.9003  -15.7295 C   0  0  0  0  0  0  0  0  0  0  0  0
   14.7518   -3.7078  -15.3732 O   0  0  0  0  0  0  0  0  0  0  0  0
   19.6621   -4.4851  -15.5201 C   0  0  0  0  0  0  0  0  0  0  0  0
   19.7688   -3.2834  -16.1954 O   0  0  0  0  0  0  0  0  0  0  0  0
   13.7930   -5.7398  -15.6308 O   0  0  0  0  0  0  0  0  0  0  0  0
   20.4613   -4.6637  -14.5654 O   0  0  0  0  0  0  0  0  0  0  0  0
  2  4  1  0
  2  1  1  1
  3  2  1  0
  4  5  1  0
  5  7  1  0
  5  6  1  1
  7  8  2  0
  9 10  1  0
  9  7  1  0
 11 12  1  0
 10 11  1  6
 12 16  1  0
 13 12  2  0
 14 10  1  0
 14 15  2  0
 17 14  1  0
 18 17  1  0
 18 23  1  0
 18 19  1  1
 20 19  1  0
 21 22  2  0
 21 20  1  0
 23 26  2  0
 23 24  1  0
 25 21  1  0
M  END
$$$$
