LDE.pdb
     RDKit          3D

 26 25  0  0  1  0  0  0  0  0999 V2000
   29.9287  -20.9090  -12.0912 C   0  0  0  0  0  0  0  0  0  0  0  0
   28.5021  -21.1929  -11.7119 C   0  0  1  0  0  0  0  0  0  0  0  0
   28.5175  -22.0560  -10.4708 C   0  0  0  0  0  0  0  0  0  0  0  0
   27.6673  -19.9626  -11.5188 C   0  0  0  0  0  0  0  0  0  0  0  0
   26.2274  -20.2979  -11.3066 C   0  0  2  0  0  0  0  0  0  0  0  0
   26.1041  -21.7419  -11.1674 N   0  0  0  0  0  0  0  0  0  0  0  0
   25.3977  -19.9030  -12.4641 C   0  0  0  0  0  0  0  0  0  0  0  0
   25.2891  -18.6962  -12.8200 O   0  0  0  0  0  0  0  0  0  0  0  0
   24.6664  -20.8563  -13.2537 N   0  0  0  0  0  0  0  0  0  0  0  0
   23.8629  -20.4324  -14.3671 C   0  0  1  0  0  0  0  0  0  0  0  0
   24.1604  -21.1874  -15.6258 C   0  0  0  0  0  0  0  0  0  0  0  0
   23.3930  -20.7303  -16.8020 C   0  0  0  0  0  0  0  0  0  0  0  0
   22.8939  -21.5543  -17.6056 O   0  0  0  0  0  0  0  0  0  0  0  0
   22.4134  -20.5546  -14.0617 C   0  0  0  0  0  0  0  0  0  0  0  0
   21.9792  -21.6368  -13.5962 O   0  0  0  0  0  0  0  0  0  0  0  0
   23.2002  -19.3820  -17.0547 O   0  0  0  0  0  0  0  0  0  0  0  0
   21.5174  -19.4986  -14.2780 N   0  0  0  0  0  0  0  0  0  0  0  0
   20.1168  -19.5189  -13.8033 C   0  0  1  0  0  0  0  0  0  0  0  0
   19.5770  -18.1325  -13.7027 C   0  0  0  0  0  0  0  0  0  0  0  0
   18.1498  -18.0639  -13.3215 C   0  0  0  0  0  0  0  0  0  0  0  0
   17.5620  -16.7252  -13.3712 C   0  0  0  0  0  0  0  0  0  0  0  0
   16.3486  -16.5201  -13.1300 O   0  0  0  0  0  0  0  0  0  0  0  0
   19.3578  -20.3639  -14.7363 C   0  0  0  0  0  0  0  0  0  0  0  0
   19.6713  -20.3795  -16.0828 O   0  0  0  0  0  0  0  0  0  0  0  0
   18.3420  -15.6125  -13.6935 O   0  0  0  0  0  0  0  0  0  0  0  0
   18.4052  -21.1014  -14.3747 O   0  0  0  0  0  0  0  0  0  0  0  0
  2  4  1  0
  2  1  1  1
  3  2  1  0
  4  5  1  0
  5  7  1  0
  5  6  1  6
  7  8  2  0
  9 10  1  0
  9  7  1  0
 11 12  1  0
 10 11  1  6
 12 16  1  0
 13 12  2  0
 14 10  1  0
 14 15  2  0
 17 14  1  0
 18 17  1  0
 18 23  1  0
 18 19  1  6
 20 19  1  0
 21 22  2  0
 21 20  1  0
 23 26  2  0
 23 24  1  0
 25 21  1  0
M  END
$$$$
