LDE.pdb
     RDKit          3D

 26 25  0  0  1  0  0  0  0  0999 V2000
   25.5186  -12.8363  -15.4218 C   0  0  0  0  0  0  0  0  0  0  0  0
   24.3547  -12.1885  -16.1186 C   0  0  1  0  0  0  0  0  0  0  0  0
   23.4741  -13.2886  -16.6661 C   0  0  0  0  0  0  0  0  0  0  0  0
   23.5799  -11.2391  -15.2548 C   0  0  0  0  0  0  0  0  0  0  0  0
   22.4558  -10.6008  -16.0031 C   0  0  2  0  0  0  0  0  0  0  0  0
   22.9840  -10.0313  -17.2345 N   0  0  0  0  0  0  0  0  0  0  0  0
   21.8506   -9.4905  -15.2383 C   0  0  0  0  0  0  0  0  0  0  0  0
   21.3042   -9.6803  -14.1157 O   0  0  0  0  0  0  0  0  0  0  0  0
   21.8434   -8.1346  -15.7162 N   0  0  0  0  0  0  0  0  0  0  0  0
   21.2467   -7.0812  -14.9422 C   0  0  1  0  0  0  0  0  0  0  0  0
   22.2393   -6.0605  -14.4778 C   0  0  0  0  0  0  0  0  0  0  0  0
   21.7015   -5.0941  -13.4990 C   0  0  0  0  0  0  0  0  0  0  0  0
   20.5619   -5.2508  -12.9982 O   0  0  0  0  0  0  0  0  0  0  0  0
   20.1707   -6.3963  -15.7054 C   0  0  0  0  0  0  0  0  0  0  0  0
   20.4490   -5.8727  -16.8121 O   0  0  0  0  0  0  0  0  0  0  0  0
   22.4353   -3.9875  -13.1038 O   0  0  0  0  0  0  0  0  0  0  0  0
   18.8557   -6.3173  -15.2267 N   0  0  0  0  0  0  0  0  0  0  0  0
   17.7549   -5.6920  -15.9913 C   0  0  1  0  0  0  0  0  0  0  0  0
   16.4484   -6.3165  -15.6355 C   0  0  0  0  0  0  0  0  0  0  0  0
   16.3189   -7.7299  -16.0510 C   0  0  0  0  0  0  0  0  0  0  0  0
   15.4412   -8.5423  -15.2087 C   0  0  0  0  0  0  0  0  0  0  0  0
   15.8824   -9.2465  -14.2696 O   0  0  0  0  0  0  0  0  0  0  0  0
   17.7979   -4.2504  -15.7078 C   0  0  0  0  0  0  0  0  0  0  0  0
   17.5655   -3.3303  -16.7132 O   0  0  0  0  0  0  0  0  0  0  0  0
   14.0613   -8.5629  -15.4235 O   0  0  0  0  0  0  0  0  0  0  0  0
   18.0418   -3.7824  -14.5660 O   0  0  0  0  0  0  0  0  0  0  0  0
  2  4  1  0
  2  1  1  1
  3  2  1  0
  4  5  1  0
  5  7  1  0
  5  6  1  6
  7  8  2  0
  9 10  1  0
  9  7  1  0
 11 12  1  0
 10 11  1  6
 12 16  1  0
 13 12  2  0
 14 10  1  0
 14 15  2  0
 17 14  1  0
 18 17  1  0
 18 23  1  0
 18 19  1  1
 20 19  1  0
 21 22  2  0
 21 20  1  0
 23 26  2  0
 23 24  1  0
 25 21  1  0
M  END
$$$$
