LDE.pdb
     RDKit          3D

 26 25  0  0  1  0  0  0  0  0999 V2000
   24.9444  -32.7286   -8.7812 C   0  0  0  0  0  0  0  0  0  0  0  0
   26.0153  -32.9446   -7.7486 C   0  0  1  0  0  0  0  0  0  0  0  0
   27.3328  -32.5153   -8.3533 C   0  0  0  0  0  0  0  0  0  0  0  0
   25.7533  -32.2506   -6.4457 C   0  0  0  0  0  0  0  0  0  0  0  0
   26.7943  -32.5765   -5.4253 C   0  0  2  0  0  0  0  0  0  0  0  0
   27.4515  -33.8160   -5.8143 N   0  0  0  0  0  0  0  0  0  0  0  0
   26.2003  -32.8026   -4.0912 C   0  0  0  0  0  0  0  0  0  0  0  0
   25.5411  -31.9030   -3.4987 O   0  0  0  0  0  0  0  0  0  0  0  0
   26.3319  -34.0486   -3.3861 N   0  0  0  0  0  0  0  0  0  0  0  0
   25.7295  -34.2344   -2.0948 C   0  0  1  0  0  0  0  0  0  0  0  0
   24.9224  -35.4925   -2.0000 C   0  0  0  0  0  0  0  0  0  0  0  0
   23.5985  -35.3167   -1.3694 C   0  0  0  0  0  0  0  0  0  0  0  0
   23.2242  -34.1915   -0.9598 O   0  0  0  0  0  0  0  0  0  0  0  0
   26.7543  -34.2358   -1.0183 C   0  0  0  0  0  0  0  0  0  0  0  0
   27.8516  -34.8102   -1.2241 O   0  0  0  0  0  0  0  0  0  0  0  0
   22.7306  -36.3847   -1.2105 O   0  0  0  0  0  0  0  0  0  0  0  0
   26.5324  -33.6157    0.2190 N   0  0  0  0  0  0  0  0  0  0  0  0
   27.5524  -33.5612    1.2886 C   0  0  1  0  0  0  0  0  0  0  0  0
   27.0984  -32.6789    2.4017 C   0  0  0  0  0  0  0  0  0  0  0  0
   28.0658  -32.5601    3.5141 C   0  0  0  0  0  0  0  0  0  0  0  0
   27.6513  -31.6709    4.5993 C   0  0  0  0  0  0  0  0  0  0  0  0
   26.5071  -31.1597    4.6426 O   0  0  0  0  0  0  0  0  0  0  0  0
   27.8008  -34.9449    1.7181 C   0  0  0  0  0  0  0  0  0  0  0  0
   29.0751  -35.3542    2.0642 O   0  0  0  0  0  0  0  0  0  0  0  0
   28.5274  -31.3553    5.6401 O   0  0  0  0  0  0  0  0  0  0  0  0
   26.8939  -35.8133    1.7936 O   0  0  0  0  0  0  0  0  0  0  0  0
  2  4  1  0
  2  1  1  6
  3  2  1  0
  4  5  1  0
  5  7  1  0
  5  6  1  6
  7  8  2  0
  9 10  1  0
  9  7  1  0
 11 12  1  0
 10 11  1  6
 12 16  1  0
 13 12  2  0
 14 10  1  0
 14 15  2  0
 17 14  1  0
 18 17  1  0
 18 23  1  0
 18 19  1  1
 20 19  1  0
 21 22  2  0
 21 20  1  0
 23 26  2  0
 23 24  1  0
 25 21  1  0
M  END
$$$$
