LDE.pdb
     RDKit          3D

 26 25  0  0  1  0  0  0  0  0999 V2000
   12.1356   -9.1405  -11.2419 C   0  0  0  0  0  0  0  0  0  0  0  0
   13.3867   -8.9874  -10.4228 C   0  0  1  0  0  0  0  0  0  0  0  0
   13.0099   -8.3036   -9.1282 C   0  0  0  0  0  0  0  0  0  0  0  0
   14.1140  -10.2751  -10.1760 C   0  0  0  0  0  0  0  0  0  0  0  0
   14.4680  -10.9648  -11.4527 C   0  0  2  0  0  0  0  0  0  0  0  0
   14.9659  -12.2960  -11.1369 N   0  0  0  0  0  0  0  0  0  0  0  0
   15.5478  -10.2595  -12.1741 C   0  0  0  0  0  0  0  0  0  0  0  0
   16.5903   -9.8625  -11.5819 O   0  0  0  0  0  0  0  0  0  0  0  0
   15.4845   -9.9812  -13.5831 N   0  0  0  0  0  0  0  0  0  0  0  0
   16.5461   -9.2748  -14.2456 C   0  0  1  0  0  0  0  0  0  0  0  0
   17.0106   -9.9539  -15.4970 C   0  0  0  0  0  0  0  0  0  0  0  0
   17.6362  -11.2730  -15.2738 C   0  0  0  0  0  0  0  0  0  0  0  0
   18.6222  -11.3973  -14.5081 O   0  0  0  0  0  0  0  0  0  0  0  0
   16.1432   -7.8821  -14.5729 C   0  0  0  0  0  0  0  0  0  0  0  0
   14.9720   -7.6652  -14.9700 O   0  0  0  0  0  0  0  0  0  0  0  0
   17.1560  -12.4114  -15.9004 O   0  0  0  0  0  0  0  0  0  0  0  0
   17.0312   -6.8043  -14.4518 N   0  0  0  0  0  0  0  0  0  0  0  0
   16.6424   -5.4039  -14.7261 C   0  0  1  0  0  0  0  0  0  0  0  0
   15.6001   -4.9503  -13.7611 C   0  0  0  0  0  0  0  0  0  0  0  0
   15.1469   -3.5579  -13.9683 C   0  0  0  0  0  0  0  0  0  0  0  0
   14.1632   -3.0787  -12.9974 C   0  0  0  0  0  0  0  0  0  0  0  0
   13.6967   -1.9154  -13.0391 O   0  0  0  0  0  0  0  0  0  0  0  0
   17.8693   -4.5965  -14.6669 C   0  0  0  0  0  0  0  0  0  0  0  0
   17.8512   -3.2642  -15.0357 O   0  0  0  0  0  0  0  0  0  0  0  0
   13.7020   -3.9112  -11.9753 O   0  0  0  0  0  0  0  0  0  0  0  0
   18.9767   -5.0575  -14.2880 O   0  0  0  0  0  0  0  0  0  0  0  0
  2  4  1  0
  2  1  1  1
  3  2  1  0
  4  5  1  0
  5  7  1  0
  5  6  1  1
  7  8  2  0
  9 10  1  0
  9  7  1  0
 11 12  1  0
 10 11  1  6
 12 16  1  0
 13 12  2  0
 14 10  1  0
 14 15  2  0
 17 14  1  0
 18 17  1  0
 18 23  1  0
 18 19  1  1
 20 19  1  0
 21 22  2  0
 21 20  1  0
 23 26  2  0
 23 24  1  0
 25 21  1  0
M  END
$$$$
