LDE.pdb
     RDKit          3D

 26 25  0  0  1  0  0  0  0  0999 V2000
   27.4423  -14.2103  -15.5814 C   0  0  0  0  0  0  0  0  0  0  0  0
   25.9633  -14.3901  -15.7813 C   0  0  1  0  0  0  0  0  0  0  0  0
   25.4255  -15.1500  -14.5902 C   0  0  0  0  0  0  0  0  0  0  0  0
   25.2184  -13.1074  -16.0003 C   0  0  0  0  0  0  0  0  0  0  0  0
   23.7513  -13.3388  -16.1584 C   0  0  2  0  0  0  0  0  0  0  0  0
   23.5412  -14.2100  -17.3058 N   0  0  0  0  0  0  0  0  0  0  0  0
   23.0257  -12.0809  -16.4324 C   0  0  0  0  0  0  0  0  0  0  0  0
   23.1900  -11.4429  -17.5098 O   0  0  0  0  0  0  0  0  0  0  0  0
   22.0943  -11.5056  -15.5006 N   0  0  0  0  0  0  0  0  0  0  0  0
   21.3593  -10.3154  -15.8297 C   0  0  1  0  0  0  0  0  0  0  0  0
   19.9313  -10.3655  -15.3810 C   0  0  0  0  0  0  0  0  0  0  0  0
   19.1531  -11.4791  -15.9603 C   0  0  0  0  0  0  0  0  0  0  0  0
   19.1581  -11.6943  -17.1963 O   0  0  0  0  0  0  0  0  0  0  0  0
   22.0049   -9.1076  -15.2521 C   0  0  0  0  0  0  0  0  0  0  0  0
   22.4502   -9.1581  -14.0793 O   0  0  0  0  0  0  0  0  0  0  0  0
   18.3954  -12.3189  -15.1604 O   0  0  0  0  0  0  0  0  0  0  0  0
   22.1312   -7.9147  -15.9772 N   0  0  0  0  0  0  0  0  0  0  0  0
   22.7280   -6.6856  -15.4109 C   0  0  1  0  0  0  0  0  0  0  0  0
   22.9773   -5.6810  -16.4842 C   0  0  0  0  0  0  0  0  0  0  0  0
   23.4699   -4.3766  -15.9911 C   0  0  0  0  0  0  0  0  0  0  0  0
   23.7419   -3.3864  -17.0330 C   0  0  0  0  0  0  0  0  0  0  0  0
   22.8869   -2.5412  -17.3896 O   0  0  0  0  0  0  0  0  0  0  0  0
   21.8088   -6.1994  -14.3721 C   0  0  0  0  0  0  0  0  0  0  0  0
   22.2971   -5.5743  -13.2397 O   0  0  0  0  0  0  0  0  0  0  0  0
   24.9807   -3.3465  -17.6766 O   0  0  0  0  0  0  0  0  0  0  0  0
   20.5592   -6.3200  -14.4502 O   0  0  0  0  0  0  0  0  0  0  0  0
  2  4  1  0
  2  1  1  1
  3  2  1  0
  4  5  1  0
  5  7  1  0
  5  6  1  6
  7  8  2  0
  9 10  1  0
  9  7  1  0
 11 12  1  0
 10 11  1  1
 12 16  1  0
 13 12  2  0
 14 10  1  0
 14 15  2  0
 17 14  1  0
 18 17  1  0
 18 23  1  0
 18 19  1  6
 20 19  1  0
 21 22  2  0
 21 20  1  0
 23 26  2  0
 23 24  1  0
 25 21  1  0
M  END
$$$$
