LDE.pdb
     RDKit          3D

 26 25  0  0  1  0  0  0  0  0999 V2000
   27.7499  -18.7942   -5.5168 C   0  0  0  0  0  0  0  0  0  0  0  0
   27.9508  -19.8383   -6.5794 C   0  0  1  0  0  0  0  0  0  0  0  0
   28.2154  -21.1562   -5.8874 C   0  0  0  0  0  0  0  0  0  0  0  0
   26.8145  -19.9435   -7.5519 C   0  0  0  0  0  0  0  0  0  0  0  0
   27.1054  -20.9248   -8.6397 C   0  0  2  0  0  0  0  0  0  0  0  0
   28.5246  -20.8563   -8.9574 N   0  0  0  0  0  0  0  0  0  0  0  0
   26.3691  -20.6010   -9.8795 C   0  0  0  0  0  0  0  0  0  0  0  0
   26.4370  -19.4572  -10.4103 O   0  0  0  0  0  0  0  0  0  0  0  0
   25.5352  -21.5565  -10.5567 N   0  0  0  0  0  0  0  0  0  0  0  0
   24.9318  -21.2445  -11.8230 C   0  0  1  0  0  0  0  0  0  0  0  0
   25.2340  -22.2591  -12.8822 C   0  0  0  0  0  0  0  0  0  0  0  0
   24.7818  -21.8756  -14.2349 C   0  0  0  0  0  0  0  0  0  0  0  0
   24.9762  -22.6310  -15.2176 O   0  0  0  0  0  0  0  0  0  0  0  0
   23.4576  -21.1033  -11.6960 C   0  0  0  0  0  0  0  0  0  0  0  0
   22.8280  -21.9194  -10.9791 O   0  0  0  0  0  0  0  0  0  0  0  0
   24.1309  -20.6739  -14.4614 O   0  0  0  0  0  0  0  0  0  0  0  0
   22.7497  -20.0871  -12.3525 N   0  0  0  0  0  0  0  0  0  0  0  0
   21.2974  -19.8712  -12.1750 C   0  0  1  0  0  0  0  0  0  0  0  0
   20.8225  -18.7574  -13.0453 C   0  0  0  0  0  0  0  0  0  0  0  0
   20.4636  -19.1720  -14.4188 C   0  0  0  0  0  0  0  0  0  0  0  0
   19.9330  -18.1043  -15.2664 C   0  0  0  0  0  0  0  0  0  0  0  0
   19.7024  -18.2742  -16.4873 O   0  0  0  0  0  0  0  0  0  0  0  0
   20.6330  -21.1497  -12.4656 C   0  0  0  0  0  0  0  0  0  0  0  0
   19.4435  -21.4799  -11.8431 O   0  0  0  0  0  0  0  0  0  0  0  0
   19.6606  -16.8402  -14.7388 O   0  0  0  0  0  0  0  0  0  0  0  0
   21.0946  -21.9947  -13.2750 O   0  0  0  0  0  0  0  0  0  0  0  0
  2  4  1  0
  2  1  1  1
  3  2  1  0
  4  5  1  0
  5  7  1  0
  5  6  1  6
  7  8  2  0
  9 10  1  0
  9  7  1  0
 11 12  1  0
 10 11  1  6
 12 16  1  0
 13 12  2  0
 14 10  1  0
 14 15  2  0
 17 14  1  0
 18 17  1  0
 18 23  1  0
 18 19  1  6
 20 19  1  0
 21 22  2  0
 21 20  1  0
 23 26  2  0
 23 24  1  0
 25 21  1  0
M  END
$$$$
