LDE.pdb
     RDKit          3D

 26 25  0  0  1  0  0  0  0  0999 V2000
   20.6324  -11.1877    6.1615 C   0  0  0  0  0  0  0  0  0  0  0  0
   19.3147  -11.8721    5.9275 C   0  0  1  0  0  0  0  0  0  0  0  0
   19.1884  -12.1356    4.4442 C   0  0  0  0  0  0  0  0  0  0  0  0
   19.1291  -13.1256    6.7289 C   0  0  0  0  0  0  0  0  0  0  0  0
   17.9729  -13.9324    6.2357 C   0  0  2  0  0  0  0  0  0  0  0  0
   16.7410  -13.2886    6.6687 N   0  0  0  0  0  0  0  0  0  0  0  0
   17.9728  -15.2947    6.8084 C   0  0  0  0  0  0  0  0  0  0  0  0
   17.9021  -15.4893    8.0542 O   0  0  0  0  0  0  0  0  0  0  0  0
   18.0524  -16.4770    5.9942 N   0  0  0  0  0  0  0  0  0  0  0  0
   18.0644  -17.7849    6.5893 C   0  0  1  0  0  0  0  0  0  0  0  0
   17.5679  -18.8539    5.6653 C   0  0  0  0  0  0  0  0  0  0  0  0
   16.1133  -18.8092    5.4136 C   0  0  0  0  0  0  0  0  0  0  0  0
   15.3808  -19.7889    5.6921 O   0  0  0  0  0  0  0  0  0  0  0  0
   19.4261  -18.1486    7.0612 C   0  0  0  0  0  0  0  0  0  0  0  0
   20.4024  -17.9792    6.2902 O   0  0  0  0  0  0  0  0  0  0  0  0
   15.5131  -17.6882    4.8638 O   0  0  0  0  0  0  0  0  0  0  0  0
   19.6526  -18.6750    8.3405 N   0  0  0  0  0  0  0  0  0  0  0  0
   20.9960  -19.0502    8.8323 C   0  0  1  0  0  0  0  0  0  0  0  0
   21.4120  -18.1591    9.9531 C   0  0  0  0  0  0  0  0  0  0  0  0
   20.5569  -18.2582   11.1557 C   0  0  0  0  0  0  0  0  0  0  0  0
   21.1917  -17.8266   12.4010 C   0  0  0  0  0  0  0  0  0  0  0  0
   22.3941  -17.4737   12.4494 O   0  0  0  0  0  0  0  0  0  0  0  0
   20.9333  -20.4670    9.2186 C   0  0  0  0  0  0  0  0  0  0  0  0
   22.0840  -21.1528    9.5606 O   0  0  0  0  0  0  0  0  0  0  0  0
   20.4713  -17.7918   13.5970 O   0  0  0  0  0  0  0  0  0  0  0  0
   19.8592  -21.1204    9.2596 O   0  0  0  0  0  0  0  0  0  0  0  0
  2  4  1  0
  2  1  1  6
  3  2  1  0
  4  5  1  0
  5  7  1  0
  5  6  1  1
  7  8  2  0
  9 10  1  0
  9  7  1  0
 11 12  1  0
 10 11  1  6
 12 16  1  0
 13 12  2  0
 14 10  1  0
 14 15  2  0
 17 14  1  0
 18 17  1  0
 18 23  1  0
 18 19  1  1
 20 19  1  0
 21 22  2  0
 21 20  1  0
 23 26  2  0
 23 24  1  0
 25 21  1  0
M  END
$$$$
