LDE.pdb
     RDKit          3D

 26 25  0  0  1  0  0  0  0  0999 V2000
   29.5375  -19.5684  -12.9927 C   0  0  0  0  0  0  0  0  0  0  0  0
   28.4388  -20.5919  -13.0629 C   0  0  1  0  0  0  0  0  0  0  0  0
   28.8535  -21.7731  -12.2153 C   0  0  0  0  0  0  0  0  0  0  0  0
   27.0928  -20.0685  -12.6601 C   0  0  0  0  0  0  0  0  0  0  0  0
   26.0519  -21.1394  -12.6847 C   0  0  2  0  0  0  0  0  0  0  0  0
   26.2418  -21.9419  -13.8846 N   0  0  0  0  0  0  0  0  0  0  0  0
   24.6880  -20.5749  -12.7539 C   0  0  0  0  0  0  0  0  0  0  0  0
   24.1922  -19.9216  -11.7935 O   0  0  0  0  0  0  0  0  0  0  0  0
   23.8433  -20.7299  -13.9069 N   0  0  0  0  0  0  0  0  0  0  0  0
   22.5281  -20.1522  -13.9428 C   0  0  1  0  0  0  0  0  0  0  0  0
   22.2857  -19.3220  -15.1655 C   0  0  0  0  0  0  0  0  0  0  0  0
   20.9804  -18.6312  -15.1795 C   0  0  0  0  0  0  0  0  0  0  0  0
   20.2730  -18.5693  -14.1453 O   0  0  0  0  0  0  0  0  0  0  0  0
   21.4777  -21.2001  -13.8545 C   0  0  0  0  0  0  0  0  0  0  0  0
   21.6376  -22.2757  -14.4820 O   0  0  0  0  0  0  0  0  0  0  0  0
   20.4969  -18.0315  -16.3310 O   0  0  0  0  0  0  0  0  0  0  0  0
   20.3148  -21.0233  -13.0923 N   0  0  0  0  0  0  0  0  0  0  0  0
   19.3194  -22.0962  -12.8784 C   0  0  1  0  0  0  0  0  0  0  0  0
   19.3056  -22.5215  -11.4493 C   0  0  0  0  0  0  0  0  0  0  0  0
   18.2560  -23.5104  -11.1213 C   0  0  0  0  0  0  0  0  0  0  0  0
   18.2965  -24.0210   -9.7510 C   0  0  0  0  0  0  0  0  0  0  0  0
   19.1567  -23.6395   -8.9221 O   0  0  0  0  0  0  0  0  0  0  0  0
   18.0221  -21.5777  -13.3354 C   0  0  0  0  0  0  0  0  0  0  0  0
   17.1457  -22.3920  -14.0285 O   0  0  0  0  0  0  0  0  0  0  0  0
   17.3657  -24.9646   -9.3110 O   0  0  0  0  0  0  0  0  0  0  0  0
   17.6438  -20.3961  -13.1285 O   0  0  0  0  0  0  0  0  0  0  0  0
  2  4  1  0
  2  1  1  1
  3  2  1  0
  4  5  1  0
  5  7  1  0
  5  6  1  6
  7  8  2  0
  9 10  1  0
  9  7  1  0
 11 12  1  0
 10 11  1  6
 12 16  1  0
 13 12  2  0
 14 10  1  0
 14 15  2  0
 17 14  1  0
 18 17  1  0
 18 23  1  0
 18 19  1  1
 20 19  1  0
 21 22  2  0
 21 20  1  0
 23 26  2  0
 23 24  1  0
 25 21  1  0
M  END
$$$$
