LDE.pdb
     RDKit          3D

 26 25  0  0  1  0  0  0  0  0999 V2000
   26.0856  -13.3025  -16.0643 C   0  0  0  0  0  0  0  0  0  0  0  0
   26.7573  -12.0274  -16.4917 C   0  0  1  0  0  0  0  0  0  0  0  0
   27.7638  -12.3734  -17.5654 C   0  0  0  0  0  0  0  0  0  0  0  0
   25.8065  -10.9620  -16.9485 C   0  0  0  0  0  0  0  0  0  0  0  0
   25.0226  -10.3943  -15.8109 C   0  0  2  0  0  0  0  0  0  0  0  0
   24.2941  -11.4768  -15.1650 N   0  0  0  0  0  0  0  0  0  0  0  0
   24.0185   -9.4139  -16.2741 C   0  0  0  0  0  0  0  0  0  0  0  0
   24.3492   -8.3882  -16.9325 O   0  0  0  0  0  0  0  0  0  0  0  0
   22.6132   -9.5607  -16.0089 N   0  0  0  0  0  0  0  0  0  0  0  0
   21.6712   -8.5659  -16.4424 C   0  0  1  0  0  0  0  0  0  0  0  0
   20.2479   -9.0188  -16.3323 C   0  0  0  0  0  0  0  0  0  0  0  0
   19.9157  -10.1831  -17.1780 C   0  0  0  0  0  0  0  0  0  0  0  0
   19.5093  -11.2549  -16.6680 O   0  0  0  0  0  0  0  0  0  0  0  0
   21.8358   -7.3008  -15.6797 C   0  0  0  0  0  0  0  0  0  0  0  0
   22.1018   -7.3598  -14.4541 O   0  0  0  0  0  0  0  0  0  0  0  0
   20.0417  -10.1295  -18.5566 O   0  0  0  0  0  0  0  0  0  0  0  0
   21.7029   -6.0447  -16.2874 N   0  0  0  0  0  0  0  0  0  0  0  0
   21.8746   -4.7716  -15.5546 C   0  0  1  0  0  0  0  0  0  0  0  0
   22.0429   -3.6367  -16.5071 C   0  0  0  0  0  0  0  0  0  0  0  0
   22.2704   -2.3281  -15.8568 C   0  0  0  0  0  0  0  0  0  0  0  0
   22.3977   -1.1969  -16.7755 C   0  0  0  0  0  0  0  0  0  0  0  0
   21.7351   -0.1421  -16.6308 O   0  0  0  0  0  0  0  0  0  0  0  0
   20.7040   -4.6171  -14.6791 C   0  0  0  0  0  0  0  0  0  0  0  0
   19.4480   -4.9984  -15.1130 O   0  0  0  0  0  0  0  0  0  0  0  0
   23.2740   -1.2520  -17.8616 O   0  0  0  0  0  0  0  0  0  0  0  0
   20.7745   -4.1422  -13.5164 O   0  0  0  0  0  0  0  0  0  0  0  0
  2  4  1  0
  2  1  1  6
  3  2  1  0
  4  5  1  0
  5  7  1  0
  5  6  1  6
  7  8  2  0
  9 10  1  0
  9  7  1  0
 11 12  1  0
 10 11  1  1
 12 16  1  0
 13 12  2  0
 14 10  1  0
 14 15  2  0
 17 14  1  0
 18 17  1  0
 18 23  1  0
 18 19  1  6
 20 19  1  0
 21 22  2  0
 21 20  1  0
 23 26  2  0
 23 24  1  0
 25 21  1  0
M  END
$$$$
