LKK.pdb
     RDKit          3D

 27 26  0  0  1  0  0  0  0  0999 V2000
   12.3128  -11.7325  -12.9503 C   0  0  0  0  0  0  0  0  0  0  0  0
   12.7385  -12.3799  -11.6792 C   0  0  2  0  0  0  0  0  0  0  0  0
   11.4799  -12.5532  -10.8147 C   0  0  0  0  0  0  0  0  0  0  0  0
   13.7168  -11.6408  -10.8504 C   0  0  0  0  0  0  0  0  0  0  0  0
   15.0578  -11.3763  -11.4472 C   0  0  2  0  0  0  0  0  0  0  0  0
   15.9241  -12.4899  -11.5947 N   0  0  0  0  0  0  0  0  0  0  0  0
   15.7700  -10.2483  -10.8034 C   0  0  0  0  0  0  0  0  0  0  0  0
   16.2500  -10.3482   -9.6425 O   0  0  0  0  0  0  0  0  0  0  0  0
   15.9144   -9.0417  -11.4979 N   0  0  0  0  0  0  0  0  0  0  0  0
   16.6099   -7.8708  -10.9835 C   0  0  1  0  0  0  0  0  0  0  0  0
   17.5731   -7.3493  -12.0172 C   0  0  0  0  0  0  0  0  0  0  0  0
   18.7952   -8.1806  -12.1666 C   0  0  0  0  0  0  0  0  0  0  0  0
   19.7953   -7.5211  -13.1205 C   0  0  0  0  0  0  0  0  0  0  0  0
   20.9644   -8.4658  -13.2834 C   0  0  0  0  0  0  0  0  0  0  0  0
   21.9112   -7.9644  -14.2606 N   0  0  0  0  0  0  0  0  0  0  0  0
   15.6210   -6.8734  -10.5592 C   0  0  0  0  0  0  0  0  0  0  0  0
   14.5367   -6.6589  -11.1567 O   0  0  0  0  0  0  0  0  0  0  0  0
   15.8246   -6.0424   -9.3935 N   0  0  0  0  0  0  0  0  0  0  0  0
   14.8942   -5.0098   -8.9925 C   0  0  1  0  0  0  0  0  0  0  0  0
   14.6485   -5.0412   -7.4974 C   0  0  0  0  0  0  0  0  0  0  0  0
   13.7131   -3.9716   -7.0293 C   0  0  0  0  0  0  0  0  0  0  0  0
   13.5303   -3.9394   -5.5301 C   0  0  0  0  0  0  0  0  0  0  0  0
   12.5658   -2.8307   -5.1375 C   0  0  0  0  0  0  0  0  0  0  0  0
   12.3267   -2.9214   -3.7113 N   0  0  0  0  0  0  0  0  0  0  0  0
   15.5247   -3.6947   -9.2747 C   0  0  0  0  0  0  0  0  0  0  0  0
   14.7224   -2.5814   -9.4756 O   0  0  0  0  0  0  0  0  0  0  0  0
   16.7735   -3.5433   -9.3407 O   0  0  0  0  0  0  0  0  0  0  0  0
  2  1  1  6
  3  2  1  0
  4  5  1  0
  4  2  1  0
  5  6  1  1
  7  5  1  0
  7  8  2  0
  9  7  1  0
 10  9  1  0
 10 11  1  6
 12 11  1  0
 12 13  1  0
 14 13  1  0
 15 14  1  0
 16 10  1  0
 17 16  2  0
 18 16  1  0
 19 18  1  0
 19 20  1  1
 20 21  1  0
 21 22  1  0
 22 23  1  0
 23 24  1  0
 25 19  1  0
 26 25  1  0
 27 25  2  0
M  END
$$$$
