LKK.pdb
     RDKit          3D

 27 26  0  0  1  0  0  0  0  0999 V2000
   23.3820  -13.8374  -20.5512 C   0  0  0  0  0  0  0  0  0  0  0  0
   23.8788  -15.1415  -21.0694 C   0  0  2  0  0  0  0  0  0  0  0  0
   23.3410  -15.2954  -22.5007 C   0  0  0  0  0  0  0  0  0  0  0  0
   23.4596  -16.3544  -20.3323 C   0  0  0  0  0  0  0  0  0  0  0  0
   23.7718  -16.4118  -18.8751 C   0  0  2  0  0  0  0  0  0  0  0  0
   25.1408  -16.3421  -18.5101 N   0  0  0  0  0  0  0  0  0  0  0  0
   23.1078  -17.5393  -18.1808 C   0  0  0  0  0  0  0  0  0  0  0  0
   22.0124  -18.0109  -18.5879 O   0  0  0  0  0  0  0  0  0  0  0  0
   23.7082  -18.0956  -17.0455 N   0  0  0  0  0  0  0  0  0  0  0  0
   23.1394  -19.1798  -16.2577 C   0  0  1  0  0  0  0  0  0  0  0  0
   24.2404  -19.9753  -15.6071 C   0  0  0  0  0  0  0  0  0  0  0  0
   23.7477  -21.0602  -14.7197 C   0  0  0  0  0  0  0  0  0  0  0  0
   24.5456  -22.3497  -14.9329 C   0  0  0  0  0  0  0  0  0  0  0  0
   24.0306  -23.3752  -13.9486 C   0  0  0  0  0  0  0  0  0  0  0  0
   24.7155  -24.6435  -14.1066 N   0  0  0  0  0  0  0  0  0  0  0  0
   22.1823  -18.6224  -15.2954 C   0  0  0  0  0  0  0  0  0  0  0  0
   22.4810  -17.7779  -14.4144 O   0  0  0  0  0  0  0  0  0  0  0  0
   20.7899  -19.0123  -15.2884 N   0  0  0  0  0  0  0  0  0  0  0  0
   19.8242  -18.4606  -14.3635 C   0  0  1  0  0  0  0  0  0  0  0  0
   18.4097  -18.6252  -14.8819 C   0  0  0  0  0  0  0  0  0  0  0  0
   17.3762  -18.0265  -13.9809 C   0  0  0  0  0  0  0  0  0  0  0  0
   15.9578  -18.2637  -14.4434 C   0  0  0  0  0  0  0  0  0  0  0  0
   14.9708  -17.6508  -13.4615 C   0  0  0  0  0  0  0  0  0  0  0  0
   13.6321  -18.0229  -13.8723 N   0  0  0  0  0  0  0  0  0  0  0  0
   19.8931  -19.2517  -13.1080 C   0  0  0  0  0  0  0  0  0  0  0  0
   19.7339  -18.6120  -11.8878 O   0  0  0  0  0  0  0  0  0  0  0  0
   20.0925  -20.4955  -13.1021 O   0  0  0  0  0  0  0  0  0  0  0  0
  2  1  1  1
  3  2  1  0
  4  5  1  0
  4  2  1  0
  5  6  1  6
  7  5  1  0
  7  8  2  0
  9  7  1  0
 10  9  1  0
 10 11  1  1
 12 11  1  0
 12 13  1  0
 14 13  1  0
 15 14  1  0
 16 10  1  0
 17 16  2  0
 18 16  1  0
 19 18  1  0
 19 20  1  6
 20 21  1  0
 21 22  1  0
 22 23  1  0
 23 24  1  0
 25 19  1  0
 26 25  1  0
 27 25  2  0
M  END
$$$$
