LKK.pdb
     RDKit          3D

 27 26  0  0  1  0  0  0  0  0999 V2000
   33.1091  -26.1705  -21.6492 C   0  0  0  0  0  0  0  0  0  0  0  0
   34.0281  -27.1558  -21.0161 C   0  0  2  0  0  0  0  0  0  0  0  0
   35.0624  -27.5590  -22.0786 C   0  0  0  0  0  0  0  0  0  0  0  0
   33.4209  -28.4128  -20.5249 C   0  0  0  0  0  0  0  0  0  0  0  0
   32.2884  -28.2951  -19.5615 C   0  0  2  0  0  0  0  0  0  0  0  0
   32.5917  -27.7750  -18.2771 N   0  0  0  0  0  0  0  0  0  0  0  0
   31.4935  -29.5392  -19.4417 C   0  0  0  0  0  0  0  0  0  0  0  0
   31.0148  -30.1158  -20.4548 O   0  0  0  0  0  0  0  0  0  0  0  0
   31.2667  -30.0896  -18.1750 N   0  0  0  0  0  0  0  0  0  0  0  0
   30.5308  -31.3215  -17.9294 C   0  0  1  0  0  0  0  0  0  0  0  0
   31.4452  -32.3556  -17.3272 C   0  0  0  0  0  0  0  0  0  0  0  0
   30.7646  -33.6348  -16.9992 C   0  0  0  0  0  0  0  0  0  0  0  0
   31.7562  -34.6557  -16.4339 C   0  0  0  0  0  0  0  0  0  0  0  0
   31.0024  -35.9451  -16.1993 C   0  0  0  0  0  0  0  0  0  0  0  0
   31.8570  -36.9496  -15.5966 N   0  0  0  0  0  0  0  0  0  0  0  0
   29.3633  -31.0239  -17.0920 C   0  0  0  0  0  0  0  0  0  0  0  0
   29.4291  -30.4887  -15.9573 O   0  0  0  0  0  0  0  0  0  0  0  0
   28.0168  -31.3317  -17.5200 N   0  0  0  0  0  0  0  0  0  0  0  0
   26.8475  -30.9959  -16.7372 C   0  0  1  0  0  0  0  0  0  0  0  0
   25.7040  -30.5435  -17.6228 C   0  0  0  0  0  0  0  0  0  0  0  0
   24.4575  -30.2215  -16.8607 C   0  0  0  0  0  0  0  0  0  0  0  0
   23.2771  -29.8877  -17.7422 C   0  0  0  0  0  0  0  0  0  0  0  0
   22.0419  -29.6211  -16.8953 C   0  0  0  0  0  0  0  0  0  0  0  0
   20.9317  -29.3489  -17.7856 N   0  0  0  0  0  0  0  0  0  0  0  0
   26.3780  -32.2353  -16.0662 C   0  0  0  0  0  0  0  0  0  0  0  0
   25.9074  -32.1705  -14.7632 O   0  0  0  0  0  0  0  0  0  0  0  0
   26.3884  -33.3588  -16.6360 O   0  0  0  0  0  0  0  0  0  0  0  0
  2  1  1  6
  3  2  1  0
  4  5  1  0
  4  2  1  0
  5  6  1  1
  7  5  1  0
  7  8  2  0
  9  7  1  0
 10  9  1  0
 10 11  1  1
 12 11  1  0
 12 13  1  0
 14 13  1  0
 15 14  1  0
 16 10  1  0
 17 16  2  0
 18 16  1  0
 19 18  1  0
 19 20  1  6
 20 21  1  0
 21 22  1  0
 22 23  1  0
 23 24  1  0
 25 19  1  0
 26 25  1  0
 27 25  2  0
M  END
$$$$
