LKK.pdb
     RDKit          3D

 27 26  0  0  1  0  0  0  0  0999 V2000
   29.0291  -21.7969   -7.4713 C   0  0  0  0  0  0  0  0  0  0  0  0
   28.3992  -20.4903   -7.8062 C   0  0  2  0  0  0  0  0  0  0  0  0
   27.9345  -19.8588   -6.4845 C   0  0  0  0  0  0  0  0  0  0  0  0
   27.2134  -20.5300   -8.6907 C   0  0  0  0  0  0  0  0  0  0  0  0
   27.4090  -21.0500  -10.0748 C   0  0  2  0  0  0  0  0  0  0  0  0
   28.6952  -20.8778  -10.6478 N   0  0  0  0  0  0  0  0  0  0  0  0
   26.3580  -20.6045  -11.0187 C   0  0  0  0  0  0  0  0  0  0  0  0
   25.7129  -19.5383  -10.8316 O   0  0  0  0  0  0  0  0  0  0  0  0
   26.0720  -21.3840  -12.1454 N   0  0  0  0  0  0  0  0  0  0  0  0
   25.1701  -20.9871  -13.2171 C   0  0  1  0  0  0  0  0  0  0  0  0
   25.9092  -20.9636  -14.5291 C   0  0  0  0  0  0  0  0  0  0  0  0
   25.0492  -20.6239  -15.6919 C   0  0  0  0  0  0  0  0  0  0  0  0
   25.1890  -19.1455  -16.0657 C   0  0  0  0  0  0  0  0  0  0  0  0
   24.2497  -18.8737  -17.2188 C   0  0  0  0  0  0  0  0  0  0  0  0
   24.3648  -17.5026  -17.6765 N   0  0  0  0  0  0  0  0  0  0  0  0
   24.0089  -21.8839  -13.2235 C   0  0  0  0  0  0  0  0  0  0  0  0
   24.0851  -23.1348  -13.1335 O   0  0  0  0  0  0  0  0  0  0  0  0
   22.6569  -21.3837  -13.3366 N   0  0  0  0  0  0  0  0  0  0  0  0
   21.4937  -22.2408  -13.2676 C   0  0  1  0  0  0  0  0  0  0  0  0
   20.2736  -21.4755  -12.7960 C   0  0  0  0  0  0  0  0  0  0  0  0
   19.0502  -22.3282  -12.6769 C   0  0  0  0  0  0  0  0  0  0  0  0
   17.8239  -21.5698  -12.2263 C   0  0  0  0  0  0  0  0  0  0  0  0
   16.6717  -22.5294  -11.9702 C   0  0  0  0  0  0  0  0  0  0  0  0
   15.5399  -21.7617  -11.4918 N   0  0  0  0  0  0  0  0  0  0  0  0
   21.1816  -22.6962  -14.6467 C   0  0  0  0  0  0  0  0  0  0  0  0
   20.5936  -23.9373  -14.8398 O   0  0  0  0  0  0  0  0  0  0  0  0
   21.4307  -21.9952  -15.6634 O   0  0  0  0  0  0  0  0  0  0  0  0
  2  1  1  1
  3  2  1  0
  4  5  1  0
  4  2  1  0
  5  6  1  6
  7  5  1  0
  7  8  2  0
  9  7  1  0
 10  9  1  0
 10 11  1  6
 12 11  1  0
 12 13  1  0
 14 13  1  0
 15 14  1  0
 16 10  1  0
 17 16  2  0
 18 16  1  0
 19 18  1  0
 19 20  1  6
 20 21  1  0
 21 22  1  0
 22 23  1  0
 23 24  1  0
 25 19  1  0
 26 25  1  0
 27 25  2  0
M  END
$$$$
