LKK.pdb
     RDKit          3D

 27 26  0  0  1  0  0  0  0  0999 V2000
   34.9387  -33.0697  -18.7671 C   0  0  0  0  0  0  0  0  0  0  0  0
   34.4059  -31.6984  -18.9950 C   0  0  2  0  0  0  0  0  0  0  0  0
   35.5940  -30.7285  -18.8995 C   0  0  0  0  0  0  0  0  0  0  0  0
   33.3896  -31.2110  -18.0361 C   0  0  0  0  0  0  0  0  0  0  0  0
   32.1506  -32.0261  -17.8786 C   0  0  2  0  0  0  0  0  0  0  0  0
   31.3497  -32.2042  -19.0358 N   0  0  0  0  0  0  0  0  0  0  0  0
   31.3153  -31.6012  -16.7315 C   0  0  0  0  0  0  0  0  0  0  0  0
   31.8172  -31.3789  -15.5971 O   0  0  0  0  0  0  0  0  0  0  0  0
   29.9360  -31.4423  -16.9082 N   0  0  0  0  0  0  0  0  0  0  0  0
   29.0179  -30.9865  -15.8744 C   0  0  1  0  0  0  0  0  0  0  0  0
   28.3235  -29.7272  -16.3220 C   0  0  0  0  0  0  0  0  0  0  0  0
   27.4610  -29.9145  -17.5170 C   0  0  0  0  0  0  0  0  0  0  0  0
   26.8786  -28.5793  -17.9892 C   0  0  0  0  0  0  0  0  0  0  0  0
   25.9561  -28.8674  -19.1518 C   0  0  0  0  0  0  0  0  0  0  0  0
   25.4174  -27.6421  -19.7096 N   0  0  0  0  0  0  0  0  0  0  0  0
   28.0890  -32.0733  -15.5447 C   0  0  0  0  0  0  0  0  0  0  0  0
   27.6425  -32.8960  -16.3828 O   0  0  0  0  0  0  0  0  0  0  0  0
   27.6058  -32.2844  -14.1983 N   0  0  0  0  0  0  0  0  0  0  0  0
   26.6870  -33.3462  -13.8507 C   0  0  1  0  0  0  0  0  0  0  0  0
   26.2040  -33.2096  -12.4208 C   0  0  0  0  0  0  0  0  0  0  0  0
   25.3328  -34.3432  -11.9800 C   0  0  0  0  0  0  0  0  0  0  0  0
   24.8778  -34.2352  -10.5436 C   0  0  0  0  0  0  0  0  0  0  0  0
   26.0756  -34.2466   -9.6060 C   0  0  0  0  0  0  0  0  0  0  0  0
   25.5849  -34.3076   -8.2440 N   0  0  0  0  0  0  0  0  0  0  0  0
   25.4800  -33.2011  -14.7045 C   0  0  0  0  0  0  0  0  0  0  0  0
   24.8252  -34.3355  -15.1602 O   0  0  0  0  0  0  0  0  0  0  0  0
   25.0182  -32.0776  -15.0379 O   0  0  0  0  0  0  0  0  0  0  0  0
  2  1  1  1
  3  2  1  0
  4  5  1  0
  4  2  1  0
  5  6  1  6
  7  5  1  0
  7  8  2  0
  9  7  1  0
 10  9  1  0
 10 11  1  6
 12 11  1  0
 12 13  1  0
 14 13  1  0
 15 14  1  0
 16 10  1  0
 17 16  2  0
 18 16  1  0
 19 18  1  0
 19 20  1  1
 20 21  1  0
 21 22  1  0
 22 23  1  0
 23 24  1  0
 25 19  1  0
 26 25  1  0
 27 25  2  0
M  END
$$$$
