LKK.pdb
     RDKit          3D

 27 26  0  0  1  0  0  0  0  0999 V2000
   12.6040  -11.7084  -11.8663 C   0  0  0  0  0  0  0  0  0  0  0  0
   13.0972  -11.9333  -10.4798 C   0  0  2  0  0  0  0  0  0  0  0  0
   11.8693  -11.9314   -9.5558 C   0  0  0  0  0  0  0  0  0  0  0  0
   14.0331  -10.9252   -9.9342 C   0  0  0  0  0  0  0  0  0  0  0  0
   15.3199  -10.7221  -10.6604 C   0  0  2  0  0  0  0  0  0  0  0  0
   16.1869  -11.8410  -10.7526 N   0  0  0  0  0  0  0  0  0  0  0  0
   16.0648   -9.5263  -10.2029 C   0  0  0  0  0  0  0  0  0  0  0  0
   16.6518   -9.5021   -9.0880 O   0  0  0  0  0  0  0  0  0  0  0  0
   16.1196   -8.3952  -11.0254 N   0  0  0  0  0  0  0  0  0  0  0  0
   16.7342   -7.1300  -10.6501 C   0  0  1  0  0  0  0  0  0  0  0  0
   17.5863   -6.6166  -11.7809 C   0  0  0  0  0  0  0  0  0  0  0  0
   18.8381   -7.3907  -11.9833 C   0  0  0  0  0  0  0  0  0  0  0  0
   19.7358   -6.7208  -13.0274 C   0  0  0  0  0  0  0  0  0  0  0  0
   20.9914   -7.5534  -13.1539 C   0  0  0  0  0  0  0  0  0  0  0  0
   21.9308   -6.9480  -14.0779 N   0  0  0  0  0  0  0  0  0  0  0  0
   15.6846   -6.1889  -10.2434 C   0  0  0  0  0  0  0  0  0  0  0  0
   14.5735   -6.0818  -10.8199 O   0  0  0  0  0  0  0  0  0  0  0  0
   15.8542   -5.2923   -9.1217 N   0  0  0  0  0  0  0  0  0  0  0  0
   14.8539   -4.3221   -8.7332 C   0  0  1  0  0  0  0  0  0  0  0  0
   14.4968   -4.4573   -7.2666 C   0  0  0  0  0  0  0  0  0  0  0  0
   13.5121   -3.4319   -6.8008 C   0  0  0  0  0  0  0  0  0  0  0  0
   13.1781   -3.5355   -5.3312 C   0  0  0  0  0  0  0  0  0  0  0  0
   12.1631   -2.4714   -4.9421 C   0  0  0  0  0  0  0  0  0  0  0  0
   11.8864   -2.6048   -3.5261 N   0  0  0  0  0  0  0  0  0  0  0  0
   15.4490   -2.9694   -8.8850 C   0  0  0  0  0  0  0  0  0  0  0  0
   14.6169   -1.8656   -8.9964 O   0  0  0  0  0  0  0  0  0  0  0  0
   16.6936   -2.7776   -8.9176 O   0  0  0  0  0  0  0  0  0  0  0  0
  2  1  1  6
  3  2  1  0
  4  5  1  0
  4  2  1  0
  5  6  1  1
  7  5  1  0
  7  8  2  0
  9  7  1  0
 10  9  1  0
 10 11  1  6
 12 11  1  0
 12 13  1  0
 14 13  1  0
 15 14  1  0
 16 10  1  0
 17 16  2  0
 18 16  1  0
 19 18  1  0
 19 20  1  1
 20 21  1  0
 21 22  1  0
 22 23  1  0
 23 24  1  0
 25 19  1  0
 26 25  1  0
 27 25  2  0
M  END
$$$$
