LKK.pdb
     RDKit          3D

 27 26  0  0  1  0  0  0  0  0999 V2000
   28.6091  -13.0985  -15.4775 C   0  0  0  0  0  0  0  0  0  0  0  0
   28.1391  -13.0846  -16.8900 C   0  0  2  0  0  0  0  0  0  0  0  0
   29.3071  -12.5800  -17.7517 C   0  0  0  0  0  0  0  0  0  0  0  0
   26.9840  -12.2126  -17.1989 C   0  0  0  0  0  0  0  0  0  0  0  0
   25.7440  -12.4082  -16.3934 C   0  0  2  0  0  0  0  0  0  0  0  0
   25.2421  -13.7318  -16.3017 N   0  0  0  0  0  0  0  0  0  0  0  0
   24.6591  -11.4672  -16.7559 C   0  0  0  0  0  0  0  0  0  0  0  0
   24.8837  -10.2406  -16.9377 O   0  0  0  0  0  0  0  0  0  0  0  0
   23.3527  -11.9484  -16.9003 N   0  0  0  0  0  0  0  0  0  0  0  0
   22.2280  -11.1551  -17.3748 C   0  0  1  0  0  0  0  0  0  0  0  0
   21.0217  -12.0362  -17.5667 C   0  0  0  0  0  0  0  0  0  0  0  0
   19.8147  -11.3025  -18.0272 C   0  0  0  0  0  0  0  0  0  0  0  0
   18.8293  -12.2467  -18.7218 C   0  0  0  0  0  0  0  0  0  0  0  0
   17.6518  -11.4196  -19.1856 C   0  0  0  0  0  0  0  0  0  0  0  0
   16.6160  -12.2574  -19.7583 N   0  0  0  0  0  0  0  0  0  0  0  0
   21.9932  -10.0487  -16.4402 C   0  0  0  0  0  0  0  0  0  0  0  0
   21.9122  -10.1853  -15.1939 O   0  0  0  0  0  0  0  0  0  0  0  0
   21.8337   -8.6850  -16.8940 N   0  0  0  0  0  0  0  0  0  0  0  0
   21.6810   -7.5681  -15.9875 C   0  0  1  0  0  0  0  0  0  0  0  0
   22.0835   -6.2648  -16.6478 C   0  0  0  0  0  0  0  0  0  0  0  0
   21.9411   -5.0776  -15.7486 C   0  0  0  0  0  0  0  0  0  0  0  0
   22.5142   -3.8057  -16.3282 C   0  0  0  0  0  0  0  0  0  0  0  0
   22.4106   -2.6707  -15.3207 C   0  0  0  0  0  0  0  0  0  0  0  0
   23.0766   -1.5096  -15.8756 N   0  0  0  0  0  0  0  0  0  0  0  0
   20.2362   -7.4348  -15.6690 C   0  0  0  0  0  0  0  0  0  0  0  0
   19.2933   -7.9603  -16.5397 O   0  0  0  0  0  0  0  0  0  0  0  0
   19.8232   -6.8575  -14.6283 O   0  0  0  0  0  0  0  0  0  0  0  0
  2  1  1  1
  3  2  1  0
  4  5  1  0
  4  2  1  0
  5  6  1  6
  7  5  1  0
  7  8  2  0
  9  7  1  0
 10  9  1  0
 10 11  1  1
 12 11  1  0
 12 13  1  0
 14 13  1  0
 15 14  1  0
 16 10  1  0
 17 16  2  0
 18 16  1  0
 19 18  1  0
 19 20  1  6
 20 21  1  0
 21 22  1  0
 22 23  1  0
 23 24  1  0
 25 19  1  0
 26 25  1  0
 27 25  2  0
M  END
$$$$
