LKK.pdb
     RDKit          3D

 27 26  0  0  1  0  0  0  0  0999 V2000
   27.0357  -28.1382  -17.5754 C   0  0  0  0  0  0  0  0  0  0  0  0
   27.9742  -27.1176  -17.0335 C   0  0  2  0  0  0  0  0  0  0  0  0
   28.8878  -27.8315  -16.0250 C   0  0  0  0  0  0  0  0  0  0  0  0
   27.3710  -25.9732  -16.3147 C   0  0  0  0  0  0  0  0  0  0  0  0
   26.4211  -25.1110  -17.0753 C   0  0  2  0  0  0  0  0  0  0  0  0
   26.8752  -24.5992  -18.3179 N   0  0  0  0  0  0  0  0  0  0  0  0
   25.8312  -24.0284  -16.2541 C   0  0  0  0  0  0  0  0  0  0  0  0
   25.3449  -24.2562  -15.1141 O   0  0  0  0  0  0  0  0  0  0  0  0
   25.8116  -22.7211  -16.7534 N   0  0  0  0  0  0  0  0  0  0  0  0
   25.3705  -21.5558  -16.0003 C   0  0  1  0  0  0  0  0  0  0  0  0
   25.9238  -20.3012  -16.6232 C   0  0  0  0  0  0  0  0  0  0  0  0
   25.4413  -19.0527  -15.9786 C   0  0  0  0  0  0  0  0  0  0  0  0
   26.6014  -18.0909  -15.7064 C   0  0  0  0  0  0  0  0  0  0  0  0
   27.2842  -17.8115  -17.0261 C   0  0  0  0  0  0  0  0  0  0  0  0
   28.4741  -17.0041  -16.8400 N   0  0  0  0  0  0  0  0  0  0  0  0
   23.9056  -21.5637  -15.9189 C   0  0  0  0  0  0  0  0  0  0  0  0
   23.1453  -21.5981  -16.9186 O   0  0  0  0  0  0  0  0  0  0  0  0
   23.2098  -21.5317  -14.6517 N   0  0  0  0  0  0  0  0  0  0  0  0
   21.7676  -21.5673  -14.5462 C   0  0  1  0  0  0  0  0  0  0  0  0
   21.3256  -22.2918  -13.2906 C   0  0  0  0  0  0  0  0  0  0  0  0
   19.8387  -22.3776  -13.1497 C   0  0  0  0  0  0  0  0  0  0  0  0
   19.3883  -23.1953  -11.9620 C   0  0  0  0  0  0  0  0  0  0  0  0
   17.8698  -23.2742  -11.9182 C   0  0  0  0  0  0  0  0  0  0  0  0
   17.4859  -23.9507  -10.6958 N   0  0  0  0  0  0  0  0  0  0  0  0
   21.2874  -20.1691  -14.4007 C   0  0  0  0  0  0  0  0  0  0  0  0
   22.1496  -19.1977  -13.9144 O   0  0  0  0  0  0  0  0  0  0  0  0
   20.1151  -19.8213  -14.7036 O   0  0  0  0  0  0  0  0  0  0  0  0
  2  1  1  1
  3  2  1  0
  4  5  1  0
  4  2  1  0
  5  6  1  6
  7  5  1  0
  7  8  2  0
  9  7  1  0
 10  9  1  0
 10 11  1  6
 12 11  1  0
 12 13  1  0
 14 13  1  0
 15 14  1  0
 16 10  1  0
 17 16  2  0
 18 16  1  0
 19 18  1  0
 19 20  1  1
 20 21  1  0
 21 22  1  0
 22 23  1  0
 23 24  1  0
 25 19  1  0
 26 25  1  0
 27 25  2  0
M  END
$$$$
