LKK.pdb
     RDKit          3D

 27 26  0  0  1  0  0  0  0  0999 V2000
   21.5845  -18.0346  -17.6521 C   0  0  0  0  0  0  0  0  0  0  0  0
   21.7759  -19.3547  -18.3131 C   0  0  2  0  0  0  0  0  0  0  0  0
   20.3971  -20.0293  -18.3863 C   0  0  0  0  0  0  0  0  0  0  0  0
   22.6759  -20.3144  -17.6357 C   0  0  0  0  0  0  0  0  0  0  0  0
   24.0591  -19.8521  -17.3233 C   0  0  2  0  0  0  0  0  0  0  0  0
   24.9778  -19.8051  -18.4031 N   0  0  0  0  0  0  0  0  0  0  0  0
   24.6591  -20.5509  -16.1633 C   0  0  0  0  0  0  0  0  0  0  0  0
   24.0083  -21.3988  -15.4957 O   0  0  0  0  0  0  0  0  0  0  0  0
   25.9794  -20.2648  -15.7972 N   0  0  0  0  0  0  0  0  0  0  0  0
   26.6987  -20.9253  -14.7175 C   0  0  1  0  0  0  0  0  0  0  0  0
   28.1827  -20.8372  -14.9588 C   0  0  0  0  0  0  0  0  0  0  0  0
   28.7587  -22.0560  -15.5832 C   0  0  0  0  0  0  0  0  0  0  0  0
   30.2164  -21.8272  -15.9929 C   0  0  0  0  0  0  0  0  0  0  0  0
   30.7626  -23.1438  -16.4969 C   0  0  0  0  0  0  0  0  0  0  0  0
   31.1003  -24.0265  -15.3972 N   0  0  0  0  0  0  0  0  0  0  0  0
   26.2852  -20.3398  -13.4372 C   0  0  0  0  0  0  0  0  0  0  0  0
   26.2750  -19.1065  -13.1979 O   0  0  0  0  0  0  0  0  0  0  0  0
   25.8478  -21.1579  -12.3280 N   0  0  0  0  0  0  0  0  0  0  0  0
   25.4245  -20.6025  -11.0611 C   0  0  1  0  0  0  0  0  0  0  0  0
   24.0183  -21.0445  -10.7092 C   0  0  0  0  0  0  0  0  0  0  0  0
   22.9654  -20.0827  -11.1615 C   0  0  0  0  0  0  0  0  0  0  0  0
   21.5558  -20.5777  -10.9385 C   0  0  0  0  0  0  0  0  0  0  0  0
   20.5489  -19.5243  -11.3751 C   0  0  0  0  0  0  0  0  0  0  0  0
   19.5998  -20.1491  -12.2741 N   0  0  0  0  0  0  0  0  0  0  0  0
   26.3045  -21.1611  -10.0027 C   0  0  0  0  0  0  0  0  0  0  0  0
   26.2636  -20.6223   -8.7255 O   0  0  0  0  0  0  0  0  0  0  0  0
   27.0977  -22.1161  -10.2165 O   0  0  0  0  0  0  0  0  0  0  0  0
  2  1  1  1
  3  2  1  0
  4  5  1  0
  4  2  1  0
  5  6  1  6
  7  5  1  0
  7  8  2  0
  9  7  1  0
 10  9  1  0
 10 11  1  6
 12 11  1  0
 12 13  1  0
 14 13  1  0
 15 14  1  0
 16 10  1  0
 17 16  2  0
 18 16  1  0
 19 18  1  0
 19 20  1  1
 20 21  1  0
 21 22  1  0
 22 23  1  0
 23 24  1  0
 25 19  1  0
 26 25  1  0
 27 25  2  0
M  END
$$$$
