LKK.pdb
     RDKit          3D

 27 26  0  0  1  0  0  0  0  0999 V2000
   25.1334  -15.5983  -14.9998 C   0  0  0  0  0  0  0  0  0  0  0  0
   25.6637  -14.7031  -16.0645 C   0  0  2  0  0  0  0  0  0  0  0  0
   27.0182  -14.1680  -15.5740 C   0  0  0  0  0  0  0  0  0  0  0  0
   24.8454  -13.5188  -16.4076 C   0  0  0  0  0  0  0  0  0  0  0  0
   23.4108  -13.7518  -16.7423 C   0  0  2  0  0  0  0  0  0  0  0  0
   23.1356  -14.7166  -17.7451 N   0  0  0  0  0  0  0  0  0  0  0  0
   22.6639  -12.5007  -17.0089 C   0  0  0  0  0  0  0  0  0  0  0  0
   22.9761  -11.7369  -17.9614 O   0  0  0  0  0  0  0  0  0  0  0  0
   21.5861  -12.1558  -16.1853 N   0  0  0  0  0  0  0  0  0  0  0  0
   20.7215  -11.0036  -16.3958 C   0  0  1  0  0  0  0  0  0  0  0  0
   19.3136  -11.3334  -15.9747 C   0  0  0  0  0  0  0  0  0  0  0  0
   18.5903  -12.2010  -16.9397 C   0  0  0  0  0  0  0  0  0  0  0  0
   17.2123  -12.5940  -16.3997 C   0  0  0  0  0  0  0  0  0  0  0  0
   16.5631  -13.5028  -17.4187 C   0  0  0  0  0  0  0  0  0  0  0  0
   15.2023  -13.8290  -17.0385 N   0  0  0  0  0  0  0  0  0  0  0  0
   21.2815   -9.8477  -15.6865 C   0  0  0  0  0  0  0  0  0  0  0  0
   21.7615   -9.8987  -14.5265 O   0  0  0  0  0  0  0  0  0  0  0  0
   21.3242   -8.5314  -16.2834 N   0  0  0  0  0  0  0  0  0  0  0  0
   21.8943   -7.3830  -15.6134 C   0  0  1  0  0  0  0  0  0  0  0  0
   21.9523   -6.1813  -16.5348 C   0  0  0  0  0  0  0  0  0  0  0  0
   22.4695   -4.9473  -15.8656 C   0  0  0  0  0  0  0  0  0  0  0  0
   22.5340   -3.7446  -16.7774 C   0  0  0  0  0  0  0  0  0  0  0  0
   23.1128   -2.5486  -16.0368 C   0  0  0  0  0  0  0  0  0  0  0  0
   23.3631   -1.4961  -17.0006 N   0  0  0  0  0  0  0  0  0  0  0  0
   20.9813   -7.0033  -14.5048 C   0  0  0  0  0  0  0  0  0  0  0  0
   21.5130   -6.5562  -13.3045 O   0  0  0  0  0  0  0  0  0  0  0  0
   19.7276   -7.0703  -14.6078 O   0  0  0  0  0  0  0  0  0  0  0  0
  2  1  1  1
  3  2  1  0
  4  5  1  0
  4  2  1  0
  5  6  1  6
  7  5  1  0
  7  8  2  0
  9  7  1  0
 10  9  1  0
 10 11  1  1
 12 11  1  0
 12 13  1  0
 14 13  1  0
 15 14  1  0
 16 10  1  0
 17 16  2  0
 18 16  1  0
 19 18  1  0
 19 20  1  6
 20 21  1  0
 21 22  1  0
 22 23  1  0
 23 24  1  0
 25 19  1  0
 26 25  1  0
 27 25  2  0
M  END
$$$$
