LKK.pdb
     RDKit          3D

 27 26  0  0  1  0  0  0  0  0999 V2000
   22.9310  -14.3504  -19.7798 C   0  0  0  0  0  0  0  0  0  0  0  0
   21.5022  -14.7257  -19.5960 C   0  0  2  0  0  0  0  0  0  0  0  0
   21.0499  -15.4329  -20.8832 C   0  0  0  0  0  0  0  0  0  0  0  0
   20.5467  -13.6187  -19.3689 C   0  0  0  0  0  0  0  0  0  0  0  0
   20.8082  -12.7156  -18.2111 C   0  0  2  0  0  0  0  0  0  0  0  0
   20.8549  -13.3172  -16.9273 N   0  0  0  0  0  0  0  0  0  0  0  0
   19.9298  -11.5231  -18.1922 C   0  0  0  0  0  0  0  0  0  0  0  0
   19.7177  -10.8440  -19.2323 O   0  0  0  0  0  0  0  0  0  0  0  0
   19.3201  -11.1385  -16.9925 N   0  0  0  0  0  0  0  0  0  0  0  0
   18.3353  -10.0733  -16.8709 C   0  0  1  0  0  0  0  0  0  0  0  0
   17.3637  -10.3946  -15.7659 C   0  0  0  0  0  0  0  0  0  0  0  0
   16.0813  -10.9694  -16.2479 C   0  0  0  0  0  0  0  0  0  0  0  0
   15.1675  -11.3350  -15.0748 C   0  0  0  0  0  0  0  0  0  0  0  0
   13.8424  -11.7830  -15.6486 C   0  0  0  0  0  0  0  0  0  0  0  0
   12.9320  -12.2014  -14.6005 N   0  0  0  0  0  0  0  0  0  0  0  0
   19.0314   -8.7965  -16.6757 C   0  0  0  0  0  0  0  0  0  0  0  0
   19.9279   -8.6080  -15.8158 O   0  0  0  0  0  0  0  0  0  0  0  0
   18.7310   -7.6313  -17.4773 N   0  0  0  0  0  0  0  0  0  0  0  0
   19.4829   -6.3989  -17.3849 C   0  0  1  0  0  0  0  0  0  0  0  0
   19.1624   -5.4710  -18.5395 C   0  0  0  0  0  0  0  0  0  0  0  0
   19.9631   -5.7595  -19.7698 C   0  0  0  0  0  0  0  0  0  0  0  0
   19.6347   -4.8536  -20.9333 C   0  0  0  0  0  0  0  0  0  0  0  0
   20.3945   -5.2911  -22.1764 C   0  0  0  0  0  0  0  0  0  0  0  0
   19.9314   -4.4946  -23.2947 N   0  0  0  0  0  0  0  0  0  0  0  0
   19.0430   -5.6886  -16.1566 C   0  0  0  0  0  0  0  0  0  0  0  0
   19.9431   -4.8853  -15.4725 O   0  0  0  0  0  0  0  0  0  0  0  0
   17.8721   -5.7846  -15.7021 O   0  0  0  0  0  0  0  0  0  0  0  0
  2  1  1  6
  3  2  1  0
  4  5  1  0
  4  2  1  0
  5  6  1  1
  7  5  1  0
  7  8  2  0
  9  7  1  0
 10  9  1  0
 10 11  1  1
 12 11  1  0
 12 13  1  0
 14 13  1  0
 15 14  1  0
 16 10  1  0
 17 16  2  0
 18 16  1  0
 19 18  1  0
 19 20  1  6
 20 21  1  0
 21 22  1  0
 22 23  1  0
 23 24  1  0
 25 19  1  0
 26 25  1  0
 27 25  2  0
M  END
$$$$
