LKK.pdb
     RDKit          3D

 27 26  0  0  1  0  0  0  0  0999 V2000
   25.4842  -16.3947  -22.0942 C   0  0  0  0  0  0  0  0  0  0  0  0
   25.8687  -17.2740  -20.9562 C   0  0  2  0  0  0  0  0  0  0  0  0
   26.5331  -18.5244  -21.5534 C   0  0  0  0  0  0  0  0  0  0  0  0
   24.7721  -17.7572  -20.0879 C   0  0  0  0  0  0  0  0  0  0  0  0
   23.9021  -16.7287  -19.4478 C   0  0  2  0  0  0  0  0  0  0  0  0
   24.5454  -15.7656  -18.6287 N   0  0  0  0  0  0  0  0  0  0  0  0
   22.7343  -17.3088  -18.7449 C   0  0  0  0  0  0  0  0  0  0  0  0
   22.1634  -18.3509  -19.1644 O   0  0  0  0  0  0  0  0  0  0  0  0
   22.2511  -16.6870  -17.5879 N   0  0  0  0  0  0  0  0  0  0  0  0
   21.0796  -17.1249  -16.8427 C   0  0  1  0  0  0  0  0  0  0  0  0
   21.1417  -16.6008  -15.4322 C   0  0  0  0  0  0  0  0  0  0  0  0
   20.0284  -17.0749  -14.5703 C   0  0  0  0  0  0  0  0  0  0  0  0
   19.8032  -18.5799  -14.7415 C   0  0  0  0  0  0  0  0  0  0  0  0
   18.6216  -18.9671  -13.8815 C   0  0  0  0  0  0  0  0  0  0  0  0
   18.3409  -20.3860  -13.9847 N   0  0  0  0  0  0  0  0  0  0  0  0
   19.8704  -16.7083  -17.5618 C   0  0  0  0  0  0  0  0  0  0  0  0
   19.6380  -15.5276  -17.9229 O   0  0  0  0  0  0  0  0  0  0  0  0
   18.8303  -17.6477  -17.9174 N   0  0  0  0  0  0  0  0  0  0  0  0
   17.6642  -17.2743  -18.6878 C   0  0  1  0  0  0  0  0  0  0  0  0
   17.1741  -18.4288  -19.5384 C   0  0  0  0  0  0  0  0  0  0  0  0
   16.0796  -18.0444  -20.4831 C   0  0  0  0  0  0  0  0  0  0  0  0
   15.6039  -19.1824  -21.3553 C   0  0  0  0  0  0  0  0  0  0  0  0
   14.5480  -18.6935  -22.3351 C   0  0  0  0  0  0  0  0  0  0  0  0
   14.1344  -19.8155  -23.1534 N   0  0  0  0  0  0  0  0  0  0  0  0
   16.5654  -16.9751  -17.7340 C   0  0  0  0  0  0  0  0  0  0  0  0
   15.5246  -16.1477  -18.1285 O   0  0  0  0  0  0  0  0  0  0  0  0
   16.5363  -17.4460  -16.5660 O   0  0  0  0  0  0  0  0  0  0  0  0
  2  1  1  6
  3  2  1  0
  4  5  1  0
  4  2  1  0
  5  6  1  1
  7  5  1  0
  7  8  2  0
  9  7  1  0
 10  9  1  0
 10 11  1  1
 12 11  1  0
 12 13  1  0
 14 13  1  0
 15 14  1  0
 16 10  1  0
 17 16  2  0
 18 16  1  0
 19 18  1  0
 19 20  1  6
 20 21  1  0
 21 22  1  0
 22 23  1  0
 23 24  1  0
 25 19  1  0
 26 25  1  0
 27 25  2  0
M  END
$$$$
