LKK.pdb
     RDKit          3D

 27 26  0  0  1  0  0  0  0  0999 V2000
   28.8588  -21.7426  -10.9556 C   0  0  0  0  0  0  0  0  0  0  0  0
   28.4066  -20.4331  -11.5006 C   0  0  2  0  0  0  0  0  0  0  0  0
   29.0455  -19.3364  -10.6343 C   0  0  0  0  0  0  0  0  0  0  0  0
   26.9492  -20.1762  -11.4932 C   0  0  0  0  0  0  0  0  0  0  0  0
   26.0849  -21.1147  -12.2657 C   0  0  2  0  0  0  0  0  0  0  0  0
   26.5129  -21.4478  -13.5765 N   0  0  0  0  0  0  0  0  0  0  0  0
   24.6571  -20.7207  -12.2720 C   0  0  0  0  0  0  0  0  0  0  0  0
   24.0626  -20.3801  -11.2143 O   0  0  0  0  0  0  0  0  0  0  0  0
   23.9487  -20.7262  -13.4790 N   0  0  0  0  0  0  0  0  0  0  0  0
   22.5591  -20.3166  -13.6231 C   0  0  1  0  0  0  0  0  0  0  0  0
   22.3449  -19.6908  -14.9761 C   0  0  0  0  0  0  0  0  0  0  0  0
   20.9726  -19.1581  -15.1762 C   0  0  0  0  0  0  0  0  0  0  0  0
   20.8091  -18.5744  -16.5825 C   0  0  0  0  0  0  0  0  0  0  0  0
   19.4182  -17.9896  -16.6770 C   0  0  0  0  0  0  0  0  0  0  0  0
   19.2203  -17.3099  -17.9425 N   0  0  0  0  0  0  0  0  0  0  0  0
   21.6902  -21.4730  -13.3767 C   0  0  0  0  0  0  0  0  0  0  0  0
   21.8456  -22.5975  -13.9152 O   0  0  0  0  0  0  0  0  0  0  0  0
   20.5628  -21.4039  -12.4741 N   0  0  0  0  0  0  0  0  0  0  0  0
   19.8319  -22.5740  -12.0388 C   0  0  1  0  0  0  0  0  0  0  0  0
   19.6543  -22.5833  -10.5338 C   0  0  0  0  0  0  0  0  0  0  0  0
   18.9441  -23.7997  -10.0296 C   0  0  0  0  0  0  0  0  0  0  0  0
   18.6974  -23.7838   -8.5393 C   0  0  0  0  0  0  0  0  0  0  0  0
   17.9971  -25.0622   -8.1045 C   0  0  0  0  0  0  0  0  0  0  0  0
   17.8337  -25.0228   -6.6653 N   0  0  0  0  0  0  0  0  0  0  0  0
   18.4632  -22.4942  -12.6105 C   0  0  0  0  0  0  0  0  0  0  0  0
   17.7433  -23.6601  -12.8248 O   0  0  0  0  0  0  0  0  0  0  0  0
   17.9193  -21.3992  -12.9137 O   0  0  0  0  0  0  0  0  0  0  0  0
  2  1  1  1
  3  2  1  0
  4  5  1  0
  4  2  1  0
  5  6  1  6
  7  5  1  0
  7  8  2  0
  9  7  1  0
 10  9  1  0
 10 11  1  6
 12 11  1  0
 12 13  1  0
 14 13  1  0
 15 14  1  0
 16 10  1  0
 17 16  2  0
 18 16  1  0
 19 18  1  0
 19 20  1  1
 20 21  1  0
 21 22  1  0
 22 23  1  0
 23 24  1  0
 25 19  1  0
 26 25  1  0
 27 25  2  0
M  END
$$$$
