LKK.pdb
     RDKit          3D

 27 26  0  0  1  0  0  0  0  0999 V2000
   25.5050  -20.4409   -9.5025 C   0  0  0  0  0  0  0  0  0  0  0  0
   25.2169  -21.5889  -10.4054 C   0  0  2  0  0  0  0  0  0  0  0  0
   26.5546  -22.2904  -10.6880 C   0  0  0  0  0  0  0  0  0  0  0  0
   24.6263  -21.2674  -11.7237 C   0  0  0  0  0  0  0  0  0  0  0  0
   23.3634  -20.4741  -11.7328 C   0  0  2  0  0  0  0  0  0  0  0  0
   22.3129  -20.9328  -10.8973 N   0  0  0  0  0  0  0  0  0  0  0  0
   22.8572  -20.2001  -13.0977 C   0  0  0  0  0  0  0  0  0  0  0  0
   23.6411  -20.0177  -14.0673 O   0  0  0  0  0  0  0  0  0  0  0  0
   21.4764  -20.1412  -13.3187 N   0  0  0  0  0  0  0  0  0  0  0  0
   20.8527  -20.0630  -14.6319 C   0  0  1  0  0  0  0  0  0  0  0  0
   19.4521  -20.6130  -14.5697 C   0  0  0  0  0  0  0  0  0  0  0  0
   19.3944  -22.0628  -14.2507 C   0  0  0  0  0  0  0  0  0  0  0  0
   18.3904  -22.3391  -13.1279 C   0  0  0  0  0  0  0  0  0  0  0  0
   18.2561  -23.8388  -12.9921 C   0  0  0  0  0  0  0  0  0  0  0  0
   17.7972  -24.4381  -14.2301 N   0  0  0  0  0  0  0  0  0  0  0  0
   20.9089  -18.6762  -15.1076 C   0  0  0  0  0  0  0  0  0  0  0  0
   20.6369  -17.6767  -14.3967 O   0  0  0  0  0  0  0  0  0  0  0  0
   21.2906  -18.3475  -16.4630 N   0  0  0  0  0  0  0  0  0  0  0  0
   21.3809  -16.9869  -16.9459 C   0  0  1  0  0  0  0  0  0  0  0  0
   22.3750  -16.8718  -18.0839 C   0  0  0  0  0  0  0  0  0  0  0  0
   22.4575  -15.4937  -18.6600 C   0  0  0  0  0  0  0  0  0  0  0  0
   23.3608  -15.3939  -19.8667 C   0  0  0  0  0  0  0  0  0  0  0  0
   23.3300  -13.9839  -20.4367 C   0  0  0  0  0  0  0  0  0  0  0  0
   24.2268  -13.9345  -21.5735 N   0  0  0  0  0  0  0  0  0  0  0  0
   20.0607  -16.6189  -17.5188 C   0  0  0  0  0  0  0  0  0  0  0  0
   19.6849  -15.2848  -17.5674 O   0  0  0  0  0  0  0  0  0  0  0  0
   19.2556  -17.4768  -17.9690 O   0  0  0  0  0  0  0  0  0  0  0  0
  2  1  1  1
  3  2  1  0
  4  5  1  0
  4  2  1  0
  5  6  1  1
  7  5  1  0
  7  8  2  0
  9  7  1  0
 10  9  1  0
 10 11  1  1
 12 11  1  0
 12 13  1  0
 14 13  1  0
 15 14  1  0
 16 10  1  0
 17 16  2  0
 18 16  1  0
 19 18  1  0
 19 20  1  6
 20 21  1  0
 21 22  1  0
 22 23  1  0
 23 24  1  0
 25 19  1  0
 26 25  1  0
 27 25  2  0
M  END
$$$$
