EEY.pdb
     RDKit          3D

 31 31  0  0  1  0  0  0  0  0999 V2000
    9.5634  -16.3651   16.9600 N   0  0  0  0  0  0  0  0  0  0  0  0
    9.7824  -17.3638   17.9332 C   0  0  1  0  0  0  0  0  0  0  0  0
   11.1844  -17.7928   18.2021 C   0  0  0  0  0  0  0  0  0  0  0  0
   12.1562  -16.7643   18.6224 C   0  0  0  0  0  0  0  0  0  0  0  0
   13.5447  -17.2344   18.6719 C   0  0  0  0  0  0  0  0  0  0  0  0
   13.9416  -18.3756   18.3670 O   0  0  0  0  0  0  0  0  0  0  0  0
    9.1881  -17.0228   19.2803 C   0  0  0  0  0  0  0  0  0  0  0  0
    9.0606  -15.8202   19.6268 O   0  0  0  0  0  0  0  0  0  0  0  0
   14.5089  -16.3047   19.1044 O   0  0  0  0  0  0  0  0  0  0  0  0
    8.7549  -18.0081   20.2019 N   0  0  0  0  0  0  0  0  0  0  0  0
    7.9719  -17.6629   21.3895 C   0  0  1  0  0  0  0  0  0  0  0  0
    6.9856  -18.7356   21.7323 C   0  0  0  0  0  0  0  0  0  0  0  0
    5.5781  -18.4207   21.3242 C   0  0  0  0  0  0  0  0  0  0  0  0
    4.8107  -19.6934   21.3055 C   0  0  0  0  0  0  0  0  0  0  0  0
    5.1090  -20.6709   22.0515 O   0  0  0  0  0  0  0  0  0  0  0  0
    8.8957  -17.3156   22.4745 C   0  0  0  0  0  0  0  0  0  0  0  0
   10.0337  -17.8446   22.5882 O   0  0  0  0  0  0  0  0  0  0  0  0
    3.7216  -19.8763   20.4642 O   0  0  0  0  0  0  0  0  0  0  0  0
   11.0858  -13.9275   30.4146 O   0  0  0  0  0  0  0  0  0  0  0  0
   10.5431  -14.1570   29.1524 C   0  0  0  0  0  0  0  0  0  0  0  0
    9.1722  -14.1946   28.9908 C   0  0  0  0  0  0  0  0  0  0  0  0
    8.6376  -14.4219   27.7406 C   0  0  0  0  0  0  0  0  0  0  0  0
    9.4137  -14.6182   26.6176 C   0  0  0  0  0  0  0  0  0  0  0  0
    8.8805  -14.8685   25.2786 C   0  0  0  0  0  0  0  0  0  0  0  0
    9.3895  -16.1226   24.6248 C   0  0  2  0  0  0  0  0  0  0  0  0
    8.5466  -16.3528   23.4634 N   0  0  0  0  0  0  0  0  0  0  0  0
    9.3052  -17.2822   25.5157 C   0  0  0  0  0  0  0  0  0  0  0  0
   10.4413  -17.7381   26.2074 O   0  0  0  0  0  0  0  0  0  0  0  0
   10.7795  -14.5778   26.7958 C   0  0  0  0  0  0  0  0  0  0  0  0
   11.3344  -14.3506   28.0444 C   0  0  0  0  0  0  0  0  0  0  0  0
    8.1998  -17.8707   25.6567 O   0  0  0  0  0  0  0  0  0  0  0  0
  2  1  1  6
  2  3  1  0
  3  4  1  0
  4  5  1  0
  5  9  1  0
  6  5  2  0
  7  2  1  0
  8  7  2  0
 10  7  1  0
 11 10  1  0
 11 12  1  1
 13 12  1  0
 14 13  1  0
 14 15  2  0
 16 11  1  0
 16 26  1  0
 17 16  2  0
 18 14  1  0
 20 19  1  0
 21 20  2  0
 22 21  1  0
 23 29  1  0
 23 22  2  0
 24 23  1  0
 25 24  1  1
 25 26  1  0
 25 27  1  0
 27 28  1  0
 29 30  2  0
 30 20  1  0
 31 27  2  0
M  END
$$$$
