EEY.pdb
     RDKit          3D

 31 31  0  0  1  0  0  0  0  0999 V2000
    8.8028  -12.6955   18.9885 N   0  0  0  0  0  0  0  0  0  0  0  0
    7.9788  -13.8188   19.2164 C   0  0  1  0  0  0  0  0  0  0  0  0
    7.2182  -14.3821   18.0649 C   0  0  0  0  0  0  0  0  0  0  0  0
    7.9223  -14.5356   16.7766 C   0  0  0  0  0  0  0  0  0  0  0  0
    7.0768  -15.0314   15.6853 C   0  0  0  0  0  0  0  0  0  0  0  0
    5.8766  -15.3532   15.7786 O   0  0  0  0  0  0  0  0  0  0  0  0
    8.7177  -14.9835   19.8340 C   0  0  0  0  0  0  0  0  0  0  0  0
    8.0764  -15.9472   20.3266 O   0  0  0  0  0  0  0  0  0  0  0  0
    7.6857  -15.1509   14.4220 O   0  0  0  0  0  0  0  0  0  0  0  0
   10.1318  -15.0538   19.8925 N   0  0  0  0  0  0  0  0  0  0  0  0
   10.8227  -16.1572   20.5616 C   0  0  1  0  0  0  0  0  0  0  0  0
   11.9946  -16.6398   19.7649 C   0  0  0  0  0  0  0  0  0  0  0  0
   11.6184  -17.3756   18.5144 C   0  0  0  0  0  0  0  0  0  0  0  0
   12.5777  -18.4968   18.3362 C   0  0  0  0  0  0  0  0  0  0  0  0
   13.4906  -18.4695   17.4604 O   0  0  0  0  0  0  0  0  0  0  0  0
   11.1459  -15.7450   21.9317 C   0  0  0  0  0  0  0  0  0  0  0  0
   11.8152  -14.7080   22.1850 O   0  0  0  0  0  0  0  0  0  0  0  0
   12.5214  -19.6375   19.1255 O   0  0  0  0  0  0  0  0  0  0  0  0
   10.7498  -14.8570   30.6904 O   0  0  0  0  0  0  0  0  0  0  0  0
   10.5477  -15.0768   29.3298 C   0  0  0  0  0  0  0  0  0  0  0  0
   10.4083  -14.0021   28.4739 C   0  0  0  0  0  0  0  0  0  0  0  0
   10.2083  -14.2221   27.1278 C   0  0  0  0  0  0  0  0  0  0  0  0
   10.1382  -15.4844   26.5767 C   0  0  0  0  0  0  0  0  0  0  0  0
    9.9204  -15.7543   25.1556 C   0  0  0  0  0  0  0  0  0  0  0  0
   11.1493  -16.1794   24.4019 C   0  0  2  0  0  0  0  0  0  0  0  0
   10.7137  -16.5062   23.0544 N   0  0  0  0  0  0  0  0  0  0  0  0
   11.7831  -17.3569   24.9997 C   0  0  0  0  0  0  0  0  0  0  0  0
   12.8968  -17.2185   25.8466 O   0  0  0  0  0  0  0  0  0  0  0  0
   10.2790  -16.5459   27.4441 C   0  0  0  0  0  0  0  0  0  0  0  0
   10.4806  -16.3438   28.7995 C   0  0  0  0  0  0  0  0  0  0  0  0
   11.3190  -18.5008   24.7461 O   0  0  0  0  0  0  0  0  0  0  0  0
  2  1  1  6
  2  3  1  0
  3  4  1  0
  4  5  1  0
  5  9  1  0
  6  5  2  0
  7  2  1  0
  8  7  2  0
 10  7  1  0
 11 10  1  0
 11 12  1  6
 13 12  1  0
 14 13  1  0
 14 15  2  0
 16 11  1  0
 16 26  1  0
 17 16  2  0
 18 14  1  0
 20 19  1  0
 21 20  2  0
 22 21  1  0
 23 29  1  0
 23 22  2  0
 24 23  1  0
 25 24  1  1
 25 26  1  0
 25 27  1  0
 27 28  1  0
 29 30  2  0
 30 20  1  0
 31 27  2  0
M  END
$$$$
