EEY.pdb
     RDKit          3D

 31 31  0  0  1  0  0  0  0  0999 V2000
    8.9161  -14.3136   19.4320 N   0  0  0  0  0  0  0  0  0  0  0  0
    8.0901  -15.4025   19.7852 C   0  0  1  0  0  0  0  0  0  0  0  0
    7.6257  -16.3167   18.7033 C   0  0  0  0  0  0  0  0  0  0  0  0
    8.4116  -16.3702   17.4550 C   0  0  0  0  0  0  0  0  0  0  0  0
    7.9220  -17.3490   16.4783 C   0  0  0  0  0  0  0  0  0  0  0  0
    6.9246  -18.0831   16.6160 O   0  0  0  0  0  0  0  0  0  0  0  0
    8.6977  -16.2912   20.8458 C   0  0  0  0  0  0  0  0  0  0  0  0
    8.0254  -17.2321   21.3409 O   0  0  0  0  0  0  0  0  0  0  0  0
    8.6518  -17.4615   15.2802 O   0  0  0  0  0  0  0  0  0  0  0  0
   10.0188  -16.1198   21.3289 N   0  0  0  0  0  0  0  0  0  0  0  0
   10.5613  -16.9515   22.4043 C   0  0  1  0  0  0  0  0  0  0  0  0
   12.0562  -17.0134   22.3546 C   0  0  0  0  0  0  0  0  0  0  0  0
   12.5923  -17.9216   21.2893 C   0  0  0  0  0  0  0  0  0  0  0  0
   14.0748  -17.8158   21.3003 C   0  0  0  0  0  0  0  0  0  0  0  0
   14.6834  -16.8283   20.7947 O   0  0  0  0  0  0  0  0  0  0  0  0
   10.0133  -16.4818   23.6812 C   0  0  0  0  0  0  0  0  0  0  0  0
   10.0912  -15.2789   24.0481 O   0  0  0  0  0  0  0  0  0  0  0  0
   14.8722  -18.7998   21.8687 O   0  0  0  0  0  0  0  0  0  0  0  0
    6.5315  -10.8254   26.7184 O   0  0  0  0  0  0  0  0  0  0  0  0
    6.7400  -12.1254   26.2635 C   0  0  0  0  0  0  0  0  0  0  0  0
    7.8085  -12.3989   25.4326 C   0  0  0  0  0  0  0  0  0  0  0  0
    8.0128  -13.6862   24.9835 C   0  0  0  0  0  0  0  0  0  0  0  0
    7.1906  -14.7391   25.3261 C   0  0  0  0  0  0  0  0  0  0  0  0
    7.3736  -16.1146   24.8629 C   0  0  0  0  0  0  0  0  0  0  0  0
    8.4386  -16.8855   25.5912 C   0  0  2  0  0  0  0  0  0  0  0  0
    9.3595  -17.3734   24.5781 N   0  0  0  0  0  0  0  0  0  0  0  0
    7.8880  -18.0258   26.3275 C   0  0  0  0  0  0  0  0  0  0  0  0
    8.1641  -19.3427   25.9194 O   0  0  0  0  0  0  0  0  0  0  0  0
    6.1291  -14.4495   26.1557 C   0  0  0  0  0  0  0  0  0  0  0  0
    5.9083  -13.1621   26.6165 C   0  0  0  0  0  0  0  0  0  0  0  0
    7.1605  -17.8146   27.3346 O   0  0  0  0  0  0  0  0  0  0  0  0
  2  1  1  6
  2  3  1  0
  3  4  1  0
  4  5  1  0
  5  9  1  0
  6  5  2  0
  7  2  1  0
  8  7  2  0
 10  7  1  0
 11 10  1  0
 11 12  1  1
 13 12  1  0
 14 13  1  0
 14 15  2  0
 16 11  1  0
 16 26  1  0
 17 16  2  0
 18 14  1  0
 20 19  1  0
 21 20  2  0
 22 21  1  0
 23 29  1  0
 23 22  2  0
 24 23  1  0
 25 24  1  6
 25 26  1  0
 25 27  1  0
 27 28  1  0
 29 30  2  0
 30 20  1  0
 31 27  2  0
M  END
$$$$
