EEY.pdb
     RDKit          3D

 31 31  0  0  1  0  0  0  0  0999 V2000
    3.9700  -18.3098   22.7450 N   0  0  0  0  0  0  0  0  0  0  0  0
    5.2508  -18.8564   22.5145 C   0  0  1  0  0  0  0  0  0  0  0  0
    5.3834  -19.9430   21.5028 C   0  0  0  0  0  0  0  0  0  0  0  0
    4.6992  -19.7712   20.2062 C   0  0  0  0  0  0  0  0  0  0  0  0
    4.8844  -20.8904   19.2762 C   0  0  0  0  0  0  0  0  0  0  0  0
    5.5831  -21.9019   19.4795 O   0  0  0  0  0  0  0  0  0  0  0  0
    6.2836  -17.8172   22.1438 C   0  0  0  0  0  0  0  0  0  0  0  0
    7.4748  -18.1606   21.9297 O   0  0  0  0  0  0  0  0  0  0  0  0
    4.2072  -20.8045   18.0454 O   0  0  0  0  0  0  0  0  0  0  0  0
    5.9786  -16.4389   22.0210 N   0  0  0  0  0  0  0  0  0  0  0  0
    7.0126  -15.4416   21.7405 C   0  0  1  0  0  0  0  0  0  0  0  0
    6.4626  -14.2729   20.9838 C   0  0  0  0  0  0  0  0  0  0  0  0
    7.4911  -13.2443   20.6216 C   0  0  0  0  0  0  0  0  0  0  0  0
    8.3178  -13.7928   19.5149 C   0  0  0  0  0  0  0  0  0  0  0  0
    7.8136  -14.4542   18.5613 O   0  0  0  0  0  0  0  0  0  0  0  0
    7.6799  -15.0926   22.9992 C   0  0  0  0  0  0  0  0  0  0  0  0
    7.2518  -14.1857   23.7620 O   0  0  0  0  0  0  0  0  0  0  0  0
    9.6929  -13.6068   19.4702 O   0  0  0  0  0  0  0  0  0  0  0  0
   10.7546  -14.5516   30.9077 O   0  0  0  0  0  0  0  0  0  0  0  0
   10.2202  -14.7424   29.6355 C   0  0  0  0  0  0  0  0  0  0  0  0
    9.9757  -13.6529   28.8230 C   0  0  0  0  0  0  0  0  0  0  0  0
    9.4468  -13.8441   27.5644 C   0  0  0  0  0  0  0  0  0  0  0  0
    9.1418  -15.0913   27.0609 C   0  0  0  0  0  0  0  0  0  0  0  0
    8.5738  -15.3301   25.7342 C   0  0  0  0  0  0  0  0  0  0  0  0
    9.5786  -15.3563   24.6168 C   0  0  2  0  0  0  0  0  0  0  0  0
    8.8578  -15.7698   23.4243 N   0  0  0  0  0  0  0  0  0  0  0  0
   10.6645  -16.3051   24.8737 C   0  0  0  0  0  0  0  0  0  0  0  0
   10.5265  -17.6617   24.5307 O   0  0  0  0  0  0  0  0  0  0  0  0
    9.3916  -16.1679   27.8841 C   0  0  0  0  0  0  0  0  0  0  0  0
    9.9226  -15.9947   29.1515 C   0  0  0  0  0  0  0  0  0  0  0  0
   11.7285  -15.8925   25.4082 O   0  0  0  0  0  0  0  0  0  0  0  0
  2  1  1  6
  2  3  1  0
  3  4  1  0
  4  5  1  0
  5  9  1  0
  6  5  2  0
  7  2  1  0
  8  7  2  0
 10  7  1  0
 11 10  1  0
 11 12  1  1
 13 12  1  0
 14 13  1  0
 14 15  2  0
 16 11  1  0
 16 26  1  0
 17 16  2  0
 18 14  1  0
 20 19  1  0
 21 20  2  0
 22 21  1  0
 23 29  1  0
 23 22  2  0
 24 23  1  0
 25 24  1  1
 25 26  1  0
 25 27  1  0
 27 28  1  0
 29 30  2  0
 30 20  1  0
 31 27  2  0
M  END
$$$$
