EEY.pdb
     RDKit          3D

 31 31  0  0  1  0  0  0  0  0999 V2000
    9.5474  -16.3432   19.1580 N   0  0  0  0  0  0  0  0  0  0  0  0
    9.2385  -17.1395   20.2819 C   0  0  1  0  0  0  0  0  0  0  0  0
    8.4503  -18.3866   20.0689 C   0  0  0  0  0  0  0  0  0  0  0  0
    8.7498  -19.2013   18.8750 C   0  0  0  0  0  0  0  0  0  0  0  0
    8.9855  -20.6208   19.1601 C   0  0  0  0  0  0  0  0  0  0  0  0
    8.9972  -21.1475   20.2893 O   0  0  0  0  0  0  0  0  0  0  0  0
   10.4584  -17.5508   21.0734 C   0  0  0  0  0  0  0  0  0  0  0  0
   10.3292  -18.2381   22.1191 O   0  0  0  0  0  0  0  0  0  0  0  0
    9.2186  -21.4552   18.0509 O   0  0  0  0  0  0  0  0  0  0  0  0
   11.7769  -17.1956   20.6949 N   0  0  0  0  0  0  0  0  0  0  0  0
   12.9352  -17.5331   21.5237 C   0  0  1  0  0  0  0  0  0  0  0  0
   14.2230  -17.2691   20.8076 C   0  0  0  0  0  0  0  0  0  0  0  0
   15.4446  -17.5452   21.6313 C   0  0  0  0  0  0  0  0  0  0  0  0
   16.6329  -17.1238   20.8441 C   0  0  0  0  0  0  0  0  0  0  0  0
   17.4636  -16.2750   21.2807 O   0  0  0  0  0  0  0  0  0  0  0  0
   12.8038  -16.8469   22.8134 C   0  0  0  0  0  0  0  0  0  0  0  0
   12.7813  -15.5909   22.9112 O   0  0  0  0  0  0  0  0  0  0  0  0
   16.8939  -17.6422   19.5830 O   0  0  0  0  0  0  0  0  0  0  0  0
   10.1124  -14.0418   30.5061 O   0  0  0  0  0  0  0  0  0  0  0  0
   10.3906  -14.6108   29.2655 C   0  0  0  0  0  0  0  0  0  0  0  0
   10.3334  -15.9818   29.1105 C   0  0  0  0  0  0  0  0  0  0  0  0
   10.6091  -16.5427   27.8818 C   0  0  0  0  0  0  0  0  0  0  0  0
   10.9462  -15.7933   26.7742 C   0  0  0  0  0  0  0  0  0  0  0  0
   11.2514  -16.3551   25.4585 C   0  0  0  0  0  0  0  0  0  0  0  0
   12.6456  -16.8983   25.3161 C   0  0  2  0  0  0  0  0  0  0  0  0
   12.6942  -17.5761   24.0313 N   0  0  0  0  0  0  0  0  0  0  0  0
   12.9757  -17.8545   26.3753 C   0  0  0  0  0  0  0  0  0  0  0  0
   13.4922  -17.4107   27.6054 O   0  0  0  0  0  0  0  0  0  0  0  0
   10.9990  -14.4269   26.9455 C   0  0  0  0  0  0  0  0  0  0  0  0
   10.7251  -13.8460   28.1727 C   0  0  0  0  0  0  0  0  0  0  0  0
   12.7923  -19.0848   26.1727 O   0  0  0  0  0  0  0  0  0  0  0  0
  2  1  1  6
  2  3  1  0
  3  4  1  0
  4  5  1  0
  5  9  1  0
  6  5  2  0
  7  2  1  0
  8  7  2  0
 10  7  1  0
 11 10  1  0
 11 12  1  6
 13 12  1  0
 14 13  1  0
 14 15  2  0
 16 11  1  0
 16 26  1  0
 17 16  2  0
 18 14  1  0
 20 19  1  0
 21 20  2  0
 22 21  1  0
 23 29  1  0
 23 22  2  0
 24 23  1  0
 25 24  1  1
 25 26  1  0
 25 27  1  0
 27 28  1  0
 29 30  2  0
 30 20  1  0
 31 27  2  0
M  END
$$$$
