EEY.pdb
     RDKit          3D

 31 31  0  0  1  0  0  0  0  0999 V2000
    9.2213  -19.7585   20.2850 N   0  0  0  0  0  0  0  0  0  0  0  0
    9.6404  -18.4112   20.3265 C   0  0  1  0  0  0  0  0  0  0  0  0
    8.6257  -17.3479   20.0784 C   0  0  0  0  0  0  0  0  0  0  0  0
    7.5972  -17.5968   19.0492 C   0  0  0  0  0  0  0  0  0  0  0  0
    7.2986  -16.4349   18.2051 C   0  0  0  0  0  0  0  0  0  0  0  0
    7.9216  -15.3557   18.1996 O   0  0  0  0  0  0  0  0  0  0  0  0
   10.3213  -18.0393   21.6234 C   0  0  0  0  0  0  0  0  0  0  0  0
    9.7201  -18.1929   22.7177 O   0  0  0  0  0  0  0  0  0  0  0  0
    6.2077  -16.5604   17.3247 O   0  0  0  0  0  0  0  0  0  0  0  0
   11.6352  -17.5115   21.6789 N   0  0  0  0  0  0  0  0  0  0  0  0
   12.3138  -17.2624   22.9517 C   0  0  1  0  0  0  0  0  0  0  0  0
   13.7668  -16.9616   22.7538 C   0  0  0  0  0  0  0  0  0  0  0  0
   14.4905  -16.6003   24.0158 C   0  0  0  0  0  0  0  0  0  0  0  0
   15.9161  -16.3572   23.6730 C   0  0  0  0  0  0  0  0  0  0  0  0
   16.5703  -15.3892   24.1591 O   0  0  0  0  0  0  0  0  0  0  0  0
   11.5722  -16.2299   23.6833 C   0  0  0  0  0  0  0  0  0  0  0  0
   11.2557  -15.1277   23.1612 O   0  0  0  0  0  0  0  0  0  0  0  0
   16.6071  -17.1838   22.7974 O   0  0  0  0  0  0  0  0  0  0  0  0
    5.6734  -11.3405   27.3553 O   0  0  0  0  0  0  0  0  0  0  0  0
    6.5482  -12.2562   26.7751 C   0  0  0  0  0  0  0  0  0  0  0  0
    7.7339  -12.5701   27.4096 C   0  0  0  0  0  0  0  0  0  0  0  0
    8.5980  -13.4766   26.8334 C   0  0  0  0  0  0  0  0  0  0  0  0
    8.3376  -14.1011   25.6317 C   0  0  0  0  0  0  0  0  0  0  0  0
    9.2342  -15.0617   24.9888 C   0  0  0  0  0  0  0  0  0  0  0  0
   10.4738  -15.3862   25.7744 C   0  0  2  0  0  0  0  0  0  0  0  0
   11.1697  -16.4259   25.0347 N   0  0  0  0  0  0  0  0  0  0  0  0
   10.1620  -15.8802   27.1175 C   0  0  0  0  0  0  0  0  0  0  0  0
   10.0586  -14.9910   28.2017 O   0  0  0  0  0  0  0  0  0  0  0  0
    7.1505  -13.7769   25.0114 C   0  0  0  0  0  0  0  0  0  0  0  0
    6.2703  -12.8684   25.5755 C   0  0  0  0  0  0  0  0  0  0  0  0
    9.9870  -17.1158   27.2933 O   0  0  0  0  0  0  0  0  0  0  0  0
  2  1  1  1
  2  3  1  0
  3  4  1  0
  4  5  1  0
  5  9  1  0
  6  5  2  0
  7  2  1  0
  8  7  2  0
 10  7  1  0
 11 10  1  0
 11 12  1  6
 13 12  1  0
 14 13  1  0
 14 15  2  0
 16 11  1  0
 16 26  1  0
 17 16  2  0
 18 14  1  0
 20 19  1  0
 21 20  2  0
 22 21  1  0
 23 29  1  0
 23 22  2  0
 24 23  1  0
 25 24  1  6
 25 26  1  0
 25 27  1  0
 27 28  1  0
 29 30  2  0
 30 20  1  0
 31 27  2  0
M  END
$$$$
