EEY.pdb
     RDKit          3D

 31 31  0  0  1  0  0  0  0  0999 V2000
    8.1855  -16.8584   19.1682 N   0  0  0  0  0  0  0  0  0  0  0  0
    7.4763  -16.8928   20.3882 C   0  0  1  0  0  0  0  0  0  0  0  0
    6.3051  -17.8082   20.4988 C   0  0  0  0  0  0  0  0  0  0  0  0
    5.5219  -17.7850   21.7497 C   0  0  0  0  0  0  0  0  0  0  0  0
    4.4110  -18.7424   21.7808 C   0  0  0  0  0  0  0  0  0  0  0  0
    4.2699  -19.6724   22.5981 O   0  0  0  0  0  0  0  0  0  0  0  0
    8.3550  -17.1989   21.5791 C   0  0  0  0  0  0  0  0  0  0  0  0
    8.3076  -18.3324   22.1228 O   0  0  0  0  0  0  0  0  0  0  0  0
    3.4195  -18.5882   20.7938 O   0  0  0  0  0  0  0  0  0  0  0  0
    9.2541  -16.2551   22.1348 N   0  0  0  0  0  0  0  0  0  0  0  0
   10.3198  -16.6536   23.0556 C   0  0  1  0  0  0  0  0  0  0  0  0
   11.6698  -16.2609   22.5418 C   0  0  0  0  0  0  0  0  0  0  0  0
   12.2517  -17.2304   21.5577 C   0  0  0  0  0  0  0  0  0  0  0  0
   13.6032  -16.7423   21.1780 C   0  0  0  0  0  0  0  0  0  0  0  0
   13.7758  -15.6579   20.5492 O   0  0  0  0  0  0  0  0  0  0  0  0
   10.0022  -16.1364   24.3909 C   0  0  0  0  0  0  0  0  0  0  0  0
    9.4736  -15.0068   24.5697 O   0  0  0  0  0  0  0  0  0  0  0  0
   14.7518  -17.4546   21.4954 O   0  0  0  0  0  0  0  0  0  0  0  0
    6.4547  -11.0566   25.8153 O   0  0  0  0  0  0  0  0  0  0  0  0
    6.9327  -12.3389   26.0756 C   0  0  0  0  0  0  0  0  0  0  0  0
    7.8935  -12.5291   27.0490 C   0  0  0  0  0  0  0  0  0  0  0  0
    8.3650  -13.7990   27.3048 C   0  0  0  0  0  0  0  0  0  0  0  0
    7.9200  -14.9146   26.6271 C   0  0  0  0  0  0  0  0  0  0  0  0
    8.4029  -16.2743   26.8676 C   0  0  0  0  0  0  0  0  0  0  0  0
    9.8992  -16.4157   26.8814 C   0  0  2  0  0  0  0  0  0  0  0  0
   10.2797  -16.8952   25.5632 N   0  0  0  0  0  0  0  0  0  0  0  0
   10.3531  -17.3758   27.8902 C   0  0  0  0  0  0  0  0  0  0  0  0
   10.3505  -17.0362   29.2545 O   0  0  0  0  0  0  0  0  0  0  0  0
    6.9615  -14.7078   25.6589 C   0  0  0  0  0  0  0  0  0  0  0  0
    6.4761  -13.4391   25.3883 C   0  0  0  0  0  0  0  0  0  0  0  0
   10.7486  -18.5143   27.5221 O   0  0  0  0  0  0  0  0  0  0  0  0
  2  1  1  6
  2  3  1  0
  3  4  1  0
  4  5  1  0
  5  9  1  0
  6  5  2  0
  7  2  1  0
  8  7  2  0
 10  7  1  0
 11 10  1  0
 11 12  1  6
 13 12  1  0
 14 13  1  0
 14 15  2  0
 16 11  1  0
 16 26  1  0
 17 16  2  0
 18 14  1  0
 20 19  1  0
 21 20  2  0
 22 21  1  0
 23 29  1  0
 23 22  2  0
 24 23  1  0
 25 24  1  6
 25 26  1  0
 25 27  1  0
 27 28  1  0
 29 30  2  0
 30 20  1  0
 31 27  2  0
M  END
$$$$
