EEY.pdb
     RDKit          3D

 31 31  0  0  1  0  0  0  0  0999 V2000
    6.0042  -15.7867   21.2861 N   0  0  0  0  0  0  0  0  0  0  0  0
    7.3732  -15.4611   21.3974 C   0  0  1  0  0  0  0  0  0  0  0  0
    7.7625  -14.0228   21.3591 C   0  0  0  0  0  0  0  0  0  0  0  0
    7.4180  -13.2425   20.1544 C   0  0  0  0  0  0  0  0  0  0  0  0
    8.5765  -12.8249   19.3575 C   0  0  0  0  0  0  0  0  0  0  0  0
    9.2983  -13.5720   18.6694 O   0  0  0  0  0  0  0  0  0  0  0  0
    8.0222  -16.0329   22.6367 C   0  0  0  0  0  0  0  0  0  0  0  0
    7.4073  -16.0185   23.7341 O   0  0  0  0  0  0  0  0  0  0  0  0
    8.8935  -11.4537   19.3786 O   0  0  0  0  0  0  0  0  0  0  0  0
    9.3210  -16.5996   22.6334 N   0  0  0  0  0  0  0  0  0  0  0  0
    9.8507  -17.3220   23.7910 C   0  0  1  0  0  0  0  0  0  0  0  0
   11.0040  -18.1991   23.4148 C   0  0  0  0  0  0  0  0  0  0  0  0
   11.5417  -19.0171   24.5499 C   0  0  0  0  0  0  0  0  0  0  0  0
   12.7087  -19.7879   24.0468 C   0  0  0  0  0  0  0  0  0  0  0  0
   12.9254  -20.9853   24.3940 O   0  0  0  0  0  0  0  0  0  0  0  0
   10.1431  -16.3538   24.8533 C   0  0  0  0  0  0  0  0  0  0  0  0
   10.7146  -15.2541   24.6264 O   0  0  0  0  0  0  0  0  0  0  0  0
   13.6256  -19.2312   23.1655 O   0  0  0  0  0  0  0  0  0  0  0  0
    5.7427  -11.3892   25.4632 O   0  0  0  0  0  0  0  0  0  0  0  0
    6.5159  -12.3663   26.0861 C   0  0  0  0  0  0  0  0  0  0  0  0
    5.9727  -13.6088   26.3468 C   0  0  0  0  0  0  0  0  0  0  0  0
    6.7398  -14.5742   26.9634 C   0  0  0  0  0  0  0  0  0  0  0  0
    8.0488  -14.3625   27.3425 C   0  0  0  0  0  0  0  0  0  0  0  0
    8.8887  -15.3608   28.0042 C   0  0  0  0  0  0  0  0  0  0  0  0
   10.1587  -15.6960   27.2736 C   0  0  2  0  0  0  0  0  0  0  0  0
    9.7910  -16.6135   26.2081 N   0  0  0  0  0  0  0  0  0  0  0  0
   11.1420  -16.3431   28.1453 C   0  0  0  0  0  0  0  0  0  0  0  0
   11.7334  -15.6358   29.2068 O   0  0  0  0  0  0  0  0  0  0  0  0
    8.5757  -13.1176   27.0754 C   0  0  0  0  0  0  0  0  0  0  0  0
    7.8199  -12.1355   26.4567 C   0  0  0  0  0  0  0  0  0  0  0  0
   11.4551  -17.5453   27.9336 O   0  0  0  0  0  0  0  0  0  0  0  0
  2  1  1  1
  2  3  1  0
  3  4  1  0
  4  5  1  0
  5  9  1  0
  6  5  2  0
  7  2  1  0
  8  7  2  0
 10  7  1  0
 11 10  1  0
 11 12  1  6
 13 12  1  0
 14 13  1  0
 14 15  2  0
 16 11  1  0
 16 26  1  0
 17 16  2  0
 18 14  1  0
 20 19  1  0
 21 20  2  0
 22 21  1  0
 23 29  1  0
 23 22  2  0
 24 23  1  0
 25 24  1  1
 25 26  1  0
 25 27  1  0
 27 28  1  0
 29 30  2  0
 30 20  1  0
 31 27  2  0
M  END
$$$$
