EEY.pdb
     RDKit          3D

 31 31  0  0  1  0  0  0  0  0999 V2000
   11.1161  -17.2604   17.7900 N   0  0  0  0  0  0  0  0  0  0  0  0
    9.8209  -17.1308   18.3363 C   0  0  1  0  0  0  0  0  0  0  0  0
    8.6898  -17.8078   17.6406 C   0  0  0  0  0  0  0  0  0  0  0  0
    8.9113  -19.1716   17.1211 C   0  0  0  0  0  0  0  0  0  0  0  0
    7.7344  -19.7689   16.4808 C   0  0  0  0  0  0  0  0  0  0  0  0
    7.6830  -20.8959   15.9516 O   0  0  0  0  0  0  0  0  0  0  0  0
    9.7382  -17.5657   19.7813 C   0  0  0  0  0  0  0  0  0  0  0  0
    8.6446  -17.4955   20.3991 O   0  0  0  0  0  0  0  0  0  0  0  0
    6.5618  -18.9906   16.4682 O   0  0  0  0  0  0  0  0  0  0  0  0
   10.8538  -18.0613   20.5008 N   0  0  0  0  0  0  0  0  0  0  0  0
   10.7542  -18.4476   21.9091 C   0  0  1  0  0  0  0  0  0  0  0  0
   11.9007  -19.3148   22.3267 C   0  0  0  0  0  0  0  0  0  0  0  0
   11.8911  -19.6770   23.7812 C   0  0  0  0  0  0  0  0  0  0  0  0
   13.1164  -20.4693   24.0643 C   0  0  0  0  0  0  0  0  0  0  0  0
   13.0944  -21.5099   24.7840 O   0  0  0  0  0  0  0  0  0  0  0  0
   10.5823  -17.2350   22.7161 C   0  0  0  0  0  0  0  0  0  0  0  0
   11.3572  -16.2458   22.6226 O   0  0  0  0  0  0  0  0  0  0  0  0
   14.3544  -20.1068   23.5512 O   0  0  0  0  0  0  0  0  0  0  0  0
    6.1933  -10.9501   27.1457 O   0  0  0  0  0  0  0  0  0  0  0  0
    6.6501  -12.0185   26.3774 C   0  0  0  0  0  0  0  0  0  0  0  0
    7.9733  -12.0661   25.9854 C   0  0  0  0  0  0  0  0  0  0  0  0
    8.4230  -13.1245   25.2251 C   0  0  0  0  0  0  0  0  0  0  0  0
    7.6060  -14.1612   24.8257 C   0  0  0  0  0  0  0  0  0  0  0  0
    8.0476  -15.2951   24.0138 C   0  0  0  0  0  0  0  0  0  0  0  0
    9.3456  -15.9133   24.4524 C   0  0  2  0  0  0  0  0  0  0  0  0
    9.5189  -17.1162   23.6552 N   0  0  0  0  0  0  0  0  0  0  0  0
    9.3318  -16.2763   25.8713 C   0  0  0  0  0  0  0  0  0  0  0  0
    9.8321  -15.3908   26.8421 O   0  0  0  0  0  0  0  0  0  0  0  0
    6.2886  -14.0987   25.2249 C   0  0  0  0  0  0  0  0  0  0  0  0
    5.8191  -13.0431   25.9889 C   0  0  0  0  0  0  0  0  0  0  0  0
    8.8657  -17.3955   26.2156 O   0  0  0  0  0  0  0  0  0  0  0  0
  2  1  1  6
  2  3  1  0
  3  4  1  0
  4  5  1  0
  5  9  1  0
  6  5  2  0
  7  2  1  0
  8  7  2  0
 10  7  1  0
 11 10  1  0
 11 12  1  1
 13 12  1  0
 14 13  1  0
 14 15  2  0
 16 11  1  0
 16 26  1  0
 17 16  2  0
 18 14  1  0
 20 19  1  0
 21 20  2  0
 22 21  1  0
 23 29  1  0
 23 22  2  0
 24 23  1  0
 25 24  1  6
 25 26  1  0
 25 27  1  0
 27 28  1  0
 29 30  2  0
 30 20  1  0
 31 27  2  0
M  END
$$$$
