EEY.pdb
     RDKit          3D

 31 31  0  0  1  0  0  0  0  0999 V2000
    5.4968  -16.3573   21.2038 N   0  0  0  0  0  0  0  0  0  0  0  0
    6.7994  -16.8363   21.4614 C   0  0  1  0  0  0  0  0  0  0  0  0
    7.9547  -16.0730   20.9097 C   0  0  0  0  0  0  0  0  0  0  0  0
    7.9615  -14.6065   21.0781 C   0  0  0  0  0  0  0  0  0  0  0  0
    9.0503  -13.9255   20.3694 C   0  0  0  0  0  0  0  0  0  0  0  0
    8.9667  -13.3794   19.2525 O   0  0  0  0  0  0  0  0  0  0  0  0
    7.0871  -17.0159   22.9341 C   0  0  0  0  0  0  0  0  0  0  0  0
    6.4569  -16.3388   23.7868 O   0  0  0  0  0  0  0  0  0  0  0  0
   10.2989  -13.8911   21.0182 O   0  0  0  0  0  0  0  0  0  0  0  0
    8.0543  -17.9287   23.4235 N   0  0  0  0  0  0  0  0  0  0  0  0
    8.1795  -18.2291   24.8506 C   0  0  1  0  0  0  0  0  0  0  0  0
    8.4805  -19.6764   25.0864 C   0  0  0  0  0  0  0  0  0  0  0  0
    7.4260  -20.6088   24.5712 C   0  0  0  0  0  0  0  0  0  0  0  0
    6.3784  -20.7389   25.6174 C   0  0  0  0  0  0  0  0  0  0  0  0
    6.6633  -20.8821   26.8419 O   0  0  0  0  0  0  0  0  0  0  0  0
    9.1499  -17.3011   25.4409 C   0  0  0  0  0  0  0  0  0  0  0  0
   10.2190  -16.9797   24.8566 O   0  0  0  0  0  0  0  0  0  0  0  0
    5.0263  -20.7097   25.3036 O   0  0  0  0  0  0  0  0  0  0  0  0
    5.6792  -11.6867   24.6451 O   0  0  0  0  0  0  0  0  0  0  0  0
    6.5206  -12.4316   25.4681 C   0  0  0  0  0  0  0  0  0  0  0  0
    7.8030  -12.7284   25.0507 C   0  0  0  0  0  0  0  0  0  0  0  0
    8.6339  -13.4657   25.8669 C   0  0  0  0  0  0  0  0  0  0  0  0
    8.2463  -13.9336   27.1050 C   0  0  0  0  0  0  0  0  0  0  0  0
    9.0986  -14.7238   27.9933 C   0  0  0  0  0  0  0  0  0  0  0  0
    9.8932  -15.7995   27.3074 C   0  0  2  0  0  0  0  0  0  0  0  0
    8.9278  -16.7122   26.7178 N   0  0  0  0  0  0  0  0  0  0  0  0
   10.7428  -16.5394   28.2434 C   0  0  0  0  0  0  0  0  0  0  0  0
   11.8131  -15.9027   28.8960 O   0  0  0  0  0  0  0  0  0  0  0  0
    6.9638  -13.6290   27.5068 C   0  0  0  0  0  0  0  0  0  0  0  0
    6.1151  -12.8893   26.6999 C   0  0  0  0  0  0  0  0  0  0  0  0
   10.5047  -17.7580   28.4591 O   0  0  0  0  0  0  0  0  0  0  0  0
  2  1  1  1
  2  3  1  0
  3  4  1  0
  4  5  1  0
  5  9  1  0
  6  5  2  0
  7  2  1  0
  8  7  2  0
 10  7  1  0
 11 10  1  0
 11 12  1  6
 13 12  1  0
 14 13  1  0
 14 15  2  0
 16 11  1  0
 16 26  1  0
 17 16  2  0
 18 14  1  0
 20 19  1  0
 21 20  2  0
 22 21  1  0
 23 29  1  0
 23 22  2  0
 24 23  1  0
 25 24  1  1
 25 26  1  0
 25 27  1  0
 27 28  1  0
 29 30  2  0
 30 20  1  0
 31 27  2  0
M  END
$$$$
