EEY.pdb
     RDKit          3D

 31 31  0  0  1  0  0  0  0  0999 V2000
   13.0448  -19.2989   20.4463 N   0  0  0  0  0  0  0  0  0  0  0  0
   12.9981  -17.8919   20.5497 C   0  0  1  0  0  0  0  0  0  0  0  0
   13.5505  -17.0824   19.4265 C   0  0  0  0  0  0  0  0  0  0  0  0
   13.5184  -17.6644   18.0704 C   0  0  0  0  0  0  0  0  0  0  0  0
   14.8414  -17.8490   17.4644 C   0  0  0  0  0  0  0  0  0  0  0  0
   15.6089  -18.8104   17.6628 O   0  0  0  0  0  0  0  0  0  0  0  0
   11.6059  -17.3592   20.7983 C   0  0  0  0  0  0  0  0  0  0  0  0
   11.4235  -16.1259   20.9668 O   0  0  0  0  0  0  0  0  0  0  0  0
   15.2742  -16.8434   16.5798 O   0  0  0  0  0  0  0  0  0  0  0  0
   10.4617  -18.1932   20.8551 N   0  0  0  0  0  0  0  0  0  0  0  0
    9.1646  -17.6939   21.3144 C   0  0  1  0  0  0  0  0  0  0  0  0
    8.0305  -18.4446   20.6892 C   0  0  0  0  0  0  0  0  0  0  0  0
    6.6775  -18.0126   21.1684 C   0  0  0  0  0  0  0  0  0  0  0  0
    5.6569  -18.8094   20.4387 C   0  0  0  0  0  0  0  0  0  0  0  0
    4.8081  -19.5298   21.0402 O   0  0  0  0  0  0  0  0  0  0  0  0
    9.1573  -17.6898   22.7811 C   0  0  0  0  0  0  0  0  0  0  0  0
   10.0577  -18.2485   23.4627 O   0  0  0  0  0  0  0  0  0  0  0  0
    5.5817  -18.8043   19.0524 O   0  0  0  0  0  0  0  0  0  0  0  0
   10.4502  -14.1375   30.3961 O   0  0  0  0  0  0  0  0  0  0  0  0
   10.1814  -14.5416   29.0904 C   0  0  0  0  0  0  0  0  0  0  0  0
   10.6793  -15.7434   28.6273 C   0  0  0  0  0  0  0  0  0  0  0  0
   10.4119  -16.1412   27.3348 C   0  0  0  0  0  0  0  0  0  0  0  0
    9.6577  -15.3883   26.4594 C   0  0  0  0  0  0  0  0  0  0  0  0
    9.3604  -15.7761   25.0806 C   0  0  0  0  0  0  0  0  0  0  0  0
    8.2520  -16.7810   24.9364 C   0  0  2  0  0  0  0  0  0  0  0  0
    8.1196  -17.0469   23.5137 N   0  0  0  0  0  0  0  0  0  0  0  0
    6.9775  -16.2737   25.4500 C   0  0  0  0  0  0  0  0  0  0  0  0
    6.1704  -15.4350   24.6613 O   0  0  0  0  0  0  0  0  0  0  0  0
    9.1683  -14.1918   26.9369 C   0  0  0  0  0  0  0  0  0  0  0  0
    9.4269  -13.7761   28.2325 C   0  0  0  0  0  0  0  0  0  0  0  0
    6.6096  -16.5970   26.6111 O   0  0  0  0  0  0  0  0  0  0  0  0
  2  1  1  6
  2  3  1  0
  3  4  1  0
  4  5  1  0
  5  9  1  0
  6  5  2  0
  7  2  1  0
  8  7  2  0
 10  7  1  0
 11 10  1  0
 11 12  1  1
 13 12  1  0
 14 13  1  0
 14 15  2  0
 16 11  1  0
 16 26  1  0
 17 16  2  0
 18 14  1  0
 20 19  1  0
 21 20  2  0
 22 21  1  0
 23 29  1  0
 23 22  2  0
 24 23  1  0
 25 24  1  6
 25 26  1  0
 25 27  1  0
 27 28  1  0
 29 30  2  0
 30 20  1  0
 31 27  2  0
M  END
$$$$
