WLI.pdb
     RDKit          3D

 31 32  0  0  1  0  0  0  0  0999 V2000
    6.1011  -18.4530   23.8105 N   0  0  0  0  0  0  0  0  0  0  0  0
    6.5037  -17.0844   24.0130 C   0  0  1  0  0  0  0  0  0  0  0  0
    6.8116  -16.7268   25.4364 C   0  0  0  0  0  0  0  0  0  0  0  0
    6.1811  -15.4417   25.8080 C   0  0  0  0  0  0  0  0  0  0  0  0
    4.8434  -15.3154   26.1503 C   0  0  0  0  0  0  0  0  0  0  0  0
    4.5894  -14.0367   26.4546 N   0  0  0  0  0  0  0  0  0  0  0  0
    5.7097  -13.2780   26.3323 C   0  0  0  0  0  0  0  0  0  0  0  0
    5.9818  -11.9440   26.5167 C   0  0  0  0  0  0  0  0  0  0  0  0
    7.2466  -11.4660   26.3004 C   0  0  0  0  0  0  0  0  0  0  0  0
    8.2445  -12.3289   25.8969 C   0  0  0  0  0  0  0  0  0  0  0  0
    7.9669  -13.6795   25.7107 C   0  0  0  0  0  0  0  0  0  0  0  0
    6.6986  -14.1742   25.9256 C   0  0  0  0  0  0  0  0  0  0  0  0
    7.7559  -16.8281   23.2345 C   0  0  0  0  0  0  0  0  0  0  0  0
    8.5776  -17.7520   23.0439 O   0  0  0  0  0  0  0  0  0  0  0  0
    8.0482  -14.7822   19.3931 C   0  0  0  0  0  0  0  0  0  0  0  0
    8.0316  -13.7601   20.5410 C   0  0  2  0  0  0  0  0  0  0  0  0
    7.9208  -12.3827   19.9902 C   0  0  0  0  0  0  0  0  0  0  0  0
    9.2419  -14.0263   21.3529 C   0  0  0  0  0  0  0  0  0  0  0  0
    9.3120  -15.3810   22.0049 C   0  0  2  0  0  0  0  0  0  0  0  0
    8.0361  -15.5477   22.7014 N   0  0  0  0  0  0  0  0  0  0  0  0
   10.3825  -15.4046   23.0396 C   0  0  0  0  0  0  0  0  0  0  0  0
   11.5707  -15.3533   22.6458 O   0  0  0  0  0  0  0  0  0  0  0  0
   11.1223  -14.2115   29.0320 C   0  0  0  0  0  0  0  0  0  0  0  0
   11.6811  -14.7746   27.7598 C   0  0  0  0  0  0  0  0  0  0  0  0
   10.5340  -15.0484   26.7942 C   0  0  2  0  0  0  0  0  0  0  0  0
    9.6993  -16.1486   27.3843 C   0  0  0  0  0  0  0  0  0  0  0  0
   11.0779  -15.3817   25.4469 C   0  0  2  0  0  0  0  0  0  0  0  0
   10.0743  -15.4820   24.4206 N   0  0  0  0  0  0  0  0  0  0  0  0
   11.8933  -16.6416   25.4406 C   0  0  0  0  0  0  0  0  0  0  0  0
   11.4498  -17.7100   24.6764 O   0  0  0  0  0  0  0  0  0  0  0  0
   12.9517  -16.7950   26.0811 O   0  0  0  0  0  0  0  0  0  0  0  0
  2  1  1  1
  2 13  1  0
  3  4  1  0
  3  2  1  0
  4 12  1  0
  4  5  2  0
  5  6  1  0
  7  6  1  0
  7  8  2  0
  9  8  1  0
 10  9  2  0
 11 10  1  0
 11 12  2  0
 12  7  1  0
 13 14  2  0
 16 15  1  6
 17 16  1  0
 18 16  1  0
 19 18  1  1
 20 13  1  0
 20 19  1  0
 21 19  1  0
 21 22  2  0
 23 24  1  0
 25 24  1  0
 25 26  1  1
 27 28  1  6
 27 25  1  0
 28 21  1  0
 29 27  1  0
 30 29  1  0
 31 29  2  0
M  END
$$$$
