WLI.pdb
     RDKit          3D

 31 32  0  0  1  0  0  0  0  0999 V2000
    6.3972  -19.2385   24.5318 N   0  0  0  0  0  0  0  0  0  0  0  0
    6.4482  -17.8029   24.6444 C   0  0  1  0  0  0  0  0  0  0  0  0
    6.8573  -17.2952   25.9948 C   0  0  0  0  0  0  0  0  0  0  0  0
    6.4387  -15.8891   26.1812 C   0  0  0  0  0  0  0  0  0  0  0  0
    5.1391  -15.4450   25.9900 C   0  0  0  0  0  0  0  0  0  0  0  0
    5.0814  -14.1348   26.2590 N   0  0  0  0  0  0  0  0  0  0  0  0
    6.3002  -13.6623   26.6289 C   0  0  0  0  0  0  0  0  0  0  0  0
    6.7715  -12.4244   26.9937 C   0  0  0  0  0  0  0  0  0  0  0  0
    8.0928  -12.2608   27.3137 C   0  0  0  0  0  0  0  0  0  0  0  0
    8.9470  -13.3431   27.2679 C   0  0  0  0  0  0  0  0  0  0  0  0
    8.4677  -14.5959   26.8982 C   0  0  0  0  0  0  0  0  0  0  0  0
    7.1401  -14.7749   26.5745 C   0  0  0  0  0  0  0  0  0  0  0  0
    7.4585  -17.2770   23.6734 C   0  0  0  0  0  0  0  0  0  0  0  0
    8.4083  -18.0011   23.3008 O   0  0  0  0  0  0  0  0  0  0  0  0
    8.2027  -12.1760   20.3999 C   0  0  0  0  0  0  0  0  0  0  0  0
    8.6299  -13.6485   20.5077 C   0  0  2  0  0  0  0  0  0  0  0  0
    8.4256  -14.3314   19.2019 C   0  0  0  0  0  0  0  0  0  0  0  0
    7.8766  -14.2180   21.6493 C   0  0  0  0  0  0  0  0  0  0  0  0
    8.2898  -15.5972   22.0879 C   0  0  2  0  0  0  0  0  0  0  0  0
    7.3632  -15.9621   23.1597 N   0  0  0  0  0  0  0  0  0  0  0  0
    9.6554  -15.5661   22.6807 C   0  0  0  0  0  0  0  0  0  0  0  0
   10.6294  -15.5549   21.8929 O   0  0  0  0  0  0  0  0  0  0  0  0
   10.6210  -15.0105   28.3981 C   0  0  0  0  0  0  0  0  0  0  0  0
   10.5285  -15.6775   27.0585 C   0  0  0  0  0  0  0  0  0  0  0  0
   11.1627  -14.7713   26.0099 C   0  0  2  0  0  0  0  0  0  0  0  0
   10.4031  -13.4757   26.0131 C   0  0  0  0  0  0  0  0  0  0  0  0
   11.1562  -15.4530   24.6842 C   0  0  2  0  0  0  0  0  0  0  0  0
    9.8520  -15.5498   24.0840 N   0  0  0  0  0  0  0  0  0  0  0  0
   11.7630  -16.8248   24.7290 C   0  0  0  0  0  0  0  0  0  0  0  0
   13.1106  -16.9400   25.0343 O   0  0  0  0  0  0  0  0  0  0  0  0
   11.1331  -17.8777   24.5084 O   0  0  0  0  0  0  0  0  0  0  0  0
  2  1  1  1
  2 13  1  0
  3  4  1  0
  3  2  1  0
  4 12  1  0
  4  5  2  0
  5  6  1  0
  7  6  1  0
  7  8  2  0
  9  8  1  0
 10  9  2  0
 11 10  1  0
 11 12  2  0
 12  7  1  0
 13 14  2  0
 16 15  1  6
 17 16  1  0
 18 16  1  0
 19 18  1  1
 20 13  1  0
 20 19  1  0
 21 19  1  0
 21 22  2  0
 23 24  1  0
 25 24  1  0
 25 26  1  6
 27 28  1  1
 27 25  1  0
 28 21  1  0
 29 27  1  0
 30 29  1  0
 31 29  2  0
M  END
$$$$
