WLI.pdb
     RDKit          3D

 31 32  0  0  1  0  0  0  0  0999 V2000
    5.8229  -19.7437   24.5505 N   0  0  0  0  0  0  0  0  0  0  0  0
    7.0618  -19.1290   24.9548 C   0  0  1  0  0  0  0  0  0  0  0  0
    8.1838  -20.0908   25.2092 C   0  0  0  0  0  0  0  0  0  0  0  0
    8.6468  -20.0056   26.6111 C   0  0  0  0  0  0  0  0  0  0  0  0
    9.7073  -20.7441   27.1139 C   0  0  0  0  0  0  0  0  0  0  0  0
    9.8897  -20.4255   28.4014 N   0  0  0  0  0  0  0  0  0  0  0  0
    8.9881  -19.4913   28.8015 C   0  0  0  0  0  0  0  0  0  0  0  0
    8.7478  -18.8472   29.9910 C   0  0  0  0  0  0  0  0  0  0  0  0
    7.7311  -17.9347   30.0834 C   0  0  0  0  0  0  0  0  0  0  0  0
    6.9504  -17.6659   28.9782 C   0  0  0  0  0  0  0  0  0  0  0  0
    7.1954  -18.3192   27.7745 C   0  0  0  0  0  0  0  0  0  0  0  0
    8.2159  -19.2392   27.6672 C   0  0  0  0  0  0  0  0  0  0  0  0
    7.5284  -18.2174   23.8634 C   0  0  0  0  0  0  0  0  0  0  0  0
    8.4442  -18.5786   23.0914 O   0  0  0  0  0  0  0  0  0  0  0  0
    6.1700  -12.6764   21.7094 C   0  0  0  0  0  0  0  0  0  0  0  0
    7.2822  -13.7349   21.7796 C   0  0  2  0  0  0  0  0  0  0  0  0
    7.7020  -14.1194   20.4052 C   0  0  0  0  0  0  0  0  0  0  0  0
    6.7552  -14.8376   22.6169 C   0  0  0  0  0  0  0  0  0  0  0  0
    7.7062  -15.9732   22.8840 C   0  0  2  0  0  0  0  0  0  0  0  0
    6.9498  -16.9390   23.6814 N   0  0  0  0  0  0  0  0  0  0  0  0
    8.8460  -15.5096   23.7225 C   0  0  0  0  0  0  0  0  0  0  0  0
    9.8451  -15.0368   23.1326 O   0  0  0  0  0  0  0  0  0  0  0  0
    7.0212  -12.7496   27.7698 C   0  0  0  0  0  0  0  0  0  0  0  0
    7.7691  -13.3264   26.6053 C   0  0  0  0  0  0  0  0  0  0  0  0
    8.9281  -14.1663   27.1288 C   0  0  2  0  0  0  0  0  0  0  0  0
    9.8016  -13.2662   27.9549 C   0  0  0  0  0  0  0  0  0  0  0  0
    9.6488  -14.7981   25.9871 C   0  0  2  0  0  0  0  0  0  0  0  0
    8.8076  -15.5976   25.1362 N   0  0  0  0  0  0  0  0  0  0  0  0
   10.8168  -15.6335   26.4230 C   0  0  0  0  0  0  0  0  0  0  0  0
   10.8227  -16.9807   26.0951 O   0  0  0  0  0  0  0  0  0  0  0  0
   11.7912  -15.1956   27.0656 O   0  0  0  0  0  0  0  0  0  0  0  0
  2  1  1  6
  2 13  1  0
  3  4  1  0
  3  2  1  0
  4 12  1  0
  4  5  2  0
  5  6  1  0
  7  6  1  0
  7  8  2  0
  9  8  1  0
 10  9  2  0
 11 10  1  0
 11 12  2  0
 12  7  1  0
 13 14  2  0
 16 15  1  6
 17 16  1  0
 18 16  1  0
 19 18  1  1
 20 13  1  0
 20 19  1  0
 21 19  1  0
 21 22  2  0
 23 24  1  0
 25 24  1  0
 25 26  1  6
 27 28  1  1
 27 25  1  0
 28 21  1  0
 29 27  1  0
 30 29  1  0
 31 29  2  0
M  END
$$$$
