WLI.pdb
     RDKit          3D

 31 32  0  0  1  0  0  0  0  0999 V2000
    8.3953  -16.6854   25.7518 N   0  0  0  0  0  0  0  0  0  0  0  0
    7.3762  -17.3242   24.9583 C   0  0  1  0  0  0  0  0  0  0  0  0
    5.9706  -17.0276   25.3885 C   0  0  0  0  0  0  0  0  0  0  0  0
    5.7641  -15.5730   25.5573 C   0  0  0  0  0  0  0  0  0  0  0  0
    4.5548  -14.9381   25.3184 C   0  0  0  0  0  0  0  0  0  0  0  0
    4.6873  -13.6324   25.5829 N   0  0  0  0  0  0  0  0  0  0  0  0
    5.9499  -13.3477   25.9960 C   0  0  0  0  0  0  0  0  0  0  0  0
    6.5905  -12.1932   26.3757 C   0  0  0  0  0  0  0  0  0  0  0  0
    7.9090  -12.2298   26.7431 C   0  0  0  0  0  0  0  0  0  0  0  0
    8.5899  -13.4295   26.7300 C   0  0  0  0  0  0  0  0  0  0  0  0
    7.9393  -14.5976   26.3453 C   0  0  0  0  0  0  0  0  0  0  0  0
    6.6123  -14.5753   25.9739 C   0  0  0  0  0  0  0  0  0  0  0  0
    7.4933  -16.8466   23.5448 C   0  0  0  0  0  0  0  0  0  0  0  0
    6.9824  -17.5079   22.6137 O   0  0  0  0  0  0  0  0  0  0  0  0
    7.1244  -14.6817   20.5687 C   0  0  0  0  0  0  0  0  0  0  0  0
    8.0402  -13.7934   21.4258 C   0  0  2  0  0  0  0  0  0  0  0  0
    8.1006  -12.4236   20.8487 C   0  0  0  0  0  0  0  0  0  0  0  0
    9.3375  -14.5025   21.5211 C   0  0  0  0  0  0  0  0  0  0  0  0
    9.3426  -15.7560   22.3542 C   0  0  2  0  0  0  0  0  0  0  0  0
    8.1774  -15.6481   23.2324 N   0  0  0  0  0  0  0  0  0  0  0  0
   10.5478  -15.7941   23.2277 C   0  0  0  0  0  0  0  0  0  0  0  0
   11.6689  -15.8080   22.6686 O   0  0  0  0  0  0  0  0  0  0  0  0
   10.3644  -13.5229   28.2330 C   0  0  0  0  0  0  0  0  0  0  0  0
   10.7334  -13.9474   26.8432 C   0  0  0  0  0  0  0  0  0  0  0  0
   11.3050  -15.3594   26.8926 C   0  0  2  0  0  0  0  0  0  0  0  0
   12.5278  -15.3219   27.7637 C   0  0  0  0  0  0  0  0  0  0  0  0
   11.5837  -15.8390   25.5090 C   0  0  2  0  0  0  0  0  0  0  0  0
   10.4368  -15.8140   24.6402 N   0  0  0  0  0  0  0  0  0  0  0  0
   12.1764  -17.2174   25.4759 C   0  0  0  0  0  0  0  0  0  0  0  0
   11.3288  -18.3033   25.6325 O   0  0  0  0  0  0  0  0  0  0  0  0
   13.3896  -17.4553   25.3159 O   0  0  0  0  0  0  0  0  0  0  0  0
  2  1  1  1
  2 13  1  0
  3  4  1  0
  3  2  1  0
  4 12  1  0
  4  5  2  0
  5  6  1  0
  7  6  1  0
  7  8  2  0
  9  8  1  0
 10  9  2  0
 11 10  1  0
 11 12  2  0
 12  7  1  0
 13 14  2  0
 16 15  1  6
 17 16  1  0
 18 16  1  0
 19 18  1  6
 20 13  1  0
 20 19  1  0
 21 19  1  0
 21 22  2  0
 23 24  1  0
 25 24  1  0
 25 26  1  1
 27 28  1  6
 27 25  1  0
 28 21  1  0
 29 27  1  0
 30 29  1  0
 31 29  2  0
M  END
$$$$
