WLI.pdb
     RDKit          3D

 31 32  0  0  1  0  0  0  0  0999 V2000
    5.7877  -18.2329   24.3923 N   0  0  0  0  0  0  0  0  0  0  0  0
    6.4072  -16.9321   24.4138 C   0  0  1  0  0  0  0  0  0  0  0  0
    6.7909  -16.4442   25.7788 C   0  0  0  0  0  0  0  0  0  0  0  0
    6.0699  -15.1984   26.1181 C   0  0  0  0  0  0  0  0  0  0  0  0
    4.7453  -15.1670   26.5268 C   0  0  0  0  0  0  0  0  0  0  0  0
    4.3959  -13.8994   26.7786 N   0  0  0  0  0  0  0  0  0  0  0  0
    5.4379  -13.0565   26.5556 C   0  0  0  0  0  0  0  0  0  0  0  0
    5.6010  -11.6961   26.6559 C   0  0  0  0  0  0  0  0  0  0  0  0
    6.8065  -11.1255   26.3458 C   0  0  0  0  0  0  0  0  0  0  0  0
    7.8544  -11.9219   25.9327 C   0  0  0  0  0  0  0  0  0  0  0  0
    7.6871  -13.2994   25.8318 C   0  0  0  0  0  0  0  0  0  0  0  0
    6.4796  -13.8870   26.1416 C   0  0  0  0  0  0  0  0  0  0  0  0
    7.6718  -16.9853   23.6151 C   0  0  0  0  0  0  0  0  0  0  0  0
    8.2612  -18.0754   23.4431 O   0  0  0  0  0  0  0  0  0  0  0  0
    7.4033  -14.8616   20.2544 C   0  0  0  0  0  0  0  0  0  0  0  0
    8.2558  -13.9743   21.1755 C   0  0  2  0  0  0  0  0  0  0  0  0
    8.4014  -12.6191   20.5794 C   0  0  0  0  0  0  0  0  0  0  0  0
    9.5219  -14.7084   21.4057 C   0  0  0  0  0  0  0  0  0  0  0  0
    9.4089  -15.9820   22.1998 C   0  0  2  0  0  0  0  0  0  0  0  0
    8.2241  -15.8154   23.0419 N   0  0  0  0  0  0  0  0  0  0  0  0
   10.5769  -16.1309   23.1113 C   0  0  0  0  0  0  0  0  0  0  0  0
   11.7205  -16.0379   22.6081 O   0  0  0  0  0  0  0  0  0  0  0  0
   10.4915  -14.9311   28.6006 C   0  0  0  0  0  0  0  0  0  0  0  0
   10.3566  -15.8335   27.4109 C   0  0  0  0  0  0  0  0  0  0  0  0
   11.5961  -15.6874   26.5362 C   0  0  2  0  0  0  0  0  0  0  0  0
   11.6890  -14.2472   26.1207 C   0  0  0  0  0  0  0  0  0  0  0  0
   11.5124  -16.6275   25.3823 C   0  0  2  0  0  0  0  0  0  0  0  0
   10.4071  -16.3692   24.4977 N   0  0  0  0  0  0  0  0  0  0  0  0
   11.4592  -18.0670   25.8032 C   0  0  0  0  0  0  0  0  0  0  0  0
   12.5333  -18.5878   26.5085 O   0  0  0  0  0  0  0  0  0  0  0  0
   10.5069  -18.8339   25.5602 O   0  0  0  0  0  0  0  0  0  0  0  0
  2  1  1  1
  2 13  1  0
  3  4  1  0
  3  2  1  0
  4 12  1  0
  4  5  2  0
  5  6  1  0
  7  6  1  0
  7  8  2  0
  9  8  1  0
 10  9  2  0
 11 10  1  0
 11 12  2  0
 12  7  1  0
 13 14  2  0
 16 15  1  6
 17 16  1  0
 18 16  1  0
 19 18  1  6
 20 13  1  0
 20 19  1  0
 21 19  1  0
 21 22  2  0
 23 24  1  0
 25 24  1  0
 25 26  1  6
 27 28  1  1
 27 25  1  0
 28 21  1  0
 29 27  1  0
 30 29  1  0
 31 29  2  0
M  END
$$$$
