WLI.pdb
     RDKit          3D

 31 32  0  0  1  0  0  0  0  0999 V2000
    5.4901  -17.3786   23.7685 N   0  0  0  0  0  0  0  0  0  0  0  0
    6.4576  -16.3127   23.7046 C   0  0  1  0  0  0  0  0  0  0  0  0
    7.1174  -15.9874   25.0113 C   0  0  0  0  0  0  0  0  0  0  0  0
    6.3614  -14.9473   25.7420 C   0  0  0  0  0  0  0  0  0  0  0  0
    5.2123  -15.2070   26.4732 C   0  0  0  0  0  0  0  0  0  0  0  0
    4.7823  -14.0680   27.0300 N   0  0  0  0  0  0  0  0  0  0  0  0
    5.5987  -13.0318   26.7050 C   0  0  0  0  0  0  0  0  0  0  0  0
    5.6012  -11.6909   27.0043 C   0  0  0  0  0  0  0  0  0  0  0  0
    6.5848  -10.8791   26.5057 C   0  0  0  0  0  0  0  0  0  0  0  0
    7.5712  -11.4132   25.7027 C   0  0  0  0  0  0  0  0  0  0  0  0
    7.5668  -12.7714   25.4010 C   0  0  0  0  0  0  0  0  0  0  0  0
    6.5835  -13.6001   25.8967 C   0  0  0  0  0  0  0  0  0  0  0  0
    7.5543  -16.7102   22.7670 C   0  0  0  0  0  0  0  0  0  0  0  0
    7.2812  -17.1014   21.6104 O   0  0  0  0  0  0  0  0  0  0  0  0
    9.0843  -14.9546   19.7783 C   0  0  0  0  0  0  0  0  0  0  0  0
    8.1379  -14.5439   20.9176 C   0  0  2  0  0  0  0  0  0  0  0  0
    7.4575  -13.2662   20.5743 C   0  0  0  0  0  0  0  0  0  0  0  0
    8.9582  -14.5176   22.1511 C   0  0  0  0  0  0  0  0  0  0  0  0
    9.7850  -15.7466   22.4177 C   0  0  2  0  0  0  0  0  0  0  0  0
    8.9114  -16.6530   23.1632 N   0  0  0  0  0  0  0  0  0  0  0  0
   10.9343  -15.4168   23.3052 C   0  0  0  0  0  0  0  0  0  0  0  0
   12.0538  -15.2528   22.7673 O   0  0  0  0  0  0  0  0  0  0  0  0
   10.3020  -15.6335   29.1178 C   0  0  0  0  0  0  0  0  0  0  0  0
   10.5356  -16.1285   27.7219 C   0  0  0  0  0  0  0  0  0  0  0  0
   11.5482  -15.2181   27.0373 C   0  0  2  0  0  0  0  0  0  0  0  0
   11.0123  -13.8166   27.1020 C   0  0  0  0  0  0  0  0  0  0  0  0
   11.7901  -15.6909   25.6444 C   0  0  2  0  0  0  0  0  0  0  0  0
   10.7733  -15.2919   24.7075 N   0  0  0  0  0  0  0  0  0  0  0  0
   11.9640  -17.1787   25.5536 C   0  0  0  0  0  0  0  0  0  0  0  0
   13.0950  -17.7461   26.1204 O   0  0  0  0  0  0  0  0  0  0  0  0
   11.1540  -17.9468   24.9985 O   0  0  0  0  0  0  0  0  0  0  0  0
  2  1  1  1
  2 13  1  0
  3  4  1  0
  3  2  1  0
  4 12  1  0
  4  5  2  0
  5  6  1  0
  7  6  1  0
  7  8  2  0
  9  8  1  0
 10  9  2  0
 11 10  1  0
 11 12  2  0
 12  7  1  0
 13 14  2  0
 16 15  1  6
 17 16  1  0
 18 16  1  0
 19 18  1  1
 20 13  1  0
 20 19  1  0
 21 19  1  0
 21 22  2  0
 23 24  1  0
 25 24  1  0
 25 26  1  6
 27 28  1  6
 27 25  1  0
 28 21  1  0
 29 27  1  0
 30 29  1  0
 31 29  2  0
M  END
$$$$
