WLI.pdb
     RDKit          3D

 31 32  0  0  1  0  0  0  0  0999 V2000
    9.4794  -20.2449   24.7211 N   0  0  0  0  0  0  0  0  0  0  0  0
    9.4421  -18.8193   24.9277 C   0  0  1  0  0  0  0  0  0  0  0  0
   10.6555  -18.2528   25.6025 C   0  0  0  0  0  0  0  0  0  0  0  0
   10.3688  -17.9183   27.0142 C   0  0  0  0  0  0  0  0  0  0  0  0
   10.0567  -18.8654   27.9777 C   0  0  0  0  0  0  0  0  0  0  0  0
    9.8754  -18.2497   29.1526 N   0  0  0  0  0  0  0  0  0  0  0  0
   10.0522  -16.9084   29.0287 C   0  0  0  0  0  0  0  0  0  0  0  0
    9.9789  -15.8528   29.9051 C   0  0  0  0  0  0  0  0  0  0  0  0
   10.2102  -14.5776   29.4633 C   0  0  0  0  0  0  0  0  0  0  0  0
   10.5164  -14.3582   28.1362 C   0  0  0  0  0  0  0  0  0  0  0  0
   10.5902  -15.4285   27.2503 C   0  0  0  0  0  0  0  0  0  0  0  0
   10.3606  -16.7172   27.6817 C   0  0  0  0  0  0  0  0  0  0  0  0
    9.3445  -18.1400   23.5977 C   0  0  0  0  0  0  0  0  0  0  0  0
   10.2536  -18.2839   22.7503 O   0  0  0  0  0  0  0  0  0  0  0  0
    5.5634  -14.4885   20.5363 C   0  0  0  0  0  0  0  0  0  0  0  0
    7.0488  -14.7868   20.7950 C   0  0  2  0  0  0  0  0  0  0  0  0
    7.7265  -15.1279   19.5154 C   0  0  0  0  0  0  0  0  0  0  0  0
    7.0868  -15.8397   21.8366 C   0  0  0  0  0  0  0  0  0  0  0  0
    8.4560  -16.2488   22.3090 C   0  0  2  0  0  0  0  0  0  0  0  0
    8.2328  -17.3278   23.2716 N   0  0  0  0  0  0  0  0  0  0  0  0
    9.1063  -15.1308   23.0467 C   0  0  0  0  0  0  0  0  0  0  0  0
    9.8787  -14.3832   22.4032 O   0  0  0  0  0  0  0  0  0  0  0  0
    5.6877  -12.5906   26.0959 C   0  0  0  0  0  0  0  0  0  0  0  0
    6.7915  -13.0009   25.1679 C   0  0  0  0  0  0  0  0  0  0  0  0
    8.0738  -13.1783   25.9725 C   0  0  2  0  0  0  0  0  0  0  0  0
    8.3878  -11.8597   26.6192 C   0  0  0  0  0  0  0  0  0  0  0  0
    9.1635  -13.6702   25.0821 C   0  0  2  0  0  0  0  0  0  0  0  0
    8.8641  -14.9156   24.4262 N   0  0  0  0  0  0  0  0  0  0  0  0
   10.4794  -13.8091   25.7901 C   0  0  0  0  0  0  0  0  0  0  0  0
   11.0341  -15.0743   25.9084 O   0  0  0  0  0  0  0  0  0  0  0  0
   11.1140  -12.8564   26.2838 O   0  0  0  0  0  0  0  0  0  0  0  0
  2  1  1  6
  2 13  1  0
  3  4  1  0
  3  2  1  0
  4 12  1  0
  4  5  2  0
  5  6  1  0
  7  6  1  0
  7  8  2  0
  9  8  1  0
 10  9  2  0
 11 10  1  0
 11 12  2  0
 12  7  1  0
 13 14  2  0
 16 15  1  6
 17 16  1  0
 18 16  1  0
 19 18  1  1
 20 13  1  0
 20 19  1  0
 21 19  1  0
 21 22  2  0
 23 24  1  0
 25 24  1  0
 25 26  1  6
 27 28  1  1
 27 25  1  0
 28 21  1  0
 29 27  1  0
 30 29  1  0
 31 29  2  0
M  END
$$$$
