WLI.pdb
     RDKit          3D

 31 32  0  0  1  0  0  0  0  0999 V2000
    6.2272  -18.3798   24.0942 N   0  0  0  0  0  0  0  0  0  0  0  0
    6.6693  -17.0171   24.2483 C   0  0  1  0  0  0  0  0  0  0  0  0
    6.9192  -16.5968   25.6659 C   0  0  0  0  0  0  0  0  0  0  0  0
    6.0720  -15.4415   26.0329 C   0  0  0  0  0  0  0  0  0  0  0  0
    4.7789  -15.5633   26.5185 C   0  0  0  0  0  0  0  0  0  0  0  0
    4.2925  -14.3429   26.7761 N   0  0  0  0  0  0  0  0  0  0  0  0
    5.2095  -13.3843   26.4829 C   0  0  0  0  0  0  0  0  0  0  0  0
    5.2109  -12.0125   26.5582 C   0  0  0  0  0  0  0  0  0  0  0  0
    6.3181  -11.3058   26.1714 C   0  0  0  0  0  0  0  0  0  0  0  0
    7.4302  -11.9768   25.7063 C   0  0  0  0  0  0  0  0  0  0  0  0
    7.4266  -13.3661   25.6309 C   0  0  0  0  0  0  0  0  0  0  0  0
    6.3194  -14.0899   26.0177 C   0  0  0  0  0  0  0  0  0  0  0  0
    7.9672  -16.8444   23.5233 C   0  0  0  0  0  0  0  0  0  0  0  0
    8.7616  -17.8053   23.4194 O   0  0  0  0  0  0  0  0  0  0  0  0
    7.4971  -14.5050   20.2216 C   0  0  0  0  0  0  0  0  0  0  0  0
    8.2174  -13.6238   21.2545 C   0  0  2  0  0  0  0  0  0  0  0  0
    8.2243  -12.2088   20.7952 C   0  0  0  0  0  0  0  0  0  0  0  0
    9.5519  -14.2326   21.4627 C   0  0  0  0  0  0  0  0  0  0  0  0
    9.5666  -15.5572   22.1773 C   0  0  2  0  0  0  0  0  0  0  0  0
    8.3215  -15.6030   22.9443 N   0  0  0  0  0  0  0  0  0  0  0  0
   10.6870  -15.6064   23.1568 C   0  0  0  0  0  0  0  0  0  0  0  0
   11.8537  -15.5258   22.7076 O   0  0  0  0  0  0  0  0  0  0  0  0
   10.5790  -13.6390   28.3169 C   0  0  0  0  0  0  0  0  0  0  0  0
   11.0219  -14.0358   26.9406 C   0  0  0  0  0  0  0  0  0  0  0  0
   11.1716  -15.5516   26.8870 C   0  0  2  0  0  0  0  0  0  0  0  0
   12.2207  -15.9380   27.8898 C   0  0  0  0  0  0  0  0  0  0  0  0
   11.5027  -15.9766   25.4970 C   0  0  2  0  0  0  0  0  0  0  0  0
   10.4481  -15.7395   24.5472 N   0  0  0  0  0  0  0  0  0  0  0  0
   11.9092  -17.4184   25.4074 C   0  0  0  0  0  0  0  0  0  0  0  0
   10.9150  -18.3777   25.2906 O   0  0  0  0  0  0  0  0  0  0  0  0
   13.0903  -17.8167   25.4309 O   0  0  0  0  0  0  0  0  0  0  0  0
  2  1  1  1
  2 13  1  0
  3  4  1  0
  3  2  1  0
  4 12  1  0
  4  5  2  0
  5  6  1  0
  7  6  1  0
  7  8  2  0
  9  8  1  0
 10  9  2  0
 11 10  1  0
 11 12  2  0
 12  7  1  0
 13 14  2  0
 16 15  1  6
 17 16  1  0
 18 16  1  0
 19 18  1  1
 20 13  1  0
 20 19  1  0
 21 19  1  0
 21 22  2  0
 23 24  1  0
 25 24  1  0
 25 26  1  1
 27 28  1  6
 27 25  1  0
 28 21  1  0
 29 27  1  0
 30 29  1  0
 31 29  2  0
M  END
$$$$
