WLI.pdb
     RDKit          3D

 31 32  0  0  1  0  0  0  0  0999 V2000
    6.3038  -18.4953   24.5264 N   0  0  0  0  0  0  0  0  0  0  0  0
    6.6583  -17.0987   24.5261 C   0  0  1  0  0  0  0  0  0  0  0  0
    6.9741  -16.5329   25.8784 C   0  0  0  0  0  0  0  0  0  0  0  0
    6.3038  -15.2297   26.0770 C   0  0  0  0  0  0  0  0  0  0  0  0
    4.9263  -15.0741   26.1115 C   0  0  0  0  0  0  0  0  0  0  0  0
    4.6378  -13.7849   26.3283 N   0  0  0  0  0  0  0  0  0  0  0  0
    5.7730  -13.0474   26.4437 C   0  0  0  0  0  0  0  0  0  0  0  0
    6.0251  -11.7142   26.6594 C   0  0  0  0  0  0  0  0  0  0  0  0
    7.3160  -11.2617   26.7204 C   0  0  0  0  0  0  0  0  0  0  0  0
    8.3603  -12.1494   26.5644 C   0  0  0  0  0  0  0  0  0  0  0  0
    8.1029  -13.4992   26.3461 C   0  0  0  0  0  0  0  0  0  0  0  0
    6.8085  -13.9684   26.2832 C   0  0  0  0  0  0  0  0  0  0  0  0
    7.8883  -16.9118   23.6941 C   0  0  0  0  0  0  0  0  0  0  0  0
    8.6214  -17.8900   23.4278 O   0  0  0  0  0  0  0  0  0  0  0  0
    7.9535  -14.8222   19.9076 C   0  0  0  0  0  0  0  0  0  0  0  0
    8.1526  -13.8046   21.0422 C   0  0  2  0  0  0  0  0  0  0  0  0
    8.1220  -12.4223   20.4932 C   0  0  0  0  0  0  0  0  0  0  0  0
    9.4068  -14.1890   21.7309 C   0  0  0  0  0  0  0  0  0  0  0  0
    9.4292  -15.5667   22.3365 C   0  0  2  0  0  0  0  0  0  0  0  0
    8.2464  -15.6373   23.1947 N   0  0  0  0  0  0  0  0  0  0  0  0
   10.6195  -15.7278   23.2165 C   0  0  0  0  0  0  0  0  0  0  0  0
   11.7502  -15.6166   22.6886 O   0  0  0  0  0  0  0  0  0  0  0  0
   10.4756  -15.5475   29.0110 C   0  0  0  0  0  0  0  0  0  0  0  0
   10.5129  -16.2235   27.6733 C   0  0  0  0  0  0  0  0  0  0  0  0
   11.5058  -15.4926   26.7772 C   0  0  2  0  0  0  0  0  0  0  0  0
   11.0372  -14.0716   26.6482 C   0  0  0  0  0  0  0  0  0  0  0  0
   11.6157  -16.1962   25.4676 C   0  0  2  0  0  0  0  0  0  0  0  0
   10.4842  -15.9970   24.6011 N   0  0  0  0  0  0  0  0  0  0  0  0
   11.8497  -17.6713   25.6140 C   0  0  0  0  0  0  0  0  0  0  0  0
   13.0294  -18.0961   26.2057 O   0  0  0  0  0  0  0  0  0  0  0  0
   11.0490  -18.5491   25.2367 O   0  0  0  0  0  0  0  0  0  0  0  0
  2  1  1  1
  2 13  1  0
  3  4  1  0
  3  2  1  0
  4 12  1  0
  4  5  2  0
  5  6  1  0
  7  6  1  0
  7  8  2  0
  9  8  1  0
 10  9  2  0
 11 10  1  0
 11 12  2  0
 12  7  1  0
 13 14  2  0
 16 15  1  6
 17 16  1  0
 18 16  1  0
 19 18  1  1
 20 13  1  0
 20 19  1  0
 21 19  1  0
 21 22  2  0
 23 24  1  0
 25 24  1  0
 25 26  1  6
 27 28  1  1
 27 25  1  0
 28 21  1  0
 29 27  1  0
 30 29  1  0
 31 29  2  0
M  END
$$$$
