WLI.pdb
     RDKit          3D

 31 32  0  0  1  0  0  0  0  0999 V2000
    6.1491  -19.6339   23.5582 N   0  0  0  0  0  0  0  0  0  0  0  0
    6.9756  -18.8119   24.4053 C   0  0  1  0  0  0  0  0  0  0  0  0
    7.9264  -19.5728   25.2803 C   0  0  0  0  0  0  0  0  0  0  0  0
    7.6277  -19.3450   26.7107 C   0  0  0  0  0  0  0  0  0  0  0  0
    6.4093  -19.6519   27.2972 C   0  0  0  0  0  0  0  0  0  0  0  0
    6.4637  -19.3503   28.6004 N   0  0  0  0  0  0  0  0  0  0  0  0
    7.6809  -18.8448   28.9300 C   0  0  0  0  0  0  0  0  0  0  0  0
    8.2376  -18.3878   30.1000 C   0  0  0  0  0  0  0  0  0  0  0  0
    9.5245  -17.9204   30.1101 C   0  0  0  0  0  0  0  0  0  0  0  0
   10.2582  -17.9105   28.9418 C   0  0  0  0  0  0  0  0  0  0  0  0
    9.6926  -18.3739   27.7581 C   0  0  0  0  0  0  0  0  0  0  0  0
    8.3987  -18.8478   27.7338 C   0  0  0  0  0  0  0  0  0  0  0  0
    7.8165  -17.9220   23.5445 C   0  0  0  0  0  0  0  0  0  0  0  0
    8.6298  -18.4180   22.7336 O   0  0  0  0  0  0  0  0  0  0  0  0
    7.7554  -14.9963   20.1002 C   0  0  0  0  0  0  0  0  0  0  0  0
    6.9384  -14.5939   21.3384 C   0  0  2  0  0  0  0  0  0  0  0  0
    6.1426  -13.3719   21.0441 C   0  0  0  0  0  0  0  0  0  0  0  0
    7.9059  -14.4709   22.4536 C   0  0  0  0  0  0  0  0  0  0  0  0
    8.6474  -15.7276   22.8229 C   0  0  2  0  0  0  0  0  0  0  0  0
    7.7114  -16.5134   23.6272 N   0  0  0  0  0  0  0  0  0  0  0  0
    9.8116  -15.4066   23.6940 C   0  0  0  0  0  0  0  0  0  0  0  0
   10.8674  -15.0293   23.1350 O   0  0  0  0  0  0  0  0  0  0  0  0
    9.0323  -14.0126   29.1106 C   0  0  0  0  0  0  0  0  0  0  0  0
    9.3925  -14.9276   27.9788 C   0  0  0  0  0  0  0  0  0  0  0  0
   10.4066  -14.2286   27.0811 C   0  0  2  0  0  0  0  0  0  0  0  0
    9.7776  -12.9541   26.5956 C   0  0  0  0  0  0  0  0  0  0  0  0
   10.8142  -15.1411   25.9751 C   0  0  2  0  0  0  0  0  0  0  0  0
    9.7338  -15.5218   25.1041 N   0  0  0  0  0  0  0  0  0  0  0  0
   11.4928  -16.3869   26.4647 C   0  0  0  0  0  0  0  0  0  0  0  0
   12.6923  -16.2590   27.1483 O   0  0  0  0  0  0  0  0  0  0  0  0
   11.0482  -17.5395   26.2976 O   0  0  0  0  0  0  0  0  0  0  0  0
  2  1  1  6
  2 13  1  0
  3  4  1  0
  3  2  1  0
  4 12  1  0
  4  5  2  0
  5  6  1  0
  7  6  1  0
  7  8  2  0
  9  8  1  0
 10  9  2  0
 11 10  1  0
 11 12  2  0
 12  7  1  0
 13 14  2  0
 16 15  1  6
 17 16  1  0
 18 16  1  0
 19 18  1  1
 20 13  1  0
 20 19  1  0
 21 19  1  0
 21 22  2  0
 23 24  1  0
 25 24  1  0
 25 26  1  6
 27 28  1  1
 27 25  1  0
 28 21  1  0
 29 27  1  0
 30 29  1  0
 31 29  2  0
M  END
$$$$
