WLI.pdb
     RDKit          3D

 31 32  0  0  1  0  0  0  0  0999 V2000
    5.4118  -17.9494   23.1894 N   0  0  0  0  0  0  0  0  0  0  0  0
    6.1828  -16.8373   23.6844 C   0  0  1  0  0  0  0  0  0  0  0  0
    6.5165  -16.9078   25.1447 C   0  0  0  0  0  0  0  0  0  0  0  0
    6.1417  -15.6547   25.8348 C   0  0  0  0  0  0  0  0  0  0  0  0
    4.9077  -15.4489   26.4327 C   0  0  0  0  0  0  0  0  0  0  0  0
    4.8890  -14.2307   26.9876 N   0  0  0  0  0  0  0  0  0  0  0  0
    6.0710  -13.5906   26.7903 C   0  0  0  0  0  0  0  0  0  0  0  0
    6.5548  -12.3537   27.1419 C   0  0  0  0  0  0  0  0  0  0  0  0
    7.8232  -11.9855   26.7803 C   0  0  0  0  0  0  0  0  0  0  0  0
    8.6113  -12.8610   26.0623 C   0  0  0  0  0  0  0  0  0  0  0  0
    8.1195  -14.1132   25.7074 C   0  0  0  0  0  0  0  0  0  0  0  0
    6.8452  -14.4970   26.0655 C   0  0  0  0  0  0  0  0  0  0  0  0
    7.4893  -16.7918   22.9559 C   0  0  0  0  0  0  0  0  0  0  0  0
    8.0927  -17.8527   22.6808 O   0  0  0  0  0  0  0  0  0  0  0  0
    8.0315  -14.8778   19.3883 C   0  0  0  0  0  0  0  0  0  0  0  0
    8.3259  -13.8339   20.4773 C   0  0  2  0  0  0  0  0  0  0  0  0
    8.4377  -12.4825   19.8655 C   0  0  0  0  0  0  0  0  0  0  0  0
    9.5312  -14.3099   21.1953 C   0  0  0  0  0  0  0  0  0  0  0  0
    9.3850  -15.6129   21.9344 C   0  0  2  0  0  0  0  0  0  0  0  0
    8.0661  -15.5602   22.5655 N   0  0  0  0  0  0  0  0  0  0  0  0
   10.3910  -15.7051   23.0283 C   0  0  0  0  0  0  0  0  0  0  0  0
   11.6015  -15.6703   22.7073 O   0  0  0  0  0  0  0  0  0  0  0  0
    8.9816  -13.7172   27.9230 C   0  0  0  0  0  0  0  0  0  0  0  0
    9.8587  -13.9769   26.7350 C   0  0  0  0  0  0  0  0  0  0  0  0
   10.3410  -15.4219   26.7828 C   0  0  2  0  0  0  0  0  0  0  0  0
   11.3032  -15.5396   27.9300 C   0  0  0  0  0  0  0  0  0  0  0  0
   10.9421  -15.7963   25.4711 C   0  0  2  0  0  0  0  0  0  0  0  0
    9.9992  -15.8280   24.3845 N   0  0  0  0  0  0  0  0  0  0  0  0
   11.6651  -17.1107   25.5128 C   0  0  0  0  0  0  0  0  0  0  0  0
   12.8308  -17.1986   26.2583 O   0  0  0  0  0  0  0  0  0  0  0  0
   11.2863  -18.1385   24.9178 O   0  0  0  0  0  0  0  0  0  0  0  0
  2  1  1  6
  2 13  1  0
  3  4  1  0
  3  2  1  0
  4 12  1  0
  4  5  2  0
  5  6  1  0
  7  6  1  0
  7  8  2  0
  9  8  1  0
 10  9  2  0
 11 10  1  0
 11 12  2  0
 12  7  1  0
 13 14  2  0
 16 15  1  6
 17 16  1  0
 18 16  1  0
 19 18  1  1
 20 13  1  0
 20 19  1  0
 21 19  1  0
 21 22  2  0
 23 24  1  0
 25 24  1  0
 25 26  1  1
 27 28  1  6
 27 25  1  0
 28 21  1  0
 29 27  1  0
 30 29  1  0
 31 29  2  0
M  END
$$$$
