WLI.pdb
     RDKit          3D

 31 32  0  0  1  0  0  0  0  0999 V2000
    6.0313  -18.2722   23.9180 N   0  0  0  0  0  0  0  0  0  0  0  0
    6.5926  -16.9664   24.1548 C   0  0  1  0  0  0  0  0  0  0  0  0
    6.9110  -16.6731   25.5905 C   0  0  0  0  0  0  0  0  0  0  0  0
    6.2667  -15.4166   26.0299 C   0  0  0  0  0  0  0  0  0  0  0  0
    4.9730  -15.3512   26.5245 C   0  0  0  0  0  0  0  0  0  0  0  0
    4.6948  -14.0836   26.8536 N   0  0  0  0  0  0  0  0  0  0  0  0
    5.7559  -13.2737   26.6008 C   0  0  0  0  0  0  0  0  0  0  0  0
    5.9832  -11.9270   26.7498 C   0  0  0  0  0  0  0  0  0  0  0  0
    7.1902  -11.3913   26.3876 C   0  0  0  0  0  0  0  0  0  0  0  0
    8.1750  -12.2090   25.8731 C   0  0  0  0  0  0  0  0  0  0  0  0
    7.9427  -13.5725   25.7230 C   0  0  0  0  0  0  0  0  0  0  0  0
    6.7330  -14.1251   26.0843 C   0  0  0  0  0  0  0  0  0  0  0  0
    7.8831  -16.8513   23.4057 C   0  0  0  0  0  0  0  0  0  0  0  0
    8.5900  -17.8652   23.2120 O   0  0  0  0  0  0  0  0  0  0  0  0
    8.1257  -14.8526   19.5957 C   0  0  0  0  0  0  0  0  0  0  0  0
    8.3538  -13.8362   20.7258 C   0  0  2  0  0  0  0  0  0  0  0  0
    8.3755  -12.4569   20.1689 C   0  0  0  0  0  0  0  0  0  0  0  0
    9.5893  -14.2607   21.4245 C   0  0  0  0  0  0  0  0  0  0  0  0
    9.5405  -15.6125   22.0845 C   0  0  2  0  0  0  0  0  0  0  0  0
    8.3285  -15.6055   22.9041 N   0  0  0  0  0  0  0  0  0  0  0  0
   10.6946  -15.7803   23.0103 C   0  0  0  0  0  0  0  0  0  0  0  0
   11.8434  -15.7803   22.5106 O   0  0  0  0  0  0  0  0  0  0  0  0
   10.3296  -14.7927   28.6254 C   0  0  0  0  0  0  0  0  0  0  0  0
   10.3865  -15.6896   27.4253 C   0  0  0  0  0  0  0  0  0  0  0  0
   11.5335  -15.2417   26.5270 C   0  0  2  0  0  0  0  0  0  0  0  0
   11.3094  -13.7942   26.1956 C   0  0  0  0  0  0  0  0  0  0  0  0
   11.6012  -16.1167   25.3220 C   0  0  2  0  0  0  0  0  0  0  0  0
   10.5063  -15.9348   24.4062 N   0  0  0  0  0  0  0  0  0  0  0  0
   11.7001  -17.5748   25.6628 C   0  0  0  0  0  0  0  0  0  0  0  0
   12.8028  -18.0107   26.3813 O   0  0  0  0  0  0  0  0  0  0  0  0
   10.8511  -18.4292   25.3412 O   0  0  0  0  0  0  0  0  0  0  0  0
  2  1  1  1
  2 13  1  0
  3  4  1  0
  3  2  1  0
  4 12  1  0
  4  5  2  0
  5  6  1  0
  7  6  1  0
  7  8  2  0
  9  8  1  0
 10  9  2  0
 11 10  1  0
 11 12  2  0
 12  7  1  0
 13 14  2  0
 16 15  1  6
 17 16  1  0
 18 16  1  0
 19 18  1  1
 20 13  1  0
 20 19  1  0
 21 19  1  0
 21 22  2  0
 23 24  1  0
 25 24  1  0
 25 26  1  6
 27 28  1  6
 27 25  1  0
 28 21  1  0
 29 27  1  0
 30 29  1  0
 31 29  2  0
M  END
$$$$
