WLI.pdb
     RDKit          3D

 31 32  0  0  1  0  0  0  0  0999 V2000
    5.9368  -18.2258   24.1688 N   0  0  0  0  0  0  0  0  0  0  0  0
    6.4494  -16.8803   24.2256 C   0  0  1  0  0  0  0  0  0  0  0  0
    6.8478  -16.4198   25.5959 C   0  0  0  0  0  0  0  0  0  0  0  0
    6.1436  -15.1716   25.9608 C   0  0  0  0  0  0  0  0  0  0  0  0
    4.7785  -15.1024   26.1943 C   0  0  0  0  0  0  0  0  0  0  0  0
    4.4550  -13.8457   26.5236 N   0  0  0  0  0  0  0  0  0  0  0  0
    5.5540  -13.0470   26.5239 C   0  0  0  0  0  0  0  0  0  0  0  0
    5.7624  -11.7134   26.7800 C   0  0  0  0  0  0  0  0  0  0  0  0
    7.0229  -11.1865   26.6884 C   0  0  0  0  0  0  0  0  0  0  0  0
    8.0807  -11.9999   26.3381 C   0  0  0  0  0  0  0  0  0  0  0  0
    7.8675  -13.3502   26.0792 C   0  0  0  0  0  0  0  0  0  0  0  0
    6.6042  -13.8938   26.1685 C   0  0  0  0  0  0  0  0  0  0  0  0
    7.6804  -16.7953   23.3786 C   0  0  0  0  0  0  0  0  0  0  0  0
    8.3449  -17.8258   23.1305 O   0  0  0  0  0  0  0  0  0  0  0  0
    7.6363  -14.8171   19.7379 C   0  0  0  0  0  0  0  0  0  0  0  0
    8.0710  -13.7876   20.7931 C   0  0  2  0  0  0  0  0  0  0  0  0
    8.0780  -12.4246   20.1972 C   0  0  0  0  0  0  0  0  0  0  0  0
    9.3721  -14.2582   21.3227 C   0  0  0  0  0  0  0  0  0  0  0  0
    9.3478  -15.5730   22.0548 C   0  0  2  0  0  0  0  0  0  0  0  0
    8.1161  -15.5597   22.8444 N   0  0  0  0  0  0  0  0  0  0  0  0
   10.4831  -15.6538   23.0149 C   0  0  0  0  0  0  0  0  0  0  0  0
   11.6431  -15.6600   22.5418 O   0  0  0  0  0  0  0  0  0  0  0  0
   10.5096  -13.1606   27.8488 C   0  0  0  0  0  0  0  0  0  0  0  0
   10.9175  -13.7485   26.5313 C   0  0  0  0  0  0  0  0  0  0  0  0
   11.0677  -15.2571   26.6880 C   0  0  2  0  0  0  0  0  0  0  0  0
   12.1608  -15.5010   27.6886 C   0  0  0  0  0  0  0  0  0  0  0  0
   11.3379  -15.8775   25.3598 C   0  0  2  0  0  0  0  0  0  0  0  0
   10.2652  -15.7214   24.4134 N   0  0  0  0  0  0  0  0  0  0  0  0
   11.6816  -17.3352   25.4541 C   0  0  0  0  0  0  0  0  0  0  0  0
   12.9534  -17.6865   25.8802 O   0  0  0  0  0  0  0  0  0  0  0  0
   10.8951  -18.2607   25.1731 O   0  0  0  0  0  0  0  0  0  0  0  0
  2  1  1  1
  2 13  1  0
  3  4  1  0
  3  2  1  0
  4 12  1  0
  4  5  2  0
  5  6  1  0
  7  6  1  0
  7  8  2  0
  9  8  1  0
 10  9  2  0
 11 10  1  0
 11 12  2  0
 12  7  1  0
 13 14  2  0
 16 15  1  6
 17 16  1  0
 18 16  1  0
 19 18  1  1
 20 13  1  0
 20 19  1  0
 21 19  1  0
 21 22  2  0
 23 24  1  0
 25 24  1  0
 25 26  1  1
 27 28  1  6
 27 25  1  0
 28 21  1  0
 29 27  1  0
 30 29  1  0
 31 29  2  0
M  END
$$$$
