WLI.pdb
     RDKit          3D

 31 32  0  0  1  0  0  0  0  0999 V2000
    6.1254  -18.8722   24.2529 N   0  0  0  0  0  0  0  0  0  0  0  0
    6.3387  -17.4584   24.4307 C   0  0  1  0  0  0  0  0  0  0  0  0
    6.7138  -17.0526   25.8248 C   0  0  0  0  0  0  0  0  0  0  0  0
    6.2560  -15.6771   26.1174 C   0  0  0  0  0  0  0  0  0  0  0  0
    4.9241  -15.2919   26.0945 C   0  0  0  0  0  0  0  0  0  0  0  0
    4.8384  -13.9971   26.4239 N   0  0  0  0  0  0  0  0  0  0  0  0
    6.0691  -13.4781   26.6724 C   0  0  0  0  0  0  0  0  0  0  0  0
    6.5226  -12.2326   27.0336 C   0  0  0  0  0  0  0  0  0  0  0  0
    7.8632  -12.0150   27.2077 C   0  0  0  0  0  0  0  0  0  0  0  0
    8.7547  -13.0506   27.0189 C   0  0  0  0  0  0  0  0  0  0  0  0
    8.2934  -14.3113   26.6531 C   0  0  0  0  0  0  0  0  0  0  0  0
    6.9468  -14.5445   26.4753 C   0  0  0  0  0  0  0  0  0  0  0  0
    7.4668  -17.0243   23.5482 C   0  0  0  0  0  0  0  0  0  0  0  0
    8.3652  -17.8355   23.2321 O   0  0  0  0  0  0  0  0  0  0  0  0
    8.6043  -12.1665   20.0996 C   0  0  0  0  0  0  0  0  0  0  0  0
    8.8613  -13.6671   20.3107 C   0  0  2  0  0  0  0  0  0  0  0  0
    8.2081  -14.4495   19.2271 C   0  0  0  0  0  0  0  0  0  0  0  0
    8.4048  -13.9783   21.6854 C   0  0  0  0  0  0  0  0  0  0  0  0
    8.6539  -15.3852   22.1587 C   0  0  2  0  0  0  0  0  0  0  0  0
    7.5420  -15.6999   23.0560 N   0  0  0  0  0  0  0  0  0  0  0  0
    9.9018  -15.4472   22.9687 C   0  0  0  0  0  0  0  0  0  0  0  0
   10.9936  -15.3870   22.3571 O   0  0  0  0  0  0  0  0  0  0  0  0
    9.7101  -13.5966   28.1545 C   0  0  0  0  0  0  0  0  0  0  0  0
   10.1335  -13.8262   26.7347 C   0  0  0  0  0  0  0  0  0  0  0  0
   10.7809  -15.2019   26.6279 C   0  0  2  0  0  0  0  0  0  0  0  0
   12.0240  -15.1831   27.4703 C   0  0  0  0  0  0  0  0  0  0  0  0
   11.0457  -15.5246   25.1969 C   0  0  2  0  0  0  0  0  0  0  0  0
    9.8620  -15.5696   24.3798 N   0  0  0  0  0  0  0  0  0  0  0  0
   11.7980  -16.8105   25.0168 C   0  0  0  0  0  0  0  0  0  0  0  0
   11.1588  -17.8652   24.3833 O   0  0  0  0  0  0  0  0  0  0  0  0
   12.9691  -16.9975   25.4011 O   0  0  0  0  0  0  0  0  0  0  0  0
  2  1  1  1
  2 13  1  0
  3  4  1  0
  3  2  1  0
  4 12  1  0
  4  5  2  0
  5  6  1  0
  7  6  1  0
  7  8  2  0
  9  8  1  0
 10  9  2  0
 11 10  1  0
 11 12  2  0
 12  7  1  0
 13 14  2  0
 16 15  1  6
 17 16  1  0
 18 16  1  0
 19 18  1  1
 20 13  1  0
 20 19  1  0
 21 19  1  0
 21 22  2  0
 23 24  1  0
 25 24  1  0
 25 26  1  1
 27 28  1  6
 27 25  1  0
 28 21  1  0
 29 27  1  0
 30 29  1  0
 31 29  2  0
M  END
$$$$
