WLI.pdb
     RDKit          3D

 31 32  0  0  1  0  0  0  0  0999 V2000
    6.1014  -18.9545   24.5802 N   0  0  0  0  0  0  0  0  0  0  0  0
    6.2595  -17.5231   24.6280 C   0  0  1  0  0  0  0  0  0  0  0  0
    6.7279  -16.9890   25.9486 C   0  0  0  0  0  0  0  0  0  0  0  0
    6.1112  -15.6763   26.2379 C   0  0  0  0  0  0  0  0  0  0  0  0
    4.7451  -15.4867   26.3815 C   0  0  0  0  0  0  0  0  0  0  0  0
    4.5100  -14.1984   26.6595 N   0  0  0  0  0  0  0  0  0  0  0  0
    5.6708  -13.4945   26.7114 C   0  0  0  0  0  0  0  0  0  0  0  0
    5.9757  -12.1760   26.9486 C   0  0  0  0  0  0  0  0  0  0  0  0
    7.2798  -11.7591   26.9256 C   0  0  0  0  0  0  0  0  0  0  0  0
    8.2842  -12.6677   26.6633 C   0  0  0  0  0  0  0  0  0  0  0  0
    7.9733  -14.0024   26.4234 C   0  0  0  0  0  0  0  0  0  0  0  0
    6.6652  -14.4359   26.4443 C   0  0  0  0  0  0  0  0  0  0  0  0
    7.2887  -17.1160   23.6205 C   0  0  0  0  0  0  0  0  0  0  0  0
    8.1240  -17.9489   23.2038 O   0  0  0  0  0  0  0  0  0  0  0  0
    8.4076  -12.2202   20.1682 C   0  0  0  0  0  0  0  0  0  0  0  0
    8.6450  -13.7342   20.2864 C   0  0  2  0  0  0  0  0  0  0  0  0
    8.2671  -14.4063   19.0142 C   0  0  0  0  0  0  0  0  0  0  0  0
    7.9012  -14.1796   21.4877 C   0  0  0  0  0  0  0  0  0  0  0  0
    8.2872  -15.5259   22.0389 C   0  0  2  0  0  0  0  0  0  0  0  0
    7.3397  -15.7931   23.1212 N   0  0  0  0  0  0  0  0  0  0  0  0
    9.6443  -15.4676   22.6489 C   0  0  0  0  0  0  0  0  0  0  0  0
   10.6178  -15.2880   21.8811 O   0  0  0  0  0  0  0  0  0  0  0  0
   10.5464  -13.2614   27.6077 C   0  0  0  0  0  0  0  0  0  0  0  0
   10.6302  -13.6664   26.1666 C   0  0  0  0  0  0  0  0  0  0  0  0
   11.1082  -15.1114   26.0859 C   0  0  2  0  0  0  0  0  0  0  0  0
   12.4532  -15.1804   26.7505 C   0  0  0  0  0  0  0  0  0  0  0  0
   11.1324  -15.5555   24.6631 C   0  0  2  0  0  0  0  0  0  0  0  0
    9.8335  -15.6093   24.0461 N   0  0  0  0  0  0  0  0  0  0  0  0
   11.8038  -16.8847   24.4766 C   0  0  0  0  0  0  0  0  0  0  0  0
   11.0095  -17.9990   24.2540 O   0  0  0  0  0  0  0  0  0  0  0  0
   13.0380  -17.0574   24.5084 O   0  0  0  0  0  0  0  0  0  0  0  0
  2  1  1  1
  2 13  1  0
  3  4  1  0
  3  2  1  0
  4 12  1  0
  4  5  2  0
  5  6  1  0
  7  6  1  0
  7  8  2  0
  9  8  1  0
 10  9  2  0
 11 10  1  0
 11 12  2  0
 12  7  1  0
 13 14  2  0
 16 15  1  6
 17 16  1  0
 18 16  1  0
 19 18  1  1
 20 13  1  0
 20 19  1  0
 21 19  1  0
 21 22  2  0
 23 24  1  0
 25 24  1  0
 25 26  1  6
 27 28  1  1
 27 25  1  0
 28 21  1  0
 29 27  1  0
 30 29  1  0
 31 29  2  0
M  END
$$$$
