CIY.pdb
     RDKit          3D

 27 27  0  0  1  0  0  0  0  0999 V2000
    7.3530  -15.4480   20.3514 N   0  0  0  0  0  0  0  0  0  0  0  0
    6.6772  -15.6355   21.5946 C   0  0  1  0  0  0  0  0  0  0  0  0
    6.2174  -17.0801   21.6705 C   0  0  0  0  0  0  0  0  0  0  0  0
    5.2796  -17.2863   23.2067 S   0  0  0  0  0  0  0  0  0  0  0  0
    7.5248  -15.3667   22.7671 C   0  0  0  0  0  0  0  0  0  0  0  0
    8.7469  -15.6542   22.7305 O   0  0  0  0  0  0  0  0  0  0  0  0
    6.2379  -10.9700   25.6449 C   0  0  0  0  0  0  0  0  0  0  0  0
    7.0034  -12.0529   24.9888 C   0  0  0  0  0  0  0  0  0  0  0  0
    7.2206  -13.3139   25.7088 C   0  0  2  0  0  0  0  0  0  0  0  0
    7.8636  -13.0253   27.0911 C   0  0  0  0  0  0  0  0  0  0  0  0
    7.8728  -14.4706   25.0556 C   0  0  2  0  0  0  0  0  0  0  0  0
    6.9413  -14.7858   23.9197 N   0  0  0  0  0  0  0  0  0  0  0  0
    7.9322  -15.7437   25.8074 C   0  0  0  0  0  0  0  0  0  0  0  0
    6.8583  -16.1837   26.3693 O   0  0  0  0  0  0  0  0  0  0  0  0
    8.2439  -23.5560   29.2356 O   0  0  0  0  0  0  0  0  0  0  0  0
    8.4643  -22.4333   28.4330 C   0  0  0  0  0  0  0  0  0  0  0  0
    7.3811  -21.6578   28.1261 C   0  0  0  0  0  0  0  0  0  0  0  0
    7.5366  -20.5417   27.3410 C   0  0  0  0  0  0  0  0  0  0  0  0
    8.7731  -20.1619   26.8368 C   0  0  0  0  0  0  0  0  0  0  0  0
    8.8718  -18.9865   25.9787 C   0  0  0  0  0  0  0  0  0  0  0  0
    8.9582  -17.7370   26.8361 C   0  0  2  0  0  0  0  0  0  0  0  0
    9.0729  -16.5612   25.9738 N   0  0  0  0  0  0  0  0  0  0  0  0
   10.1237  -17.8543   27.7144 C   0  0  0  0  0  0  0  0  0  0  0  0
   11.3792  -17.5385   27.2479 O   0  0  0  0  0  0  0  0  0  0  0  0
    9.8487  -20.9540   27.1563 C   0  0  0  0  0  0  0  0  0  0  0  0
    9.7162  -22.0969   27.9549 C   0  0  0  0  0  0  0  0  0  0  0  0
    9.9943  -18.2407   28.8899 O   0  0  0  0  0  0  0  0  0  0  0  0
  2  1  1  6
  3  4  1  0
  3  2  1  0
  5  6  2  0
  5  2  1  0
  8  7  1  0
  8  9  1  0
  9 11  1  0
  9 10  1  1
 11 12  1  6
 12  5  1  0
 13 11  1  0
 14 13  2  0
 16 17  2  0
 16 15  1  0
 18 17  1  0
 19 18  2  0
 21 20  1  6
 20 19  1  0
 21 22  1  0
 22 13  1  0
 23 24  1  0
 23 21  1  0
 25 19  1  0
 25 26  2  0
 26 16  1  0
 27 23  2  0
M  END
$$$$
