CIY.pdb
     RDKit          3D

 27 27  0  0  1  0  0  0  0  0999 V2000
    8.2284  -18.9296   17.3585 N   0  0  0  0  0  0  0  0  0  0  0  0
    8.3456  -18.2413   18.6035 C   0  0  1  0  0  0  0  0  0  0  0  0
    8.9672  -19.1900   19.6124 C   0  0  0  0  0  0  0  0  0  0  0  0
    7.6521  -20.2542   20.2602 S   0  0  0  0  0  0  0  0  0  0  0  0
    9.1913  -17.0393   18.5297 C   0  0  0  0  0  0  0  0  0  0  0  0
   10.0972  -16.9681   17.6628 O   0  0  0  0  0  0  0  0  0  0  0  0
    6.8068  -12.4075   19.4630 C   0  0  0  0  0  0  0  0  0  0  0  0
    7.8013  -13.3554   18.9137 C   0  0  0  0  0  0  0  0  0  0  0  0
    9.0061  -13.6616   19.6948 C   0  0  2  0  0  0  0  0  0  0  0  0
    9.8357  -12.3680   19.9094 C   0  0  0  0  0  0  0  0  0  0  0  0
    9.8850  -14.7981   19.3402 C   0  0  2  0  0  0  0  0  0  0  0  0
    8.9647  -15.9811   19.4437 N   0  0  0  0  0  0  0  0  0  0  0  0
   10.9810  -15.1396   20.2738 C   0  0  0  0  0  0  0  0  0  0  0  0
   10.7308  -15.1766   21.5383 O   0  0  0  0  0  0  0  0  0  0  0  0
    9.8408  -20.0002   23.8661 O   0  0  0  0  0  0  0  0  0  0  0  0
   10.8069  -19.2014   23.2484 C   0  0  0  0  0  0  0  0  0  0  0  0
   11.2031  -19.5554   21.9887 C   0  0  0  0  0  0  0  0  0  0  0  0
   12.1496  -18.8079   21.3317 C   0  0  0  0  0  0  0  0  0  0  0  0
   12.7314  -17.6858   21.9060 C   0  0  0  0  0  0  0  0  0  0  0  0
   13.7577  -16.9515   21.1747 C   0  0  0  0  0  0  0  0  0  0  0  0
   13.3139  -15.5126   20.9829 C   0  0  2  0  0  0  0  0  0  0  0  0
   12.3133  -15.4490   19.9181 N   0  0  0  0  0  0  0  0  0  0  0  0
   14.4868  -14.7044   20.6444 C   0  0  0  0  0  0  0  0  0  0  0  0
   14.5823  -14.1023   19.4107 O   0  0  0  0  0  0  0  0  0  0  0  0
   12.3201  -17.3470   23.1719 C   0  0  0  0  0  0  0  0  0  0  0  0
   11.3567  -18.0927   23.8627 C   0  0  0  0  0  0  0  0  0  0  0  0
   15.4096  -14.5529   21.4649 O   0  0  0  0  0  0  0  0  0  0  0  0
  2  1  1  6
  3  4  1  0
  3  2  1  0
  5  6  2  0
  5  2  1  0
  8  7  1  0
  8  9  1  0
  9 11  1  0
  9 10  1  6
 11 12  1  1
 12  5  1  0
 13 11  1  0
 14 13  2  0
 16 17  2  0
 16 15  1  0
 18 17  1  0
 19 18  2  0
 21 20  1  6
 20 19  1  0
 21 22  1  0
 22 13  1  0
 23 24  1  0
 23 21  1  0
 25 19  1  0
 25 26  2  0
 26 16  1  0
 27 23  2  0
M  END
$$$$
