CIY.pdb
     RDKit          3D

 27 27  0  0  1  0  0  0  0  0999 V2000
    7.3491  -15.6149   19.2318 N   0  0  0  0  0  0  0  0  0  0  0  0
    7.0557  -15.9443   20.5894 C   0  0  1  0  0  0  0  0  0  0  0  0
    7.3504  -17.4193   20.7931 C   0  0  0  0  0  0  0  0  0  0  0  0
    6.5007  -18.3429   19.4867 S   0  0  0  0  0  0  0  0  0  0  0  0
    7.8559  -15.1829   21.5617 C   0  0  0  0  0  0  0  0  0  0  0  0
    9.0243  -14.8301   21.2656 O   0  0  0  0  0  0  0  0  0  0  0  0
    6.5942  -11.6973   26.4256 C   0  0  0  0  0  0  0  0  0  0  0  0
    7.5398  -12.2194   25.4145 C   0  0  0  0  0  0  0  0  0  0  0  0
    7.1812  -13.4219   24.6523 C   0  0  2  0  0  0  0  0  0  0  0  0
    6.4807  -14.4453   25.5848 C   0  0  0  0  0  0  0  0  0  0  0  0
    8.1615  -14.0962   23.7724 C   0  0  2  0  0  0  0  0  0  0  0  0
    7.2882  -14.8617   22.8191 N   0  0  0  0  0  0  0  0  0  0  0  0
    9.0142  -15.1480   24.3688 C   0  0  0  0  0  0  0  0  0  0  0  0
    8.4618  -16.2422   24.7695 O   0  0  0  0  0  0  0  0  0  0  0  0
   11.9774  -16.8568   31.8868 O   0  0  0  0  0  0  0  0  0  0  0  0
   11.4797  -16.3494   30.6835 C   0  0  0  0  0  0  0  0  0  0  0  0
   11.0279  -17.2511   29.7605 C   0  0  0  0  0  0  0  0  0  0  0  0
   10.5275  -16.8112   28.5594 C   0  0  0  0  0  0  0  0  0  0  0  0
   10.4607  -15.4620   28.2387 C   0  0  0  0  0  0  0  0  0  0  0  0
    9.9527  -15.0555   26.9333 C   0  0  0  0  0  0  0  0  0  0  0  0
   10.9607  -15.4213   25.8591 C   0  0  2  0  0  0  0  0  0  0  0  0
   10.4152  -15.0858   24.5442 N   0  0  0  0  0  0  0  0  0  0  0  0
   11.2445  -16.8544   25.9550 C   0  0  0  0  0  0  0  0  0  0  0  0
   10.4493  -17.7651   25.2977 O   0  0  0  0  0  0  0  0  0  0  0  0
   10.9198  -14.5724   29.1791 C   0  0  0  0  0  0  0  0  0  0  0  0
   11.4344  -14.9957   30.4109 C   0  0  0  0  0  0  0  0  0  0  0  0
   12.2047  -17.2659   26.6306 O   0  0  0  0  0  0  0  0  0  0  0  0
  2  1  1  6
  3  4  1  0
  3  2  1  0
  5  6  2  0
  5  2  1  0
  8  7  1  0
  8  9  1  0
  9 11  1  0
  9 10  1  1
 11 12  1  6
 12  5  1  0
 13 11  1  0
 14 13  2  0
 16 17  2  0
 16 15  1  0
 18 17  1  0
 19 18  2  0
 21 20  1  1
 20 19  1  0
 21 22  1  0
 22 13  1  0
 23 24  1  0
 23 21  1  0
 25 19  1  0
 25 26  2  0
 26 16  1  0
 27 23  2  0
M  END
$$$$
