CIY.pdb
     RDKit          3D

 27 27  0  0  1  0  0  0  0  0999 V2000
    8.7052  -19.0581   18.6691 N   0  0  0  0  0  0  0  0  0  0  0  0
    8.1857  -18.3551   19.7976 C   0  0  1  0  0  0  0  0  0  0  0  0
    8.3237  -19.2488   21.0168 C   0  0  0  0  0  0  0  0  0  0  0  0
    7.2418  -20.6826   20.7819 S   0  0  0  0  0  0  0  0  0  0  0  0
    8.8915  -17.0944   20.0767 C   0  0  0  0  0  0  0  0  0  0  0  0
   10.0886  -16.9596   19.7216 O   0  0  0  0  0  0  0  0  0  0  0  0
    6.3839  -12.7206   18.8290 C   0  0  0  0  0  0  0  0  0  0  0  0
    7.5038  -13.6340   19.1460 C   0  0  0  0  0  0  0  0  0  0  0  0
    7.9702  -13.7401   20.5341 C   0  0  2  0  0  0  0  0  0  0  0  0
    8.3866  -12.3397   21.0568 C   0  0  0  0  0  0  0  0  0  0  0  0
    8.9554  -14.7675   20.9386 C   0  0  2  0  0  0  0  0  0  0  0  0
    8.2017  -16.0526   20.7440 N   0  0  0  0  0  0  0  0  0  0  0  0
    9.3513  -14.8201   22.3634 C   0  0  0  0  0  0  0  0  0  0  0  0
    8.7677  -14.0308   23.1996 O   0  0  0  0  0  0  0  0  0  0  0  0
   10.6826  -14.8784   30.6429 O   0  0  0  0  0  0  0  0  0  0  0  0
   10.3924  -15.1413   29.3014 C   0  0  0  0  0  0  0  0  0  0  0  0
   10.0925  -14.0732   28.5024 C   0  0  0  0  0  0  0  0  0  0  0  0
    9.7989  -14.2702   27.1752 C   0  0  0  0  0  0  0  0  0  0  0  0
    9.7943  -15.5343   26.6012 C   0  0  0  0  0  0  0  0  0  0  0  0
    9.4398  -15.6862   25.1946 C   0  0  0  0  0  0  0  0  0  0  0  0
   10.6749  -15.4879   24.3348 C   0  0  2  0  0  0  0  0  0  0  0  0
   10.3243  -15.6759   22.9274 N   0  0  0  0  0  0  0  0  0  0  0  0
   11.6927  -16.4542   24.7516 C   0  0  0  0  0  0  0  0  0  0  0  0
   12.6809  -16.0842   25.6349 O   0  0  0  0  0  0  0  0  0  0  0  0
   10.0979  -16.5940   27.4205 C   0  0  0  0  0  0  0  0  0  0  0  0
   10.4008  -16.4194   28.7767 C   0  0  0  0  0  0  0  0  0  0  0  0
   11.6778  -17.6184   24.3130 O   0  0  0  0  0  0  0  0  0  0  0  0
  2  1  1  6
  3  4  1  0
  3  2  1  0
  5  6  2  0
  5  2  1  0
  8  7  1  0
  8  9  1  0
  9 11  1  0
  9 10  1  6
 11 12  1  1
 12  5  1  0
 13 11  1  0
 14 13  2  0
 16 17  2  0
 16 15  1  0
 18 17  1  0
 19 18  2  0
 21 20  1  1
 20 19  1  0
 21 22  1  0
 22 13  1  0
 23 24  1  0
 23 21  1  0
 25 19  1  0
 25 26  2  0
 26 16  1  0
 27 23  2  0
M  END
$$$$
