CIY.pdb
     RDKit          3D

 27 27  0  0  1  0  0  0  0  0999 V2000
    6.1942  -19.2989   19.8189 N   0  0  0  0  0  0  0  0  0  0  0  0
    6.2493  -18.4600   20.9725 C   0  0  1  0  0  0  0  0  0  0  0  0
    6.4879  -19.3394   22.1866 C   0  0  0  0  0  0  0  0  0  0  0  0
    6.3621  -18.2970   23.6628 S   0  0  0  0  0  0  0  0  0  0  0  0
    7.3275  -17.4601   20.9173 C   0  0  0  0  0  0  0  0  0  0  0  0
    8.4056  -17.7390   20.3366 O   0  0  0  0  0  0  0  0  0  0  0  0
    6.4225  -12.5585   19.2981 C   0  0  0  0  0  0  0  0  0  0  0  0
    7.1147  -13.8139   19.6642 C   0  0  0  0  0  0  0  0  0  0  0  0
    7.6346  -13.9734   21.0279 C   0  0  2  0  0  0  0  0  0  0  0  0
    8.5098  -12.7482   21.4029 C   0  0  0  0  0  0  0  0  0  0  0  0
    8.2773  -15.2330   21.4641 C   0  0  2  0  0  0  0  0  0  0  0  0
    7.1257  -16.1960   21.5238 N   0  0  0  0  0  0  0  0  0  0  0  0
    8.8329  -15.2849   22.8345 C   0  0  0  0  0  0  0  0  0  0  0  0
    8.0293  -15.4827   23.8234 O   0  0  0  0  0  0  0  0  0  0  0  0
   10.6260  -15.4231   30.9283 O   0  0  0  0  0  0  0  0  0  0  0  0
   10.3119  -15.4918   29.5683 C   0  0  0  0  0  0  0  0  0  0  0  0
   10.1167  -14.3106   28.9080 C   0  0  0  0  0  0  0  0  0  0  0  0
    9.8057  -14.3156   27.5703 C   0  0  0  0  0  0  0  0  0  0  0  0
    9.6790  -15.4942   26.8476 C   0  0  0  0  0  0  0  0  0  0  0  0
    9.3116  -15.4392   25.4371 C   0  0  0  0  0  0  0  0  0  0  0  0
   10.5665  -15.3473   24.5882 C   0  0  2  0  0  0  0  0  0  0  0  0
   10.1942  -15.1464   23.1881 N   0  0  0  0  0  0  0  0  0  0  0  0
   11.3310  -16.5852   24.7512 C   0  0  0  0  0  0  0  0  0  0  0  0
   12.4838  -16.5954   25.5027 O   0  0  0  0  0  0  0  0  0  0  0  0
    9.8786  -16.6699   27.5289 C   0  0  0  0  0  0  0  0  0  0  0  0
   10.1968  -16.6915   28.8927 C   0  0  0  0  0  0  0  0  0  0  0  0
   10.9499  -17.6403   24.2134 O   0  0  0  0  0  0  0  0  0  0  0  0
  2  1  1  6
  3  4  1  0
  3  2  1  0
  5  6  2  0
  5  2  1  0
  8  7  1  0
  8  9  1  0
  9 11  1  0
  9 10  1  6
 11 12  1  1
 12  5  1  0
 13 11  1  0
 14 13  2  0
 16 17  2  0
 16 15  1  0
 18 17  1  0
 19 18  2  0
 21 20  1  1
 20 19  1  0
 21 22  1  0
 22 13  1  0
 23 24  1  0
 23 21  1  0
 25 19  1  0
 25 26  2  0
 26 16  1  0
 27 23  2  0
M  END
$$$$
