CIY.pdb
     RDKit          3D

 27 27  0  0  1  0  0  0  0  0999 V2000
    7.5073  -15.1615   20.6793 N   0  0  0  0  0  0  0  0  0  0  0  0
    7.0314  -15.5687   21.9620 C   0  0  1  0  0  0  0  0  0  0  0  0
    7.0368  -17.0859   22.0093 C   0  0  0  0  0  0  0  0  0  0  0  0
    6.2494  -17.5978   23.5584 S   0  0  0  0  0  0  0  0  0  0  0  0
    7.8583  -15.0769   23.0755 C   0  0  0  0  0  0  0  0  0  0  0  0
    9.1020  -14.9793   22.9312 O   0  0  0  0  0  0  0  0  0  0  0  0
    5.5968  -11.3269   26.2065 C   0  0  0  0  0  0  0  0  0  0  0  0
    6.6528  -12.0804   25.4950 C   0  0  0  0  0  0  0  0  0  0  0  0
    7.2284  -13.2749   26.1254 C   0  0  2  0  0  0  0  0  0  0  0  0
    7.8465  -12.8982   27.4979 C   0  0  0  0  0  0  0  0  0  0  0  0
    8.1237  -14.1846   25.3765 C   0  0  2  0  0  0  0  0  0  0  0  0
    7.2303  -14.7216   24.2945 N   0  0  0  0  0  0  0  0  0  0  0  0
    8.5953  -15.4074   26.0634 C   0  0  0  0  0  0  0  0  0  0  0  0
    7.7650  -16.3772   26.2450 O   0  0  0  0  0  0  0  0  0  0  0  0
   15.5351  -15.5663   24.0640 O   0  0  0  0  0  0  0  0  0  0  0  0
   14.3350  -16.0981   24.5435 C   0  0  0  0  0  0  0  0  0  0  0  0
   14.3974  -16.8819   25.6619 C   0  0  0  0  0  0  0  0  0  0  0  0
   13.2501  -17.4319   26.1792 C   0  0  0  0  0  0  0  0  0  0  0  0
   12.0057  -17.2200   25.6012 C   0  0  0  0  0  0  0  0  0  0  0  0
   10.8264  -17.8592   26.1738 C   0  0  0  0  0  0  0  0  0  0  0  0
   10.1828  -16.9268   27.1840 C   0  0  2  0  0  0  0  0  0  0  0  0
    9.9020  -15.6394   26.5492 N   0  0  0  0  0  0  0  0  0  0  0  0
   11.0982  -16.7613   28.3146 C   0  0  0  0  0  0  0  0  0  0  0  0
   11.5092  -17.8555   29.0409 O   0  0  0  0  0  0  0  0  0  0  0  0
   11.9643  -16.4299   24.4784 C   0  0  0  0  0  0  0  0  0  0  0  0
   13.1197  -15.8576   23.9317 C   0  0  0  0  0  0  0  0  0  0  0  0
   11.5141  -15.6328   28.6326 O   0  0  0  0  0  0  0  0  0  0  0  0
  2  1  1  6
  3  4  1  0
  3  2  1  0
  5  6  2  0
  5  2  1  0
  8  7  1  0
  8  9  1  0
  9 11  1  0
  9 10  1  1
 11 12  1  6
 12  5  1  0
 13 11  1  0
 14 13  2  0
 16 17  2  0
 16 15  1  0
 18 17  1  0
 19 18  2  0
 21 20  1  6
 20 19  1  0
 21 22  1  0
 22 13  1  0
 23 24  1  0
 23 21  1  0
 25 19  1  0
 25 26  2  0
 26 16  1  0
 27 23  2  0
M  END
$$$$
