CIY.pdb
     RDKit          3D

 27 27  0  0  1  0  0  0  0  0999 V2000
    7.6002  -19.1588   19.0059 N   0  0  0  0  0  0  0  0  0  0  0  0
    7.2090  -18.5030   20.2120 C   0  0  1  0  0  0  0  0  0  0  0  0
    7.0400  -19.5573   21.2909 C   0  0  0  0  0  0  0  0  0  0  0  0
    6.2817  -18.7634   22.7318 S   0  0  0  0  0  0  0  0  0  0  0  0
    8.1944  -17.5196   20.6887 C   0  0  0  0  0  0  0  0  0  0  0  0
    9.4158  -17.7013   20.4599 O   0  0  0  0  0  0  0  0  0  0  0  0
    7.0757  -12.4903   19.6965 C   0  0  0  0  0  0  0  0  0  0  0  0
    7.8815  -13.6952   19.9930 C   0  0  0  0  0  0  0  0  0  0  0  0
    8.1103  -14.0771   21.3920 C   0  0  2  0  0  0  0  0  0  0  0  0
    8.7438  -12.8893   22.1637 C   0  0  0  0  0  0  0  0  0  0  0  0
    8.7791  -15.3497   21.7429 C   0  0  2  0  0  0  0  0  0  0  0  0
    7.7420  -16.3813   21.4003 N   0  0  0  0  0  0  0  0  0  0  0  0
    9.0569  -15.6113   23.1725 C   0  0  0  0  0  0  0  0  0  0  0  0
   10.1240  -15.1143   23.6989 O   0  0  0  0  0  0  0  0  0  0  0  0
    6.3310  -10.5915   26.2067 O   0  0  0  0  0  0  0  0  0  0  0  0
    6.5269  -11.9752   26.2161 C   0  0  0  0  0  0  0  0  0  0  0  0
    7.7188  -12.4378   26.7001 C   0  0  0  0  0  0  0  0  0  0  0  0
    7.9679  -13.7881   26.7341 C   0  0  0  0  0  0  0  0  0  0  0  0
    7.0405  -14.7200   26.2882 C   0  0  0  0  0  0  0  0  0  0  0  0
    7.3745  -16.1395   26.3152 C   0  0  0  0  0  0  0  0  0  0  0  0
    8.6118  -16.3867   25.4715 C   0  0  2  0  0  0  0  0  0  0  0  0
    8.2485  -16.3632   24.0550 N   0  0  0  0  0  0  0  0  0  0  0  0
    9.1771  -17.6852   25.8426 C   0  0  0  0  0  0  0  0  0  0  0  0
    9.6091  -17.9122   27.1294 O   0  0  0  0  0  0  0  0  0  0  0  0
    5.8495  -14.2351   25.8056 C   0  0  0  0  0  0  0  0  0  0  0  0
    5.5715  -12.8632   25.7605 C   0  0  0  0  0  0  0  0  0  0  0  0
    9.2747  -18.5970   25.0018 O   0  0  0  0  0  0  0  0  0  0  0  0
  2  1  1  6
  3  4  1  0
  3  2  1  0
  5  6  2  0
  5  2  1  0
  8  7  1  0
  8  9  1  0
  9 11  1  0
  9 10  1  6
 11 12  1  1
 12  5  1  0
 13 11  1  0
 14 13  2  0
 16 17  2  0
 16 15  1  0
 18 17  1  0
 19 18  2  0
 21 20  1  1
 20 19  1  0
 21 22  1  0
 22 13  1  0
 23 24  1  0
 23 21  1  0
 25 19  1  0
 25 26  2  0
 26 16  1  0
 27 23  2  0
M  END
$$$$
