CIY.pdb
     RDKit          3D

 27 27  0  0  1  0  0  0  0  0999 V2000
    6.9090  -19.4760   19.7017 N   0  0  0  0  0  0  0  0  0  0  0  0
    6.6944  -18.6946   20.8768 C   0  0  1  0  0  0  0  0  0  0  0  0
    6.6116  -19.6371   22.0638 C   0  0  0  0  0  0  0  0  0  0  0  0
    5.0178  -20.4945   21.9843 S   0  0  0  0  0  0  0  0  0  0  0  0
    7.7710  -17.7266   21.1399 C   0  0  0  0  0  0  0  0  0  0  0  0
    8.9360  -17.9670   20.7373 O   0  0  0  0  0  0  0  0  0  0  0  0
    6.9732  -12.7186   19.8314 C   0  0  0  0  0  0  0  0  0  0  0  0
    7.6383  -13.9928   20.1823 C   0  0  0  0  0  0  0  0  0  0  0  0
    7.9590  -14.2696   21.5881 C   0  0  2  0  0  0  0  0  0  0  0  0
    8.7120  -13.0603   22.2029 C   0  0  0  0  0  0  0  0  0  0  0  0
    8.5880  -15.5451   21.9972 C   0  0  2  0  0  0  0  0  0  0  0  0
    7.4692  -16.5364   21.8463 N   0  0  0  0  0  0  0  0  0  0  0  0
    8.9837  -15.6950   23.4151 C   0  0  0  0  0  0  0  0  0  0  0  0
   10.1141  -15.2078   23.7993 O   0  0  0  0  0  0  0  0  0  0  0  0
    6.5439  -10.5111   26.4384 O   0  0  0  0  0  0  0  0  0  0  0  0
    6.9108  -11.8558   26.5394 C   0  0  0  0  0  0  0  0  0  0  0  0
    5.9690  -12.7905   26.2102 C   0  0  0  0  0  0  0  0  0  0  0  0
    6.2722  -14.1277   26.2899 C   0  0  0  0  0  0  0  0  0  0  0  0
    7.5204  -14.5771   26.6992 C   0  0  0  0  0  0  0  0  0  0  0  0
    7.7738  -16.0101   26.7990 C   0  0  0  0  0  0  0  0  0  0  0  0
    8.8110  -16.4159   25.7677 C   0  0  2  0  0  0  0  0  0  0  0  0
    8.2285  -16.3264   24.4292 N   0  0  0  0  0  0  0  0  0  0  0  0
    9.2447  -17.7841   26.0566 C   0  0  0  0  0  0  0  0  0  0  0  0
    9.1104  -18.7702   25.1061 O   0  0  0  0  0  0  0  0  0  0  0  0
    8.4525  -13.6226   27.0256 C   0  0  0  0  0  0  0  0  0  0  0  0
    8.1679  -12.2532   26.9525 C   0  0  0  0  0  0  0  0  0  0  0  0
    9.7378  -18.0720   27.1619 O   0  0  0  0  0  0  0  0  0  0  0  0
  2  1  1  6
  3  4  1  0
  3  2  1  0
  5  6  2  0
  5  2  1  0
  8  7  1  0
  8  9  1  0
  9 11  1  0
  9 10  1  6
 11 12  1  1
 12  5  1  0
 13 11  1  0
 14 13  2  0
 16 17  2  0
 16 15  1  0
 18 17  1  0
 19 18  2  0
 21 20  1  1
 20 19  1  0
 21 22  1  0
 22 13  1  0
 23 24  1  0
 23 21  1  0
 25 19  1  0
 25 26  2  0
 26 16  1  0
 27 23  2  0
M  END
$$$$
