CIY.pdb
     RDKit          3D

 27 27  0  0  1  0  0  0  0  0999 V2000
    6.1216  -19.9889   24.0231 N   0  0  0  0  0  0  0  0  0  0  0  0
    6.7940  -18.9001   24.6554 C   0  0  1  0  0  0  0  0  0  0  0  0
    7.6623  -19.4610   25.7669 C   0  0  0  0  0  0  0  0  0  0  0  0
    8.2917  -18.0679   26.7390 S   0  0  0  0  0  0  0  0  0  0  0  0
    7.6612  -18.1389   23.7422 C   0  0  0  0  0  0  0  0  0  0  0  0
    8.3089  -18.7425   22.8515 O   0  0  0  0  0  0  0  0  0  0  0  0
    5.6015  -14.1631   21.1831 C   0  0  0  0  0  0  0  0  0  0  0  0
    6.4981  -15.2606   21.6079 C   0  0  0  0  0  0  0  0  0  0  0  0
    7.6980  -14.9422   22.3917 C   0  0  2  0  0  0  0  0  0  0  0  0
    8.5035  -13.8192   21.6863 C   0  0  0  0  0  0  0  0  0  0  0  0
    8.5999  -16.0067   22.8852 C   0  0  2  0  0  0  0  0  0  0  0  0
    7.7480  -16.7325   23.8876 N   0  0  0  0  0  0  0  0  0  0  0  0
    9.7804  -15.5976   23.6779 C   0  0  0  0  0  0  0  0  0  0  0  0
   10.0897  -14.3469   23.7310 O   0  0  0  0  0  0  0  0  0  0  0  0
    9.0245  -16.7972   30.4217 O   0  0  0  0  0  0  0  0  0  0  0  0
    9.6256  -16.2771   29.2722 C   0  0  0  0  0  0  0  0  0  0  0  0
   10.9127  -16.6559   29.0099 C   0  0  0  0  0  0  0  0  0  0  0  0
   11.5551  -16.1769   27.8944 C   0  0  0  0  0  0  0  0  0  0  0  0
   10.9384  -15.3069   27.0054 C   0  0  0  0  0  0  0  0  0  0  0  0
   11.6823  -14.8026   25.8567 C   0  0  0  0  0  0  0  0  0  0  0  0
   11.9156  -15.9300   24.8674 C   0  0  2  0  0  0  0  0  0  0  0  0
   10.6279  -16.4555   24.4149 N   0  0  0  0  0  0  0  0  0  0  0  0
   12.7011  -16.9742   25.5277 C   0  0  0  0  0  0  0  0  0  0  0  0
   13.9507  -16.6903   26.0293 O   0  0  0  0  0  0  0  0  0  0  0  0
    9.6455  -14.9383   27.2868 C   0  0  0  0  0  0  0  0  0  0  0  0
    8.9688  -15.4129   28.4174 C   0  0  0  0  0  0  0  0  0  0  0  0
   12.2506  -18.1282   25.6426 O   0  0  0  0  0  0  0  0  0  0  0  0
  2  1  1  6
  3  4  1  0
  3  2  1  0
  5  6  2  0
  5  2  1  0
  8  7  1  0
  8  9  1  0
  9 11  1  0
  9 10  1  6
 11 12  1  1
 12  5  1  0
 13 11  1  0
 14 13  2  0
 16 17  2  0
 16 15  1  0
 18 17  1  0
 19 18  2  0
 21 20  1  1
 20 19  1  0
 21 22  1  0
 22 13  1  0
 23 24  1  0
 23 21  1  0
 25 19  1  0
 25 26  2  0
 26 16  1  0
 27 23  2  0
M  END
$$$$
