CIY.pdb
     RDKit          3D

 27 27  0  0  1  0  0  0  0  0999 V2000
    5.5566  -17.7923   21.5169 N   0  0  0  0  0  0  0  0  0  0  0  0
    5.7395  -17.2960   22.8428 C   0  0  1  0  0  0  0  0  0  0  0  0
    6.3050  -18.4179   23.6945 C   0  0  0  0  0  0  0  0  0  0  0  0
    7.9320  -18.8564   23.0295 S   0  0  0  0  0  0  0  0  0  0  0  0
    6.6680  -16.1569   22.9177 C   0  0  0  0  0  0  0  0  0  0  0  0
    7.3070  -15.8067   21.8948 O   0  0  0  0  0  0  0  0  0  0  0  0
    5.2706  -12.3276   26.5979 C   0  0  0  0  0  0  0  0  0  0  0  0
    5.7830  -12.8969   25.3320 C   0  0  0  0  0  0  0  0  0  0  0  0
    7.1350  -13.4685   25.2994 C   0  0  2  0  0  0  0  0  0  0  0  0
    8.1667  -12.4032   25.7559 C   0  0  0  0  0  0  0  0  0  0  0  0
    7.6297  -14.2079   24.1169 C   0  0  2  0  0  0  0  0  0  0  0  0
    6.8226  -15.4747   24.1495 N   0  0  0  0  0  0  0  0  0  0  0  0
    9.0262  -14.6959   24.1434 C   0  0  0  0  0  0  0  0  0  0  0  0
    9.9702  -13.8974   23.7772 O   0  0  0  0  0  0  0  0  0  0  0  0
   12.2957  -16.4630   31.6985 O   0  0  0  0  0  0  0  0  0  0  0  0
   11.5964  -16.1509   30.5294 C   0  0  0  0  0  0  0  0  0  0  0  0
   11.0262  -17.1866   29.8428 C   0  0  0  0  0  0  0  0  0  0  0  0
   10.3264  -16.9408   28.6869 C   0  0  0  0  0  0  0  0  0  0  0  0
   10.1716  -15.6585   28.1777 C   0  0  0  0  0  0  0  0  0  0  0  0
    9.4483  -15.4619   26.9265 C   0  0  0  0  0  0  0  0  0  0  0  0
   10.2260  -16.0920   25.7854 C   0  0  2  0  0  0  0  0  0  0  0  0
    9.4529  -15.9808   24.5489 N   0  0  0  0  0  0  0  0  0  0  0  0
   10.4821  -17.4953   26.1151 C   0  0  0  0  0  0  0  0  0  0  0  0
   11.6808  -17.8684   26.6788 O   0  0  0  0  0  0  0  0  0  0  0  0
   10.7519  -14.6319   28.8820 C   0  0  0  0  0  0  0  0  0  0  0  0
   11.4703  -14.8565   30.0630 C   0  0  0  0  0  0  0  0  0  0  0  0
    9.6223  -18.3658   25.8897 O   0  0  0  0  0  0  0  0  0  0  0  0
  2  1  1  6
  3  4  1  0
  3  2  1  0
  5  6  2  0
  5  2  1  0
  8  7  1  0
  8  9  1  0
  9 11  1  0
  9 10  1  6
 11 12  1  1
 12  5  1  0
 13 11  1  0
 14 13  2  0
 16 17  2  0
 16 15  1  0
 18 17  1  0
 19 18  2  0
 21 20  1  1
 20 19  1  0
 21 22  1  0
 22 13  1  0
 23 24  1  0
 23 21  1  0
 25 19  1  0
 25 26  2  0
 26 16  1  0
 27 23  2  0
M  END
$$$$
