CIY.pdb
     RDKit          3D

 27 27  0  0  1  0  0  0  0  0999 V2000
    5.2283  -16.4640   21.1659 N   0  0  0  0  0  0  0  0  0  0  0  0
    5.6316  -16.6734   22.5191 C   0  0  1  0  0  0  0  0  0  0  0  0
    6.0429  -18.1265   22.6713 C   0  0  0  0  0  0  0  0  0  0  0  0
    4.5447  -19.1413   22.5874 S   0  0  0  0  0  0  0  0  0  0  0  0
    6.7699  -15.8344   22.9264 C   0  0  0  0  0  0  0  0  0  0  0  0
    7.7124  -15.6311   22.1216 O   0  0  0  0  0  0  0  0  0  0  0  0
    5.4728  -12.3233   26.6072 C   0  0  0  0  0  0  0  0  0  0  0  0
    6.3490  -12.6676   25.4658 C   0  0  0  0  0  0  0  0  0  0  0  0
    7.4765  -13.5834   25.6794 C   0  0  2  0  0  0  0  0  0  0  0  0
    8.6420  -12.8287   26.3721 C   0  0  0  0  0  0  0  0  0  0  0  0
    7.9826  -14.4483   24.5905 C   0  0  2  0  0  0  0  0  0  0  0  0
    6.7789  -15.2700   24.2256 N   0  0  0  0  0  0  0  0  0  0  0  0
    8.9968  -15.4690   24.9356 C   0  0  0  0  0  0  0  0  0  0  0  0
    8.7803  -16.2436   25.9436 O   0  0  0  0  0  0  0  0  0  0  0  0
   10.9274  -16.9458   31.2676 O   0  0  0  0  0  0  0  0  0  0  0  0
   11.0747  -16.4437   29.9718 C   0  0  0  0  0  0  0  0  0  0  0  0
   10.7883  -15.1217   29.7738 C   0  0  0  0  0  0  0  0  0  0  0  0
   10.9148  -14.5723   28.5214 C   0  0  0  0  0  0  0  0  0  0  0  0
   11.3296  -15.3195   27.4273 C   0  0  0  0  0  0  0  0  0  0  0  0
   11.4111  -14.6908   26.1138 C   0  0  0  0  0  0  0  0  0  0  0  0
   11.4438  -15.7619   25.0387 C   0  0  2  0  0  0  0  0  0  0  0  0
   10.2120  -15.7011   24.2525 N   0  0  0  0  0  0  0  0  0  0  0  0
   11.5846  -17.0675   25.6860 C   0  0  0  0  0  0  0  0  0  0  0  0
   12.8302  -17.5420   26.0284 O   0  0  0  0  0  0  0  0  0  0  0  0
   11.6123  -16.6456   27.6469 C   0  0  0  0  0  0  0  0  0  0  0  0
   11.4913  -17.2293   28.9142 C   0  0  0  0  0  0  0  0  0  0  0  0
   10.5831  -17.7631   25.9331 O   0  0  0  0  0  0  0  0  0  0  0  0
  2  1  1  6
  3  4  1  0
  3  2  1  0
  5  6  2  0
  5  2  1  0
  8  7  1  0
  8  9  1  0
  9 11  1  0
  9 10  1  6
 11 12  1  1
 12  5  1  0
 13 11  1  0
 14 13  2  0
 16 17  2  0
 16 15  1  0
 18 17  1  0
 19 18  2  0
 21 20  1  1
 20 19  1  0
 21 22  1  0
 22 13  1  0
 23 24  1  0
 23 21  1  0
 25 19  1  0
 25 26  2  0
 26 16  1  0
 27 23  2  0
M  END
$$$$
