KID.pdb
     RDKit          3D

 26 25  0  0  1  0  0  0  0  0999 V2000
   13.5351  -13.4227  -12.0601 N   0  0  0  0  0  0  0  0  0  0  0  0
   14.5324  -12.4095  -11.9021 C   0  0  1  0  0  0  0  0  0  0  0  0
   15.4411  -12.2908  -13.0963 C   0  0  0  0  0  0  0  0  0  0  0  0
   16.2060  -13.5821  -13.2214 C   0  0  0  0  0  0  0  0  0  0  0  0
   16.0878  -14.1981  -14.5911 C   0  0  0  0  0  0  0  0  0  0  0  0
   16.8162  -15.5143  -14.6941 C   0  0  0  0  0  0  0  0  0  0  0  0
   16.6219  -16.0140  -16.0470 N   0  0  0  0  0  0  0  0  0  0  0  0
   13.8741  -11.1112  -11.5613 C   0  0  0  0  0  0  0  0  0  0  0  0
   12.9268  -10.6678  -12.2536 O   0  0  0  0  0  0  0  0  0  0  0  0
   11.0388  -10.0494   -7.5596 C   0  0  0  0  0  0  0  0  0  0  0  0
   11.7647   -9.9112   -8.8512 C   0  0  0  0  0  0  0  0  0  0  0  0
   13.1376   -9.2436   -8.6320 C   0  0  2  0  0  0  0  0  0  0  0  0
   12.7761   -7.9101   -7.9895 C   0  0  0  0  0  0  0  0  0  0  0  0
   13.8494   -9.1154   -9.9408 C   0  0  2  0  0  0  0  0  0  0  0  0
   14.3416  -10.4037  -10.4507 N   0  0  0  0  0  0  0  0  0  0  0  0
   14.9174   -8.1103  -10.0166 C   0  0  0  0  0  0  0  0  0  0  0  0
   15.9917   -8.2578   -9.3043 O   0  0  0  0  0  0  0  0  0  0  0  0
   14.9324   -6.9404  -10.8101 N   0  0  0  0  0  0  0  0  0  0  0  0
   16.0408   -5.9968  -10.7232 C   0  0  1  0  0  0  0  0  0  0  0  0
   16.3091   -5.2562  -11.9877 C   0  0  0  0  0  0  0  0  0  0  0  0
   17.3379   -4.2019  -11.8778 C   0  0  0  0  0  0  0  0  0  0  0  0
   18.5062   -4.5203  -11.5676 O   0  0  0  0  0  0  0  0  0  0  0  0
   15.7285   -5.0155   -9.6514 C   0  0  0  0  0  0  0  0  0  0  0  0
   16.6878   -4.5236   -8.7797 O   0  0  0  0  0  0  0  0  0  0  0  0
   17.0519   -2.8698  -12.1072 O   0  0  0  0  0  0  0  0  0  0  0  0
   14.5504   -4.5777   -9.4842 O   0  0  0  0  0  0  0  0  0  0  0  0
  2  3  1  0
  2  1  1  6
  4  3  1  0
  5  6  1  0
  5  4  1  0
  7  6  1  0
  8  9  2  0
  8  2  1  0
 10 11  1  0
 12 11  1  0
 12 14  1  0
 12 13  1  6
 14 15  1  1
 15  8  1  0
 16 17  2  0
 16 14  1  0
 18 16  1  0
 19 18  1  0
 19 20  1  6
 20 21  1  0
 21 22  2  0
 21 25  1  0
 23 19  1  0
 24 23  1  0
 26 23  2  0
M  END
$$$$
