KID.pdb
     RDKit          3D

 26 25  0  0  1  0  0  0  0  0999 V2000
   28.5496  -22.0817  -15.9337 N   0  0  0  0  0  0  0  0  0  0  0  0
   27.6308  -21.0400  -15.5918 C   0  0  1  0  0  0  0  0  0  0  0  0
   27.0135  -20.3843  -16.7979 C   0  0  0  0  0  0  0  0  0  0  0  0
   28.1237  -19.7529  -17.5960 C   0  0  0  0  0  0  0  0  0  0  0  0
   28.2941  -18.2863  -17.2966 C   0  0  0  0  0  0  0  0  0  0  0  0
   28.0934  -17.4235  -18.5167 C   0  0  0  0  0  0  0  0  0  0  0  0
   28.3604  -16.0477  -18.1251 N   0  0  0  0  0  0  0  0  0  0  0  0
   26.6006  -21.5740  -14.6491 C   0  0  0  0  0  0  0  0  0  0  0  0
   26.1195  -22.7221  -14.8032 O   0  0  0  0  0  0  0  0  0  0  0  0
   27.4393  -20.8855   -9.4881 C   0  0  0  0  0  0  0  0  0  0  0  0
   26.8834  -21.4350  -10.7543 C   0  0  0  0  0  0  0  0  0  0  0  0
   25.6335  -20.6414  -11.1863 C   0  0  2  0  0  0  0  0  0  0  0  0
   24.6273  -20.9533  -10.0853 C   0  0  0  0  0  0  0  0  0  0  0  0
   25.2023  -21.0841  -12.5480 C   0  0  2  0  0  0  0  0  0  0  0  0
   26.1869  -20.7604  -13.5910 N   0  0  0  0  0  0  0  0  0  0  0  0
   23.8624  -20.6703  -12.9840 C   0  0  0  0  0  0  0  0  0  0  0  0
   23.6126  -19.4143  -13.1919 O   0  0  0  0  0  0  0  0  0  0  0  0
   22.7480  -21.5063  -13.2244 N   0  0  0  0  0  0  0  0  0  0  0  0
   21.4972  -20.9518  -13.7285 C   0  0  1  0  0  0  0  0  0  0  0  0
   20.6803  -21.9148  -14.5189 C   0  0  0  0  0  0  0  0  0  0  0  0
   19.3941  -21.3766  -15.0067 C   0  0  0  0  0  0  0  0  0  0  0  0
   19.3383  -20.1901  -15.3961 O   0  0  0  0  0  0  0  0  0  0  0  0
   20.6964  -20.4871  -12.5658 C   0  0  0  0  0  0  0  0  0  0  0  0
   19.8551  -19.3867  -12.6238 O   0  0  0  0  0  0  0  0  0  0  0  0
   18.2452  -22.1429  -15.0475 O   0  0  0  0  0  0  0  0  0  0  0  0
   20.7486  -21.0873  -11.4500 O   0  0  0  0  0  0  0  0  0  0  0  0
  2  3  1  0
  2  1  1  6
  4  3  1  0
  5  6  1  0
  5  4  1  0
  7  6  1  0
  8  9  2  0
  8  2  1  0
 10 11  1  0
 12 11  1  0
 12 14  1  0
 12 13  1  1
 14 15  1  6
 15  8  1  0
 16 17  2  0
 16 14  1  0
 18 16  1  0
 19 18  1  0
 19 20  1  1
 20 21  1  0
 21 22  2  0
 21 25  1  0
 23 19  1  0
 24 23  1  0
 26 23  2  0
M  END
$$$$
