KID.pdb
     RDKit          3D

 26 25  0  0  1  0  0  0  0  0999 V2000
   20.0806  -15.3904  -15.7006 N   0  0  0  0  0  0  0  0  0  0  0  0
   19.7249  -15.3671  -17.0859 C   0  0  1  0  0  0  0  0  0  0  0  0
   18.9491  -16.5847  -17.5120 C   0  0  0  0  0  0  0  0  0  0  0  0
   19.6409  -17.7936  -16.9390 C   0  0  0  0  0  0  0  0  0  0  0  0
   18.9184  -19.0787  -17.2489 C   0  0  0  0  0  0  0  0  0  0  0  0
   19.6937  -20.2945  -16.8083 C   0  0  0  0  0  0  0  0  0  0  0  0
   18.8756  -21.4617  -17.1014 N   0  0  0  0  0  0  0  0  0  0  0  0
   18.9974  -14.0974  -17.3921 C   0  0  0  0  0  0  0  0  0  0  0  0
   18.6297  -13.8313  -18.5614 O   0  0  0  0  0  0  0  0  0  0  0  0
   14.7354  -10.7672  -16.7917 C   0  0  0  0  0  0  0  0  0  0  0  0
   15.8917  -10.7185  -15.8563 C   0  0  0  0  0  0  0  0  0  0  0  0
   16.6061  -12.0845  -15.8070 C   0  0  2  0  0  0  0  0  0  0  0  0
   16.6016  -12.4246  -14.3216 C   0  0  0  0  0  0  0  0  0  0  0  0
   17.9738  -11.9586  -16.3983 C   0  0  2  0  0  0  0  0  0  0  0  0
   18.7373  -13.2139  -16.3412 N   0  0  0  0  0  0  0  0  0  0  0  0
   18.8044  -10.8493  -15.9123 C   0  0  0  0  0  0  0  0  0  0  0  0
   19.4769  -10.9834  -14.8109 O   0  0  0  0  0  0  0  0  0  0  0  0
   18.9811   -9.5860  -16.5216 N   0  0  0  0  0  0  0  0  0  0  0  0
   19.8621   -8.5889  -15.9248 C   0  0  1  0  0  0  0  0  0  0  0  0
   20.6458   -7.7993  -16.9156 C   0  0  0  0  0  0  0  0  0  0  0  0
   21.4735   -6.7247  -16.3308 C   0  0  0  0  0  0  0  0  0  0  0  0
   21.4666   -6.5554  -15.0923 O   0  0  0  0  0  0  0  0  0  0  0  0
   19.0274   -7.6565  -15.1229 C   0  0  0  0  0  0  0  0  0  0  0  0
   19.3139   -7.3348  -13.8052 O   0  0  0  0  0  0  0  0  0  0  0  0
   22.2588   -5.8963  -17.1093 O   0  0  0  0  0  0  0  0  0  0  0  0
   17.9984   -7.1047  -15.6175 O   0  0  0  0  0  0  0  0  0  0  0  0
  2  3  1  0
  2  1  1  1
  4  3  1  0
  5  6  1  0
  5  4  1  0
  7  6  1  0
  8  9  2  0
  8  2  1  0
 10 11  1  0
 12 11  1  0
 12 14  1  0
 12 13  1  1
 14 15  1  1
 15  8  1  0
 16 17  2  0
 16 14  1  0
 18 16  1  0
 19 18  1  0
 19 20  1  6
 20 21  1  0
 21 22  2  0
 21 25  1  0
 23 19  1  0
 24 23  1  0
 26 23  2  0
M  END
$$$$
