KID.pdb
     RDKit          3D

 26 25  0  0  1  0  0  0  0  0999 V2000
   28.8974  -21.4489  -15.3419 N   0  0  0  0  0  0  0  0  0  0  0  0
   28.3384  -20.5064  -14.4224 C   0  0  1  0  0  0  0  0  0  0  0  0
   27.9554  -19.2061  -15.0768 C   0  0  0  0  0  0  0  0  0  0  0  0
   28.2445  -19.3306  -16.5496 C   0  0  0  0  0  0  0  0  0  0  0  0
   28.4307  -17.9949  -17.2210 C   0  0  0  0  0  0  0  0  0  0  0  0
   28.6633  -18.1250  -18.7051 C   0  0  0  0  0  0  0  0  0  0  0  0
   28.8824  -16.7856  -19.2300 N   0  0  0  0  0  0  0  0  0  0  0  0
   27.1905  -21.1357  -13.7003 C   0  0  0  0  0  0  0  0  0  0  0  0
   26.5527  -22.0879  -14.2098 O   0  0  0  0  0  0  0  0  0  0  0  0
   27.5190  -20.7061   -8.2699 C   0  0  0  0  0  0  0  0  0  0  0  0
   27.1491  -21.3296   -9.5695 C   0  0  0  0  0  0  0  0  0  0  0  0
   25.8984  -20.6477  -10.1605 C   0  0  2  0  0  0  0  0  0  0  0  0
   24.7790  -21.1191   -9.2404 C   0  0  0  0  0  0  0  0  0  0  0  0
   25.7273  -21.0604  -11.5876 C   0  0  2  0  0  0  0  0  0  0  0  0
   26.8460  -20.6351  -12.4420 N   0  0  0  0  0  0  0  0  0  0  0  0
   24.4526  -20.7120  -12.2281 C   0  0  0  0  0  0  0  0  0  0  0  0
   24.2438  -19.4950  -12.6263 O   0  0  0  0  0  0  0  0  0  0  0  0
   23.3640  -21.5762  -12.4863 N   0  0  0  0  0  0  0  0  0  0  0  0
   22.2063  -21.1095  -13.2401 C   0  0  1  0  0  0  0  0  0  0  0  0
   21.7769  -22.0324  -14.3279 C   0  0  0  0  0  0  0  0  0  0  0  0
   20.5488  -21.6195  -15.0373 C   0  0  0  0  0  0  0  0  0  0  0  0
   20.0873  -22.3556  -15.9360 O   0  0  0  0  0  0  0  0  0  0  0  0
   21.0773  -20.9327  -12.2896 C   0  0  0  0  0  0  0  0  0  0  0  0
   19.9750  -20.1403  -12.5706 O   0  0  0  0  0  0  0  0  0  0  0  0
   19.8895  -20.4422  -14.7402 O   0  0  0  0  0  0  0  0  0  0  0  0
   21.0728  -21.5090  -11.1601 O   0  0  0  0  0  0  0  0  0  0  0  0
  2  3  1  0
  2  1  1  6
  4  3  1  0
  5  6  1  0
  5  4  1  0
  7  6  1  0
  8  9  2  0
  8  2  1  0
 10 11  1  0
 12 11  1  0
 12 14  1  0
 12 13  1  1
 14 15  1  6
 15  8  1  0
 16 17  2  0
 16 14  1  0
 18 16  1  0
 19 18  1  0
 19 20  1  6
 20 21  1  0
 21 22  2  0
 21 25  1  0
 23 19  1  0
 24 23  1  0
 26 23  2  0
M  END
$$$$
