KID.pdb
     RDKit          3D

 26 25  0  0  1  0  0  0  0  0999 V2000
   22.7386  -28.2188  -12.8608 N   0  0  0  0  0  0  0  0  0  0  0  0
   22.6975  -27.5306  -14.1142 C   0  0  1  0  0  0  0  0  0  0  0  0
   21.4937  -27.8928  -14.9421 C   0  0  0  0  0  0  0  0  0  0  0  0
   20.7347  -28.9644  -14.2045 C   0  0  0  0  0  0  0  0  0  0  0  0
   21.1853  -30.3542  -14.5720 C   0  0  0  0  0  0  0  0  0  0  0  0
   20.0926  -31.1570  -15.2315 C   0  0  0  0  0  0  0  0  0  0  0  0
   20.6758  -32.4222  -15.6517 N   0  0  0  0  0  0  0  0  0  0  0  0
   22.7986  -26.0579  -13.8774 C   0  0  0  0  0  0  0  0  0  0  0  0
   22.5046  -25.5627  -12.7632 O   0  0  0  0  0  0  0  0  0  0  0  0
   27.1569  -23.8180  -15.8462 C   0  0  0  0  0  0  0  0  0  0  0  0
   25.9399  -24.1008  -15.0380 C   0  0  0  0  0  0  0  0  0  0  0  0
   24.7084  -23.4040  -15.6517 C   0  0  2  0  0  0  0  0  0  0  0  0
   25.0565  -21.9245  -15.5412 C   0  0  0  0  0  0  0  0  0  0  0  0
   23.4792  -23.7979  -14.8967 C   0  0  2  0  0  0  0  0  0  0  0  0
   23.2293  -25.2465  -14.9304 N   0  0  0  0  0  0  0  0  0  0  0  0
   22.2439  -23.0729  -15.2208 C   0  0  0  0  0  0  0  0  0  0  0  0
   21.5630  -23.4008  -16.2753 O   0  0  0  0  0  0  0  0  0  0  0  0
   21.6641  -22.0085  -14.4931 N   0  0  0  0  0  0  0  0  0  0  0  0
   20.4651  -21.3387  -14.9830 C   0  0  1  0  0  0  0  0  0  0  0  0
   19.2055  -21.7919  -14.3291 C   0  0  0  0  0  0  0  0  0  0  0  0
   17.9906  -21.0766  -14.7699 C   0  0  0  0  0  0  0  0  0  0  0  0
   17.6814  -21.0895  -15.9810 O   0  0  0  0  0  0  0  0  0  0  0  0
   20.6251  -19.8791  -14.7526 C   0  0  0  0  0  0  0  0  0  0  0  0
   19.9003  -18.9241  -15.4488 O   0  0  0  0  0  0  0  0  0  0  0  0
   17.1805  -20.3906  -13.8856 O   0  0  0  0  0  0  0  0  0  0  0  0
   21.4461  -19.4354  -13.8940 O   0  0  0  0  0  0  0  0  0  0  0  0
  2  3  1  0
  2  1  1  1
  4  3  1  0
  5  6  1  0
  5  4  1  0
  7  6  1  0
  8  9  2  0
  8  2  1  0
 10 11  1  0
 12 11  1  0
 12 14  1  0
 12 13  1  1
 14 15  1  6
 15  8  1  0
 16 17  2  0
 16 14  1  0
 18 16  1  0
 19 18  1  0
 19 20  1  1
 20 21  1  0
 21 22  2  0
 21 25  1  0
 23 19  1  0
 24 23  1  0
 26 23  2  0
M  END
$$$$
