KID.pdb
     RDKit          3D

 26 25  0  0  1  0  0  0  0  0999 V2000
   20.2326  -21.6933  -16.4810 N   0  0  0  0  0  0  0  0  0  0  0  0
   21.5480  -21.8961  -15.9567 C   0  0  1  0  0  0  0  0  0  0  0  0
   22.5973  -21.0966  -16.6818 C   0  0  0  0  0  0  0  0  0  0  0  0
   22.7731  -21.7030  -18.0491 C   0  0  0  0  0  0  0  0  0  0  0  0
   23.6069  -22.9575  -18.0263 C   0  0  0  0  0  0  0  0  0  0  0  0
   23.8266  -23.5267  -19.4051 C   0  0  0  0  0  0  0  0  0  0  0  0
   24.6808  -24.6961  -19.2619 N   0  0  0  0  0  0  0  0  0  0  0  0
   21.5455  -21.6242  -14.4866 C   0  0  0  0  0  0  0  0  0  0  0  0
   22.6110  -21.6475  -13.8251 O   0  0  0  0  0  0  0  0  0  0  0  0
   19.6634  -17.2828  -13.4797 C   0  0  0  0  0  0  0  0  0  0  0  0
   20.4235  -18.4704  -13.0040 C   0  0  0  0  0  0  0  0  0  0  0  0
   19.4646  -19.5310  -12.4257 C   0  0  2  0  0  0  0  0  0  0  0  0
   19.2097  -19.0318  -11.0087 C   0  0  0  0  0  0  0  0  0  0  0  0
   20.1082  -20.8792  -12.4893 C   0  0  2  0  0  0  0  0  0  0  0  0
   20.3246  -21.3432  -13.8677 N   0  0  0  0  0  0  0  0  0  0  0  0
   19.4845  -21.9473  -11.6977 C   0  0  0  0  0  0  0  0  0  0  0  0
   18.5017  -22.6299  -12.1991 O   0  0  0  0  0  0  0  0  0  0  0  0
   19.8353  -22.3556  -10.3904 N   0  0  0  0  0  0  0  0  0  0  0  0
   19.1326  -23.4559   -9.7410 C   0  0  1  0  0  0  0  0  0  0  0  0
   19.7882  -23.9454   -8.4961 C   0  0  0  0  0  0  0  0  0  0  0  0
   19.1294  -25.1095   -7.8695 C   0  0  0  0  0  0  0  0  0  0  0  0
   18.7530  -26.0583   -8.5910 O   0  0  0  0  0  0  0  0  0  0  0  0
   17.7594  -22.9944   -9.4086 C   0  0  0  0  0  0  0  0  0  0  0  0
   16.6566  -23.8341   -9.4368 O   0  0  0  0  0  0  0  0  0  0  0  0
   18.9138  -25.1862   -6.5069 O   0  0  0  0  0  0  0  0  0  0  0  0
   17.5323  -21.7913   -9.0789 O   0  0  0  0  0  0  0  0  0  0  0  0
  2  3  1  0
  2  1  1  6
  4  3  1  0
  5  6  1  0
  5  4  1  0
  7  6  1  0
  8  9  2  0
  8  2  1  0
 10 11  1  0
 12 11  1  0
 12 14  1  0
 12 13  1  1
 14 15  1  6
 15  8  1  0
 16 17  2  0
 16 14  1  0
 18 16  1  0
 19 18  1  0
 19 20  1  1
 20 21  1  0
 21 22  2  0
 21 25  1  0
 23 19  1  0
 24 23  1  0
 26 23  2  0
M  END
$$$$
