KID.pdb
     RDKit          3D

 26 25  0  0  1  0  0  0  0  0999 V2000
   23.6249  -14.6075  -18.3017 N   0  0  0  0  0  0  0  0  0  0  0  0
   22.7605  -14.5259  -17.1649 C   0  0  1  0  0  0  0  0  0  0  0  0
   22.6358  -15.8331  -16.4289 C   0  0  0  0  0  0  0  0  0  0  0  0
   21.5052  -16.6064  -17.0550 C   0  0  0  0  0  0  0  0  0  0  0  0
   21.3757  -16.3528  -18.5343 C   0  0  0  0  0  0  0  0  0  0  0  0
   20.2203  -17.1030  -19.1471 C   0  0  0  0  0  0  0  0  0  0  0  0
   20.2110  -16.8001  -20.5704 N   0  0  0  0  0  0  0  0  0  0  0  0
   23.2145  -13.4157  -16.2725 C   0  0  0  0  0  0  0  0  0  0  0  0
   22.7260  -13.2692  -15.1266 O   0  0  0  0  0  0  0  0  0  0  0  0
   28.3974  -12.5299  -15.8307 C   0  0  0  0  0  0  0  0  0  0  0  0
   26.9339  -12.5276  -15.5615 C   0  0  0  0  0  0  0  0  0  0  0  0
   26.2651  -11.3012  -16.2150 C   0  0  2  0  0  0  0  0  0  0  0  0
   26.9017  -10.1272  -15.4813 C   0  0  0  0  0  0  0  0  0  0  0  0
   24.7814  -11.3896  -16.0498 C   0  0  2  0  0  0  0  0  0  0  0  0
   24.1979  -12.5445  -16.7483 N   0  0  0  0  0  0  0  0  0  0  0  0
   24.0088  -10.1797  -16.3589 C   0  0  0  0  0  0  0  0  0  0  0  0
   23.7900   -9.8541  -17.5956 O   0  0  0  0  0  0  0  0  0  0  0  0
   23.4366   -9.2745  -15.4360 N   0  0  0  0  0  0  0  0  0  0  0  0
   22.6397   -8.1444  -15.8989 C   0  0  1  0  0  0  0  0  0  0  0  0
   21.7325   -7.5756  -14.8631 C   0  0  0  0  0  0  0  0  0  0  0  0
   20.6658   -8.4908  -14.4086 C   0  0  0  0  0  0  0  0  0  0  0  0
   20.3936   -9.4987  -15.0961 O   0  0  0  0  0  0  0  0  0  0  0  0
   23.5706   -7.0797  -16.3560 C   0  0  0  0  0  0  0  0  0  0  0  0
   23.2119   -6.1155  -17.2854 O   0  0  0  0  0  0  0  0  0  0  0  0
   19.9553   -8.2702  -13.2445 O   0  0  0  0  0  0  0  0  0  0  0  0
   24.7546   -7.0053  -15.9082 O   0  0  0  0  0  0  0  0  0  0  0  0
  2  3  1  0
  2  1  1  6
  4  3  1  0
  5  6  1  0
  5  4  1  0
  7  6  1  0
  8  9  2  0
  8  2  1  0
 10 11  1  0
 12 11  1  0
 12 14  1  0
 12 13  1  1
 14 15  1  6
 15  8  1  0
 16 17  2  0
 16 14  1  0
 18 16  1  0
 19 18  1  0
 19 20  1  1
 20 21  1  0
 21 22  2  0
 21 25  1  0
 23 19  1  0
 24 23  1  0
 26 23  2  0
M  END
$$$$
