KID.pdb
     RDKit          3D

 26 25  0  0  1  0  0  0  0  0999 V2000
   20.5532  -33.8547    1.7073 N   0  0  0  0  0  0  0  0  0  0  0  0
   21.0547  -32.9108    2.6580 C   0  0  1  0  0  0  0  0  0  0  0  0
   20.1850  -32.7929    3.8810 C   0  0  0  0  0  0  0  0  0  0  0  0
   18.8345  -32.2951    3.4378 C   0  0  0  0  0  0  0  0  0  0  0  0
   17.8601  -32.1624    4.5790 C   0  0  0  0  0  0  0  0  0  0  0  0
   16.5150  -31.6502    4.1297 C   0  0  0  0  0  0  0  0  0  0  0  0
   15.6666  -31.5636    5.3087 N   0  0  0  0  0  0  0  0  0  0  0  0
   22.4691  -33.2528    3.0009 C   0  0  0  0  0  0  0  0  0  0  0  0
   22.8184  -34.4437    3.1824 O   0  0  0  0  0  0  0  0  0  0  0  0
   26.2252  -31.9508   -0.0825 C   0  0  0  0  0  0  0  0  0  0  0  0
   25.5502  -32.6118    1.0671 C   0  0  0  0  0  0  0  0  0  0  0  0
   25.6967  -31.7593    2.3441 C   0  0  2  0  0  0  0  0  0  0  0  0
   27.1881  -31.8402    2.6456 C   0  0  0  0  0  0  0  0  0  0  0  0
   24.8263  -32.3176    3.4243 C   0  0  2  0  0  0  0  0  0  0  0  0
   23.3930  -32.2105    3.1140 N   0  0  0  0  0  0  0  0  0  0  0  0
   25.0764  -31.8369    4.7892 C   0  0  0  0  0  0  0  0  0  0  0  0
   24.7286  -30.6319    5.1210 O   0  0  0  0  0  0  0  0  0  0  0  0
   25.6758  -32.5547    5.8494 N   0  0  0  0  0  0  0  0  0  0  0  0
   25.8278  -31.9475    7.1664 C   0  0  1  0  0  0  0  0  0  0  0  0
   24.5399  -31.5772    7.8173 C   0  0  0  0  0  0  0  0  0  0  0  0
   24.6594  -31.1695    9.2321 C   0  0  0  0  0  0  0  0  0  0  0  0
   25.6940  -30.5792    9.6110 O   0  0  0  0  0  0  0  0  0  0  0  0
   26.5448  -32.9130    8.0399 C   0  0  0  0  0  0  0  0  0  0  0  0
   26.8520  -34.2042    7.6397 O   0  0  0  0  0  0  0  0  0  0  0  0
   23.6622  -31.4192   10.1552 O   0  0  0  0  0  0  0  0  0  0  0  0
   26.9133  -32.5924    9.2100 O   0  0  0  0  0  0  0  0  0  0  0  0
  2  3  1  0
  2  1  1  6
  4  3  1  0
  5  6  1  0
  5  4  1  0
  7  6  1  0
  8  9  2  0
  8  2  1  0
 10 11  1  0
 12 11  1  0
 12 14  1  0
 12 13  1  1
 14 15  1  6
 15  8  1  0
 16 17  2  0
 16 14  1  0
 18 16  1  0
 19 18  1  0
 19 20  1  1
 20 21  1  0
 21 22  2  0
 21 25  1  0
 23 19  1  0
 24 23  1  0
 26 23  2  0
M  END
$$$$
