KID.pdb
     RDKit          3D

 26 25  0  0  1  0  0  0  0  0999 V2000
   28.2657  -21.6332  -16.0882 N   0  0  0  0  0  0  0  0  0  0  0  0
   27.8084  -20.6086  -15.2009 C   0  0  1  0  0  0  0  0  0  0  0  0
   27.6206  -19.2814  -15.8858 C   0  0  0  0  0  0  0  0  0  0  0  0
   26.8971  -19.5323  -17.1827 C   0  0  0  0  0  0  0  0  0  0  0  0
   26.8367  -18.3099  -18.0611 C   0  0  0  0  0  0  0  0  0  0  0  0
   26.1744  -18.5871  -19.3870 C   0  0  0  0  0  0  0  0  0  0  0  0
   26.2483  -17.3653  -20.1739 N   0  0  0  0  0  0  0  0  0  0  0  0
   26.5659  -21.0680  -14.5078 C   0  0  0  0  0  0  0  0  0  0  0  0
   25.8584  -21.9832  -14.9926 O   0  0  0  0  0  0  0  0  0  0  0  0
   27.0773  -20.6632   -9.1788 C   0  0  0  0  0  0  0  0  0  0  0  0
   26.6175  -21.2134  -10.4827 C   0  0  0  0  0  0  0  0  0  0  0  0
   25.3717  -20.4536  -10.9819 C   0  0  2  0  0  0  0  0  0  0  0  0
   24.2821  -20.9016  -10.0154 C   0  0  0  0  0  0  0  0  0  0  0  0
   25.1033  -20.8103  -12.4091 C   0  0  2  0  0  0  0  0  0  0  0  0
   26.2126  -20.4509  -13.3049 N   0  0  0  0  0  0  0  0  0  0  0  0
   23.8331  -20.3434  -12.9794 C   0  0  0  0  0  0  0  0  0  0  0  0
   23.6392  -19.0742  -13.1658 O   0  0  0  0  0  0  0  0  0  0  0  0
   22.7341  -21.1384  -13.3779 N   0  0  0  0  0  0  0  0  0  0  0  0
   21.5387  -20.5248  -13.9444 C   0  0  1  0  0  0  0  0  0  0  0  0
   21.0828  -21.1457  -15.2195 C   0  0  0  0  0  0  0  0  0  0  0  0
   19.8229  -20.5935  -15.7578 C   0  0  0  0  0  0  0  0  0  0  0  0
   18.7339  -21.0642  -15.3642 O   0  0  0  0  0  0  0  0  0  0  0  0
   20.4459  -20.6322  -12.9427 C   0  0  0  0  0  0  0  0  0  0  0  0
   19.3047  -19.8462  -12.9879 O   0  0  0  0  0  0  0  0  0  0  0  0
   19.8067  -19.5700  -16.6856 O   0  0  0  0  0  0  0  0  0  0  0  0
   20.5105  -21.4619  -11.9860 O   0  0  0  0  0  0  0  0  0  0  0  0
  2  3  1  0
  2  1  1  6
  4  3  1  0
  5  6  1  0
  5  4  1  0
  7  6  1  0
  8  9  2  0
  8  2  1  0
 10 11  1  0
 12 11  1  0
 12 14  1  0
 12 13  1  1
 14 15  1  6
 15  8  1  0
 16 17  2  0
 16 14  1  0
 18 16  1  0
 19 18  1  0
 19 20  1  6
 20 21  1  0
 21 22  2  0
 21 25  1  0
 23 19  1  0
 24 23  1  0
 26 23  2  0
M  END
$$$$
