KID.pdb
     RDKit          3D

 26 25  0  0  1  0  0  0  0  0999 V2000
   28.0616  -22.6191  -16.8342 N   0  0  0  0  0  0  0  0  0  0  0  0
   27.3645  -21.4925  -16.2946 C   0  0  1  0  0  0  0  0  0  0  0  0
   26.6903  -20.6597  -17.3518 C   0  0  0  0  0  0  0  0  0  0  0  0
   27.7670  -20.0170  -18.1860 C   0  0  0  0  0  0  0  0  0  0  0  0
   28.8297  -20.9938  -18.6174 C   0  0  0  0  0  0  0  0  0  0  0  0
   29.7118  -20.4392  -19.7072 C   0  0  0  0  0  0  0  0  0  0  0  0
   31.0267  -20.2096  -19.1277 N   0  0  0  0  0  0  0  0  0  0  0  0
   26.4072  -21.9556  -15.2438 C   0  0  0  0  0  0  0  0  0  0  0  0
   25.7795  -23.0337  -15.3740 O   0  0  0  0  0  0  0  0  0  0  0  0
   25.5736  -20.7516   -9.2135 C   0  0  0  0  0  0  0  0  0  0  0  0
   25.0026  -21.2347  -10.4999 C   0  0  0  0  0  0  0  0  0  0  0  0
   25.9828  -20.9699  -11.6608 C   0  0  2  0  0  0  0  0  0  0  0  0
   26.2065  -19.4643  -11.5889 C   0  0  0  0  0  0  0  0  0  0  0  0
   25.3770  -21.4343  -12.9467 C   0  0  2  0  0  0  0  0  0  0  0  0
   26.2296  -21.1558  -14.1119 N   0  0  0  0  0  0  0  0  0  0  0  0
   24.0011  -21.0021  -13.2231 C   0  0  0  0  0  0  0  0  0  0  0  0
   23.7699  -19.7737  -13.5711 O   0  0  0  0  0  0  0  0  0  0  0  0
   22.8304  -21.7922  -13.1608 N   0  0  0  0  0  0  0  0  0  0  0  0
   21.5390  -21.2407  -13.5537 C   0  0  1  0  0  0  0  0  0  0  0  0
   20.7456  -22.1291  -14.4485 C   0  0  0  0  0  0  0  0  0  0  0  0
   19.4527  -21.5653  -14.8876 C   0  0  0  0  0  0  0  0  0  0  0  0
   19.1619  -20.3908  -14.5739 O   0  0  0  0  0  0  0  0  0  0  0  0
   20.7533  -20.9807  -12.3190 C   0  0  0  0  0  0  0  0  0  0  0  0
   19.7937  -19.9837  -12.2345 O   0  0  0  0  0  0  0  0  0  0  0  0
   18.5497  -22.2949  -15.6367 O   0  0  0  0  0  0  0  0  0  0  0  0
   20.9293  -21.6715  -11.2704 O   0  0  0  0  0  0  0  0  0  0  0  0
  2  3  1  0
  2  1  1  6
  4  3  1  0
  5  6  1  0
  5  4  1  0
  7  6  1  0
  8  9  2  0
  8  2  1  0
 10 11  1  0
 12 11  1  0
 12 14  1  0
 12 13  1  6
 14 15  1  6
 15  8  1  0
 16 17  2  0
 16 14  1  0
 18 16  1  0
 19 18  1  0
 19 20  1  6
 20 21  1  0
 21 22  2  0
 21 25  1  0
 23 19  1  0
 24 23  1  0
 26 23  2  0
M  END
$$$$
