KID.pdb
     RDKit          3D

 26 25  0  0  1  0  0  0  0  0999 V2000
   17.4297  -22.4904   -8.7747 N   0  0  0  0  0  0  0  0  0  0  0  0
   18.5428  -22.9519   -9.5456 C   0  0  1  0  0  0  0  0  0  0  0  0
   18.1531  -23.9648  -10.5887 C   0  0  0  0  0  0  0  0  0  0  0  0
   17.0254  -24.7907  -10.0280 C   0  0  0  0  0  0  0  0  0  0  0  0
   17.5048  -26.0546   -9.3628 C   0  0  0  0  0  0  0  0  0  0  0  0
   16.3664  -26.9156   -8.8769 C   0  0  0  0  0  0  0  0  0  0  0  0
   16.0868  -27.8944   -9.9168 N   0  0  0  0  0  0  0  0  0  0  0  0
   19.2603  -21.7804  -10.1353 C   0  0  0  0  0  0  0  0  0  0  0  0
   18.6530  -20.7118  -10.3852 O   0  0  0  0  0  0  0  0  0  0  0  0
   24.2862  -20.7827   -8.4582 C   0  0  0  0  0  0  0  0  0  0  0  0
   22.9276  -20.5846   -9.0321 C   0  0  0  0  0  0  0  0  0  0  0  0
   22.9091  -20.9701  -10.5253 C   0  0  2  0  0  0  0  0  0  0  0  0
   23.8417  -19.9455  -11.1595 C   0  0  0  0  0  0  0  0  0  0  0  0
   21.5065  -20.9176  -11.0411 C   0  0  2  0  0  0  0  0  0  0  0  0
   20.6263  -21.9065  -10.4012 N   0  0  0  0  0  0  0  0  0  0  0  0
   21.3359  -20.9703  -12.4987 C   0  0  0  0  0  0  0  0  0  0  0  0
   21.4782  -22.0986  -13.1230 O   0  0  0  0  0  0  0  0  0  0  0  0
   21.0154  -19.8952  -13.3590 N   0  0  0  0  0  0  0  0  0  0  0  0
   20.8145  -20.1187  -14.7859 C   0  0  1  0  0  0  0  0  0  0  0  0
   19.3982  -19.9863  -15.2283 C   0  0  0  0  0  0  0  0  0  0  0  0
   19.1931  -20.1160  -16.6854 C   0  0  0  0  0  0  0  0  0  0  0  0
   19.6185  -21.1343  -17.2726 O   0  0  0  0  0  0  0  0  0  0  0  0
   21.6417  -19.1321  -15.5286 C   0  0  0  0  0  0  0  0  0  0  0  0
   22.3719  -19.4630  -16.6596 O   0  0  0  0  0  0  0  0  0  0  0  0
   18.5444  -19.1461  -17.4251 O   0  0  0  0  0  0  0  0  0  0  0  0
   21.7171  -17.9231  -15.1536 O   0  0  0  0  0  0  0  0  0  0  0  0
  2  3  1  0
  2  1  1  6
  4  3  1  0
  5  6  1  0
  5  4  1  0
  7  6  1  0
  8  9  2  0
  8  2  1  0
 10 11  1  0
 12 11  1  0
 12 14  1  0
 12 13  1  6
 14 15  1  1
 15  8  1  0
 16 17  2  0
 16 14  1  0
 18 16  1  0
 19 18  1  0
 19 20  1  1
 20 21  1  0
 21 22  2  0
 21 25  1  0
 23 19  1  0
 24 23  1  0
 26 23  2  0
M  END
$$$$
