QCY.pdb
     RDKit          3D

 28 28  0  0  1  0  0  0  0  0999 V2000
   12.2608  -16.9961   19.6425 N   0  0  0  0  0  0  0  0  0  0  0  0
   11.4602  -15.8291   19.5943 C   0  0  0  0  0  0  0  0  0  0  0  0
   11.8584  -14.6691   19.3560 O   0  0  0  0  0  0  0  0  0  0  0  0
    9.9795  -16.0702   19.8668 C   0  0  0  0  0  0  0  0  0  0  0  0
    9.7188  -17.5207   20.0599 C   0  0  0  0  0  0  0  0  0  0  0  0
    8.2910  -17.8959   20.2536 C   0  0  2  0  0  0  0  0  0  0  0  0
    7.4788  -17.2164   19.2323 N   0  0  0  0  0  0  0  0  0  0  0  0
    7.7798  -17.5790   21.5893 C   0  0  0  0  0  0  0  0  0  0  0  0
    7.1282  -16.5005   21.8185 O   0  0  0  0  0  0  0  0  0  0  0  0
    7.9511  -18.4202   22.7322 N   0  0  0  0  0  0  0  0  0  0  0  0
    7.3763  -18.0951   24.0149 C   0  0  1  0  0  0  0  0  0  0  0  0
    6.3632  -19.0198   24.5413 C   0  0  0  0  0  0  0  0  0  0  0  0
    6.5186  -19.5731   26.2345 S   0  0  0  0  0  0  0  0  0  0  0  0
    8.3725  -17.5790   24.9747 C   0  0  0  0  0  0  0  0  0  0  0  0
    9.5996  -17.9061   24.9304 O   0  0  0  0  0  0  0  0  0  0  0  0
    6.5353  -10.8546   24.6390 O   0  0  0  0  0  0  0  0  0  0  0  0
    7.0684  -11.9188   25.3525 C   0  0  0  0  0  0  0  0  0  0  0  0
    6.3122  -12.3600   26.4325 C   0  0  0  0  0  0  0  0  0  0  0  0
    6.7129  -13.4087   27.2341 C   0  0  0  0  0  0  0  0  0  0  0  0
    7.9023  -14.0344   26.9510 C   0  0  0  0  0  0  0  0  0  0  0  0
    8.3656  -15.1489   27.7729 C   0  0  0  0  0  0  0  0  0  0  0  0
    9.0883  -16.1625   26.9238 C   0  0  2  0  0  0  0  0  0  0  0  0
    8.0469  -16.6796   26.0178 N   0  0  0  0  0  0  0  0  0  0  0  0
    9.6436  -17.2178   27.7747 C   0  0  0  0  0  0  0  0  0  0  0  0
   10.7740  -17.1246   28.5383 O   0  0  0  0  0  0  0  0  0  0  0  0
    8.6438  -13.5940   25.8851 C   0  0  0  0  0  0  0  0  0  0  0  0
    8.2492  -12.5389   25.0722 C   0  0  0  0  0  0  0  0  0  0  0  0
    9.0110  -18.3252   27.8000 O   0  0  0  0  0  0  0  0  0  0  0  0
  2  1  1  0
  3  2  2  0
  4  2  1  0
  5  6  1  0
  5  4  1  0
  6  7  1  6
  8  6  1  0
  9  8  2  0
 10  8  1  0
 11 14  1  0
 11 10  1  0
 11 12  1  1
 13 12  1  0
 14 23  1  0
 15 14  2  0
 16 17  1  0
 17 18  2  0
 17 27  1  0
 18 19  1  0
 19 20  2  0
 20 21  1  0
 22 21  1  1
 22 24  1  0
 23 22  1  0
 24 28  2  0
 24 25  1  0
 26 20  1  0
 27 26  2  0
M  END
$$$$
