QCY.pdb
     RDKit          3D

 28 28  0  0  1  0  0  0  0  0999 V2000
    8.7621  -12.2252   20.0139 N   0  0  0  0  0  0  0  0  0  0  0  0
    8.3287  -12.8516   18.8201 C   0  0  0  0  0  0  0  0  0  0  0  0
    8.7922  -12.6613   17.6755 O   0  0  0  0  0  0  0  0  0  0  0  0
    7.1855  -13.8426   19.0086 C   0  0  0  0  0  0  0  0  0  0  0  0
    7.2525  -14.4583   20.3597 C   0  0  0  0  0  0  0  0  0  0  0  0
    8.1355  -15.6512   20.4783 C   0  0  2  0  0  0  0  0  0  0  0  0
    7.7914  -16.6045   19.4118 N   0  0  0  0  0  0  0  0  0  0  0  0
    8.0530  -16.3117   21.7833 C   0  0  0  0  0  0  0  0  0  0  0  0
    7.2300  -17.2690   21.9985 O   0  0  0  0  0  0  0  0  0  0  0  0
    8.8623  -15.9636   22.9089 N   0  0  0  0  0  0  0  0  0  0  0  0
    9.1609  -16.9079   23.9580 C   0  0  1  0  0  0  0  0  0  0  0  0
    9.5965  -18.2475   23.5406 C   0  0  0  0  0  0  0  0  0  0  0  0
    9.7326  -19.5217   24.7875 S   0  0  0  0  0  0  0  0  0  0  0  0
    9.8803  -16.2950   25.0925 C   0  0  0  0  0  0  0  0  0  0  0  0
   11.0013  -15.7120   24.9579 O   0  0  0  0  0  0  0  0  0  0  0  0
    6.2850  -11.1680   25.0381 O   0  0  0  0  0  0  0  0  0  0  0  0
    6.8652  -12.1525   25.8254 C   0  0  0  0  0  0  0  0  0  0  0  0
    8.1390  -11.8688   26.3047 C   0  0  0  0  0  0  0  0  0  0  0  0
    8.8411  -12.7503   27.1002 C   0  0  0  0  0  0  0  0  0  0  0  0
    8.2563  -13.9495   27.4261 C   0  0  0  0  0  0  0  0  0  0  0  0
    8.9628  -14.9129   28.2656 C   0  0  0  0  0  0  0  0  0  0  0  0
   10.0769  -15.5673   27.4903 C   0  0  2  0  0  0  0  0  0  0  0  0
    9.3836  -16.3032   26.4177 N   0  0  0  0  0  0  0  0  0  0  0  0
   10.8318  -16.4654   28.3676 C   0  0  0  0  0  0  0  0  0  0  0  0
   11.7015  -16.0858   29.3520 O   0  0  0  0  0  0  0  0  0  0  0  0
    7.0002  -14.2238   26.9495 C   0  0  0  0  0  0  0  0  0  0  0  0
    6.2852  -13.3430   26.1478 C   0  0  0  0  0  0  0  0  0  0  0  0
   10.6596  -17.7169   28.1908 O   0  0  0  0  0  0  0  0  0  0  0  0
  2  1  1  0
  3  2  2  0
  4  2  1  0
  5  6  1  0
  5  4  1  0
  6  7  1  6
  8  6  1  0
  9  8  2  0
 10  8  1  0
 11 14  1  0
 11 10  1  0
 11 12  1  6
 13 12  1  0
 14 23  1  0
 15 14  2  0
 16 17  1  0
 17 18  2  0
 17 27  1  0
 18 19  1  0
 19 20  2  0
 20 21  1  0
 22 21  1  1
 22 24  1  0
 23 22  1  0
 24 28  2  0
 24 25  1  0
 26 20  1  0
 27 26  2  0
M  END
$$$$
