QCY.pdb
     RDKit          3D

 28 28  0  0  1  0  0  0  0  0999 V2000
    9.2864  -16.3445   15.0193 N   0  0  0  0  0  0  0  0  0  0  0  0
    8.5417  -17.1636   15.9023 C   0  0  0  0  0  0  0  0  0  0  0  0
    7.3812  -17.5874   15.7155 O   0  0  0  0  0  0  0  0  0  0  0  0
    9.2748  -17.5327   17.1873 C   0  0  0  0  0  0  0  0  0  0  0  0
    9.2590  -16.3902   18.1379 C   0  0  0  0  0  0  0  0  0  0  0  0
    9.9102  -16.6408   19.4531 C   0  0  2  0  0  0  0  0  0  0  0  0
   10.7094  -17.8724   19.3603 N   0  0  0  0  0  0  0  0  0  0  0  0
    8.9613  -16.7446   20.5644 C   0  0  0  0  0  0  0  0  0  0  0  0
    7.7058  -16.8944   20.3612 O   0  0  0  0  0  0  0  0  0  0  0  0
    9.3349  -16.6935   21.9431 N   0  0  0  0  0  0  0  0  0  0  0  0
    8.4513  -17.1400   22.9926 C   0  0  1  0  0  0  0  0  0  0  0  0
    7.7166  -18.3898   22.7541 C   0  0  0  0  0  0  0  0  0  0  0  0
    6.5944  -18.9684   24.0202 S   0  0  0  0  0  0  0  0  0  0  0  0
    9.0203  -16.9468   24.3413 C   0  0  0  0  0  0  0  0  0  0  0  0
   10.2545  -17.1124   24.5940 O   0  0  0  0  0  0  0  0  0  0  0  0
    6.3298  -10.7712   25.2091 O   0  0  0  0  0  0  0  0  0  0  0  0
    6.7847  -11.9388   25.8054 C   0  0  0  0  0  0  0  0  0  0  0  0
    5.8399  -12.9476   25.9546 C   0  0  0  0  0  0  0  0  0  0  0  0
    6.1444  -14.1644   26.5287 C   0  0  0  0  0  0  0  0  0  0  0  0
    7.4278  -14.3807   26.9673 C   0  0  0  0  0  0  0  0  0  0  0  0
    7.7950  -15.6537   27.5812 C   0  0  0  0  0  0  0  0  0  0  0  0
    8.8701  -16.3348   26.7745 C   0  0  2  0  0  0  0  0  0  0  0  0
    8.2436  -16.5607   25.4596 N   0  0  0  0  0  0  0  0  0  0  0  0
    9.2529  -17.5932   27.4194 C   0  0  0  0  0  0  0  0  0  0  0  0
    8.9317  -18.8498   26.9866 O   0  0  0  0  0  0  0  0  0  0  0  0
    8.3548  -13.3815   26.8181 C   0  0  0  0  0  0  0  0  0  0  0  0
    8.0580  -12.1529   26.2417 C   0  0  0  0  0  0  0  0  0  0  0  0
    9.9488  -17.5023   28.4847 O   0  0  0  0  0  0  0  0  0  0  0  0
  2  1  1  0
  3  2  2  0
  4  2  1  0
  5  6  1  0
  5  4  1  0
  6  7  1  6
  8  6  1  0
  9  8  2  0
 10  8  1  0
 11 14  1  0
 11 10  1  0
 11 12  1  6
 13 12  1  0
 14 23  1  0
 15 14  2  0
 16 17  1  0
 17 18  2  0
 17 27  1  0
 18 19  1  0
 19 20  2  0
 20 21  1  0
 22 21  1  1
 22 24  1  0
 23 22  1  0
 24 28  2  0
 24 25  1  0
 26 20  1  0
 27 26  2  0
M  END
$$$$
