QCY.pdb
     RDKit          3D

 28 28  0  0  1  0  0  0  0  0999 V2000
   12.8157  -21.0648   21.4404 N   0  0  0  0  0  0  0  0  0  0  0  0
   12.4638  -21.3035   20.0897 C   0  0  0  0  0  0  0  0  0  0  0  0
   12.9724  -22.1584   19.3336 O   0  0  0  0  0  0  0  0  0  0  0  0
   11.3534  -20.4028   19.5601 C   0  0  0  0  0  0  0  0  0  0  0  0
   10.8422  -19.5215   20.6423 C   0  0  0  0  0  0  0  0  0  0  0  0
    9.4776  -18.9664   20.4270 C   0  0  2  0  0  0  0  0  0  0  0  0
    9.1082  -19.1489   19.0147 N   0  0  0  0  0  0  0  0  0  0  0  0
    9.3569  -17.5536   20.7954 C   0  0  0  0  0  0  0  0  0  0  0  0
   10.1161  -16.6600   20.2805 O   0  0  0  0  0  0  0  0  0  0  0  0
    8.4053  -17.0503   21.7357 N   0  0  0  0  0  0  0  0  0  0  0  0
    8.2733  -15.6402   22.0108 C   0  0  1  0  0  0  0  0  0  0  0  0
    6.9290  -15.0620   21.8806 C   0  0  0  0  0  0  0  0  0  0  0  0
    6.6505  -13.4129   22.5129 S   0  0  0  0  0  0  0  0  0  0  0  0
    9.0781  -15.2050   23.1697 C   0  0  0  0  0  0  0  0  0  0  0  0
    9.1975  -13.9840   23.5007 O   0  0  0  0  0  0  0  0  0  0  0  0
    6.4235  -10.7605   26.7477 O   0  0  0  0  0  0  0  0  0  0  0  0
    6.9340  -12.0305   26.5186 C   0  0  0  0  0  0  0  0  0  0  0  0
    6.0458  -12.9473   25.9679 C   0  0  0  0  0  0  0  0  0  0  0  0
    6.4094  -14.2472   25.6836 C   0  0  0  0  0  0  0  0  0  0  0  0
    7.6953  -14.6443   25.9576 C   0  0  0  0  0  0  0  0  0  0  0  0
    8.1239  -16.0109   25.6730 C   0  0  0  0  0  0  0  0  0  0  0  0
    9.6162  -16.0617   25.4707 C   0  0  2  0  0  0  0  0  0  0  0  0
    9.7786  -16.1063   24.0063 N   0  0  0  0  0  0  0  0  0  0  0  0
   10.1646  -17.2567   26.1165 C   0  0  0  0  0  0  0  0  0  0  0  0
   10.5731  -17.3527   27.4178 O   0  0  0  0  0  0  0  0  0  0  0  0
    8.5662  -13.7356   26.5015 C   0  0  0  0  0  0  0  0  0  0  0  0
    8.2097  -12.4247   26.7915 C   0  0  0  0  0  0  0  0  0  0  0  0
   10.2708  -18.3014   25.3922 O   0  0  0  0  0  0  0  0  0  0  0  0
  2  1  1  0
  3  2  2  0
  4  2  1  0
  5  6  1  0
  5  4  1  0
  6  7  1  6
  8  6  1  0
  9  8  2  0
 10  8  1  0
 11 14  1  0
 11 10  1  0
 11 12  1  1
 13 12  1  0
 14 23  1  0
 15 14  2  0
 16 17  1  0
 17 18  2  0
 17 27  1  0
 18 19  1  0
 19 20  2  0
 20 21  1  0
 22 21  1  6
 22 24  1  0
 23 22  1  0
 24 28  2  0
 24 25  1  0
 26 20  1  0
 27 26  2  0
M  END
$$$$
