QCY.pdb
     RDKit          3D

 28 28  0  0  1  0  0  0  0  0999 V2000
    8.1365  -12.6229   16.9935 N   0  0  0  0  0  0  0  0  0  0  0  0
    7.7171  -13.8691   16.4679 C   0  0  0  0  0  0  0  0  0  0  0  0
    6.5980  -14.1239   15.9742 O   0  0  0  0  0  0  0  0  0  0  0  0
    8.7717  -14.9681   16.5370 C   0  0  0  0  0  0  0  0  0  0  0  0
   10.0311  -14.4401   17.1236 C   0  0  0  0  0  0  0  0  0  0  0  0
   10.4855  -15.1072   18.3746 C   0  0  2  0  0  0  0  0  0  0  0  0
   10.5233  -16.5608   18.1508 N   0  0  0  0  0  0  0  0  0  0  0  0
    9.6467  -14.8032   19.5365 C   0  0  0  0  0  0  0  0  0  0  0  0
    9.4647  -13.5997   19.9346 O   0  0  0  0  0  0  0  0  0  0  0  0
    8.9674  -15.7919   20.3138 N   0  0  0  0  0  0  0  0  0  0  0  0
    8.0897  -15.4390   21.4031 C   0  0  1  0  0  0  0  0  0  0  0  0
    6.6457  -15.5337   21.1488 C   0  0  0  0  0  0  0  0  0  0  0  0
    5.5393  -15.5857   22.5524 S   0  0  0  0  0  0  0  0  0  0  0  0
    8.5714  -15.9310   22.7092 C   0  0  0  0  0  0  0  0  0  0  0  0
    8.9242  -17.1369   22.8990 O   0  0  0  0  0  0  0  0  0  0  0  0
   10.7517  -16.2316   31.1907 O   0  0  0  0  0  0  0  0  0  0  0  0
   10.3804  -15.7242   29.9535 C   0  0  0  0  0  0  0  0  0  0  0  0
   10.7030  -16.5143   28.8561 C   0  0  0  0  0  0  0  0  0  0  0  0
   10.3970  -16.1419   27.5636 C   0  0  0  0  0  0  0  0  0  0  0  0
    9.7517  -14.9467   27.3600 C   0  0  0  0  0  0  0  0  0  0  0  0
    9.4082  -14.5125   26.0088 C   0  0  0  0  0  0  0  0  0  0  0  0
    8.9451  -15.6845   25.1826 C   0  0  2  0  0  0  0  0  0  0  0  0
    8.6825  -15.1049   23.8530 N   0  0  0  0  0  0  0  0  0  0  0  0
    7.7357  -16.2622   25.7739 C   0  0  0  0  0  0  0  0  0  0  0  0
    7.6787  -17.3794   26.5600 O   0  0  0  0  0  0  0  0  0  0  0  0
    9.4371  -14.1716   28.4463 C   0  0  0  0  0  0  0  0  0  0  0  0
    9.7411  -14.5376   29.7515 C   0  0  0  0  0  0  0  0  0  0  0  0
    6.6361  -15.6645   25.5274 O   0  0  0  0  0  0  0  0  0  0  0  0
  2  1  1  0
  3  2  2  0
  4  2  1  0
  5  6  1  0
  5  4  1  0
  6  7  1  6
  8  6  1  0
  9  8  2  0
 10  8  1  0
 11 14  1  0
 11 10  1  0
 11 12  1  6
 13 12  1  0
 14 23  1  0
 15 14  2  0
 16 17  1  0
 17 18  2  0
 17 27  1  0
 18 19  1  0
 19 20  2  0
 20 21  1  0
 22 21  1  1
 22 24  1  0
 23 22  1  0
 24 28  2  0
 24 25  1  0
 26 20  1  0
 27 26  2  0
M  END
$$$$
