QCY.pdb
     RDKit          3D

 28 28  0  0  1  0  0  0  0  0999 V2000
    6.7051  -14.8170   14.0053 N   0  0  0  0  0  0  0  0  0  0  0  0
    7.2776  -13.8714   14.8903 C   0  0  0  0  0  0  0  0  0  0  0  0
    6.9082  -12.6881   15.0472 O   0  0  0  0  0  0  0  0  0  0  0  0
    8.4529  -14.4020   15.7038 C   0  0  0  0  0  0  0  0  0  0  0  0
    8.2402  -14.1397   17.1512 C   0  0  0  0  0  0  0  0  0  0  0  0
    9.3236  -14.6144   18.0554 C   0  0  2  0  0  0  0  0  0  0  0  0
   10.1108  -15.6411   17.3550 N   0  0  0  0  0  0  0  0  0  0  0  0
    8.8309  -15.1460   19.3285 C   0  0  0  0  0  0  0  0  0  0  0  0
    8.1300  -14.4307   20.1266 O   0  0  0  0  0  0  0  0  0  0  0  0
    9.0754  -16.4773   19.7880 N   0  0  0  0  0  0  0  0  0  0  0  0
    8.5466  -16.9644   21.0389 C   0  0  1  0  0  0  0  0  0  0  0  0
    8.0133  -18.3333   21.0454 C   0  0  0  0  0  0  0  0  0  0  0  0
    7.9115  -19.1961   22.6081 S   0  0  0  0  0  0  0  0  0  0  0  0
    9.3617  -16.5597   22.2016 C   0  0  0  0  0  0  0  0  0  0  0  0
   10.6313  -16.6129   22.1997 O   0  0  0  0  0  0  0  0  0  0  0  0
   11.2689  -14.4705   30.5287 O   0  0  0  0  0  0  0  0  0  0  0  0
   10.6259  -14.7412   29.3292 C   0  0  0  0  0  0  0  0  0  0  0  0
   10.4447  -13.6531   28.4829 C   0  0  0  0  0  0  0  0  0  0  0  0
    9.8230  -13.7678   27.2569 C   0  0  0  0  0  0  0  0  0  0  0  0
    9.3681  -15.0028   26.8642 C   0  0  0  0  0  0  0  0  0  0  0  0
    8.7041  -15.1706   25.5746 C   0  0  0  0  0  0  0  0  0  0  0  0
    9.6555  -15.7629   24.5674 C   0  0  2  0  0  0  0  0  0  0  0  0
    8.8008  -16.0790   23.4088 N   0  0  0  0  0  0  0  0  0  0  0  0
   10.2846  -16.9631   25.1241 C   0  0  0  0  0  0  0  0  0  0  0  0
    9.6763  -18.1708   25.3260 O   0  0  0  0  0  0  0  0  0  0  0  0
    9.5491  -16.0717   27.7036 C   0  0  0  0  0  0  0  0  0  0  0  0
   10.1736  -15.9665   28.9401 C   0  0  0  0  0  0  0  0  0  0  0  0
   11.5137  -16.8659   25.4514 O   0  0  0  0  0  0  0  0  0  0  0  0
  2  1  1  0
  3  2  2  0
  4  2  1  0
  5  6  1  0
  5  4  1  0
  6  7  1  6
  8  6  1  0
  9  8  2  0
 10  8  1  0
 11 14  1  0
 11 10  1  0
 11 12  1  6
 13 12  1  0
 14 23  1  0
 15 14  2  0
 16 17  1  0
 17 18  2  0
 17 27  1  0
 18 19  1  0
 19 20  2  0
 20 21  1  0
 22 21  1  1
 22 24  1  0
 23 22  1  0
 24 28  2  0
 24 25  1  0
 26 20  1  0
 27 26  2  0
M  END
$$$$
