QCY.pdb
     RDKit          3D

 28 28  0  0  1  0  0  0  0  0999 V2000
    9.7291  -19.1238   13.3133 N   0  0  0  0  0  0  0  0  0  0  0  0
    8.5864  -18.3316   13.5815 C   0  0  0  0  0  0  0  0  0  0  0  0
    7.6982  -18.0144   12.7621 O   0  0  0  0  0  0  0  0  0  0  0  0
    8.4812  -17.8468   15.0233 C   0  0  0  0  0  0  0  0  0  0  0  0
    9.6185  -18.3655   15.8275 C   0  0  0  0  0  0  0  0  0  0  0  0
    9.5474  -18.0933   17.2896 C   0  0  2  0  0  0  0  0  0  0  0  0
    8.4359  -17.1643   17.5461 N   0  0  0  0  0  0  0  0  0  0  0  0
   10.7898  -17.5496   17.8435 C   0  0  0  0  0  0  0  0  0  0  0  0
   11.9138  -18.1393   17.6728 O   0  0  0  0  0  0  0  0  0  0  0  0
   10.8657  -16.3414   18.6036 N   0  0  0  0  0  0  0  0  0  0  0  0
   12.0727  -15.9401   19.2845 C   0  0  1  0  0  0  0  0  0  0  0  0
   12.8218  -14.8188   18.7012 C   0  0  0  0  0  0  0  0  0  0  0  0
   13.8886  -13.8636   19.7720 S   0  0  0  0  0  0  0  0  0  0  0  0
   11.9341  -15.9579   20.7544 C   0  0  0  0  0  0  0  0  0  0  0  0
   11.3571  -15.0274   21.3991 O   0  0  0  0  0  0  0  0  0  0  0  0
    9.3301  -18.6951   28.4198 O   0  0  0  0  0  0  0  0  0  0  0  0
    9.6651  -18.3396   27.1209 C   0  0  0  0  0  0  0  0  0  0  0  0
   10.0204  -19.3889   26.2809 C   0  0  0  0  0  0  0  0  0  0  0  0
   10.3769  -19.1906   24.9632 C   0  0  0  0  0  0  0  0  0  0  0  0
   10.3801  -17.9090   24.4695 C   0  0  0  0  0  0  0  0  0  0  0  0
   10.7507  -17.6523   23.0806 C   0  0  0  0  0  0  0  0  0  0  0  0
   12.1317  -17.0540   23.0077 C   0  0  2  0  0  0  0  0  0  0  0  0
   12.4274  -17.0084   21.5644 N   0  0  0  0  0  0  0  0  0  0  0  0
   13.0802  -17.9037   23.7319 C   0  0  0  0  0  0  0  0  0  0  0  0
   13.5518  -17.6870   24.9968 O   0  0  0  0  0  0  0  0  0  0  0  0
   10.0296  -16.8784   25.3032 C   0  0  0  0  0  0  0  0  0  0  0  0
    9.6693  -17.0677   26.6314 C   0  0  0  0  0  0  0  0  0  0  0  0
   13.5038  -18.9397   23.1198 O   0  0  0  0  0  0  0  0  0  0  0  0
  2  1  1  0
  3  2  2  0
  4  2  1  0
  5  6  1  0
  5  4  1  0
  6  7  1  6
  8  6  1  0
  9  8  2  0
 10  8  1  0
 11 14  1  0
 11 10  1  0
 11 12  1  6
 13 12  1  0
 14 23  1  0
 15 14  2  0
 16 17  1  0
 17 18  2  0
 17 27  1  0
 18 19  1  0
 19 20  2  0
 20 21  1  0
 22 21  1  6
 22 24  1  0
 23 22  1  0
 24 28  2  0
 24 25  1  0
 26 20  1  0
 27 26  2  0
M  END
$$$$
