QCY.pdb
     RDKit          3D

 28 28  0  0  1  0  0  0  0  0999 V2000
    8.8233  -12.9409   15.6228 N   0  0  0  0  0  0  0  0  0  0  0  0
    8.1745  -14.1574   15.2998 C   0  0  0  0  0  0  0  0  0  0  0  0
    7.6471  -14.4454   14.2043 O   0  0  0  0  0  0  0  0  0  0  0  0
    8.1464  -15.1760   16.4340 C   0  0  0  0  0  0  0  0  0  0  0  0
    8.7376  -14.5934   17.6669 C   0  0  0  0  0  0  0  0  0  0  0  0
    9.1812  -15.5772   18.6927 C   0  0  2  0  0  0  0  0  0  0  0  0
    8.3998  -16.8136   18.5340 N   0  0  0  0  0  0  0  0  0  0  0  0
    9.0599  -15.0834   20.0666 C   0  0  0  0  0  0  0  0  0  0  0  0
    9.6046  -13.9841   20.4337 O   0  0  0  0  0  0  0  0  0  0  0  0
    8.3398  -15.7601   21.0994 N   0  0  0  0  0  0  0  0  0  0  0  0
    8.3631  -15.3097   22.4698 C   0  0  1  0  0  0  0  0  0  0  0  0
    7.0706  -15.2305   23.1640 C   0  0  0  0  0  0  0  0  0  0  0  0
    7.0719  -15.1291   24.9492 S   0  0  0  0  0  0  0  0  0  0  0  0
    9.4993  -15.8610   23.2348 C   0  0  0  0  0  0  0  0  0  0  0  0
    9.7449  -17.1063   23.2943 O   0  0  0  0  0  0  0  0  0  0  0  0
   10.4405  -15.5770   31.6557 O   0  0  0  0  0  0  0  0  0  0  0  0
   10.2089  -15.5306   30.2882 C   0  0  0  0  0  0  0  0  0  0  0  0
   10.1792  -14.2602   29.7243 C   0  0  0  0  0  0  0  0  0  0  0  0
    9.9605  -14.0559   28.3777 C   0  0  0  0  0  0  0  0  0  0  0  0
    9.7646  -15.1500   27.5709 C   0  0  0  0  0  0  0  0  0  0  0  0
    9.5296  -14.9809   26.1396 C   0  0  0  0  0  0  0  0  0  0  0  0
   10.7557  -15.3726   25.3563 C   0  0  2  0  0  0  0  0  0  0  0  0
   10.4071  -15.0531   23.9602 N   0  0  0  0  0  0  0  0  0  0  0  0
   11.0255  -16.8011   25.5375 C   0  0  0  0  0  0  0  0  0  0  0  0
   10.1819  -17.8270   25.2132 O   0  0  0  0  0  0  0  0  0  0  0  0
    9.7942  -16.4001   28.1333 C   0  0  0  0  0  0  0  0  0  0  0  0
   10.0135  -16.6162   29.4879 C   0  0  0  0  0  0  0  0  0  0  0  0
   12.1529  -17.1107   26.0477 O   0  0  0  0  0  0  0  0  0  0  0  0
  2  1  1  0
  3  2  2  0
  4  2  1  0
  5  6  1  0
  5  4  1  0
  6  7  1  1
  8  6  1  0
  9  8  2  0
 10  8  1  0
 11 14  1  0
 11 10  1  0
 11 12  1  1
 13 12  1  0
 14 23  1  0
 15 14  2  0
 16 17  1  0
 17 18  2  0
 17 27  1  0
 18 19  1  0
 19 20  2  0
 20 21  1  0
 22 21  1  1
 22 24  1  0
 23 22  1  0
 24 28  2  0
 24 25  1  0
 26 20  1  0
 27 26  2  0
M  END
$$$$
