QCY.pdb
     RDKit          3D

 28 28  0  0  1  0  0  0  0  0999 V2000
    7.1590  -12.2254   20.0847 N   0  0  0  0  0  0  0  0  0  0  0  0
    8.2040  -13.0411   19.5867 C   0  0  0  0  0  0  0  0  0  0  0  0
    9.4047  -12.7153   19.4715 O   0  0  0  0  0  0  0  0  0  0  0  0
    7.7649  -14.4393   19.1660 C   0  0  0  0  0  0  0  0  0  0  0  0
    8.4630  -15.4676   19.9811 C   0  0  0  0  0  0  0  0  0  0  0  0
    7.6644  -16.6823   20.3028 C   0  0  2  0  0  0  0  0  0  0  0  0
    6.4360  -16.6711   19.4933 N   0  0  0  0  0  0  0  0  0  0  0  0
    7.3246  -16.7988   21.7231 C   0  0  0  0  0  0  0  0  0  0  0  0
    6.3031  -16.2057   22.2181 O   0  0  0  0  0  0  0  0  0  0  0  0
    8.0768  -17.5662   22.6656 N   0  0  0  0  0  0  0  0  0  0  0  0
    7.7108  -17.6388   24.0592 C   0  0  1  0  0  0  0  0  0  0  0  0
    7.0579  -18.8754   24.5099 C   0  0  0  0  0  0  0  0  0  0  0  0
    6.7669  -19.0909   26.2609 S   0  0  0  0  0  0  0  0  0  0  0  0
    8.7358  -17.0613   24.9514 C   0  0  0  0  0  0  0  0  0  0  0  0
    9.9813  -17.1726   24.7259 O   0  0  0  0  0  0  0  0  0  0  0  0
    6.2724  -10.8548   24.8491 O   0  0  0  0  0  0  0  0  0  0  0  0
    6.9777  -11.8169   25.5581 C   0  0  0  0  0  0  0  0  0  0  0  0
    6.2351  -12.5604   26.4684 C   0  0  0  0  0  0  0  0  0  0  0  0
    6.7982  -13.5523   27.2442 C   0  0  0  0  0  0  0  0  0  0  0  0
    8.1406  -13.8091   27.1089 C   0  0  0  0  0  0  0  0  0  0  0  0
    8.7788  -14.8501   27.9098 C   0  0  0  0  0  0  0  0  0  0  0  0
    9.4815  -15.8414   27.0187 C   0  0  2  0  0  0  0  0  0  0  0  0
    8.4189  -16.3372   26.1254 N   0  0  0  0  0  0  0  0  0  0  0  0
   10.0578  -16.9168   27.8295 C   0  0  0  0  0  0  0  0  0  0  0  0
   11.1270  -16.8035   28.6741 O   0  0  0  0  0  0  0  0  0  0  0  0
    8.8677  -13.0718   26.2102 C   0  0  0  0  0  0  0  0  0  0  0  0
    8.3100  -12.0710   25.4246 C   0  0  0  0  0  0  0  0  0  0  0  0
    9.5085  -18.0640   27.7329 O   0  0  0  0  0  0  0  0  0  0  0  0
  2  1  1  0
  3  2  2  0
  4  2  1  0
  5  6  1  0
  5  4  1  0
  6  7  1  6
  8  6  1  0
  9  8  2  0
 10  8  1  0
 11 14  1  0
 11 10  1  0
 11 12  1  1
 13 12  1  0
 14 23  1  0
 15 14  2  0
 16 17  1  0
 17 18  2  0
 17 27  1  0
 18 19  1  0
 19 20  2  0
 20 21  1  0
 22 21  1  1
 22 24  1  0
 23 22  1  0
 24 28  2  0
 24 25  1  0
 26 20  1  0
 27 26  2  0
M  END
$$$$
