QCY.pdb
     RDKit          3D

 28 28  0  0  1  0  0  0  0  0999 V2000
    1.4504  -18.3650   20.9864 N   0  0  0  0  0  0  0  0  0  0  0  0
    2.1244  -19.5044   21.4890 C   0  0  0  0  0  0  0  0  0  0  0  0
    1.5905  -20.5496   21.9176 O   0  0  0  0  0  0  0  0  0  0  0  0
    3.6448  -19.3896   21.4833 C   0  0  0  0  0  0  0  0  0  0  0  0
    4.0585  -18.0219   21.0740 C   0  0  0  0  0  0  0  0  0  0  0  0
    5.2822  -17.9474   20.2293 C   0  0  2  0  0  0  0  0  0  0  0  0
    5.7486  -19.3140   19.9477 N   0  0  0  0  0  0  0  0  0  0  0  0
    6.3635  -17.1664   20.8351 C   0  0  0  0  0  0  0  0  0  0  0  0
    7.3840  -17.7323   21.3628 O   0  0  0  0  0  0  0  0  0  0  0  0
    6.3847  -15.7383   20.8912 N   0  0  0  0  0  0  0  0  0  0  0  0
    7.5005  -15.0106   21.4452 C   0  0  1  0  0  0  0  0  0  0  0  0
    7.6407  -13.6044   21.0432 C   0  0  0  0  0  0  0  0  0  0  0  0
    7.4135  -13.1888   19.3190 S   0  0  0  0  0  0  0  0  0  0  0  0
    7.7403  -15.3256   22.8676 C   0  0  0  0  0  0  0  0  0  0  0  0
    6.7984  -15.4295   23.7142 O   0  0  0  0  0  0  0  0  0  0  0  0
    9.1236  -20.0801   29.6388 O   0  0  0  0  0  0  0  0  0  0  0  0
    8.8915  -19.3995   28.4518 C   0  0  0  0  0  0  0  0  0  0  0  0
    9.9307  -19.4254   27.5286 C   0  0  0  0  0  0  0  0  0  0  0  0
    9.8458  -18.7950   26.3046 C   0  0  0  0  0  0  0  0  0  0  0  0
    8.6918  -18.1186   25.9930 C   0  0  0  0  0  0  0  0  0  0  0  0
    8.5581  -17.4368   24.7087 C   0  0  0  0  0  0  0  0  0  0  0  0
    9.2064  -16.0778   24.7657 C   0  0  2  0  0  0  0  0  0  0  0  0
    9.0322  -15.5396   23.4046 N   0  0  0  0  0  0  0  0  0  0  0  0
   10.6211  -16.2168   25.1200 C   0  0  0  0  0  0  0  0  0  0  0  0
   11.1468  -16.1389   26.3797 O   0  0  0  0  0  0  0  0  0  0  0  0
    7.6710  -18.0961   26.9081 C   0  0  0  0  0  0  0  0  0  0  0  0
    7.7468  -18.7275   28.1431 C   0  0  0  0  0  0  0  0  0  0  0  0
   11.4338  -16.4276   24.1596 O   0  0  0  0  0  0  0  0  0  0  0  0
  2  1  1  0
  3  2  2  0
  4  2  1  0
  5  6  1  0
  5  4  1  0
  6  7  1  1
  8  6  1  0
  9  8  2  0
 10  8  1  0
 11 14  1  0
 11 10  1  0
 11 12  1  1
 13 12  1  0
 14 23  1  0
 15 14  2  0
 16 17  1  0
 17 18  2  0
 17 27  1  0
 18 19  1  0
 19 20  2  0
 20 21  1  0
 22 21  1  6
 22 24  1  0
 23 22  1  0
 24 28  2  0
 24 25  1  0
 26 20  1  0
 27 26  2  0
M  END
$$$$
