QCY.pdb
     RDKit          3D

 28 28  0  0  1  0  0  0  0  0999 V2000
   18.7028  -13.6636   25.4293 N   0  0  0  0  0  0  0  0  0  0  0  0
   18.5017  -14.3387   26.6577 C   0  0  0  0  0  0  0  0  0  0  0  0
   17.4522  -14.9090   27.0244 O   0  0  0  0  0  0  0  0  0  0  0  0
   19.7145  -14.3381   27.5819 C   0  0  0  0  0  0  0  0  0  0  0  0
   20.8354  -13.5830   26.9635 C   0  0  0  0  0  0  0  0  0  0  0  0
   22.0833  -13.5100   27.7723 C   0  0  2  0  0  0  0  0  0  0  0  0
   21.9912  -14.4786   28.8758 N   0  0  0  0  0  0  0  0  0  0  0  0
   22.3573  -12.1727   28.3041 C   0  0  0  0  0  0  0  0  0  0  0  0
   22.0916  -11.8679   29.5192 O   0  0  0  0  0  0  0  0  0  0  0  0
   22.9340  -11.1107   27.5408 N   0  0  0  0  0  0  0  0  0  0  0  0
   23.2335   -9.8250   28.1228 C   0  0  1  0  0  0  0  0  0  0  0  0
   24.2515   -9.0109   27.4450 C   0  0  0  0  0  0  0  0  0  0  0  0
   25.7750   -9.8023   26.9451 S   0  0  0  0  0  0  0  0  0  0  0  0
   22.0293   -9.1210   28.6071 C   0  0  0  0  0  0  0  0  0  0  0  0
   20.8820   -9.2897   28.0875 O   0  0  0  0  0  0  0  0  0  0  0  0
   18.7793  -12.8214   32.7007 O   0  0  0  0  0  0  0  0  0  0  0  0
   19.1736  -11.5312   32.3755 C   0  0  0  0  0  0  0  0  0  0  0  0
   20.4564  -11.1738   32.7749 C   0  0  0  0  0  0  0  0  0  0  0  0
   20.9870   -9.9260   32.5215 C   0  0  0  0  0  0  0  0  0  0  0  0
   20.2157   -9.0082   31.8515 C   0  0  0  0  0  0  0  0  0  0  0  0
   20.7368   -7.6752   31.5617 C   0  0  0  0  0  0  0  0  0  0  0  0
   20.8378   -7.4632   30.0733 C   0  0  2  0  0  0  0  0  0  0  0  0
   22.0509   -8.2058   29.6864 N   0  0  0  0  0  0  0  0  0  0  0  0
   20.9586   -6.0325   29.7824 C   0  0  0  0  0  0  0  0  0  0  0  0
   19.9526   -5.1092   29.8519 O   0  0  0  0  0  0  0  0  0  0  0  0
   18.9512   -9.3665   31.4610 C   0  0  0  0  0  0  0  0  0  0  0  0
   18.4078  -10.6202   31.7115 C   0  0  0  0  0  0  0  0  0  0  0  0
   22.1113   -5.6152   29.4297 O   0  0  0  0  0  0  0  0  0  0  0  0
  2  1  1  0
  3  2  2  0
  4  2  1  0
  5  6  1  0
  5  4  1  0
  6  7  1  1
  8  6  1  0
  9  8  2  0
 10  8  1  0
 11 14  1  0
 11 10  1  0
 11 12  1  6
 13 12  1  0
 14 23  1  0
 15 14  2  0
 16 17  1  0
 17 18  2  0
 17 27  1  0
 18 19  1  0
 19 20  2  0
 20 21  1  0
 22 21  1  1
 22 24  1  0
 23 22  1  0
 24 28  2  0
 24 25  1  0
 26 20  1  0
 27 26  2  0
M  END
$$$$
