QCY.pdb
     RDKit          3D

 28 28  0  0  1  0  0  0  0  0999 V2000
    4.8013  -19.5423   22.4107 N   0  0  0  0  0  0  0  0  0  0  0  0
    6.1534  -19.7234   22.7906 C   0  0  0  0  0  0  0  0  0  0  0  0
    6.6290  -20.7180   23.3785 O   0  0  0  0  0  0  0  0  0  0  0  0
    7.0713  -18.5630   22.4221 C   0  0  0  0  0  0  0  0  0  0  0  0
    6.2923  -17.4702   21.7834 C   0  0  0  0  0  0  0  0  0  0  0  0
    7.0822  -16.2806   21.3619 C   0  0  2  0  0  0  0  0  0  0  0  0
    8.2342  -16.7332   20.5667 N   0  0  0  0  0  0  0  0  0  0  0  0
    7.5426  -15.4579   22.4832 C   0  0  0  0  0  0  0  0  0  0  0  0
    8.7434  -15.5348   22.9215 O   0  0  0  0  0  0  0  0  0  0  0  0
    6.7204  -14.5147   23.1742 N   0  0  0  0  0  0  0  0  0  0  0  0
    7.2082  -13.7535   24.2986 C   0  0  1  0  0  0  0  0  0  0  0  0
    6.4759  -12.5252   24.6358 C   0  0  0  0  0  0  0  0  0  0  0  0
    6.5050  -11.9593   26.3317 S   0  0  0  0  0  0  0  0  0  0  0  0
    7.6362  -14.6064   25.4253 C   0  0  0  0  0  0  0  0  0  0  0  0
    6.8504  -15.4183   26.0067 O   0  0  0  0  0  0  0  0  0  0  0  0
   12.0225  -19.3269   31.2119 O   0  0  0  0  0  0  0  0  0  0  0  0
   11.5329  -18.6349   30.1132 C   0  0  0  0  0  0  0  0  0  0  0  0
   12.2891  -17.5430   29.7021 C   0  0  0  0  0  0  0  0  0  0  0  0
   11.9290  -16.7600   28.6251 C   0  0  0  0  0  0  0  0  0  0  0  0
   10.7814  -17.0744   27.9391 C   0  0  0  0  0  0  0  0  0  0  0  0
   10.3620  -16.2731   26.7928 C   0  0  0  0  0  0  0  0  0  0  0  0
    9.2769  -15.3083   27.1955 C   0  0  2  0  0  0  0  0  0  0  0  0
    8.9513  -14.5933   25.9483 N   0  0  0  0  0  0  0  0  0  0  0  0
    9.7785  -14.3998   28.2295 C   0  0  0  0  0  0  0  0  0  0  0  0
    9.7257  -14.6094   29.5795 O   0  0  0  0  0  0  0  0  0  0  0  0
   10.0397  -18.1519   28.3500 C   0  0  0  0  0  0  0  0  0  0  0  0
   10.3936  -18.9463   29.4332 C   0  0  0  0  0  0  0  0  0  0  0  0
   10.3111  -13.3127   27.8272 O   0  0  0  0  0  0  0  0  0  0  0  0
  2  1  1  0
  3  2  2  0
  4  2  1  0
  5  6  1  0
  5  4  1  0
  6  7  1  1
  8  6  1  0
  9  8  2  0
 10  8  1  0
 11 14  1  0
 11 10  1  0
 11 12  1  1
 13 12  1  0
 14 23  1  0
 15 14  2  0
 16 17  1  0
 17 18  2  0
 17 27  1  0
 18 19  1  0
 19 20  2  0
 20 21  1  0
 22 21  1  6
 22 24  1  0
 23 22  1  0
 24 28  2  0
 24 25  1  0
 26 20  1  0
 27 26  2  0
M  END
$$$$
