QCY.pdb
     RDKit          3D

 28 28  0  0  1  0  0  0  0  0999 V2000
    8.1847  -13.2712   17.9313 N   0  0  0  0  0  0  0  0  0  0  0  0
    8.5631  -14.1749   16.9089 C   0  0  0  0  0  0  0  0  0  0  0  0
    9.0665  -13.8739   15.8057 O   0  0  0  0  0  0  0  0  0  0  0  0
    8.3096  -15.6415   17.2399 C   0  0  0  0  0  0  0  0  0  0  0  0
    7.7491  -15.7729   18.6101 C   0  0  0  0  0  0  0  0  0  0  0  0
    7.4686  -17.1648   19.0581 C   0  0  2  0  0  0  0  0  0  0  0  0
    6.5948  -17.8149   18.0690 N   0  0  0  0  0  0  0  0  0  0  0  0
    6.8583  -17.2388   20.3877 C   0  0  0  0  0  0  0  0  0  0  0  0
    5.7787  -16.6082   20.6651 O   0  0  0  0  0  0  0  0  0  0  0  0
    7.3917  -18.0027   21.4718 N   0  0  0  0  0  0  0  0  0  0  0  0
    7.1561  -17.6444   22.8493 C   0  0  1  0  0  0  0  0  0  0  0  0
    6.2772  -18.5308   23.6242 C   0  0  0  0  0  0  0  0  0  0  0  0
    6.2467  -18.3508   25.4029 S   0  0  0  0  0  0  0  0  0  0  0  0
    8.3700  -17.1481   23.5277 C   0  0  0  0  0  0  0  0  0  0  0  0
    9.5017  -17.7130   23.4065 O   0  0  0  0  0  0  0  0  0  0  0  0
    5.0784  -11.9328   27.5182 O   0  0  0  0  0  0  0  0  0  0  0  0
    6.2434  -12.4620   26.9811 C   0  0  0  0  0  0  0  0  0  0  0  0
    6.1927  -12.7835   25.6294 C   0  0  0  0  0  0  0  0  0  0  0  0
    7.2726  -13.3169   24.9571 C   0  0  0  0  0  0  0  0  0  0  0  0
    8.4360  -13.5368   25.6531 C   0  0  0  0  0  0  0  0  0  0  0  0
    9.6043  -14.0998   24.9818 C   0  0  0  0  0  0  0  0  0  0  0  0
    9.5959  -15.6030   25.0858 C   0  0  2  0  0  0  0  0  0  0  0  0
    8.3758  -16.0060   24.3636 N   0  0  0  0  0  0  0  0  0  0  0  0
    9.5528  -16.0032   26.4943 C   0  0  0  0  0  0  0  0  0  0  0  0
    8.4968  -16.5931   27.1316 O   0  0  0  0  0  0  0  0  0  0  0  0
    8.4794  -13.2185   26.9860 C   0  0  0  0  0  0  0  0  0  0  0  0
    7.3975  -12.6813   27.6720 C   0  0  0  0  0  0  0  0  0  0  0  0
   10.6000  -15.7758   27.1865 O   0  0  0  0  0  0  0  0  0  0  0  0
  2  1  1  0
  3  2  2  0
  4  2  1  0
  5  6  1  0
  5  4  1  0
  6  7  1  6
  8  6  1  0
  9  8  2  0
 10  8  1  0
 11 14  1  0
 11 10  1  0
 11 12  1  1
 13 12  1  0
 14 23  1  0
 15 14  2  0
 16 17  1  0
 17 18  2  0
 17 27  1  0
 18 19  1  0
 19 20  2  0
 20 21  1  0
 22 21  1  1
 22 24  1  0
 23 22  1  0
 24 28  2  0
 24 25  1  0
 26 20  1  0
 27 26  2  0
M  END
$$$$
