QCY.pdb
     RDKit          3D

 28 28  0  0  1  0  0  0  0  0999 V2000
    9.8307  -14.5785   15.5820 N   0  0  0  0  0  0  0  0  0  0  0  0
    8.4562  -14.2533   15.6838 C   0  0  0  0  0  0  0  0  0  0  0  0
    7.5860  -14.4391   14.8066 O   0  0  0  0  0  0  0  0  0  0  0  0
    8.0563  -13.6189   17.0113 C   0  0  0  0  0  0  0  0  0  0  0  0
    9.2405  -13.4895   17.9000 C   0  0  0  0  0  0  0  0  0  0  0  0
    9.5001  -14.6496   18.7964 C   0  0  2  0  0  0  0  0  0  0  0  0
    8.9116  -15.8560   18.1940 N   0  0  0  0  0  0  0  0  0  0  0  0
    8.9814  -14.4664   20.1541 C   0  0  0  0  0  0  0  0  0  0  0  0
    9.2721  -13.4299   20.8478 O   0  0  0  0  0  0  0  0  0  0  0  0
    8.1228  -15.3984   20.8153 N   0  0  0  0  0  0  0  0  0  0  0  0
    7.6463  -15.1797   22.1594 C   0  0  1  0  0  0  0  0  0  0  0  0
    6.2125  -15.3936   22.3979 C   0  0  0  0  0  0  0  0  0  0  0  0
    5.6527  -15.5832   24.0854 S   0  0  0  0  0  0  0  0  0  0  0  0
    8.5772  -15.6874   23.1869 C   0  0  0  0  0  0  0  0  0  0  0  0
    9.1120  -16.8380   23.1180 O   0  0  0  0  0  0  0  0  0  0  0  0
   11.7399  -16.4351   31.3499 O   0  0  0  0  0  0  0  0  0  0  0  0
   11.3508  -16.0061   30.0888 C   0  0  0  0  0  0  0  0  0  0  0  0
   10.3432  -15.0485   30.0618 C   0  0  0  0  0  0  0  0  0  0  0  0
    9.8533  -14.5265   28.8827 C   0  0  0  0  0  0  0  0  0  0  0  0
   10.3827  -14.9731   27.6967 C   0  0  0  0  0  0  0  0  0  0  0  0
    9.8945  -14.4482   26.4246 C   0  0  0  0  0  0  0  0  0  0  0  0
    9.6871  -15.5690   25.4391 C   0  0  2  0  0  0  0  0  0  0  0  0
    8.9522  -14.9384   24.3277 N   0  0  0  0  0  0  0  0  0  0  0  0
    8.9124  -16.6435   26.0646 C   0  0  0  0  0  0  0  0  0  0  0  0
    9.4151  -17.8133   26.5628 O   0  0  0  0  0  0  0  0  0  0  0  0
   11.3756  -15.9181   27.7301 C   0  0  0  0  0  0  0  0  0  0  0  0
   11.8755  -16.4501   28.9120 C   0  0  0  0  0  0  0  0  0  0  0  0
    7.6517  -16.4670   26.1476 O   0  0  0  0  0  0  0  0  0  0  0  0
  2  1  1  0
  3  2  2  0
  4  2  1  0
  5  6  1  0
  5  4  1  0
  6  7  1  6
  8  6  1  0
  9  8  2  0
 10  8  1  0
 11 14  1  0
 11 10  1  0
 11 12  1  6
 13 12  1  0
 14 23  1  0
 15 14  2  0
 16 17  1  0
 17 18  2  0
 17 27  1  0
 18 19  1  0
 19 20  2  0
 20 21  1  0
 22 21  1  1
 22 24  1  0
 23 22  1  0
 24 28  2  0
 24 25  1  0
 26 20  1  0
 27 26  2  0
M  END
$$$$
