QCY.pdb
     RDKit          3D

 28 28  0  0  1  0  0  0  0  0999 V2000
    9.2276  -13.6346   15.6142 N   0  0  0  0  0  0  0  0  0  0  0  0
    7.8774  -13.3634   15.9436 C   0  0  0  0  0  0  0  0  0  0  0  0
    6.9419  -13.1814   15.1356 O   0  0  0  0  0  0  0  0  0  0  0  0
    7.5957  -13.2986   17.4407 C   0  0  0  0  0  0  0  0  0  0  0  0
    8.8024  -13.6970   18.2116 C   0  0  0  0  0  0  0  0  0  0  0  0
    8.6414  -14.8937   19.0825 C   0  0  2  0  0  0  0  0  0  0  0  0
    7.3239  -15.4953   18.8239 N   0  0  0  0  0  0  0  0  0  0  0  0
    8.7839  -14.6003   20.5107 C   0  0  0  0  0  0  0  0  0  0  0  0
    9.8171  -13.9999   20.9712 O   0  0  0  0  0  0  0  0  0  0  0  0
    7.8099  -14.9430   21.4991 N   0  0  0  0  0  0  0  0  0  0  0  0
    8.0540  -14.7613   22.9094 C   0  0  1  0  0  0  0  0  0  0  0  0
    7.1572  -13.8436   23.6250 C   0  0  0  0  0  0  0  0  0  0  0  0
    6.9740  -14.0433   25.3923 S   0  0  0  0  0  0  0  0  0  0  0  0
    8.4085  -16.0195   23.5961 C   0  0  0  0  0  0  0  0  0  0  0  0
    7.5352  -16.8019   24.0859 O   0  0  0  0  0  0  0  0  0  0  0  0
   10.9308  -15.0824   31.2079 O   0  0  0  0  0  0  0  0  0  0  0  0
   10.6968  -14.9975   29.8427 C   0  0  0  0  0  0  0  0  0  0  0  0
   11.1469  -16.0732   29.0856 C   0  0  0  0  0  0  0  0  0  0  0  0
   10.9850  -16.1309   27.7170 C   0  0  0  0  0  0  0  0  0  0  0  0
   10.3572  -15.0854   27.0853 C   0  0  0  0  0  0  0  0  0  0  0  0
   10.1642  -15.1041   25.6380 C   0  0  0  0  0  0  0  0  0  0  0  0
   10.3655  -16.4970   25.0995 C   0  0  2  0  0  0  0  0  0  0  0  0
    9.7434  -16.4588   23.7638 N   0  0  0  0  0  0  0  0  0  0  0  0
    9.7103  -17.4688   25.9783 C   0  0  0  0  0  0  0  0  0  0  0  0
    8.4079  -17.4296   26.3926 O   0  0  0  0  0  0  0  0  0  0  0  0
    9.9164  -14.0271   27.8374 C   0  0  0  0  0  0  0  0  0  0  0  0
   10.0748  -13.9595   29.2159 C   0  0  0  0  0  0  0  0  0  0  0  0
   10.4269  -18.4386   26.3947 O   0  0  0  0  0  0  0  0  0  0  0  0
  2  1  1  0
  3  2  2  0
  4  2  1  0
  5  6  1  0
  5  4  1  0
  6  7  1  1
  8  6  1  0
  9  8  2  0
 10  8  1  0
 11 14  1  0
 11 10  1  0
 11 12  1  1
 13 12  1  0
 14 23  1  0
 15 14  2  0
 16 17  1  0
 17 18  2  0
 17 27  1  0
 18 19  1  0
 19 20  2  0
 20 21  1  0
 22 21  1  1
 22 24  1  0
 23 22  1  0
 24 28  2  0
 24 25  1  0
 26 20  1  0
 27 26  2  0
M  END
$$$$
