QCY.pdb
     RDKit          3D

 28 28  0  0  1  0  0  0  0  0999 V2000
    8.0975  -12.6455   17.3901 N   0  0  0  0  0  0  0  0  0  0  0  0
    8.0899  -13.7582   16.5142 C   0  0  0  0  0  0  0  0  0  0  0  0
    8.4074  -13.7495   15.3058 O   0  0  0  0  0  0  0  0  0  0  0  0
    7.6432  -15.0648   17.1607 C   0  0  0  0  0  0  0  0  0  0  0  0
    7.4110  -14.8690   18.6156 C   0  0  0  0  0  0  0  0  0  0  0  0
    8.3777  -15.5535   19.5176 C   0  0  2  0  0  0  0  0  0  0  0  0
    8.6263  -16.9101   19.0054 N   0  0  0  0  0  0  0  0  0  0  0  0
    7.9298  -15.6207   20.9108 C   0  0  0  0  0  0  0  0  0  0  0  0
    7.5294  -14.5776   21.5366 O   0  0  0  0  0  0  0  0  0  0  0  0
    7.8945  -16.8231   21.6828 N   0  0  0  0  0  0  0  0  0  0  0  0
    7.4457  -16.8394   23.0539 C   0  0  1  0  0  0  0  0  0  0  0  0
    6.3136  -17.7206   23.3708 C   0  0  0  0  0  0  0  0  0  0  0  0
    6.1258  -18.2867   25.0565 S   0  0  0  0  0  0  0  0  0  0  0  0
    8.5603  -16.8099   24.0218 C   0  0  0  0  0  0  0  0  0  0  0  0
    9.5459  -17.6094   23.9560 O   0  0  0  0  0  0  0  0  0  0  0  0
    4.9396  -12.0361   27.3365 O   0  0  0  0  0  0  0  0  0  0  0  0
    6.1506  -12.6411   27.0314 C   0  0  0  0  0  0  0  0  0  0  0  0
    6.9293  -13.0153   28.1207 C   0  0  0  0  0  0  0  0  0  0  0  0
    8.1567  -13.6276   27.9744 C   0  0  0  0  0  0  0  0  0  0  0  0
    8.6211  -13.8728   26.7053 C   0  0  0  0  0  0  0  0  0  0  0  0
    9.9150  -14.5188   26.5032 C   0  0  0  0  0  0  0  0  0  0  0  0
    9.7255  -15.9516   26.0770 C   0  0  2  0  0  0  0  0  0  0  0  0
    8.6258  -15.8922   25.0972 N   0  0  0  0  0  0  0  0  0  0  0  0
    9.3769  -16.7735   27.2384 C   0  0  0  0  0  0  0  0  0  0  0  0
   10.2106  -17.1028   28.2709 O   0  0  0  0  0  0  0  0  0  0  0  0
    7.8489  -13.5006   25.6353 C   0  0  0  0  0  0  0  0  0  0  0  0
    6.6119  -12.8834   25.7721 C   0  0  0  0  0  0  0  0  0  0  0  0
    8.1840  -17.2230   27.2845 O   0  0  0  0  0  0  0  0  0  0  0  0
  2  1  1  0
  3  2  2  0
  4  2  1  0
  5  6  1  0
  5  4  1  0
  6  7  1  6
  8  6  1  0
  9  8  2  0
 10  8  1  0
 11 14  1  0
 11 10  1  0
 11 12  1  6
 13 12  1  0
 14 23  1  0
 15 14  2  0
 16 17  1  0
 17 18  2  0
 17 27  1  0
 18 19  1  0
 19 20  2  0
 20 21  1  0
 22 21  1  1
 22 24  1  0
 23 22  1  0
 24 28  2  0
 24 25  1  0
 26 20  1  0
 27 26  2  0
M  END
$$$$
