HEQ.pdb
     RDKit          3D

 29 29  0  0  1  0  0  0  0  0999 V2000
   14.1616   -9.9224  -11.1418 N   0  0  0  0  0  0  0  0  0  0  0  0
   15.3766   -9.6278  -10.3689 C   0  0  1  0  0  0  0  0  0  0  0  0
   16.4838  -10.5626  -10.7974 C   0  0  0  0  0  0  0  0  0  0  0  0
   16.1810  -11.9693  -10.5614 C   0  0  0  0  0  0  0  0  0  0  0  0
   16.2056  -12.6000   -9.3379 C   0  0  0  0  0  0  0  0  0  0  0  0
   15.8735  -13.8775   -9.5219 N   0  0  0  0  0  0  0  0  0  0  0  0
   15.6360  -14.0910  -10.8202 C   0  0  0  0  0  0  0  0  0  0  0  0
   15.8309  -12.8979  -11.4519 N   0  0  0  0  0  0  0  0  0  0  0  0
   15.8090   -8.2504  -10.7486 C   0  0  0  0  0  0  0  0  0  0  0  0
   15.6874   -7.8318  -11.9361 O   0  0  0  0  0  0  0  0  0  0  0  0
   16.3761   -7.3350   -9.8159 N   0  0  0  0  0  0  0  0  0  0  0  0
   16.7253   -5.9997  -10.2121 C   0  0  1  0  0  0  0  0  0  0  0  0
   16.1446   -4.9680   -9.2569 C   0  0  0  0  0  0  0  0  0  0  0  0
   16.5362   -3.5872   -9.7370 C   0  0  0  0  0  0  0  0  0  0  0  0
   15.8932   -2.5468   -8.9010 C   0  0  0  0  0  0  0  0  0  0  0  0
   15.2791   -1.6205   -9.4479 O   0  0  0  0  0  0  0  0  0  0  0  0
   18.1922   -5.8167  -10.3606 C   0  0  0  0  0  0  0  0  0  0  0  0
   18.9490   -6.2681   -9.4628 O   0  0  0  0  0  0  0  0  0  0  0  0
   15.9947   -2.6361   -7.5330 O   0  0  0  0  0  0  0  0  0  0  0  0
   20.3464   -9.1933  -13.7380 N   0  0  0  0  0  0  0  0  0  0  0  0
   21.5773   -8.4538  -13.7017 C   0  0  0  0  0  0  0  0  0  0  0  0
   22.6179   -8.9295  -14.2525 O   0  0  0  0  0  0  0  0  0  0  0  0
   21.5716   -7.1494  -13.0197 C   0  0  0  0  0  0  0  0  0  0  0  0
   20.2541   -6.7943  -12.4333 C   0  0  0  0  0  0  0  0  0  0  0  0
   20.2060   -5.4308  -11.8393 C   0  0  2  0  0  0  0  0  0  0  0  0
   18.7834   -5.1598  -11.4612 N   0  0  0  0  0  0  0  0  0  0  0  0
   20.5873   -4.3125  -12.6780 C   0  0  0  0  0  0  0  0  0  0  0  0
   19.7303   -3.6653  -13.3249 O   0  0  0  0  0  0  0  0  0  0  0  0
   21.8977   -3.8922  -12.8042 O   0  0  0  0  0  0  0  0  0  0  0  0
  2  1  1  6
  3  4  1  0
  3  2  1  0
  4  8  1  0
  5  6  1  0
  5  4  2  0
  6  7  1  0
  7  8  2  0
  9  2  1  0
  9 11  1  0
 10  9  2  0
 11 12  1  0
 12 17  1  0
 13 14  1  0
 12 13  1  1
 15 16  2  0
 15 14  1  0
 17 18  2  0
 17 26  1  0
 19 15  1  0
 20 21  1  0
 21 23  1  0
 21 22  2  0
 23 24  1  0
 25 24  1  6
 25 27  1  0
 26 25  1  0
 27 28  2  0
 27 29  1  0
M  END
$$$$
