HEQ.pdb
     RDKit          3D

 29 29  0  0  1  0  0  0  0  0999 V2000
   28.7336  -22.4738  -15.8294 N   0  0  0  0  0  0  0  0  0  0  0  0
   27.5810  -22.3345  -16.7307 C   0  0  1  0  0  0  0  0  0  0  0  0
   26.7162  -23.5700  -16.6353 C   0  0  0  0  0  0  0  0  0  0  0  0
   27.4055  -24.7938  -17.0269 C   0  0  0  0  0  0  0  0  0  0  0  0
   27.7385  -25.1491  -18.3146 C   0  0  0  0  0  0  0  0  0  0  0  0
   28.3559  -26.3294  -18.2738 N   0  0  0  0  0  0  0  0  0  0  0  0
   28.4320  -26.7461  -17.0057 C   0  0  0  0  0  0  0  0  0  0  0  0
   27.8382  -25.7828  -16.2442 N   0  0  0  0  0  0  0  0  0  0  0  0
   26.7617  -21.1982  -16.2149 C   0  0  0  0  0  0  0  0  0  0  0  0
   26.5237  -21.0730  -14.9789 O   0  0  0  0  0  0  0  0  0  0  0  0
   26.2052  -20.1998  -17.0651 N   0  0  0  0  0  0  0  0  0  0  0  0
   25.4427  -19.1106  -16.5228 C   0  0  1  0  0  0  0  0  0  0  0  0
   25.5593  -17.8660  -17.3897 C   0  0  0  0  0  0  0  0  0  0  0  0
   26.9845  -17.3612  -17.3252 C   0  0  0  0  0  0  0  0  0  0  0  0
   27.1856  -16.2541  -18.2889 C   0  0  0  0  0  0  0  0  0  0  0  0
   28.0464  -16.3653  -19.1726 O   0  0  0  0  0  0  0  0  0  0  0  0
   24.0180  -19.4695  -16.3013 C   0  0  0  0  0  0  0  0  0  0  0  0
   23.4670  -20.2679  -17.1021 O   0  0  0  0  0  0  0  0  0  0  0  0
   26.4081  -15.1259  -18.1775 O   0  0  0  0  0  0  0  0  0  0  0  0
   21.4520  -20.5188  -10.9474 N   0  0  0  0  0  0  0  0  0  0  0  0
   20.2441  -20.5136  -11.7248 C   0  0  0  0  0  0  0  0  0  0  0  0
   19.1409  -20.8308  -11.1820 O   0  0  0  0  0  0  0  0  0  0  0  0
   20.3442  -20.1258  -13.1412 C   0  0  0  0  0  0  0  0  0  0  0  0
   21.7232  -19.7677  -13.5604 C   0  0  0  0  0  0  0  0  0  0  0  0
   21.8474  -19.4364  -15.0058 C   0  0  2  0  0  0  0  0  0  0  0  0
   23.2474  -18.9590  -15.2345 N   0  0  0  0  0  0  0  0  0  0  0  0
   21.0044  -18.3831  -15.5344 C   0  0  0  0  0  0  0  0  0  0  0  0
   21.4197  -17.2035  -15.6237 O   0  0  0  0  0  0  0  0  0  0  0  0
   19.7153  -18.6149  -15.9752 O   0  0  0  0  0  0  0  0  0  0  0  0
  2  1  1  1
  3  4  1  0
  3  2  1  0
  4  8  1  0
  5  6  1  0
  5  4  2  0
  6  7  1  0
  7  8  2  0
  9  2  1  0
  9 11  1  0
 10  9  2  0
 11 12  1  0
 12 17  1  0
 13 14  1  0
 12 13  1  6
 15 16  2  0
 15 14  1  0
 17 18  2  0
 17 26  1  0
 19 15  1  0
 20 21  1  0
 21 23  1  0
 21 22  2  0
 23 24  1  0
 25 24  1  1
 25 27  1  0
 26 25  1  0
 27 28  2  0
 27 29  1  0
M  END
$$$$
