HEQ.pdb
     RDKit          3D

 29 29  0  0  1  0  0  0  0  0999 V2000
   26.5631  -16.5070  -19.7580 N   0  0  0  0  0  0  0  0  0  0  0  0
   25.6944  -16.1850  -18.6169 C   0  0  1  0  0  0  0  0  0  0  0  0
   24.5710  -15.2860  -19.0787 C   0  0  0  0  0  0  0  0  0  0  0  0
   25.0140  -13.9492  -19.4568 C   0  0  0  0  0  0  0  0  0  0  0  0
   25.0535  -12.8529  -18.6251 C   0  0  0  0  0  0  0  0  0  0  0  0
   25.5125  -11.8161  -19.3253 N   0  0  0  0  0  0  0  0  0  0  0  0
   25.7696  -12.2064  -20.5779 C   0  0  0  0  0  0  0  0  0  0  0  0
   25.4553  -13.5320  -20.6438 N   0  0  0  0  0  0  0  0  0  0  0  0
   25.0645  -17.4646  -18.1763 C   0  0  0  0  0  0  0  0  0  0  0  0
   24.3823  -18.1665  -18.9776 O   0  0  0  0  0  0  0  0  0  0  0  0
   25.1885  -17.9690  -16.8498 N   0  0  0  0  0  0  0  0  0  0  0  0
   24.5941  -19.2224  -16.4788 C   0  0  1  0  0  0  0  0  0  0  0  0
   25.6146  -20.1530  -15.8411 C   0  0  0  0  0  0  0  0  0  0  0  0
   26.7429  -20.3825  -16.8233 C   0  0  0  0  0  0  0  0  0  0  0  0
   27.6986  -21.3809  -16.2898 C   0  0  0  0  0  0  0  0  0  0  0  0
   27.4852  -21.8974  -15.1845 O   0  0  0  0  0  0  0  0  0  0  0  0
   23.4108  -19.0508  -15.5968 C   0  0  0  0  0  0  0  0  0  0  0  0
   23.5127  -18.3003  -14.5924 O   0  0  0  0  0  0  0  0  0  0  0  0
   28.8034  -21.7104  -17.0386 O   0  0  0  0  0  0  0  0  0  0  0  0
   17.6727  -19.1035  -16.9032 N   0  0  0  0  0  0  0  0  0  0  0  0
   17.5231  -18.7839  -15.5108 C   0  0  0  0  0  0  0  0  0  0  0  0
   16.3624  -18.6878  -15.0048 O   0  0  0  0  0  0  0  0  0  0  0  0
   18.7480  -18.5862  -14.7191 C   0  0  0  0  0  0  0  0  0  0  0  0
   19.9948  -18.7212  -15.5146 C   0  0  0  0  0  0  0  0  0  0  0  0
   21.0448  -19.5441  -14.8555 C   0  0  2  0  0  0  0  0  0  0  0  0
   22.1731  -19.6887  -15.8282 N   0  0  0  0  0  0  0  0  0  0  0  0
   20.7043  -20.9006  -14.4768 C   0  0  0  0  0  0  0  0  0  0  0  0
   20.9666  -21.8690  -15.2287 O   0  0  0  0  0  0  0  0  0  0  0  0
   20.0892  -21.2041  -13.2771 O   0  0  0  0  0  0  0  0  0  0  0  0
  2  1  1  6
  3  4  1  0
  3  2  1  0
  4  8  1  0
  5  6  1  0
  5  4  2  0
  6  7  1  0
  7  8  2  0
  9  2  1  0
  9 11  1  0
 10  9  2  0
 11 12  1  0
 12 17  1  0
 13 14  1  0
 12 13  1  1
 15 16  2  0
 15 14  1  0
 17 18  2  0
 17 26  1  0
 19 15  1  0
 20 21  1  0
 21 23  1  0
 21 22  2  0
 23 24  1  0
 25 24  1  6
 25 27  1  0
 26 25  1  0
 27 28  2  0
 27 29  1  0
M  END
$$$$
