HEQ.pdb
     RDKit          3D

 29 29  0  0  1  0  0  0  0  0999 V2000
   26.2994  -22.5484  -15.0238 N   0  0  0  0  0  0  0  0  0  0  0  0
   25.0110  -23.0736  -15.4978 C   0  0  1  0  0  0  0  0  0  0  0  0
   24.9763  -24.5715  -15.3020 C   0  0  0  0  0  0  0  0  0  0  0  0
   25.8972  -25.2931  -16.1722 C   0  0  0  0  0  0  0  0  0  0  0  0
   25.5706  -25.8805  -17.3737 C   0  0  0  0  0  0  0  0  0  0  0  0
   26.6705  -26.4419  -17.8747 N   0  0  0  0  0  0  0  0  0  0  0  0
   27.6931  -26.2366  -17.0384 C   0  0  0  0  0  0  0  0  0  0  0  0
   27.1975  -25.5226  -15.9871 N   0  0  0  0  0  0  0  0  0  0  0  0
   23.9561  -22.5016  -14.6098 C   0  0  0  0  0  0  0  0  0  0  0  0
   24.1768  -22.2980  -13.3810 O   0  0  0  0  0  0  0  0  0  0  0  0
   22.6569  -22.1544  -15.0797 N   0  0  0  0  0  0  0  0  0  0  0  0
   21.6962  -21.5410  -14.2063 C   0  0  1  0  0  0  0  0  0  0  0  0
   21.3717  -20.1220  -14.6480 C   0  0  0  0  0  0  0  0  0  0  0  0
   20.3946  -19.5182  -13.6624 C   0  0  0  0  0  0  0  0  0  0  0  0
   19.9777  -18.1682  -14.1079 C   0  0  0  0  0  0  0  0  0  0  0  0
   19.1609  -17.5292  -13.4306 O   0  0  0  0  0  0  0  0  0  0  0  0
   20.4568  -22.3488  -14.0685 C   0  0  0  0  0  0  0  0  0  0  0  0
   19.9517  -22.8570  -15.1024 O   0  0  0  0  0  0  0  0  0  0  0  0
   20.5105  -17.6563  -15.2672 O   0  0  0  0  0  0  0  0  0  0  0  0
   19.1850  -26.1513   -9.5476 N   0  0  0  0  0  0  0  0  0  0  0  0
   17.9396  -26.2620  -10.2549 C   0  0  0  0  0  0  0  0  0  0  0  0
   17.0900  -27.1392   -9.9068 O   0  0  0  0  0  0  0  0  0  0  0  0
   17.7001  -25.3292  -11.3679 C   0  0  0  0  0  0  0  0  0  0  0  0
   18.7994  -24.3506  -11.5667 C   0  0  0  0  0  0  0  0  0  0  0  0
   18.6128  -23.4653  -12.7480 C   0  0  2  0  0  0  0  0  0  0  0  0
   19.8140  -22.5765  -12.8327 N   0  0  0  0  0  0  0  0  0  0  0  0
   17.4807  -22.5610  -12.7450 C   0  0  0  0  0  0  0  0  0  0  0  0
   17.6057  -21.3667  -12.3847 O   0  0  0  0  0  0  0  0  0  0  0  0
   16.2167  -22.9527  -13.1436 O   0  0  0  0  0  0  0  0  0  0  0  0
  2  1  1  1
  3  4  1  0
  3  2  1  0
  4  8  1  0
  5  6  1  0
  5  4  2  0
  6  7  1  0
  7  8  2  0
  9  2  1  0
  9 11  1  0
 10  9  2  0
 11 12  1  0
 12 17  1  0
 13 14  1  0
 12 13  1  6
 15 16  2  0
 15 14  1  0
 17 18  2  0
 17 26  1  0
 19 15  1  0
 20 21  1  0
 21 23  1  0
 21 22  2  0
 23 24  1  0
 25 24  1  1
 25 27  1  0
 26 25  1  0
 27 28  2  0
 27 29  1  0
M  END
$$$$
