HEQ.pdb
     RDKit          3D

 29 29  0  0  1  0  0  0  0  0999 V2000
   27.7840  -20.1149  -17.6629 N   0  0  0  0  0  0  0  0  0  0  0  0
   27.1854  -19.1899  -16.6901 C   0  0  1  0  0  0  0  0  0  0  0  0
   26.2900  -18.2106  -17.4130 C   0  0  0  0  0  0  0  0  0  0  0  0
   27.0215  -17.2328  -18.2097 C   0  0  0  0  0  0  0  0  0  0  0  0
   27.0713  -17.1955  -19.5850 C   0  0  0  0  0  0  0  0  0  0  0  0
   27.8348  -16.1645  -19.9457 N   0  0  0  0  0  0  0  0  0  0  0  0
   28.2780  -15.5372  -18.8514 C   0  0  0  0  0  0  0  0  0  0  0  0
   27.7650  -16.2116  -17.7826 N   0  0  0  0  0  0  0  0  0  0  0  0
   26.3016  -20.0040  -15.8044 C   0  0  0  0  0  0  0  0  0  0  0  0
   25.7394  -21.0542  -16.2299 O   0  0  0  0  0  0  0  0  0  0  0  0
   26.0388  -19.6576  -14.4478 N   0  0  0  0  0  0  0  0  0  0  0  0
   25.2106  -20.4899  -13.6211 C   0  0  1  0  0  0  0  0  0  0  0  0
   25.7108  -20.5180  -12.1848 C   0  0  0  0  0  0  0  0  0  0  0  0
   24.8505  -21.4761  -11.3897 C   0  0  0  0  0  0  0  0  0  0  0  0
   25.3714  -21.6165  -10.0099 C   0  0  0  0  0  0  0  0  0  0  0  0
   24.5993  -21.4791   -9.0511 O   0  0  0  0  0  0  0  0  0  0  0  0
   23.7784  -20.0983  -13.6751 C   0  0  0  0  0  0  0  0  0  0  0  0
   23.4576  -18.9381  -13.3096 O   0  0  0  0  0  0  0  0  0  0  0  0
   26.7047  -21.8970   -9.8277 O   0  0  0  0  0  0  0  0  0  0  0  0
   21.7674  -18.0184  -17.2925 N   0  0  0  0  0  0  0  0  0  0  0  0
   20.8144  -18.9692  -16.7912 C   0  0  0  0  0  0  0  0  0  0  0  0
   19.6315  -18.5960  -16.5191 O   0  0  0  0  0  0  0  0  0  0  0  0
   21.2619  -20.3609  -16.6203 C   0  0  0  0  0  0  0  0  0  0  0  0
   20.7215  -21.0103  -15.3989 C   0  0  0  0  0  0  0  0  0  0  0  0
   21.3274  -20.5140  -14.1336 C   0  0  2  0  0  0  0  0  0  0  0  0
   22.7548  -20.9639  -14.1169 N   0  0  0  0  0  0  0  0  0  0  0  0
   20.7723  -20.9920  -12.8835 C   0  0  0  0  0  0  0  0  0  0  0  0
   21.2886  -21.9568  -12.2716 O   0  0  0  0  0  0  0  0  0  0  0  0
   19.6637  -20.4142  -12.2945 O   0  0  0  0  0  0  0  0  0  0  0  0
  2  1  1  6
  3  4  1  0
  3  2  1  0
  4  8  1  0
  5  6  1  0
  5  4  2  0
  6  7  1  0
  7  8  2  0
  9  2  1  0
  9 11  1  0
 10  9  2  0
 11 12  1  0
 12 17  1  0
 13 14  1  0
 12 13  1  1
 15 16  2  0
 15 14  1  0
 17 18  2  0
 17 26  1  0
 19 15  1  0
 20 21  1  0
 21 23  1  0
 21 22  2  0
 23 24  1  0
 25 24  1  6
 25 27  1  0
 26 25  1  0
 27 28  2  0
 27 29  1  0
M  END
$$$$
