HEQ.pdb
     RDKit          3D

 29 29  0  0  1  0  0  0  0  0999 V2000
   16.4112  -11.6754  -13.7090 N   0  0  0  0  0  0  0  0  0  0  0  0
   16.6445  -10.3167  -14.2189 C   0  0  1  0  0  0  0  0  0  0  0  0
   15.3211   -9.6790  -14.5732 C   0  0  0  0  0  0  0  0  0  0  0  0
   14.7149  -10.2295  -15.7796 C   0  0  0  0  0  0  0  0  0  0  0  0
   15.2687  -11.2001  -16.5837 C   0  0  0  0  0  0  0  0  0  0  0  0
   14.4239  -11.4421  -17.5855 N   0  0  0  0  0  0  0  0  0  0  0  0
   13.3462  -10.6617  -17.4546 C   0  0  0  0  0  0  0  0  0  0  0  0
   13.5416   -9.9154  -16.3298 N   0  0  0  0  0  0  0  0  0  0  0  0
   17.2139   -9.5218  -13.0911 C   0  0  0  0  0  0  0  0  0  0  0  0
   16.8567   -9.7344  -11.8964 O   0  0  0  0  0  0  0  0  0  0  0  0
   18.1786   -8.4913  -13.2832 N   0  0  0  0  0  0  0  0  0  0  0  0
   18.6532   -7.7095  -12.1762 C   0  0  1  0  0  0  0  0  0  0  0  0
   19.8841   -6.9003  -12.5560 C   0  0  0  0  0  0  0  0  0  0  0  0
   20.3477   -6.1232  -11.3428 C   0  0  0  0  0  0  0  0  0  0  0  0
   21.5614   -5.3370  -11.6644 C   0  0  0  0  0  0  0  0  0  0  0  0
   22.6762   -5.8647  -11.5501 O   0  0  0  0  0  0  0  0  0  0  0  0
   17.5981   -6.8319  -11.6069 C   0  0  0  0  0  0  0  0  0  0  0  0
   16.8542   -6.1951  -12.3966 O   0  0  0  0  0  0  0  0  0  0  0  0
   21.4191   -4.0355  -12.0835 O   0  0  0  0  0  0  0  0  0  0  0  0
   13.5525   -8.5090   -7.7650 N   0  0  0  0  0  0  0  0  0  0  0  0
   13.2992   -7.1048   -7.5994 C   0  0  0  0  0  0  0  0  0  0  0  0
   12.3367   -6.7174   -6.8674 O   0  0  0  0  0  0  0  0  0  0  0  0
   14.1906   -6.1624   -8.2950 C   0  0  0  0  0  0  0  0  0  0  0  0
   15.3424   -6.8207   -8.9626 C   0  0  0  0  0  0  0  0  0  0  0  0
   16.2235   -5.8826   -9.7096 C   0  0  2  0  0  0  0  0  0  0  0  0
   17.3861   -6.6749  -10.2203 N   0  0  0  0  0  0  0  0  0  0  0  0
   16.8166   -4.7819   -8.9774 C   0  0  0  0  0  0  0  0  0  0  0  0
   17.9890   -4.8517   -8.5389 O   0  0  0  0  0  0  0  0  0  0  0  0
   16.1388   -3.6028   -8.7320 O   0  0  0  0  0  0  0  0  0  0  0  0
  2  1  1  1
  3  4  1  0
  3  2  1  0
  4  8  1  0
  5  6  1  0
  5  4  2  0
  6  7  1  0
  7  8  2  0
  9  2  1  0
  9 11  1  0
 10  9  2  0
 11 12  1  0
 12 17  1  0
 13 14  1  0
 12 13  1  6
 15 16  2  0
 15 14  1  0
 17 18  2  0
 17 26  1  0
 19 15  1  0
 20 21  1  0
 21 23  1  0
 21 22  2  0
 23 24  1  0
 25 24  1  1
 25 27  1  0
 26 25  1  0
 27 28  2  0
 27 29  1  0
M  END
$$$$
