HEQ.pdb
     RDKit          3D

 29 29  0  0  1  0  0  0  0  0999 V2000
   24.5905  -31.1588   -7.5875 N   0  0  0  0  0  0  0  0  0  0  0  0
   24.7437  -32.5049   -7.0173 C   0  0  1  0  0  0  0  0  0  0  0  0
   25.9874  -33.1512   -7.5819 C   0  0  0  0  0  0  0  0  0  0  0  0
   25.8511  -33.5549   -8.9763 C   0  0  0  0  0  0  0  0  0  0  0  0
   26.5230  -32.9983  -10.0412 C   0  0  0  0  0  0  0  0  0  0  0  0
   26.1379  -33.6278  -11.1509 N   0  0  0  0  0  0  0  0  0  0  0  0
   25.2422  -34.5697  -10.8378 C   0  0  0  0  0  0  0  0  0  0  0  0
   25.0748  -34.5121   -9.4853 N   0  0  0  0  0  0  0  0  0  0  0  0
   24.9785  -32.3318   -5.5534 C   0  0  0  0  0  0  0  0  0  0  0  0
   25.7856  -31.4594   -5.1201 O   0  0  0  0  0  0  0  0  0  0  0  0
   24.3214  -33.1229   -4.5676 N   0  0  0  0  0  0  0  0  0  0  0  0
   24.5162  -32.8688   -3.1679 C   0  0  1  0  0  0  0  0  0  0  0  0
   23.2712  -32.2654   -2.5352 C   0  0  0  0  0  0  0  0  0  0  0  0
   22.0813  -33.1345   -2.8804 C   0  0  0  0  0  0  0  0  0  0  0  0
   20.8532  -32.6086   -2.2402 C   0  0  0  0  0  0  0  0  0  0  0  0
   19.7877  -33.2272   -2.3682 O   0  0  0  0  0  0  0  0  0  0  0  0
   24.9527  -34.0798   -2.4261 C   0  0  0  0  0  0  0  0  0  0  0  0
   24.4599  -35.1920   -2.7465 O   0  0  0  0  0  0  0  0  0  0  0  0
   20.9274  -31.4420   -1.5170 O   0  0  0  0  0  0  0  0  0  0  0  0
   30.4080  -35.2724    0.1611 N   0  0  0  0  0  0  0  0  0  0  0  0
   30.0298  -35.3537   -1.2223 C   0  0  0  0  0  0  0  0  0  0  0  0
   30.9251  -35.4276   -2.1198 O   0  0  0  0  0  0  0  0  0  0  0  0
   28.5925  -35.3548   -1.5394 C   0  0  0  0  0  0  0  0  0  0  0  0
   27.7228  -35.2194   -0.3432 C   0  0  0  0  0  0  0  0  0  0  0  0
   26.2675  -35.2983   -0.6435 C   0  0  2  0  0  0  0  0  0  0  0  0
   25.8955  -34.0473   -1.3761 N   0  0  0  0  0  0  0  0  0  0  0  0
   25.3475  -35.3623    0.4741 C   0  0  0  0  0  0  0  0  0  0  0  0
   24.5220  -34.4432    0.6878 O   0  0  0  0  0  0  0  0  0  0  0  0
   25.3184  -36.4296    1.3515 O   0  0  0  0  0  0  0  0  0  0  0  0
  2  1  1  6
  3  4  1  0
  3  2  1  0
  4  8  1  0
  5  6  1  0
  5  4  2  0
  6  7  1  0
  7  8  2  0
  9  2  1  0
  9 11  1  0
 10  9  2  0
 11 12  1  0
 12 17  1  0
 13 14  1  0
 12 13  1  1
 15 16  2  0
 15 14  1  0
 17 18  2  0
 17 26  1  0
 19 15  1  0
 20 21  1  0
 21 23  1  0
 21 22  2  0
 23 24  1  0
 25 24  1  1
 25 27  1  0
 26 25  1  0
 27 28  2  0
 27 29  1  0
M  END
$$$$
