HEQ.pdb
     RDKit          3D

 29 29  0  0  1  0  0  0  0  0999 V2000
   26.6572  -35.8985   -4.8002 N   0  0  0  0  0  0  0  0  0  0  0  0
   27.0274  -34.6317   -4.1531 C   0  0  1  0  0  0  0  0  0  0  0  0
   26.0610  -33.5500   -4.5766 C   0  0  0  0  0  0  0  0  0  0  0  0
   26.2760  -33.0794   -5.9398 C   0  0  0  0  0  0  0  0  0  0  0  0
   27.2823  -33.4956   -6.7821 C   0  0  0  0  0  0  0  0  0  0  0  0
   27.1532  -32.8446   -7.9377 N   0  0  0  0  0  0  0  0  0  0  0  0
   26.0997  -32.0243   -7.8689 C   0  0  0  0  0  0  0  0  0  0  0  0
   25.5660  -32.1814   -6.6235 N   0  0  0  0  0  0  0  0  0  0  0  0
   26.8385  -34.8231   -2.6848 C   0  0  0  0  0  0  0  0  0  0  0  0
   25.7566  -35.2857   -2.2203 O   0  0  0  0  0  0  0  0  0  0  0  0
   27.8453  -34.5032   -1.7291 N   0  0  0  0  0  0  0  0  0  0  0  0
   27.6003  -34.6511   -0.3220 C   0  0  1  0  0  0  0  0  0  0  0  0
   28.8052  -35.2458    0.3913 C   0  0  0  0  0  0  0  0  0  0  0  0
   30.0005  -34.3476    0.1566 C   0  0  0  0  0  0  0  0  0  0  0  0
   31.1788  -34.8489    0.9016 C   0  0  0  0  0  0  0  0  0  0  0  0
   31.8286  -35.7991    0.4444 O   0  0  0  0  0  0  0  0  0  0  0  0
   27.1817  -33.3776    0.3186 C   0  0  0  0  0  0  0  0  0  0  0  0
   27.5544  -32.2930   -0.1984 O   0  0  0  0  0  0  0  0  0  0  0  0
   31.5230  -34.2439    2.0870 O   0  0  0  0  0  0  0  0  0  0  0  0
   21.8356  -31.5231    1.7696 N   0  0  0  0  0  0  0  0  0  0  0  0
   22.5391  -30.5075    2.5025 C   0  0  0  0  0  0  0  0  0  0  0  0
   21.8960  -29.5495    3.0327 O   0  0  0  0  0  0  0  0  0  0  0  0
   24.0016  -30.6325    2.6121 C   0  0  0  0  0  0  0  0  0  0  0  0
   24.5410  -31.8549    1.9638 C   0  0  0  0  0  0  0  0  0  0  0  0
   26.0158  -32.0055    2.0930 C   0  0  2  0  0  0  0  0  0  0  0  0
   26.3843  -33.3211    1.4819 N   0  0  0  0  0  0  0  0  0  0  0  0
   26.5786  -32.0449    3.4276 C   0  0  0  0  0  0  0  0  0  0  0  0
   26.9053  -33.1310    3.9618 O   0  0  0  0  0  0  0  0  0  0  0  0
   26.7956  -30.9033    4.1757 O   0  0  0  0  0  0  0  0  0  0  0  0
  2  1  1  6
  3  4  1  0
  3  2  1  0
  4  8  1  0
  5  6  1  0
  5  4  2  0
  6  7  1  0
  7  8  2  0
  9  2  1  0
  9 11  1  0
 10  9  2  0
 11 12  1  0
 12 17  1  0
 13 14  1  0
 12 13  1  1
 15 16  2  0
 15 14  1  0
 17 18  2  0
 17 26  1  0
 19 15  1  0
 20 21  1  0
 21 23  1  0
 21 22  2  0
 23 24  1  0
 25 24  1  1
 25 27  1  0
 26 25  1  0
 27 28  2  0
 27 29  1  0
M  END
$$$$
