HEQ.pdb
     RDKit          3D

 29 29  0  0  1  0  0  0  0  0999 V2000
   28.7585  -27.5457  -16.4659 N   0  0  0  0  0  0  0  0  0  0  0  0
   27.4501  -27.3068  -17.0915 C   0  0  1  0  0  0  0  0  0  0  0  0
   26.5782  -28.5283  -16.9150 C   0  0  0  0  0  0  0  0  0  0  0  0
   26.8911  -29.6056  -17.8466 C   0  0  0  0  0  0  0  0  0  0  0  0
   27.3412  -30.8595  -17.4998 C   0  0  0  0  0  0  0  0  0  0  0  0
   27.5150  -31.5630  -18.6183 N   0  0  0  0  0  0  0  0  0  0  0  0
   27.1927  -30.8062  -19.6723 C   0  0  0  0  0  0  0  0  0  0  0  0
   26.8077  -29.5949  -19.1773 N   0  0  0  0  0  0  0  0  0  0  0  0
   26.7987  -26.2024  -16.3271 C   0  0  0  0  0  0  0  0  0  0  0  0
   26.9984  -26.0610  -15.0860 O   0  0  0  0  0  0  0  0  0  0  0  0
   25.9264  -25.2538  -16.9341 N   0  0  0  0  0  0  0  0  0  0  0  0
   25.4144  -24.1392  -16.1875 C   0  0  1  0  0  0  0  0  0  0  0  0
   25.8387  -22.8156  -16.8057 C   0  0  0  0  0  0  0  0  0  0  0  0
   25.3423  -21.6879  -15.9267 C   0  0  0  0  0  0  0  0  0  0  0  0
   25.7580  -20.3784  -16.4808 C   0  0  0  0  0  0  0  0  0  0  0  0
   24.9084  -19.6375  -16.9942 O   0  0  0  0  0  0  0  0  0  0  0  0
   23.9391  -24.1967  -16.0211 C   0  0  0  0  0  0  0  0  0  0  0  0
   23.2572  -24.7872  -16.8979 O   0  0  0  0  0  0  0  0  0  0  0  0
   27.0824  -20.0168  -16.4108 O   0  0  0  0  0  0  0  0  0  0  0  0
   19.9271  -25.6708  -16.5485 N   0  0  0  0  0  0  0  0  0  0  0  0
   19.2056  -25.5764  -15.3100 C   0  0  0  0  0  0  0  0  0  0  0  0
   17.9510  -25.7715  -15.2920 O   0  0  0  0  0  0  0  0  0  0  0  0
   19.9724  -25.2584  -14.0945 C   0  0  0  0  0  0  0  0  0  0  0  0
   21.4224  -25.0580  -14.3453 C   0  0  0  0  0  0  0  0  0  0  0  0
   21.7683  -23.6933  -14.8273 C   0  0  2  0  0  0  0  0  0  0  0  0
   23.2600  -23.6207  -14.9259 N   0  0  0  0  0  0  0  0  0  0  0  0
   21.3954  -22.5665  -13.9963 C   0  0  0  0  0  0  0  0  0  0  0  0
   20.1916  -22.2857  -13.7866 O   0  0  0  0  0  0  0  0  0  0  0  0
   22.3307  -21.7528  -13.3857 O   0  0  0  0  0  0  0  0  0  0  0  0
  2  1  1  1
  3  4  1  0
  3  2  1  0
  4  8  1  0
  5  6  1  0
  5  4  2  0
  6  7  1  0
  7  8  2  0
  9  2  1  0
  9 11  1  0
 10  9  2  0
 11 12  1  0
 12 17  1  0
 13 14  1  0
 12 13  1  6
 15 16  2  0
 15 14  1  0
 17 18  2  0
 17 26  1  0
 19 15  1  0
 20 21  1  0
 21 23  1  0
 21 22  2  0
 23 24  1  0
 25 24  1  1
 25 27  1  0
 26 25  1  0
 27 28  2  0
 27 29  1  0
M  END
$$$$
