HEQ.pdb
     RDKit          3D

 29 29  0  0  1  0  0  0  0  0999 V2000
   27.9351  -17.5851  -19.1740 N   0  0  0  0  0  0  0  0  0  0  0  0
   27.2961  -16.3653  -18.6600 C   0  0  1  0  0  0  0  0  0  0  0  0
   26.7164  -15.5780  -19.8121 C   0  0  0  0  0  0  0  0  0  0  0  0
   27.7216  -15.1002  -20.7541 C   0  0  0  0  0  0  0  0  0  0  0  0
   28.3094  -15.8502  -21.7478 C   0  0  0  0  0  0  0  0  0  0  0  0
   29.1734  -15.0727  -22.3996 N   0  0  0  0  0  0  0  0  0  0  0  0
   29.1624  -13.8492  -21.8606 C   0  0  0  0  0  0  0  0  0  0  0  0
   28.2569  -13.8822  -20.8411 N   0  0  0  0  0  0  0  0  0  0  0  0
   26.1439  -16.8012  -17.8171 C   0  0  0  0  0  0  0  0  0  0  0  0
   25.0441  -16.1767  -17.8410 O   0  0  0  0  0  0  0  0  0  0  0  0
   26.2066  -17.9277  -16.9474 N   0  0  0  0  0  0  0  0  0  0  0  0
   25.0497  -18.3588  -16.2141 C   0  0  1  0  0  0  0  0  0  0  0  0
   23.8619  -18.5878  -17.1365 C   0  0  0  0  0  0  0  0  0  0  0  0
   22.7816  -17.5843  -16.7953 C   0  0  0  0  0  0  0  0  0  0  0  0
   21.4449  -18.1300  -17.1269 C   0  0  0  0  0  0  0  0  0  0  0  0
   20.6606  -17.4500  -17.8028 O   0  0  0  0  0  0  0  0  0  0  0  0
   25.3178  -19.5639  -15.3875 C   0  0  0  0  0  0  0  0  0  0  0  0
   25.7376  -20.6036  -15.9578 O   0  0  0  0  0  0  0  0  0  0  0  0
   21.1069  -19.3832  -16.6741 O   0  0  0  0  0  0  0  0  0  0  0  0
   24.8382  -19.9545   -9.1243 N   0  0  0  0  0  0  0  0  0  0  0  0
   25.3633  -21.2586   -9.4196 C   0  0  0  0  0  0  0  0  0  0  0  0
   25.5658  -22.0871   -8.4789 O   0  0  0  0  0  0  0  0  0  0  0  0
   25.6403  -21.5812  -10.8287 C   0  0  0  0  0  0  0  0  0  0  0  0
   25.3959  -20.4461  -11.7546 C   0  0  0  0  0  0  0  0  0  0  0  0
   25.5498  -20.7966  -13.1926 C   0  0  2  0  0  0  0  0  0  0  0  0
   25.1251  -19.6031  -13.9897 N   0  0  0  0  0  0  0  0  0  0  0  0
   24.7561  -21.8920  -13.7117 C   0  0  0  0  0  0  0  0  0  0  0  0
   23.5803  -21.7104  -14.1071 O   0  0  0  0  0  0  0  0  0  0  0  0
   25.2447  -23.1809  -13.8107 O   0  0  0  0  0  0  0  0  0  0  0  0
  2  1  1  6
  3  4  1  0
  3  2  1  0
  4  8  1  0
  5  6  1  0
  5  4  2  0
  6  7  1  0
  7  8  2  0
  9  2  1  0
  9 11  1  0
 10  9  2  0
 11 12  1  0
 12 17  1  0
 13 14  1  0
 12 13  1  6
 15 16  2  0
 15 14  1  0
 17 18  2  0
 17 26  1  0
 19 15  1  0
 20 21  1  0
 21 23  1  0
 21 22  2  0
 23 24  1  0
 25 24  1  1
 25 27  1  0
 26 25  1  0
 27 28  2  0
 27 29  1  0
M  END
$$$$
