HEQ.pdb
     RDKit          3D

 29 29  0  0  1  0  0  0  0  0999 V2000
   17.0529  -10.9865  -15.4845 N   0  0  0  0  0  0  0  0  0  0  0  0
   16.8122  -11.4654  -14.1159 C   0  0  1  0  0  0  0  0  0  0  0  0
   17.6250  -12.7154  -13.8707 C   0  0  0  0  0  0  0  0  0  0  0  0
   17.2029  -13.8517  -14.6810 C   0  0  0  0  0  0  0  0  0  0  0  0
   18.0005  -14.5499  -15.5596 C   0  0  0  0  0  0  0  0  0  0  0  0
   17.2654  -15.5145  -16.1119 N   0  0  0  0  0  0  0  0  0  0  0  0
   16.0233  -15.4619  -15.6199 C   0  0  0  0  0  0  0  0  0  0  0  0
   16.0004  -14.4253  -14.7337 N   0  0  0  0  0  0  0  0  0  0  0  0
   17.3439  -10.4213  -13.1910 C   0  0  0  0  0  0  0  0  0  0  0  0
   17.3467  -10.5984  -11.9385 O   0  0  0  0  0  0  0  0  0  0  0  0
   17.8728   -9.1808  -13.6502 N   0  0  0  0  0  0  0  0  0  0  0  0
   18.3259   -8.1833  -12.7219 C   0  0  1  0  0  0  0  0  0  0  0  0
   19.2858   -7.2056  -13.3829 C   0  0  0  0  0  0  0  0  0  0  0  0
   20.6033   -7.9090  -13.6275 C   0  0  0  0  0  0  0  0  0  0  0  0
   21.5531   -7.0041  -14.3159 C   0  0  0  0  0  0  0  0  0  0  0  0
   21.8376   -5.9143  -13.8005 O   0  0  0  0  0  0  0  0  0  0  0  0
   17.2024   -7.4625  -12.0695 C   0  0  0  0  0  0  0  0  0  0  0  0
   16.2497   -7.0594  -12.7852 O   0  0  0  0  0  0  0  0  0  0  0  0
   22.0973   -7.3987  -15.5150 O   0  0  0  0  0  0  0  0  0  0  0  0
   13.2903   -9.0497   -8.2927 N   0  0  0  0  0  0  0  0  0  0  0  0
   13.0246   -7.6479   -8.1251 C   0  0  0  0  0  0  0  0  0  0  0  0
   12.0095   -7.2712   -7.4618 O   0  0  0  0  0  0  0  0  0  0  0  0
   13.9654   -6.6957   -8.7371 C   0  0  0  0  0  0  0  0  0  0  0  0
   15.0733   -7.3516   -9.4773 C   0  0  0  0  0  0  0  0  0  0  0  0
   16.0321   -6.3977  -10.0979 C   0  0  2  0  0  0  0  0  0  0  0  0
   17.1483   -7.2053  -10.6827 N   0  0  0  0  0  0  0  0  0  0  0  0
   16.6836   -5.4336   -9.2344 C   0  0  0  0  0  0  0  0  0  0  0  0
   17.8609   -5.6077   -8.8403 O   0  0  0  0  0  0  0  0  0  0  0  0
   16.0587   -4.2767   -8.8090 O   0  0  0  0  0  0  0  0  0  0  0  0
  2  1  1  6
  3  4  1  0
  3  2  1  0
  4  8  1  0
  5  6  1  0
  5  4  2  0
  6  7  1  0
  7  8  2  0
  9  2  1  0
  9 11  1  0
 10  9  2  0
 11 12  1  0
 12 17  1  0
 13 14  1  0
 12 13  1  6
 15 16  2  0
 15 14  1  0
 17 18  2  0
 17 26  1  0
 19 15  1  0
 20 21  1  0
 21 23  1  0
 21 22  2  0
 23 24  1  0
 25 24  1  1
 25 27  1  0
 26 25  1  0
 27 28  2  0
 27 29  1  0
M  END
$$$$
