HEQ.pdb
     RDKit          3D

 29 29  0  0  1  0  0  0  0  0999 V2000
   29.1144  -20.9227  -17.2220 N   0  0  0  0  0  0  0  0  0  0  0  0
   27.8739  -21.6607  -16.9449 C   0  0  1  0  0  0  0  0  0  0  0  0
   28.0913  -22.5856  -15.7698 C   0  0  0  0  0  0  0  0  0  0  0  0
   29.0763  -23.6297  -16.0260 C   0  0  0  0  0  0  0  0  0  0  0  0
   30.2583  -23.8018  -15.3416 C   0  0  0  0  0  0  0  0  0  0  0  0
   30.8890  -24.8555  -15.8592 N   0  0  0  0  0  0  0  0  0  0  0  0
   30.1548  -25.3674  -16.8523 C   0  0  0  0  0  0  0  0  0  0  0  0
   29.0335  -24.5962  -16.9436 N   0  0  0  0  0  0  0  0  0  0  0  0
   26.8575  -20.6553  -16.5155 C   0  0  0  0  0  0  0  0  0  0  0  0
   27.1593  -19.7215  -15.7174 O   0  0  0  0  0  0  0  0  0  0  0  0
   25.5070  -20.6816  -16.9682 N   0  0  0  0  0  0  0  0  0  0  0  0
   24.5606  -19.6977  -16.5230 C   0  0  1  0  0  0  0  0  0  0  0  0
   24.0783  -18.8304  -17.6760 C   0  0  0  0  0  0  0  0  0  0  0  0
   23.0984  -17.8097  -17.1388 C   0  0  0  0  0  0  0  0  0  0  0  0
   22.6363  -16.9143  -18.2249 C   0  0  0  0  0  0  0  0  0  0  0  0
   21.6330  -17.2229  -18.8824 O   0  0  0  0  0  0  0  0  0  0  0  0
   23.4123  -20.3012  -15.7986 C   0  0  0  0  0  0  0  0  0  0  0  0
   22.8783  -21.3366  -16.2733 O   0  0  0  0  0  0  0  0  0  0  0  0
   23.3360  -15.7581  -18.4767 O   0  0  0  0  0  0  0  0  0  0  0  0
   21.4659  -18.7580  -10.0246 N   0  0  0  0  0  0  0  0  0  0  0  0
   20.6038  -19.8742  -10.2970 C   0  0  0  0  0  0  0  0  0  0  0  0
   19.8083  -20.2930   -9.4002 O   0  0  0  0  0  0  0  0  0  0  0  0
   20.6804  -20.4874  -11.6330 C   0  0  0  0  0  0  0  0  0  0  0  0
   21.7564  -19.9187  -12.4840 C   0  0  0  0  0  0  0  0  0  0  0  0
   21.8021  -20.4869  -13.8586 C   0  0  2  0  0  0  0  0  0  0  0  0
   22.8872  -19.7711  -14.6004 N   0  0  0  0  0  0  0  0  0  0  0  0
   20.6250  -20.3426  -14.6910 C   0  0  0  0  0  0  0  0  0  0  0  0
   20.3533  -19.2519  -15.2463 O   0  0  0  0  0  0  0  0  0  0  0  0
   19.7506  -21.3863  -14.9275 O   0  0  0  0  0  0  0  0  0  0  0  0
  2  1  1  1
  3  4  1  0
  3  2  1  0
  4  8  1  0
  5  6  1  0
  5  4  2  0
  6  7  1  0
  7  8  2  0
  9  2  1  0
  9 11  1  0
 10  9  2  0
 11 12  1  0
 12 17  1  0
 13 14  1  0
 12 13  1  6
 15 16  2  0
 15 14  1  0
 17 18  2  0
 17 26  1  0
 19 15  1  0
 20 21  1  0
 21 23  1  0
 21 22  2  0
 23 24  1  0
 25 24  1  1
 25 27  1  0
 26 25  1  0
 27 28  2  0
 27 29  1  0
M  END
$$$$
