HEQ.pdb
     RDKit          3D

 29 29  0  0  1  0  0  0  0  0999 V2000
   23.7737  -14.5551  -17.4337 N   0  0  0  0  0  0  0  0  0  0  0  0
   23.9058  -13.7947  -16.1828 C   0  0  1  0  0  0  0  0  0  0  0  0
   25.3492  -13.3908  -15.9903 C   0  0  0  0  0  0  0  0  0  0  0  0
   26.2619  -14.5237  -15.8928 C   0  0  0  0  0  0  0  0  0  0  0  0
   26.3585  -15.3854  -14.8235 C   0  0  0  0  0  0  0  0  0  0  0  0
   27.2989  -16.2881  -15.1005 N   0  0  0  0  0  0  0  0  0  0  0  0
   27.8108  -16.0378  -16.3100 C   0  0  0  0  0  0  0  0  0  0  0  0
   27.1573  -14.9404  -16.7887 N   0  0  0  0  0  0  0  0  0  0  0  0
   23.1283  -12.5326  -16.3580 C   0  0  0  0  0  0  0  0  0  0  0  0
   23.3547  -11.7557  -17.3302 O   0  0  0  0  0  0  0  0  0  0  0  0
   22.0999  -12.1287  -15.4587 N   0  0  0  0  0  0  0  0  0  0  0  0
   21.2635  -10.9994  -15.7540 C   0  0  1  0  0  0  0  0  0  0  0  0
   19.8356  -11.2284  -15.2819 C   0  0  0  0  0  0  0  0  0  0  0  0
   19.1840  -12.2532  -16.1850 C   0  0  0  0  0  0  0  0  0  0  0  0
   17.7769  -12.4794  -15.7806 C   0  0  0  0  0  0  0  0  0  0  0  0
   16.9678  -11.5436  -15.8434 O   0  0  0  0  0  0  0  0  0  0  0  0
   21.8062   -9.7311  -15.2023 C   0  0  0  0  0  0  0  0  0  0  0  0
   22.2881   -9.7377  -14.0404 O   0  0  0  0  0  0  0  0  0  0  0  0
   17.4029  -13.7280  -15.3438 O   0  0  0  0  0  0  0  0  0  0  0  0
   23.2772   -4.5395  -18.3808 N   0  0  0  0  0  0  0  0  0  0  0  0
   23.4514   -4.0633  -17.0368 C   0  0  0  0  0  0  0  0  0  0  0  0
   23.8378   -2.8709  -16.8330 O   0  0  0  0  0  0  0  0  0  0  0  0
   23.1609   -4.9976  -15.9372 C   0  0  0  0  0  0  0  0  0  0  0  0
   22.6325   -6.3070  -16.3975 C   0  0  0  0  0  0  0  0  0  0  0  0
   22.3436   -7.2626  -15.2940 C   0  0  2  0  0  0  0  0  0  0  0  0
   21.8091   -8.5140  -15.9172 N   0  0  0  0  0  0  0  0  0  0  0  0
   21.3490   -6.8823  -14.3114 C   0  0  0  0  0  0  0  0  0  0  0  0
   20.1313   -7.1159  -14.4975 O   0  0  0  0  0  0  0  0  0  0  0  0
   21.6798   -6.2587  -13.1234 O   0  0  0  0  0  0  0  0  0  0  0  0
  2  1  1  6
  3  4  1  0
  3  2  1  0
  4  8  1  0
  5  6  1  0
  5  4  2  0
  6  7  1  0
  7  8  2  0
  9  2  1  0
  9 11  1  0
 10  9  2  0
 11 12  1  0
 12 17  1  0
 13 14  1  0
 12 13  1  1
 15 16  2  0
 15 14  1  0
 17 18  2  0
 17 26  1  0
 19 15  1  0
 20 21  1  0
 21 23  1  0
 21 22  2  0
 23 24  1  0
 25 24  1  6
 25 27  1  0
 26 25  1  0
 27 28  2  0
 27 29  1  0
M  END
$$$$
