YVH.pdb
     RDKit          3D

 30 31  0  0  1  0  0  0  0  0999 V2000
   10.3044  -14.1019   30.8204 O   0  0  0  0  0  0  0  0  0  0  0  0
   10.1207  -14.5921   29.5281 C   0  0  0  0  0  0  0  0  0  0  0  0
    9.7617  -13.7379   28.5258 C   0  0  0  0  0  0  0  0  0  0  0  0
    9.5585  -14.1176   27.2211 C   0  0  0  0  0  0  0  0  0  0  0  0
    9.7329  -15.4569   26.9118 C   0  0  0  0  0  0  0  0  0  0  0  0
    9.5139  -15.8490   25.4812 C   0  0  0  0  0  0  0  0  0  0  0  0
    8.0573  -15.7140   25.2028 C   0  0  2  0  0  0  0  0  0  0  0  0
    7.1581  -16.5007   25.9737 N   0  0  0  0  0  0  0  0  0  0  0  0
    7.7741  -15.8817   23.7278 C   0  0  0  0  0  0  0  0  0  0  0  0
    7.3294  -16.9691   23.2579 O   0  0  0  0  0  0  0  0  0  0  0  0
   10.0927  -16.3373   27.8923 C   0  0  0  0  0  0  0  0  0  0  0  0
   10.2892  -15.9236   29.2030 C   0  0  0  0  0  0  0  0  0  0  0  0
    6.8479  -13.0610   20.8409 C   0  0  0  0  0  0  0  0  0  0  0  0
    8.1093  -13.8754   20.5436 C   0  0  2  0  0  0  0  0  0  0  0  0
    8.1505  -14.2525   19.0642 C   0  0  0  0  0  0  0  0  0  0  0  0
    8.2112  -15.0756   21.4043 C   0  0  2  0  0  0  0  0  0  0  0  0
    8.0104  -14.8131   22.8160 N   0  0  0  0  0  0  0  0  0  0  0  0
    9.4700  -15.8650   21.1606 C   0  0  0  0  0  0  0  0  0  0  0  0
   10.5224  -15.6746   21.8218 O   0  0  0  0  0  0  0  0  0  0  0  0
    9.4276  -16.8498   20.1439 N   0  0  0  0  0  0  0  0  0  0  0  0
   10.5783  -17.7287   19.8443 C   0  0  1  0  0  0  0  0  0  0  0  0
   10.1513  -18.7140   18.7828 C   0  0  0  0  0  0  0  0  0  0  0  0
    9.2246  -19.7352   19.2852 C   0  0  0  0  0  0  0  0  0  0  0  0
    9.2896  -20.3399   20.5113 C   0  0  0  0  0  0  0  0  0  0  0  0
    8.2639  -21.2335   20.5631 N   0  0  0  0  0  0  0  0  0  0  0  0
    7.5691  -21.1991   19.4138 C   0  0  0  0  0  0  0  0  0  0  0  0
    8.1860  -20.2616   18.6387 N   0  0  0  0  0  0  0  0  0  0  0  0
   11.5776  -16.8169   19.1758 C   0  0  0  0  0  0  0  0  0  0  0  0
   12.9538  -17.0087   19.4159 O   0  0  0  0  0  0  0  0  0  0  0  0
   11.2684  -15.8904   18.4143 O   0  0  0  0  0  0  0  0  0  0  0  0
  2  3  2  0
  2  1  1  0
  4  3  1  0
  5  4  2  0
  6  5  1  0
  7  6  1  0
  7  8  1  1
  9  7  1  0
  9 10  2  0
 11  5  1  0
 11 12  2  0
 12  2  1  0
 14 16  1  0
 14 13  1  6
 15 14  1  0
 16 17  1  1
 17  9  1  0
 18 16  1  0
 19 18  2  0
 20 18  1  0
 21 20  1  0
 21 22  1  6
 23 24  2  0
 23 22  1  0
 25 24  1  0
 26 27  2  0
 26 25  1  0
 27 23  1  0
 28 21  1  0
 28 29  1  0
 30 28  2  0
M  END
$$$$
