YVH.pdb
     RDKit          3D

 30 31  0  0  1  0  0  0  0  0999 V2000
   12.1820  -20.7703   12.7225 O   0  0  0  0  0  0  0  0  0  0  0  0
   12.1411  -19.8437   13.7635 C   0  0  0  0  0  0  0  0  0  0  0  0
   11.2207  -19.9879   14.7611 C   0  0  0  0  0  0  0  0  0  0  0  0
   11.0986  -19.1342   15.8307 C   0  0  0  0  0  0  0  0  0  0  0  0
   11.9720  -18.0603   15.8929 C   0  0  0  0  0  0  0  0  0  0  0  0
   11.8271  -17.1452   17.0719 C   0  0  0  0  0  0  0  0  0  0  0  0
   10.8554  -16.0829   16.6914 C   0  0  2  0  0  0  0  0  0  0  0  0
   11.1473  -15.2960   15.5436 N   0  0  0  0  0  0  0  0  0  0  0  0
   10.5390  -15.1955   17.8731 C   0  0  0  0  0  0  0  0  0  0  0  0
   10.7870  -13.9549   17.8554 O   0  0  0  0  0  0  0  0  0  0  0  0
   12.9052  -17.8883   14.9103 C   0  0  0  0  0  0  0  0  0  0  0  0
   13.0030  -18.7674   13.8402 C   0  0  0  0  0  0  0  0  0  0  0  0
    8.8555  -13.0442   18.3947 C   0  0  0  0  0  0  0  0  0  0  0  0
    8.2845  -13.9792   19.4636 C   0  0  2  0  0  0  0  0  0  0  0  0
    7.6016  -13.1637   20.5596 C   0  0  0  0  0  0  0  0  0  0  0  0
    9.3195  -14.8739   20.0293 C   0  0  2  0  0  0  0  0  0  0  0  0
    9.9554  -15.7379   19.0540 N   0  0  0  0  0  0  0  0  0  0  0  0
    8.8322  -15.6503   21.2238 C   0  0  0  0  0  0  0  0  0  0  0  0
    7.8188  -16.3930   21.1759 O   0  0  0  0  0  0  0  0  0  0  0  0
    9.5691  -15.5155   22.4255 N   0  0  0  0  0  0  0  0  0  0  0  0
   10.2365  -16.6623   23.0780 C   0  0  1  0  0  0  0  0  0  0  0  0
   11.3932  -17.0891   22.2064 C   0  0  0  0  0  0  0  0  0  0  0  0
   12.1558  -18.2090   22.7703 C   0  0  0  0  0  0  0  0  0  0  0  0
   12.1814  -18.5753   24.0888 C   0  0  0  0  0  0  0  0  0  0  0  0
   13.0244  -19.6399   24.1841 N   0  0  0  0  0  0  0  0  0  0  0  0
   13.5170  -19.9432   22.9716 C   0  0  0  0  0  0  0  0  0  0  0  0
   12.9622  -19.0404   22.1128 N   0  0  0  0  0  0  0  0  0  0  0  0
   10.8579  -16.0725   24.3201 C   0  0  0  0  0  0  0  0  0  0  0  0
   10.7692  -14.6828   24.5417 O   0  0  0  0  0  0  0  0  0  0  0  0
   11.4546  -16.7368   25.1783 O   0  0  0  0  0  0  0  0  0  0  0  0
  2  3  2  0
  2  1  1  0
  4  3  1  0
  5  4  2  0
  6  5  1  0
  7  6  1  0
  7  8  1  6
  9  7  1  0
  9 10  2  0
 11  5  1  0
 11 12  2  0
 12  2  1  0
 14 16  1  0
 14 13  1  6
 15 14  1  0
 16 17  1  6
 17  9  1  0
 18 16  1  0
 19 18  2  0
 20 18  1  0
 21 20  1  0
 21 22  1  6
 23 24  2  0
 23 22  1  0
 25 24  1  0
 26 27  2  0
 26 25  1  0
 27 23  1  0
 28 21  1  0
 28 29  1  0
 30 28  2  0
M  END
$$$$
