YVH.pdb
     RDKit          3D

 30 31  0  0  1  0  0  0  0  0999 V2000
   15.8892  -17.2154   13.0157 O   0  0  0  0  0  0  0  0  0  0  0  0
   15.1671  -16.9684   14.1826 C   0  0  0  0  0  0  0  0  0  0  0  0
   15.8185  -16.9074   15.3805 C   0  0  0  0  0  0  0  0  0  0  0  0
   15.2026  -16.6679   16.5852 C   0  0  0  0  0  0  0  0  0  0  0  0
   13.8305  -16.4757   16.5730 C   0  0  0  0  0  0  0  0  0  0  0  0
   13.1789  -16.2080   17.8968 C   0  0  0  0  0  0  0  0  0  0  0  0
   12.7954  -14.7693   17.9190 C   0  0  2  0  0  0  0  0  0  0  0  0
   13.8332  -13.8036   17.8084 N   0  0  0  0  0  0  0  0  0  0  0  0
   11.9165  -14.4656   19.1103 C   0  0  0  0  0  0  0  0  0  0  0  0
   12.4062  -14.2447   20.2559 O   0  0  0  0  0  0  0  0  0  0  0  0
   13.1493  -16.5299   15.3903 C   0  0  0  0  0  0  0  0  0  0  0  0
   13.7996  -16.7758   14.1886 C   0  0  0  0  0  0  0  0  0  0  0  0
    8.3620  -12.4051   19.0303 C   0  0  0  0  0  0  0  0  0  0  0  0
    8.3019  -13.7132   19.8229 C   0  0  2  0  0  0  0  0  0  0  0  0
    7.4769  -13.5163   21.0930 C   0  0  0  0  0  0  0  0  0  0  0  0
    9.6512  -14.2346   20.1374 C   0  0  2  0  0  0  0  0  0  0  0  0
   10.4987  -14.4279   18.9770 N   0  0  0  0  0  0  0  0  0  0  0  0
    9.6156  -15.4620   21.0088 C   0  0  0  0  0  0  0  0  0  0  0  0
    9.2735  -16.5894   20.5696 O   0  0  0  0  0  0  0  0  0  0  0  0
    9.9900  -15.3017   22.3651 N   0  0  0  0  0  0  0  0  0  0  0  0
    9.9756  -16.4234   23.3284 C   0  0  1  0  0  0  0  0  0  0  0  0
   11.3784  -16.6053   23.8567 C   0  0  0  0  0  0  0  0  0  0  0  0
   12.2494  -17.3425   22.9339 C   0  0  0  0  0  0  0  0  0  0  0  0
   11.8811  -17.8425   21.7142 C   0  0  0  0  0  0  0  0  0  0  0  0
   12.9744  -18.4708   21.2011 N   0  0  0  0  0  0  0  0  0  0  0  0
   14.0027  -18.3738   22.0603 C   0  0  0  0  0  0  0  0  0  0  0  0
   13.5260  -17.6694   23.1266 N   0  0  0  0  0  0  0  0  0  0  0  0
    9.1663  -15.9037   24.4910 C   0  0  0  0  0  0  0  0  0  0  0  0
    8.7060  -14.5710   24.4693 O   0  0  0  0  0  0  0  0  0  0  0  0
    8.8710  -16.5792   25.4862 O   0  0  0  0  0  0  0  0  0  0  0  0
  2  3  2  0
  2  1  1  0
  4  3  1  0
  5  4  2  0
  6  5  1  0
  7  6  1  0
  7  8  1  1
  9  7  1  0
  9 10  2  0
 11  5  1  0
 11 12  2  0
 12  2  1  0
 14 16  1  0
 14 13  1  1
 15 14  1  0
 16 17  1  6
 17  9  1  0
 18 16  1  0
 19 18  2  0
 20 18  1  0
 21 20  1  0
 21 22  1  1
 23 24  2  0
 23 22  1  0
 25 24  1  0
 26 27  2  0
 26 25  1  0
 27 23  1  0
 28 21  1  0
 28 29  1  0
 30 28  2  0
M  END
$$$$
