YVH.pdb
     RDKit          3D

 30 31  0  0  1  0  0  0  0  0999 V2000
    3.5021  -23.7560   23.3596 O   0  0  0  0  0  0  0  0  0  0  0  0
    4.3477  -22.6473   23.3593 C   0  0  0  0  0  0  0  0  0  0  0  0
    5.6886  -22.8197   23.5472 C   0  0  0  0  0  0  0  0  0  0  0  0
    6.6059  -21.7969   23.5620 C   0  0  0  0  0  0  0  0  0  0  0  0
    6.1294  -20.5098   23.3716 C   0  0  0  0  0  0  0  0  0  0  0  0
    7.1475  -19.4090   23.3836 C   0  0  0  0  0  0  0  0  0  0  0  0
    7.2467  -18.8822   21.9943 C   0  0  2  0  0  0  0  0  0  0  0  0
    7.5687  -19.8002   20.9573 N   0  0  0  0  0  0  0  0  0  0  0  0
    8.1622  -17.6810   21.9390 C   0  0  0  0  0  0  0  0  0  0  0  0
    9.3625  -17.7799   21.5513 O   0  0  0  0  0  0  0  0  0  0  0  0
    4.7927  -20.3037   23.1803 C   0  0  0  0  0  0  0  0  0  0  0  0
    3.8894  -21.3580   23.1723 C   0  0  0  0  0  0  0  0  0  0  0  0
    6.9340  -13.3887   22.6674 C   0  0  0  0  0  0  0  0  0  0  0  0
    7.9044  -14.0326   21.6741 C   0  0  2  0  0  0  0  0  0  0  0  0
    7.1766  -14.3625   20.3726 C   0  0  0  0  0  0  0  0  0  0  0  0
    8.5612  -15.2334   22.2384 C   0  0  2  0  0  0  0  0  0  0  0  0
    7.6972  -16.3937   22.3338 N   0  0  0  0  0  0  0  0  0  0  0  0
    9.2652  -14.9576   23.5406 C   0  0  0  0  0  0  0  0  0  0  0  0
   10.1110  -14.0357   23.6662 O   0  0  0  0  0  0  0  0  0  0  0  0
    8.9346  -15.7854   24.6409 N   0  0  0  0  0  0  0  0  0  0  0  0
    9.5098  -15.5798   25.9874 C   0  0  1  0  0  0  0  0  0  0  0  0
    8.3697  -15.4463   26.9685 C   0  0  0  0  0  0  0  0  0  0  0  0
    7.6304  -14.1869   26.8231 C   0  0  0  0  0  0  0  0  0  0  0  0
    8.1645  -12.9305   26.9201 C   0  0  0  0  0  0  0  0  0  0  0  0
    7.1382  -12.0532   26.7462 N   0  0  0  0  0  0  0  0  0  0  0  0
    5.9922  -12.7244   26.5437 C   0  0  0  0  0  0  0  0  0  0  0  0
    6.3256  -14.0460   26.5964 N   0  0  0  0  0  0  0  0  0  0  0  0
   10.1747  -16.8949   26.3117 C   0  0  0  0  0  0  0  0  0  0  0  0
   10.9360  -17.0095   27.4931 O   0  0  0  0  0  0  0  0  0  0  0  0
   10.0984  -17.9041   25.5978 O   0  0  0  0  0  0  0  0  0  0  0  0
  2  3  2  0
  2  1  1  0
  4  3  1  0
  5  4  2  0
  6  5  1  0
  7  6  1  0
  7  8  1  6
  9  7  1  0
  9 10  2  0
 11  5  1  0
 11 12  2  0
 12  2  1  0
 14 16  1  0
 14 13  1  1
 15 14  1  0
 16 17  1  1
 17  9  1  0
 18 16  1  0
 19 18  2  0
 20 18  1  0
 21 20  1  0
 21 22  1  1
 23 24  2  0
 23 22  1  0
 25 24  1  0
 26 27  2  0
 26 25  1  0
 27 23  1  0
 28 21  1  0
 28 29  1  0
 30 28  2  0
M  END
$$$$
