YVH.pdb
     RDKit          3D

 30 31  0  0  1  0  0  0  0  0999 V2000
   10.5262  -20.0369   11.1986 O   0  0  0  0  0  0  0  0  0  0  0  0
   10.4392  -19.4842   12.4757 C   0  0  0  0  0  0  0  0  0  0  0  0
   11.4666  -19.6554   13.3579 C   0  0  0  0  0  0  0  0  0  0  0  0
   11.4814  -19.1513   14.6359 C   0  0  0  0  0  0  0  0  0  0  0  0
   10.3775  -18.4217   15.0468 C   0  0  0  0  0  0  0  0  0  0  0  0
   10.4170  -17.8738   16.4420 C   0  0  0  0  0  0  0  0  0  0  0  0
   10.4733  -16.3897   16.3339 C   0  0  2  0  0  0  0  0  0  0  0  0
   11.5700  -15.8160   15.6340 N   0  0  0  0  0  0  0  0  0  0  0  0
   10.3187  -15.7454   17.6922 C   0  0  0  0  0  0  0  0  0  0  0  0
   11.2956  -15.6361   18.4888 O   0  0  0  0  0  0  0  0  0  0  0  0
    9.3328  -18.2318   14.1874 C   0  0  0  0  0  0  0  0  0  0  0  0
    9.3461  -18.7556   12.9017 C   0  0  0  0  0  0  0  0  0  0  0  0
    7.8741  -12.5574   18.5213 C   0  0  0  0  0  0  0  0  0  0  0  0
    7.7674  -13.6993   19.5350 C   0  0  2  0  0  0  0  0  0  0  0  0
    7.6496  -13.1329   20.9485 C   0  0  0  0  0  0  0  0  0  0  0  0
    8.9032  -14.6430   19.4301 C   0  0  2  0  0  0  0  0  0  0  0  0
    9.0551  -15.2466   18.1207 N   0  0  0  0  0  0  0  0  0  0  0  0
    8.9051  -15.6796   20.5222 C   0  0  0  0  0  0  0  0  0  0  0  0
    8.1503  -16.6848   20.4973 O   0  0  0  0  0  0  0  0  0  0  0  0
    9.8047  -15.4821   21.5980 N   0  0  0  0  0  0  0  0  0  0  0  0
    9.9707  -16.4723   22.6834 C   0  0  1  0  0  0  0  0  0  0  0  0
   11.2117  -16.1091   23.4631 C   0  0  0  0  0  0  0  0  0  0  0  0
   12.4536  -16.4324   22.7510 C   0  0  0  0  0  0  0  0  0  0  0  0
   12.5399  -17.0736   21.5449 C   0  0  0  0  0  0  0  0  0  0  0  0
   13.8652  -17.1932   21.2578 N   0  0  0  0  0  0  0  0  0  0  0  0
   14.5975  -16.6470   22.2428 C   0  0  0  0  0  0  0  0  0  0  0  0
   13.6974  -16.1826   23.1563 N   0  0  0  0  0  0  0  0  0  0  0  0
    8.8124  -16.2028   23.6120 C   0  0  0  0  0  0  0  0  0  0  0  0
    8.5558  -17.0973   24.6714 O   0  0  0  0  0  0  0  0  0  0  0  0
    8.0531  -15.2299   23.5077 O   0  0  0  0  0  0  0  0  0  0  0  0
  2  3  2  0
  2  1  1  0
  4  3  1  0
  5  4  2  0
  6  5  1  0
  7  6  1  0
  7  8  1  1
  9  7  1  0
  9 10  2  0
 11  5  1  0
 11 12  2  0
 12  2  1  0
 14 16  1  0
 14 13  1  6
 15 14  1  0
 16 17  1  6
 17  9  1  0
 18 16  1  0
 19 18  2  0
 20 18  1  0
 21 20  1  0
 21 22  1  1
 23 24  2  0
 23 22  1  0
 25 24  1  0
 26 27  2  0
 26 25  1  0
 27 23  1  0
 28 21  1  0
 28 29  1  0
 30 28  2  0
M  END
$$$$
