YVH.pdb
     RDKit          3D

 30 31  0  0  1  0  0  0  0  0999 V2000
    8.5898  -21.2075   30.9006 O   0  0  0  0  0  0  0  0  0  0  0  0
    8.5093  -20.6125   29.6422 C   0  0  0  0  0  0  0  0  0  0  0  0
    8.7021  -19.2671   29.5170 C   0  0  0  0  0  0  0  0  0  0  0  0
    8.6469  -18.5849   28.3256 C   0  0  0  0  0  0  0  0  0  0  0  0
    8.3788  -19.3193   27.1817 C   0  0  0  0  0  0  0  0  0  0  0  0
    8.3306  -18.5572   25.8913 C   0  0  0  0  0  0  0  0  0  0  0  0
    6.9280  -18.0939   25.7023 C   0  0  2  0  0  0  0  0  0  0  0  0
    6.0039  -18.9983   25.1108 N   0  0  0  0  0  0  0  0  0  0  0  0
    6.8932  -16.7620   24.9892 C   0  0  0  0  0  0  0  0  0  0  0  0
    6.6705  -16.6814   23.7463 O   0  0  0  0  0  0  0  0  0  0  0  0
    8.1816  -20.6679   27.2732 C   0  0  0  0  0  0  0  0  0  0  0  0
    8.2419  -21.3292   28.4924 C   0  0  0  0  0  0  0  0  0  0  0  0
    7.5106  -12.6282   26.8305 C   0  0  0  0  0  0  0  0  0  0  0  0
    6.7571  -13.1189   25.5918 C   0  0  2  0  0  0  0  0  0  0  0  0
    5.2954  -13.3886   25.9429 C   0  0  0  0  0  0  0  0  0  0  0  0
    7.3924  -14.3144   24.9927 C   0  0  2  0  0  0  0  0  0  0  0  0
    7.1210  -15.5496   25.7017 N   0  0  0  0  0  0  0  0  0  0  0  0
    8.8658  -14.1306   24.7429 C   0  0  0  0  0  0  0  0  0  0  0  0
    9.4964  -13.1212   25.1483 O   0  0  0  0  0  0  0  0  0  0  0  0
    9.5311  -15.1536   24.0243 N   0  0  0  0  0  0  0  0  0  0  0  0
   10.9946  -15.3506   24.0992 C   0  0  1  0  0  0  0  0  0  0  0  0
   11.2914  -16.2007   25.3113 C   0  0  0  0  0  0  0  0  0  0  0  0
   11.1144  -15.4794   26.5771 C   0  0  0  0  0  0  0  0  0  0  0  0
   11.1407  -14.1199   26.7330 C   0  0  0  0  0  0  0  0  0  0  0  0
   10.9604  -13.8734   28.0597 N   0  0  0  0  0  0  0  0  0  0  0  0
   10.8221  -15.0320   28.7254 C   0  0  0  0  0  0  0  0  0  0  0  0
   10.9217  -16.0124   27.7823 N   0  0  0  0  0  0  0  0  0  0  0  0
   11.3141  -16.2167   22.9057 C   0  0  0  0  0  0  0  0  0  0  0  0
   12.6621  -16.4775   22.5845 O   0  0  0  0  0  0  0  0  0  0  0  0
   10.4573  -16.7263   22.1707 O   0  0  0  0  0  0  0  0  0  0  0  0
  2  3  2  0
  2  1  1  0
  4  3  1  0
  5  4  2  0
  6  5  1  0
  7  6  1  0
  7  8  1  6
  9  7  1  0
  9 10  2  0
 11  5  1  0
 11 12  2  0
 12  2  1  0
 14 16  1  0
 14 13  1  1
 15 14  1  0
 16 17  1  1
 17  9  1  0
 18 16  1  0
 19 18  2  0
 20 18  1  0
 21 20  1  0
 21 22  1  1
 23 24  2  0
 23 22  1  0
 25 24  1  0
 26 27  2  0
 26 25  1  0
 27 23  1  0
 28 21  1  0
 28 29  1  0
 30 28  2  0
M  END
$$$$
