YVH.pdb
     RDKit          3D

 30 31  0  0  1  0  0  0  0  0999 V2000
    7.3614  -13.5825   15.2213 O   0  0  0  0  0  0  0  0  0  0  0  0
    7.5038  -13.5840   16.6083 C   0  0  0  0  0  0  0  0  0  0  0  0
    6.9738  -14.6063   17.3412 C   0  0  0  0  0  0  0  0  0  0  0  0
    7.0602  -14.7038   18.7089 C   0  0  0  0  0  0  0  0  0  0  0  0
    7.7321  -13.6944   19.3794 C   0  0  0  0  0  0  0  0  0  0  0  0
    7.8217  -13.8238   20.8706 C   0  0  0  0  0  0  0  0  0  0  0  0
    8.8163  -14.8926   21.1636 C   0  0  2  0  0  0  0  0  0  0  0  0
    8.6004  -16.1760   20.5908 N   0  0  0  0  0  0  0  0  0  0  0  0
    9.0548  -15.0119   22.6512 C   0  0  0  0  0  0  0  0  0  0  0  0
    9.4674  -14.0318   23.3368 O   0  0  0  0  0  0  0  0  0  0  0  0
    8.2745  -12.6576   18.6747 C   0  0  0  0  0  0  0  0  0  0  0  0
    8.1692  -12.5856   17.2923 C   0  0  0  0  0  0  0  0  0  0  0  0
    6.7250  -15.7486   25.3300 C   0  0  0  0  0  0  0  0  0  0  0  0
    7.8797  -16.7302   25.5450 C   0  0  2  0  0  0  0  0  0  0  0  0
    8.2137  -16.8254   27.0322 C   0  0  0  0  0  0  0  0  0  0  0  0
    9.0745  -16.3646   24.7510 C   0  0  2  0  0  0  0  0  0  0  0  0
    8.8280  -16.2450   23.3273 N   0  0  0  0  0  0  0  0  0  0  0  0
   10.2594  -17.2489   25.0363 C   0  0  0  0  0  0  0  0  0  0  0  0
   10.5801  -17.5885   26.2036 O   0  0  0  0  0  0  0  0  0  0  0  0
   11.0135  -17.6961   23.9242 N   0  0  0  0  0  0  0  0  0  0  0  0
   12.1737  -18.6017   24.0668 C   0  0  1  0  0  0  0  0  0  0  0  0
   12.5856  -19.0561   22.6870 C   0  0  0  0  0  0  0  0  0  0  0  0
   11.5279  -19.7915   21.9839 C   0  0  0  0  0  0  0  0  0  0  0  0
   10.6356  -20.6545   22.5603 C   0  0  0  0  0  0  0  0  0  0  0  0
    9.8492  -21.1336   21.5576 N   0  0  0  0  0  0  0  0  0  0  0  0
   10.2242  -20.5950   20.3854 C   0  0  0  0  0  0  0  0  0  0  0  0
   11.2673  -19.7663   20.6781 N   0  0  0  0  0  0  0  0  0  0  0  0
   13.2870  -17.7053   24.5501 C   0  0  0  0  0  0  0  0  0  0  0  0
   14.5675  -18.2538   24.7691 O   0  0  0  0  0  0  0  0  0  0  0  0
   13.1535  -16.4945   24.7739 O   0  0  0  0  0  0  0  0  0  0  0  0
  2  3  2  0
  2  1  1  0
  4  3  1  0
  5  4  2  0
  6  5  1  0
  7  6  1  0
  7  8  1  1
  9  7  1  0
  9 10  2  0
 11  5  1  0
 11 12  2  0
 12  2  1  0
 14 16  1  0
 14 13  1  1
 15 14  1  0
 16 17  1  6
 17  9  1  0
 18 16  1  0
 19 18  2  0
 20 18  1  0
 21 20  1  0
 21 22  1  6
 23 24  2  0
 23 22  1  0
 25 24  1  0
 26 27  2  0
 26 25  1  0
 27 23  1  0
 28 21  1  0
 28 29  1  0
 30 28  2  0
M  END
$$$$
