YVH.pdb
     RDKit          3D

 30 31  0  0  1  0  0  0  0  0999 V2000
    8.1465  -12.0199   17.1369 O   0  0  0  0  0  0  0  0  0  0  0  0
    7.9614  -12.7034   18.3380 C   0  0  0  0  0  0  0  0  0  0  0  0
    9.0144  -12.8697   19.1904 C   0  0  0  0  0  0  0  0  0  0  0  0
    8.9381  -13.5236   20.3963 C   0  0  0  0  0  0  0  0  0  0  0  0
    7.7074  -14.0440   20.7632 C   0  0  0  0  0  0  0  0  0  0  0  0
    7.6439  -14.7470   22.0861 C   0  0  0  0  0  0  0  0  0  0  0  0
    7.8251  -16.2016   21.8241 C   0  0  2  0  0  0  0  0  0  0  0  0
    6.7037  -16.9357   21.3493 N   0  0  0  0  0  0  0  0  0  0  0  0
    8.4391  -16.8910   23.0206 C   0  0  0  0  0  0  0  0  0  0  0  0
    7.7377  -17.2504   24.0104 O   0  0  0  0  0  0  0  0  0  0  0  0
    6.6336  -13.8939   19.9324 C   0  0  0  0  0  0  0  0  0  0  0  0
    6.7423  -13.2292   18.7184 C   0  0  0  0  0  0  0  0  0  0  0  0
   12.2541  -19.1938   25.1977 C   0  0  0  0  0  0  0  0  0  0  0  0
   11.6723  -18.5408   23.9414 C   0  0  2  0  0  0  0  0  0  0  0  0
   12.7217  -17.6466   23.2844 C   0  0  0  0  0  0  0  0  0  0  0  0
   10.4324  -17.7858   24.2314 C   0  0  2  0  0  0  0  0  0  0  0  0
    9.8390  -17.1499   23.0713 N   0  0  0  0  0  0  0  0  0  0  0  0
   10.5905  -16.8181   25.3741 C   0  0  0  0  0  0  0  0  0  0  0  0
   11.2342  -15.7438   25.2620 O   0  0  0  0  0  0  0  0  0  0  0  0
    9.9759  -17.1637   26.6022 N   0  0  0  0  0  0  0  0  0  0  0  0
   10.0002  -16.2690   27.7791 C   0  0  1  0  0  0  0  0  0  0  0  0
    8.5727  -15.9808   28.1780 C   0  0  0  0  0  0  0  0  0  0  0  0
    7.8864  -15.0775   27.2469 C   0  0  0  0  0  0  0  0  0  0  0  0
    8.4909  -14.1562   26.4351 C   0  0  0  0  0  0  0  0  0  0  0  0
    7.4974  -13.5184   25.7574 N   0  0  0  0  0  0  0  0  0  0  0  0
    6.3035  -14.0154   26.1215 C   0  0  0  0  0  0  0  0  0  0  0  0
    6.5734  -14.9809   27.0463 N   0  0  0  0  0  0  0  0  0  0  0  0
   10.5674  -17.1252   28.8845 C   0  0  0  0  0  0  0  0  0  0  0  0
   10.8839  -18.4733   28.6186 O   0  0  0  0  0  0  0  0  0  0  0  0
   10.7793  -16.7194   30.0354 O   0  0  0  0  0  0  0  0  0  0  0  0
  2  3  2  0
  2  1  1  0
  4  3  1  0
  5  4  2  0
  6  5  1  0
  7  6  1  0
  7  8  1  1
  9  7  1  0
  9 10  2  0
 11  5  1  0
 11 12  2  0
 12  2  1  0
 14 16  1  0
 14 13  1  1
 15 14  1  0
 16 17  1  6
 17  9  1  0
 18 16  1  0
 19 18  2  0
 20 18  1  0
 21 20  1  0
 21 22  1  1
 23 24  2  0
 23 22  1  0
 25 24  1  0
 26 27  2  0
 26 25  1  0
 27 23  1  0
 28 21  1  0
 28 29  1  0
 30 28  2  0
M  END
$$$$
