YVH.pdb
     RDKit          3D

 30 31  0  0  1  0  0  0  0  0999 V2000
    8.0770  -12.9547   16.4396 O   0  0  0  0  0  0  0  0  0  0  0  0
    8.0179  -13.3674   17.7701 C   0  0  0  0  0  0  0  0  0  0  0  0
    9.1390  -13.8552   18.3770 C   0  0  0  0  0  0  0  0  0  0  0  0
    9.1882  -14.2851   19.6810 C   0  0  0  0  0  0  0  0  0  0  0  0
    8.0189  -14.2138   20.4209 C   0  0  0  0  0  0  0  0  0  0  0  0
    8.0959  -14.6805   21.8438 C   0  0  0  0  0  0  0  0  0  0  0  0
    8.1362  -16.1689   21.8203 C   0  0  2  0  0  0  0  0  0  0  0  0
    6.9992  -16.8562   21.3138 N   0  0  0  0  0  0  0  0  0  0  0  0
    8.5250  -16.7176   23.1737 C   0  0  0  0  0  0  0  0  0  0  0  0
    7.6558  -17.0012   24.0484 O   0  0  0  0  0  0  0  0  0  0  0  0
    6.8798  -13.7298   19.8427 C   0  0  0  0  0  0  0  0  0  0  0  0
    6.8608  -13.3043   18.5213 C   0  0  0  0  0  0  0  0  0  0  0  0
   10.7160  -19.7256   23.9558 C   0  0  0  0  0  0  0  0  0  0  0  0
   11.2339  -18.5467   24.7835 C   0  0  2  0  0  0  0  0  0  0  0  0
   11.5853  -19.0140   26.1944 C   0  0  0  0  0  0  0  0  0  0  0  0
   10.2686  -17.4248   24.8167 C   0  0  2  0  0  0  0  0  0  0  0  0
    9.8941  -16.9243   23.5085 N   0  0  0  0  0  0  0  0  0  0  0  0
   10.6976  -16.3109   25.7346 C   0  0  0  0  0  0  0  0  0  0  0  0
   11.7734  -15.6810   25.5712 O   0  0  0  0  0  0  0  0  0  0  0  0
    9.8311  -15.9887   26.8073 N   0  0  0  0  0  0  0  0  0  0  0  0
   10.1463  -14.9288   27.7889 C   0  0  1  0  0  0  0  0  0  0  0  0
    8.8447  -14.3330   28.2693 C   0  0  0  0  0  0  0  0  0  0  0  0
    8.1536  -13.5523   27.2365 C   0  0  0  0  0  0  0  0  0  0  0  0
    8.6625  -13.2218   26.0097 C   0  0  0  0  0  0  0  0  0  0  0  0
    7.7128  -12.4789   25.3779 N   0  0  0  0  0  0  0  0  0  0  0  0
    6.6371  -12.3418   26.1709 C   0  0  0  0  0  0  0  0  0  0  0  0
    6.9368  -13.0170   27.3175 N   0  0  0  0  0  0  0  0  0  0  0  0
   10.7141  -15.6749   28.9711 C   0  0  0  0  0  0  0  0  0  0  0  0
   11.4327  -14.9639   29.9542 O   0  0  0  0  0  0  0  0  0  0  0  0
   10.5918  -16.8952   29.1436 O   0  0  0  0  0  0  0  0  0  0  0  0
  2  3  2  0
  2  1  1  0
  4  3  1  0
  5  4  2  0
  6  5  1  0
  7  6  1  0
  7  8  1  1
  9  7  1  0
  9 10  2  0
 11  5  1  0
 11 12  2  0
 12  2  1  0
 14 16  1  0
 14 13  1  6
 15 14  1  0
 16 17  1  6
 17  9  1  0
 18 16  1  0
 19 18  2  0
 20 18  1  0
 21 20  1  0
 21 22  1  1
 23 24  2  0
 23 22  1  0
 25 24  1  0
 26 27  2  0
 26 25  1  0
 27 23  1  0
 28 21  1  0
 28 29  1  0
 30 28  2  0
M  END
$$$$
