YVH.pdb
     RDKit          3D

 30 31  0  0  1  0  0  0  0  0999 V2000
    7.4933  -12.4672   16.5865 O   0  0  0  0  0  0  0  0  0  0  0  0
    7.5872  -13.0088   17.8679 C   0  0  0  0  0  0  0  0  0  0  0  0
    6.5669  -13.7735   18.3551 C   0  0  0  0  0  0  0  0  0  0  0  0
    6.5612  -14.3541   19.6003 C   0  0  0  0  0  0  0  0  0  0  0  0
    7.6684  -14.1451   20.4067 C   0  0  0  0  0  0  0  0  0  0  0  0
    7.6457  -14.7936   21.7585 C   0  0  0  0  0  0  0  0  0  0  0  0
    8.3598  -16.0947   21.6378 C   0  0  2  0  0  0  0  0  0  0  0  0
    7.7683  -17.1046   20.8302 N   0  0  0  0  0  0  0  0  0  0  0  0
    8.7076  -16.6457   23.0014 C   0  0  0  0  0  0  0  0  0  0  0  0
    7.8445  -17.2273   23.7209 O   0  0  0  0  0  0  0  0  0  0  0  0
    8.7066  -13.3850   19.9482 C   0  0  0  0  0  0  0  0  0  0  0  0
    8.6825  -12.8095   18.6850 C   0  0  0  0  0  0  0  0  0  0  0  0
   12.7174  -17.5897   24.3085 C   0  0  0  0  0  0  0  0  0  0  0  0
   11.3768  -18.0736   24.8667 C   0  0  2  0  0  0  0  0  0  0  0  0
   10.9057  -19.3062   24.0977 C   0  0  0  0  0  0  0  0  0  0  0  0
   10.3501  -17.0073   24.8483 C   0  0  2  0  0  0  0  0  0  0  0  0
   10.0269  -16.5165   23.5229 N   0  0  0  0  0  0  0  0  0  0  0  0
   10.6607  -15.8797   25.7967 C   0  0  0  0  0  0  0  0  0  0  0  0
   11.3133  -14.8644   25.4443 O   0  0  0  0  0  0  0  0  0  0  0  0
   10.1820  -16.0022   27.1238 N   0  0  0  0  0  0  0  0  0  0  0  0
   10.3378  -14.9248   28.1244 C   0  0  1  0  0  0  0  0  0  0  0  0
    8.9680  -14.5785   28.6570 C   0  0  0  0  0  0  0  0  0  0  0  0
    8.1314  -13.8743   27.6783 C   0  0  0  0  0  0  0  0  0  0  0  0
    8.5338  -13.4501   26.4408 C   0  0  0  0  0  0  0  0  0  0  0  0
    7.4649  -12.8275   25.8725 N   0  0  0  0  0  0  0  0  0  0  0  0
    6.4187  -12.8549   26.7149 C   0  0  0  0  0  0  0  0  0  0  0  0
    6.8591  -13.5099   27.8273 N   0  0  0  0  0  0  0  0  0  0  0  0
   11.0658  -15.5844   29.2697 C   0  0  0  0  0  0  0  0  0  0  0  0
   11.3332  -16.9676   29.2111 O   0  0  0  0  0  0  0  0  0  0  0  0
   11.4537  -14.9841   30.2812 O   0  0  0  0  0  0  0  0  0  0  0  0
  2  3  2  0
  2  1  1  0
  4  3  1  0
  5  4  2  0
  6  5  1  0
  7  6  1  0
  7  8  1  1
  9  7  1  0
  9 10  2  0
 11  5  1  0
 11 12  2  0
 12  2  1  0
 14 16  1  0
 14 13  1  6
 15 14  1  0
 16 17  1  6
 17  9  1  0
 18 16  1  0
 19 18  2  0
 20 18  1  0
 21 20  1  0
 21 22  1  1
 23 24  2  0
 23 22  1  0
 25 24  1  0
 26 27  2  0
 26 25  1  0
 27 23  1  0
 28 21  1  0
 28 29  1  0
 30 28  2  0
M  END
$$$$
