YVH.pdb
     RDKit          3D

 30 31  0  0  1  0  0  0  0  0999 V2000
    8.8722  -12.8957   16.2668 O   0  0  0  0  0  0  0  0  0  0  0  0
    8.5803  -13.3476   17.5532 C   0  0  0  0  0  0  0  0  0  0  0  0
    7.3931  -13.0090   18.1355 C   0  0  0  0  0  0  0  0  0  0  0  0
    7.0084  -13.4031   19.3943 C   0  0  0  0  0  0  0  0  0  0  0  0
    7.8890  -14.1968   20.1114 C   0  0  0  0  0  0  0  0  0  0  0  0
    7.4468  -14.6223   21.4795 C   0  0  0  0  0  0  0  0  0  0  0  0
    6.8652  -15.9873   21.3527 C   0  0  2  0  0  0  0  0  0  0  0  0
    5.6540  -16.1278   20.6213 N   0  0  0  0  0  0  0  0  0  0  0  0
    6.7440  -16.6480   22.7065 C   0  0  0  0  0  0  0  0  0  0  0  0
    5.8476  -16.3076   23.5320 O   0  0  0  0  0  0  0  0  0  0  0  0
    9.0851  -14.5537   19.5565 C   0  0  0  0  0  0  0  0  0  0  0  0
    9.4469  -14.1381   18.2822 C   0  0  0  0  0  0  0  0  0  0  0  0
    8.6948  -20.4008   23.9434 C   0  0  0  0  0  0  0  0  0  0  0  0
    7.4891  -19.6661   24.5347 C   0  0  2  0  0  0  0  0  0  0  0  0
    6.2067  -20.1298   23.8470 C   0  0  0  0  0  0  0  0  0  0  0  0
    7.6390  -18.1957   24.4510 C   0  0  2  0  0  0  0  0  0  0  0  0
    7.6496  -17.6756   23.0977 N   0  0  0  0  0  0  0  0  0  0  0  0
    8.8047  -17.6799   25.2524 C   0  0  0  0  0  0  0  0  0  0  0  0
    9.9498  -17.5307   24.7551 O   0  0  0  0  0  0  0  0  0  0  0  0
    8.5631  -17.3600   26.6106 N   0  0  0  0  0  0  0  0  0  0  0  0
    9.6093  -16.7941   27.4890 C   0  0  1  0  0  0  0  0  0  0  0  0
    9.0327  -15.5844   28.1848 C   0  0  0  0  0  0  0  0  0  0  0  0
    9.9360  -15.0151   29.1917 C   0  0  0  0  0  0  0  0  0  0  0  0
    9.5532  -14.4087   30.3575 C   0  0  0  0  0  0  0  0  0  0  0  0
   10.6933  -14.0060   30.9832 N   0  0  0  0  0  0  0  0  0  0  0  0
   11.7637  -14.3445   30.2454 C   0  0  0  0  0  0  0  0  0  0  0  0
   11.2660  -14.9689   29.1396 N   0  0  0  0  0  0  0  0  0  0  0  0
    9.7926  -17.8350   28.5659 C   0  0  0  0  0  0  0  0  0  0  0  0
   11.0121  -17.8889   29.2718 O   0  0  0  0  0  0  0  0  0  0  0  0
    8.9289  -18.6649   28.8812 O   0  0  0  0  0  0  0  0  0  0  0  0
  2  3  2  0
  2  1  1  0
  4  3  1  0
  5  4  2  0
  6  5  1  0
  7  6  1  0
  7  8  1  1
  9  7  1  0
  9 10  2  0
 11  5  1  0
 11 12  2  0
 12  2  1  0
 14 16  1  0
 14 13  1  6
 15 14  1  0
 16 17  1  6
 17  9  1  0
 18 16  1  0
 19 18  2  0
 20 18  1  0
 21 20  1  0
 21 22  1  1
 23 24  2  0
 23 22  1  0
 25 24  1  0
 26 27  2  0
 26 25  1  0
 27 23  1  0
 28 21  1  0
 28 29  1  0
 30 28  2  0
M  END
$$$$
