YVH.pdb
     RDKit          3D

 30 31  0  0  1  0  0  0  0  0999 V2000
    7.7122  -11.8236   17.5762 O   0  0  0  0  0  0  0  0  0  0  0  0
    7.8165  -12.6097   18.7231 C   0  0  0  0  0  0  0  0  0  0  0  0
    9.0375  -12.8020   19.3021 C   0  0  0  0  0  0  0  0  0  0  0  0
    9.2482  -13.5546   20.4322 C   0  0  0  0  0  0  0  0  0  0  0  0
    8.1429  -14.1525   21.0158 C   0  0  0  0  0  0  0  0  0  0  0  0
    8.3933  -14.9629   22.2523 C   0  0  0  0  0  0  0  0  0  0  0  0
    8.7809  -16.3321   21.8136 C   0  0  2  0  0  0  0  0  0  0  0  0
    7.8901  -17.0311   20.9536 N   0  0  0  0  0  0  0  0  0  0  0  0
    9.1526  -17.1916   22.9998 C   0  0  0  0  0  0  0  0  0  0  0  0
    8.2919  -17.8957   23.6035 O   0  0  0  0  0  0  0  0  0  0  0  0
    6.9068  -13.9789   20.4609 C   0  0  0  0  0  0  0  0  0  0  0  0
    6.7256  -13.2136   19.3168 C   0  0  0  0  0  0  0  0  0  0  0  0
   13.0177  -18.8080   23.7359 C   0  0  0  0  0  0  0  0  0  0  0  0
   11.6775  -19.1918   24.3679 C   0  0  2  0  0  0  0  0  0  0  0  0
   10.9423  -20.1845   23.4699 C   0  0  0  0  0  0  0  0  0  0  0  0
   10.8383  -18.0062   24.6535 C   0  0  2  0  0  0  0  0  0  0  0  0
   10.4929  -17.2264   23.4811 N   0  0  0  0  0  0  0  0  0  0  0  0
   11.4022  -17.1405   25.7489 C   0  0  0  0  0  0  0  0  0  0  0  0
   12.3412  -16.3287   25.5489 O   0  0  0  0  0  0  0  0  0  0  0  0
   10.8268  -17.2719   27.0361 N   0  0  0  0  0  0  0  0  0  0  0  0
   11.2669  -16.4550   28.1874 C   0  0  1  0  0  0  0  0  0  0  0  0
   10.0588  -15.7399   28.7435 C   0  0  0  0  0  0  0  0  0  0  0  0
    9.5125  -14.7341   27.8249 C   0  0  0  0  0  0  0  0  0  0  0  0
   10.0494  -14.3790   26.6171 C   0  0  0  0  0  0  0  0  0  0  0  0
    9.2508  -13.4030   26.1043 N   0  0  0  0  0  0  0  0  0  0  0  0
    8.2409  -13.1461   26.9522 C   0  0  0  0  0  0  0  0  0  0  0  0
    8.4270  -13.9853   28.0111 N   0  0  0  0  0  0  0  0  0  0  0  0
   11.6579  -17.4691   29.2341 C   0  0  0  0  0  0  0  0  0  0  0  0
   11.4757  -18.8414   28.9661 O   0  0  0  0  0  0  0  0  0  0  0  0
   12.1381  -17.1755   30.3374 O   0  0  0  0  0  0  0  0  0  0  0  0
  2  3  2  0
  2  1  1  0
  4  3  1  0
  5  4  2  0
  6  5  1  0
  7  6  1  0
  7  8  1  1
  9  7  1  0
  9 10  2  0
 11  5  1  0
 11 12  2  0
 12  2  1  0
 14 16  1  0
 14 13  1  6
 15 14  1  0
 16 17  1  6
 17  9  1  0
 18 16  1  0
 19 18  2  0
 20 18  1  0
 21 20  1  0
 21 22  1  1
 23 24  2  0
 23 22  1  0
 25 24  1  0
 26 27  2  0
 26 25  1  0
 27 23  1  0
 28 21  1  0
 28 29  1  0
 30 28  2  0
M  END
$$$$
