YVH.pdb
     RDKit          3D

 30 31  0  0  1  0  0  0  0  0999 V2000
   16.6889  -16.9356   15.1499 O   0  0  0  0  0  0  0  0  0  0  0  0
   15.6733  -16.1960   15.7544 C   0  0  0  0  0  0  0  0  0  0  0  0
   15.9270  -15.5199   16.9127 C   0  0  0  0  0  0  0  0  0  0  0  0
   14.9994  -14.7620   17.5856 C   0  0  0  0  0  0  0  0  0  0  0  0
   13.7261  -14.6838   17.0448 C   0  0  0  0  0  0  0  0  0  0  0  0
   12.7311  -13.8455   17.7902 C   0  0  0  0  0  0  0  0  0  0  0  0
   11.9725  -14.7556   18.6922 C   0  0  2  0  0  0  0  0  0  0  0  0
   11.2614  -15.8357   18.1009 N   0  0  0  0  0  0  0  0  0  0  0  0
   11.0679  -13.9691   19.6126 C   0  0  0  0  0  0  0  0  0  0  0  0
   10.8845  -12.7267   19.4587 O   0  0  0  0  0  0  0  0  0  0  0  0
   13.4402  -15.3484   15.8861 C   0  0  0  0  0  0  0  0  0  0  0  0
   14.3988  -16.1083   15.2297 C   0  0  0  0  0  0  0  0  0  0  0  0
    7.2152  -14.4619   20.3511 C   0  0  0  0  0  0  0  0  0  0  0  0
    8.2639  -13.3851   20.6409 C   0  0  2  0  0  0  0  0  0  0  0  0
    8.7687  -12.7825   19.3315 C   0  0  0  0  0  0  0  0  0  0  0  0
    9.3841  -13.9061   21.4566 C   0  0  2  0  0  0  0  0  0  0  0  0
   10.3974  -14.6090   20.6944 N   0  0  0  0  0  0  0  0  0  0  0  0
    8.9200  -14.7140   22.6395 C   0  0  0  0  0  0  0  0  0  0  0  0
    8.0606  -14.2859   23.4514 O   0  0  0  0  0  0  0  0  0  0  0  0
    9.4930  -15.9978   22.8090 N   0  0  0  0  0  0  0  0  0  0  0  0
    9.1420  -16.8780   23.9441 C   0  0  1  0  0  0  0  0  0  0  0  0
    8.7243  -18.2176   23.3863 C   0  0  0  0  0  0  0  0  0  0  0  0
    7.4937  -18.1505   22.5895 C   0  0  0  0  0  0  0  0  0  0  0  0
    6.2719  -17.7288   23.0396 C   0  0  0  0  0  0  0  0  0  0  0  0
    5.4069  -17.8461   21.9949 N   0  0  0  0  0  0  0  0  0  0  0  0
    6.0528  -18.3229   20.9178 C   0  0  0  0  0  0  0  0  0  0  0  0
    7.3455  -18.5032   21.3138 N   0  0  0  0  0  0  0  0  0  0  0  0
   10.4556  -17.1203   24.6458 C   0  0  0  0  0  0  0  0  0  0  0  0
   10.4836  -17.9416   25.7917 O   0  0  0  0  0  0  0  0  0  0  0  0
   11.5359  -16.6379   24.2793 O   0  0  0  0  0  0  0  0  0  0  0  0
  2  3  2  0
  2  1  1  0
  4  3  1  0
  5  4  2  0
  6  5  1  0
  7  6  1  0
  7  8  1  6
  9  7  1  0
  9 10  2  0
 11  5  1  0
 11 12  2  0
 12  2  1  0
 14 16  1  0
 14 13  1  6
 15 14  1  0
 16 17  1  6
 17  9  1  0
 18 16  1  0
 19 18  2  0
 20 18  1  0
 21 20  1  0
 21 22  1  6
 23 24  2  0
 23 22  1  0
 25 24  1  0
 26 27  2  0
 26 25  1  0
 27 23  1  0
 28 21  1  0
 28 29  1  0
 30 28  2  0
M  END
$$$$
