YVH.pdb
     RDKit          3D

 30 31  0  0  1  0  0  0  0  0999 V2000
    6.1407  -10.8571   27.9912 O   0  0  0  0  0  0  0  0  0  0  0  0
    6.7586  -11.8097   27.1818 C   0  0  0  0  0  0  0  0  0  0  0  0
    6.1678  -12.1873   26.0107 C   0  0  0  0  0  0  0  0  0  0  0  0
    6.6931  -13.1133   25.1422 C   0  0  0  0  0  0  0  0  0  0  0  0
    7.9026  -13.6957   25.4855 C   0  0  0  0  0  0  0  0  0  0  0  0
    8.4624  -14.6978   24.5207 C   0  0  0  0  0  0  0  0  0  0  0  0
    7.3111  -15.4331   23.9278 C   0  0  2  0  0  0  0  0  0  0  0  0
    6.8079  -16.5599   24.6343 N   0  0  0  0  0  0  0  0  0  0  0  0
    7.5884  -15.7943   22.4868 C   0  0  0  0  0  0  0  0  0  0  0  0
    7.4269  -16.9730   22.0563 O   0  0  0  0  0  0  0  0  0  0  0  0
    8.5198  -13.3389   26.6507 C   0  0  0  0  0  0  0  0  0  0  0  0
    7.9629  -12.4008   27.5094 C   0  0  0  0  0  0  0  0  0  0  0  0
    8.5447  -12.8667   19.1012 C   0  0  0  0  0  0  0  0  0  0  0  0
    7.5486  -14.0128   19.2947 C   0  0  2  0  0  0  0  0  0  0  0  0
    6.2389  -13.4748   19.8673 C   0  0  0  0  0  0  0  0  0  0  0  0
    8.1011  -15.0911   20.1454 C   0  0  2  0  0  0  0  0  0  0  0  0
    8.0522  -14.8104   21.5669 N   0  0  0  0  0  0  0  0  0  0  0  0
    9.4751  -15.5306   19.7139 C   0  0  0  0  0  0  0  0  0  0  0  0
    9.7276  -15.8901   18.5358 O   0  0  0  0  0  0  0  0  0  0  0  0
   10.4937  -15.5232   20.6976 N   0  0  0  0  0  0  0  0  0  0  0  0
   11.9051  -15.8271   20.3784 C   0  0  1  0  0  0  0  0  0  0  0  0
   12.6644  -14.5231   20.3242 C   0  0  0  0  0  0  0  0  0  0  0  0
   14.0743  -14.6934   19.9543 C   0  0  0  0  0  0  0  0  0  0  0  0
   15.1464  -14.5144   20.7861 C   0  0  0  0  0  0  0  0  0  0  0  0
   16.2629  -14.7488   20.0435 N   0  0  0  0  0  0  0  0  0  0  0  0
   15.9166  -15.0675   18.7852 C   0  0  0  0  0  0  0  0  0  0  0  0
   14.5536  -15.0258   18.7569 N   0  0  0  0  0  0  0  0  0  0  0  0
   12.4160  -16.5458   21.6028 C   0  0  0  0  0  0  0  0  0  0  0  0
   13.6850  -17.1593   21.5624 O   0  0  0  0  0  0  0  0  0  0  0  0
   11.7859  -16.6380   22.6650 O   0  0  0  0  0  0  0  0  0  0  0  0
  2  3  2  0
  2  1  1  0
  4  3  1  0
  5  4  2  0
  6  5  1  0
  7  6  1  0
  7  8  1  1
  9  7  1  0
  9 10  2  0
 11  5  1  0
 11 12  2  0
 12  2  1  0
 14 16  1  0
 14 13  1  1
 15 14  1  0
 16 17  1  1
 17  9  1  0
 18 16  1  0
 19 18  2  0
 20 18  1  0
 21 20  1  0
 21 22  1  1
 23 24  2  0
 23 22  1  0
 25 24  1  0
 26 27  2  0
 26 25  1  0
 27 23  1  0
 28 21  1  0
 28 29  1  0
 30 28  2  0
M  END
$$$$
