YVH.pdb
     RDKit          3D

 30 31  0  0  1  0  0  0  0  0999 V2000
    5.2999  -10.4442   28.1738 O   0  0  0  0  0  0  0  0  0  0  0  0
    5.9311  -11.4266   27.4118 C   0  0  0  0  0  0  0  0  0  0  0  0
    7.2342  -11.7447   27.6645 C   0  0  0  0  0  0  0  0  0  0  0  0
    7.9461  -12.6967   26.9755 C   0  0  0  0  0  0  0  0  0  0  0  0
    7.2896  -13.3737   25.9604 C   0  0  0  0  0  0  0  0  0  0  0  0
    8.0818  -14.4137   25.2261 C   0  0  0  0  0  0  0  0  0  0  0  0
    7.1160  -15.4202   24.7049 C   0  0  2  0  0  0  0  0  0  0  0  0
    6.7787  -16.5151   25.5471 N   0  0  0  0  0  0  0  0  0  0  0  0
    7.5382  -15.9143   23.3405 C   0  0  0  0  0  0  0  0  0  0  0  0
    8.1035  -17.0359   23.1876 O   0  0  0  0  0  0  0  0  0  0  0  0
    5.9849  -13.0791   25.6830 C   0  0  0  0  0  0  0  0  0  0  0  0
    5.2921  -12.1100   26.3960 C   0  0  0  0  0  0  0  0  0  0  0  0
    8.2450  -14.9757   18.4871 C   0  0  0  0  0  0  0  0  0  0  0  0
    7.6798  -14.4970   19.8267 C   0  0  2  0  0  0  0  0  0  0  0  0
    8.2345  -13.1143   20.1630 C   0  0  0  0  0  0  0  0  0  0  0  0
    7.9472  -15.4603   20.9185 C   0  0  2  0  0  0  0  0  0  0  0  0
    7.3173  -15.1196   22.1791 N   0  0  0  0  0  0  0  0  0  0  0  0
    9.4136  -15.7544   21.0929 C   0  0  0  0  0  0  0  0  0  0  0  0
   10.1688  -15.0243   21.7840 O   0  0  0  0  0  0  0  0  0  0  0  0
    9.9232  -16.9043   20.4422 N   0  0  0  0  0  0  0  0  0  0  0  0
   11.3125  -17.3725   20.6343 C   0  0  1  0  0  0  0  0  0  0  0  0
   11.2696  -18.8472   20.9562 C   0  0  0  0  0  0  0  0  0  0  0  0
   10.8597  -19.1225   22.3382 C   0  0  0  0  0  0  0  0  0  0  0  0
   10.6749  -18.1860   23.3190 C   0  0  0  0  0  0  0  0  0  0  0  0
   10.3233  -18.8627   24.4467 N   0  0  0  0  0  0  0  0  0  0  0  0
   10.2834  -20.1817   24.1947 C   0  0  0  0  0  0  0  0  0  0  0  0
   10.6202  -20.3154   22.8798 N   0  0  0  0  0  0  0  0  0  0  0  0
   11.9309  -17.2727   19.2616 C   0  0  0  0  0  0  0  0  0  0  0  0
   13.3323  -17.1710   19.1428 O   0  0  0  0  0  0  0  0  0  0  0  0
   11.2807  -17.2733   18.2074 O   0  0  0  0  0  0  0  0  0  0  0  0
  2  3  2  0
  2  1  1  0
  4  3  1  0
  5  4  2  0
  6  5  1  0
  7  6  1  0
  7  8  1  1
  9  7  1  0
  9 10  2  0
 11  5  1  0
 11 12  2  0
 12  2  1  0
 14 16  1  0
 14 13  1  6
 15 14  1  0
 16 17  1  1
 17  9  1  0
 18 16  1  0
 19 18  2  0
 20 18  1  0
 21 20  1  0
 21 22  1  6
 23 24  2  0
 23 22  1  0
 25 24  1  0
 26 27  2  0
 26 25  1  0
 27 23  1  0
 28 21  1  0
 28 29  1  0
 30 28  2  0
M  END
$$$$
