QDK.pdb
     RDKit          3D

 27 26  0  0  1  0  0  0  0  0999 V2000
    9.5636  -13.6879   15.4037 N   0  0  0  0  0  0  0  0  0  0  0  0
    8.2880  -13.5901   16.0209 C   0  0  0  0  0  0  0  0  0  0  0  0
    7.2667  -13.9224   15.3414 O   0  0  0  0  0  0  0  0  0  0  0  0
    8.1763  -13.1076   17.4292 C   0  0  0  0  0  0  0  0  0  0  0  0
    7.6243  -14.1861   18.3315 C   0  0  0  0  0  0  0  0  0  0  0  0
    8.4309  -15.4396   18.3043 C   0  0  2  0  0  0  0  0  0  0  0  0
    8.0937  -16.3346   17.2433 N   0  0  0  0  0  0  0  0  0  0  0  0
    8.4826  -16.1408   19.5933 C   0  0  0  0  0  0  0  0  0  0  0  0
    7.4503  -16.7041   20.0190 O   0  0  0  0  0  0  0  0  0  0  0  0
    9.6748  -16.2069   20.3884 N   0  0  0  0  0  0  0  0  0  0  0  0
    9.7336  -16.8748   21.6530 C   0  0  1  0  0  0  0  0  0  0  0  0
   10.9086  -17.8221   21.6725 C   0  0  0  0  0  0  0  0  0  0  0  0
   10.9784  -18.6015   22.9280 C   0  0  0  0  0  0  0  0  0  0  0  0
    9.9914  -18.9018   23.6410 O   0  0  0  0  0  0  0  0  0  0  0  0
    9.8815  -15.9104   22.7754 C   0  0  0  0  0  0  0  0  0  0  0  0
   10.9135  -15.1795   22.8923 O   0  0  0  0  0  0  0  0  0  0  0  0
   12.2367  -19.0275   23.3381 O   0  0  0  0  0  0  0  0  0  0  0  0
    8.8799  -15.7934   23.7250 N   0  0  0  0  0  0  0  0  0  0  0  0
    9.0696  -14.8654   24.9435 C   0  0  1  0  0  0  0  0  0  0  0  0
    7.7854  -14.1680   25.1086 C   0  0  0  0  0  0  0  0  0  0  0  0
    7.4354  -13.2577   26.1826 C   0  0  0  0  0  0  0  0  0  0  0  0
    6.1606  -12.5407   26.2607 C   0  0  0  0  0  0  0  0  0  0  0  0
    6.0212  -11.6853   27.5171 C   0  0  0  0  0  0  0  0  0  0  0  0
    4.7794  -10.9516   27.5567 N   0  0  0  0  0  0  0  0  0  0  0  0
    9.3647  -15.8966   26.0085 C   0  0  0  0  0  0  0  0  0  0  0  0
    9.0056  -17.1906   26.0284 O   0  0  0  0  0  0  0  0  0  0  0  0
   10.0523  -15.5281   27.0552 O   0  0  0  0  0  0  0  0  0  0  0  0
  1  2  1  0
  2  4  1  0
  3  2  2  0
  4  5  1  0
  6  7  1  6
  6  5  1  0
  8  6  1  0
  8  9  2  0
 10 11  1  0
 10  8  1  0
 11 15  1  0
 11 12  1  6
 13 12  1  0
 13 17  1  0
 14 13  2  0
 15 18  1  0
 15 16  2  0
 18 19  1  0
 19 20  1  1
 20 21  1  0
 21 22  1  0
 22 23  1  0
 23 24  1  0
 25 26  1  0
 25 19  1  0
 27 25  2  0
M  END
$$$$
