QDK.pdb
     RDKit          3D

 27 26  0  0  1  0  0  0  0  0999 V2000
    8.7719  -11.8239   19.3081 N   0  0  0  0  0  0  0  0  0  0  0  0
    9.3284  -13.1119   19.0863 C   0  0  0  0  0  0  0  0  0  0  0  0
   10.4961  -13.1824   18.5896 O   0  0  0  0  0  0  0  0  0  0  0  0
    8.5438  -14.3330   19.4350 C   0  0  0  0  0  0  0  0  0  0  0  0
    9.1582  -15.0572   20.6098 C   0  0  0  0  0  0  0  0  0  0  0  0
    8.7108  -16.4750   20.7208 C   0  0  2  0  0  0  0  0  0  0  0  0
    7.6198  -16.8175   19.8647 N   0  0  0  0  0  0  0  0  0  0  0  0
    8.4604  -16.9128   22.0998 C   0  0  0  0  0  0  0  0  0  0  0  0
    7.5493  -17.7417   22.3168 O   0  0  0  0  0  0  0  0  0  0  0  0
    9.2220  -16.4265   23.2140 N   0  0  0  0  0  0  0  0  0  0  0  0
    9.6952  -17.2745   24.2655 C   0  0  1  0  0  0  0  0  0  0  0  0
   10.6636  -18.2870   23.7039 C   0  0  0  0  0  0  0  0  0  0  0  0
   11.2282  -19.1637   24.7534 C   0  0  0  0  0  0  0  0  0  0  0  0
   12.4336  -19.1836   25.0987 O   0  0  0  0  0  0  0  0  0  0  0  0
   10.3844  -16.4960   25.3287 C   0  0  0  0  0  0  0  0  0  0  0  0
   10.9179  -17.0662   26.3303 O   0  0  0  0  0  0  0  0  0  0  0  0
   10.3477  -20.0253   25.3980 O   0  0  0  0  0  0  0  0  0  0  0  0
   10.4558  -15.1155   25.2408 N   0  0  0  0  0  0  0  0  0  0  0  0
   10.0851  -14.2398   26.4564 C   0  0  1  0  0  0  0  0  0  0  0  0
    8.6748  -13.8723   26.2592 C   0  0  0  0  0  0  0  0  0  0  0  0
    7.9328  -12.8810   27.0149 C   0  0  0  0  0  0  0  0  0  0  0  0
    6.5261  -12.5544   26.7703 C   0  0  0  0  0  0  0  0  0  0  0  0
    6.0188  -11.3864   27.6119 C   0  0  0  0  0  0  0  0  0  0  0  0
    4.6521  -11.0351   27.3111 N   0  0  0  0  0  0  0  0  0  0  0  0
   10.3245  -15.2324   27.5709 C   0  0  0  0  0  0  0  0  0  0  0  0
   10.5025  -16.5600   27.4715 O   0  0  0  0  0  0  0  0  0  0  0  0
   10.3738  -14.7882   28.7974 O   0  0  0  0  0  0  0  0  0  0  0  0
  1  2  1  0
  2  4  1  0
  3  2  2  0
  4  5  1  0
  6  7  1  6
  6  5  1  0
  8  6  1  0
  8  9  2  0
 10 11  1  0
 10  8  1  0
 11 15  1  0
 11 12  1  6
 13 12  1  0
 13 17  1  0
 14 13  2  0
 15 18  1  0
 15 16  2  0
 18 19  1  0
 19 20  1  6
 20 21  1  0
 21 22  1  0
 22 23  1  0
 23 24  1  0
 25 26  1  0
 25 19  1  0
 27 25  2  0
M  END
$$$$
