QDK.pdb
     RDKit          3D

 27 26  0  0  1  0  0  0  0  0999 V2000
   15.6691  -13.2996   18.2301 N   0  0  0  0  0  0  0  0  0  0  0  0
   14.4548  -13.8410   17.7299 C   0  0  0  0  0  0  0  0  0  0  0  0
   13.8738  -13.2306   16.7786 O   0  0  0  0  0  0  0  0  0  0  0  0
   13.8973  -15.0929   18.3218 C   0  0  0  0  0  0  0  0  0  0  0  0
   14.7909  -15.6203   19.4197 C   0  0  0  0  0  0  0  0  0  0  0  0
   14.2326  -16.8241   20.0993 C   0  0  2  0  0  0  0  0  0  0  0  0
   14.0640  -17.9575   19.2463 N   0  0  0  0  0  0  0  0  0  0  0  0
   13.0141  -16.5575   20.8740 C   0  0  0  0  0  0  0  0  0  0  0  0
   12.8962  -15.4587   21.4597 O   0  0  0  0  0  0  0  0  0  0  0  0
   11.9476  -17.5103   20.9869 N   0  0  0  0  0  0  0  0  0  0  0  0
   10.7648  -17.2703   21.7562 C   0  0  1  0  0  0  0  0  0  0  0  0
    9.7453  -18.3455   21.4684 C   0  0  0  0  0  0  0  0  0  0  0  0
    9.2532  -18.2915   20.0741 C   0  0  0  0  0  0  0  0  0  0  0  0
    8.5783  -17.3529   19.5882 O   0  0  0  0  0  0  0  0  0  0  0  0
   11.0520  -17.2657   23.2154 C   0  0  0  0  0  0  0  0  0  0  0  0
   11.9830  -17.9724   23.7121 O   0  0  0  0  0  0  0  0  0  0  0  0
    9.5686  -19.3665   19.2508 O   0  0  0  0  0  0  0  0  0  0  0  0
   10.2961  -16.4779   24.0680 N   0  0  0  0  0  0  0  0  0  0  0  0
   10.6099  -16.4463   25.5787 C   0  0  1  0  0  0  0  0  0  0  0  0
    9.8013  -15.3454   26.1240 C   0  0  0  0  0  0  0  0  0  0  0  0
    9.6182  -15.0293   27.5279 C   0  0  0  0  0  0  0  0  0  0  0  0
   10.5357  -14.1890   28.3008 C   0  0  0  0  0  0  0  0  0  0  0  0
   10.1067  -13.9982   29.7531 C   0  0  0  0  0  0  0  0  0  0  0  0
   11.0334  -13.1882   30.5061 N   0  0  0  0  0  0  0  0  0  0  0  0
   10.1340  -17.8268   25.9690 C   0  0  0  0  0  0  0  0  0  0  0  0
   10.6398  -18.6403   26.9105 O   0  0  0  0  0  0  0  0  0  0  0  0
    9.1060  -18.3293   25.3407 O   0  0  0  0  0  0  0  0  0  0  0  0
  1  2  1  0
  2  4  1  0
  3  2  2  0
  4  5  1  0
  6  7  1  6
  6  5  1  0
  8  6  1  0
  8  9  2  0
 10 11  1  0
 10  8  1  0
 11 15  1  0
 11 12  1  1
 13 12  1  0
 13 17  1  0
 14 13  2  0
 15 18  1  0
 15 16  2  0
 18 19  1  0
 19 20  1  1
 20 21  1  0
 21 22  1  0
 22 23  1  0
 23 24  1  0
 25 26  1  0
 25 19  1  0
 27 25  2  0
M  END
$$$$
