QDK.pdb
     RDKit          3D

 27 26  0  0  1  0  0  0  0  0999 V2000
    8.0849  -12.5104   17.2403 N   0  0  0  0  0  0  0  0  0  0  0  0
    8.4089  -12.9381   18.5556 C   0  0  0  0  0  0  0  0  0  0  0  0
    9.6241  -13.2027   18.8172 O   0  0  0  0  0  0  0  0  0  0  0  0
    7.3342  -13.0654   19.5839 C   0  0  0  0  0  0  0  0  0  0  0  0
    7.8055  -13.8809   20.7650 C   0  0  0  0  0  0  0  0  0  0  0  0
    7.7602  -15.3501   20.5155 C   0  0  2  0  0  0  0  0  0  0  0  0
    6.4909  -15.8340   20.0735 N   0  0  0  0  0  0  0  0  0  0  0  0
    8.2777  -16.1577   21.6272 C   0  0  0  0  0  0  0  0  0  0  0  0
    7.4678  -16.7118   22.4026 O   0  0  0  0  0  0  0  0  0  0  0  0
    9.6814  -16.3386   21.8613 N   0  0  0  0  0  0  0  0  0  0  0  0
   10.1984  -17.0785   22.9721 C   0  0  1  0  0  0  0  0  0  0  0  0
   11.5659  -17.6183   22.6300 C   0  0  0  0  0  0  0  0  0  0  0  0
   12.0882  -18.5240   23.6768 C   0  0  0  0  0  0  0  0  0  0  0  0
   11.4470  -18.8948   24.6888 O   0  0  0  0  0  0  0  0  0  0  0  0
   10.3123  -16.2315   24.1891 C   0  0  0  0  0  0  0  0  0  0  0  0
   11.1767  -15.3051   24.2760 O   0  0  0  0  0  0  0  0  0  0  0  0
   13.3872  -18.9927   23.5162 O   0  0  0  0  0  0  0  0  0  0  0  0
    9.4636  -16.4439   25.2631 N   0  0  0  0  0  0  0  0  0  0  0  0
    9.4930  -15.4905   26.4764 C   0  0  1  0  0  0  0  0  0  0  0  0
    8.1930  -14.8028   26.4659 C   0  0  0  0  0  0  0  0  0  0  0  0
    7.9497  -13.4345   26.0497 C   0  0  0  0  0  0  0  0  0  0  0  0
    6.7497  -12.6747   26.4073 C   0  0  0  0  0  0  0  0  0  0  0  0
    6.7137  -11.2751   25.7996 C   0  0  0  0  0  0  0  0  0  0  0  0
    5.4897  -10.5706   26.0949 N   0  0  0  0  0  0  0  0  0  0  0  0
    9.6604  -16.4978   27.5909 C   0  0  0  0  0  0  0  0  0  0  0  0
   10.1604  -16.2946   28.8208 O   0  0  0  0  0  0  0  0  0  0  0  0
    9.2841  -17.7292   27.3758 O   0  0  0  0  0  0  0  0  0  0  0  0
  1  2  1  0
  2  4  1  0
  3  2  2  0
  4  5  1  0
  6  7  1  1
  6  5  1  0
  8  6  1  0
  8  9  2  0
 10 11  1  0
 10  8  1  0
 11 15  1  0
 11 12  1  6
 13 12  1  0
 13 17  1  0
 14 13  2  0
 15 18  1  0
 15 16  2  0
 18 19  1  0
 19 20  1  1
 20 21  1  0
 21 22  1  0
 22 23  1  0
 23 24  1  0
 25 26  1  0
 25 19  1  0
 27 25  2  0
M  END
$$$$
