QDK.pdb
     RDKit          3D

 27 26  0  0  1  0  0  0  0  0999 V2000
    9.5956  -23.0242   17.5258 N   0  0  0  0  0  0  0  0  0  0  0  0
   10.0487  -21.6854   17.3838 C   0  0  0  0  0  0  0  0  0  0  0  0
   10.4138  -21.2958   16.2305 O   0  0  0  0  0  0  0  0  0  0  0  0
   10.0859  -20.7812   18.5709 C   0  0  0  0  0  0  0  0  0  0  0  0
    9.6222  -21.4994   19.8164 C   0  0  0  0  0  0  0  0  0  0  0  0
    9.6768  -20.6456   21.0374 C   0  0  2  0  0  0  0  0  0  0  0  0
    9.7463  -19.2434   20.7735 N   0  0  0  0  0  0  0  0  0  0  0  0
   10.7041  -21.0550   22.0032 C   0  0  0  0  0  0  0  0  0  0  0  0
   10.7175  -22.2378   22.4094 O   0  0  0  0  0  0  0  0  0  0  0  0
   11.6985  -20.1494   22.5024 N   0  0  0  0  0  0  0  0  0  0  0  0
   12.6377  -20.5062   23.5217 C   0  0  1  0  0  0  0  0  0  0  0  0
   13.9280  -19.7524   23.3092 C   0  0  0  0  0  0  0  0  0  0  0  0
   14.6837  -20.2544   22.1405 C   0  0  0  0  0  0  0  0  0  0  0  0
   14.7163  -21.4516   21.7686 O   0  0  0  0  0  0  0  0  0  0  0  0
   12.1197  -20.1891   24.8792 C   0  0  0  0  0  0  0  0  0  0  0  0
   11.4644  -19.1258   25.1091 O   0  0  0  0  0  0  0  0  0  0  0  0
   15.4077  -19.3207   21.4078 O   0  0  0  0  0  0  0  0  0  0  0  0
   12.3481  -21.0627   25.9296 N   0  0  0  0  0  0  0  0  0  0  0  0
   11.7909  -20.7504   27.3346 C   0  0  1  0  0  0  0  0  0  0  0  0
   11.2430  -22.0220   27.8304 C   0  0  0  0  0  0  0  0  0  0  0  0
   10.7125  -22.2679   29.1580 C   0  0  0  0  0  0  0  0  0  0  0  0
   10.2207  -23.5711   29.6109 C   0  0  0  0  0  0  0  0  0  0  0  0
    9.8526  -23.5999   31.0919 C   0  0  0  0  0  0  0  0  0  0  0  0
    9.1424  -24.7987   31.4664 N   0  0  0  0  0  0  0  0  0  0  0  0
   13.0613  -20.3047   28.0217 C   0  0  0  0  0  0  0  0  0  0  0  0
   13.1841  -19.5149   29.1011 O   0  0  0  0  0  0  0  0  0  0  0  0
   14.2035  -20.7159   27.5414 O   0  0  0  0  0  0  0  0  0  0  0  0
  1  2  1  0
  2  4  1  0
  3  2  2  0
  4  5  1  0
  6  7  1  6
  6  5  1  0
  8  6  1  0
  8  9  2  0
 10 11  1  0
 10  8  1  0
 11 15  1  0
 11 12  1  6
 13 12  1  0
 13 17  1  0
 14 13  2  0
 15 18  1  0
 15 16  2  0
 18 19  1  0
 19 20  1  1
 20 21  1  0
 21 22  1  0
 22 23  1  0
 23 24  1  0
 25 26  1  0
 25 19  1  0
 27 25  2  0
M  END
$$$$
