QDK.pdb
     RDKit          3D

 27 26  0  0  1  0  0  0  0  0999 V2000
   15.9520  -22.5689   10.7621 N   0  0  0  0  0  0  0  0  0  0  0  0
   14.7729  -22.3100   10.0134 C   0  0  0  0  0  0  0  0  0  0  0  0
   14.8336  -22.4069    8.7477 O   0  0  0  0  0  0  0  0  0  0  0  0
   13.5104  -21.9362   10.7168 C   0  0  0  0  0  0  0  0  0  0  0  0
   12.6164  -21.1064    9.8255 C   0  0  0  0  0  0  0  0  0  0  0  0
   12.5574  -19.6726   10.2297 C   0  0  2  0  0  0  0  0  0  0  0  0
   13.8142  -18.9952   10.1841 N   0  0  0  0  0  0  0  0  0  0  0  0
   11.8780  -19.4440   11.5111 C   0  0  0  0  0  0  0  0  0  0  0  0
   12.4634  -18.7856   12.3989 O   0  0  0  0  0  0  0  0  0  0  0  0
   10.5634  -19.9473   11.7880 N   0  0  0  0  0  0  0  0  0  0  0  0
    9.8758  -19.6988   13.0184 C   0  0  1  0  0  0  0  0  0  0  0  0
    8.3867  -19.8157   12.8002 C   0  0  0  0  0  0  0  0  0  0  0  0
    7.8455  -18.6844   12.0151 C   0  0  0  0  0  0  0  0  0  0  0  0
    8.1562  -17.4813   12.1840 O   0  0  0  0  0  0  0  0  0  0  0  0
   10.2786  -20.6639   14.0757 C   0  0  0  0  0  0  0  0  0  0  0  0
   10.8158  -21.7784   13.7888 O   0  0  0  0  0  0  0  0  0  0  0  0
    6.9252  -18.9898   11.0189 O   0  0  0  0  0  0  0  0  0  0  0  0
   10.0704  -20.3567   15.4102 N   0  0  0  0  0  0  0  0  0  0  0  0
   10.4889  -21.3541   16.5111 C   0  0  1  0  0  0  0  0  0  0  0  0
   10.9262  -20.5256   17.6449 C   0  0  0  0  0  0  0  0  0  0  0  0
   11.5763  -20.9984   18.8524 C   0  0  0  0  0  0  0  0  0  0  0  0
   11.9862  -20.1239   19.9536 C   0  0  0  0  0  0  0  0  0  0  0  0
   12.5851  -20.8784   21.1375 C   0  0  0  0  0  0  0  0  0  0  0  0
   13.0421  -19.9983   22.1856 N   0  0  0  0  0  0  0  0  0  0  0  0
    9.1734  -22.0667   16.7259 C   0  0  0  0  0  0  0  0  0  0  0  0
    8.9644  -23.2593   17.3072 O   0  0  0  0  0  0  0  0  0  0  0  0
    8.0791  -21.4870   16.3127 O   0  0  0  0  0  0  0  0  0  0  0  0
  1  2  1  0
  2  4  1  0
  3  2  2  0
  4  5  1  0
  6  7  1  1
  6  5  1  0
  8  6  1  0
  8  9  2  0
 10 11  1  0
 10  8  1  0
 11 15  1  0
 11 12  1  6
 13 12  1  0
 13 17  1  0
 14 13  2  0
 15 18  1  0
 15 16  2  0
 18 19  1  0
 19 20  1  1
 20 21  1  0
 21 22  1  0
 22 23  1  0
 23 24  1  0
 25 26  1  0
 25 19  1  0
 27 25  2  0
M  END
$$$$
