QDK.pdb
     RDKit          3D

 27 26  0  0  1  0  0  0  0  0999 V2000
    8.3054  -12.7866   17.3334 N   0  0  0  0  0  0  0  0  0  0  0  0
    8.0462  -13.7835   16.3552 C   0  0  0  0  0  0  0  0  0  0  0  0
    8.1978  -13.4757   15.1315 O   0  0  0  0  0  0  0  0  0  0  0  0
    7.6091  -15.1468   16.7780 C   0  0  0  0  0  0  0  0  0  0  0  0
    7.4538  -15.2272   18.2785 C   0  0  0  0  0  0  0  0  0  0  0  0
    8.7567  -15.3319   18.9956 C   0  0  2  0  0  0  0  0  0  0  0  0
    9.8104  -15.9085   18.2224 N   0  0  0  0  0  0  0  0  0  0  0  0
    8.6590  -15.9671   20.3157 C   0  0  0  0  0  0  0  0  0  0  0  0
    7.6600  -15.7303   21.0301 O   0  0  0  0  0  0  0  0  0  0  0  0
    9.6673  -16.8530   20.8223 N   0  0  0  0  0  0  0  0  0  0  0  0
    9.5888  -17.4686   22.1120 C   0  0  1  0  0  0  0  0  0  0  0  0
   10.5973  -18.5881   22.2022 C   0  0  0  0  0  0  0  0  0  0  0  0
   10.5240  -19.3048   23.4944 C   0  0  0  0  0  0  0  0  0  0  0  0
   11.5069  -19.5548   24.2321 O   0  0  0  0  0  0  0  0  0  0  0  0
    9.8615  -16.4941   23.2017 C   0  0  0  0  0  0  0  0  0  0  0  0
   10.9320  -15.8114   23.2307 O   0  0  0  0  0  0  0  0  0  0  0  0
    9.2672  -19.7280   23.9118 O   0  0  0  0  0  0  0  0  0  0  0  0
    8.9370  -16.3137   24.2174 N   0  0  0  0  0  0  0  0  0  0  0  0
    9.1374  -15.1934   25.2598 C   0  0  1  0  0  0  0  0  0  0  0  0
    7.8685  -14.4503   25.2853 C   0  0  0  0  0  0  0  0  0  0  0  0
    7.5914  -13.2519   26.0545 C   0  0  0  0  0  0  0  0  0  0  0  0
    6.3019  -12.5573   26.0454 C   0  0  0  0  0  0  0  0  0  0  0  0
    6.2543  -11.3531   26.9819 C   0  0  0  0  0  0  0  0  0  0  0  0
    4.9911  -10.6577   26.9318 N   0  0  0  0  0  0  0  0  0  0  0  0
    9.3982  -16.0311   26.4906 C   0  0  0  0  0  0  0  0  0  0  0  0
    8.9936  -17.2880   26.7363 O   0  0  0  0  0  0  0  0  0  0  0  0
   10.1011  -15.5089   27.4589 O   0  0  0  0  0  0  0  0  0  0  0  0
  1  2  1  0
  2  4  1  0
  3  2  2  0
  4  5  1  0
  6  7  1  6
  6  5  1  0
  8  6  1  0
  8  9  2  0
 10 11  1  0
 10  8  1  0
 11 15  1  0
 11 12  1  6
 13 12  1  0
 13 17  1  0
 14 13  2  0
 15 18  1  0
 15 16  2  0
 18 19  1  0
 19 20  1  1
 20 21  1  0
 21 22  1  0
 22 23  1  0
 23 24  1  0
 25 26  1  0
 25 19  1  0
 27 25  2  0
M  END
$$$$
