QDK.pdb
     RDKit          3D

 27 26  0  0  1  0  0  0  0  0999 V2000
    7.6540  -12.3158   18.8484 N   0  0  0  0  0  0  0  0  0  0  0  0
    7.7783  -13.3952   17.9334 C   0  0  0  0  0  0  0  0  0  0  0  0
    6.9104  -13.5015   17.0111 O   0  0  0  0  0  0  0  0  0  0  0  0
    8.9054  -14.3641   18.0723 C   0  0  0  0  0  0  0  0  0  0  0  0
    8.9600  -14.9383   19.4685 C   0  0  0  0  0  0  0  0  0  0  0  0
   10.1343  -15.8304   19.6874 C   0  0  2  0  0  0  0  0  0  0  0  0
   10.4224  -16.7043   18.5948 N   0  0  0  0  0  0  0  0  0  0  0  0
   10.0933  -16.5655   20.9578 C   0  0  0  0  0  0  0  0  0  0  0  0
    8.9943  -16.7174   21.5353 O   0  0  0  0  0  0  0  0  0  0  0  0
   11.2679  -17.1198   21.5668 N   0  0  0  0  0  0  0  0  0  0  0  0
   11.2723  -17.6863   22.8812 C   0  0  1  0  0  0  0  0  0  0  0  0
   12.5607  -18.4405   23.1044 C   0  0  0  0  0  0  0  0  0  0  0  0
   12.7556  -19.5213   22.1130 C   0  0  0  0  0  0  0  0  0  0  0  0
   13.8567  -19.8336   21.6005 O   0  0  0  0  0  0  0  0  0  0  0  0
   11.1468  -16.6389   23.9294 C   0  0  0  0  0  0  0  0  0  0  0  0
   11.9211  -15.6327   23.9602 O   0  0  0  0  0  0  0  0  0  0  0  0
   11.6274  -20.2370   21.7286 O   0  0  0  0  0  0  0  0  0  0  0  0
   10.1677  -16.7470   24.9033 N   0  0  0  0  0  0  0  0  0  0  0  0
   10.0119  -15.6460   25.9735 C   0  0  1  0  0  0  0  0  0  0  0  0
    8.6953  -15.0401   25.7236 C   0  0  0  0  0  0  0  0  0  0  0  0
    8.1027  -13.9410   26.4620 C   0  0  0  0  0  0  0  0  0  0  0  0
    6.9474  -13.1725   25.9927 C   0  0  0  0  0  0  0  0  0  0  0  0
    6.4391  -12.1568   27.0123 C   0  0  0  0  0  0  0  0  0  0  0  0
    5.2295  -11.4962   26.5853 N   0  0  0  0  0  0  0  0  0  0  0  0
   10.0860  -16.4911   27.2245 C   0  0  0  0  0  0  0  0  0  0  0  0
   10.4267  -16.1042   28.4647 O   0  0  0  0  0  0  0  0  0  0  0  0
    9.7884  -17.7590   27.1351 O   0  0  0  0  0  0  0  0  0  0  0  0
  1  2  1  0
  2  4  1  0
  3  2  2  0
  4  5  1  0
  6  7  1  6
  6  5  1  0
  8  6  1  0
  8  9  2  0
 10 11  1  0
 10  8  1  0
 11 15  1  0
 11 12  1  1
 13 12  1  0
 13 17  1  0
 14 13  2  0
 15 18  1  0
 15 16  2  0
 18 19  1  0
 19 20  1  6
 20 21  1  0
 21 22  1  0
 22 23  1  0
 23 24  1  0
 25 26  1  0
 25 19  1  0
 27 25  2  0
M  END
$$$$
