QDK.pdb
     RDKit          3D

 27 26  0  0  1  0  0  0  0  0999 V2000
   11.7702  -18.4160   13.2629 N   0  0  0  0  0  0  0  0  0  0  0  0
   12.5845  -17.7311   14.2040 C   0  0  0  0  0  0  0  0  0  0  0  0
   12.2135  -16.5787   14.5905 O   0  0  0  0  0  0  0  0  0  0  0  0
   13.8362  -18.3683   14.7097 C   0  0  0  0  0  0  0  0  0  0  0  0
   13.6166  -19.8314   15.0152 C   0  0  0  0  0  0  0  0  0  0  0  0
   14.8460  -20.5160   15.5076 C   0  0  2  0  0  0  0  0  0  0  0  0
   15.4684  -21.3720   14.5481 N   0  0  0  0  0  0  0  0  0  0  0  0
   14.6696  -21.2014   16.7941 C   0  0  0  0  0  0  0  0  0  0  0  0
   13.7066  -21.9868   16.9356 O   0  0  0  0  0  0  0  0  0  0  0  0
   15.5612  -21.0063   17.9009 N   0  0  0  0  0  0  0  0  0  0  0  0
   15.3980  -21.6665   19.1602 C   0  0  1  0  0  0  0  0  0  0  0  0
   16.7524  -21.9890   19.7434 C   0  0  0  0  0  0  0  0  0  0  0  0
   17.4150  -23.1066   19.0356 C   0  0  0  0  0  0  0  0  0  0  0  0
   16.8535  -24.1774   18.7026 O   0  0  0  0  0  0  0  0  0  0  0  0
   14.6521  -20.8205   20.1295 C   0  0  0  0  0  0  0  0  0  0  0  0
   14.8601  -19.5708   20.2190 O   0  0  0  0  0  0  0  0  0  0  0  0
   18.7597  -22.9466   18.7212 O   0  0  0  0  0  0  0  0  0  0  0  0
   13.7045  -21.3923   20.9625 N   0  0  0  0  0  0  0  0  0  0  0  0
   12.8642  -20.5061   21.9062 C   0  0  1  0  0  0  0  0  0  0  0  0
   11.5833  -21.2105   22.0679 C   0  0  0  0  0  0  0  0  0  0  0  0
   10.5050  -21.2632   21.0989 C   0  0  0  0  0  0  0  0  0  0  0  0
    9.3397  -22.1418   21.2229 C   0  0  0  0  0  0  0  0  0  0  0  0
    8.2871  -21.9105   20.1421 C   0  0  0  0  0  0  0  0  0  0  0  0
    7.1181  -22.7381   20.3165 N   0  0  0  0  0  0  0  0  0  0  0  0
   13.7489  -20.5243   23.1316 C   0  0  0  0  0  0  0  0  0  0  0  0
   13.7766  -19.6428   24.1445 O   0  0  0  0  0  0  0  0  0  0  0  0
   14.6057  -21.5004   23.2637 O   0  0  0  0  0  0  0  0  0  0  0  0
  1  2  1  0
  2  4  1  0
  3  2  2  0
  4  5  1  0
  6  7  1  6
  6  5  1  0
  8  6  1  0
  8  9  2  0
 10 11  1  0
 10  8  1  0
 11 15  1  0
 11 12  1  1
 13 12  1  0
 13 17  1  0
 14 13  2  0
 15 18  1  0
 15 16  2  0
 18 19  1  0
 19 20  1  1
 20 21  1  0
 21 22  1  0
 22 23  1  0
 23 24  1  0
 25 26  1  0
 25 19  1  0
 27 25  2  0
M  END
$$$$
