QDK.pdb
     RDKit          3D

 27 26  0  0  1  0  0  0  0  0999 V2000
    7.1853  -15.3649   16.6362 N   0  0  0  0  0  0  0  0  0  0  0  0
    7.0269  -13.9574   16.5289 C   0  0  0  0  0  0  0  0  0  0  0  0
    6.7228  -13.4736   15.3937 O   0  0  0  0  0  0  0  0  0  0  0  0
    7.2176  -13.0922   17.7303 C   0  0  0  0  0  0  0  0  0  0  0  0
    7.4265  -13.9254   18.9730 C   0  0  0  0  0  0  0  0  0  0  0  0
    8.7500  -13.6903   19.6179 C   0  0  2  0  0  0  0  0  0  0  0  0
    9.7252  -13.0934   18.7617 N   0  0  0  0  0  0  0  0  0  0  0  0
    9.2955  -14.8696   20.3018 C   0  0  0  0  0  0  0  0  0  0  0  0
    8.5692  -15.4943   21.1058 O   0  0  0  0  0  0  0  0  0  0  0  0
   10.6342  -15.3371   20.0843 N   0  0  0  0  0  0  0  0  0  0  0  0
   11.1685  -16.5001   20.7251 C   0  0  1  0  0  0  0  0  0  0  0  0
   12.1788  -17.1600   19.8184 C   0  0  0  0  0  0  0  0  0  0  0  0
   11.5572  -17.7086   18.5930 C   0  0  0  0  0  0  0  0  0  0  0  0
   11.6303  -17.1847   17.4561 O   0  0  0  0  0  0  0  0  0  0  0  0
   11.8340  -16.1601   22.0108 C   0  0  0  0  0  0  0  0  0  0  0  0
   12.8730  -15.4308   22.0492 O   0  0  0  0  0  0  0  0  0  0  0  0
   10.8414  -18.8933   18.7237 O   0  0  0  0  0  0  0  0  0  0  0  0
   11.3222  -16.6416   23.2046 N   0  0  0  0  0  0  0  0  0  0  0  0
   11.9512  -16.2145   24.5476 C   0  0  1  0  0  0  0  0  0  0  0  0
   10.8245  -15.7825   25.3883 C   0  0  0  0  0  0  0  0  0  0  0  0
   10.9094  -15.2930   26.7513 C   0  0  0  0  0  0  0  0  0  0  0  0
    9.7495  -14.8701   27.5394 C   0  0  0  0  0  0  0  0  0  0  0  0
   10.1233  -14.2102   28.8639 C   0  0  0  0  0  0  0  0  0  0  0  0
    8.9739  -13.7252   29.5888 N   0  0  0  0  0  0  0  0  0  0  0  0
   12.5792  -17.5244   24.9654 C   0  0  0  0  0  0  0  0  0  0  0  0
   12.2047  -18.7676   24.6217 O   0  0  0  0  0  0  0  0  0  0  0  0
   13.6173  -17.4903   25.7562 O   0  0  0  0  0  0  0  0  0  0  0  0
  1  2  1  0
  2  4  1  0
  3  2  2  0
  4  5  1  0
  6  7  1  6
  6  5  1  0
  8  6  1  0
  8  9  2  0
 10 11  1  0
 10  8  1  0
 11 15  1  0
 11 12  1  6
 13 12  1  0
 13 17  1  0
 14 13  2  0
 15 18  1  0
 15 16  2  0
 18 19  1  0
 19 20  1  1
 20 21  1  0
 21 22  1  0
 22 23  1  0
 23 24  1  0
 25 26  1  0
 25 19  1  0
 27 25  2  0
M  END
$$$$
