QDK.pdb
     RDKit          3D

 27 26  0  0  1  0  0  0  0  0999 V2000
    7.5621  -12.8463   17.6698 N   0  0  0  0  0  0  0  0  0  0  0  0
    8.3520  -13.9063   17.1498 C   0  0  0  0  0  0  0  0  0  0  0  0
    8.4298  -14.0318   15.8875 O   0  0  0  0  0  0  0  0  0  0  0  0
    9.0611  -14.8333   18.0805 C   0  0  0  0  0  0  0  0  0  0  0  0
    8.6826  -14.5568   19.5166 C   0  0  0  0  0  0  0  0  0  0  0  0
    9.4585  -15.3741   20.4927 C   0  0  2  0  0  0  0  0  0  0  0  0
   10.1861  -16.4559   19.9088 N   0  0  0  0  0  0  0  0  0  0  0  0
    8.6718  -15.8261   21.6471 C   0  0  0  0  0  0  0  0  0  0  0  0
    7.4948  -16.2085   21.4665 O   0  0  0  0  0  0  0  0  0  0  0  0
    9.2006  -15.8474   22.9805 N   0  0  0  0  0  0  0  0  0  0  0  0
    9.1362  -16.9995   23.8273 C   0  0  1  0  0  0  0  0  0  0  0  0
    9.7202  -18.1912   23.1080 C   0  0  0  0  0  0  0  0  0  0  0  0
    9.6799  -19.4183   23.9336 C   0  0  0  0  0  0  0  0  0  0  0  0
    8.8766  -20.3670   23.7686 O   0  0  0  0  0  0  0  0  0  0  0  0
    9.8892  -16.7919   25.0928 C   0  0  0  0  0  0  0  0  0  0  0  0
    9.9811  -17.7062   25.9694 O   0  0  0  0  0  0  0  0  0  0  0  0
   10.6060  -19.5159   24.9660 O   0  0  0  0  0  0  0  0  0  0  0  0
   10.5114  -15.5788   25.3379 N   0  0  0  0  0  0  0  0  0  0  0  0
   10.0814  -14.7149   26.5423 C   0  0  1  0  0  0  0  0  0  0  0  0
    8.7069  -14.2843   26.2448 C   0  0  0  0  0  0  0  0  0  0  0  0
    7.8612  -13.4672   27.0943 C   0  0  0  0  0  0  0  0  0  0  0  0
    6.8478  -12.5400   26.5857 C   0  0  0  0  0  0  0  0  0  0  0  0
    6.1395  -11.7524   27.6845 C   0  0  0  0  0  0  0  0  0  0  0  0
    5.2409  -10.7517   27.1621 N   0  0  0  0  0  0  0  0  0  0  0  0
   10.1919  -15.7407   27.6469 C   0  0  0  0  0  0  0  0  0  0  0  0
   10.7720  -15.6007   28.8502 O   0  0  0  0  0  0  0  0  0  0  0  0
    9.6716  -16.9218   27.4510 O   0  0  0  0  0  0  0  0  0  0  0  0
  1  2  1  0
  2  4  1  0
  3  2  2  0
  4  5  1  0
  6  7  1  6
  6  5  1  0
  8  6  1  0
  8  9  2  0
 10 11  1  0
 10  8  1  0
 11 15  1  0
 11 12  1  6
 13 12  1  0
 13 17  1  0
 14 13  2  0
 15 18  1  0
 15 16  2  0
 18 19  1  0
 19 20  1  6
 20 21  1  0
 21 22  1  0
 22 23  1  0
 23 24  1  0
 25 26  1  0
 25 19  1  0
 27 25  2  0
M  END
$$$$
