QDK.pdb
     RDKit          3D

 27 26  0  0  1  0  0  0  0  0999 V2000
    6.8614  -13.0413   17.1698 N   0  0  0  0  0  0  0  0  0  0  0  0
    7.7933  -13.7991   16.4114 C   0  0  0  0  0  0  0  0  0  0  0  0
    7.6637  -13.8162   15.1473 O   0  0  0  0  0  0  0  0  0  0  0  0
    8.8853  -14.5457   17.1032 C   0  0  0  0  0  0  0  0  0  0  0  0
    8.7708  -14.4106   18.6034 C   0  0  0  0  0  0  0  0  0  0  0  0
    9.9281  -15.0029   19.3331 C   0  0  2  0  0  0  0  0  0  0  0  0
   10.7669  -15.8357   18.5309 N   0  0  0  0  0  0  0  0  0  0  0  0
    9.5604  -15.6719   20.5873 C   0  0  0  0  0  0  0  0  0  0  0  0
    8.5344  -15.2968   21.1963 O   0  0  0  0  0  0  0  0  0  0  0  0
   10.3334  -16.7436   21.1456 N   0  0  0  0  0  0  0  0  0  0  0  0
    9.9975  -17.3882   22.3786 C   0  0  1  0  0  0  0  0  0  0  0  0
   10.8680  -18.6069   22.5677 C   0  0  0  0  0  0  0  0  0  0  0  0
   12.2936  -18.3251   22.2898 C   0  0  0  0  0  0  0  0  0  0  0  0
   13.2593  -18.9116   22.8339 O   0  0  0  0  0  0  0  0  0  0  0  0
   10.1903  -16.4811   23.5412 C   0  0  0  0  0  0  0  0  0  0  0  0
   11.2219  -15.7481   23.6487 O   0  0  0  0  0  0  0  0  0  0  0  0
   12.5712  -17.3348   21.3544 O   0  0  0  0  0  0  0  0  0  0  0  0
    9.2323  -16.4214   24.5399 N   0  0  0  0  0  0  0  0  0  0  0  0
    9.3329  -15.3535   25.6496 C   0  0  1  0  0  0  0  0  0  0  0  0
    8.1159  -14.5380   25.5201 C   0  0  0  0  0  0  0  0  0  0  0  0
    7.7345  -13.4252   26.3691 C   0  0  0  0  0  0  0  0  0  0  0  0
    6.5602  -12.5829   26.1307 C   0  0  0  0  0  0  0  0  0  0  0  0
    6.3180  -11.5534   27.2312 C   0  0  0  0  0  0  0  0  0  0  0  0
    5.1441  -10.7490   26.9932 N   0  0  0  0  0  0  0  0  0  0  0  0
    9.3608  -16.2494   26.8666 C   0  0  0  0  0  0  0  0  0  0  0  0
    9.0416  -17.5518   26.9421 O   0  0  0  0  0  0  0  0  0  0  0  0
    9.7373  -15.7360   28.0063 O   0  0  0  0  0  0  0  0  0  0  0  0
  1  2  1  0
  2  4  1  0
  3  2  2  0
  4  5  1  0
  6  7  1  6
  6  5  1  0
  8  6  1  0
  8  9  2  0
 10 11  1  0
 10  8  1  0
 11 15  1  0
 11 12  1  1
 13 12  1  0
 13 17  1  0
 14 13  2  0
 15 18  1  0
 15 16  2  0
 18 19  1  0
 19 20  1  1
 20 21  1  0
 21 22  1  0
 22 23  1  0
 23 24  1  0
 25 26  1  0
 25 19  1  0
 27 25  2  0
M  END
$$$$
