QDK.pdb
     RDKit          3D

 27 26  0  0  1  0  0  0  0  0999 V2000
    8.7373  -12.1357   18.7551 N   0  0  0  0  0  0  0  0  0  0  0  0
    8.5473  -13.1381   17.7668 C   0  0  0  0  0  0  0  0  0  0  0  0
    9.1762  -13.0232   16.6684 O   0  0  0  0  0  0  0  0  0  0  0  0
    7.6292  -14.2843   18.0346 C   0  0  0  0  0  0  0  0  0  0  0  0
    7.8353  -14.8324   19.4272 C   0  0  0  0  0  0  0  0  0  0  0  0
    7.9992  -16.3140   19.4533 C   0  0  2  0  0  0  0  0  0  0  0  0
    6.9464  -17.0348   18.8110 N   0  0  0  0  0  0  0  0  0  0  0  0
    8.2762  -16.8577   20.7888 C   0  0  0  0  0  0  0  0  0  0  0  0
    7.3193  -17.2362   21.4998 O   0  0  0  0  0  0  0  0  0  0  0  0
    9.6060  -16.9734   21.3142 N   0  0  0  0  0  0  0  0  0  0  0  0
    9.8808  -17.3594   22.6647 C   0  0  1  0  0  0  0  0  0  0  0  0
   11.1696  -18.1434   22.7163 C   0  0  0  0  0  0  0  0  0  0  0  0
   11.5220  -18.5512   24.0942 C   0  0  0  0  0  0  0  0  0  0  0  0
   12.4573  -18.0601   24.7699 O   0  0  0  0  0  0  0  0  0  0  0  0
   10.0075  -16.1767   23.5574 C   0  0  0  0  0  0  0  0  0  0  0  0
   10.7702  -15.2035   23.2674 O   0  0  0  0  0  0  0  0  0  0  0  0
   10.7523  -19.5542   24.6725 O   0  0  0  0  0  0  0  0  0  0  0  0
    9.2841  -16.1183   24.7372 N   0  0  0  0  0  0  0  0  0  0  0  0
    9.4739  -14.9325   25.7067 C   0  0  1  0  0  0  0  0  0  0  0  0
    8.1665  -14.2615   25.7658 C   0  0  0  0  0  0  0  0  0  0  0  0
    7.8371  -13.0931   26.5600 C   0  0  0  0  0  0  0  0  0  0  0  0
    6.5023  -12.4924   26.6117 C   0  0  0  0  0  0  0  0  0  0  0  0
    6.4323  -11.2428   27.4853 C   0  0  0  0  0  0  0  0  0  0  0  0
    5.1033  -10.6855   27.5553 N   0  0  0  0  0  0  0  0  0  0  0  0
    9.8500  -15.6849   26.9625 C   0  0  0  0  0  0  0  0  0  0  0  0
    9.7413  -17.0022   27.2010 O   0  0  0  0  0  0  0  0  0  0  0  0
   10.3474  -15.0111   27.9639 O   0  0  0  0  0  0  0  0  0  0  0  0
  1  2  1  0
  2  4  1  0
  3  2  2  0
  4  5  1  0
  6  7  1  1
  6  5  1  0
  8  6  1  0
  8  9  2  0
 10 11  1  0
 10  8  1  0
 11 15  1  0
 11 12  1  6
 13 12  1  0
 13 17  1  0
 14 13  2  0
 15 18  1  0
 15 16  2  0
 18 19  1  0
 19 20  1  1
 20 21  1  0
 21 22  1  0
 22 23  1  0
 23 24  1  0
 25 26  1  0
 25 19  1  0
 27 25  2  0
M  END
$$$$
