CGL.pdb
     RDKit          3D

 19 18  0  0  1  0  0  0  0  0999 V2000
   26.2183  -19.3487  -17.7386 N   0  0  0  0  0  0  0  0  0  0  0  0
   27.1899  -18.7334  -16.8860 C   0  0  1  0  0  0  0  0  0  0  0  0
   27.5710  -17.3965  -17.4585 C   0  0  0  0  0  0  0  0  0  0  0  0
   26.2659  -16.1770  -17.2695 S   0  0  0  0  0  0  0  0  0  0  0  0
   26.6619  -18.5155  -15.5061 C   0  0  0  0  0  0  0  0  0  0  0  0
   25.4653  -18.1534  -15.3667 O   0  0  0  0  0  0  0  0  0  0  0  0
   27.4766  -18.7072  -14.3559 N   0  0  0  0  0  0  0  0  0  0  0  0
   26.8766  -18.4936  -13.0652 C   0  0  0  0  0  0  0  0  0  0  0  0
   26.1845  -19.6889  -12.5475 C   0  0  0  0  0  0  0  0  0  0  0  0
   25.9896  -20.7389  -13.2095 O   0  0  0  0  0  0  0  0  0  0  0  0
   26.5429  -19.5124   -7.3420 C   0  0  0  0  0  0  0  0  0  0  0  0
   26.6184  -19.9958   -8.7862 C   0  0  1  0  0  0  0  0  0  0  0  0
   27.7302  -21.0532   -8.7852 C   0  0  0  0  0  0  0  0  0  0  0  0
   25.3204  -20.6732   -9.1105 C   0  0  0  0  0  0  0  0  0  0  0  0
   25.0690  -20.8363  -10.5925 C   0  0  2  0  0  0  0  0  0  0  0  0
   25.7015  -19.6643  -11.2142 N   0  0  0  0  0  0  0  0  0  0  0  0
   23.6227  -20.8516  -10.8251 C   0  0  0  0  0  0  0  0  0  0  0  0
   23.0953  -19.8201  -11.3583 O   0  0  0  0  0  0  0  0  0  0  0  0
   22.7797  -21.8814  -10.5197 O   0  0  0  0  0  0  0  0  0  0  0  0
  2  5  1  0
  2  1  1  6
  3  2  1  0
  4  3  1  0
  5  6  2  0
  7  8  1  0
  7  5  1  0
  9 10  2  0
  9  8  1  0
 12 11  1  1
 12 13  1  0
 12 14  1  0
 15 14  1  1
 15 16  1  0
 15 17  1  0
 16  9  1  0
 17 19  1  0
 18 17  2  0
M  END
$$$$
