CGL.pdb
     RDKit          3D

 19 18  0  0  1  0  0  0  0  0999 V2000
   19.9642   -8.9205  -18.9792 N   0  0  0  0  0  0  0  0  0  0  0  0
   19.0393   -9.7465  -18.2638 C   0  0  1  0  0  0  0  0  0  0  0  0
   19.7964  -10.8385  -17.5605 C   0  0  0  0  0  0  0  0  0  0  0  0
   21.3191  -11.2687  -18.4106 S   0  0  0  0  0  0  0  0  0  0  0  0
   18.2789   -8.9721  -17.2380 C   0  0  0  0  0  0  0  0  0  0  0  0
   17.3938   -9.5633  -16.5674 O   0  0  0  0  0  0  0  0  0  0  0  0
   18.5320   -7.5919  -17.0051 N   0  0  0  0  0  0  0  0  0  0  0  0
   17.7679   -6.9330  -15.9786 C   0  0  0  0  0  0  0  0  0  0  0  0
   18.5896   -6.5196  -14.8254 C   0  0  0  0  0  0  0  0  0  0  0  0
   18.1803   -5.7915  -13.8868 O   0  0  0  0  0  0  0  0  0  0  0  0
   22.8319   -9.8921  -13.2944 C   0  0  0  0  0  0  0  0  0  0  0  0
   22.4810   -8.5261  -13.8742 C   0  0  1  0  0  0  0  0  0  0  0  0
   22.0550   -8.8146  -15.3197 C   0  0  0  0  0  0  0  0  0  0  0  0
   21.2919   -8.0028  -13.1252 C   0  0  0  0  0  0  0  0  0  0  0  0
   20.8030   -6.6587  -13.6156 C   0  0  2  0  0  0  0  0  0  0  0  0
   19.9337   -6.9674  -14.7598 N   0  0  0  0  0  0  0  0  0  0  0  0
   21.9602   -5.8574  -14.0221 C   0  0  0  0  0  0  0  0  0  0  0  0
   22.2034   -5.7546  -15.2698 O   0  0  0  0  0  0  0  0  0  0  0  0
   22.8103   -5.2036  -13.1770 O   0  0  0  0  0  0  0  0  0  0  0  0
  2  5  1  0
  2  1  1  1
  3  2  1  0
  4  3  1  0
  5  6  2  0
  7  8  1  0
  7  5  1  0
  9 10  2  0
  9  8  1  0
 12 11  1  1
 12 13  1  0
 12 14  1  0
 15 14  1  6
 15 16  1  0
 15 17  1  0
 16  9  1  0
 17 19  1  0
 18 17  2  0
M  END
$$$$
