CGL.pdb
     RDKit          3D

 19 18  0  0  1  0  0  0  0  0999 V2000
   19.6175  -12.7498  -18.3334 N   0  0  0  0  0  0  0  0  0  0  0  0
   18.5465  -11.8017  -18.2720 C   0  0  1  0  0  0  0  0  0  0  0  0
   17.3067  -12.4212  -18.8545 C   0  0  0  0  0  0  0  0  0  0  0  0
   17.3715  -12.5197  -20.6469 S   0  0  0  0  0  0  0  0  0  0  0  0
   18.2461  -11.3907  -16.8680 C   0  0  0  0  0  0  0  0  0  0  0  0
   18.3595  -12.2442  -15.9507 O   0  0  0  0  0  0  0  0  0  0  0  0
   17.8379  -10.0661  -16.5488 N   0  0  0  0  0  0  0  0  0  0  0  0
   17.5727   -9.7598  -15.1676 C   0  0  0  0  0  0  0  0  0  0  0  0
   18.6615   -8.9971  -14.5281 C   0  0  0  0  0  0  0  0  0  0  0  0
   18.5847   -8.4678  -13.3912 O   0  0  0  0  0  0  0  0  0  0  0  0
   23.5884  -10.8325  -15.1991 C   0  0  0  0  0  0  0  0  0  0  0  0
   22.3736  -10.1700  -14.5584 C   0  0  1  0  0  0  0  0  0  0  0  0
   22.7398  -10.0380  -13.0743 C   0  0  0  0  0  0  0  0  0  0  0  0
   22.2439   -8.7933  -15.1386 C   0  0  0  0  0  0  0  0  0  0  0  0
   21.0004   -8.0568  -14.6943 C   0  0  2  0  0  0  0  0  0  0  0  0
   19.8823   -8.8438  -15.2335 N   0  0  0  0  0  0  0  0  0  0  0  0
   21.0270   -6.7056  -15.2598 C   0  0  0  0  0  0  0  0  0  0  0  0
   21.8625   -5.8738  -14.7732 O   0  0  0  0  0  0  0  0  0  0  0  0
   20.2302   -6.2518  -16.2714 O   0  0  0  0  0  0  0  0  0  0  0  0
  2  5  1  0
  2  1  1  1
  3  2  1  0
  4  3  1  0
  5  6  2  0
  7  8  1  0
  7  5  1  0
  9 10  2  0
  9  8  1  0
 12 11  1  6
 12 13  1  0
 12 14  1  0
 15 14  1  6
 15 16  1  0
 15 17  1  0
 16  9  1  0
 17 19  1  0
 18 17  2  0
M  END
$$$$
