CGL.pdb
     RDKit          3D

 19 18  0  0  1  0  0  0  0  0999 V2000
   17.9940  -13.2351  -16.4434 N   0  0  0  0  0  0  0  0  0  0  0  0
   16.8577  -12.6260  -15.8210 C   0  0  1  0  0  0  0  0  0  0  0  0
   15.8347  -13.6855  -15.5193 C   0  0  0  0  0  0  0  0  0  0  0  0
   15.3172  -14.5727  -16.9929 S   0  0  0  0  0  0  0  0  0  0  0  0
   17.2200  -11.9502  -14.5395 C   0  0  0  0  0  0  0  0  0  0  0  0
   18.1819  -12.4039  -13.8675 O   0  0  0  0  0  0  0  0  0  0  0  0
   16.5065  -10.8141  -14.0666 N   0  0  0  0  0  0  0  0  0  0  0  0
   16.9147  -10.2396  -12.8117 C   0  0  0  0  0  0  0  0  0  0  0  0
   16.0590   -9.1151  -12.3882 C   0  0  0  0  0  0  0  0  0  0  0  0
   15.3077   -8.4657  -13.1579 O   0  0  0  0  0  0  0  0  0  0  0  0
   13.1267   -6.9084   -8.3685 C   0  0  0  0  0  0  0  0  0  0  0  0
   14.6219   -6.6183   -8.2943 C   0  0  1  0  0  0  0  0  0  0  0  0
   14.9639   -6.7165   -6.8018 C   0  0  0  0  0  0  0  0  0  0  0  0
   15.3381   -7.7193   -9.0180 C   0  0  0  0  0  0  0  0  0  0  0  0
   15.2942   -7.5912  -10.5239 C   0  0  2  0  0  0  0  0  0  0  0  0
   16.0762   -8.7313  -11.0229 N   0  0  0  0  0  0  0  0  0  0  0  0
   15.9040   -6.3148  -10.9051 C   0  0  0  0  0  0  0  0  0  0  0  0
   15.1256   -5.3420  -11.1774 O   0  0  0  0  0  0  0  0  0  0  0  0
   17.2442   -6.0701  -10.9957 O   0  0  0  0  0  0  0  0  0  0  0  0
  2  5  1  0
  2  1  1  1
  3  2  1  0
  4  3  1  0
  5  6  2  0
  7  8  1  0
  7  5  1  0
  9 10  2  0
  9  8  1  0
 12 11  1  1
 12 13  1  0
 12 14  1  0
 15 14  1  1
 15 16  1  0
 15 17  1  0
 16  9  1  0
 17 19  1  0
 18 17  2  0
M  END
$$$$
