CGL.pdb
     RDKit          3D

 19 18  0  0  1  0  0  0  0  0999 V2000
   20.4554  -13.0525  -15.6964 N   0  0  0  0  0  0  0  0  0  0  0  0
   20.1567  -13.4972  -17.0240 C   0  0  1  0  0  0  0  0  0  0  0  0
   18.7244  -13.9505  -17.0808 C   0  0  0  0  0  0  0  0  0  0  0  0
   18.3714  -15.2450  -15.8866 S   0  0  0  0  0  0  0  0  0  0  0  0
   20.3410  -12.4095  -18.0306 C   0  0  0  0  0  0  0  0  0  0  0  0
   20.3409  -12.7098  -19.2523 O   0  0  0  0  0  0  0  0  0  0  0  0
   20.5152  -11.0527  -17.6406 N   0  0  0  0  0  0  0  0  0  0  0  0
   20.7614  -10.0830  -18.6753 C   0  0  0  0  0  0  0  0  0  0  0  0
   20.8994   -8.7094  -18.1556 C   0  0  0  0  0  0  0  0  0  0  0  0
   20.8610   -7.6742  -18.8666 O   0  0  0  0  0  0  0  0  0  0  0  0
   17.9795   -5.5011  -16.1229 C   0  0  0  0  0  0  0  0  0  0  0  0
   18.0905   -6.8020  -15.3351 C   0  0  1  0  0  0  0  0  0  0  0  0
   16.6628   -7.3635  -15.3077 C   0  0  0  0  0  0  0  0  0  0  0  0
   18.9541   -7.7416  -16.1226 C   0  0  0  0  0  0  0  0  0  0  0  0
   20.4332   -7.4462  -16.0179 C   0  0  2  0  0  0  0  0  0  0  0  0
   21.0887   -8.5316  -16.7613 N   0  0  0  0  0  0  0  0  0  0  0  0
   20.8159   -7.4574  -14.6038 C   0  0  0  0  0  0  0  0  0  0  0  0
   21.0861   -8.5836  -14.0699 O   0  0  0  0  0  0  0  0  0  0  0  0
   20.9107   -6.3595  -13.7977 O   0  0  0  0  0  0  0  0  0  0  0  0
  2  5  1  0
  2  1  1  1
  3  2  1  0
  4  3  1  0
  5  6  2  0
  7  8  1  0
  7  5  1  0
  9 10  2  0
  9  8  1  0
 12 11  1  6
 12 13  1  0
 12 14  1  0
 15 14  1  1
 15 16  1  0
 15 17  1  0
 16  9  1  0
 17 19  1  0
 18 17  2  0
M  END
$$$$
