CGL.pdb
     RDKit          3D

 19 18  0  0  1  0  0  0  0  0999 V2000
   29.3150  -22.3114  -19.0429 N   0  0  0  0  0  0  0  0  0  0  0  0
   29.0463  -22.7750  -17.7153 C   0  0  1  0  0  0  0  0  0  0  0  0
   30.3474  -23.0884  -17.0305 C   0  0  0  0  0  0  0  0  0  0  0  0
   31.0690  -24.6280  -17.6097 S   0  0  0  0  0  0  0  0  0  0  0  0
   28.3273  -21.7493  -16.9020 C   0  0  0  0  0  0  0  0  0  0  0  0
   28.6764  -20.5449  -17.0020 O   0  0  0  0  0  0  0  0  0  0  0  0
   27.2653  -22.1026  -16.0242 N   0  0  0  0  0  0  0  0  0  0  0  0
   26.5571  -21.0373  -15.3645 C   0  0  0  0  0  0  0  0  0  0  0  0
   25.4296  -21.5177  -14.5436 C   0  0  0  0  0  0  0  0  0  0  0  0
   24.7199  -22.5152  -14.8265 O   0  0  0  0  0  0  0  0  0  0  0  0
   25.9748  -19.9992   -9.3904 C   0  0  0  0  0  0  0  0  0  0  0  0
   25.8028  -20.7166  -10.7250 C   0  0  1  0  0  0  0  0  0  0  0  0
   26.1096  -22.1883  -10.4182 C   0  0  0  0  0  0  0  0  0  0  0  0
   24.3609  -20.6059  -11.1216 C   0  0  0  0  0  0  0  0  0  0  0  0
   24.0404  -21.2528  -12.4501 C   0  0  2  0  0  0  0  0  0  0  0  0
   25.1150  -20.8153  -13.3523 N   0  0  0  0  0  0  0  0  0  0  0  0
   22.7320  -20.7738  -12.9027 C   0  0  0  0  0  0  0  0  0  0  0  0
   22.7039  -19.7487  -13.6609 O   0  0  0  0  0  0  0  0  0  0  0  0
   21.5275  -21.3318  -12.5832 O   0  0  0  0  0  0  0  0  0  0  0  0
  2  5  1  0
  2  1  1  6
  3  2  1  0
  4  3  1  0
  5  6  2  0
  7  8  1  0
  7  5  1  0
  9 10  2  0
  9  8  1  0
 12 11  1  1
 12 13  1  0
 12 14  1  0
 15 14  1  1
 15 16  1  0
 15 17  1  0
 16  9  1  0
 17 19  1  0
 18 17  2  0
M  END
$$$$
