CGL.pdb
     RDKit          3D

 19 18  0  0  1  0  0  0  0  0999 V2000
   17.9886  -10.2250  -18.0548 N   0  0  0  0  0  0  0  0  0  0  0  0
   16.6409  -10.0312  -17.6124 C   0  0  1  0  0  0  0  0  0  0  0  0
   15.8932  -11.3303  -17.7283 C   0  0  0  0  0  0  0  0  0  0  0  0
   16.2029  -12.1579  -19.2921 S   0  0  0  0  0  0  0  0  0  0  0  0
   16.5807   -9.5847  -16.1886 C   0  0  0  0  0  0  0  0  0  0  0  0
   15.5182   -9.7701  -15.5411 O   0  0  0  0  0  0  0  0  0  0  0  0
   17.6900   -8.9596  -15.5544 N   0  0  0  0  0  0  0  0  0  0  0  0
   17.5301   -8.5335  -14.1890 C   0  0  0  0  0  0  0  0  0  0  0  0
   18.7670   -7.9734  -13.6124 C   0  0  0  0  0  0  0  0  0  0  0  0
   18.8674   -7.5321  -12.4403 O   0  0  0  0  0  0  0  0  0  0  0  0
   23.2972  -10.4382  -14.7688 C   0  0  0  0  0  0  0  0  0  0  0  0
   22.1403   -9.6771  -14.1305 C   0  0  1  0  0  0  0  0  0  0  0  0
   22.3843   -9.7928  -12.6202 C   0  0  0  0  0  0  0  0  0  0  0  0
   22.2695   -8.2353  -14.5223 C   0  0  0  0  0  0  0  0  0  0  0  0
   21.1913   -7.3457  -13.9458 C   0  0  2  0  0  0  0  0  0  0  0  0
   19.9281   -7.9238  -14.4255 N   0  0  0  0  0  0  0  0  0  0  0  0
   21.3845   -5.9845  -14.4520 C   0  0  0  0  0  0  0  0  0  0  0  0
   20.5851   -5.5664  -15.3534 O   0  0  0  0  0  0  0  0  0  0  0  0
   22.3530   -5.1141  -14.0413 O   0  0  0  0  0  0  0  0  0  0  0  0
  2  5  1  0
  2  1  1  1
  3  2  1  0
  4  3  1  0
  5  6  2  0
  7  8  1  0
  7  5  1  0
  9 10  2  0
  9  8  1  0
 12 11  1  6
 12 13  1  0
 12 14  1  0
 15 14  1  6
 15 16  1  0
 15 17  1  0
 16  9  1  0
 17 19  1  0
 18 17  2  0
M  END
$$$$
