CGL.pdb
     RDKit          3D

 19 18  0  0  1  0  0  0  0  0999 V2000
   19.0551   -9.3414  -18.2096 N   0  0  0  0  0  0  0  0  0  0  0  0
   17.6443   -9.4092  -17.9763 C   0  0  1  0  0  0  0  0  0  0  0  0
   17.2667  -10.8277  -17.6513 C   0  0  0  0  0  0  0  0  0  0  0  0
   17.5557  -11.9428  -19.0296 S   0  0  0  0  0  0  0  0  0  0  0  0
   17.2262   -8.5428  -16.8340 C   0  0  0  0  0  0  0  0  0  0  0  0
   15.9980   -8.3876  -16.6106 O   0  0  0  0  0  0  0  0  0  0  0  0
   18.1794   -7.8949  -16.0003 N   0  0  0  0  0  0  0  0  0  0  0  0
   17.6843   -7.0521  -14.9438 C   0  0  0  0  0  0  0  0  0  0  0  0
   18.7533   -6.5472  -14.0617 C   0  0  0  0  0  0  0  0  0  0  0  0
   18.5664   -5.7673  -13.0944 O   0  0  0  0  0  0  0  0  0  0  0  0
   22.9481   -8.0919  -15.5001 C   0  0  0  0  0  0  0  0  0  0  0  0
   22.0766   -8.6804  -14.3959 C   0  0  1  0  0  0  0  0  0  0  0  0
   22.8189   -9.9460  -13.9470 C   0  0  0  0  0  0  0  0  0  0  0  0
   22.0652   -7.7078  -13.2546 C   0  0  0  0  0  0  0  0  0  0  0  0
   21.2165   -6.4816  -13.5042 C   0  0  2  0  0  0  0  0  0  0  0  0
   20.0863   -6.9624  -14.3114 N   0  0  0  0  0  0  0  0  0  0  0  0
   22.0173   -5.4967  -14.2356 C   0  0  0  0  0  0  0  0  0  0  0  0
   21.7549   -5.3162  -15.4706 O   0  0  0  0  0  0  0  0  0  0  0  0
   23.0293   -4.7465  -13.7090 O   0  0  0  0  0  0  0  0  0  0  0  0
  2  5  1  0
  2  1  1  1
  3  2  1  0
  4  3  1  0
  5  6  2  0
  7  8  1  0
  7  5  1  0
  9 10  2  0
  9  8  1  0
 12 11  1  6
 12 13  1  0
 12 14  1  0
 15 14  1  6
 15 16  1  0
 15 17  1  0
 16  9  1  0
 17 19  1  0
 18 17  2  0
M  END
$$$$
