CGL.pdb
     RDKit          3D

 19 18  0  0  1  0  0  0  0  0999 V2000
   22.4159  -21.7816  -13.5899 N   0  0  0  0  0  0  0  0  0  0  0  0
   21.4504  -20.7359  -13.7443 C   0  0  1  0  0  0  0  0  0  0  0  0
   20.6868  -20.9554  -15.0205 C   0  0  0  0  0  0  0  0  0  0  0  0
   21.6562  -21.8321  -16.2527 S   0  0  0  0  0  0  0  0  0  0  0  0
   20.4728  -20.7091  -12.6156 C   0  0  0  0  0  0  0  0  0  0  0  0
   19.3104  -20.2799  -12.8324 O   0  0  0  0  0  0  0  0  0  0  0  0
   20.8254  -21.1550  -11.3116 N   0  0  0  0  0  0  0  0  0  0  0  0
   19.7963  -21.1675  -10.3054 C   0  0  0  0  0  0  0  0  0  0  0  0
   19.1368  -22.4803  -10.1731 C   0  0  0  0  0  0  0  0  0  0  0  0
   18.9313  -23.2709  -11.1278 O   0  0  0  0  0  0  0  0  0  0  0  0
   18.6626  -26.8233   -6.9159 C   0  0  0  0  0  0  0  0  0  0  0  0
   17.6328  -25.7230   -6.6835 C   0  0  1  0  0  0  0  0  0  0  0  0
   17.4753  -25.6530   -5.1589 C   0  0  0  0  0  0  0  0  0  0  0  0
   18.2284  -24.4312   -7.1582 C   0  0  0  0  0  0  0  0  0  0  0  0
   18.1090  -24.2139   -8.6497 C   0  0  2  0  0  0  0  0  0  0  0  0
   18.7006  -22.8896   -8.8871 N   0  0  0  0  0  0  0  0  0  0  0  0
   16.6909  -24.2415   -9.0167 C   0  0  0  0  0  0  0  0  0  0  0  0
   15.9739  -23.2371   -8.6947 O   0  0  0  0  0  0  0  0  0  0  0  0
   16.0613  -25.2556   -9.6795 O   0  0  0  0  0  0  0  0  0  0  0  0
  2  5  1  0
  2  1  1  1
  3  2  1  0
  4  3  1  0
  5  6  2  0
  7  8  1  0
  7  5  1  0
  9 10  2  0
  9  8  1  0
 12 11  1  1
 12 13  1  0
 12 14  1  0
 15 14  1  1
 15 16  1  0
 15 17  1  0
 16  9  1  0
 17 19  1  0
 18 17  2  0
M  END
$$$$
