CGL.pdb
     RDKit          3D

 19 18  0  0  1  0  0  0  0  0999 V2000
   25.3732  -22.5045  -15.8729 N   0  0  0  0  0  0  0  0  0  0  0  0
   26.4826  -21.6113  -15.7280 C   0  0  1  0  0  0  0  0  0  0  0  0
   26.5093  -20.6659  -16.8966 C   0  0  0  0  0  0  0  0  0  0  0  0
   27.0516  -21.4676  -18.4097 S   0  0  0  0  0  0  0  0  0  0  0  0
   26.3864  -20.8020  -14.4766 C   0  0  0  0  0  0  0  0  0  0  0  0
   25.2821  -20.2783  -14.1785 O   0  0  0  0  0  0  0  0  0  0  0  0
   27.5075  -20.6124  -13.6218 N   0  0  0  0  0  0  0  0  0  0  0  0
   27.3079  -19.8639  -12.4088 C   0  0  0  0  0  0  0  0  0  0  0  0
   26.7557  -20.6816  -11.3123 C   0  0  0  0  0  0  0  0  0  0  0  0
   26.4847  -21.9049  -11.4060 O   0  0  0  0  0  0  0  0  0  0  0  0
   28.0488  -18.6677   -6.5326 C   0  0  0  0  0  0  0  0  0  0  0  0
   27.8132  -19.5892   -7.7244 C   0  0  1  0  0  0  0  0  0  0  0  0
   28.6785  -20.8236   -7.4391 C   0  0  0  0  0  0  0  0  0  0  0  0
   26.3726  -20.0053   -7.7034 C   0  0  0  0  0  0  0  0  0  0  0  0
   25.9452  -20.7919   -8.9220 C   0  0  2  0  0  0  0  0  0  0  0  0
   26.5096  -20.0571  -10.0629 N   0  0  0  0  0  0  0  0  0  0  0  0
   24.4814  -20.8202   -8.9735 C   0  0  0  0  0  0  0  0  0  0  0  0
   23.9047  -20.1260   -9.8747 O   0  0  0  0  0  0  0  0  0  0  0  0
   23.6704  -21.5304   -8.1356 O   0  0  0  0  0  0  0  0  0  0  0  0
  2  5  1  0
  2  1  1  6
  3  2  1  0
  4  3  1  0
  5  6  2  0
  7  8  1  0
  7  5  1  0
  9 10  2  0
  9  8  1  0
 12 11  1  1
 12 13  1  0
 12 14  1  0
 15 14  1  1
 15 16  1  0
 15 17  1  0
 16  9  1  0
 17 19  1  0
 18 17  2  0
M  END
$$$$
