CGL.pdb
     RDKit          3D

 19 18  0  0  1  0  0  0  0  0999 V2000
   17.2278  -11.5770  -14.5033 N   0  0  0  0  0  0  0  0  0  0  0  0
   17.7948  -10.3094  -14.8515 C   0  0  1  0  0  0  0  0  0  0  0  0
   16.8401   -9.5731  -15.7497 C   0  0  0  0  0  0  0  0  0  0  0  0
   16.1785  -10.6232  -17.0482 S   0  0  0  0  0  0  0  0  0  0  0  0
   18.0482   -9.4628  -13.6476 C   0  0  0  0  0  0  0  0  0  0  0  0
   18.6131   -8.3491  -13.7996 O   0  0  0  0  0  0  0  0  0  0  0  0
   17.6676   -9.8855  -12.3439 N   0  0  0  0  0  0  0  0  0  0  0  0
   17.9768   -9.0161  -11.2393 C   0  0  0  0  0  0  0  0  0  0  0  0
   16.9357   -7.9991  -10.9986 C   0  0  0  0  0  0  0  0  0  0  0  0
   16.4831   -7.2246  -11.8783 O   0  0  0  0  0  0  0  0  0  0  0  0
   12.8412   -9.1136   -7.6326 C   0  0  0  0  0  0  0  0  0  0  0  0
   13.6327   -8.5566   -8.8109 C   0  0  1  0  0  0  0  0  0  0  0  0
   12.5787   -7.9011   -9.7128 C   0  0  0  0  0  0  0  0  0  0  0  0
   14.5405   -7.4844   -8.2864 C   0  0  0  0  0  0  0  0  0  0  0  0
   15.4109   -6.8474   -9.3460 C   0  0  2  0  0  0  0  0  0  0  0  0
   16.4014   -7.8771   -9.6905 N   0  0  0  0  0  0  0  0  0  0  0  0
   16.0495   -5.6579   -8.7772 C   0  0  0  0  0  0  0  0  0  0  0  0
   15.3508   -4.5951   -8.6840 O   0  0  0  0  0  0  0  0  0  0  0  0
   17.3384   -5.5839   -8.3328 O   0  0  0  0  0  0  0  0  0  0  0  0
  2  5  1  0
  2  1  1  1
  3  2  1  0
  4  3  1  0
  5  6  2  0
  7  8  1  0
  7  5  1  0
  9 10  2  0
  9  8  1  0
 12 11  1  1
 12 13  1  0
 12 14  1  0
 15 14  1  1
 15 16  1  0
 15 17  1  0
 16  9  1  0
 17 19  1  0
 18 17  2  0
M  END
$$$$
