EYD.pdb
     RDKit          3D

 30 30  0  0  1  0  0  0  0  0999 V2000
   28.5419  -21.5096  -16.7427 N   0  0  0  0  0  0  0  0  0  0  0  0
   27.4827  -20.5126  -16.5194 C   0  0  1  0  0  0  0  0  0  0  0  0
   26.6874  -20.3743  -17.7882 C   0  0  0  0  0  0  0  0  0  0  0  0
   27.2378  -19.3374  -18.7099 C   0  0  0  0  0  0  0  0  0  0  0  0
   28.5437  -19.8578  -19.2594 C   0  0  0  0  0  0  0  0  0  0  0  0
   29.6463  -19.4158  -18.8641 O   0  0  0  0  0  0  0  0  0  0  0  0
   26.6649  -21.0181  -15.3972 C   0  0  0  0  0  0  0  0  0  0  0  0
   26.3189  -22.2428  -15.2844 O   0  0  0  0  0  0  0  0  0  0  0  0
   28.4369  -20.8569  -20.2300 O   0  0  0  0  0  0  0  0  0  0  0  0
   31.1277  -21.8956  -10.3772 O   0  0  0  0  0  0  0  0  0  0  0  0
   29.8777  -21.4194  -10.7808 C   0  0  0  0  0  0  0  0  0  0  0  0
   29.7465  -20.5938  -11.8557 C   0  0  0  0  0  0  0  0  0  0  0  0
   28.4954  -20.1190  -12.2573 C   0  0  0  0  0  0  0  0  0  0  0  0
   27.3562  -20.4741  -11.5746 C   0  0  0  0  0  0  0  0  0  0  0  0
   26.0182  -19.9849  -11.9794 C   0  0  0  0  0  0  0  0  0  0  0  0
   25.4921  -20.7157  -13.1929 C   0  0  2  0  0  0  0  0  0  0  0  0
   26.1912  -20.1835  -14.3433 N   0  0  0  0  0  0  0  0  0  0  0  0
   24.0558  -20.5296  -13.3990 C   0  0  0  0  0  0  0  0  0  0  0  0
   23.6240  -19.4575  -13.8763 O   0  0  0  0  0  0  0  0  0  0  0  0
   27.4917  -21.3082  -10.4892 C   0  0  0  0  0  0  0  0  0  0  0  0
   28.7428  -21.7842  -10.0861 C   0  0  0  0  0  0  0  0  0  0  0  0
   23.0726  -21.5143  -13.0853 N   0  0  0  0  0  0  0  0  0  0  0  0
   21.6739  -21.3711  -13.2786 C   0  0  1  0  0  0  0  0  0  0  0  0
   20.9557  -22.6395  -13.6365 C   0  0  0  0  0  0  0  0  0  0  0  0
   19.5129  -22.4463  -13.8504 C   0  0  0  0  0  0  0  0  0  0  0  0
   18.6270  -22.6641  -12.9835 O   0  0  0  0  0  0  0  0  0  0  0  0
   21.0330  -20.7280  -12.1111 C   0  0  0  0  0  0  0  0  0  0  0  0
   21.7139  -20.6012  -10.9139 O   0  0  0  0  0  0  0  0  0  0  0  0
   19.0961  -21.9929  -15.0924 O   0  0  0  0  0  0  0  0  0  0  0  0
   19.8635  -20.2829  -12.1735 O   0  0  0  0  0  0  0  0  0  0  0  0
  2  1  1  6
  2  3  1  0
  3  4  1  0
  4  5  1  0
  5  9  1  0
  6  5  2  0
  7  2  1  0
  8  7  2  0
 10 11  1  0
 11 12  2  0
 12 13  1  0
 14 15  1  0
 14 13  2  0
 16 15  1  1
 16 18  1  0
 16 17  1  0
 17  7  1  0
 18 19  2  0
 20 14  1  0
 21 20  2  0
 21 11  1  0
 22 23  1  0
 22 18  1  0
 24 25  1  0
 23 24  1  1
 25 29  1  0
 26 25  2  0
 27 28  1  0
 27 23  1  0
 30 27  2  0
M  END
$$$$
