EYD.pdb
     RDKit          3D

 30 30  0  0  1  0  0  0  0  0999 V2000
   23.1140  -10.2779  -19.0624 N   0  0  0  0  0  0  0  0  0  0  0  0
   23.6514   -8.9281  -18.8283 C   0  0  1  0  0  0  0  0  0  0  0  0
   23.9642   -8.3052  -20.1607 C   0  0  0  0  0  0  0  0  0  0  0  0
   23.4750   -9.1185  -21.3126 C   0  0  0  0  0  0  0  0  0  0  0  0
   23.8044   -8.3663  -22.5790 C   0  0  0  0  0  0  0  0  0  0  0  0
   23.0465   -7.4795  -23.0333 O   0  0  0  0  0  0  0  0  0  0  0  0
   22.6062   -8.1854  -18.0935 C   0  0  0  0  0  0  0  0  0  0  0  0
   21.3805   -8.1690  -18.4537 O   0  0  0  0  0  0  0  0  0  0  0  0
   25.0022   -8.7253  -23.2022 O   0  0  0  0  0  0  0  0  0  0  0  0
   19.1331  -12.4664  -14.6877 O   0  0  0  0  0  0  0  0  0  0  0  0
   19.7936  -11.2353  -14.7052 C   0  0  0  0  0  0  0  0  0  0  0  0
   19.1136  -10.0635  -14.5679 C   0  0  0  0  0  0  0  0  0  0  0  0
   19.7764   -8.8337  -14.5857 C   0  0  0  0  0  0  0  0  0  0  0  0
   21.1407   -8.7724  -14.7431 C   0  0  0  0  0  0  0  0  0  0  0  0
   21.8675   -7.4822  -14.7655 C   0  0  0  0  0  0  0  0  0  0  0  0
   21.8187   -6.8292  -16.1274 C   0  0  2  0  0  0  0  0  0  0  0  0
   22.8746   -7.4231  -16.9195 N   0  0  0  0  0  0  0  0  0  0  0  0
   22.0347   -5.3831  -16.0802 C   0  0  0  0  0  0  0  0  0  0  0  0
   23.1158   -4.9237  -15.6511 O   0  0  0  0  0  0  0  0  0  0  0  0
   21.8251   -9.9577  -14.8815 C   0  0  0  0  0  0  0  0  0  0  0  0
   21.1634  -11.1890  -14.8640 C   0  0  0  0  0  0  0  0  0  0  0  0
   21.0706   -4.4201  -16.5021 N   0  0  0  0  0  0  0  0  0  0  0  0
   21.2325   -3.0115  -16.4388 C   0  0  1  0  0  0  0  0  0  0  0  0
   20.1226   -2.2223  -17.0694 C   0  0  0  0  0  0  0  0  0  0  0  0
   20.3755   -0.7730  -17.0766 C   0  0  0  0  0  0  0  0  0  0  0  0
   19.4774    0.1087  -17.0840 O   0  0  0  0  0  0  0  0  0  0  0  0
   21.4620   -2.5588  -15.0496 C   0  0  0  0  0  0  0  0  0  0  0  0
   22.5616   -1.7817  -14.7336 O   0  0  0  0  0  0  0  0  0  0  0  0
   21.6938   -0.3443  -17.0752 O   0  0  0  0  0  0  0  0  0  0  0  0
   20.6720   -2.8644  -14.1264 O   0  0  0  0  0  0  0  0  0  0  0  0
  2  1  1  6
  2  3  1  0
  3  4  1  0
  4  5  1  0
  5  9  1  0
  6  5  2  0
  7  2  1  0
  8  7  2  0
 10 11  1  0
 11 12  2  0
 12 13  1  0
 14 15  1  0
 14 13  2  0
 16 15  1  1
 16 18  1  0
 16 17  1  0
 17  7  1  0
 18 19  2  0
 20 14  1  0
 21 20  2  0
 21 11  1  0
 22 23  1  0
 22 18  1  0
 24 25  1  0
 23 24  1  1
 25 29  1  0
 26 25  2  0
 27 28  1  0
 27 23  1  0
 30 27  2  0
M  END
$$$$
