EYD.pdb
     RDKit          3D

 30 30  0  0  1  0  0  0  0  0999 V2000
   20.5767  -10.0204  -18.9892 N   0  0  0  0  0  0  0  0  0  0  0  0
   21.6331   -9.0228  -18.7561 C   0  0  1  0  0  0  0  0  0  0  0  0
   22.0837   -8.4901  -20.0883 C   0  0  0  0  0  0  0  0  0  0  0  0
   21.0662   -8.6768  -21.1641 C   0  0  0  0  0  0  0  0  0  0  0  0
   21.6759   -8.2020  -22.4606 C   0  0  0  0  0  0  0  0  0  0  0  0
   22.6993   -8.7391  -22.9417 O   0  0  0  0  0  0  0  0  0  0  0  0
   21.0341   -7.9729  -17.9059 C   0  0  0  0  0  0  0  0  0  0  0  0
   19.7898   -7.6841  -17.9293 O   0  0  0  0  0  0  0  0  0  0  0  0
   21.0249   -7.1321  -23.0796 O   0  0  0  0  0  0  0  0  0  0  0  0
   18.2898  -10.6114  -12.3677 O   0  0  0  0  0  0  0  0  0  0  0  0
   19.1019   -9.6233  -12.9301 C   0  0  0  0  0  0  0  0  0  0  0  0
   18.9028   -8.3034  -12.6606 C   0  0  0  0  0  0  0  0  0  0  0  0
   19.7162   -7.3172  -13.2242 C   0  0  0  0  0  0  0  0  0  0  0  0
   20.7457   -7.6539  -14.0709 C   0  0  0  0  0  0  0  0  0  0  0  0
   21.6224   -6.6283  -14.6814 C   0  0  0  0  0  0  0  0  0  0  0  0
   21.1708   -6.2548  -16.0743 C   0  0  2  0  0  0  0  0  0  0  0  0
   21.7924   -7.1915  -16.9861 N   0  0  0  0  0  0  0  0  0  0  0  0
   21.5653   -4.9009  -16.4635 C   0  0  0  0  0  0  0  0  0  0  0  0
   22.7681   -4.6356  -16.6801 O   0  0  0  0  0  0  0  0  0  0  0  0
   20.9445   -8.9879  -14.3413 C   0  0  0  0  0  0  0  0  0  0  0  0
   20.1314   -9.9759  -13.7782 C   0  0  0  0  0  0  0  0  0  0  0  0
   20.6491   -3.8191  -16.6210 N   0  0  0  0  0  0  0  0  0  0  0  0
   20.9729   -2.5338  -17.1283 C   0  0  1  0  0  0  0  0  0  0  0  0
   21.7101   -2.5414  -18.4356 C   0  0  0  0  0  0  0  0  0  0  0  0
   21.9934   -1.1915  -18.9475 C   0  0  0  0  0  0  0  0  0  0  0  0
   21.2240   -0.5360  -19.6975 O   0  0  0  0  0  0  0  0  0  0  0  0
   19.7732   -1.6735  -17.2182 C   0  0  0  0  0  0  0  0  0  0  0  0
   19.8584   -0.3160  -16.9674 O   0  0  0  0  0  0  0  0  0  0  0  0
   23.1904   -0.5964  -18.5805 O   0  0  0  0  0  0  0  0  0  0  0  0
   18.6537   -2.1471  -17.5221 O   0  0  0  0  0  0  0  0  0  0  0  0
  2  1  1  6
  2  3  1  0
  3  4  1  0
  4  5  1  0
  5  9  1  0
  6  5  2  0
  7  2  1  0
  8  7  2  0
 10 11  1  0
 11 12  2  0
 12 13  1  0
 14 15  1  0
 14 13  2  0
 16 15  1  1
 16 18  1  0
 16 17  1  0
 17  7  1  0
 18 19  2  0
 20 14  1  0
 21 20  2  0
 21 11  1  0
 22 23  1  0
 22 18  1  0
 24 25  1  0
 23 24  1  6
 25 29  1  0
 26 25  2  0
 27 28  1  0
 27 23  1  0
 30 27  2  0
M  END
$$$$
