EYD.pdb
     RDKit          3D

 30 30  0  0  1  0  0  0  0  0999 V2000
   28.2631  -21.2681  -16.2930 N   0  0  0  0  0  0  0  0  0  0  0  0
   27.2714  -20.2509  -15.9089 C   0  0  1  0  0  0  0  0  0  0  0  0
   26.4354  -19.9251  -17.1157 C   0  0  0  0  0  0  0  0  0  0  0  0
   26.7568  -18.5913  -17.7035 C   0  0  0  0  0  0  0  0  0  0  0  0
   27.5415  -18.8251  -18.9714 C   0  0  0  0  0  0  0  0  0  0  0  0
   27.2573  -19.7562  -19.7585 O   0  0  0  0  0  0  0  0  0  0  0  0
   26.4717  -20.8410  -14.8154 C   0  0  0  0  0  0  0  0  0  0  0  0
   26.1258  -22.0708  -14.7913 O   0  0  0  0  0  0  0  0  0  0  0  0
   28.5962  -17.9386  -19.2028 O   0  0  0  0  0  0  0  0  0  0  0  0
   30.7878  -22.0492   -9.6594 O   0  0  0  0  0  0  0  0  0  0  0  0
   29.5418  -21.5591  -10.0588 C   0  0  0  0  0  0  0  0  0  0  0  0
   28.4475  -21.6639   -9.2551 C   0  0  0  0  0  0  0  0  0  0  0  0
   27.2027  -21.1731   -9.6567 C   0  0  0  0  0  0  0  0  0  0  0  0
   27.0472  -20.5675  -10.8811 C   0  0  0  0  0  0  0  0  0  0  0  0
   25.7390  -20.0389  -11.3310 C   0  0  0  0  0  0  0  0  0  0  0  0
   25.2727  -20.6963  -12.6092 C   0  0  2  0  0  0  0  0  0  0  0  0
   26.0167  -20.0898  -13.6927 N   0  0  0  0  0  0  0  0  0  0  0  0
   23.8452  -20.5063  -12.8665 C   0  0  0  0  0  0  0  0  0  0  0  0
   23.4095  -19.3779  -13.1839 O   0  0  0  0  0  0  0  0  0  0  0  0
   28.1543  -20.4630  -11.6910 C   0  0  0  0  0  0  0  0  0  0  0  0
   29.4006  -20.9536  -11.2905 C   0  0  0  0  0  0  0  0  0  0  0  0
   22.8752  -21.5485  -12.7800 N   0  0  0  0  0  0  0  0  0  0  0  0
   21.4737  -21.3828  -12.9310 C   0  0  1  0  0  0  0  0  0  0  0  0
   20.7129  -22.6538  -13.1718 C   0  0  0  0  0  0  0  0  0  0  0  0
   19.2684  -22.4381  -13.3497 C   0  0  0  0  0  0  0  0  0  0  0  0
   18.3704  -23.1430  -12.8199 O   0  0  0  0  0  0  0  0  0  0  0  0
   20.8938  -20.6435  -11.7889 C   0  0  0  0  0  0  0  0  0  0  0  0
   21.3578  -20.8549  -10.5032 O   0  0  0  0  0  0  0  0  0  0  0  0
   18.8640  -21.3859  -14.1566 O   0  0  0  0  0  0  0  0  0  0  0  0
   19.9722  -19.8106  -11.9528 O   0  0  0  0  0  0  0  0  0  0  0  0
  2  1  1  6
  2  3  1  0
  3  4  1  0
  4  5  1  0
  5  9  1  0
  6  5  2  0
  7  2  1  0
  8  7  2  0
 10 11  1  0
 11 12  2  0
 12 13  1  0
 14 15  1  0
 14 13  2  0
 16 15  1  1
 16 18  1  0
 16 17  1  0
 17  7  1  0
 18 19  2  0
 20 14  1  0
 21 20  2  0
 21 11  1  0
 22 23  1  0
 22 18  1  0
 24 25  1  0
 23 24  1  1
 25 29  1  0
 26 25  2  0
 27 28  1  0
 27 23  1  0
 30 27  2  0
M  END
$$$$
