EYD.pdb
     RDKit          3D

 30 30  0  0  1  0  0  0  0  0999 V2000
   31.4025  -21.3259  -20.1248 N   0  0  0  0  0  0  0  0  0  0  0  0
   30.4611  -20.2916  -19.6670 C   0  0  1  0  0  0  0  0  0  0  0  0
   30.1242  -19.4072  -20.8356 C   0  0  0  0  0  0  0  0  0  0  0  0
   29.9260  -17.9798  -20.4471 C   0  0  0  0  0  0  0  0  0  0  0  0
   31.2100  -17.2419  -20.7383 C   0  0  0  0  0  0  0  0  0  0  0  0
   31.3646  -16.0406  -20.4215 O   0  0  0  0  0  0  0  0  0  0  0  0
   29.2778  -21.0070  -19.1456 C   0  0  0  0  0  0  0  0  0  0  0  0
   28.6025  -21.8369  -19.8440 O   0  0  0  0  0  0  0  0  0  0  0  0
   32.2036  -17.9857  -21.3796 O   0  0  0  0  0  0  0  0  0  0  0  0
   30.7432  -27.2221  -17.3151 O   0  0  0  0  0  0  0  0  0  0  0  0
   30.1207  -26.0094  -17.0089 C   0  0  0  0  0  0  0  0  0  0  0  0
   30.8199  -24.8412  -16.9775 C   0  0  0  0  0  0  0  0  0  0  0  0
   30.1951  -23.6298  -16.6711 C   0  0  0  0  0  0  0  0  0  0  0  0
   28.8499  -23.5833  -16.3913 C   0  0  0  0  0  0  0  0  0  0  0  0
   28.1634  -22.3126  -16.0636 C   0  0  0  0  0  0  0  0  0  0  0  0
   27.6727  -21.5992  -17.3022 C   0  0  2  0  0  0  0  0  0  0  0  0
   28.7870  -20.8333  -17.8187 N   0  0  0  0  0  0  0  0  0  0  0  0
   26.5653  -20.6810  -17.0366 C   0  0  0  0  0  0  0  0  0  0  0  0
   26.7904  -19.5486  -16.5562 O   0  0  0  0  0  0  0  0  0  0  0  0
   28.1461  -24.7648  -16.4238 C   0  0  0  0  0  0  0  0  0  0  0  0
   28.7698  -25.9778  -16.7302 C   0  0  0  0  0  0  0  0  0  0  0  0
   25.1965  -20.9896  -17.2932 N   0  0  0  0  0  0  0  0  0  0  0  0
   24.0989  -20.1215  -17.0566 C   0  0  1  0  0  0  0  0  0  0  0  0
   23.5802  -19.4172  -18.2762 C   0  0  0  0  0  0  0  0  0  0  0  0
   22.4276  -18.5471  -17.9950 C   0  0  0  0  0  0  0  0  0  0  0  0
   21.6407  -18.0994  -18.8692 O   0  0  0  0  0  0  0  0  0  0  0  0
   22.9991  -20.8232  -16.3599 C   0  0  0  0  0  0  0  0  0  0  0  0
   22.1768  -20.1454  -15.4782 O   0  0  0  0  0  0  0  0  0  0  0  0
   22.1881  -18.1933  -16.6762 O   0  0  0  0  0  0  0  0  0  0  0  0
   22.7829  -22.0430  -16.5476 O   0  0  0  0  0  0  0  0  0  0  0  0
  2  1  1  6
  2  3  1  0
  3  4  1  0
  4  5  1  0
  5  9  1  0
  6  5  2  0
  7  2  1  0
  8  7  2  0
 10 11  1  0
 11 12  2  0
 12 13  1  0
 14 15  1  0
 14 13  2  0
 16 15  1  1
 16 18  1  0
 16 17  1  0
 17  7  1  0
 18 19  2  0
 20 14  1  0
 21 20  2  0
 21 11  1  0
 22 23  1  0
 22 18  1  0
 24 25  1  0
 23 24  1  6
 25 29  1  0
 26 25  2  0
 27 28  1  0
 27 23  1  0
 30 27  2  0
M  END
$$$$
