EYD.pdb
     RDKit          3D

 30 30  0  0  1  0  0  0  0  0999 V2000
   14.1023  -13.2428  -13.1966 N   0  0  0  0  0  0  0  0  0  0  0  0
   15.3711  -12.5155  -13.0327 C   0  0  1  0  0  0  0  0  0  0  0  0
   16.2059  -12.7361  -14.2639 C   0  0  0  0  0  0  0  0  0  0  0  0
   16.9766  -14.0136  -14.2233 C   0  0  0  0  0  0  0  0  0  0  0  0
   17.8007  -14.0933  -15.4852 C   0  0  0  0  0  0  0  0  0  0  0  0
   17.7771  -13.1834  -16.3447 O   0  0  0  0  0  0  0  0  0  0  0  0
   15.0148  -11.0938  -12.8441 C   0  0  0  0  0  0  0  0  0  0  0  0
   13.9703  -10.5642  -13.3551 O   0  0  0  0  0  0  0  0  0  0  0  0
   18.5837  -15.2418  -15.6254 O   0  0  0  0  0  0  0  0  0  0  0  0
    9.8830  -10.0111   -8.7848 O   0  0  0  0  0  0  0  0  0  0  0  0
   11.1911   -9.6985   -9.1635 C   0  0  0  0  0  0  0  0  0  0  0  0
   12.1816  -10.6325   -9.1301 C   0  0  0  0  0  0  0  0  0  0  0  0
   13.4888  -10.3175   -9.5092 C   0  0  0  0  0  0  0  0  0  0  0  0
   13.8131   -9.0491   -9.9288 C   0  0  0  0  0  0  0  0  0  0  0  0
   15.1906   -8.6891  -10.3360 C   0  0  0  0  0  0  0  0  0  0  0  0
   15.3932   -8.8247  -11.8274 C   0  0  2  0  0  0  0  0  0  0  0  0
   15.8051  -10.1899  -12.0759 N   0  0  0  0  0  0  0  0  0  0  0  0
   16.4239   -7.9290  -12.3520 C   0  0  0  0  0  0  0  0  0  0  0  0
   17.5979   -8.0068  -11.9283 O   0  0  0  0  0  0  0  0  0  0  0  0
   12.8106   -8.1076   -9.9615 C   0  0  0  0  0  0  0  0  0  0  0  0
   11.5020   -8.4213   -9.5824 C   0  0  0  0  0  0  0  0  0  0  0  0
   16.1838   -6.9358  -13.3473 N   0  0  0  0  0  0  0  0  0  0  0  0
   17.1713   -6.0992  -13.9299 C   0  0  1  0  0  0  0  0  0  0  0  0
   17.2737   -6.1943  -15.4242 C   0  0  0  0  0  0  0  0  0  0  0  0
   18.2685   -5.2730  -15.9954 C   0  0  0  0  0  0  0  0  0  0  0  0
   18.9717   -4.4748  -15.3227 O   0  0  0  0  0  0  0  0  0  0  0  0
   16.9959   -4.6908  -13.5140 C   0  0  0  0  0  0  0  0  0  0  0  0
   18.0563   -3.8040  -13.5618 O   0  0  0  0  0  0  0  0  0  0  0  0
   18.4467   -5.2815  -17.3701 O   0  0  0  0  0  0  0  0  0  0  0  0
   15.8894   -4.2644  -13.1094 O   0  0  0  0  0  0  0  0  0  0  0  0
  2  1  1  6
  2  3  1  0
  3  4  1  0
  4  5  1  0
  5  9  1  0
  6  5  2  0
  7  2  1  0
  8  7  2  0
 10 11  1  0
 11 12  2  0
 12 13  1  0
 14 15  1  0
 14 13  2  0
 16 15  1  1
 16 18  1  0
 16 17  1  0
 17  7  1  0
 18 19  2  0
 20 14  1  0
 21 20  2  0
 21 11  1  0
 22 23  1  0
 22 18  1  0
 24 25  1  0
 23 24  1  6
 25 29  1  0
 26 25  2  0
 27 28  1  0
 27 23  1  0
 30 27  2  0
M  END
$$$$
