EYD.pdb
     RDKit          3D

 30 30  0  0  1  0  0  0  0  0999 V2000
   19.8041  -14.2392  -18.2011 N   0  0  0  0  0  0  0  0  0  0  0  0
   19.8006  -12.8640  -18.7250 C   0  0  1  0  0  0  0  0  0  0  0  0
   18.5280  -12.6551  -19.4985 C   0  0  0  0  0  0  0  0  0  0  0  0
   18.4659  -13.4695  -20.7477 C   0  0  0  0  0  0  0  0  0  0  0  0
   17.2214  -13.0639  -21.4991 C   0  0  0  0  0  0  0  0  0  0  0  0
   16.1532  -13.7091  -21.3995 O   0  0  0  0  0  0  0  0  0  0  0  0
   19.8967  -11.9711  -17.5515 C   0  0  0  0  0  0  0  0  0  0  0  0
   19.3275  -12.2240  -16.4359 O   0  0  0  0  0  0  0  0  0  0  0  0
   17.3438  -11.9295  -22.3054 O   0  0  0  0  0  0  0  0  0  0  0  0
   22.3310   -5.5336  -12.0236 O   0  0  0  0  0  0  0  0  0  0  0  0
   22.2484   -6.5286  -13.0009 C   0  0  0  0  0  0  0  0  0  0  0  0
   21.9742   -7.8221  -12.6750 C   0  0  0  0  0  0  0  0  0  0  0  0
   21.8922   -8.8152  -13.6541 C   0  0  0  0  0  0  0  0  0  0  0  0
   22.0871   -8.5125  -14.9809 C   0  0  0  0  0  0  0  0  0  0  0  0
   22.0057   -9.5461  -16.0384 C   0  0  0  0  0  0  0  0  0  0  0  0
   20.5797   -9.8085  -16.4642 C   0  0  2  0  0  0  0  0  0  0  0  0
   20.6325  -10.7504  -17.5620 N   0  0  0  0  0  0  0  0  0  0  0  0
   19.8850   -8.6051  -16.9216 C   0  0  0  0  0  0  0  0  0  0  0  0
   20.1666   -8.1014  -18.0310 O   0  0  0  0  0  0  0  0  0  0  0  0
   22.3639   -7.2051  -15.3074 C   0  0  0  0  0  0  0  0  0  0  0  0
   22.4463   -6.2102  -14.3287 C   0  0  0  0  0  0  0  0  0  0  0  0
   18.8728   -7.9367  -16.1711 N   0  0  0  0  0  0  0  0  0  0  0  0
   18.2832   -6.6914  -16.5116 C   0  0  1  0  0  0  0  0  0  0  0  0
   16.7831   -6.6733  -16.4677 C   0  0  0  0  0  0  0  0  0  0  0  0
   16.2104   -5.3629  -16.8136 C   0  0  0  0  0  0  0  0  0  0  0  0
   15.6377   -4.5957  -15.9966 O   0  0  0  0  0  0  0  0  0  0  0  0
   18.8360   -5.5925  -15.6905 C   0  0  0  0  0  0  0  0  0  0  0  0
   18.9102   -4.3057  -16.1922 O   0  0  0  0  0  0  0  0  0  0  0  0
   16.3061   -4.9400  -18.1303 O   0  0  0  0  0  0  0  0  0  0  0  0
   19.2499   -5.7950  -14.5254 O   0  0  0  0  0  0  0  0  0  0  0  0
  2  1  1  1
  2  3  1  0
  3  4  1  0
  4  5  1  0
  5  9  1  0
  6  5  2  0
  7  2  1  0
  8  7  2  0
 10 11  1  0
 11 12  2  0
 12 13  1  0
 14 15  1  0
 14 13  2  0
 16 15  1  6
 16 18  1  0
 16 17  1  0
 17  7  1  0
 18 19  2  0
 20 14  1  0
 21 20  2  0
 21 11  1  0
 22 23  1  0
 22 18  1  0
 24 25  1  0
 23 24  1  1
 25 29  1  0
 26 25  2  0
 27 28  1  0
 27 23  1  0
 30 27  2  0
M  END
$$$$
