EYD.pdb
     RDKit          3D

 30 30  0  0  1  0  0  0  0  0999 V2000
   28.0056  -22.6865  -16.6557 N   0  0  0  0  0  0  0  0  0  0  0  0
   27.4726  -21.3472  -16.3598 C   0  0  1  0  0  0  0  0  0  0  0  0
   26.6946  -20.8722  -17.5558 C   0  0  0  0  0  0  0  0  0  0  0  0
   27.5606  -20.2691  -18.6113 C   0  0  0  0  0  0  0  0  0  0  0  0
   27.8545  -18.8451  -18.2063 C   0  0  0  0  0  0  0  0  0  0  0  0
   26.9665  -18.0987  -17.7355 O   0  0  0  0  0  0  0  0  0  0  0  0
   26.6226  -21.4930  -15.1597 C   0  0  0  0  0  0  0  0  0  0  0  0
   25.8869  -22.5158  -14.9479 O   0  0  0  0  0  0  0  0  0  0  0  0
   29.1733  -18.4229  -18.3916 O   0  0  0  0  0  0  0  0  0  0  0  0
   31.3713  -22.0856  -10.2457 O   0  0  0  0  0  0  0  0  0  0  0  0
   30.1509  -21.5383  -10.6495 C   0  0  0  0  0  0  0  0  0  0  0  0
   30.0465  -20.8022  -11.7904 C   0  0  0  0  0  0  0  0  0  0  0  0
   28.8250  -20.2559  -12.1921 C   0  0  0  0  0  0  0  0  0  0  0  0
   27.6885  -20.4474  -11.4426 C   0  0  0  0  0  0  0  0  0  0  0  0
   26.3816  -19.8795  -11.8459 C   0  0  0  0  0  0  0  0  0  0  0  0
   25.7339  -20.6804  -12.9517 C   0  0  2  0  0  0  0  0  0  0  0  0
   26.5498  -20.5054  -14.1345 N   0  0  0  0  0  0  0  0  0  0  0  0
   24.3734  -20.2400  -13.2602 C   0  0  0  0  0  0  0  0  0  0  0  0
   24.1279  -19.6768  -14.3494 O   0  0  0  0  0  0  0  0  0  0  0  0
   27.7968  -21.1914  -10.2906 C   0  0  0  0  0  0  0  0  0  0  0  0
   29.0184  -21.7387   -9.8873 C   0  0  0  0  0  0  0  0  0  0  0  0
   23.2632  -20.4100  -12.3810 N   0  0  0  0  0  0  0  0  0  0  0  0
   21.9227  -20.6445  -12.7842 C   0  0  1  0  0  0  0  0  0  0  0  0
   21.7174  -21.8965  -13.5859 C   0  0  0  0  0  0  0  0  0  0  0  0
   21.5212  -21.6384  -15.0210 C   0  0  0  0  0  0  0  0  0  0  0  0
   21.4960  -20.4939  -15.5439 O   0  0  0  0  0  0  0  0  0  0  0  0
   21.0009  -20.6161  -11.6279 C   0  0  0  0  0  0  0  0  0  0  0  0
   19.7215  -20.1068  -11.7583 O   0  0  0  0  0  0  0  0  0  0  0  0
   21.3518  -22.7294  -15.8593 O   0  0  0  0  0  0  0  0  0  0  0  0
   21.3506  -21.0495  -10.5056 O   0  0  0  0  0  0  0  0  0  0  0  0
  2  1  1  6
  2  3  1  0
  3  4  1  0
  4  5  1  0
  5  9  1  0
  6  5  2  0
  7  2  1  0
  8  7  2  0
 10 11  1  0
 11 12  2  0
 12 13  1  0
 14 15  1  0
 14 13  2  0
 16 15  1  1
 16 18  1  0
 16 17  1  0
 17  7  1  0
 18 19  2  0
 20 14  1  0
 21 20  2  0
 21 11  1  0
 22 23  1  0
 22 18  1  0
 24 25  1  0
 23 24  1  1
 25 29  1  0
 26 25  2  0
 27 28  1  0
 27 23  1  0
 30 27  2  0
M  END
$$$$
