EYD.pdb
     RDKit          3D

 30 30  0  0  1  0  0  0  0  0999 V2000
   25.8292  -18.7821  -19.2082 N   0  0  0  0  0  0  0  0  0  0  0  0
   25.2468  -19.0361  -17.8808 C   0  0  1  0  0  0  0  0  0  0  0  0
   25.8389  -18.0540  -16.9080 C   0  0  0  0  0  0  0  0  0  0  0  0
   27.2627  -18.3521  -16.5740 C   0  0  0  0  0  0  0  0  0  0  0  0
   28.1311  -17.4572  -17.4243 C   0  0  0  0  0  0  0  0  0  0  0  0
   27.6485  -16.7404  -18.3302 O   0  0  0  0  0  0  0  0  0  0  0  0
   23.7860  -18.8684  -18.0279 C   0  0  0  0  0  0  0  0  0  0  0  0
   23.2445  -17.7691  -18.3897 O   0  0  0  0  0  0  0  0  0  0  0  0
   29.4971  -17.4845  -17.1326 O   0  0  0  0  0  0  0  0  0  0  0  0
   15.3846  -20.8858  -19.8076 O   0  0  0  0  0  0  0  0  0  0  0  0
   16.7641  -20.8811  -19.5864 C   0  0  0  0  0  0  0  0  0  0  0  0
   17.5626  -19.9080  -20.1061 C   0  0  0  0  0  0  0  0  0  0  0  0
   18.9418  -19.9055  -19.8834 C   0  0  0  0  0  0  0  0  0  0  0  0
   19.5342  -20.8907  -19.1295 C   0  0  0  0  0  0  0  0  0  0  0  0
   20.9936  -20.9114  -18.8784 C   0  0  0  0  0  0  0  0  0  0  0  0
   21.4338  -19.7583  -18.0064 C   0  0  2  0  0  0  0  0  0  0  0  0
   22.8543  -19.9180  -17.7791 N   0  0  0  0  0  0  0  0  0  0  0  0
   20.7593  -19.7281  -16.7086 C   0  0  0  0  0  0  0  0  0  0  0  0
   21.1220  -20.5009  -15.7947 O   0  0  0  0  0  0  0  0  0  0  0  0
   18.7253  -21.8725  -18.6058 C   0  0  0  0  0  0  0  0  0  0  0  0
   17.3450  -21.8763  -18.8277 C   0  0  0  0  0  0  0  0  0  0  0  0
   19.6788  -18.8519  -16.3934 N   0  0  0  0  0  0  0  0  0  0  0  0
   19.0198  -18.7766  -15.1386 C   0  0  1  0  0  0  0  0  0  0  0  0
   18.4821  -17.4190  -14.7916 C   0  0  0  0  0  0  0  0  0  0  0  0
   19.2015  -16.7794  -13.6789 C   0  0  0  0  0  0  0  0  0  0  0  0
   20.1511  -17.3083  -13.0445 O   0  0  0  0  0  0  0  0  0  0  0  0
   17.9541  -19.7963  -15.0293 C   0  0  0  0  0  0  0  0  0  0  0  0
   17.7941  -20.5272  -13.8660 O   0  0  0  0  0  0  0  0  0  0  0  0
   18.8091  -15.5050  -13.2998 O   0  0  0  0  0  0  0  0  0  0  0  0
   17.1718  -20.0251  -15.9808 O   0  0  0  0  0  0  0  0  0  0  0  0
  2  1  1  6
  2  3  1  0
  3  4  1  0
  4  5  1  0
  5  9  1  0
  6  5  2  0
  7  2  1  0
  8  7  2  0
 10 11  1  0
 11 12  2  0
 12 13  1  0
 14 15  1  0
 14 13  2  0
 16 15  1  6
 16 18  1  0
 16 17  1  0
 17  7  1  0
 18 19  2  0
 20 14  1  0
 21 20  2  0
 21 11  1  0
 22 23  1  0
 22 18  1  0
 24 25  1  0
 23 24  1  6
 25 29  1  0
 26 25  2  0
 27 28  1  0
 27 23  1  0
 30 27  2  0
M  END
$$$$
