EYD.pdb
     RDKit          3D

 30 30  0  0  1  0  0  0  0  0999 V2000
   28.3861  -21.0198  -16.8139 N   0  0  0  0  0  0  0  0  0  0  0  0
   27.5430  -22.2067  -17.0287 C   0  0  1  0  0  0  0  0  0  0  0  0
   28.4394  -23.4069  -17.1599 C   0  0  0  0  0  0  0  0  0  0  0  0
   29.8016  -23.0636  -17.6643 C   0  0  0  0  0  0  0  0  0  0  0  0
   29.6618  -22.6226  -19.1010 C   0  0  0  0  0  0  0  0  0  0  0  0
   29.4720  -23.4448  -20.0258 O   0  0  0  0  0  0  0  0  0  0  0  0
   26.6488  -22.3000  -15.8559 C   0  0  0  0  0  0  0  0  0  0  0  0
   25.9050  -23.3133  -15.6266 O   0  0  0  0  0  0  0  0  0  0  0  0
   29.7581  -21.2468  -19.3240 O   0  0  0  0  0  0  0  0  0  0  0  0
   22.7874  -20.5800   -8.0837 O   0  0  0  0  0  0  0  0  0  0  0  0
   23.6428  -20.5989   -9.1882 C   0  0  0  0  0  0  0  0  0  0  0  0
   24.8888  -21.1429   -9.1112 C   0  0  0  0  0  0  0  0  0  0  0  0
   25.7423  -21.1607  -10.2171 C   0  0  0  0  0  0  0  0  0  0  0  0
   25.3457  -20.6265  -11.4202 C   0  0  0  0  0  0  0  0  0  0  0  0
   26.2308  -20.6325  -12.6075 C   0  0  0  0  0  0  0  0  0  0  0  0
   25.5974  -21.3426  -13.7815 C   0  0  2  0  0  0  0  0  0  0  0  0
   26.5384  -21.2681  -14.8788 N   0  0  0  0  0  0  0  0  0  0  0  0
   24.3384  -20.7339  -14.2111 C   0  0  0  0  0  0  0  0  0  0  0  0
   24.3490  -19.6950  -14.9071 O   0  0  0  0  0  0  0  0  0  0  0  0
   24.0866  -20.0777  -11.4952 C   0  0  0  0  0  0  0  0  0  0  0  0
   23.2313  -20.0591  -10.3894 C   0  0  0  0  0  0  0  0  0  0  0  0
   23.0508  -21.2538  -13.8848 N   0  0  0  0  0  0  0  0  0  0  0  0
   21.8174  -20.7843  -14.4069 C   0  0  1  0  0  0  0  0  0  0  0  0
   21.6525  -20.9643  -15.8877 C   0  0  0  0  0  0  0  0  0  0  0  0
   20.3697  -20.4508  -16.3932 C   0  0  0  0  0  0  0  0  0  0  0  0
   19.6459  -19.6175  -15.7886 O   0  0  0  0  0  0  0  0  0  0  0  0
   20.6690  -21.3738  -13.6851 C   0  0  0  0  0  0  0  0  0  0  0  0
   19.6910  -20.5648  -13.1353 O   0  0  0  0  0  0  0  0  0  0  0  0
   19.9237  -20.9147  -17.6211 O   0  0  0  0  0  0  0  0  0  0  0  0
   20.5506  -22.6140  -13.5522 O   0  0  0  0  0  0  0  0  0  0  0  0
  2  1  1  1
  2  3  1  0
  3  4  1  0
  4  5  1  0
  5  9  1  0
  6  5  2  0
  7  2  1  0
  8  7  2  0
 10 11  1  0
 11 12  2  0
 12 13  1  0
 14 15  1  0
 14 13  2  0
 16 15  1  1
 16 18  1  0
 16 17  1  0
 17  7  1  0
 18 19  2  0
 20 14  1  0
 21 20  2  0
 21 11  1  0
 22 23  1  0
 22 18  1  0
 24 25  1  0
 23 24  1  6
 25 29  1  0
 26 25  2  0
 27 28  1  0
 27 23  1  0
 30 27  2  0
M  END
$$$$
