EYD.pdb
     RDKit          3D

 30 30  0  0  1  0  0  0  0  0999 V2000
   41.7033   -9.1455   -6.6737 N   0  0  0  0  0  0  0  0  0  0  0  0
   41.7033   -8.0628   -7.6703 C   0  0  1  0  0  0  0  0  0  0  0  0
   43.1295   -7.7520   -8.0320 C   0  0  0  0  0  0  0  0  0  0  0  0
   43.4975   -6.3281   -7.7771 C   0  0  0  0  0  0  0  0  0  0  0  0
   43.5978   -6.1400   -6.2829 C   0  0  0  0  0  0  0  0  0  0  0  0
   42.6285   -5.7299   -5.6050 O   0  0  0  0  0  0  0  0  0  0  0  0
   40.9275   -8.5601   -8.8256 C   0  0  0  0  0  0  0  0  0  0  0  0
   41.1366   -9.6986   -9.3664 O   0  0  0  0  0  0  0  0  0  0  0  0
   44.8355   -6.4525   -5.7151 O   0  0  0  0  0  0  0  0  0  0  0  0
   37.0094  -12.3330   -5.8664 O   0  0  0  0  0  0  0  0  0  0  0  0
   37.1630  -11.3785   -6.8752 C   0  0  0  0  0  0  0  0  0  0  0  0
   37.3166  -11.7424   -8.1785 C   0  0  0  0  0  0  0  0  0  0  0  0
   37.4700  -10.7861   -9.1854 C   0  0  0  0  0  0  0  0  0  0  0  0
   37.4700   -9.4441   -8.8867 C   0  0  0  0  0  0  0  0  0  0  0  0
   37.6308   -8.4103   -9.9349 C   0  0  0  0  0  0  0  0  0  0  0  0
   39.0406   -8.3696  -10.4775 C   0  0  2  0  0  0  0  0  0  0  0  0
   39.8786   -7.8130   -9.4367 N   0  0  0  0  0  0  0  0  0  0  0  0
   39.1735   -7.5358  -11.6721 C   0  0  0  0  0  0  0  0  0  0  0  0
   39.0846   -6.2916  -11.5822 O   0  0  0  0  0  0  0  0  0  0  0  0
   37.3147   -9.0795   -7.5694 C   0  0  0  0  0  0  0  0  0  0  0  0
   37.1611  -10.0352   -6.5607 C   0  0  0  0  0  0  0  0  0  0  0  0
   39.4056   -8.0522  -12.9814 N   0  0  0  0  0  0  0  0  0  0  0  0
   39.4320   -7.2855  -14.1755 C   0  0  1  0  0  0  0  0  0  0  0  0
   40.4939   -7.6874  -15.1570 C   0  0  0  0  0  0  0  0  0  0  0  0
   40.4789   -6.8810  -16.3875 C   0  0  0  0  0  0  0  0  0  0  0  0
   40.2501   -5.6441  -16.4281 O   0  0  0  0  0  0  0  0  0  0  0  0
   38.1061   -7.2649  -14.8304 C   0  0  0  0  0  0  0  0  0  0  0  0
   37.2524   -8.3484  -14.7288 O   0  0  0  0  0  0  0  0  0  0  0  0
   40.7340   -7.5249  -17.5884 O   0  0  0  0  0  0  0  0  0  0  0  0
   37.7217   -6.2723  -15.4912 O   0  0  0  0  0  0  0  0  0  0  0  0
  2  1  1  1
  2  3  1  0
  3  4  1  0
  4  5  1  0
  5  9  1  0
  6  5  2  0
  7  2  1  0
  8  7  2  0
 10 11  1  0
 11 12  2  0
 12 13  1  0
 14 15  1  0
 14 13  2  0
 16 15  1  1
 16 18  1  0
 16 17  1  0
 17  7  1  0
 18 19  2  0
 20 14  1  0
 21 20  2  0
 21 11  1  0
 22 23  1  0
 22 18  1  0
 24 25  1  0
 23 24  1  6
 25 29  1  0
 26 25  2  0
 27 28  1  0
 27 23  1  0
 30 27  2  0
M  END
$$$$
