EYD.pdb
     RDKit          3D

 30 30  0  0  1  0  0  0  0  0999 V2000
   17.5252  -12.8021  -15.6316 N   0  0  0  0  0  0  0  0  0  0  0  0
   17.6720  -11.4072  -16.0771 C   0  0  1  0  0  0  0  0  0  0  0  0
   16.5770  -10.5912  -15.4475 C   0  0  0  0  0  0  0  0  0  0  0  0
   15.2165  -10.9749  -15.9265 C   0  0  0  0  0  0  0  0  0  0  0  0
   14.5447  -11.7564  -14.8238 C   0  0  0  0  0  0  0  0  0  0  0  0
   14.2684  -12.9707  -14.9525 O   0  0  0  0  0  0  0  0  0  0  0  0
   19.0160  -10.9711  -15.6442 C   0  0  0  0  0  0  0  0  0  0  0  0
   19.4401  -11.1078  -14.4468 O   0  0  0  0  0  0  0  0  0  0  0  0
   14.2558  -11.0372  -13.6614 O   0  0  0  0  0  0  0  0  0  0  0  0
   27.6374   -9.3595  -15.6442 O   0  0  0  0  0  0  0  0  0  0  0  0
   26.3189   -9.6857  -15.9716 C   0  0  0  0  0  0  0  0  0  0  0  0
   25.6837   -9.1001  -17.0243 C   0  0  0  0  0  0  0  0  0  0  0  0
   24.3652   -9.4280  -17.3496 C   0  0  0  0  0  0  0  0  0  0  0  0
   23.6688  -10.3559  -16.6120 C   0  0  0  0  0  0  0  0  0  0  0  0
   22.2706  -10.7214  -16.9355 C   0  0  0  0  0  0  0  0  0  0  0  0
   21.2768   -9.9622  -16.0872 C   0  0  2  0  0  0  0  0  0  0  0  0
   19.9558  -10.3602  -16.5248 N   0  0  0  0  0  0  0  0  0  0  0  0
   21.3914   -8.5105  -16.2271 C   0  0  0  0  0  0  0  0  0  0  0  0
   21.2419   -7.9742  -17.3468 O   0  0  0  0  0  0  0  0  0  0  0  0
   24.3129  -10.9459  -15.5492 C   0  0  0  0  0  0  0  0  0  0  0  0
   25.6322  -10.6189  -15.2224 C   0  0  0  0  0  0  0  0  0  0  0  0
   21.6710   -7.6261  -15.1434 N   0  0  0  0  0  0  0  0  0  0  0  0
   21.8980   -6.2298  -15.2586 C   0  0  1  0  0  0  0  0  0  0  0  0
   20.9455   -5.3717  -14.4782 C   0  0  0  0  0  0  0  0  0  0  0  0
   19.5803   -5.3772  -15.0267 C   0  0  0  0  0  0  0  0  0  0  0  0
   19.3038   -5.4092  -16.2541 O   0  0  0  0  0  0  0  0  0  0  0  0
   23.2963   -5.8832  -14.9239 C   0  0  0  0  0  0  0  0  0  0  0  0
   23.8572   -6.2919  -13.7275 O   0  0  0  0  0  0  0  0  0  0  0  0
   18.5216   -5.3449  -14.1323 O   0  0  0  0  0  0  0  0  0  0  0  0
   24.0072   -5.2142  -15.7094 O   0  0  0  0  0  0  0  0  0  0  0  0
  2  1  1  1
  2  3  1  0
  3  4  1  0
  4  5  1  0
  5  9  1  0
  6  5  2  0
  7  2  1  0
  8  7  2  0
 10 11  1  0
 11 12  2  0
 12 13  1  0
 14 15  1  0
 14 13  2  0
 16 15  1  6
 16 18  1  0
 16 17  1  0
 17  7  1  0
 18 19  2  0
 20 14  1  0
 21 20  2  0
 21 11  1  0
 22 23  1  0
 22 18  1  0
 24 25  1  0
 23 24  1  1
 25 29  1  0
 26 25  2  0
 27 28  1  0
 27 23  1  0
 30 27  2  0
M  END
$$$$
