EYD.pdb
     RDKit          3D

 30 30  0  0  1  0  0  0  0  0999 V2000
   27.8801  -22.0895  -16.9670 N   0  0  0  0  0  0  0  0  0  0  0  0
   26.9167  -20.9812  -16.8708 C   0  0  1  0  0  0  0  0  0  0  0  0
   26.1179  -20.9362  -18.1441 C   0  0  0  0  0  0  0  0  0  0  0  0
   26.9447  -20.5914  -19.3379 C   0  0  0  0  0  0  0  0  0  0  0  0
   27.2716  -19.1199  -19.2608 C   0  0  0  0  0  0  0  0  0  0  0  0
   26.4649  -18.2911  -18.7817 O   0  0  0  0  0  0  0  0  0  0  0  0
   26.0742  -21.2632  -15.6900 C   0  0  0  0  0  0  0  0  0  0  0  0
   25.5105  -22.3923  -15.4906 O   0  0  0  0  0  0  0  0  0  0  0  0
   28.5247  -18.7514  -19.7565 O   0  0  0  0  0  0  0  0  0  0  0  0
   22.4401  -20.6497   -7.6499 O   0  0  0  0  0  0  0  0  0  0  0  0
   23.1668  -20.4151   -8.8200 C   0  0  0  0  0  0  0  0  0  0  0  0
   22.7044  -19.5732   -9.7853 C   0  0  0  0  0  0  0  0  0  0  0  0
   23.4329  -19.3403  -10.9545 C   0  0  0  0  0  0  0  0  0  0  0  0
   24.6432  -19.9579  -11.1638 C   0  0  0  0  0  0  0  0  0  0  0  0
   25.4351  -19.7284  -12.3940 C   0  0  0  0  0  0  0  0  0  0  0  0
   24.9528  -20.5814  -13.5444 C   0  0  2  0  0  0  0  0  0  0  0  0
   25.8172  -20.3002  -14.6709 N   0  0  0  0  0  0  0  0  0  0  0  0
   23.5738  -20.2914  -13.9372 C   0  0  0  0  0  0  0  0  0  0  0  0
   23.3165  -19.2776  -14.6227 O   0  0  0  0  0  0  0  0  0  0  0  0
   25.1078  -20.8078  -10.1870 C   0  0  0  0  0  0  0  0  0  0  0  0
   24.3800  -21.0420   -9.0165 C   0  0  0  0  0  0  0  0  0  0  0  0
   22.4578  -21.1069  -13.5851 N   0  0  0  0  0  0  0  0  0  0  0  0
   21.0994  -20.8099  -13.8698 C   0  0  1  0  0  0  0  0  0  0  0  0
   20.3192  -21.9454  -14.4652 C   0  0  0  0  0  0  0  0  0  0  0  0
   18.9326  -21.5825  -14.7975 C   0  0  0  0  0  0  0  0  0  0  0  0
   18.6041  -20.6158  -15.5334 O   0  0  0  0  0  0  0  0  0  0  0  0
   20.4047  -20.2765  -12.6780 C   0  0  0  0  0  0  0  0  0  0  0  0
   19.4641  -19.2700  -12.8016 O   0  0  0  0  0  0  0  0  0  0  0  0
   17.9138  -22.3572  -14.2649 O   0  0  0  0  0  0  0  0  0  0  0  0
   20.6472  -20.7182  -11.5309 O   0  0  0  0  0  0  0  0  0  0  0  0
  2  1  1  6
  2  3  1  0
  3  4  1  0
  4  5  1  0
  5  9  1  0
  6  5  2  0
  7  2  1  0
  8  7  2  0
 10 11  1  0
 11 12  2  0
 12 13  1  0
 14 15  1  0
 14 13  2  0
 16 15  1  1
 16 18  1  0
 16 17  1  0
 17  7  1  0
 18 19  2  0
 20 14  1  0
 21 20  2  0
 21 11  1  0
 22 23  1  0
 22 18  1  0
 24 25  1  0
 23 24  1  1
 25 29  1  0
 26 25  2  0
 27 28  1  0
 27 23  1  0
 30 27  2  0
M  END
$$$$
