EYD.pdb
     RDKit          3D

 30 30  0  0  1  0  0  0  0  0999 V2000
   25.2768  -12.7864  -15.5133 N   0  0  0  0  0  0  0  0  0  0  0  0
   25.4526  -12.2751  -16.8820 C   0  0  1  0  0  0  0  0  0  0  0  0
   25.4840  -13.4463  -17.8247 C   0  0  0  0  0  0  0  0  0  0  0  0
   24.3536  -14.3969  -17.6096 C   0  0  0  0  0  0  0  0  0  0  0  0
   23.6567  -14.5893  -18.9345 C   0  0  0  0  0  0  0  0  0  0  0  0
   22.4293  -14.3820  -19.0682 O   0  0  0  0  0  0  0  0  0  0  0  0
   24.3081  -11.3770  -17.1412 C   0  0  0  0  0  0  0  0  0  0  0  0
   24.1694  -10.7228  -18.2299 O   0  0  0  0  0  0  0  0  0  0  0  0
   24.4690  -15.0105  -19.9902 O   0  0  0  0  0  0  0  0  0  0  0  0
   15.9866   -8.7178  -17.5794 O   0  0  0  0  0  0  0  0  0  0  0  0
   17.1896   -9.3556  -17.2664 C   0  0  0  0  0  0  0  0  0  0  0  0
   17.5872   -9.5260  -15.9751 C   0  0  0  0  0  0  0  0  0  0  0  0
   18.7906  -10.1641  -15.6647 C   0  0  0  0  0  0  0  0  0  0  0  0
   19.6112  -10.6402  -16.6598 C   0  0  0  0  0  0  0  0  0  0  0  0
   20.8918  -11.3201  -16.3580 C   0  0  0  0  0  0  0  0  0  0  0  0
   22.0758  -10.3961  -16.5249 C   0  0  2  0  0  0  0  0  0  0  0  0
   23.2598  -11.1625  -16.1996 N   0  0  0  0  0  0  0  0  0  0  0  0
   22.0243   -9.2298  -15.6432 C   0  0  0  0  0  0  0  0  0  0  0  0
   22.3300   -9.3420  -14.4357 O   0  0  0  0  0  0  0  0  0  0  0  0
   19.2072  -10.4667  -17.9632 C   0  0  0  0  0  0  0  0  0  0  0  0
   18.0032   -9.8284  -18.2754 C   0  0  0  0  0  0  0  0  0  0  0  0
   21.6378   -7.9251  -16.0709 N   0  0  0  0  0  0  0  0  0  0  0  0
   21.5951   -6.7688  -15.2491 C   0  0  1  0  0  0  0  0  0  0  0  0
   22.1106   -5.5174  -15.8976 C   0  0  0  0  0  0  0  0  0  0  0  0
   22.0105   -4.3332  -15.0302 C   0  0  0  0  0  0  0  0  0  0  0  0
   21.8222   -4.3729  -13.7864 O   0  0  0  0  0  0  0  0  0  0  0  0
   20.2380   -6.5459  -14.7051 C   0  0  0  0  0  0  0  0  0  0  0  0
   20.0628   -6.0990  -13.4079 O   0  0  0  0  0  0  0  0  0  0  0  0
   22.1315   -3.0846  -15.6202 O   0  0  0  0  0  0  0  0  0  0  0  0
   19.2159   -6.7540  -15.3993 O   0  0  0  0  0  0  0  0  0  0  0  0
  2  1  1  1
  2  3  1  0
  3  4  1  0
  4  5  1  0
  5  9  1  0
  6  5  2  0
  7  2  1  0
  8  7  2  0
 10 11  1  0
 11 12  2  0
 12 13  1  0
 14 15  1  0
 14 13  2  0
 16 15  1  1
 16 18  1  0
 16 17  1  0
 17  7  1  0
 18 19  2  0
 20 14  1  0
 21 20  2  0
 21 11  1  0
 22 23  1  0
 22 18  1  0
 24 25  1  0
 23 24  1  6
 25 29  1  0
 26 25  2  0
 27 28  1  0
 27 23  1  0
 30 27  2  0
M  END
$$$$
