YMV.pdb
     RDKit          3D

 28 28  0  0  1  0  0  0  0  0999 V2000
   11.8131  -22.9674   18.7426 O   0  0  0  0  0  0  0  0  0  0  0  0
   11.7139  -21.8530   19.5608 C   0  0  0  0  0  0  0  0  0  0  0  0
   12.7538  -20.9464   19.6290 C   0  0  0  0  0  0  0  0  0  0  0  0
   12.6693  -19.8223   20.4462 C   0  0  0  0  0  0  0  0  0  0  0  0
   11.5468  -19.5735   21.2154 C   0  0  0  0  0  0  0  0  0  0  0  0
   11.5003  -18.3765   22.0616 C   0  0  0  0  0  0  0  0  0  0  0  0
   10.7149  -17.2451   21.4414 C   0  0  2  0  0  0  0  0  0  0  0  0
   11.5365  -16.5894   20.4309 N   0  0  0  0  0  0  0  0  0  0  0  0
   10.4063  -16.2817   22.5450 C   0  0  0  0  0  0  0  0  0  0  0  0
   11.1664  -15.2958   22.7259 O   0  0  0  0  0  0  0  0  0  0  0  0
   10.5209  -20.4630   21.1514 C   0  0  0  0  0  0  0  0  0  0  0  0
   10.5992  -21.5874   20.3374 C   0  0  0  0  0  0  0  0  0  0  0  0
    6.3015  -11.9120   26.3932 C   0  0  0  0  0  0  0  0  0  0  0  0
    7.0552  -12.9796   25.1688 S   0  0  0  0  0  0  0  0  0  0  0  0
    6.7953  -14.7541   25.5962 C   0  0  0  0  0  0  0  0  0  0  0  0
    7.4210  -15.5358   24.4918 C   0  0  0  0  0  0  0  0  0  0  0  0
    8.9252  -15.5382   24.4625 C   0  0  2  0  0  0  0  0  0  0  0  0
    9.2740  -16.4803   23.3720 N   0  0  0  0  0  0  0  0  0  0  0  0
    9.5769  -15.9404   25.7059 C   0  0  0  0  0  0  0  0  0  0  0  0
    9.6957  -17.1783   25.9485 O   0  0  0  0  0  0  0  0  0  0  0  0
   11.0125  -13.2066   28.4548 C   0  0  0  0  0  0  0  0  0  0  0  0
   10.7565  -14.6110   28.9817 C   0  0  1  0  0  0  0  0  0  0  0  0
    9.3476  -14.6043   29.5393 C   0  0  0  0  0  0  0  0  0  0  0  0
   10.8333  -15.5564   27.7901 C   0  0  2  0  0  0  0  0  0  0  0  0
   10.0922  -15.0390   26.6642 N   0  0  0  0  0  0  0  0  0  0  0  0
   10.2930  -16.8909   28.1352 C   0  0  0  0  0  0  0  0  0  0  0  0
   11.0027  -17.8098   28.8871 O   0  0  0  0  0  0  0  0  0  0  0  0
    9.1360  -17.2403   27.7423 O   0  0  0  0  0  0  0  0  0  0  0  0
  2 12  2  0
  2  1  1  0
  3  2  1  0
  4  5  1  0
  4  3  2  0
  5 11  2  0
  6  5  1  0
  7  6  1  0
  7  8  1  6
  9  7  1  0
  9 10  2  0
 11 12  1  0
 13 14  1  0
 14 15  1  0
 16 15  1  0
 17 16  1  1
 17 18  1  0
 18  9  1  0
 19 25  1  0
 19 17  1  0
 20 19  2  0
 22 21  1  6
 23 22  1  0
 24 25  1  6
 24 22  1  0
 26 24  1  0
 27 26  1  0
 28 26  2  0
M  END
$$$$
