YMV.pdb
     RDKit          3D

 28 28  0  0  1  0  0  0  0  0999 V2000
    4.0494  -23.3091   21.0541 O   0  0  0  0  0  0  0  0  0  0  0  0
    4.9407  -22.3198   21.4390 C   0  0  0  0  0  0  0  0  0  0  0  0
    4.5030  -21.2415   22.1831 C   0  0  0  0  0  0  0  0  0  0  0  0
    5.3860  -20.2399   22.5774 C   0  0  0  0  0  0  0  0  0  0  0  0
    6.7267  -20.2876   22.2402 C   0  0  0  0  0  0  0  0  0  0  0  0
    7.6215  -19.2108   22.6773 C   0  0  0  0  0  0  0  0  0  0  0  0
    7.3763  -17.9085   21.9525 C   0  0  2  0  0  0  0  0  0  0  0  0
    7.8507  -18.0283   20.5789 N   0  0  0  0  0  0  0  0  0  0  0  0
    8.1691  -16.8616   22.6715 C   0  0  0  0  0  0  0  0  0  0  0  0
    9.3820  -16.7043   22.3776 O   0  0  0  0  0  0  0  0  0  0  0  0
    7.1620  -21.3469   21.5080 C   0  0  0  0  0  0  0  0  0  0  0  0
    6.2853  -22.3504   21.1112 C   0  0  0  0  0  0  0  0  0  0  0  0
    6.7139  -11.0514   27.8713 C   0  0  0  0  0  0  0  0  0  0  0  0
    6.2755  -12.2607   26.6254 S   0  0  0  0  0  0  0  0  0  0  0  0
    7.7750  -13.1327   26.0007 C   0  0  0  0  0  0  0  0  0  0  0  0
    7.2800  -14.1571   25.0375 C   0  0  0  0  0  0  0  0  0  0  0  0
    8.3274  -15.0640   24.4511 C   0  0  2  0  0  0  0  0  0  0  0  0
    7.5591  -16.0615   23.6681 N   0  0  0  0  0  0  0  0  0  0  0  0
    9.1894  -15.7364   25.4193 C   0  0  0  0  0  0  0  0  0  0  0  0
    8.6768  -16.6229   26.1656 O   0  0  0  0  0  0  0  0  0  0  0  0
   13.5917  -17.3500   26.7503 C   0  0  0  0  0  0  0  0  0  0  0  0
   12.8207  -16.3842   25.8626 C   0  0  1  0  0  0  0  0  0  0  0  0
   12.8896  -16.9511   24.4591 C   0  0  0  0  0  0  0  0  0  0  0  0
   11.3770  -16.3865   26.3476 C   0  0  2  0  0  0  0  0  0  0  0  0
   10.5672  -15.4687   25.5817 N   0  0  0  0  0  0  0  0  0  0  0  0
   11.2959  -16.0057   27.7760 C   0  0  0  0  0  0  0  0  0  0  0  0
   11.4856  -16.9149   28.8009 O   0  0  0  0  0  0  0  0  0  0  0  0
   11.0437  -14.8059   28.1108 O   0  0  0  0  0  0  0  0  0  0  0  0
  2 12  2  0
  2  1  1  0
  3  2  1  0
  4  5  1  0
  4  3  2  0
  5 11  2  0
  6  5  1  0
  7  6  1  0
  7  8  1  6
  9  7  1  0
  9 10  2  0
 11 12  1  0
 13 14  1  0
 14 15  1  0
 16 15  1  0
 17 16  1  1
 17 18  1  0
 18  9  1  0
 19 25  1  0
 19 17  1  0
 20 19  2  0
 22 21  1  1
 23 22  1  0
 24 25  1  6
 24 22  1  0
 26 24  1  0
 27 26  1  0
 28 26  2  0
M  END
$$$$
