YMV.pdb
     RDKit          3D

 28 28  0  0  1  0  0  0  0  0999 V2000
   11.0542  -22.2121   18.1201 O   0  0  0  0  0  0  0  0  0  0  0  0
   11.0499  -21.0971   18.9436 C   0  0  0  0  0  0  0  0  0  0  0  0
    9.8974  -20.7311   19.6113 C   0  0  0  0  0  0  0  0  0  0  0  0
    9.8771  -19.6140   20.4420 C   0  0  0  0  0  0  0  0  0  0  0  0
   11.0043  -18.8340   20.6281 C   0  0  0  0  0  0  0  0  0  0  0  0
   10.9380  -17.6661   21.5129 C   0  0  0  0  0  0  0  0  0  0  0  0
    9.8698  -16.6782   21.1077 C   0  0  2  0  0  0  0  0  0  0  0  0
   10.3441  -15.8999   19.9695 N   0  0  0  0  0  0  0  0  0  0  0  0
    9.6529  -15.7753   22.2821 C   0  0  0  0  0  0  0  0  0  0  0  0
   10.3533  -14.7361   22.3916 O   0  0  0  0  0  0  0  0  0  0  0  0
   12.1407  -19.1904   19.9731 C   0  0  0  0  0  0  0  0  0  0  0  0
   12.1675  -20.3048   19.1421 C   0  0  0  0  0  0  0  0  0  0  0  0
    7.2456  -11.5995   26.1044 C   0  0  0  0  0  0  0  0  0  0  0  0
    6.1555  -12.7075   25.2150 S   0  0  0  0  0  0  0  0  0  0  0  0
    6.4079  -14.4516   25.7570 C   0  0  0  0  0  0  0  0  0  0  0  0
    6.9316  -15.1777   24.5650 C   0  0  0  0  0  0  0  0  0  0  0  0
    8.4294  -15.2214   24.4314 C   0  0  2  0  0  0  0  0  0  0  0  0
    8.6723  -16.0896   23.2543 N   0  0  0  0  0  0  0  0  0  0  0  0
    9.1490  -15.7336   25.5944 C   0  0  0  0  0  0  0  0  0  0  0  0
    9.2999  -16.9868   25.7031 O   0  0  0  0  0  0  0  0  0  0  0  0
   11.4335  -15.3223   29.9022 C   0  0  0  0  0  0  0  0  0  0  0  0
   10.3792  -14.7603   28.9599 C   0  0  1  0  0  0  0  0  0  0  0  0
   10.7518  -13.3109   28.7225 C   0  0  0  0  0  0  0  0  0  0  0  0
   10.4853  -15.5387   27.6551 C   0  0  2  0  0  0  0  0  0  0  0  0
    9.6967  -14.9230   26.6141 N   0  0  0  0  0  0  0  0  0  0  0  0
   10.0246  -16.9347   27.8304 C   0  0  0  0  0  0  0  0  0  0  0  0
   10.8873  -17.9697   28.1432 O   0  0  0  0  0  0  0  0  0  0  0  0
    8.7961  -17.2308   27.6956 O   0  0  0  0  0  0  0  0  0  0  0  0
  2 12  2  0
  2  1  1  0
  3  2  1  0
  4  5  1  0
  4  3  2  0
  5 11  2  0
  6  5  1  0
  7  6  1  0
  7  8  1  6
  9  7  1  0
  9 10  2  0
 11 12  1  0
 13 14  1  0
 14 15  1  0
 16 15  1  0
 17 16  1  1
 17 18  1  0
 18  9  1  0
 19 25  1  0
 19 17  1  0
 20 19  2  0
 22 21  1  1
 23 22  1  0
 24 25  1  6
 24 22  1  0
 26 24  1  0
 27 26  1  0
 28 26  2  0
M  END
$$$$
