YMV.pdb
     RDKit          3D

 28 28  0  0  1  0  0  0  0  0999 V2000
    2.8532  -24.0844   24.0063 O   0  0  0  0  0  0  0  0  0  0  0  0
    3.7388  -23.0299   23.8488 C   0  0  0  0  0  0  0  0  0  0  0  0
    3.6347  -21.9096   24.6501 C   0  0  0  0  0  0  0  0  0  0  0  0
    4.5166  -20.8423   24.5042 C   0  0  0  0  0  0  0  0  0  0  0  0
    5.5241  -20.8645   23.5566 C   0  0  0  0  0  0  0  0  0  0  0  0
    6.4313  -19.7182   23.4378 C   0  0  0  0  0  0  0  0  0  0  0  0
    5.7606  -18.4910   22.8672 C   0  0  2  0  0  0  0  0  0  0  0  0
    5.4408  -18.7286   21.4646 N   0  0  0  0  0  0  0  0  0  0  0  0
    6.7487  -17.3717   22.9778 C   0  0  0  0  0  0  0  0  0  0  0  0
    7.5254  -17.1447   22.0146 O   0  0  0  0  0  0  0  0  0  0  0  0
    5.6305  -21.9650   22.7658 C   0  0  0  0  0  0  0  0  0  0  0  0
    4.7529  -23.0342   22.9065 C   0  0  0  0  0  0  0  0  0  0  0  0
    5.7727  -12.1274   26.6160 C   0  0  0  0  0  0  0  0  0  0  0  0
    7.3204  -12.7341   27.2820 S   0  0  0  0  0  0  0  0  0  0  0  0
    8.2635  -13.6694   26.0034 C   0  0  0  0  0  0  0  0  0  0  0  0
    7.3099  -14.6684   25.4422 C   0  0  0  0  0  0  0  0  0  0  0  0
    7.8540  -15.5524   24.3533 C   0  0  2  0  0  0  0  0  0  0  0  0
    6.8057  -16.5814   24.1515 N   0  0  0  0  0  0  0  0  0  0  0  0
    9.1369  -16.1876   24.6422 C   0  0  0  0  0  0  0  0  0  0  0  0
    9.1590  -17.1476   25.4688 O   0  0  0  0  0  0  0  0  0  0  0  0
   13.7560  -17.2673   23.4080 C   0  0  0  0  0  0  0  0  0  0  0  0
   12.6210  -16.2703   23.2258 C   0  0  1  0  0  0  0  0  0  0  0  0
   12.1568  -16.4138   21.7906 C   0  0  0  0  0  0  0  0  0  0  0  0
   11.5030  -16.6879   24.1719 C   0  0  2  0  0  0  0  0  0  0  0  0
   10.3654  -15.8062   24.0575 N   0  0  0  0  0  0  0  0  0  0  0  0
   11.9657  -16.6781   25.5782 C   0  0  0  0  0  0  0  0  0  0  0  0
   11.9433  -15.5383   26.3615 O   0  0  0  0  0  0  0  0  0  0  0  0
   12.4075  -17.7396   26.1197 O   0  0  0  0  0  0  0  0  0  0  0  0
  2 12  2  0
  2  1  1  0
  3  2  1  0
  4  5  1  0
  4  3  2  0
  5 11  2  0
  6  5  1  0
  7  6  1  0
  7  8  1  6
  9  7  1  0
  9 10  2  0
 11 12  1  0
 13 14  1  0
 14 15  1  0
 16 15  1  0
 17 16  1  1
 17 18  1  0
 18  9  1  0
 19 25  1  0
 19 17  1  0
 20 19  2  0
 22 21  1  6
 23 22  1  0
 24 25  1  1
 24 22  1  0
 26 24  1  0
 27 26  1  0
 28 26  2  0
M  END
$$$$
