YMV.pdb
     RDKit          3D

 28 28  0  0  1  0  0  0  0  0999 V2000
    5.9056  -13.6544   16.9546 O   0  0  0  0  0  0  0  0  0  0  0  0
    6.9815  -14.0033   17.7557 C   0  0  0  0  0  0  0  0  0  0  0  0
    7.5233  -15.2716   17.6778 C   0  0  0  0  0  0  0  0  0  0  0  0
    8.6040  -15.6371   18.4758 C   0  0  0  0  0  0  0  0  0  0  0  0
    9.1718  -14.7484   19.3710 C   0  0  0  0  0  0  0  0  0  0  0  0
   10.3098  -15.1758   20.1917 C   0  0  0  0  0  0  0  0  0  0  0  0
    9.9691  -16.3108   21.1283 C   0  0  2  0  0  0  0  0  0  0  0  0
    8.6627  -16.8508   20.7710 N   0  0  0  0  0  0  0  0  0  0  0  0
    9.9155  -15.7283   22.5064 C   0  0  0  0  0  0  0  0  0  0  0  0
   10.9447  -15.1806   22.9790 O   0  0  0  0  0  0  0  0  0  0  0  0
    8.6419  -13.4992   19.4511 C   0  0  0  0  0  0  0  0  0  0  0  0
    7.5627  -13.1280   18.6570 C   0  0  0  0  0  0  0  0  0  0  0  0
    7.1410  -11.7395   27.6746 C   0  0  0  0  0  0  0  0  0  0  0  0
    7.6392  -12.6162   26.1947 S   0  0  0  0  0  0  0  0  0  0  0  0
    6.7743  -14.2398   26.0711 C   0  0  0  0  0  0  0  0  0  0  0  0
    7.1720  -14.8150   24.7546 C   0  0  0  0  0  0  0  0  0  0  0  0
    8.6197  -15.2014   24.6199 C   0  0  2  0  0  0  0  0  0  0  0  0
    8.7214  -15.7947   23.2649 N   0  0  0  0  0  0  0  0  0  0  0  0
    9.1148  -16.1414   25.6219 C   0  0  0  0  0  0  0  0  0  0  0  0
    8.6442  -17.3178   25.6259 O   0  0  0  0  0  0  0  0  0  0  0  0
   12.5970  -17.7609   28.6064 C   0  0  0  0  0  0  0  0  0  0  0  0
   12.1092  -16.6047   27.7459 C   0  0  1  0  0  0  0  0  0  0  0  0
   12.9572  -16.6233   26.4903 C   0  0  0  0  0  0  0  0  0  0  0  0
   10.6570  -16.8940   27.3896 C   0  0  2  0  0  0  0  0  0  0  0  0
   10.0925  -15.8301   26.5933 N   0  0  0  0  0  0  0  0  0  0  0  0
    9.8331  -17.0564   28.6090 C   0  0  0  0  0  0  0  0  0  0  0  0
    9.7775  -18.2431   29.3174 O   0  0  0  0  0  0  0  0  0  0  0  0
    9.1369  -16.0895   29.0510 O   0  0  0  0  0  0  0  0  0  0  0  0
  2 12  2  0
  2  1  1  0
  3  2  1  0
  4  5  1  0
  4  3  2  0
  5 11  2  0
  6  5  1  0
  7  6  1  0
  7  8  1  6
  9  7  1  0
  9 10  2  0
 11 12  1  0
 13 14  1  0
 14 15  1  0
 16 15  1  0
 17 16  1  1
 17 18  1  0
 18  9  1  0
 19 25  1  0
 19 17  1  0
 20 19  2  0
 22 21  1  1
 23 22  1  0
 24 25  1  6
 24 22  1  0
 26 24  1  0
 27 26  1  0
 28 26  2  0
M  END
$$$$
