YMV.pdb
     RDKit          3D

 28 28  0  0  1  0  0  0  0  0999 V2000
    8.2510  -22.3516   30.2600 O   0  0  0  0  0  0  0  0  0  0  0  0
    8.0072  -21.9493   28.9562 C   0  0  0  0  0  0  0  0  0  0  0  0
    7.7733  -20.6179   28.6722 C   0  0  0  0  0  0  0  0  0  0  0  0
    7.5269  -20.1983   27.3677 C   0  0  0  0  0  0  0  0  0  0  0  0
    7.5075  -21.0943   26.3141 C   0  0  0  0  0  0  0  0  0  0  0  0
    7.2444  -20.6082   24.9555 C   0  0  0  0  0  0  0  0  0  0  0  0
    5.9808  -19.7868   24.8567 C   0  0  2  0  0  0  0  0  0  0  0  0
    5.0309  -20.4720   23.9882 N   0  0  0  0  0  0  0  0  0  0  0  0
    6.3682  -18.4755   24.2468 C   0  0  0  0  0  0  0  0  0  0  0  0
    6.5120  -18.4003   22.9993 O   0  0  0  0  0  0  0  0  0  0  0  0
    7.7372  -22.4056   26.5888 C   0  0  0  0  0  0  0  0  0  0  0  0
    7.9839  -22.8311   27.8893 C   0  0  0  0  0  0  0  0  0  0  0  0
    7.0755  -10.8621   26.2649 C   0  0  0  0  0  0  0  0  0  0  0  0
    6.5178  -12.5509   26.4744 S   0  0  0  0  0  0  0  0  0  0  0  0
    7.3089  -13.6620   25.2339 C   0  0  0  0  0  0  0  0  0  0  0  0
    6.7640  -15.0240   25.4996 C   0  0  0  0  0  0  0  0  0  0  0  0
    7.2052  -16.1023   24.5478 C   0  0  2  0  0  0  0  0  0  0  0  0
    6.5695  -17.3377   25.0655 N   0  0  0  0  0  0  0  0  0  0  0  0
    8.6493  -16.2866   24.4332 C   0  0  0  0  0  0  0  0  0  0  0  0
    9.2517  -16.9022   25.3625 O   0  0  0  0  0  0  0  0  0  0  0  0
   12.7544  -16.5356   21.7711 C   0  0  0  0  0  0  0  0  0  0  0  0
   11.3456  -15.9637   21.8312 C   0  0  1  0  0  0  0  0  0  0  0  0
   10.5471  -16.6910   20.7684 C   0  0  0  0  0  0  0  0  0  0  0  0
   10.7875  -16.2939   23.2093 C   0  0  2  0  0  0  0  0  0  0  0  0
    9.4286  -15.8261   23.3482 N   0  0  0  0  0  0  0  0  0  0  0  0
   11.6082  -15.6777   24.2763 C   0  0  0  0  0  0  0  0  0  0  0  0
   12.7311  -16.2922   24.8005 O   0  0  0  0  0  0  0  0  0  0  0  0
   11.2989  -14.5411   24.7535 O   0  0  0  0  0  0  0  0  0  0  0  0
  2 12  2  0
  2  1  1  0
  3  2  1  0
  4  5  1  0
  4  3  2  0
  5 11  2  0
  6  5  1  0
  7  6  1  0
  7  8  1  6
  9  7  1  0
  9 10  2  0
 11 12  1  0
 13 14  1  0
 14 15  1  0
 16 15  1  0
 17 16  1  1
 17 18  1  0
 18  9  1  0
 19 25  1  0
 19 17  1  0
 20 19  2  0
 22 21  1  1
 23 22  1  0
 24 25  1  6
 24 22  1  0
 26 24  1  0
 27 26  1  0
 28 26  2  0
M  END
$$$$
