YMV.pdb
     RDKit          3D

 28 28  0  0  1  0  0  0  0  0999 V2000
    7.4459  -14.5245   15.0960 O   0  0  0  0  0  0  0  0  0  0  0  0
    7.9173  -14.4064   16.3941 C   0  0  0  0  0  0  0  0  0  0  0  0
    7.6022  -13.2934   17.1491 C   0  0  0  0  0  0  0  0  0  0  0  0
    8.0680  -13.1602   18.4543 C   0  0  0  0  0  0  0  0  0  0  0  0
    8.8590  -14.1323   19.0398 C   0  0  0  0  0  0  0  0  0  0  0  0
    9.3272  -13.9511   20.4178 C   0  0  0  0  0  0  0  0  0  0  0  0
    9.5629  -15.2577   21.1380 C   0  0  2  0  0  0  0  0  0  0  0  0
    8.4545  -16.1638   20.8611 N   0  0  0  0  0  0  0  0  0  0  0  0
    9.6027  -14.9402   22.6006 C   0  0  0  0  0  0  0  0  0  0  0  0
   10.5197  -14.1999   23.0406 O   0  0  0  0  0  0  0  0  0  0  0  0
    9.1717  -15.2294   18.3006 C   0  0  0  0  0  0  0  0  0  0  0  0
    8.7097  -15.3684   16.9966 C   0  0  0  0  0  0  0  0  0  0  0  0
    5.8007  -12.4468   27.1687 C   0  0  0  0  0  0  0  0  0  0  0  0
    6.6430  -12.4402   25.5883 S   0  0  0  0  0  0  0  0  0  0  0  0
    6.1688  -13.9130   24.5857 C   0  0  0  0  0  0  0  0  0  0  0  0
    6.9774  -15.0466   25.1179 C   0  0  0  0  0  0  0  0  0  0  0  0
    8.4579  -14.9712   24.8615 C   0  0  2  0  0  0  0  0  0  0  0  0
    8.6205  -15.4675   23.4739 N   0  0  0  0  0  0  0  0  0  0  0  0
    9.2938  -15.7442   25.7761 C   0  0  0  0  0  0  0  0  0  0  0  0
    9.8796  -16.7748   25.3286 O   0  0  0  0  0  0  0  0  0  0  0  0
   11.9585  -16.1856   29.8560 C   0  0  0  0  0  0  0  0  0  0  0  0
   10.7846  -15.4556   29.2199 C   0  0  1  0  0  0  0  0  0  0  0  0
   11.2480  -14.0324   28.9838 C   0  0  0  0  0  0  0  0  0  0  0  0
   10.5066  -16.1338   27.8850 C   0  0  2  0  0  0  0  0  0  0  0  0
    9.5003  -15.4193   27.1357 N   0  0  0  0  0  0  0  0  0  0  0  0
   10.0449  -17.5265   28.0828 C   0  0  0  0  0  0  0  0  0  0  0  0
   10.9048  -18.6091   28.0401 O   0  0  0  0  0  0  0  0  0  0  0  0
    8.8179  -17.7748   28.3021 O   0  0  0  0  0  0  0  0  0  0  0  0
  2 12  2  0
  2  1  1  0
  3  2  1  0
  4  5  1  0
  4  3  2  0
  5 11  2  0
  6  5  1  0
  7  6  1  0
  7  8  1  1
  9  7  1  0
  9 10  2  0
 11 12  1  0
 13 14  1  0
 14 15  1  0
 16 15  1  0
 17 16  1  1
 17 18  1  0
 18  9  1  0
 19 25  1  0
 19 17  1  0
 20 19  2  0
 22 21  1  6
 23 22  1  0
 24 25  1  1
 24 22  1  0
 26 24  1  0
 27 26  1  0
 28 26  2  0
M  END
$$$$
