YMV.pdb
     RDKit          3D

 28 28  0  0  1  0  0  0  0  0999 V2000
    9.9216  -19.6203   15.3387 O   0  0  0  0  0  0  0  0  0  0  0  0
   10.0498  -18.8167   16.4607 C   0  0  0  0  0  0  0  0  0  0  0  0
    8.9403  -18.1968   17.0017 C   0  0  0  0  0  0  0  0  0  0  0  0
    9.0528  -17.3866   18.1283 C   0  0  0  0  0  0  0  0  0  0  0  0
   10.2731  -17.1740   18.7439 C   0  0  0  0  0  0  0  0  0  0  0  0
   10.3455  -16.3132   19.9293 C   0  0  0  0  0  0  0  0  0  0  0  0
   10.0654  -17.0544   21.2152 C   0  0  2  0  0  0  0  0  0  0  0  0
    8.7235  -17.6219   21.1583 N   0  0  0  0  0  0  0  0  0  0  0  0
   10.1406  -16.0442   22.3176 C   0  0  0  0  0  0  0  0  0  0  0  0
   11.2138  -15.4123   22.4954 O   0  0  0  0  0  0  0  0  0  0  0  0
   11.3678  -17.7821   18.2151 C   0  0  0  0  0  0  0  0  0  0  0  0
   11.2621  -18.5923   17.0902 C   0  0  0  0  0  0  0  0  0  0  0  0
    5.2845  -11.9201   26.9576 C   0  0  0  0  0  0  0  0  0  0  0  0
    5.6609  -13.1588   25.7204 S   0  0  0  0  0  0  0  0  0  0  0  0
    7.4605  -13.5596   25.7192 C   0  0  0  0  0  0  0  0  0  0  0  0
    7.6790  -14.4529   24.5458 C   0  0  0  0  0  0  0  0  0  0  0  0
    9.0935  -14.9187   24.3326 C   0  0  2  0  0  0  0  0  0  0  0  0
    9.0178  -15.8058   23.1470 N   0  0  0  0  0  0  0  0  0  0  0  0
    9.6973  -15.6282   25.4572 C   0  0  0  0  0  0  0  0  0  0  0  0
    9.8239  -16.8862   25.3753 O   0  0  0  0  0  0  0  0  0  0  0  0
   11.8600  -13.6877   28.3577 C   0  0  0  0  0  0  0  0  0  0  0  0
   11.1983  -14.9645   28.8549 C   0  0  1  0  0  0  0  0  0  0  0  0
    9.9259  -14.5368   29.5577 C   0  0  0  0  0  0  0  0  0  0  0  0
   10.8525  -15.7963   27.6268 C   0  0  2  0  0  0  0  0  0  0  0  0
   10.1577  -15.0052   26.6389 N   0  0  0  0  0  0  0  0  0  0  0  0
    9.9992  -16.9503   27.9899 C   0  0  0  0  0  0  0  0  0  0  0  0
   10.5067  -18.0971   28.5736 O   0  0  0  0  0  0  0  0  0  0  0  0
    8.7476  -16.9218   27.7712 O   0  0  0  0  0  0  0  0  0  0  0  0
  2 12  2  0
  2  1  1  0
  3  2  1  0
  4  5  1  0
  4  3  2  0
  5 11  2  0
  6  5  1  0
  7  6  1  0
  7  8  1  6
  9  7  1  0
  9 10  2  0
 11 12  1  0
 13 14  1  0
 14 15  1  0
 16 15  1  0
 17 16  1  1
 17 18  1  0
 18  9  1  0
 19 25  1  0
 19 17  1  0
 20 19  2  0
 22 21  1  6
 23 22  1  0
 24 25  1  6
 24 22  1  0
 26 24  1  0
 27 26  1  0
 28 26  2  0
M  END
$$$$
