YMV.pdb
     RDKit          3D

 28 28  0  0  1  0  0  0  0  0999 V2000
    4.7073  -24.2766   24.7066 O   0  0  0  0  0  0  0  0  0  0  0  0
    5.4570  -23.1193   24.5666 C   0  0  0  0  0  0  0  0  0  0  0  0
    6.8366  -23.1840   24.5410 C   0  0  0  0  0  0  0  0  0  0  0  0
    7.6035  -22.0305   24.4009 C   0  0  0  0  0  0  0  0  0  0  0  0
    7.0152  -20.7841   24.2828 C   0  0  0  0  0  0  0  0  0  0  0  0
    7.8617  -19.5953   24.1365 C   0  0  0  0  0  0  0  0  0  0  0  0
    7.6188  -18.8530   22.8437 C   0  0  2  0  0  0  0  0  0  0  0  0
    8.2445  -19.5831   21.7475 N   0  0  0  0  0  0  0  0  0  0  0  0
    8.2660  -17.5111   22.9915 C   0  0  0  0  0  0  0  0  0  0  0  0
    9.4583  -17.3631   22.6187 O   0  0  0  0  0  0  0  0  0  0  0  0
    5.6578  -20.7156   24.3074 C   0  0  0  0  0  0  0  0  0  0  0  0
    4.8863  -21.8638   24.4471 C   0  0  0  0  0  0  0  0  0  0  0  0
    5.1424  -12.5506   26.2255 C   0  0  0  0  0  0  0  0  0  0  0  0
    6.8925  -12.2919   25.9481 S   0  0  0  0  0  0  0  0  0  0  0  0
    7.3567  -12.7407   24.2212 C   0  0  0  0  0  0  0  0  0  0  0  0
    7.0156  -14.1838   24.0687 C   0  0  0  0  0  0  0  0  0  0  0  0
    8.1700  -15.1009   23.7696 C   0  0  2  0  0  0  0  0  0  0  0  0
    7.5434  -16.4256   23.5438 N   0  0  0  0  0  0  0  0  0  0  0  0
    9.1856  -15.1937   24.8149 C   0  0  0  0  0  0  0  0  0  0  0  0
   10.3463  -14.7510   24.5654 O   0  0  0  0  0  0  0  0  0  0  0  0
   10.7917  -14.7939   29.2262 C   0  0  0  0  0  0  0  0  0  0  0  0
    9.6877  -14.6887   28.1844 C   0  0  1  0  0  0  0  0  0  0  0  0
    9.7553  -13.2778   27.6359 C   0  0  0  0  0  0  0  0  0  0  0  0
   10.0176  -15.6854   27.0811 C   0  0  2  0  0  0  0  0  0  0  0  0
    8.9626  -15.7436   26.0972 N   0  0  0  0  0  0  0  0  0  0  0  0
   10.2192  -17.0435   27.6351 C   0  0  0  0  0  0  0  0  0  0  0  0
   11.3555  -17.3993   28.3389 O   0  0  0  0  0  0  0  0  0  0  0  0
    9.3353  -17.9429   27.4770 O   0  0  0  0  0  0  0  0  0  0  0  0
  2 12  2  0
  2  1  1  0
  3  2  1  0
  4  5  1  0
  4  3  2  0
  5 11  2  0
  6  5  1  0
  7  6  1  0
  7  8  1  6
  9  7  1  0
  9 10  2  0
 11 12  1  0
 13 14  1  0
 14 15  1  0
 16 15  1  0
 17 16  1  1
 17 18  1  0
 18  9  1  0
 19 25  1  0
 19 17  1  0
 20 19  2  0
 22 21  1  1
 23 22  1  0
 24 25  1  6
 24 22  1  0
 26 24  1  0
 27 26  1  0
 28 26  2  0
M  END
$$$$
