YMV.pdb
     RDKit          3D

 28 28  0  0  1  0  0  0  0  0999 V2000
   10.7190  -15.1556   30.4604 O   0  0  0  0  0  0  0  0  0  0  0  0
    9.9815  -14.9799   29.3000 C   0  0  0  0  0  0  0  0  0  0  0  0
    9.2611  -16.0320   28.7687 C   0  0  0  0  0  0  0  0  0  0  0  0
    8.5156  -15.8713   27.6039 C   0  0  0  0  0  0  0  0  0  0  0  0
    8.4691  -14.6588   26.9397 C   0  0  0  0  0  0  0  0  0  0  0  0
    7.6702  -14.5342   25.7161 C   0  0  0  0  0  0  0  0  0  0  0  0
    6.9242  -15.8001   25.3664 C   0  0  2  0  0  0  0  0  0  0  0  0
    7.1634  -16.7984   26.4020 N   0  0  0  0  0  0  0  0  0  0  0  0
    7.4820  -16.2806   24.0629 C   0  0  0  0  0  0  0  0  0  0  0  0
    7.4843  -17.5142   23.8166 O   0  0  0  0  0  0  0  0  0  0  0  0
    9.1764  -13.6206   27.4590 C   0  0  0  0  0  0  0  0  0  0  0  0
    9.9229  -13.7746   28.6217 C   0  0  0  0  0  0  0  0  0  0  0  0
    8.7064  -12.5859   18.7494 C   0  0  0  0  0  0  0  0  0  0  0  0
    7.0318  -12.8022   19.3461 S   0  0  0  0  0  0  0  0  0  0  0  0
    6.9067  -14.2922   20.4247 C   0  0  0  0  0  0  0  0  0  0  0  0
    8.2882  -14.5553   20.9192 C   0  0  0  0  0  0  0  0  0  0  0  0
    8.4541  -15.7805   21.7763 C   0  0  2  0  0  0  0  0  0  0  0  0
    7.9992  -15.3568   23.1224 N   0  0  0  0  0  0  0  0  0  0  0  0
    9.8099  -16.3186   21.8471 C   0  0  0  0  0  0  0  0  0  0  0  0
   10.6608  -15.7105   22.5623 O   0  0  0  0  0  0  0  0  0  0  0  0
   13.0460  -19.9267   21.6194 C   0  0  0  0  0  0  0  0  0  0  0  0
   11.5906  -19.4994   21.4981 C   0  0  1  0  0  0  0  0  0  0  0  0
   10.9102  -19.9441   22.7769 C   0  0  0  0  0  0  0  0  0  0  0  0
   11.5769  -17.9790   21.4104 C   0  0  2  0  0  0  0  0  0  0  0  0
   10.2428  -17.4816   21.1713 N   0  0  0  0  0  0  0  0  0  0  0  0
   12.4588  -17.5018   20.3212 C   0  0  0  0  0  0  0  0  0  0  0  0
   13.7575  -17.0816   20.5447 O   0  0  0  0  0  0  0  0  0  0  0  0
   12.0399  -17.4626   19.1219 O   0  0  0  0  0  0  0  0  0  0  0  0
  2 12  2  0
  2  1  1  0
  3  2  1  0
  4  5  1  0
  4  3  2  0
  5 11  2  0
  6  5  1  0
  7  6  1  0
  7  8  1  1
  9  7  1  0
  9 10  2  0
 11 12  1  0
 13 14  1  0
 14 15  1  0
 16 15  1  0
 17 16  1  6
 17 18  1  0
 18  9  1  0
 19 25  1  0
 19 17  1  0
 20 19  2  0
 22 21  1  1
 23 22  1  0
 24 25  1  6
 24 22  1  0
 26 24  1  0
 27 26  1  0
 28 26  2  0
M  END
$$$$
