YMV.pdb
     RDKit          3D

 28 28  0  0  1  0  0  0  0  0999 V2000
    8.6565  -15.2955   14.2313 O   0  0  0  0  0  0  0  0  0  0  0  0
    8.6202  -14.8630   15.5476 C   0  0  0  0  0  0  0  0  0  0  0  0
    7.4100  -14.5988   16.1589 C   0  0  0  0  0  0  0  0  0  0  0  0
    7.3571  -14.1637   17.4805 C   0  0  0  0  0  0  0  0  0  0  0  0
    8.5081  -13.9813   18.2256 C   0  0  0  0  0  0  0  0  0  0  0  0
    8.4056  -13.5221   19.6148 C   0  0  0  0  0  0  0  0  0  0  0  0
    8.9247  -14.5324   20.6104 C   0  0  2  0  0  0  0  0  0  0  0  0
    8.2498  -15.8069   20.3956 N   0  0  0  0  0  0  0  0  0  0  0  0
    8.5887  -14.0056   21.9709 C   0  0  0  0  0  0  0  0  0  0  0  0
    7.8734  -12.9753   22.0679 O   0  0  0  0  0  0  0  0  0  0  0  0
    9.7013  -14.2401   17.6282 C   0  0  0  0  0  0  0  0  0  0  0  0
    9.7610  -14.6748   16.3089 C   0  0  0  0  0  0  0  0  0  0  0  0
    6.1904  -12.5199   27.6264 C   0  0  0  0  0  0  0  0  0  0  0  0
    6.2457  -12.7488   25.8512 S   0  0  0  0  0  0  0  0  0  0  0  0
    6.0964  -14.5339   25.4147 C   0  0  0  0  0  0  0  0  0  0  0  0
    6.9850  -14.7416   24.2359 C   0  0  0  0  0  0  0  0  0  0  0  0
    8.4458  -14.4607   24.4601 C   0  0  2  0  0  0  0  0  0  0  0  0
    9.0709  -14.6601   23.1305 N   0  0  0  0  0  0  0  0  0  0  0  0
    9.1011  -15.3017   25.4581 C   0  0  0  0  0  0  0  0  0  0  0  0
    9.4987  -16.4521   25.1063 O   0  0  0  0  0  0  0  0  0  0  0  0
   11.6346  -15.7537   29.6286 C   0  0  0  0  0  0  0  0  0  0  0  0
   10.4980  -15.0049   28.9483 C   0  0  1  0  0  0  0  0  0  0  0  0
   10.9834  -13.5827   28.7543 C   0  0  0  0  0  0  0  0  0  0  0  0
   10.2779  -15.6624   27.5923 C   0  0  2  0  0  0  0  0  0  0  0  0
    9.3283  -14.9184   26.7990 N   0  0  0  0  0  0  0  0  0  0  0  0
    9.7776  -17.0471   27.7483 C   0  0  0  0  0  0  0  0  0  0  0  0
   10.6154  -18.1476   27.7337 O   0  0  0  0  0  0  0  0  0  0  0  0
    8.5362  -17.2712   27.9034 O   0  0  0  0  0  0  0  0  0  0  0  0
  2 12  2  0
  2  1  1  0
  3  2  1  0
  4  5  1  0
  4  3  2  0
  5 11  2  0
  6  5  1  0
  7  6  1  0
  7  8  1  6
  9  7  1  0
  9 10  2  0
 11 12  1  0
 13 14  1  0
 14 15  1  0
 16 15  1  0
 17 16  1  6
 17 18  1  0
 18  9  1  0
 19 25  1  0
 19 17  1  0
 20 19  2  0
 22 21  1  1
 23 22  1  0
 24 25  1  6
 24 22  1  0
 26 24  1  0
 27 26  1  0
 28 26  2  0
M  END
$$$$
