KYG.pdb
     RDKit          3D

 26 26  0  0  1  0  0  0  0  0999 V2000
   29.1763  -13.1518  -20.1477 N   0  0  0  0  0  0  0  0  0  0  0  0
   30.4490  -13.2012  -19.4550 C   0  0  1  0  0  0  0  0  0  0  0  0
   31.4661  -13.8334  -20.3831 C   0  0  0  0  0  0  0  0  0  0  0  0
   31.0822  -15.2668  -20.5666 C   0  0  0  0  0  0  0  0  0  0  0  0
   32.1056  -16.0234  -21.3540 C   0  0  0  0  0  0  0  0  0  0  0  0
   31.6571  -17.4371  -21.6040 C   0  0  0  0  0  0  0  0  0  0  0  0
   32.7215  -18.1419  -22.2861 N   0  0  0  0  0  0  0  0  0  0  0  0
   30.8896  -11.8269  -19.1192 C   0  0  0  0  0  0  0  0  0  0  0  0
   30.5648  -10.8242  -19.8106 O   0  0  0  0  0  0  0  0  0  0  0  0
   33.6828   -4.3079  -16.0695 O   0  0  0  0  0  0  0  0  0  0  0  0
   33.1334   -5.5951  -16.1994 C   0  0  0  0  0  0  0  0  0  0  0  0
   32.1073   -5.8530  -17.0869 C   0  0  0  0  0  0  0  0  0  0  0  0
   31.5487   -7.1039  -17.2360 C   0  0  0  0  0  0  0  0  0  0  0  0
   32.0312   -8.1389  -16.4711 C   0  0  0  0  0  0  0  0  0  0  0  0
   31.5097   -9.5230  -16.5472 C   0  0  0  0  0  0  0  0  0  0  0  0
   32.1521  -10.2108  -17.6885 C   0  0  2  0  0  0  0  0  0  0  0  0
   31.7060  -11.5216  -18.0034 N   0  0  0  0  0  0  0  0  0  0  0  0
   33.6417  -10.2986  -17.5347 C   0  0  0  0  0  0  0  0  0  0  0  0
   34.2201  -11.2148  -16.9336 O   0  0  0  0  0  0  0  0  0  0  0  0
   33.0550   -7.8807  -15.5861 C   0  0  0  0  0  0  0  0  0  0  0  0
   33.6141   -6.6340  -15.4351 C   0  0  0  0  0  0  0  0  0  0  0  0
   34.4367   -9.2664  -18.1152 N   0  0  0  0  0  0  0  0  0  0  0  0
   35.8792   -9.2817  -18.0759 C   0  0  0  0  0  0  0  0  0  0  0  0
   36.4135   -8.0462  -18.6953 C   0  0  0  0  0  0  0  0  0  0  0  0
   37.2909   -7.1734  -18.0720 O   0  0  0  0  0  0  0  0  0  0  0  0
   36.0480   -7.7682  -19.8661 O   0  0  0  0  0  0  0  0  0  0  0  0
  2  1  1  6
  3  2  1  0
  4  3  1  0
  5  4  1  0
  5  6  1  0
  7  6  1  0
  8  9  2  0
  8  2  1  0
 10 11  1  0
 11 12  2  0
 12 13  1  0
 14 13  2  0
 14 15  1  0
 16 15  1  1
 16 17  1  0
 17  8  1  0
 18 16  1  0
 19 18  2  0
 20 14  1  0
 21 11  1  0
 21 20  2  0
 22 18  1  0
 23 22  1  0
 24 23  1  0
 24 25  1  0
 26 24  2  0
M  END
$$$$
