KYG.pdb
     RDKit          3D

 26 26  0  0  1  0  0  0  0  0999 V2000
   22.7576  -21.3282  -15.3805 N   0  0  0  0  0  0  0  0  0  0  0  0
   22.9536  -19.9421  -15.0028 C   0  0  1  0  0  0  0  0  0  0  0  0
   22.1553  -19.6802  -13.7419 C   0  0  0  0  0  0  0  0  0  0  0  0
   20.7233  -19.9898  -14.0402 C   0  0  0  0  0  0  0  0  0  0  0  0
   20.4309  -21.4527  -13.9212 C   0  0  0  0  0  0  0  0  0  0  0  0
   18.9723  -21.7324  -14.1587 C   0  0  0  0  0  0  0  0  0  0  0  0
   18.7652  -23.1639  -14.1036 N   0  0  0  0  0  0  0  0  0  0  0  0
   24.3885  -19.6969  -14.7263 C   0  0  0  0  0  0  0  0  0  0  0  0
   24.8254  -18.5708  -14.3656 O   0  0  0  0  0  0  0  0  0  0  0  0
   24.0277  -20.2287   -8.7255 O   0  0  0  0  0  0  0  0  0  0  0  0
   24.8037  -20.5261   -9.8591 C   0  0  0  0  0  0  0  0  0  0  0  0
   24.5317  -21.6259  -10.6486 C   0  0  0  0  0  0  0  0  0  0  0  0
   25.2745  -21.9428  -11.7652 C   0  0  0  0  0  0  0  0  0  0  0  0
   26.3299  -21.1323  -12.1091 C   0  0  0  0  0  0  0  0  0  0  0  0
   27.1954  -21.3737  -13.2865 C   0  0  0  0  0  0  0  0  0  0  0  0
   26.7256  -20.5254  -14.4036 C   0  0  2  0  0  0  0  0  0  0  0  0
   25.3856  -20.6956  -14.8415 N   0  0  0  0  0  0  0  0  0  0  0  0
   27.5877  -20.6621  -15.6235 C   0  0  0  0  0  0  0  0  0  0  0  0
   28.8237  -20.5750  -15.6079 O   0  0  0  0  0  0  0  0  0  0  0  0
   26.6005  -20.0352  -11.3209 C   0  0  0  0  0  0  0  0  0  0  0  0
   25.8613  -19.7166  -10.2065 C   0  0  0  0  0  0  0  0  0  0  0  0
   26.9454  -20.9072  -16.8732 N   0  0  0  0  0  0  0  0  0  0  0  0
   27.6693  -20.9672  -18.1202 C   0  0  0  0  0  0  0  0  0  0  0  0
   28.0179  -22.3728  -18.4337 C   0  0  0  0  0  0  0  0  0  0  0  0
   27.5884  -23.4685  -17.7022 O   0  0  0  0  0  0  0  0  0  0  0  0
   28.7534  -22.5894  -19.4306 O   0  0  0  0  0  0  0  0  0  0  0  0
  2  1  1  1
  3  2  1  0
  4  3  1  0
  5  4  1  0
  5  6  1  0
  7  6  1  0
  8  9  2  0
  8  2  1  0
 10 11  1  0
 11 12  2  0
 12 13  1  0
 14 13  2  0
 14 15  1  0
 16 15  1  1
 16 17  1  0
 17  8  1  0
 18 16  1  0
 19 18  2  0
 20 14  1  0
 21 11  1  0
 21 20  2  0
 22 18  1  0
 23 22  1  0
 24 23  1  0
 24 25  1  0
 26 24  2  0
M  END
$$$$
