KYG.pdb
     RDKit          3D

 26 26  0  0  1  0  0  0  0  0999 V2000
   22.2703  -12.1966  -17.1346 N   0  0  0  0  0  0  0  0  0  0  0  0
   21.4439  -11.0107  -17.2484 C   0  0  1  0  0  0  0  0  0  0  0  0
   20.0009  -11.4200  -17.0338 C   0  0  0  0  0  0  0  0  0  0  0  0
   19.6103  -12.3134  -18.1672 C   0  0  0  0  0  0  0  0  0  0  0  0
   18.1878  -12.7655  -18.0583 C   0  0  0  0  0  0  0  0  0  0  0  0
   17.8127  -13.6502  -19.2153 C   0  0  0  0  0  0  0  0  0  0  0  0
   16.4365  -14.0659  -19.0472 N   0  0  0  0  0  0  0  0  0  0  0  0
   21.8286  -10.0307  -16.2058 C   0  0  0  0  0  0  0  0  0  0  0  0
   21.8388  -10.3173  -14.9783 O   0  0  0  0  0  0  0  0  0  0  0  0
   27.0691   -6.8735  -19.7846 O   0  0  0  0  0  0  0  0  0  0  0  0
   26.3020   -7.0743  -18.6241 C   0  0  0  0  0  0  0  0  0  0  0  0
   26.1731   -8.3257  -18.0545 C   0  0  0  0  0  0  0  0  0  0  0  0
   25.4282   -8.5532  -16.9178 C   0  0  0  0  0  0  0  0  0  0  0  0
   24.7861   -7.4924  -16.3248 C   0  0  0  0  0  0  0  0  0  0  0  0
   23.9605   -7.6176  -15.1016 C   0  0  0  0  0  0  0  0  0  0  0  0
   22.5405   -7.7408  -15.4972 C   0  0  2  0  0  0  0  0  0  0  0  0
   22.2149   -8.6992  -16.4932 N   0  0  0  0  0  0  0  0  0  0  0  0
   21.9646   -6.4366  -15.9638 C   0  0  0  0  0  0  0  0  0  0  0  0
   21.9794   -6.0589  -17.1439 O   0  0  0  0  0  0  0  0  0  0  0  0
   24.9153   -6.2443  -16.8936 C   0  0  0  0  0  0  0  0  0  0  0  0
   25.6577   -6.0143  -18.0275 C   0  0  0  0  0  0  0  0  0  0  0  0
   21.3652   -5.5831  -14.9909 N   0  0  0  0  0  0  0  0  0  0  0  0
   20.8282   -4.2850  -15.3214 C   0  0  0  0  0  0  0  0  0  0  0  0
   20.1802   -3.6891  -14.1295 C   0  0  0  0  0  0  0  0  0  0  0  0
   19.5896   -2.4358  -14.1031 O   0  0  0  0  0  0  0  0  0  0  0  0
   20.1634   -4.3640  -13.0685 O   0  0  0  0  0  0  0  0  0  0  0  0
  2  1  1  1
  3  2  1  0
  4  3  1  0
  5  4  1  0
  5  6  1  0
  7  6  1  0
  8  9  2  0
  8  2  1  0
 10 11  1  0
 11 12  2  0
 12 13  1  0
 14 13  2  0
 14 15  1  0
 16 15  1  6
 16 17  1  0
 17  8  1  0
 18 16  1  0
 19 18  2  0
 20 14  1  0
 21 11  1  0
 21 20  2  0
 22 18  1  0
 23 22  1  0
 24 23  1  0
 24 25  1  0
 26 24  2  0
M  END
$$$$
