KYG.pdb
     RDKit          3D

 26 26  0  0  1  0  0  0  0  0999 V2000
   21.0822  -19.6342  -12.0764 N   0  0  0  0  0  0  0  0  0  0  0  0
   21.8702  -20.8231  -12.3364 C   0  0  1  0  0  0  0  0  0  0  0  0
   21.2957  -21.5109  -13.5582 C   0  0  0  0  0  0  0  0  0  0  0  0
   21.0852  -20.4675  -14.6082 C   0  0  0  0  0  0  0  0  0  0  0  0
   20.5312  -21.0488  -15.8711 C   0  0  0  0  0  0  0  0  0  0  0  0
   19.0571  -21.3169  -15.7403 C   0  0  0  0  0  0  0  0  0  0  0  0
   18.5750  -21.8507  -16.9964 N   0  0  0  0  0  0  0  0  0  0  0  0
   23.2752  -20.4419  -12.6122 C   0  0  0  0  0  0  0  0  0  0  0  0
   23.6375  -19.2416  -12.7432 O   0  0  0  0  0  0  0  0  0  0  0  0
   25.2223  -19.7771   -6.7079 O   0  0  0  0  0  0  0  0  0  0  0  0
   25.5829  -20.2128   -7.9947 C   0  0  0  0  0  0  0  0  0  0  0  0
   26.4087  -19.4584   -8.8045 C   0  0  0  0  0  0  0  0  0  0  0  0
   26.7791  -19.8592  -10.0698 C   0  0  0  0  0  0  0  0  0  0  0  0
   26.3085  -21.0590  -10.5475 C   0  0  0  0  0  0  0  0  0  0  0  0
   26.6408  -21.5908  -11.8893 C   0  0  0  0  0  0  0  0  0  0  0  0
   25.6930  -21.0239  -12.8733 C   0  0  2  0  0  0  0  0  0  0  0  0
   24.3244  -21.3824  -12.7517 N   0  0  0  0  0  0  0  0  0  0  0  0
   26.0859  -21.3360  -14.2870 C   0  0  0  0  0  0  0  0  0  0  0  0
   26.3237  -22.4798  -14.7002 O   0  0  0  0  0  0  0  0  0  0  0  0
   25.4847  -21.8111   -9.7389 C   0  0  0  0  0  0  0  0  0  0  0  0
   25.1135  -21.4138   -8.4763 C   0  0  0  0  0  0  0  0  0  0  0  0
   26.1909  -20.2517  -15.2076 N   0  0  0  0  0  0  0  0  0  0  0  0
   26.5739  -20.4376  -16.5865 C   0  0  0  0  0  0  0  0  0  0  0  0
   26.5901  -19.1313  -17.2858 C   0  0  0  0  0  0  0  0  0  0  0  0
   27.7100  -18.3255  -17.4150 O   0  0  0  0  0  0  0  0  0  0  0  0
   25.5162  -18.7235  -17.7977 O   0  0  0  0  0  0  0  0  0  0  0  0
  2  1  1  6
  3  2  1  0
  4  3  1  0
  5  4  1  0
  5  6  1  0
  7  6  1  0
  8  9  2  0
  8  2  1  0
 10 11  1  0
 11 12  2  0
 12 13  1  0
 14 13  2  0
 14 15  1  0
 16 15  1  1
 16 17  1  0
 17  8  1  0
 18 16  1  0
 19 18  2  0
 20 14  1  0
 21 11  1  0
 21 20  2  0
 22 18  1  0
 23 22  1  0
 24 23  1  0
 24 25  1  0
 26 24  2  0
M  END
$$$$
