KYG.pdb
     RDKit          3D

 26 26  0  0  1  0  0  0  0  0999 V2000
   26.8648  -22.5660  -18.6145 N   0  0  0  0  0  0  0  0  0  0  0  0
   26.2644  -21.3444  -18.1150 C   0  0  1  0  0  0  0  0  0  0  0  0
   24.9342  -21.1532  -18.8148 C   0  0  0  0  0  0  0  0  0  0  0  0
   25.1206  -20.1033  -19.8628 C   0  0  0  0  0  0  0  0  0  0  0  0
   25.8963  -20.6154  -21.0357 C   0  0  0  0  0  0  0  0  0  0  0  0
   26.1011  -19.5341  -22.0608 C   0  0  0  0  0  0  0  0  0  0  0  0
   26.9112  -20.0682  -23.1349 N   0  0  0  0  0  0  0  0  0  0  0  0
   26.0311  -21.4615  -16.6565 C   0  0  0  0  0  0  0  0  0  0  0  0
   25.6240  -22.5269  -16.1196 O   0  0  0  0  0  0  0  0  0  0  0  0
   25.3911  -20.7860   -8.0825 O   0  0  0  0  0  0  0  0  0  0  0  0
   25.7728  -20.5349   -9.4117 C   0  0  0  0  0  0  0  0  0  0  0  0
   25.3120  -19.4271  -10.0954 C   0  0  0  0  0  0  0  0  0  0  0  0
   25.6685  -19.1550  -11.3984 C   0  0  0  0  0  0  0  0  0  0  0  0
   26.5175  -20.0203  -12.0461 C   0  0  0  0  0  0  0  0  0  0  0  0
   26.9689  -19.8287  -13.4437 C   0  0  0  0  0  0  0  0  0  0  0  0
   26.0098  -20.4985  -14.3489 C   0  0  2  0  0  0  0  0  0  0  0  0
   26.2424  -20.3978  -15.7461 N   0  0  0  0  0  0  0  0  0  0  0  0
   24.5992  -20.0408  -14.1229 C   0  0  0  0  0  0  0  0  0  0  0  0
   24.1444  -18.9708  -14.5512 O   0  0  0  0  0  0  0  0  0  0  0  0
   26.9768  -21.1251  -11.3633 C   0  0  0  0  0  0  0  0  0  0  0  0
   26.6229  -21.3993  -10.0635 C   0  0  0  0  0  0  0  0  0  0  0  0
   23.7326  -20.8885  -13.3714 N   0  0  0  0  0  0  0  0  0  0  0  0
   22.4139  -20.4773  -12.9536 C   0  0  0  0  0  0  0  0  0  0  0  0
   21.4067  -20.9381  -13.9379 C   0  0  0  0  0  0  0  0  0  0  0  0
   21.4697  -20.6877  -15.2993 O   0  0  0  0  0  0  0  0  0  0  0  0
   20.4270  -21.6018  -13.5119 O   0  0  0  0  0  0  0  0  0  0  0  0
  2  1  1  6
  3  2  1  0
  4  3  1  0
  5  4  1  0
  5  6  1  0
  7  6  1  0
  8  9  2  0
  8  2  1  0
 10 11  1  0
 11 12  2  0
 12 13  1  0
 14 13  2  0
 14 15  1  0
 16 15  1  1
 16 17  1  0
 17  8  1  0
 18 16  1  0
 19 18  2  0
 20 14  1  0
 21 11  1  0
 21 20  2  0
 22 18  1  0
 23 22  1  0
 24 23  1  0
 24 25  1  0
 26 24  2  0
M  END
$$$$
