KYG.pdb
     RDKit          3D

 26 26  0  0  1  0  0  0  0  0999 V2000
   24.7570  -24.5399  -15.2367 N   0  0  0  0  0  0  0  0  0  0  0  0
   25.9683  -23.8201  -15.5786 C   0  0  1  0  0  0  0  0  0  0  0  0
   26.1963  -23.9636  -17.0697 C   0  0  0  0  0  0  0  0  0  0  0  0
   26.8626  -25.2820  -17.3011 C   0  0  0  0  0  0  0  0  0  0  0  0
   28.2805  -25.2836  -16.8224 C   0  0  0  0  0  0  0  0  0  0  0  0
   28.9965  -26.5316  -17.2607 C   0  0  0  0  0  0  0  0  0  0  0  0
   28.7667  -27.5632  -16.2717 N   0  0  0  0  0  0  0  0  0  0  0  0
   25.8068  -22.3844  -15.2502 C   0  0  0  0  0  0  0  0  0  0  0  0
   24.6760  -21.8383  -15.1404 O   0  0  0  0  0  0  0  0  0  0  0  0
   24.2614  -21.3241   -9.0926 O   0  0  0  0  0  0  0  0  0  0  0  0
   25.0496  -20.9120  -10.1810 C   0  0  0  0  0  0  0  0  0  0  0  0
   26.2993  -21.4533  -10.4099 C   0  0  0  0  0  0  0  0  0  0  0  0
   27.0945  -21.0693  -11.4678 C   0  0  0  0  0  0  0  0  0  0  0  0
   26.6266  -20.1084  -12.3320 C   0  0  0  0  0  0  0  0  0  0  0  0
   27.3920  -19.6196  -13.5020 C   0  0  0  0  0  0  0  0  0  0  0  0
   26.7510  -20.1270  -14.7348 C   0  0  2  0  0  0  0  0  0  0  0  0
   26.8972  -21.5077  -15.0329 N   0  0  0  0  0  0  0  0  0  0  0  0
   27.1998  -19.3825  -15.9573 C   0  0  0  0  0  0  0  0  0  0  0  0
   28.2833  -19.5791  -16.5255 O   0  0  0  0  0  0  0  0  0  0  0  0
   25.3798  -19.5691  -12.1030 C   0  0  0  0  0  0  0  0  0  0  0  0
   24.5843  -19.9500  -11.0485 C   0  0  0  0  0  0  0  0  0  0  0  0
   26.3268  -18.3914  -16.4958 N   0  0  0  0  0  0  0  0  0  0  0  0
   26.6453  -17.6390  -17.6853 C   0  0  0  0  0  0  0  0  0  0  0  0
   26.1337  -18.3474  -18.8820 C   0  0  0  0  0  0  0  0  0  0  0  0
   24.7911  -18.4918  -19.1928 O   0  0  0  0  0  0  0  0  0  0  0  0
   26.9725  -18.8530  -19.6710 O   0  0  0  0  0  0  0  0  0  0  0  0
  2  1  1  6
  3  2  1  0
  4  3  1  0
  5  4  1  0
  5  6  1  0
  7  6  1  0
  8  9  2  0
  8  2  1  0
 10 11  1  0
 11 12  2  0
 12 13  1  0
 14 13  2  0
 14 15  1  0
 16 15  1  1
 16 17  1  0
 17  8  1  0
 18 16  1  0
 19 18  2  0
 20 14  1  0
 21 11  1  0
 21 20  2  0
 22 18  1  0
 23 22  1  0
 24 23  1  0
 24 25  1  0
 26 24  2  0
M  END
$$$$
