KYG.pdb
     RDKit          3D

 26 26  0  0  1  0  0  0  0  0999 V2000
   23.5511  -15.1630  -19.5527 N   0  0  0  0  0  0  0  0  0  0  0  0
   22.3175  -14.7170  -18.9351 C   0  0  1  0  0  0  0  0  0  0  0  0
   22.2581  -15.2908  -17.5340 C   0  0  0  0  0  0  0  0  0  0  0  0
   22.0550  -16.7669  -17.6574 C   0  0  0  0  0  0  0  0  0  0  0  0
   21.7798  -17.4062  -16.3325 C   0  0  0  0  0  0  0  0  0  0  0  0
   21.5195  -18.8794  -16.4880 C   0  0  0  0  0  0  0  0  0  0  0  0
   21.2751  -19.4426  -15.1772 N   0  0  0  0  0  0  0  0  0  0  0  0
   22.3054  -13.2377  -18.8526 C   0  0  0  0  0  0  0  0  0  0  0  0
   23.3613  -12.5570  -18.7496 O   0  0  0  0  0  0  0  0  0  0  0  0
   20.6105   -4.7597  -19.0629 O   0  0  0  0  0  0  0  0  0  0  0  0
   20.5871   -6.1449  -19.3002 C   0  0  0  0  0  0  0  0  0  0  0  0
   21.6658   -6.7962  -19.8651 C   0  0  0  0  0  0  0  0  0  0  0  0
   21.6719   -8.1523  -20.1098 C   0  0  0  0  0  0  0  0  0  0  0  0
   20.5598   -8.8889  -19.7787 C   0  0  0  0  0  0  0  0  0  0  0  0
   20.4542  -10.3505  -19.9941 C   0  0  0  0  0  0  0  0  0  0  0  0
   21.1017  -11.0460  -18.8605 C   0  0  2  0  0  0  0  0  0  0  0  0
   21.1188  -12.4657  -18.8818 N   0  0  0  0  0  0  0  0  0  0  0  0
   20.5113  -10.6519  -17.5390 C   0  0  0  0  0  0  0  0  0  0  0  0
   19.5104  -11.1884  -17.0433 O   0  0  0  0  0  0  0  0  0  0  0  0
   19.4841   -8.2384  -19.2150 C   0  0  0  0  0  0  0  0  0  0  0  0
   19.4751   -6.8858  -18.9699 C   0  0  0  0  0  0  0  0  0  0  0  0
   21.1405   -9.5983  -16.8121 N   0  0  0  0  0  0  0  0  0  0  0  0
   20.6946   -9.1827  -15.5040 C   0  0  0  0  0  0  0  0  0  0  0  0
   21.5243   -8.0528  -15.0239 C   0  0  0  0  0  0  0  0  0  0  0  0
   21.3257   -7.3893  -13.8238 O   0  0  0  0  0  0  0  0  0  0  0  0
   22.4741   -7.6676  -15.7528 O   0  0  0  0  0  0  0  0  0  0  0  0
  2  1  1  1
  3  2  1  0
  4  3  1  0
  5  4  1  0
  5  6  1  0
  7  6  1  0
  8  9  2  0
  8  2  1  0
 10 11  1  0
 11 12  2  0
 12 13  1  0
 14 13  2  0
 14 15  1  0
 16 15  1  6
 16 17  1  0
 17  8  1  0
 18 16  1  0
 19 18  2  0
 20 14  1  0
 21 11  1  0
 21 20  2  0
 22 18  1  0
 23 22  1  0
 24 23  1  0
 24 25  1  0
 26 24  2  0
M  END
$$$$
