KYG.pdb
     RDKit          3D

 26 26  0  0  1  0  0  0  0  0999 V2000
   21.3593  -20.1655  -11.3101 N   0  0  0  0  0  0  0  0  0  0  0  0
   22.0069  -20.7129  -12.4861 C   0  0  1  0  0  0  0  0  0  0  0  0
   21.4322  -20.0208  -13.7053 C   0  0  0  0  0  0  0  0  0  0  0  0
   21.2379  -21.0575  -14.7650 C   0  0  0  0  0  0  0  0  0  0  0  0
   20.5720  -22.2862  -14.2298 C   0  0  0  0  0  0  0  0  0  0  0  0
   20.3377  -23.2925  -15.3228 C   0  0  0  0  0  0  0  0  0  0  0  0
   19.7484  -24.4774  -14.7365 N   0  0  0  0  0  0  0  0  0  0  0  0
   23.4638  -20.4503  -12.4230 C   0  0  0  0  0  0  0  0  0  0  0  0
   23.9364  -19.2937  -12.2560 O   0  0  0  0  0  0  0  0  0  0  0  0
   26.1630  -19.0887   -6.5133 O   0  0  0  0  0  0  0  0  0  0  0  0
   26.2523  -19.8083   -7.7174 C   0  0  0  0  0  0  0  0  0  0  0  0
   25.2848  -20.7237   -8.0818 C   0  0  0  0  0  0  0  0  0  0  0  0
   25.3454  -21.4438   -9.2552 C   0  0  0  0  0  0  0  0  0  0  0  0
   26.4118  -21.2442  -10.0990 C   0  0  0  0  0  0  0  0  0  0  0  0
   26.5809  -21.9594  -11.3849 C   0  0  0  0  0  0  0  0  0  0  0  0
   25.8401  -21.2286  -12.4362 C   0  0  2  0  0  0  0  0  0  0  0  0
   24.4440  -21.4649  -12.5435 N   0  0  0  0  0  0  0  0  0  0  0  0
   26.4128  -21.4621  -13.8028 C   0  0  0  0  0  0  0  0  0  0  0  0
   27.6251  -21.4302  -14.0572 O   0  0  0  0  0  0  0  0  0  0  0  0
   27.3766  -20.3307   -9.7348 C   0  0  0  0  0  0  0  0  0  0  0  0
   27.3188  -19.6110   -8.5649 C   0  0  0  0  0  0  0  0  0  0  0  0
   25.5075  -21.7372  -14.8701 N   0  0  0  0  0  0  0  0  0  0  0  0
   25.9541  -22.0887  -16.1966 C   0  0  0  0  0  0  0  0  0  0  0  0
   25.8220  -20.9208  -17.0990 C   0  0  0  0  0  0  0  0  0  0  0  0
   25.3648  -19.6736  -16.7046 O   0  0  0  0  0  0  0  0  0  0  0  0
   26.1460  -21.0683  -18.3052 O   0  0  0  0  0  0  0  0  0  0  0  0
  2  1  1  1
  3  2  1  0
  4  3  1  0
  5  4  1  0
  5  6  1  0
  7  6  1  0
  8  9  2  0
  8  2  1  0
 10 11  1  0
 11 12  2  0
 12 13  1  0
 14 13  2  0
 14 15  1  0
 16 15  1  1
 16 17  1  0
 17  8  1  0
 18 16  1  0
 19 18  2  0
 20 14  1  0
 21 11  1  0
 21 20  2  0
 22 18  1  0
 23 22  1  0
 24 23  1  0
 24 25  1  0
 26 24  2  0
M  END
$$$$
