KYG.pdb
     RDKit          3D

 26 26  0  0  1  0  0  0  0  0999 V2000
   25.8153  -24.5661  -16.5130 N   0  0  0  0  0  0  0  0  0  0  0  0
   25.4428  -23.1798  -16.3089 C   0  0  1  0  0  0  0  0  0  0  0  0
   24.0334  -22.9891  -16.8315 C   0  0  0  0  0  0  0  0  0  0  0  0
   24.0803  -21.9277  -17.8836 C   0  0  0  0  0  0  0  0  0  0  0  0
   25.4263  -21.8424  -18.5323 C   0  0  0  0  0  0  0  0  0  0  0  0
   25.4569  -20.7547  -19.5705 C   0  0  0  0  0  0  0  0  0  0  0  0
   26.7684  -20.7420  -20.1827 N   0  0  0  0  0  0  0  0  0  0  0  0
   25.4688  -22.8624  -14.8619 C   0  0  0  0  0  0  0  0  0  0  0  0
   25.3920  -23.7523  -13.9723 O   0  0  0  0  0  0  0  0  0  0  0  0
   27.2046  -20.2045   -6.9173 O   0  0  0  0  0  0  0  0  0  0  0  0
   27.0993  -20.2347   -8.3186 C   0  0  0  0  0  0  0  0  0  0  0  0
   26.0569  -19.6111   -8.9753 C   0  0  0  0  0  0  0  0  0  0  0  0
   25.9272  -19.6237  -10.3471 C   0  0  0  0  0  0  0  0  0  0  0  0
   26.8733  -20.2836  -11.0945 C   0  0  0  0  0  0  0  0  0  0  0  0
   26.8371  -20.3621  -12.5731 C   0  0  0  0  0  0  0  0  0  0  0  0
   25.7166  -21.2402  -12.9751 C   0  0  2  0  0  0  0  0  0  0  0  0
   25.5811  -21.5449  -14.3554 N   0  0  0  0  0  0  0  0  0  0  0  0
   24.3874  -20.7068  -12.5292 C   0  0  0  0  0  0  0  0  0  0  0  0
   24.2032  -20.1298  -11.4482 O   0  0  0  0  0  0  0  0  0  0  0  0
   27.9130  -20.9054  -10.4386 C   0  0  0  0  0  0  0  0  0  0  0  0
   28.0449  -20.8945   -9.0703 C   0  0  0  0  0  0  0  0  0  0  0  0
   23.2718  -20.8743  -13.4021 N   0  0  0  0  0  0  0  0  0  0  0  0
   21.9523  -20.3878  -13.0785 C   0  0  0  0  0  0  0  0  0  0  0  0
   21.0745  -21.5215  -12.7046 C   0  0  0  0  0  0  0  0  0  0  0  0
   19.8120  -21.3853  -12.1499 O   0  0  0  0  0  0  0  0  0  0  0  0
   21.5015  -22.6878  -12.9028 O   0  0  0  0  0  0  0  0  0  0  0  0
  2  1  1  1
  3  2  1  0
  4  3  1  0
  5  4  1  0
  5  6  1  0
  7  6  1  0
  8  9  2  0
  8  2  1  0
 10 11  1  0
 11 12  2  0
 12 13  1  0
 14 13  2  0
 14 15  1  0
 16 15  1  6
 16 17  1  0
 17  8  1  0
 18 16  1  0
 19 18  2  0
 20 14  1  0
 21 11  1  0
 21 20  2  0
 22 18  1  0
 23 22  1  0
 24 23  1  0
 24 25  1  0
 26 24  2  0
M  END
$$$$
