KYG.pdb
     RDKit          3D

 26 26  0  0  1  0  0  0  0  0999 V2000
   28.2923  -23.6118  -17.6914 N   0  0  0  0  0  0  0  0  0  0  0  0
   28.2750  -22.2108  -17.3183 C   0  0  1  0  0  0  0  0  0  0  0  0
   27.5315  -21.4461  -18.3945 C   0  0  0  0  0  0  0  0  0  0  0  0
   28.5460  -20.9172  -19.3571 C   0  0  0  0  0  0  0  0  0  0  0  0
   27.9122  -20.1324  -20.4626 C   0  0  0  0  0  0  0  0  0  0  0  0
   28.9528  -19.5788  -21.3967 C   0  0  0  0  0  0  0  0  0  0  0  0
   28.2835  -18.8134  -22.4268 N   0  0  0  0  0  0  0  0  0  0  0  0
   27.5643  -22.0450  -16.0288 C   0  0  0  0  0  0  0  0  0  0  0  0
   26.7007  -22.8680  -15.6214 O   0  0  0  0  0  0  0  0  0  0  0  0
   24.9177  -20.4980   -8.0078 O   0  0  0  0  0  0  0  0  0  0  0  0
   25.6747  -20.4299   -9.1902 C   0  0  0  0  0  0  0  0  0  0  0  0
   25.7619  -19.2623   -9.9224 C   0  0  0  0  0  0  0  0  0  0  0  0
   26.4956  -19.1654  -11.0847 C   0  0  0  0  0  0  0  0  0  0  0  0
   27.1693  -20.2753  -11.5358 C   0  0  0  0  0  0  0  0  0  0  0  0
   27.9889  -20.2880  -12.7694 C   0  0  0  0  0  0  0  0  0  0  0  0
   27.1735  -20.8345  -13.8760 C   0  0  2  0  0  0  0  0  0  0  0  0
   27.7899  -20.9586  -15.1492 N   0  0  0  0  0  0  0  0  0  0  0  0
   25.9121  -20.0525  -14.0934 C   0  0  0  0  0  0  0  0  0  0  0  0
   25.8846  -18.9005  -14.5492 O   0  0  0  0  0  0  0  0  0  0  0  0
   27.0818  -21.4397  -10.8047 C   0  0  0  0  0  0  0  0  0  0  0  0
   26.3506  -21.5394   -9.6449 C   0  0  0  0  0  0  0  0  0  0  0  0
   24.6730  -20.6730  -13.7555 N   0  0  0  0  0  0  0  0  0  0  0  0
   23.4089  -19.9824  -13.8432 C   0  0  0  0  0  0  0  0  0  0  0  0
   22.3079  -20.8949  -13.4552 C   0  0  0  0  0  0  0  0  0  0  0  0
   21.0408  -20.4786  -13.0790 O   0  0  0  0  0  0  0  0  0  0  0  0
   22.5356  -22.1317  -13.4670 O   0  0  0  0  0  0  0  0  0  0  0  0
  2  1  1  6
  3  2  1  0
  4  3  1  0
  5  4  1  0
  5  6  1  0
  7  6  1  0
  8  9  2  0
  8  2  1  0
 10 11  1  0
 11 12  2  0
 12 13  1  0
 14 13  2  0
 14 15  1  0
 16 15  1  1
 16 17  1  0
 17  8  1  0
 18 16  1  0
 19 18  2  0
 20 14  1  0
 21 11  1  0
 21 20  2  0
 22 18  1  0
 23 22  1  0
 24 23  1  0
 24 25  1  0
 26 24  2  0
M  END
$$$$
