KYG.pdb
     RDKit          3D

 26 26  0  0  1  0  0  0  0  0999 V2000
   27.3667  -22.0621  -16.3487 N   0  0  0  0  0  0  0  0  0  0  0  0
   26.5699  -20.9264  -15.9276 C   0  0  1  0  0  0  0  0  0  0  0  0
   25.4717  -20.7164  -16.9502 C   0  0  0  0  0  0  0  0  0  0  0  0
   25.8994  -19.6030  -17.8519 C   0  0  0  0  0  0  0  0  0  0  0  0
   26.8912  -20.0613  -18.8746 C   0  0  0  0  0  0  0  0  0  0  0  0
   27.2594  -18.9416  -19.8088 C   0  0  0  0  0  0  0  0  0  0  0  0
   28.3517  -19.3855  -20.6484 N   0  0  0  0  0  0  0  0  0  0  0  0
   25.9553  -21.2076  -14.6090 C   0  0  0  0  0  0  0  0  0  0  0  0
   25.4891  -22.3393  -14.3072 O   0  0  0  0  0  0  0  0  0  0  0  0
   31.2912  -22.0251  -11.0030 O   0  0  0  0  0  0  0  0  0  0  0  0
   29.9812  -21.5161  -11.0211 C   0  0  0  0  0  0  0  0  0  0  0  0
   29.0288  -21.9489  -10.1197 C   0  0  0  0  0  0  0  0  0  0  0  0
   27.7372  -21.4686  -10.1132 C   0  0  0  0  0  0  0  0  0  0  0  0
   27.3800  -20.5198  -11.0412 C   0  0  0  0  0  0  0  0  0  0  0  0
   26.0234  -19.9317  -11.1276 C   0  0  0  0  0  0  0  0  0  0  0  0
   25.3228  -20.5215  -12.2892 C   0  0  2  0  0  0  0  0  0  0  0  0
   25.8385  -20.2401  -13.5819 N   0  0  0  0  0  0  0  0  0  0  0  0
   23.8697  -20.1508  -12.3256 C   0  0  0  0  0  0  0  0  0  0  0  0
   23.4319  -19.1303  -12.8756 O   0  0  0  0  0  0  0  0  0  0  0  0
   28.3308  -20.0885  -11.9401 C   0  0  0  0  0  0  0  0  0  0  0  0
   29.6199  -20.5658  -11.9490 C   0  0  0  0  0  0  0  0  0  0  0  0
   22.9394  -21.0254  -11.6900 N   0  0  0  0  0  0  0  0  0  0  0  0
   21.5278  -20.7354  -11.6136 C   0  0  0  0  0  0  0  0  0  0  0  0
   20.8301  -21.3135  -12.7861 C   0  0  0  0  0  0  0  0  0  0  0  0
   19.5114  -21.7390  -12.7819 O   0  0  0  0  0  0  0  0  0  0  0  0
   21.4759  -21.4269  -13.8593 O   0  0  0  0  0  0  0  0  0  0  0  0
  2  1  1  6
  3  2  1  0
  4  3  1  0
  5  4  1  0
  5  6  1  0
  7  6  1  0
  8  9  2  0
  8  2  1  0
 10 11  1  0
 11 12  2  0
 12 13  1  0
 14 13  2  0
 14 15  1  0
 16 15  1  1
 16 17  1  0
 17  8  1  0
 18 16  1  0
 19 18  2  0
 20 14  1  0
 21 11  1  0
 21 20  2  0
 22 18  1  0
 23 22  1  0
 24 23  1  0
 24 25  1  0
 26 24  2  0
M  END
$$$$
