KYG.pdb
     RDKit          3D

 26 26  0  0  1  0  0  0  0  0999 V2000
   22.5498  -18.1548  -16.1889 N   0  0  0  0  0  0  0  0  0  0  0  0
   22.0729  -16.9120  -16.7635 C   0  0  1  0  0  0  0  0  0  0  0  0
   20.5816  -17.0429  -16.9972 C   0  0  0  0  0  0  0  0  0  0  0  0
   20.3759  -18.1126  -18.0214 C   0  0  0  0  0  0  0  0  0  0  0  0
   18.9265  -18.3175  -18.3326 C   0  0  0  0  0  0  0  0  0  0  0  0
   18.7510  -19.2737  -19.4802 C   0  0  0  0  0  0  0  0  0  0  0  0
   17.3342  -19.4814  -19.6914 N   0  0  0  0  0  0  0  0  0  0  0  0
   22.3182  -15.7973  -15.8188 C   0  0  0  0  0  0  0  0  0  0  0  0
   22.0083  -15.8635  -14.5987 O   0  0  0  0  0  0  0  0  0  0  0  0
   28.4141  -16.3503  -17.3484 O   0  0  0  0  0  0  0  0  0  0  0  0
   27.4193  -15.6370  -16.6576 C   0  0  0  0  0  0  0  0  0  0  0  0
   26.8970  -14.4614  -17.1599 C   0  0  0  0  0  0  0  0  0  0  0  0
   25.9218  -13.7406  -16.5056 C   0  0  0  0  0  0  0  0  0  0  0  0
   25.4479  -14.2090  -15.3035 C   0  0  0  0  0  0  0  0  0  0  0  0
   24.4016  -13.5198  -14.5135 C   0  0  0  0  0  0  0  0  0  0  0  0
   23.1496  -13.4966  -15.3010 C   0  0  2  0  0  0  0  0  0  0  0  0
   22.9162  -14.5714  -16.1990 N   0  0  0  0  0  0  0  0  0  0  0  0
   23.0061  -12.2380  -16.1044 C   0  0  0  0  0  0  0  0  0  0  0  0
   23.2037  -12.1732  -17.3259 O   0  0  0  0  0  0  0  0  0  0  0  0
   25.9693  -15.3819  -14.8031 C   0  0  0  0  0  0  0  0  0  0  0  0
   26.9423  -16.1031  -15.4535 C   0  0  0  0  0  0  0  0  0  0  0  0
   22.6189  -11.0476  -15.4206 N   0  0  0  0  0  0  0  0  0  0  0  0
   22.5160   -9.7696  -16.0829 C   0  0  0  0  0  0  0  0  0  0  0  0
   21.3245   -9.0403  -15.5891 C   0  0  0  0  0  0  0  0  0  0  0  0
   20.3696   -9.5811  -14.7430 O   0  0  0  0  0  0  0  0  0  0  0  0
   21.1662   -7.8494  -15.9613 O   0  0  0  0  0  0  0  0  0  0  0  0
  2  1  1  1
  3  2  1  0
  4  3  1  0
  5  4  1  0
  5  6  1  0
  7  6  1  0
  8  9  2  0
  8  2  1  0
 10 11  1  0
 11 12  2  0
 12 13  1  0
 14 13  2  0
 14 15  1  0
 16 15  1  6
 16 17  1  0
 17  8  1  0
 18 16  1  0
 19 18  2  0
 20 14  1  0
 21 11  1  0
 21 20  2  0
 22 18  1  0
 23 22  1  0
 24 23  1  0
 24 25  1  0
 26 24  2  0
M  END
$$$$
