KYG.pdb
     RDKit          3D

 26 26  0  0  1  0  0  0  0  0999 V2000
   21.8778  -20.5797  -12.1490 N   0  0  0  0  0  0  0  0  0  0  0  0
   22.8357  -21.4306  -12.8275 C   0  0  1  0  0  0  0  0  0  0  0  0
   22.3249  -21.6893  -14.2304 C   0  0  0  0  0  0  0  0  0  0  0  0
   20.8769  -21.3182  -14.2607 C   0  0  0  0  0  0  0  0  0  0  0  0
   20.6302  -20.0951  -15.0871 C   0  0  0  0  0  0  0  0  0  0  0  0
   19.1704  -19.9550  -15.4210 C   0  0  0  0  0  0  0  0  0  0  0  0
   18.9694  -18.6774  -16.0710 N   0  0  0  0  0  0  0  0  0  0  0  0
   24.1458  -20.7434  -12.9091 C   0  0  0  0  0  0  0  0  0  0  0  0
   24.2477  -19.4928  -13.0305 O   0  0  0  0  0  0  0  0  0  0  0  0
   24.9626  -19.8646   -6.9185 O   0  0  0  0  0  0  0  0  0  0  0  0
   25.6196  -20.1284   -8.1328 C   0  0  0  0  0  0  0  0  0  0  0  0
   26.2922  -19.1354   -8.8173 C   0  0  0  0  0  0  0  0  0  0  0  0
   26.9449  -19.3637  -10.0092 C   0  0  0  0  0  0  0  0  0  0  0  0
   26.9273  -20.6313  -10.5404 C   0  0  0  0  0  0  0  0  0  0  0  0
   27.5942  -20.9932  -11.8123 C   0  0  0  0  0  0  0  0  0  0  0  0
   26.6462  -20.7715  -12.9259 C   0  0  2  0  0  0  0  0  0  0  0  0
   25.3866  -21.4237  -12.8584 N   0  0  0  0  0  0  0  0  0  0  0  0
   27.2367  -21.1332  -14.2566 C   0  0  0  0  0  0  0  0  0  0  0  0
   27.8411  -22.1920  -14.4781 O   0  0  0  0  0  0  0  0  0  0  0  0
   26.2562  -21.6214   -9.8568 C   0  0  0  0  0  0  0  0  0  0  0  0
   25.6041  -21.3966   -8.6677 C   0  0  0  0  0  0  0  0  0  0  0  0
   27.0927  -20.2028  -15.3281 N   0  0  0  0  0  0  0  0  0  0  0  0
   27.6619  -20.4286  -16.6349 C   0  0  0  0  0  0  0  0  0  0  0  0
   27.2725  -19.3310  -17.5509 C   0  0  0  0  0  0  0  0  0  0  0  0
   25.9648  -19.0106  -17.8787 O   0  0  0  0  0  0  0  0  0  0  0  0
   28.1887  -18.6416  -18.0677 O   0  0  0  0  0  0  0  0  0  0  0  0
  2  1  1  1
  3  2  1  0
  4  3  1  0
  5  4  1  0
  5  6  1  0
  7  6  1  0
  8  9  2  0
  8  2  1  0
 10 11  1  0
 11 12  2  0
 12 13  1  0
 14 13  2  0
 14 15  1  0
 16 15  1  1
 16 17  1  0
 17  8  1  0
 18 16  1  0
 19 18  2  0
 20 14  1  0
 21 11  1  0
 21 20  2  0
 22 18  1  0
 23 22  1  0
 24 23  1  0
 24 25  1  0
 26 24  2  0
M  END
$$$$
