RMW.pdb
     RDKit          3D

 34 35  0  0  1  0  0  0  0  0999 V2000
   16.4712  -19.9342   17.1424 N   0  0  0  0  0  0  0  0  0  0  0  0
   15.6312  -19.4064   16.1252 C   0  0  0  0  0  0  0  0  0  0  0  0
   15.6572  -19.9536   14.9568 N   0  0  0  0  0  0  0  0  0  0  0  0
   14.7623  -18.2953   16.3495 N   0  0  0  0  0  0  0  0  0  0  0  0
   14.6670  -17.6878   17.6620 C   0  0  0  0  0  0  0  0  0  0  0  0
   13.7357  -18.5597   18.5110 C   0  0  0  0  0  0  0  0  0  0  0  0
   12.6838  -17.6532   19.0968 C   0  0  0  0  0  0  0  0  0  0  0  0
   11.7988  -18.3783   20.0772 C   0  0  2  0  0  0  0  0  0  0  0  0
   10.7243  -18.9689   19.2807 N   0  0  0  0  0  0  0  0  0  0  0  0
   11.1913  -17.3922   20.9971 C   0  0  0  0  0  0  0  0  0  0  0  0
   11.2959  -16.1611   20.8336 O   0  0  0  0  0  0  0  0  0  0  0  0
   15.0410  -19.6440   14.1837 C   0  0  0  0  0  0  0  0  0  0  0  0
    6.7453  -13.6023   24.6010 S   0  0  0  0  0  0  0  0  0  0  0  0
    7.0668  -14.8473   23.3098 C   0  0  0  0  0  0  0  0  0  0  0  0
    7.5896  -16.4174   24.0508 C   0  0  0  0  0  0  0  0  0  0  0  0
    8.3378  -17.2648   23.0436 C   0  0  1  0  0  0  0  0  0  0  0  0
    9.8136  -16.9412   23.0819 N   0  0  0  0  0  0  0  0  0  0  0  0
   10.4468  -17.8295   22.1296 C   0  0  0  0  0  0  0  0  0  0  0  0
   10.3973  -17.1488   24.4219 O   0  0  0  0  0  0  0  0  0  0  0  0
   10.9133  -18.2662   24.6768 N   0  0  0  0  0  0  0  0  0  0  0  0
   10.3969  -16.1373   25.4289 C   0  0  2  0  0  0  0  0  0  0  0  0
   10.8900  -16.3961   26.7436 C   0  0  0  0  0  0  0  0  0  0  0  0
   10.4990  -15.3244   27.7389 C   0  0  0  0  0  0  0  0  0  0  0  0
    9.1117  -14.8592   27.5331 C   0  0  0  0  0  0  0  0  0  0  0  0
    7.9220  -15.5323   27.6729 N   0  0  0  0  0  0  0  0  0  0  0  0
    6.9019  -14.7015   27.3787 C   0  0  0  0  0  0  0  0  0  0  0  0
    7.3738  -13.4782   27.0421 C   0  0  0  0  0  0  0  0  0  0  0  0
    6.7425  -12.3003   26.6642 C   0  0  0  0  0  0  0  0  0  0  0  0
    7.5325  -11.2216   26.3848 C   0  0  0  0  0  0  0  0  0  0  0  0
    8.9107  -11.2432   26.4584 C   0  0  0  0  0  0  0  0  0  0  0  0
    9.4955  -12.4349   26.8383 C   0  0  0  0  0  0  0  0  0  0  0  0
    8.7479  -13.5670   27.1354 C   0  0  0  0  0  0  0  0  0  0  0  0
   10.4895  -17.7479   27.2005 O   0  0  0  0  0  0  0  0  0  0  0  0
   11.1211  -18.4315   28.2268 O   0  0  0  0  0  0  0  0  0  0  0  0
  2  3  2  0
  2  1  1  0
  4  2  1  0
  5  4  1  0
  6  5  1  0
  7  6  1  0
  8  7  1  0
  8  9  1  6
 10 11  2  0
 10  8  1  0
 12 13  1  0
 14 13  1  0
 14 15  1  0
 16 15  1  6
 16 18  1  0
 16 17  1  0
 17 10  1  0
 18 19  2  0
 20 21  1  0
 20 18  1  0
 21 22  1  6
 23 22  1  0
 23 24  2  0
 25 24  1  0
 26 31  2  0
 26 25  1  0
 27 26  1  0
 28 29  1  0
 28 27  2  0
 29 30  2  0
 30 31  1  0
 31 23  1  0
 32 21  1  0
 33 32  1  0
 34 32  2  0
M  END
$$$$
