RMW.pdb
     RDKit          3D

 34 35  0  0  1  0  0  0  0  0999 V2000
    8.2316  -12.2403   15.3918 N   0  0  0  0  0  0  0  0  0  0  0  0
    8.1560  -13.6021   14.9932 C   0  0  0  0  0  0  0  0  0  0  0  0
    8.0923  -13.8743   13.7334 N   0  0  0  0  0  0  0  0  0  0  0  0
    8.1477  -14.6762   15.9344 N   0  0  0  0  0  0  0  0  0  0  0  0
    8.7036  -14.4977   17.2611 C   0  0  0  0  0  0  0  0  0  0  0  0
    7.5784  -13.9964   18.1727 C   0  0  0  0  0  0  0  0  0  0  0  0
    7.2674  -15.1010   19.1495 C   0  0  0  0  0  0  0  0  0  0  0  0
    8.5054  -15.5976   19.8502 C   0  0  2  0  0  0  0  0  0  0  0  0
    8.6940  -16.9742   19.3953 N   0  0  0  0  0  0  0  0  0  0  0  0
    8.2520  -15.6326   21.3071 C   0  0  0  0  0  0  0  0  0  0  0  0
    8.0612  -14.6044   21.9850 O   0  0  0  0  0  0  0  0  0  0  0  0
    8.1172  -14.8450   13.3722 C   0  0  0  0  0  0  0  0  0  0  0  0
    6.2370  -18.0997   26.8525 S   0  0  0  0  0  0  0  0  0  0  0  0
    5.6539  -17.3786   25.2839 C   0  0  0  0  0  0  0  0  0  0  0  0
    6.1534  -18.4114   23.8799 C   0  0  0  0  0  0  0  0  0  0  0  0
    7.6588  -18.4067   23.7174 C   0  0  2  0  0  0  0  0  0  0  0  0
    8.1503  -17.0045   23.4414 N   0  0  0  0  0  0  0  0  0  0  0  0
    8.2164  -16.8760   22.0005 C   0  0  0  0  0  0  0  0  0  0  0  0
    9.4824  -16.7534   24.0261 O   0  0  0  0  0  0  0  0  0  0  0  0
   10.4897  -17.1919   23.4155 N   0  0  0  0  0  0  0  0  0  0  0  0
    9.6666  -16.0382   25.2474 C   0  0  1  0  0  0  0  0  0  0  0  0
   10.9711  -15.7354   25.7427 C   0  0  0  0  0  0  0  0  0  0  0  0
   11.0221  -14.4254   26.5000 C   0  0  0  0  0  0  0  0  0  0  0  0
    9.7698  -14.1663   27.2403 C   0  0  0  0  0  0  0  0  0  0  0  0
    9.4011  -14.5323   28.5124 N   0  0  0  0  0  0  0  0  0  0  0  0
    8.1596  -14.0727   28.7668 C   0  0  0  0  0  0  0  0  0  0  0  0
    7.6773  -13.4022   27.6943 C   0  0  0  0  0  0  0  0  0  0  0  0
    6.4724  -12.7535   27.4572 C   0  0  0  0  0  0  0  0  0  0  0  0
    6.3016  -12.1640   26.2370 C   0  0  0  0  0  0  0  0  0  0  0  0
    7.2553  -12.1802   25.2393 C   0  0  0  0  0  0  0  0  0  0  0  0
    8.4378  -12.8362   25.5187 C   0  0  0  0  0  0  0  0  0  0  0  0
    8.6725  -13.4553   26.7395 C   0  0  0  0  0  0  0  0  0  0  0  0
   11.5042  -16.8603   26.5470 O   0  0  0  0  0  0  0  0  0  0  0  0
   12.8264  -16.9597   26.9491 O   0  0  0  0  0  0  0  0  0  0  0  0
  2  3  2  0
  2  1  1  0
  4  2  1  0
  5  4  1  0
  6  5  1  0
  7  6  1  0
  8  7  1  0
  8  9  1  6
 10 11  2  0
 10  8  1  0
 12 13  1  0
 14 13  1  0
 14 15  1  0
 16 15  1  6
 16 18  1  0
 16 17  1  0
 17 10  1  0
 18 19  2  0
 20 21  1  0
 20 18  1  0
 21 22  1  1
 23 22  1  0
 23 24  2  0
 25 24  1  0
 26 31  2  0
 26 25  1  0
 27 26  1  0
 28 29  1  0
 28 27  2  0
 29 30  2  0
 30 31  1  0
 31 23  1  0
 32 21  1  0
 33 32  1  0
 34 32  2  0
M  END
$$$$
