RMW.pdb
     RDKit          3D

 34 35  0  0  1  0  0  0  0  0999 V2000
    8.3697  -14.6767   14.6814 N   0  0  0  0  0  0  0  0  0  0  0  0
    8.4450  -14.5522   16.0949 C   0  0  0  0  0  0  0  0  0  0  0  0
    7.9666  -13.4889   16.6476 N   0  0  0  0  0  0  0  0  0  0  0  0
    9.0297  -15.5589   16.9222 N   0  0  0  0  0  0  0  0  0  0  0  0
    9.6123  -16.7489   16.3345 C   0  0  0  0  0  0  0  0  0  0  0  0
   10.1382  -17.6223   17.4785 C   0  0  0  0  0  0  0  0  0  0  0  0
   11.4204  -16.9982   17.9659 C   0  0  0  0  0  0  0  0  0  0  0  0
   11.8090  -17.5039   19.3310 C   0  0  2  0  0  0  0  0  0  0  0  0
   11.0530  -18.7399   19.5266 N   0  0  0  0  0  0  0  0  0  0  0  0
   11.3586  -16.5312   20.3502 C   0  0  0  0  0  0  0  0  0  0  0  0
   11.8996  -15.4199   20.5099 O   0  0  0  0  0  0  0  0  0  0  0  0
    8.0314  -13.3145   17.6669 C   0  0  0  0  0  0  0  0  0  0  0  0
    6.8289  -13.1631   22.2619 S   0  0  0  0  0  0  0  0  0  0  0  0
    7.4884  -13.6385   20.6310 C   0  0  0  0  0  0  0  0  0  0  0  0
    7.9553  -15.3904   20.6154 C   0  0  0  0  0  0  0  0  0  0  0  0
    8.2583  -15.8788   22.0162 C   0  0  2  0  0  0  0  0  0  0  0  0
    9.7523  -15.9563   22.2309 N   0  0  0  0  0  0  0  0  0  0  0  0
   10.2625  -16.8416   21.2048 C   0  0  0  0  0  0  0  0  0  0  0  0
   10.0991  -16.4863   23.5644 O   0  0  0  0  0  0  0  0  0  0  0  0
   10.5807  -17.6452   23.6344 N   0  0  0  0  0  0  0  0  0  0  0  0
    9.9093  -15.7387   24.7652 C   0  0  2  0  0  0  0  0  0  0  0  0
   10.0936  -16.3345   26.0496 C   0  0  0  0  0  0  0  0  0  0  0  0
    9.2675  -15.6688   27.1297 C   0  0  0  0  0  0  0  0  0  0  0  0
    8.0114  -15.1036   26.5948 C   0  0  0  0  0  0  0  0  0  0  0  0
    6.8936  -15.7356   26.1057 N   0  0  0  0  0  0  0  0  0  0  0  0
    5.9881  -14.8113   25.7275 C   0  0  0  0  0  0  0  0  0  0  0  0
    6.4673  -13.5649   25.9494 C   0  0  0  0  0  0  0  0  0  0  0  0
    5.9320  -12.3017   25.7342 C   0  0  0  0  0  0  0  0  0  0  0  0
    6.6982  -11.2240   26.0768 C   0  0  0  0  0  0  0  0  0  0  0  0
    7.9631  -11.3263   26.6199 C   0  0  0  0  0  0  0  0  0  0  0  0
    8.4551  -12.6014   26.8165 C   0  0  0  0  0  0  0  0  0  0  0  0
    7.7258  -13.7370   26.4891 C   0  0  0  0  0  0  0  0  0  0  0  0
    9.8546  -17.7960   25.9923 O   0  0  0  0  0  0  0  0  0  0  0  0
    9.0478  -18.4070   25.0460 O   0  0  0  0  0  0  0  0  0  0  0  0
  2  3  2  0
  2  1  1  0
  4  2  1  0
  5  4  1  0
  6  5  1  0
  7  6  1  0
  8  7  1  0
  8  9  1  1
 10 11  2  0
 10  8  1  0
 12 13  1  0
 14 13  1  0
 14 15  1  0
 16 15  1  6
 16 18  1  0
 16 17  1  0
 17 10  1  0
 18 19  2  0
 20 21  1  0
 20 18  1  0
 21 22  1  6
 23 22  1  0
 23 24  2  0
 25 24  1  0
 26 31  2  0
 26 25  1  0
 27 26  1  0
 28 29  1  0
 28 27  2  0
 29 30  2  0
 30 31  1  0
 31 23  1  0
 32 21  1  0
 33 32  1  0
 34 32  2  0
M  END
$$$$
