RMW.pdb
     RDKit          3D

 34 35  0  0  1  0  0  0  0  0999 V2000
    8.2902  -12.9519   19.2297 N   0  0  0  0  0  0  0  0  0  0  0  0
    8.8916  -13.8689   18.3261 C   0  0  0  0  0  0  0  0  0  0  0  0
   10.0714  -13.6068   17.8740 N   0  0  0  0  0  0  0  0  0  0  0  0
    8.2383  -15.0659   17.9019 N   0  0  0  0  0  0  0  0  0  0  0  0
    7.0970  -15.5809   18.6322 C   0  0  0  0  0  0  0  0  0  0  0  0
    7.1604  -15.0129   20.0540 C   0  0  0  0  0  0  0  0  0  0  0  0
    6.0704  -15.6805   20.8523 C   0  0  0  0  0  0  0  0  0  0  0  0
    6.3153  -17.1585   21.0128 C   0  0  2  0  0  0  0  0  0  0  0  0
    5.1058  -17.8171   20.5221 N   0  0  0  0  0  0  0  0  0  0  0  0
    6.4485  -17.4702   22.4526 C   0  0  0  0  0  0  0  0  0  0  0  0
    5.4936  -17.4011   23.2505 O   0  0  0  0  0  0  0  0  0  0  0  0
   10.5379  -14.1969   17.1615 C   0  0  0  0  0  0  0  0  0  0  0  0
    7.5418  -20.7719   28.3503 S   0  0  0  0  0  0  0  0  0  0  0  0
    7.3113  -20.2113   26.6318 C   0  0  0  0  0  0  0  0  0  0  0  0
    8.9132  -19.9560   25.8216 C   0  0  0  0  0  0  0  0  0  0  0  0
    8.7254  -19.4745   24.3984 C   0  0  2  0  0  0  0  0  0  0  0  0
    7.9356  -18.1861   24.3823 N   0  0  0  0  0  0  0  0  0  0  0  0
    7.7061  -17.8704   22.9878 C   0  0  0  0  0  0  0  0  0  0  0  0
    8.6614  -17.0768   25.0319 O   0  0  0  0  0  0  0  0  0  0  0  0
    8.6435  -15.9503   24.4746 N   0  0  0  0  0  0  0  0  0  0  0  0
    9.3759  -17.2349   26.2573 C   0  0  1  0  0  0  0  0  0  0  0  0
    9.8939  -16.1095   26.9670 C   0  0  0  0  0  0  0  0  0  0  0  0
    8.9717  -15.6359   28.0703 C   0  0  0  0  0  0  0  0  0  0  0  0
    7.7254  -15.0498   27.5350 C   0  0  0  0  0  0  0  0  0  0  0  0
    6.5172  -15.6417   27.2553 N   0  0  0  0  0  0  0  0  0  0  0  0
    5.6640  -14.7120   26.7811 C   0  0  0  0  0  0  0  0  0  0  0  0
    6.2671  -13.5011   26.7328 C   0  0  0  0  0  0  0  0  0  0  0  0
    5.8253  -12.2482   26.3283 C   0  0  0  0  0  0  0  0  0  0  0  0
    6.7096  -11.2102   26.4080 C   0  0  0  0  0  0  0  0  0  0  0  0
    8.0053  -11.3425   26.8653 C   0  0  0  0  0  0  0  0  0  0  0  0
    8.4015  -12.6059   27.2570 C   0  0  0  0  0  0  0  0  0  0  0  0
    7.5502  -13.7017   27.2001 C   0  0  0  0  0  0  0  0  0  0  0  0
   11.2606  -16.3859   27.4691 O   0  0  0  0  0  0  0  0  0  0  0  0
   12.1332  -15.4024   27.9060 O   0  0  0  0  0  0  0  0  0  0  0  0
  2  3  2  0
  2  1  1  0
  4  2  1  0
  5  4  1  0
  6  5  1  0
  7  6  1  0
  8  7  1  0
  8  9  1  1
 10 11  2  0
 10  8  1  0
 12 13  1  0
 14 13  1  0
 14 15  1  0
 16 15  1  1
 16 18  1  0
 16 17  1  0
 17 10  1  0
 18 19  2  0
 20 21  1  0
 20 18  1  0
 21 22  1  6
 23 22  1  0
 23 24  2  0
 25 24  1  0
 26 31  2  0
 26 25  1  0
 27 26  1  0
 28 29  1  0
 28 27  2  0
 29 30  2  0
 30 31  1  0
 31 23  1  0
 32 21  1  0
 33 32  1  0
 34 32  2  0
M  END
$$$$
