RMW.pdb
     RDKit          3D

 34 35  0  0  1  0  0  0  0  0999 V2000
    8.7491  -14.8904   16.2496 N   0  0  0  0  0  0  0  0  0  0  0  0
    8.3808  -13.5183   16.2782 C   0  0  0  0  0  0  0  0  0  0  0  0
    8.1538  -12.9162   15.1596 N   0  0  0  0  0  0  0  0  0  0  0  0
    8.2539  -12.7847   17.4969 N   0  0  0  0  0  0  0  0  0  0  0  0
    8.5937  -13.3985   18.7652 C   0  0  0  0  0  0  0  0  0  0  0  0
    7.4467  -14.3400   19.1479 C   0  0  0  0  0  0  0  0  0  0  0  0
    7.8676  -15.0758   20.3938 C   0  0  0  0  0  0  0  0  0  0  0  0
    8.6976  -16.2923   20.0756 C   0  0  2  0  0  0  0  0  0  0  0  0
    7.9040  -17.0790   19.1328 N   0  0  0  0  0  0  0  0  0  0  0  0
    8.8657  -17.0951   21.3065 C   0  0  0  0  0  0  0  0  0  0  0  0
    7.9638  -17.8201   21.7693 O   0  0  0  0  0  0  0  0  0  0  0  0
    8.0224  -11.8905   15.0966 C   0  0  0  0  0  0  0  0  0  0  0  0
   14.5050  -19.2636   21.8783 S   0  0  0  0  0  0  0  0  0  0  0  0
   13.1508  -20.4375   21.5484 C   0  0  0  0  0  0  0  0  0  0  0  0
   11.5473  -19.6955   21.9553 C   0  0  0  0  0  0  0  0  0  0  0  0
   11.7185  -18.5384   22.9168 C   0  0  2  0  0  0  0  0  0  0  0  0
   10.3851  -17.8791   23.1839 N   0  0  0  0  0  0  0  0  0  0  0  0
   10.0970  -17.0650   22.0215 C   0  0  0  0  0  0  0  0  0  0  0  0
   10.4123  -17.0313   24.3921 O   0  0  0  0  0  0  0  0  0  0  0  0
   10.9600  -15.9028   24.3118 N   0  0  0  0  0  0  0  0  0  0  0  0
    9.8453  -17.4419   25.6359 C   0  0  1  0  0  0  0  0  0  0  0  0
    9.9611  -16.6358   26.8086 C   0  0  0  0  0  0  0  0  0  0  0  0
    8.6237  -16.3457   27.4562 C   0  0  0  0  0  0  0  0  0  0  0  0
    7.6752  -15.7230   26.5097 C   0  0  0  0  0  0  0  0  0  0  0  0
    6.7090  -16.2961   25.7184 N   0  0  0  0  0  0  0  0  0  0  0  0
    6.0804  -15.3337   25.0141 C   0  0  0  0  0  0  0  0  0  0  0  0
    6.5993  -14.1191   25.3104 C   0  0  0  0  0  0  0  0  0  0  0  0
    6.3049  -12.8381   24.8619 C   0  0  0  0  0  0  0  0  0  0  0  0
    7.0366  -11.8052   25.3751 C   0  0  0  0  0  0  0  0  0  0  0  0
    8.0422  -11.9687   26.3064 C   0  0  0  0  0  0  0  0  0  0  0  0
    8.3006  -13.2592   26.7239 C   0  0  0  0  0  0  0  0  0  0  0  0
    7.5923  -14.3516   26.2402 C   0  0  0  0  0  0  0  0  0  0  0  0
   10.9215  -17.2330   27.7664 O   0  0  0  0  0  0  0  0  0  0  0  0
   11.2912  -16.6337   28.9597 O   0  0  0  0  0  0  0  0  0  0  0  0
  2  3  2  0
  2  1  1  0
  4  2  1  0
  5  4  1  0
  6  5  1  0
  7  6  1  0
  8  7  1  0
  8  9  1  6
 10 11  2  0
 10  8  1  0
 12 13  1  0
 14 13  1  0
 14 15  1  0
 16 15  1  6
 16 18  1  0
 16 17  1  0
 17 10  1  0
 18 19  2  0
 20 21  1  0
 20 18  1  0
 21 22  1  1
 23 22  1  0
 23 24  2  0
 25 24  1  0
 26 31  2  0
 26 25  1  0
 27 26  1  0
 28 29  1  0
 28 27  2  0
 29 30  2  0
 30 31  1  0
 31 23  1  0
 32 21  1  0
 33 32  1  0
 34 32  2  0
M  END
$$$$
