RMW.pdb
     RDKit          3D

 34 35  0  0  1  0  0  0  0  0999 V2000
    7.5563  -12.5876   17.6916 N   0  0  0  0  0  0  0  0  0  0  0  0
    7.8236  -13.6253   16.7584 C   0  0  0  0  0  0  0  0  0  0  0  0
    8.1845  -13.3026   15.5623 N   0  0  0  0  0  0  0  0  0  0  0  0
    7.7069  -15.0080   17.0966 N   0  0  0  0  0  0  0  0  0  0  0  0
    7.3997  -15.4110   18.4545 C   0  0  0  0  0  0  0  0  0  0  0  0
    7.0534  -16.9036   18.4292 C   0  0  0  0  0  0  0  0  0  0  0  0
    6.1920  -17.1843   19.6334 C   0  0  0  0  0  0  0  0  0  0  0  0
    6.6381  -18.4216   20.3683 C   0  0  2  0  0  0  0  0  0  0  0  0
    5.6796  -19.4650   20.0077 N   0  0  0  0  0  0  0  0  0  0  0  0
    6.5231  -18.1842   21.8237 C   0  0  0  0  0  0  0  0  0  0  0  0
    5.7061  -17.3817   22.3154 O   0  0  0  0  0  0  0  0  0  0  0  0
    8.5139  -14.0023   14.8728 C   0  0  0  0  0  0  0  0  0  0  0  0
    6.9621  -21.4311   27.8660 S   0  0  0  0  0  0  0  0  0  0  0  0
    8.5256  -20.6249   27.3903 C   0  0  0  0  0  0  0  0  0  0  0  0
    8.2076  -19.1802   26.3418 C   0  0  0  0  0  0  0  0  0  0  0  0
    7.9951  -19.5971   24.9018 C   0  0  2  0  0  0  0  0  0  0  0  0
    7.7537  -18.3820   24.0360 N   0  0  0  0  0  0  0  0  0  0  0  0
    7.3647  -18.8842   22.7347 C   0  0  0  0  0  0  0  0  0  0  0  0
    8.9589  -17.5395   23.9057 O   0  0  0  0  0  0  0  0  0  0  0  0
   10.0361  -18.0942   23.5711 N   0  0  0  0  0  0  0  0  0  0  0  0
    8.9461  -16.1323   24.1434 C   0  0  2  0  0  0  0  0  0  0  0  0
    9.7391  -15.5448   25.1752 C   0  0  0  0  0  0  0  0  0  0  0  0
    8.9383  -15.2199   26.4182 C   0  0  0  0  0  0  0  0  0  0  0  0
    7.6674  -14.5393   26.0942 C   0  0  0  0  0  0  0  0  0  0  0  0
    6.4128  -15.0592   25.8845 N   0  0  0  0  0  0  0  0  0  0  0  0
    5.5531  -14.0560   25.6165 C   0  0  0  0  0  0  0  0  0  0  0  0
    6.1973  -12.8657   25.6398 C   0  0  0  0  0  0  0  0  0  0  0  0
    5.7673  -11.5617   25.4318 C   0  0  0  0  0  0  0  0  0  0  0  0
    6.6973  -10.5662   25.5307 C   0  0  0  0  0  0  0  0  0  0  0  0
    8.0277  -10.7886   25.8237 C   0  0  0  0  0  0  0  0  0  0  0  0
    8.4107  -12.1002   26.0230 C   0  0  0  0  0  0  0  0  0  0  0  0
    7.5135  -13.1567   25.9363 C   0  0  0  0  0  0  0  0  0  0  0  0
   10.9169  -16.3907   25.4815 O   0  0  0  0  0  0  0  0  0  0  0  0
   11.1341  -17.6390   24.9211 O   0  0  0  0  0  0  0  0  0  0  0  0
  2  3  2  0
  2  1  1  0
  4  2  1  0
  5  4  1  0
  6  5  1  0
  7  6  1  0
  8  7  1  0
  8  9  1  6
 10 11  2  0
 10  8  1  0
 12 13  1  0
 14 13  1  0
 14 15  1  0
 16 15  1  1
 16 18  1  0
 16 17  1  0
 17 10  1  0
 18 19  2  0
 20 21  1  0
 20 18  1  0
 21 22  1  1
 23 22  1  0
 23 24  2  0
 25 24  1  0
 26 31  2  0
 26 25  1  0
 27 26  1  0
 28 29  1  0
 28 27  2  0
 29 30  2  0
 30 31  1  0
 31 23  1  0
 32 21  1  0
 33 32  1  0
 34 32  2  0
M  END
$$$$
