RMW.pdb
     RDKit          3D

 34 35  0  0  1  0  0  0  0  0999 V2000
    9.5266  -19.9163   13.4784 N   0  0  0  0  0  0  0  0  0  0  0  0
    9.1234  -19.8199   14.8375 C   0  0  0  0  0  0  0  0  0  0  0  0
    7.9574  -20.2623   15.1688 N   0  0  0  0  0  0  0  0  0  0  0  0
    9.9603  -19.2523   15.8461 N   0  0  0  0  0  0  0  0  0  0  0  0
   10.3865  -20.0453   16.9820 C   0  0  0  0  0  0  0  0  0  0  0  0
    9.3817  -19.8114   18.1152 C   0  0  0  0  0  0  0  0  0  0  0  0
    9.7828  -18.5378   18.8139 C   0  0  0  0  0  0  0  0  0  0  0  0
    9.7615  -18.6878   20.3130 C   0  0  2  0  0  0  0  0  0  0  0  0
    8.3532  -18.8334   20.6776 N   0  0  0  0  0  0  0  0  0  0  0  0
   10.2621  -17.4393   20.9282 C   0  0  0  0  0  0  0  0  0  0  0  0
   11.4340  -17.0391   20.7882 O   0  0  0  0  0  0  0  0  0  0  0  0
    7.6412  -20.3135   16.1541 C   0  0  0  0  0  0  0  0  0  0  0  0
    7.4212  -11.6608   20.1317 S   0  0  0  0  0  0  0  0  0  0  0  0
    6.8664  -13.3963   20.1594 C   0  0  0  0  0  0  0  0  0  0  0  0
    8.2513  -14.5050   20.5339 C   0  0  0  0  0  0  0  0  0  0  0  0
    8.6391  -14.4069   21.9942 C   0  0  2  0  0  0  0  0  0  0  0  0
    9.7729  -15.3586   22.2991 N   0  0  0  0  0  0  0  0  0  0  0  0
    9.3975  -16.6323   21.7215 C   0  0  0  0  0  0  0  0  0  0  0  0
    9.9971  -15.5154   23.7497 O   0  0  0  0  0  0  0  0  0  0  0  0
   10.5014  -14.5512   24.3789 N   0  0  0  0  0  0  0  0  0  0  0  0
    9.6656  -16.7099   24.4571 C   0  0  1  0  0  0  0  0  0  0  0  0
    9.9633  -16.8592   25.8455 C   0  0  0  0  0  0  0  0  0  0  0  0
    8.7220  -17.0088   26.6994 C   0  0  0  0  0  0  0  0  0  0  0  0
    7.6485  -16.0841   26.2800 C   0  0  0  0  0  0  0  0  0  0  0  0
    6.4602  -16.3393   25.6389 N   0  0  0  0  0  0  0  0  0  0  0  0
    5.7922  -15.1821   25.4599 C   0  0  0  0  0  0  0  0  0  0  0  0
    6.5018  -14.1463   25.9659 C   0  0  0  0  0  0  0  0  0  0  0  0
    6.2541  -12.7813   26.0293 C   0  0  0  0  0  0  0  0  0  0  0  0
    7.2009  -11.9941   26.6206 C   0  0  0  0  0  0  0  0  0  0  0  0
    8.3778  -12.4816   27.1523 C   0  0  0  0  0  0  0  0  0  0  0  0
    8.5821  -13.8445   27.0672 C   0  0  0  0  0  0  0  0  0  0  0  0
    7.6584  -14.6981   26.4783 C   0  0  0  0  0  0  0  0  0  0  0  0
   10.9213  -17.9689   26.0632 O   0  0  0  0  0  0  0  0  0  0  0  0
   11.5199  -18.2403   27.2830 O   0  0  0  0  0  0  0  0  0  0  0  0
  2  3  2  0
  2  1  1  0
  4  2  1  0
  5  4  1  0
  6  5  1  0
  7  6  1  0
  8  7  1  0
  8  9  1  1
 10 11  2  0
 10  8  1  0
 12 13  1  0
 14 13  1  0
 14 15  1  0
 16 15  1  6
 16 18  1  0
 16 17  1  0
 17 10  1  0
 18 19  2  0
 20 21  1  0
 20 18  1  0
 21 22  1  1
 23 22  1  0
 23 24  2  0
 25 24  1  0
 26 31  2  0
 26 25  1  0
 27 26  1  0
 28 29  1  0
 28 27  2  0
 29 30  2  0
 30 31  1  0
 31 23  1  0
 32 21  1  0
 33 32  1  0
 34 32  2  0
M  END
$$$$
