RMW.pdb
     RDKit          3D

 34 35  0  0  1  0  0  0  0  0999 V2000
    7.7263  -13.5384   15.0366 N   0  0  0  0  0  0  0  0  0  0  0  0
    8.9906  -13.8281   15.6168 C   0  0  0  0  0  0  0  0  0  0  0  0
    9.8811  -14.4194   14.8939 N   0  0  0  0  0  0  0  0  0  0  0  0
    9.3092  -13.4894   16.9672 N   0  0  0  0  0  0  0  0  0  0  0  0
    9.0099  -14.4082   18.0475 C   0  0  0  0  0  0  0  0  0  0  0  0
    7.4852  -14.5120   18.1602 C   0  0  0  0  0  0  0  0  0  0  0  0
    7.1749  -15.1044   19.5107 C   0  0  0  0  0  0  0  0  0  0  0  0
    7.4260  -16.5896   19.5447 C   0  0  2  0  0  0  0  0  0  0  0  0
    6.3616  -17.1908   18.7427 N   0  0  0  0  0  0  0  0  0  0  0  0
    7.2729  -17.0714   20.9348 C   0  0  0  0  0  0  0  0  0  0  0  0
    6.1816  -17.0643   21.5365 O   0  0  0  0  0  0  0  0  0  0  0  0
   10.8085  -14.6923   15.2665 C   0  0  0  0  0  0  0  0  0  0  0  0
    5.8039  -20.8001   23.6597 S   0  0  0  0  0  0  0  0  0  0  0  0
    6.8545  -20.0417   24.9411 C   0  0  0  0  0  0  0  0  0  0  0  0
    8.5927  -20.0403   24.4253 C   0  0  0  0  0  0  0  0  0  0  0  0
    8.7403  -19.4619   23.0338 C   0  0  2  0  0  0  0  0  0  0  0  0
    8.3616  -17.9988   23.0330 N   0  0  0  0  0  0  0  0  0  0  0  0
    8.3980  -17.5729   21.6495 C   0  0  0  0  0  0  0  0  0  0  0  0
    9.2940  -17.1791   23.8319 O   0  0  0  0  0  0  0  0  0  0  0  0
   10.4699  -17.0391   23.4106 N   0  0  0  0  0  0  0  0  0  0  0  0
    8.9130  -16.5462   25.0531 C   0  0  1  0  0  0  0  0  0  0  0  0
    9.8740  -15.8967   25.8857 C   0  0  0  0  0  0  0  0  0  0  0  0
    9.2585  -15.2870   27.1274 C   0  0  0  0  0  0  0  0  0  0  0  0
    7.9124  -14.7377   26.8638 C   0  0  0  0  0  0  0  0  0  0  0  0
    6.7044  -15.3792   26.7319 N   0  0  0  0  0  0  0  0  0  0  0  0
    5.7388  -14.4684   26.4965 C   0  0  0  0  0  0  0  0  0  0  0  0
    6.2655  -13.2218   26.4657 C   0  0  0  0  0  0  0  0  0  0  0  0
    5.7011  -11.9694   26.2618 C   0  0  0  0  0  0  0  0  0  0  0  0
    6.5348  -10.8878   26.2937 C   0  0  0  0  0  0  0  0  0  0  0  0
    7.8942  -10.9761   26.5160 C   0  0  0  0  0  0  0  0  0  0  0  0
    8.4121  -12.2407   26.7139 C   0  0  0  0  0  0  0  0  0  0  0  0
    7.6176  -13.3796   26.6933 C   0  0  0  0  0  0  0  0  0  0  0  0
   10.9915  -16.8127   26.2151 O   0  0  0  0  0  0  0  0  0  0  0  0
   12.2595  -16.3825   26.5709 O   0  0  0  0  0  0  0  0  0  0  0  0
  2  3  2  0
  2  1  1  0
  4  2  1  0
  5  4  1  0
  6  5  1  0
  7  6  1  0
  8  7  1  0
  8  9  1  6
 10 11  2  0
 10  8  1  0
 12 13  1  0
 14 13  1  0
 14 15  1  0
 16 15  1  6
 16 18  1  0
 16 17  1  0
 17 10  1  0
 18 19  2  0
 20 21  1  0
 20 18  1  0
 21 22  1  1
 23 22  1  0
 23 24  2  0
 25 24  1  0
 26 31  2  0
 26 25  1  0
 27 26  1  0
 28 29  1  0
 28 27  2  0
 29 30  2  0
 30 31  1  0
 31 23  1  0
 32 21  1  0
 33 32  1  0
 34 32  2  0
M  END
$$$$
