RMW.pdb
     RDKit          3D

 34 35  0  0  1  0  0  0  0  0999 V2000
    7.9156  -11.9762   18.6629 N   0  0  0  0  0  0  0  0  0  0  0  0
    7.4980  -12.9989   17.7691 C   0  0  0  0  0  0  0  0  0  0  0  0
    7.5091  -12.7543   16.5021 N   0  0  0  0  0  0  0  0  0  0  0  0
    7.0677  -14.2831   18.2220 N   0  0  0  0  0  0  0  0  0  0  0  0
    7.5054  -14.7967   19.5048 C   0  0  0  0  0  0  0  0  0  0  0  0
    8.4624  -15.9631   19.2363 C   0  0  0  0  0  0  0  0  0  0  0  0
    8.1527  -17.0383   20.2458 C   0  0  0  0  0  0  0  0  0  0  0  0
    9.3380  -17.3432   21.1246 C   0  0  2  0  0  0  0  0  0  0  0  0
    9.6902  -18.7349   20.8476 N   0  0  0  0  0  0  0  0  0  0  0  0
    8.9218  -17.2546   22.5412 C   0  0  0  0  0  0  0  0  0  0  0  0
    8.4373  -16.2204   23.0401 O   0  0  0  0  0  0  0  0  0  0  0  0
    7.1319  -13.4201   15.8037 C   0  0  0  0  0  0  0  0  0  0  0  0
    6.1553  -19.5291   28.8059 S   0  0  0  0  0  0  0  0  0  0  0  0
    6.4718  -19.3743   27.0180 C   0  0  0  0  0  0  0  0  0  0  0  0
    8.1142  -20.0194   26.6007 C   0  0  0  0  0  0  0  0  0  0  0  0
    8.3934  -19.8629   25.1208 C   0  0  1  0  0  0  0  0  0  0  0  0
    8.6276  -18.4083   24.7839 N   0  0  0  0  0  0  0  0  0  0  0  0
    9.0648  -18.3787   23.4037 C   0  0  0  0  0  0  0  0  0  0  0  0
    9.6558  -17.7929   25.6461 O   0  0  0  0  0  0  0  0  0  0  0  0
   10.8630  -17.9523   25.3346 N   0  0  0  0  0  0  0  0  0  0  0  0
    9.3326  -17.0313   26.8091 C   0  0  1  0  0  0  0  0  0  0  0  0
   10.3451  -16.5866   27.7123 C   0  0  0  0  0  0  0  0  0  0  0  0
    9.9723  -15.3055   28.4277 C   0  0  0  0  0  0  0  0  0  0  0  0
    9.6999  -14.2037   27.4816 C   0  0  0  0  0  0  0  0  0  0  0  0
   10.4948  -13.1517   27.0948 N   0  0  0  0  0  0  0  0  0  0  0  0
    9.8264  -12.3911   26.2048 C   0  0  0  0  0  0  0  0  0  0  0  0
    8.5943  -12.9044   25.9790 C   0  0  0  0  0  0  0  0  0  0  0  0
    7.5440  -12.5000   25.1654 C   0  0  0  0  0  0  0  0  0  0  0  0
    6.4100  -13.2614   25.1722 C   0  0  0  0  0  0  0  0  0  0  0  0
    6.2575  -14.3996   25.9382 C   0  0  0  0  0  0  0  0  0  0  0  0
    7.3270  -14.7643   26.7316 C   0  0  0  0  0  0  0  0  0  0  0  0
    8.5068  -14.0324   26.7693 C   0  0  0  0  0  0  0  0  0  0  0  0
   10.7147  -17.6630   28.6617 O   0  0  0  0  0  0  0  0  0  0  0  0
   11.7654  -17.5691   29.5600 O   0  0  0  0  0  0  0  0  0  0  0  0
  2  3  2  0
  2  1  1  0
  4  2  1  0
  5  4  1  0
  6  5  1  0
  7  6  1  0
  8  7  1  0
  8  9  1  6
 10 11  2  0
 10  8  1  0
 12 13  1  0
 14 13  1  0
 14 15  1  0
 16 15  1  6
 16 18  1  0
 16 17  1  0
 17 10  1  0
 18 19  2  0
 20 21  1  0
 20 18  1  0
 21 22  1  1
 23 22  1  0
 23 24  2  0
 25 24  1  0
 26 31  2  0
 26 25  1  0
 27 26  1  0
 28 29  1  0
 28 27  2  0
 29 30  2  0
 30 31  1  0
 31 23  1  0
 32 21  1  0
 33 32  1  0
 34 32  2  0
M  END
$$$$
