RMW.pdb
     RDKit          3D

 34 35  0  0  1  0  0  0  0  0999 V2000
   12.3571  -22.4784   14.5031 N   0  0  0  0  0  0  0  0  0  0  0  0
   11.8127  -21.7743   15.6107 C   0  0  0  0  0  0  0  0  0  0  0  0
   10.5298  -21.7230   15.7400 N   0  0  0  0  0  0  0  0  0  0  0  0
   12.6325  -21.1236   16.5824 N   0  0  0  0  0  0  0  0  0  0  0  0
   12.9288  -21.7676   17.8467 C   0  0  0  0  0  0  0  0  0  0  0  0
   11.9586  -21.2073   18.8922 C   0  0  0  0  0  0  0  0  0  0  0  0
   12.5310  -19.9015   19.3803 C   0  0  0  0  0  0  0  0  0  0  0  0
   11.6581  -18.7308   19.0095 C   0  0  2  0  0  0  0  0  0  0  0  0
   12.2221  -18.1906   17.7735 N   0  0  0  0  0  0  0  0  0  0  0  0
   11.7786  -17.6910   20.0547 C   0  0  0  0  0  0  0  0  0  0  0  0
   12.8711  -17.1959   20.3930 O   0  0  0  0  0  0  0  0  0  0  0  0
   10.0707  -21.3315   16.5822 C   0  0  0  0  0  0  0  0  0  0  0  0
    5.7990  -13.7022   22.4766 S   0  0  0  0  0  0  0  0  0  0  0  0
    7.2311  -13.8679   21.3620 C   0  0  0  0  0  0  0  0  0  0  0  0
    8.3959  -15.1043   21.9962 C   0  0  0  0  0  0  0  0  0  0  0  0
    9.6844  -15.0870   21.2012 C   0  0  1  0  0  0  0  0  0  0  0  0
   10.6289  -16.1500   21.7133 N   0  0  0  0  0  0  0  0  0  0  0  0
   10.6187  -17.2090   20.7258 C   0  0  0  0  0  0  0  0  0  0  0  0
   10.2105  -16.6859   23.0237 O   0  0  0  0  0  0  0  0  0  0  0  0
    9.8869  -17.8985   23.0918 N   0  0  0  0  0  0  0  0  0  0  0  0
   10.1603  -15.8855   24.2043 C   0  0  2  0  0  0  0  0  0  0  0  0
   10.1196  -16.4772   25.5031 C   0  0  0  0  0  0  0  0  0  0  0  0
    9.6643  -15.5098   26.5750 C   0  0  0  0  0  0  0  0  0  0  0  0
    8.2717  -15.0643   26.3616 C   0  0  0  0  0  0  0  0  0  0  0  0
    7.1639  -15.7773   25.9711 N   0  0  0  0  0  0  0  0  0  0  0  0
    6.1003  -14.9512   25.9100 C   0  0  0  0  0  0  0  0  0  0  0  0
    6.4625  -13.6922   26.2506 C   0  0  0  0  0  0  0  0  0  0  0  0
    5.7508  -12.5031   26.3411 C   0  0  0  0  0  0  0  0  0  0  0  0
    6.4355  -11.3843   26.7224 C   0  0  0  0  0  0  0  0  0  0  0  0
    7.7836  -11.3765   27.0189 C   0  0  0  0  0  0  0  0  0  0  0  0
    8.4510  -12.5808   26.9157 C   0  0  0  0  0  0  0  0  0  0  0  0
    7.8120  -13.7530   26.5333 C   0  0  0  0  0  0  0  0  0  0  0  0
    9.3051  -17.7153   25.4934 O   0  0  0  0  0  0  0  0  0  0  0  0
    8.4570  -18.0700   24.4568 O   0  0  0  0  0  0  0  0  0  0  0  0
  2  3  2  0
  2  1  1  0
  4  2  1  0
  5  4  1  0
  6  5  1  0
  7  6  1  0
  8  7  1  0
  8  9  1  6
 10 11  2  0
 10  8  1  0
 12 13  1  0
 14 13  1  0
 14 15  1  0
 16 15  1  6
 16 18  1  0
 16 17  1  0
 17 10  1  0
 18 19  2  0
 20 21  1  0
 20 18  1  0
 21 22  1  6
 23 22  1  0
 23 24  2  0
 25 24  1  0
 26 31  2  0
 26 25  1  0
 27 26  1  0
 28 29  1  0
 28 27  2  0
 29 30  2  0
 30 31  1  0
 31 23  1  0
 32 21  1  0
 33 32  1  0
 34 32  2  0
M  END
$$$$
