RMW.pdb
     RDKit          3D

 34 35  0  0  1  0  0  0  0  0999 V2000
    9.4734  -13.4017   13.0722 N   0  0  0  0  0  0  0  0  0  0  0  0
    8.1430  -13.0632   13.4387 C   0  0  0  0  0  0  0  0  0  0  0  0
    7.4405  -12.3499   12.6245 N   0  0  0  0  0  0  0  0  0  0  0  0
    7.5581  -13.4829   14.6722 N   0  0  0  0  0  0  0  0  0  0  0  0
    8.2693  -13.3060   15.9227 C   0  0  0  0  0  0  0  0  0  0  0  0
    7.4127  -13.9199   17.0352 C   0  0  0  0  0  0  0  0  0  0  0  0
    8.1710  -13.7552   18.3271 C   0  0  0  0  0  0  0  0  0  0  0  0
    8.5836  -15.0816   18.9105 C   0  0  2  0  0  0  0  0  0  0  0  0
    7.4264  -15.9614   18.7544 N   0  0  0  0  0  0  0  0  0  0  0  0
    8.8326  -14.9134   20.3588 C   0  0  0  0  0  0  0  0  0  0  0  0
    9.7713  -14.2278   20.8083 O   0  0  0  0  0  0  0  0  0  0  0  0
    6.4416  -12.1333   12.7945 C   0  0  0  0  0  0  0  0  0  0  0  0
    6.4105  -12.8448   27.1862 S   0  0  0  0  0  0  0  0  0  0  0  0
    6.2052  -13.0415   25.3863 C   0  0  0  0  0  0  0  0  0  0  0  0
    7.2167  -14.4158   24.7732 C   0  0  0  0  0  0  0  0  0  0  0  0
    7.1365  -14.5113   23.2642 C   0  0  1  0  0  0  0  0  0  0  0  0
    8.1759  -15.4782   22.7457 N   0  0  0  0  0  0  0  0  0  0  0  0
    7.9846  -15.5462   21.3120 C   0  0  0  0  0  0  0  0  0  0  0  0
    8.0296  -16.8248   23.3328 O   0  0  0  0  0  0  0  0  0  0  0  0
    6.8694  -17.2887   23.4694 N   0  0  0  0  0  0  0  0  0  0  0  0
    9.1461  -17.6114   23.7472 C   0  0  2  0  0  0  0  0  0  0  0  0
    9.5141  -17.7143   25.1229 C   0  0  0  0  0  0  0  0  0  0  0  0
   10.7375  -16.8913   25.4666 C   0  0  0  0  0  0  0  0  0  0  0  0
   11.0110  -16.8882   26.9187 C   0  0  0  0  0  0  0  0  0  0  0  0
   11.5350  -17.8712   27.7232 N   0  0  0  0  0  0  0  0  0  0  0  0
   11.6054  -17.4194   28.9914 C   0  0  0  0  0  0  0  0  0  0  0  0
   11.1402  -16.1503   29.0652 C   0  0  0  0  0  0  0  0  0  0  0  0
   11.0046  -15.2606   30.1228 C   0  0  0  0  0  0  0  0  0  0  0  0
   10.4859  -14.0272   29.8484 C   0  0  0  0  0  0  0  0  0  0  0  0
   10.0944  -13.6253   28.5872 C   0  0  0  0  0  0  0  0  0  0  0  0
   10.2473  -14.5419   27.5660 C   0  0  0  0  0  0  0  0  0  0  0  0
   10.7681  -15.8114   27.7800 C   0  0  0  0  0  0  0  0  0  0  0  0
    8.3653  -17.3912   26.0018 O   0  0  0  0  0  0  0  0  0  0  0  0
    7.7001  -18.3294   26.7744 O   0  0  0  0  0  0  0  0  0  0  0  0
  2  3  2  0
  2  1  1  0
  4  2  1  0
  5  4  1  0
  6  5  1  0
  7  6  1  0
  8  7  1  0
  8  9  1  1
 10 11  2  0
 10  8  1  0
 12 13  1  0
 14 13  1  0
 14 15  1  0
 16 15  1  6
 16 18  1  0
 16 17  1  0
 17 10  1  0
 18 19  2  0
 20 21  1  0
 20 18  1  0
 21 22  1  6
 23 22  1  0
 23 24  2  0
 25 24  1  0
 26 31  2  0
 26 25  1  0
 27 26  1  0
 28 29  1  0
 28 27  2  0
 29 30  2  0
 30 31  1  0
 31 23  1  0
 32 21  1  0
 33 32  1  0
 34 32  2  0
M  END
$$$$
