RMW.pdb
     RDKit          3D

 34 35  0  0  1  0  0  0  0  0999 V2000
   13.9770  -16.1378   15.1224 N   0  0  0  0  0  0  0  0  0  0  0  0
   13.1942  -16.8446   14.1702 C   0  0  0  0  0  0  0  0  0  0  0  0
   13.2951  -16.5208   12.9251 N   0  0  0  0  0  0  0  0  0  0  0  0
   12.3027  -17.8968   14.5413 N   0  0  0  0  0  0  0  0  0  0  0  0
   12.2899  -18.4075   15.8978 C   0  0  0  0  0  0  0  0  0  0  0  0
   11.3151  -17.5471   16.7089 C   0  0  0  0  0  0  0  0  0  0  0  0
   10.1332  -18.4153   17.0560 C   0  0  0  0  0  0  0  0  0  0  0  0
   10.2022  -18.9190   18.4743 C   0  0  2  0  0  0  0  0  0  0  0  0
    8.9226  -19.5809   18.7233 N   0  0  0  0  0  0  0  0  0  0  0  0
   10.2999  -17.7624   19.3911 C   0  0  0  0  0  0  0  0  0  0  0  0
   11.2518  -16.9583   19.3660 O   0  0  0  0  0  0  0  0  0  0  0  0
   12.8208  -17.0513   12.1722 C   0  0  0  0  0  0  0  0  0  0  0  0
    7.5387  -11.9963   19.9512 S   0  0  0  0  0  0  0  0  0  0  0  0
    7.1074  -13.1628   21.2832 C   0  0  0  0  0  0  0  0  0  0  0  0
    8.5057  -14.2557   21.6544 C   0  0  0  0  0  0  0  0  0  0  0  0
    8.1545  -15.6983   21.3573 C   0  0  2  0  0  0  0  0  0  0  0  0
    9.3906  -16.5642   21.4369 N   0  0  0  0  0  0  0  0  0  0  0  0
    9.2818  -17.5237   20.3578 C   0  0  0  0  0  0  0  0  0  0  0  0
    9.4942  -17.2742   22.7270 O   0  0  0  0  0  0  0  0  0  0  0  0
    8.6550  -18.1762   22.9759 N   0  0  0  0  0  0  0  0  0  0  0  0
   10.5022  -16.9768   23.6928 C   0  0  2  0  0  0  0  0  0  0  0  0
   10.1678  -16.4727   24.9861 C   0  0  0  0  0  0  0  0  0  0  0  0
    9.7797  -15.0095   24.9636 C   0  0  0  0  0  0  0  0  0  0  0  0
    8.4079  -14.7941   25.4687 C   0  0  0  0  0  0  0  0  0  0  0  0
    7.3951  -15.6952   25.6929 N   0  0  0  0  0  0  0  0  0  0  0  0
    6.3123  -15.0424   26.1606 C   0  0  0  0  0  0  0  0  0  0  0  0
    6.5684  -13.7168   26.2588 C   0  0  0  0  0  0  0  0  0  0  0  0
    5.7970  -12.6406   26.6775 C   0  0  0  0  0  0  0  0  0  0  0  0
    6.3730  -11.4023   26.6516 C   0  0  0  0  0  0  0  0  0  0  0  0
    7.6683  -11.1697   26.2350 C   0  0  0  0  0  0  0  0  0  0  0  0
    8.3983  -12.2686   25.8276 C   0  0  0  0  0  0  0  0  0  0  0  0
    7.8701  -13.5530   25.8303 C   0  0  0  0  0  0  0  0  0  0  0  0
    9.1267  -17.3112   25.6261 O   0  0  0  0  0  0  0  0  0  0  0  0
    8.4709  -18.3480   24.9822 O   0  0  0  0  0  0  0  0  0  0  0  0
  2  3  2  0
  2  1  1  0
  4  2  1  0
  5  4  1  0
  6  5  1  0
  7  6  1  0
  8  7  1  0
  8  9  1  1
 10 11  2  0
 10  8  1  0
 12 13  1  0
 14 13  1  0
 14 15  1  0
 16 15  1  6
 16 18  1  0
 16 17  1  0
 17 10  1  0
 18 19  2  0
 20 21  1  0
 20 18  1  0
 21 22  1  6
 23 22  1  0
 23 24  2  0
 25 24  1  0
 26 31  2  0
 26 25  1  0
 27 26  1  0
 28 29  1  0
 28 27  2  0
 29 30  2  0
 30 31  1  0
 31 23  1  0
 32 21  1  0
 33 32  1  0
 34 32  2  0
M  END
$$$$
