RMW.pdb
     RDKit          3D

 34 35  0  0  1  0  0  0  0  0999 V2000
    8.9543  -12.9183   15.1734 N   0  0  0  0  0  0  0  0  0  0  0  0
    7.9290  -13.8983   15.0875 C   0  0  0  0  0  0  0  0  0  0  0  0
    6.7355  -13.5777   15.4588 N   0  0  0  0  0  0  0  0  0  0  0  0
    8.1722  -15.2209   14.6065 N   0  0  0  0  0  0  0  0  0  0  0  0
    8.9199  -16.1701   15.4069 C   0  0  0  0  0  0  0  0  0  0  0  0
    8.1406  -16.3976   16.7066 C   0  0  0  0  0  0  0  0  0  0  0  0
    8.9451  -17.3526   17.5503 C   0  0  0  0  0  0  0  0  0  0  0  0
    8.3000  -17.6013   18.8890 C   0  0  2  0  0  0  0  0  0  0  0  0
    6.9177  -17.1444   18.7548 N   0  0  0  0  0  0  0  0  0  0  0  0
    8.9605  -16.7540   19.9058 C   0  0  0  0  0  0  0  0  0  0  0  0
   10.1959  -16.7324   20.0689 O   0  0  0  0  0  0  0  0  0  0  0  0
    5.9326  -14.2268   15.3715 C   0  0  0  0  0  0  0  0  0  0  0  0
    6.1280  -13.5219   26.1238 S   0  0  0  0  0  0  0  0  0  0  0  0
    6.9239  -13.0425   24.5562 C   0  0  0  0  0  0  0  0  0  0  0  0
    7.0321  -14.4619   23.4331 C   0  0  0  0  0  0  0  0  0  0  0  0
    7.6218  -14.0500   22.1008 C   0  0  1  0  0  0  0  0  0  0  0  0
    8.7445  -14.9851   21.7146 N   0  0  0  0  0  0  0  0  0  0  0  0
    8.1850  -15.9127   20.7537 C   0  0  0  0  0  0  0  0  0  0  0  0
    9.2772  -15.7283   22.8736 O   0  0  0  0  0  0  0  0  0  0  0  0
    8.6558  -16.7510   23.2580 N   0  0  0  0  0  0  0  0  0  0  0  0
   10.4602  -15.3322   23.5668 C   0  0  2  0  0  0  0  0  0  0  0  0
   10.7428  -15.8025   24.8850 C   0  0  0  0  0  0  0  0  0  0  0  0
    9.4925  -16.1481   25.6657 C   0  0  0  0  0  0  0  0  0  0  0  0
    9.7934  -16.4699   27.0761 C   0  0  0  0  0  0  0  0  0  0  0  0
    9.8423  -17.6847   27.7163 N   0  0  0  0  0  0  0  0  0  0  0  0
   10.1600  -17.4937   29.0124 C   0  0  0  0  0  0  0  0  0  0  0  0
   10.3279  -16.1746   29.2660 C   0  0  0  0  0  0  0  0  0  0  0  0
   10.6539  -15.4752   30.4206 C   0  0  0  0  0  0  0  0  0  0  0  0
   10.7445  -14.1152   30.3312 C   0  0  0  0  0  0  0  0  0  0  0  0
   10.5308  -13.4094   29.1643 C   0  0  0  0  0  0  0  0  0  0  0  0
   10.2092  -14.1455   28.0413 C   0  0  0  0  0  0  0  0  0  0  0  0
   10.1017  -15.5299   28.0669 C   0  0  0  0  0  0  0  0  0  0  0  0
   11.7016  -16.9320   24.8478 O   0  0  0  0  0  0  0  0  0  0  0  0
   12.7833  -16.9948   23.9843 O   0  0  0  0  0  0  0  0  0  0  0  0
  2  3  2  0
  2  1  1  0
  4  2  1  0
  5  4  1  0
  6  5  1  0
  7  6  1  0
  8  7  1  0
  8  9  1  6
 10 11  2  0
 10  8  1  0
 12 13  1  0
 14 13  1  0
 14 15  1  0
 16 15  1  6
 16 18  1  0
 16 17  1  0
 17 10  1  0
 18 19  2  0
 20 21  1  0
 20 18  1  0
 21 22  1  6
 23 22  1  0
 23 24  2  0
 25 24  1  0
 26 31  2  0
 26 25  1  0
 27 26  1  0
 28 29  1  0
 28 27  2  0
 29 30  2  0
 30 31  1  0
 31 23  1  0
 32 21  1  0
 33 32  1  0
 34 32  2  0
M  END
$$$$
