RMW.pdb
     RDKit          3D

 34 35  0  0  1  0  0  0  0  0999 V2000
    9.4236  -20.1623   13.5771 N   0  0  0  0  0  0  0  0  0  0  0  0
    8.7142  -20.4765   14.7675 C   0  0  0  0  0  0  0  0  0  0  0  0
    8.2383  -21.6678   14.9068 N   0  0  0  0  0  0  0  0  0  0  0  0
    8.5100  -19.5234   15.8114 N   0  0  0  0  0  0  0  0  0  0  0  0
    8.8943  -18.1377   15.6295 C   0  0  0  0  0  0  0  0  0  0  0  0
    8.5811  -17.3939   16.9321 C   0  0  0  0  0  0  0  0  0  0  0  0
    9.7290  -17.6415   17.8767 C   0  0  0  0  0  0  0  0  0  0  0  0
    9.2522  -17.9683   19.2681 C   0  0  2  0  0  0  0  0  0  0  0  0
    7.8029  -17.7775   19.2464 N   0  0  0  0  0  0  0  0  0  0  0  0
    9.8242  -16.9867   20.2153 C   0  0  0  0  0  0  0  0  0  0  0  0
   11.0239  -16.6497   20.1975 O   0  0  0  0  0  0  0  0  0  0  0  0
    7.6880  -21.9534   15.7369 C   0  0  0  0  0  0  0  0  0  0  0  0
    7.9432  -11.3359   25.4237 S   0  0  0  0  0  0  0  0  0  0  0  0
    7.3787  -12.6397   24.2826 C   0  0  0  0  0  0  0  0  0  0  0  0
    8.7773  -13.6468   23.7194 C   0  0  0  0  0  0  0  0  0  0  0  0
    8.3280  -14.6655   22.6933 C   0  0  2  0  0  0  0  0  0  0  0  0
    9.4941  -15.5271   22.2667 N   0  0  0  0  0  0  0  0  0  0  0  0
    9.0000  -16.3784   21.2046 C   0  0  0  0  0  0  0  0  0  0  0  0
   10.0099  -16.3579   23.3726 O   0  0  0  0  0  0  0  0  0  0  0  0
    9.5387  -17.5145   23.5144 N   0  0  0  0  0  0  0  0  0  0  0  0
   11.0140  -15.9005   24.2780 C   0  0  2  0  0  0  0  0  0  0  0  0
   11.5650  -16.7615   25.2748 C   0  0  0  0  0  0  0  0  0  0  0  0
   10.5204  -17.6302   25.9428 C   0  0  0  0  0  0  0  0  0  0  0  0
    9.3416  -16.8477   26.3687 C   0  0  0  0  0  0  0  0  0  0  0  0
    8.0275  -16.9427   25.9784 N   0  0  0  0  0  0  0  0  0  0  0  0
    7.2986  -16.0192   26.6366 C   0  0  0  0  0  0  0  0  0  0  0  0
    8.0900  -15.2989   27.4657 C   0  0  0  0  0  0  0  0  0  0  0  0
    7.8265  -14.2531   28.3406 C   0  0  0  0  0  0  0  0  0  0  0  0
    8.8777  -13.7384   29.0448 C   0  0  0  0  0  0  0  0  0  0  0  0
   10.1736  -14.2002   28.9318 C   0  0  0  0  0  0  0  0  0  0  0  0
   10.3892  -15.2410   28.0504 C   0  0  0  0  0  0  0  0  0  0  0  0
    9.3630  -15.8075   27.3056 C   0  0  0  0  0  0  0  0  0  0  0  0
   12.6800  -17.5650   24.7199 O   0  0  0  0  0  0  0  0  0  0  0  0
   13.0412  -17.5590   23.3824 O   0  0  0  0  0  0  0  0  0  0  0  0
  2  3  2  0
  2  1  1  0
  4  2  1  0
  5  4  1  0
  6  5  1  0
  7  6  1  0
  8  7  1  0
  8  9  1  6
 10 11  2  0
 10  8  1  0
 12 13  1  0
 14 13  1  0
 14 15  1  0
 16 15  1  6
 16 18  1  0
 16 17  1  0
 17 10  1  0
 18 19  2  0
 20 21  1  0
 20 18  1  0
 21 22  1  6
 23 22  1  0
 23 24  2  0
 25 24  1  0
 26 31  2  0
 26 25  1  0
 27 26  1  0
 28 29  1  0
 28 27  2  0
 29 30  2  0
 30 31  1  0
 31 23  1  0
 32 21  1  0
 33 32  1  0
 34 32  2  0
M  END
$$$$
