RMW.pdb
     RDKit          3D

 34 35  0  0  1  0  0  0  0  0999 V2000
    7.0291  -13.6943   14.9440 N   0  0  0  0  0  0  0  0  0  0  0  0
    7.8835  -12.7602   15.5893 C   0  0  0  0  0  0  0  0  0  0  0  0
    8.0451  -11.5978   15.0527 N   0  0  0  0  0  0  0  0  0  0  0  0
    8.5672  -13.0615   16.8064 N   0  0  0  0  0  0  0  0  0  0  0  0
    8.5182  -14.3968   17.3680 C   0  0  0  0  0  0  0  0  0  0  0  0
    7.4863  -14.3868   18.5009 C   0  0  0  0  0  0  0  0  0  0  0  0
    7.3012  -15.8131   18.9510 C   0  0  0  0  0  0  0  0  0  0  0  0
    8.5804  -16.4061   19.4819 C   0  0  2  0  0  0  0  0  0  0  0  0
    8.3395  -17.8446   19.5826 N   0  0  0  0  0  0  0  0  0  0  0  0
    8.8192  -15.8902   20.8475 C   0  0  0  0  0  0  0  0  0  0  0  0
    9.1993  -14.7249   21.0731 O   0  0  0  0  0  0  0  0  0  0  0  0
    8.6624  -10.8755   15.4658 C   0  0  0  0  0  0  0  0  0  0  0  0
    6.3287  -12.8523   26.2689 S   0  0  0  0  0  0  0  0  0  0  0  0
    6.9359  -14.5569   26.0528 C   0  0  0  0  0  0  0  0  0  0  0  0
    7.1711  -14.9344   24.2950 C   0  0  0  0  0  0  0  0  0  0  0  0
    7.6597  -16.3556   24.1109 C   0  0  2  0  0  0  0  0  0  0  0  0
    8.9583  -16.3659   23.3379 N   0  0  0  0  0  0  0  0  0  0  0  0
    8.6166  -16.7310   21.9789 C   0  0  0  0  0  0  0  0  0  0  0  0
    9.9279  -17.3349   23.8858 O   0  0  0  0  0  0  0  0  0  0  0  0
    9.8915  -18.5161   23.4576 N   0  0  0  0  0  0  0  0  0  0  0  0
   10.8955  -16.9833   24.8744 C   0  0  2  0  0  0  0  0  0  0  0  0
   11.7310  -17.9693   25.4814 C   0  0  0  0  0  0  0  0  0  0  0  0
   12.7188  -17.3774   26.4642 C   0  0  0  0  0  0  0  0  0  0  0  0
   12.0420  -16.7602   27.6236 C   0  0  0  0  0  0  0  0  0  0  0  0
   11.7731  -17.2746   28.8691 N   0  0  0  0  0  0  0  0  0  0  0  0
   11.1346  -16.3449   29.6076 C   0  0  0  0  0  0  0  0  0  0  0  0
   10.9641  -15.2099   28.8899 C   0  0  0  0  0  0  0  0  0  0  0  0
   10.3761  -13.9885   29.1914 C   0  0  0  0  0  0  0  0  0  0  0  0
   10.3708  -13.0319   28.2163 C   0  0  0  0  0  0  0  0  0  0  0  0
   10.9143  -13.2162   26.9610 C   0  0  0  0  0  0  0  0  0  0  0  0
   11.4884  -14.4456   26.7052 C   0  0  0  0  0  0  0  0  0  0  0  0
   11.5257  -15.4591   27.6540 C   0  0  0  0  0  0  0  0  0  0  0  0
   10.9170  -19.0450   26.0953 O   0  0  0  0  0  0  0  0  0  0  0  0
   11.4151  -20.2964   26.4201 O   0  0  0  0  0  0  0  0  0  0  0  0
  2  3  2  0
  2  1  1  0
  4  2  1  0
  5  4  1  0
  6  5  1  0
  7  6  1  0
  8  7  1  0
  8  9  1  1
 10 11  2  0
 10  8  1  0
 12 13  1  0
 14 13  1  0
 14 15  1  0
 16 15  1  6
 16 18  1  0
 16 17  1  0
 17 10  1  0
 18 19  2  0
 20 21  1  0
 20 18  1  0
 21 22  1  6
 23 22  1  0
 23 24  2  0
 25 24  1  0
 26 31  2  0
 26 25  1  0
 27 26  1  0
 28 29  1  0
 28 27  2  0
 29 30  2  0
 30 31  1  0
 31 23  1  0
 32 21  1  0
 33 32  1  0
 34 32  2  0
M  END
$$$$
