RMW.pdb
     RDKit          3D

 34 35  0  0  1  0  0  0  0  0999 V2000
    8.5760  -18.5040   14.4248 N   0  0  0  0  0  0  0  0  0  0  0  0
    7.8393  -19.0820   15.4936 C   0  0  0  0  0  0  0  0  0  0  0  0
    6.5687  -19.2526   15.3468 N   0  0  0  0  0  0  0  0  0  0  0  0
    8.4535  -19.4790   16.7204 N   0  0  0  0  0  0  0  0  0  0  0  0
    9.8904  -19.3888   16.8879 C   0  0  0  0  0  0  0  0  0  0  0  0
   10.2309  -19.9317   18.2799 C   0  0  0  0  0  0  0  0  0  0  0  0
   10.9167  -18.8241   19.0375 C   0  0  0  0  0  0  0  0  0  0  0  0
   10.7433  -18.9700   20.5271 C   0  0  2  0  0  0  0  0  0  0  0  0
    9.3268  -19.2667   20.7348 N   0  0  0  0  0  0  0  0  0  0  0  0
   11.0339  -17.6721   21.1743 C   0  0  0  0  0  0  0  0  0  0  0  0
   12.1771  -17.1774   21.2142 O   0  0  0  0  0  0  0  0  0  0  0  0
    5.9788  -19.6938   16.0754 C   0  0  0  0  0  0  0  0  0  0  0  0
    6.7925  -13.3559   20.2113 S   0  0  0  0  0  0  0  0  0  0  0  0
    7.6721  -12.3848   21.4778 C   0  0  0  0  0  0  0  0  0  0  0  0
    9.0042  -13.3630   22.2235 C   0  0  0  0  0  0  0  0  0  0  0  0
    8.9630  -14.7934   21.7287 C   0  0  1  0  0  0  0  0  0  0  0  0
   10.1341  -15.5720   22.2822 N   0  0  0  0  0  0  0  0  0  0  0  0
    9.9884  -16.9257   21.7891 C   0  0  0  0  0  0  0  0  0  0  0  0
   10.1541  -15.5784   23.7583 O   0  0  0  0  0  0  0  0  0  0  0  0
   10.5661  -14.5486   24.3497 N   0  0  0  0  0  0  0  0  0  0  0  0
    9.7272  -16.6999   24.5310 C   0  0  1  0  0  0  0  0  0  0  0  0
   10.1270  -16.8610   25.8922 C   0  0  0  0  0  0  0  0  0  0  0  0
    9.4117  -15.9122   26.8304 C   0  0  0  0  0  0  0  0  0  0  0  0
    8.1186  -15.4589   26.2775 C   0  0  0  0  0  0  0  0  0  0  0  0
    7.1043  -16.1785   25.6932 N   0  0  0  0  0  0  0  0  0  0  0  0
    6.1099  -15.3405   25.3379 C   0  0  0  0  0  0  0  0  0  0  0  0
    6.4275  -14.0668   25.6686 C   0  0  0  0  0  0  0  0  0  0  0  0
    5.7535  -12.8621   25.5168 C   0  0  0  0  0  0  0  0  0  0  0  0
    6.3713  -11.7311   25.9694 C   0  0  0  0  0  0  0  0  0  0  0  0
    7.6174  -11.7255   26.5632 C   0  0  0  0  0  0  0  0  0  0  0  0
    8.2506  -12.9456   26.6936 C   0  0  0  0  0  0  0  0  0  0  0  0
    7.6758  -14.1309   26.2538 C   0  0  0  0  0  0  0  0  0  0  0  0
    9.9856  -18.2730   26.3199 O   0  0  0  0  0  0  0  0  0  0  0  0
    9.4629  -19.2720   25.5147 O   0  0  0  0  0  0  0  0  0  0  0  0
  2  3  2  0
  2  1  1  0
  4  2  1  0
  5  4  1  0
  6  5  1  0
  7  6  1  0
  8  7  1  0
  8  9  1  6
 10 11  2  0
 10  8  1  0
 12 13  1  0
 14 13  1  0
 14 15  1  0
 16 15  1  6
 16 18  1  0
 16 17  1  0
 17 10  1  0
 18 19  2  0
 20 21  1  0
 20 18  1  0
 21 22  1  1
 23 22  1  0
 23 24  2  0
 25 24  1  0
 26 31  2  0
 26 25  1  0
 27 26  1  0
 28 29  1  0
 28 27  2  0
 29 30  2  0
 30 31  1  0
 31 23  1  0
 32 21  1  0
 33 32  1  0
 34 32  2  0
M  END
$$$$
