RMW.pdb
     RDKit          3D

 34 35  0  0  1  0  0  0  0  0999 V2000
   10.3345  -19.0759   15.2140 N   0  0  0  0  0  0  0  0  0  0  0  0
    9.0341  -19.1107   14.6424 C   0  0  0  0  0  0  0  0  0  0  0  0
    8.7224  -20.1014   13.8765 N   0  0  0  0  0  0  0  0  0  0  0  0
    8.0635  -18.0914   14.8847 N   0  0  0  0  0  0  0  0  0  0  0  0
    7.6051  -17.8158   16.2319 C   0  0  0  0  0  0  0  0  0  0  0  0
    8.1351  -18.9305   17.1402 C   0  0  0  0  0  0  0  0  0  0  0  0
    7.6075  -18.6673   18.5270 C   0  0  0  0  0  0  0  0  0  0  0  0
    8.7113  -18.6337   19.5520 C   0  0  2  0  0  0  0  0  0  0  0  0
    8.2115  -19.3906   20.6988 N   0  0  0  0  0  0  0  0  0  0  0  0
    8.9203  -17.2359   19.9881 C   0  0  0  0  0  0  0  0  0  0  0  0
    9.0012  -16.2832   19.1888 O   0  0  0  0  0  0  0  0  0  0  0  0
    7.7871  -20.1947   13.4407 C   0  0  0  0  0  0  0  0  0  0  0  0
    6.9259  -10.6198   21.7822 S   0  0  0  0  0  0  0  0  0  0  0  0
    6.8468  -12.3226   21.1382 C   0  0  0  0  0  0  0  0  0  0  0  0
    8.1353  -13.3522   21.8915 C   0  0  0  0  0  0  0  0  0  0  0  0
    8.0339  -14.7824   21.4049 C   0  0  2  0  0  0  0  0  0  0  0  0
    9.2153  -15.5867   21.8962 N   0  0  0  0  0  0  0  0  0  0  0  0
    9.0384  -16.9253   21.3729 C   0  0  0  0  0  0  0  0  0  0  0  0
    9.2867  -15.6328   23.3700 O   0  0  0  0  0  0  0  0  0  0  0  0
    9.3415  -14.5435   23.9949 N   0  0  0  0  0  0  0  0  0  0  0  0
    9.2958  -16.8566   24.1043 C   0  0  1  0  0  0  0  0  0  0  0  0
   10.1272  -17.0294   25.2521 C   0  0  0  0  0  0  0  0  0  0  0  0
    9.5249  -16.4361   26.5081 C   0  0  0  0  0  0  0  0  0  0  0  0
    8.2801  -15.6920   26.2253 C   0  0  0  0  0  0  0  0  0  0  0  0
    7.0391  -16.1505   25.8540 N   0  0  0  0  0  0  0  0  0  0  0  0
    6.2025  -15.1039   25.7061 C   0  0  0  0  0  0  0  0  0  0  0  0
    6.8491  -13.9441   25.9690 C   0  0  0  0  0  0  0  0  0  0  0  0
    6.4387  -12.6174   25.9572 C   0  0  0  0  0  0  0  0  0  0  0  0
    7.3649  -11.6666   26.2795 C   0  0  0  0  0  0  0  0  0  0  0  0
    8.6731  -11.9548   26.6125 C   0  0  0  0  0  0  0  0  0  0  0  0
    9.0370  -13.2868   26.6115 C   0  0  0  0  0  0  0  0  0  0  0  0
    8.1425  -14.3003   26.2931 C   0  0  0  0  0  0  0  0  0  0  0  0
   10.4882  -18.4555   25.4321 O   0  0  0  0  0  0  0  0  0  0  0  0
   11.4014  -18.9051   26.3721 O   0  0  0  0  0  0  0  0  0  0  0  0
  2  3  2  0
  2  1  1  0
  4  2  1  0
  5  4  1  0
  6  5  1  0
  7  6  1  0
  8  7  1  0
  8  9  1  1
 10 11  2  0
 10  8  1  0
 12 13  1  0
 14 13  1  0
 14 15  1  0
 16 15  1  6
 16 18  1  0
 16 17  1  0
 17 10  1  0
 18 19  2  0
 20 21  1  0
 20 18  1  0
 21 22  1  1
 23 22  1  0
 23 24  2  0
 25 24  1  0
 26 31  2  0
 26 25  1  0
 27 26  1  0
 28 29  1  0
 28 27  2  0
 29 30  2  0
 30 31  1  0
 31 23  1  0
 32 21  1  0
 33 32  1  0
 34 32  2  0
M  END
$$$$
