RMW.pdb
     RDKit          3D

 34 35  0  0  1  0  0  0  0  0999 V2000
    7.2391  -19.9888   14.9183 N   0  0  0  0  0  0  0  0  0  0  0  0
    8.5726  -19.5565   14.6860 C   0  0  0  0  0  0  0  0  0  0  0  0
    9.3864  -20.3586   14.0863 N   0  0  0  0  0  0  0  0  0  0  0  0
    9.0422  -18.2701   15.0915 N   0  0  0  0  0  0  0  0  0  0  0  0
    9.1802  -17.9457   16.4974 C   0  0  0  0  0  0  0  0  0  0  0  0
    7.7779  -17.9505   17.1152 C   0  0  0  0  0  0  0  0  0  0  0  0
    7.8263  -17.0789   18.3436 C   0  0  0  0  0  0  0  0  0  0  0  0
    8.8317  -17.5782   19.3486 C   0  0  2  0  0  0  0  0  0  0  0  0
    8.5517  -19.0034   19.5161 N   0  0  0  0  0  0  0  0  0  0  0  0
    8.5857  -16.9126   20.6463 C   0  0  0  0  0  0  0  0  0  0  0  0
    8.6378  -15.6760   20.7926 O   0  0  0  0  0  0  0  0  0  0  0  0
   10.3549  -20.0860   13.8391 C   0  0  0  0  0  0  0  0  0  0  0  0
    6.5417  -15.0896   26.5411 S   0  0  0  0  0  0  0  0  0  0  0  0
    5.7921  -16.5592   25.7670 C   0  0  0  0  0  0  0  0  0  0  0  0
    7.0693  -17.7591   25.3016 C   0  0  0  0  0  0  0  0  0  0  0  0
    7.0578  -18.0046   23.8076 C   0  0  1  0  0  0  0  0  0  0  0  0
    8.0847  -17.1299   23.1262 N   0  0  0  0  0  0  0  0  0  0  0  0
    8.2724  -17.6841   21.8016 C   0  0  0  0  0  0  0  0  0  0  0  0
    9.3728  -17.1137   23.8472 O   0  0  0  0  0  0  0  0  0  0  0  0
    9.9517  -18.2108   24.0507 N   0  0  0  0  0  0  0  0  0  0  0  0
    9.9790  -15.9102   24.3174 C   0  0  2  0  0  0  0  0  0  0  0  0
   11.1923  -15.9328   25.0697 C   0  0  0  0  0  0  0  0  0  0  0  0
   11.4259  -14.6541   25.8458 C   0  0  0  0  0  0  0  0  0  0  0  0
   10.2434  -14.2681   26.6433 C   0  0  0  0  0  0  0  0  0  0  0  0
    9.9012  -14.5930   27.9339 N   0  0  0  0  0  0  0  0  0  0  0  0
    8.7263  -14.0094   28.2444 C   0  0  0  0  0  0  0  0  0  0  0  0
    8.2634  -13.2950   27.1919 C   0  0  0  0  0  0  0  0  0  0  0  0
    7.1203  -12.5278   27.0086 C   0  0  0  0  0  0  0  0  0  0  0  0
    6.9515  -11.9258   25.7941 C   0  0  0  0  0  0  0  0  0  0  0  0
    7.8495  -12.0402   24.7522 C   0  0  0  0  0  0  0  0  0  0  0  0
    8.9715  -12.8123   24.9790 C   0  0  0  0  0  0  0  0  0  0  0  0
    9.2009  -13.4502   26.1911 C   0  0  0  0  0  0  0  0  0  0  0  0
   11.2487  -17.1284   25.9438 O   0  0  0  0  0  0  0  0  0  0  0  0
   10.1308  -17.7251   26.5041 O   0  0  0  0  0  0  0  0  0  0  0  0
  2  3  2  0
  2  1  1  0
  4  2  1  0
  5  4  1  0
  6  5  1  0
  7  6  1  0
  8  7  1  0
  8  9  1  1
 10 11  2  0
 10  8  1  0
 12 13  1  0
 14 13  1  0
 14 15  1  0
 16 15  1  6
 16 18  1  0
 16 17  1  0
 17 10  1  0
 18 19  2  0
 20 21  1  0
 20 18  1  0
 21 22  1  6
 23 22  1  0
 23 24  2  0
 25 24  1  0
 26 31  2  0
 26 25  1  0
 27 26  1  0
 28 29  1  0
 28 27  2  0
 29 30  2  0
 30 31  1  0
 31 23  1  0
 32 21  1  0
 33 32  1  0
 34 32  2  0
M  END
$$$$
