RMW.pdb
     RDKit          3D

 34 35  0  0  1  0  0  0  0  0999 V2000
   12.0928  -22.4305   17.2707 N   0  0  0  0  0  0  0  0  0  0  0  0
   12.6418  -21.5053   16.3423 C   0  0  0  0  0  0  0  0  0  0  0  0
   13.8207  -21.7314   15.8688 N   0  0  0  0  0  0  0  0  0  0  0  0
   11.9373  -20.3382   15.9167 N   0  0  0  0  0  0  0  0  0  0  0  0
   11.3735  -19.4225   16.8886 C   0  0  0  0  0  0  0  0  0  0  0  0
   10.9424  -20.2458   18.1071 C   0  0  0  0  0  0  0  0  0  0  0  0
   10.6421  -19.2752   19.2201 C   0  0  0  0  0  0  0  0  0  0  0  0
    9.4803  -18.3764   18.8848 C   0  0  2  0  0  0  0  0  0  0  0  0
    9.6752  -17.9785   17.4915 N   0  0  0  0  0  0  0  0  0  0  0  0
    9.5587  -17.1576   19.7192 C   0  0  0  0  0  0  0  0  0  0  0  0
   10.5205  -16.3664   19.6716 O   0  0  0  0  0  0  0  0  0  0  0  0
   14.3058  -21.0640   15.2421 C   0  0  0  0  0  0  0  0  0  0  0  0
    7.6868  -12.1862   19.6990 S   0  0  0  0  0  0  0  0  0  0  0  0
    8.1834  -12.6005   21.4026 C   0  0  0  0  0  0  0  0  0  0  0  0
    7.0239  -13.7853   22.1370 C   0  0  0  0  0  0  0  0  0  0  0  0
    7.0928  -15.1186   21.4228 C   0  0  2  0  0  0  0  0  0  0  0  0
    8.4975  -15.6727   21.4846 N   0  0  0  0  0  0  0  0  0  0  0  0
    8.5092  -16.8402   20.6280 C   0  0  0  0  0  0  0  0  0  0  0  0
    8.8878  -16.0562   22.8557 O   0  0  0  0  0  0  0  0  0  0  0  0
    8.5023  -17.1704   23.2917 N   0  0  0  0  0  0  0  0  0  0  0  0
    9.6788  -15.2167   23.6962 C   0  0  2  0  0  0  0  0  0  0  0  0
   10.1632  -15.6730   24.9595 C   0  0  0  0  0  0  0  0  0  0  0  0
    9.1058  -16.3944   25.7680 C   0  0  0  0  0  0  0  0  0  0  0  0
    7.7974  -15.7109   25.7010 C   0  0  0  0  0  0  0  0  0  0  0  0
    6.5893  -16.1561   25.2212 N   0  0  0  0  0  0  0  0  0  0  0  0
    5.6663  -15.1842   25.3655 C   0  0  0  0  0  0  0  0  0  0  0  0
    6.2221  -14.0882   25.9331 C   0  0  0  0  0  0  0  0  0  0  0  0
    5.7043  -12.8482   26.2838 C   0  0  0  0  0  0  0  0  0  0  0  0
    6.5573  -11.9447   26.8510 C   0  0  0  0  0  0  0  0  0  0  0  0
    7.8927  -12.1993   27.0905 C   0  0  0  0  0  0  0  0  0  0  0  0
    8.3643  -13.4448   26.7261 C   0  0  0  0  0  0  0  0  0  0  0  0
    7.5481  -14.4068   26.1454 C   0  0  0  0  0  0  0  0  0  0  0  0
   11.3856  -16.4936   24.7904 O   0  0  0  0  0  0  0  0  0  0  0  0
   12.1031  -17.0317   25.8466 O   0  0  0  0  0  0  0  0  0  0  0  0
  2  3  2  0
  2  1  1  0
  4  2  1  0
  5  4  1  0
  6  5  1  0
  7  6  1  0
  8  7  1  0
  8  9  1  6
 10 11  2  0
 10  8  1  0
 12 13  1  0
 14 13  1  0
 14 15  1  0
 16 15  1  6
 16 18  1  0
 16 17  1  0
 17 10  1  0
 18 19  2  0
 20 21  1  0
 20 18  1  0
 21 22  1  6
 23 22  1  0
 23 24  2  0
 25 24  1  0
 26 31  2  0
 26 25  1  0
 27 26  1  0
 28 29  1  0
 28 27  2  0
 29 30  2  0
 30 31  1  0
 31 23  1  0
 32 21  1  0
 33 32  1  0
 34 32  2  0
M  END
$$$$
