SLG.pdb
     RDKit          3D

 19 18  0  0  1  0  0  0  0  0999 V2000
   25.8115  -19.5127  -15.4312 O   0  0  0  0  0  0  0  0  0  0  0  0
   26.9860  -19.2962  -14.7140 C   0  0  0  0  0  0  0  0  0  0  0  0
   27.3804  -20.5988  -14.0148 C   0  0  2  0  0  0  0  0  0  0  0  0
   27.5877  -21.5710  -15.0805 N   0  0  0  0  0  0  0  0  0  0  0  0
   26.2651  -21.0781  -13.1416 C   0  0  0  0  0  0  0  0  0  0  0  0
   25.8222  -22.2454  -13.2662 O   0  0  0  0  0  0  0  0  0  0  0  0
   25.8646  -21.8425   -8.6780 C   0  0  0  0  0  0  0  0  0  0  0  0
   26.0225  -20.3753   -9.0524 C   0  0  2  0  0  0  0  0  0  0  0  0
   26.4000  -19.4928   -7.9130 C   0  0  0  0  0  0  0  0  0  0  0  0
   24.9767  -19.8814   -9.9762 C   0  0  0  0  0  0  0  0  0  0  0  0
   24.6748  -20.6594  -11.2002 C   0  0  2  0  0  0  0  0  0  0  0  0
   25.6982  -20.2363  -12.1740 N   0  0  0  0  0  0  0  0  0  0  0  0
   23.3880  -20.4311  -11.8501 C   0  0  0  0  0  0  0  0  0  0  0  0
   22.3078  -20.6112  -11.2387 O   0  0  0  0  0  0  0  0  0  0  0  0
   23.2552  -19.9898  -13.2179 N   0  0  0  0  0  0  0  0  0  0  0  0
   21.9655  -19.7283  -13.7823 C   0  0  0  0  0  0  0  0  0  0  0  0
   21.1236  -20.9375  -13.8916 C   0  0  0  0  0  0  0  0  0  0  0  0
   19.9366  -21.0687  -13.2060 O   0  0  0  0  0  0  0  0  0  0  0  0
   21.4954  -21.8803  -14.6312 O   0  0  0  0  0  0  0  0  0  0  0  0
  2  1  1  0
  3  2  1  0
  3  4  1  6
  5  3  1  0
  5  6  2  0
  8  7  1  1
  8 10  1  0
  9  8  1  0
 11 10  1  1
 11 12  1  0
 12  5  1  0
 13 11  1  0
 13 15  1  0
 14 13  2  0
 16 15  1  0
 16 17  1  0
 17 19  2  0
 17 18  1  0
M  END
$$$$
