SLG.pdb
     RDKit          3D

 19 18  0  0  1  0  0  0  0  0999 V2000
   19.6082  -11.6425  -17.7226 O   0  0  0  0  0  0  0  0  0  0  0  0
   18.4086  -10.9602  -17.9121 C   0  0  0  0  0  0  0  0  0  0  0  0
   18.7135   -9.4703  -18.0806 C   0  0  2  0  0  0  0  0  0  0  0  0
   19.7651   -9.3945  -19.0868 N   0  0  0  0  0  0  0  0  0  0  0  0
   19.2351   -8.8987  -16.8010 C   0  0  0  0  0  0  0  0  0  0  0  0
   18.4869   -8.8092  -15.7978 O   0  0  0  0  0  0  0  0  0  0  0  0
   21.6162  -10.0979  -13.4264 C   0  0  0  0  0  0  0  0  0  0  0  0
   22.4297  -10.0295  -14.7114 C   0  0  2  0  0  0  0  0  0  0  0  0
   23.7190  -10.7741  -14.6568 C   0  0  0  0  0  0  0  0  0  0  0  0
   22.4470   -8.6865  -15.3335 C   0  0  0  0  0  0  0  0  0  0  0  0
   21.1745   -7.9390  -15.4627 C   0  0  2  0  0  0  0  0  0  0  0  0
   20.5616   -8.4556  -16.7006 N   0  0  0  0  0  0  0  0  0  0  0  0
   21.2512   -6.4912  -15.6303 C   0  0  0  0  0  0  0  0  0  0  0  0
   21.8773   -5.7727  -14.8148 O   0  0  0  0  0  0  0  0  0  0  0  0
   20.6275   -5.7830  -16.7223 N   0  0  0  0  0  0  0  0  0  0  0  0
   20.7078   -4.3561  -16.8123 C   0  0  0  0  0  0  0  0  0  0  0  0
   19.5801   -3.6683  -16.1503 C   0  0  0  0  0  0  0  0  0  0  0  0
   18.6260   -4.3514  -15.4298 O   0  0  0  0  0  0  0  0  0  0  0  0
   19.4816   -2.4210  -16.2428 O   0  0  0  0  0  0  0  0  0  0  0  0
  2  1  1  0
  3  2  1  0
  3  4  1  6
  5  3  1  0
  5  6  2  0
  8  7  1  1
  8 10  1  0
  9  8  1  0
 11 10  1  6
 11 12  1  0
 12  5  1  0
 13 11  1  0
 13 15  1  0
 14 13  2  0
 16 15  1  0
 16 17  1  0
 17 19  2  0
 17 18  1  0
M  END
$$$$
