SLG.pdb
     RDKit          3D

 19 18  0  0  1  0  0  0  0  0999 V2000
   18.9954   -9.9449  -20.6676 O   0  0  0  0  0  0  0  0  0  0  0  0
   19.1243   -9.2767  -19.4520 C   0  0  0  0  0  0  0  0  0  0  0  0
   19.2737  -10.3132  -18.3364 C   0  0  2  0  0  0  0  0  0  0  0  0
   17.9540  -10.9095  -18.1732 N   0  0  0  0  0  0  0  0  0  0  0  0
   19.6578   -9.6454  -17.0548 C   0  0  0  0  0  0  0  0  0  0  0  0
   18.8023   -9.4665  -16.1546 O   0  0  0  0  0  0  0  0  0  0  0  0
   21.8200  -10.5600  -13.3888 C   0  0  0  0  0  0  0  0  0  0  0  0
   22.7301  -10.5095  -14.6082 C   0  0  2  0  0  0  0  0  0  0  0  0
   24.0454  -11.1820  -14.4153 C   0  0  0  0  0  0  0  0  0  0  0  0
   22.7322   -9.1981  -15.2947 C   0  0  0  0  0  0  0  0  0  0  0  0
   21.4374   -8.5483  -15.6048 C   0  0  2  0  0  0  0  0  0  0  0  0
   20.9730   -9.2100  -16.8381 N   0  0  0  0  0  0  0  0  0  0  0  0
   21.4482   -7.1189  -15.8994 C   0  0  0  0  0  0  0  0  0  0  0  0
   21.8462   -6.2820  -15.0542 O   0  0  0  0  0  0  0  0  0  0  0  0
   21.0116   -6.5631  -17.1578 N   0  0  0  0  0  0  0  0  0  0  0  0
   21.1130   -5.1579  -17.4137 C   0  0  0  0  0  0  0  0  0  0  0  0
   19.9576   -4.3903  -16.9050 C   0  0  0  0  0  0  0  0  0  0  0  0
   19.8417   -3.0308  -17.0908 O   0  0  0  0  0  0  0  0  0  0  0  0
   19.0481   -4.9894  -16.2822 O   0  0  0  0  0  0  0  0  0  0  0  0
  2  1  1  0
  3  2  1  0
  3  4  1  1
  5  3  1  0
  5  6  2  0
  8  7  1  1
  8 10  1  0
  9  8  1  0
 11 10  1  6
 11 12  1  0
 12  5  1  0
 13 11  1  0
 13 15  1  0
 14 13  2  0
 16 15  1  0
 16 17  1  0
 17 19  2  0
 17 18  1  0
M  END
$$$$
