SLG.pdb
     RDKit          3D

 19 18  0  0  1  0  0  0  0  0999 V2000
   24.9395  -22.5950  -16.6492 O   0  0  0  0  0  0  0  0  0  0  0  0
   26.0881  -22.7220  -15.8712 C   0  0  0  0  0  0  0  0  0  0  0  0
   25.7690  -23.6112  -14.6676 C   0  0  2  0  0  0  0  0  0  0  0  0
   25.1339  -24.8030  -15.2155 N   0  0  0  0  0  0  0  0  0  0  0  0
   24.7978  -22.9273  -13.7593 C   0  0  0  0  0  0  0  0  0  0  0  0
   23.6250  -23.3591  -13.6483 O   0  0  0  0  0  0  0  0  0  0  0  0
   24.0669  -21.2186   -9.2089 C   0  0  0  0  0  0  0  0  0  0  0  0
   25.3448  -20.8330   -9.9409 C   0  0  2  0  0  0  0  0  0  0  0  0
   26.3707  -20.1853   -9.0763 C   0  0  0  0  0  0  0  0  0  0  0  0
   25.1092  -20.2392  -11.2762 C   0  0  0  0  0  0  0  0  0  0  0  0
   24.2474  -20.9614  -12.2408 C   0  0  2  0  0  0  0  0  0  0  0  0
   25.1786  -21.7981  -13.0204 N   0  0  0  0  0  0  0  0  0  0  0  0
   23.5102  -20.1681  -13.2193 C   0  0  0  0  0  0  0  0  0  0  0  0
   24.1020  -19.5465  -14.1338 O   0  0  0  0  0  0  0  0  0  0  0  0
   22.0729  -20.0362  -13.2154 N   0  0  0  0  0  0  0  0  0  0  0  0
   21.3912  -19.4059  -14.3055 C   0  0  0  0  0  0  0  0  0  0  0  0
   19.9237  -19.3809  -14.1361 C   0  0  0  0  0  0  0  0  0  0  0  0
   19.0987  -18.6866  -14.9925 O   0  0  0  0  0  0  0  0  0  0  0  0
   19.4045  -20.0103  -13.1831 O   0  0  0  0  0  0  0  0  0  0  0  0
  2  1  1  0
  3  2  1  0
  3  4  1  6
  5  3  1  0
  5  6  2  0
  8  7  1  1
  8 10  1  0
  9  8  1  0
 11 10  1  1
 11 12  1  0
 12  5  1  0
 13 11  1  0
 13 15  1  0
 14 13  2  0
 16 15  1  0
 16 17  1  0
 17 19  2  0
 17 18  1  0
M  END
$$$$
