SLG.pdb
     RDKit          3D

 19 18  0  0  1  0  0  0  0  0999 V2000
   16.3143   -8.3158  -18.3321 O   0  0  0  0  0  0  0  0  0  0  0  0
   16.9570   -8.1103  -17.1135 C   0  0  0  0  0  0  0  0  0  0  0  0
   17.8073   -9.3416  -16.7940 C   0  0  2  0  0  0  0  0  0  0  0  0
   16.8688  -10.3639  -16.3492 N   0  0  0  0  0  0  0  0  0  0  0  0
   18.7540   -9.0433  -15.6755 C   0  0  0  0  0  0  0  0  0  0  0  0
   18.3569   -9.0773  -14.4858 O   0  0  0  0  0  0  0  0  0  0  0  0
   22.3489  -10.6095  -13.3869 C   0  0  0  0  0  0  0  0  0  0  0  0
   22.5862  -10.3804  -14.8731 C   0  0  2  0  0  0  0  0  0  0  0  0
   23.8043  -11.0521  -15.4065 C   0  0  0  0  0  0  0  0  0  0  0  0
   22.3329   -8.9884  -15.3081 C   0  0  0  0  0  0  0  0  0  0  0  0
   21.0701   -8.3283  -14.9026 C   0  0  2  0  0  0  0  0  0  0  0  0
   20.0940   -8.7223  -15.9353 N   0  0  0  0  0  0  0  0  0  0  0  0
   21.0469   -6.8694  -14.8683 C   0  0  0  0  0  0  0  0  0  0  0  0
   20.9125   -6.1947  -15.9170 O   0  0  0  0  0  0  0  0  0  0  0  0
   21.1740   -6.1005  -13.6535 N   0  0  0  0  0  0  0  0  0  0  0  0
   20.9953   -4.6798  -13.6625 C   0  0  0  0  0  0  0  0  0  0  0  0
   22.0620   -3.9650  -14.3935 C   0  0  0  0  0  0  0  0  0  0  0  0
   23.1518   -4.6186  -14.9237 O   0  0  0  0  0  0  0  0  0  0  0  0
   21.9794   -2.7218  -14.5402 O   0  0  0  0  0  0  0  0  0  0  0  0
  2  1  1  0
  3  2  1  0
  3  4  1  1
  5  3  1  0
  5  6  2  0
  8  7  1  1
  8 10  1  0
  9  8  1  0
 11 10  1  6
 11 12  1  0
 12  5  1  0
 13 11  1  0
 13 15  1  0
 14 13  2  0
 16 15  1  0
 16 17  1  0
 17 19  2  0
 17 18  1  0
M  END
$$$$
