SLG.pdb
     RDKit          3D

 19 18  0  0  1  0  0  0  0  0999 V2000
   23.7758  -38.7210   -4.9747 O   0  0  0  0  0  0  0  0  0  0  0  0
   25.1091  -38.3240   -5.0470 C   0  0  0  0  0  0  0  0  0  0  0  0
   25.3517  -37.6665   -6.4071 C   0  0  2  0  0  0  0  0  0  0  0  0
   26.0036  -38.6816   -7.2248 N   0  0  0  0  0  0  0  0  0  0  0  0
   26.2784  -36.5018   -6.2633 C   0  0  0  0  0  0  0  0  0  0  0  0
   27.5190  -36.6667   -6.3524 O   0  0  0  0  0  0  0  0  0  0  0  0
   27.1729  -32.8185   -8.5633 C   0  0  0  0  0  0  0  0  0  0  0  0
   25.7977  -32.7471   -7.9144 C   0  0  2  0  0  0  0  0  0  0  0  0
   24.9174  -31.6800   -8.4676 C   0  0  0  0  0  0  0  0  0  0  0  0
   25.8250  -32.9099   -6.4434 C   0  0  0  0  0  0  0  0  0  0  0  0
   26.6215  -34.0135   -5.8582 C   0  0  2  0  0  0  0  0  0  0  0  0
   25.7799  -35.2125   -6.0277 N   0  0  0  0  0  0  0  0  0  0  0  0
   26.9344  -33.9444   -4.4344 C   0  0  0  0  0  0  0  0  0  0  0  0
   26.0371  -33.7596   -3.5778 O   0  0  0  0  0  0  0  0  0  0  0  0
   28.2710  -34.0795   -3.9066 N   0  0  0  0  0  0  0  0  0  0  0  0
   28.5366  -33.8592   -2.5168 C   0  0  0  0  0  0  0  0  0  0  0  0
   28.1604  -35.0063   -1.6649 C   0  0  0  0  0  0  0  0  0  0  0  0
   28.3838  -35.0146   -0.3062 O   0  0  0  0  0  0  0  0  0  0  0  0
   27.6192  -36.0095   -2.1891 O   0  0  0  0  0  0  0  0  0  0  0  0
  2  1  1  0
  3  2  1  0
  3  4  1  6
  5  3  1  0
  5  6  2  0
  8  7  1  1
  8 10  1  0
  9  8  1  0
 11 10  1  1
 11 12  1  0
 12  5  1  0
 13 11  1  0
 13 15  1  0
 14 13  2  0
 16 15  1  0
 16 17  1  0
 17 19  2  0
 17 18  1  0
M  END
$$$$
