SLG.pdb
     RDKit          3D

 19 18  0  0  1  0  0  0  0  0999 V2000
   20.4507   -7.4992  -21.2036 O   0  0  0  0  0  0  0  0  0  0  0  0
   19.9416   -7.7422  -19.9299 C   0  0  0  0  0  0  0  0  0  0  0  0
   20.6923   -8.9277  -19.3200 C   0  0  2  0  0  0  0  0  0  0  0  0
   20.0708  -10.1195  -19.8830 N   0  0  0  0  0  0  0  0  0  0  0  0
   20.5103   -8.9500  -17.8359 C   0  0  0  0  0  0  0  0  0  0  0  0
   19.5039   -9.5036  -17.3312 O   0  0  0  0  0  0  0  0  0  0  0  0
   21.6607  -10.9971  -14.2599 C   0  0  0  0  0  0  0  0  0  0  0  0
   22.8311  -10.2646  -14.9011 C   0  0  2  0  0  0  0  0  0  0  0  0
   24.1687  -10.7366  -14.4454 C   0  0  0  0  0  0  0  0  0  0  0  0
   22.6287   -8.8025  -15.0123 C   0  0  0  0  0  0  0  0  0  0  0  0
   21.3329   -8.2940  -15.5194 C   0  0  2  0  0  0  0  0  0  0  0  0
   21.4557   -8.3560  -16.9876 N   0  0  0  0  0  0  0  0  0  0  0  0
   20.9759   -6.9136  -15.2074 C   0  0  0  0  0  0  0  0  0  0  0  0
   20.9404   -6.5011  -14.0235 O   0  0  0  0  0  0  0  0  0  0  0  0
   20.6419   -5.9323  -16.2117 N   0  0  0  0  0  0  0  0  0  0  0  0
   20.2070   -4.6200  -15.8388 C   0  0  0  0  0  0  0  0  0  0  0  0
   18.7376   -4.5014  -15.7400 C   0  0  0  0  0  0  0  0  0  0  0  0
   18.1141   -3.2981  -15.4964 O   0  0  0  0  0  0  0  0  0  0  0  0
   18.0277   -5.5261  -15.8815 O   0  0  0  0  0  0  0  0  0  0  0  0
  2  1  1  0
  3  2  1  0
  3  4  1  6
  5  3  1  0
  5  6  2  0
  8  7  1  1
  8 10  1  0
  9  8  1  0
 11 10  1  1
 11 12  1  0
 12  5  1  0
 13 11  1  0
 13 15  1  0
 14 13  2  0
 16 15  1  0
 16 17  1  0
 17 19  2  0
 17 18  1  0
M  END
$$$$
