SLG.pdb
     RDKit          3D

 19 18  0  0  1  0  0  0  0  0999 V2000
   23.9104  -20.0800  -17.0874 O   0  0  0  0  0  0  0  0  0  0  0  0
   24.7811  -21.1346  -17.3523 C   0  0  0  0  0  0  0  0  0  0  0  0
   25.7299  -21.2974  -16.1630 C   0  0  2  0  0  0  0  0  0  0  0  0
   26.6213  -22.3944  -16.5174 N   0  0  0  0  0  0  0  0  0  0  0  0
   24.9649  -21.6808  -14.9367 C   0  0  0  0  0  0  0  0  0  0  0  0
   24.6136  -22.8720  -14.7580 O   0  0  0  0  0  0  0  0  0  0  0  0
   25.6790  -20.3118   -9.3959 C   0  0  0  0  0  0  0  0  0  0  0  0
   25.1694  -21.1385  -10.5683 C   0  0  2  0  0  0  0  0  0  0  0  0
   26.0616  -22.2690  -10.9502 C   0  0  0  0  0  0  0  0  0  0  0  0
   24.5962  -20.3257  -11.6645 C   0  0  0  0  0  0  0  0  0  0  0  0
   23.8528  -21.0070  -12.7498 C   0  0  2  0  0  0  0  0  0  0  0  0
   24.6288  -20.7215  -13.9709 N   0  0  0  0  0  0  0  0  0  0  0  0
   22.4926  -20.5568  -13.0279 C   0  0  0  0  0  0  0  0  0  0  0  0
   21.5741  -20.6978  -12.1855 O   0  0  0  0  0  0  0  0  0  0  0  0
   22.1009  -19.9271  -14.2661 N   0  0  0  0  0  0  0  0  0  0  0  0
   20.7587  -19.4688  -14.4636 C   0  0  0  0  0  0  0  0  0  0  0  0
   19.8507  -20.5258  -14.9549 C   0  0  0  0  0  0  0  0  0  0  0  0
   20.2710  -21.8233  -15.1447 O   0  0  0  0  0  0  0  0  0  0  0  0
   18.6560  -20.2398  -15.2097 O   0  0  0  0  0  0  0  0  0  0  0  0
  2  1  1  0
  3  2  1  0
  3  4  1  6
  5  3  1  0
  5  6  2  0
  8  7  1  1
  8 10  1  0
  9  8  1  0
 11 10  1  1
 11 12  1  0
 12  5  1  0
 13 11  1  0
 13 15  1  0
 14 13  2  0
 16 15  1  0
 16 17  1  0
 17 19  2  0
 17 18  1  0
M  END
$$$$
