SLG.pdb
     RDKit          3D

 19 18  0  0  1  0  0  0  0  0999 V2000
   28.6277  -26.1217  -16.9911 O   0  0  0  0  0  0  0  0  0  0  0  0
   29.9503  -26.0292  -17.4188 C   0  0  0  0  0  0  0  0  0  0  0  0
   30.7669  -25.3200  -16.3366 C   0  0  2  0  0  0  0  0  0  0  0  0
   30.3455  -23.9255  -16.3753 N   0  0  0  0  0  0  0  0  0  0  0  0
   32.2256  -25.3872  -16.6586 C   0  0  0  0  0  0  0  0  0  0  0  0
   32.7589  -24.4955  -17.3620 O   0  0  0  0  0  0  0  0  0  0  0  0
   36.3720  -24.7488  -14.8657 C   0  0  0  0  0  0  0  0  0  0  0  0
   35.4420  -25.7510  -14.1961 C   0  0  2  0  0  0  0  0  0  0  0  0
   35.8177  -26.0891  -12.7947 C   0  0  0  0  0  0  0  0  0  0  0  0
   35.0370  -26.8682  -15.0788 C   0  0  0  0  0  0  0  0  0  0  0  0
   34.4700  -26.5599  -16.4123 C   0  0  2  0  0  0  0  0  0  0  0  0
   33.0181  -26.4416  -16.1829 N   0  0  0  0  0  0  0  0  0  0  0  0
   34.6271  -27.5589  -17.4646 C   0  0  0  0  0  0  0  0  0  0  0  0
   35.7617  -27.9563  -17.8223 O   0  0  0  0  0  0  0  0  0  0  0  0
   33.5160  -28.1579  -18.1646 N   0  0  0  0  0  0  0  0  0  0  0  0
   33.7294  -29.1959  -19.1276 C   0  0  0  0  0  0  0  0  0  0  0  0
   33.8427  -28.6899  -20.5111 C   0  0  0  0  0  0  0  0  0  0  0  0
   33.9444  -29.5340  -21.5943 O   0  0  0  0  0  0  0  0  0  0  0  0
   33.8471  -27.4518  -20.7141 O   0  0  0  0  0  0  0  0  0  0  0  0
  2  1  1  0
  3  2  1  0
  3  4  1  6
  5  3  1  0
  5  6  2  0
  8  7  1  6
  8 10  1  0
  9  8  1  0
 11 10  1  1
 11 12  1  0
 12  5  1  0
 13 11  1  0
 13 15  1  0
 14 13  2  0
 16 15  1  0
 16 17  1  0
 17 19  2  0
 17 18  1  0
M  END
$$$$
