SLG.pdb
     RDKit          3D

 19 18  0  0  1  0  0  0  0  0999 V2000
    9.7318   -7.8788  -14.3082 O   0  0  0  0  0  0  0  0  0  0  0  0
   10.9691   -7.3549  -13.9404 C   0  0  0  0  0  0  0  0  0  0  0  0
   11.9191   -8.5133  -13.6295 C   0  0  2  0  0  0  0  0  0  0  0  0
   11.1102   -9.5131  -12.9440 N   0  0  0  0  0  0  0  0  0  0  0  0
   13.0043   -8.0616  -12.7053 C   0  0  0  0  0  0  0  0  0  0  0  0
   12.7584   -7.8641  -11.4909 O   0  0  0  0  0  0  0  0  0  0  0  0
   18.5019   -9.8724  -12.0326 C   0  0  0  0  0  0  0  0  0  0  0  0
   17.4009   -8.9356  -11.5555 C   0  0  2  0  0  0  0  0  0  0  0  0
   16.7761   -9.3373  -10.2640 C   0  0  0  0  0  0  0  0  0  0  0  0
   16.4959   -8.4827  -12.6357 C   0  0  0  0  0  0  0  0  0  0  0  0
   15.4515   -7.4794  -12.3235 C   0  0  2  0  0  0  0  0  0  0  0  0
   14.3081   -7.8521  -13.1770 N   0  0  0  0  0  0  0  0  0  0  0  0
   15.7389   -6.0818  -12.6305 C   0  0  0  0  0  0  0  0  0  0  0  0
   16.3047   -5.3343  -11.7972 O   0  0  0  0  0  0  0  0  0  0  0  0
   15.4035   -5.4587  -13.8885 N   0  0  0  0  0  0  0  0  0  0  0  0
   15.7251   -4.0855  -14.1356 C   0  0  0  0  0  0  0  0  0  0  0  0
   17.0416   -3.9045  -14.7813 C   0  0  0  0  0  0  0  0  0  0  0  0
   17.5370   -2.6598  -15.0997 O   0  0  0  0  0  0  0  0  0  0  0  0
   17.7372   -4.9131  -15.0516 O   0  0  0  0  0  0  0  0  0  0  0  0
  2  1  1  0
  3  2  1  0
  3  4  1  1
  5  3  1  0
  5  6  2  0
  8  7  1  6
  8 10  1  0
  9  8  1  0
 11 10  1  6
 11 12  1  0
 12  5  1  0
 13 11  1  0
 13 15  1  0
 14 13  2  0
 16 15  1  0
 16 17  1  0
 17 19  2  0
 17 18  1  0
M  END
$$$$
