SLG.pdb
     RDKit          3D

 19 18  0  0  1  0  0  0  0  0999 V2000
   17.8729  -21.8192  -14.9356 O   0  0  0  0  0  0  0  0  0  0  0  0
   17.7310  -22.0607  -13.5710 C   0  0  0  0  0  0  0  0  0  0  0  0
   18.9904  -22.7668  -13.0646 C   0  0  2  0  0  0  0  0  0  0  0  0
   18.7683  -22.9972  -11.6428 N   0  0  0  0  0  0  0  0  0  0  0  0
   20.1833  -21.8792  -13.2238 C   0  0  0  0  0  0  0  0  0  0  0  0
   20.4389  -21.0039  -12.3620 O   0  0  0  0  0  0  0  0  0  0  0  0
   24.5055  -21.9489  -12.7759 C   0  0  0  0  0  0  0  0  0  0  0  0
   24.0166  -22.8448  -13.9055 C   0  0  2  0  0  0  0  0  0  0  0  0
   25.0045  -23.8720  -14.3398 C   0  0  0  0  0  0  0  0  0  0  0  0
   23.2823  -22.1181  -14.9655 C   0  0  0  0  0  0  0  0  0  0  0  0
   22.2166  -21.1654  -14.5763 C   0  0  2  0  0  0  0  0  0  0  0  0
   21.0319  -22.0091  -14.3324 N   0  0  0  0  0  0  0  0  0  0  0  0
   21.8018  -20.1710  -15.5608 C   0  0  0  0  0  0  0  0  0  0  0  0
   22.5675  -19.2415  -15.9112 O   0  0  0  0  0  0  0  0  0  0  0  0
   20.5064  -20.1746  -16.1973 N   0  0  0  0  0  0  0  0  0  0  0  0
   20.1794  -19.2067  -17.2006 C   0  0  0  0  0  0  0  0  0  0  0  0
   19.4152  -18.0580  -16.6720 C   0  0  0  0  0  0  0  0  0  0  0  0
   19.1318  -17.9206  -15.3315 O   0  0  0  0  0  0  0  0  0  0  0  0
   19.0074  -17.1745  -17.4640 O   0  0  0  0  0  0  0  0  0  0  0  0
  2  1  1  0
  3  2  1  0
  3  4  1  1
  5  3  1  0
  5  6  2  0
  8  7  1  6
  8 10  1  0
  9  8  1  0
 11 10  1  6
 11 12  1  0
 12  5  1  0
 13 11  1  0
 13 15  1  0
 14 13  2  0
 16 15  1  0
 16 17  1  0
 17 19  2  0
 17 18  1  0
M  END
$$$$
