SLG.pdb
     RDKit          3D

 19 18  0  0  1  0  0  0  0  0999 V2000
   17.3109   -7.1336  -18.3977 O   0  0  0  0  0  0  0  0  0  0  0  0
   17.7663   -6.9247  -17.0979 C   0  0  0  0  0  0  0  0  0  0  0  0
   18.2827   -8.2526  -16.5402 C   0  0  2  0  0  0  0  0  0  0  0  0
   17.0955   -9.0151  -16.1753 N   0  0  0  0  0  0  0  0  0  0  0  0
   19.0964   -8.0173  -15.3079 C   0  0  0  0  0  0  0  0  0  0  0  0
   18.5473   -8.0120  -14.1797 O   0  0  0  0  0  0  0  0  0  0  0  0
   21.6008  -10.1684  -12.7164 C   0  0  0  0  0  0  0  0  0  0  0  0
   22.3026   -9.9911  -14.0557 C   0  0  2  0  0  0  0  0  0  0  0  0
   23.4590  -10.9071  -14.2638 C   0  0  0  0  0  0  0  0  0  0  0  0
   22.4775   -8.5758  -14.4526 C   0  0  0  0  0  0  0  0  0  0  0  0
   21.3652   -7.6241  -14.2256 C   0  0  2  0  0  0  0  0  0  0  0  0
   20.4791   -7.7997  -15.3912 N   0  0  0  0  0  0  0  0  0  0  0  0
   21.6871   -6.2012  -14.1806 C   0  0  0  0  0  0  0  0  0  0  0  0
   22.3786   -5.7182  -13.2524 O   0  0  0  0  0  0  0  0  0  0  0  0
   21.2466   -5.2545  -15.1770 N   0  0  0  0  0  0  0  0  0  0  0  0
   21.6215   -3.8750  -15.0945 C   0  0  0  0  0  0  0  0  0  0  0  0
   20.5982   -3.0333  -14.4409 C   0  0  0  0  0  0  0  0  0  0  0  0
   19.4190   -3.5553  -13.9579 O   0  0  0  0  0  0  0  0  0  0  0  0
   20.8027   -1.8016  -14.3180 O   0  0  0  0  0  0  0  0  0  0  0  0
  2  1  1  0
  3  2  1  0
  3  4  1  1
  5  3  1  0
  5  6  2  0
  8  7  1  1
  8 10  1  0
  9  8  1  0
 11 10  1  6
 11 12  1  0
 12  5  1  0
 13 11  1  0
 13 15  1  0
 14 13  2  0
 16 15  1  0
 16 17  1  0
 17 19  2  0
 17 18  1  0
M  END
$$$$
