SLG.pdb
     RDKit          3D

 19 18  0  0  1  0  0  0  0  0999 V2000
   21.5087  -12.1655  -19.8971 O   0  0  0  0  0  0  0  0  0  0  0  0
   21.9469  -11.6890  -18.6636 C   0  0  0  0  0  0  0  0  0  0  0  0
   23.0723  -12.5950  -18.1599 C   0  0  2  0  0  0  0  0  0  0  0  0
   22.4262  -13.8353  -17.7501 N   0  0  0  0  0  0  0  0  0  0  0  0
   23.7355  -11.9851  -16.9665 C   0  0  0  0  0  0  0  0  0  0  0  0
   23.2776  -12.1890  -15.8163 O   0  0  0  0  0  0  0  0  0  0  0  0
   27.3995  -12.9152  -15.1814 C   0  0  0  0  0  0  0  0  0  0  0  0
   27.6276  -12.0794  -16.4332 C   0  0  2  0  0  0  0  0  0  0  0  0
   28.9974  -12.2013  -17.0061 C   0  0  0  0  0  0  0  0  0  0  0  0
   27.0417  -10.7222  -16.3570 C   0  0  0  0  0  0  0  0  0  0  0  0
   25.6145  -10.5763  -15.9876 C   0  0  2  0  0  0  0  0  0  0  0  0
   24.8740  -11.1794  -17.1113 N   0  0  0  0  0  0  0  0  0  0  0  0
   25.0854   -9.2239  -15.8420 C   0  0  0  0  0  0  0  0  0  0  0  0
   25.5661   -8.4223  -15.0057 O   0  0  0  0  0  0  0  0  0  0  0  0
   23.9907   -8.7093  -16.6294 N   0  0  0  0  0  0  0  0  0  0  0  0
   23.5050   -7.3774  -16.4283 C   0  0  0  0  0  0  0  0  0  0  0  0
   22.3264   -7.3172  -15.5394 C   0  0  0  0  0  0  0  0  0  0  0  0
   21.6450   -6.1440  -15.3039 O   0  0  0  0  0  0  0  0  0  0  0  0
   21.9268   -8.3652  -14.9770 O   0  0  0  0  0  0  0  0  0  0  0  0
  2  1  1  0
  3  2  1  0
  3  4  1  1
  5  3  1  0
  5  6  2  0
  8  7  1  1
  8 10  1  0
  9  8  1  0
 11 10  1  6
 11 12  1  0
 12  5  1  0
 13 11  1  0
 13 15  1  0
 14 13  2  0
 16 15  1  0
 16 17  1  0
 17 19  2  0
 17 18  1  0
M  END
$$$$
