SLG.pdb
     RDKit          3D

 19 18  0  0  1  0  0  0  0  0999 V2000
   27.2151  -19.1662  -14.8868 O   0  0  0  0  0  0  0  0  0  0  0  0
   26.6709  -19.4766  -13.6426 C   0  0  0  0  0  0  0  0  0  0  0  0
   27.7760  -20.0512  -12.7538 C   0  0  2  0  0  0  0  0  0  0  0  0
   28.4719  -21.0331  -13.5756 N   0  0  0  0  0  0  0  0  0  0  0  0
   27.1822  -20.7512  -11.5735 C   0  0  0  0  0  0  0  0  0  0  0  0
   27.2061  -22.0038  -11.5040 O   0  0  0  0  0  0  0  0  0  0  0  0
   27.9060  -21.0983   -7.0105 C   0  0  0  0  0  0  0  0  0  0  0  0
   27.5454  -19.6883   -7.4572 C   0  0  2  0  0  0  0  0  0  0  0  0
   27.7580  -18.6456   -6.4145 C   0  0  0  0  0  0  0  0  0  0  0  0
   26.2941  -19.6158   -8.2447 C   0  0  0  0  0  0  0  0  0  0  0  0
   26.0497  -20.6281   -9.2984 C   0  0  2  0  0  0  0  0  0  0  0  0
   26.5917  -20.0243  -10.5298 N   0  0  0  0  0  0  0  0  0  0  0  0
   24.6641  -20.9733   -9.6004 C   0  0  0  0  0  0  0  0  0  0  0  0
   23.9055  -21.4520   -8.7238 O   0  0  0  0  0  0  0  0  0  0  0  0
   24.0663  -20.7966  -10.9022 N   0  0  0  0  0  0  0  0  0  0  0  0
   22.6780  -21.0747  -11.1157 C   0  0  0  0  0  0  0  0  0  0  0  0
   22.2120  -20.7006  -12.4669 C   0  0  0  0  0  0  0  0  0  0  0  0
   20.8747  -20.6330  -12.7885 O   0  0  0  0  0  0  0  0  0  0  0  0
   23.0560  -20.4344  -13.3561 O   0  0  0  0  0  0  0  0  0  0  0  0
  2  1  1  0
  3  2  1  0
  3  4  1  6
  5  3  1  0
  5  6  2  0
  8  7  1  1
  8 10  1  0
  9  8  1  0
 11 10  1  1
 11 12  1  0
 12  5  1  0
 13 11  1  0
 13 15  1  0
 14 13  2  0
 16 15  1  0
 16 17  1  0
 17 19  2  0
 17 18  1  0
M  END
$$$$
