KPH.pdb
     RDKit          3D

 27 28  0  0  1  0  0  0  0  0999 V2000
   25.8100  -19.0124  -19.7449 N   0  0  0  0  0  0  0  0  0  0  0  0
   25.6613  -18.2518  -18.5673 C   0  0  1  0  0  0  0  0  0  0  0  0
   24.3501  -17.5614  -18.3612 C   0  0  0  0  0  0  0  0  0  0  0  0
   23.1429  -18.2932  -18.8142 C   0  0  0  0  0  0  0  0  0  0  0  0
   22.0212  -18.4107  -17.8456 C   0  0  0  0  0  0  0  0  0  0  0  0
   21.0259  -17.2673  -17.9360 C   0  0  0  0  0  0  0  0  0  0  0  0
   19.9689  -17.4903  -16.9826 N   0  0  0  0  0  0  0  0  0  0  0  0
   26.0029  -19.0813  -17.3623 C   0  0  0  0  0  0  0  0  0  0  0  0
   25.8965  -20.3475  -17.4903 O   0  0  0  0  0  0  0  0  0  0  0  0
   26.4204  -18.5278  -16.1433 N   0  0  0  0  0  0  0  0  0  0  0  0
   26.5449  -17.1383  -15.8207 C   0  0  0  0  0  0  0  0  0  0  0  0
   26.8497  -17.1211  -14.3432 C   0  0  0  0  0  0  0  0  0  0  0  0
   27.6315  -18.3803  -14.1321 C   0  0  0  0  0  0  0  0  0  0  0  0
   26.8077  -19.3533  -14.9911 C   0  0  1  0  0  0  0  0  0  0  0  0
   25.6182  -19.6898  -14.1673 C   0  0  0  0  0  0  0  0  0  0  0  0
   24.5762  -19.0069  -14.3347 O   0  0  0  0  0  0  0  0  0  0  0  0
   25.5884  -20.7191  -13.2183 N   0  0  0  0  0  0  0  0  0  0  0  0
   24.3881  -21.4465  -12.8152 C   0  0  1  0  0  0  0  0  0  0  0  0
   24.6146  -22.9112  -12.7583 C   0  0  0  0  0  0  0  0  0  0  0  0
   24.5243  -23.5016  -14.1057 C   0  0  0  0  0  0  0  0  0  0  0  0
   24.1392  -22.8973  -15.2944 C   0  0  0  0  0  0  0  0  0  0  0  0
   24.2072  -23.8185  -16.2679 N   0  0  0  0  0  0  0  0  0  0  0  0
   24.6186  -24.9795  -15.7478 C   0  0  0  0  0  0  0  0  0  0  0  0
   24.8048  -24.7661  -14.4380 N   0  0  0  0  0  0  0  0  0  0  0  0
   23.8530  -20.9148  -11.5464 C   0  0  0  0  0  0  0  0  0  0  0  0
   22.5268  -21.1556  -11.1677 O   0  0  0  0  0  0  0  0  0  0  0  0
   24.5288  -20.2317  -10.7447 O   0  0  0  0  0  0  0  0  0  0  0  0
  2  1  1  6
  3  4  1  0
  3  2  1  0
  4  5  1  0
  6  5  1  0
  7  6  1  0
  8  9  2  0
  8  2  1  0
 10  8  1  0
 11 10  1  0
 12 11  1  0
 13 12  1  0
 13 14  1  0
 14 10  1  0
 14 15  1  1
 16 15  2  0
 17 15  1  0
 18 17  1  0
 18 19  1  1
 20 19  1  0
 20 21  2  0
 22 21  1  0
 23 22  1  0
 24 23  2  0
 24 20  1  0
 25 18  1  0
 26 25  1  0
 27 25  2  0
M  END
$$$$
