KPH.pdb
     RDKit          3D

 27 28  0  0  1  0  0  0  0  0999 V2000
   24.0428  -10.5165  -18.6559 N   0  0  0  0  0  0  0  0  0  0  0  0
   24.1401  -11.0787  -17.3668 C   0  0  1  0  0  0  0  0  0  0  0  0
   23.2320  -10.5300  -16.3120 C   0  0  0  0  0  0  0  0  0  0  0  0
   23.3254   -9.0725  -16.0567 C   0  0  0  0  0  0  0  0  0  0  0  0
   22.6141   -8.5494  -14.8606 C   0  0  0  0  0  0  0  0  0  0  0  0
   22.7752   -7.0512  -14.6722 C   0  0  0  0  0  0  0  0  0  0  0  0
   22.0210   -6.6411  -13.5151 N   0  0  0  0  0  0  0  0  0  0  0  0
   24.0062  -12.5733  -17.4367 C   0  0  0  0  0  0  0  0  0  0  0  0
   23.3108  -13.0412  -18.4003 O   0  0  0  0  0  0  0  0  0  0  0  0
   24.6000  -13.4410  -16.5087 N   0  0  0  0  0  0  0  0  0  0  0  0
   25.3399  -13.0808  -15.3369 C   0  0  0  0  0  0  0  0  0  0  0  0
   25.5811  -14.3901  -14.6272 C   0  0  0  0  0  0  0  0  0  0  0  0
   25.6926  -15.3793  -15.7455 C   0  0  0  0  0  0  0  0  0  0  0  0
   24.5362  -14.9031  -16.6396 C   0  0  1  0  0  0  0  0  0  0  0  0
   23.3045  -15.4308  -15.9983 C   0  0  0  0  0  0  0  0  0  0  0  0
   22.8873  -14.8516  -14.9636 O   0  0  0  0  0  0  0  0  0  0  0  0
   22.5826  -16.5315  -16.4761 N   0  0  0  0  0  0  0  0  0  0  0  0
   21.2519  -16.9186  -16.0162 C   0  0  1  0  0  0  0  0  0  0  0  0
   20.1825  -16.4204  -16.9152 C   0  0  0  0  0  0  0  0  0  0  0  0
   18.8585  -16.8539  -16.4344 C   0  0  0  0  0  0  0  0  0  0  0  0
   18.3427  -18.1399  -16.3529 C   0  0  0  0  0  0  0  0  0  0  0  0
   17.0990  -18.0562  -15.8559 N   0  0  0  0  0  0  0  0  0  0  0  0
   16.8046  -16.7736  -15.6191 C   0  0  0  0  0  0  0  0  0  0  0  0
   17.8829  -16.0626  -15.9760 N   0  0  0  0  0  0  0  0  0  0  0  0
   21.1718  -18.3779  -15.8088 C   0  0  0  0  0  0  0  0  0  0  0  0
   22.1439  -19.2345  -16.3394 O   0  0  0  0  0  0  0  0  0  0  0  0
   20.2555  -18.9340  -15.1628 O   0  0  0  0  0  0  0  0  0  0  0  0
  2  1  1  6
  3  4  1  0
  3  2  1  0
  4  5  1  0
  6  5  1  0
  7  6  1  0
  8  9  2  0
  8  2  1  0
 10  8  1  0
 11 10  1  0
 12 11  1  0
 13 12  1  0
 13 14  1  0
 14 10  1  0
 14 15  1  1
 16 15  2  0
 17 15  1  0
 18 17  1  0
 18 19  1  6
 20 19  1  0
 20 21  2  0
 22 21  1  0
 23 22  1  0
 24 23  2  0
 24 20  1  0
 25 18  1  0
 26 25  1  0
 27 25  2  0
M  END
$$$$
