KPH.pdb
     RDKit          3D

 27 28  0  0  1  0  0  0  0  0999 V2000
   25.3924  -15.1756  -18.1958 N   0  0  0  0  0  0  0  0  0  0  0  0
   25.6481  -13.8075  -18.4202 C   0  0  1  0  0  0  0  0  0  0  0  0
   25.2524  -13.2477  -19.7500 C   0  0  0  0  0  0  0  0  0  0  0  0
   24.2816  -14.0454  -20.5370 C   0  0  0  0  0  0  0  0  0  0  0  0
   22.8385  -13.8062  -20.2715 C   0  0  0  0  0  0  0  0  0  0  0  0
   21.9194  -14.5958  -21.1868 C   0  0  0  0  0  0  0  0  0  0  0  0
   20.5612  -14.4436  -20.7310 N   0  0  0  0  0  0  0  0  0  0  0  0
   25.0597  -12.9774  -17.3150 C   0  0  0  0  0  0  0  0  0  0  0  0
   23.9848  -13.4141  -16.7814 O   0  0  0  0  0  0  0  0  0  0  0  0
   25.6339  -11.7790  -16.8666 N   0  0  0  0  0  0  0  0  0  0  0  0
   26.8102  -11.1395  -17.3740 C   0  0  0  0  0  0  0  0  0  0  0  0
   26.8574   -9.8140  -16.6550 C   0  0  0  0  0  0  0  0  0  0  0  0
   26.2516  -10.1178  -15.3200 C   0  0  0  0  0  0  0  0  0  0  0  0
   25.0696  -10.9982  -15.7572 C   0  0  1  0  0  0  0  0  0  0  0  0
   24.0410  -10.0500  -16.2571 C   0  0  0  0  0  0  0  0  0  0  0  0
   24.2090   -9.5498  -17.3979 O   0  0  0  0  0  0  0  0  0  0  0  0
   22.8990   -9.6813  -15.5355 N   0  0  0  0  0  0  0  0  0  0  0  0
   21.8088   -8.8642  -16.0611 C   0  0  1  0  0  0  0  0  0  0  0  0
   20.5004   -9.2260  -15.4635 C   0  0  0  0  0  0  0  0  0  0  0  0
   19.4254   -8.3895  -16.0261 C   0  0  0  0  0  0  0  0  0  0  0  0
   19.1454   -8.1152  -17.3576 C   0  0  0  0  0  0  0  0  0  0  0  0
   18.0754   -7.3062  -17.3974 N   0  0  0  0  0  0  0  0  0  0  0  0
   17.6655   -7.0563  -16.1495 C   0  0  0  0  0  0  0  0  0  0  0  0
   18.4960   -7.7214  -15.3348 N   0  0  0  0  0  0  0  0  0  0  0  0
   22.1114   -7.4271  -15.9137 C   0  0  0  0  0  0  0  0  0  0  0  0
   21.5937   -6.4868  -16.8127 O   0  0  0  0  0  0  0  0  0  0  0  0
   22.8310   -6.9633  -15.0009 O   0  0  0  0  0  0  0  0  0  0  0  0
  2  1  1  6
  3  4  1  0
  3  2  1  0
  4  5  1  0
  6  5  1  0
  7  6  1  0
  8  9  2  0
  8  2  1  0
 10  8  1  0
 11 10  1  0
 12 11  1  0
 13 12  1  0
 13 14  1  0
 14 10  1  0
 14 15  1  6
 16 15  2  0
 17 15  1  0
 18 17  1  0
 18 19  1  1
 20 19  1  0
 20 21  2  0
 22 21  1  0
 23 22  1  0
 24 23  2  0
 24 20  1  0
 25 18  1  0
 26 25  1  0
 27 25  2  0
M  END
$$$$
