KPH.pdb
     RDKit          3D

 27 28  0  0  1  0  0  0  0  0999 V2000
   22.2895  -21.2964  -13.3030 N   0  0  0  0  0  0  0  0  0  0  0  0
   21.5649  -20.7363  -12.2312 C   0  0  1  0  0  0  0  0  0  0  0  0
   20.2569  -20.0870  -12.5564 C   0  0  0  0  0  0  0  0  0  0  0  0
   20.1334  -19.4987  -13.9116 C   0  0  0  0  0  0  0  0  0  0  0  0
   19.6668  -18.0896  -13.9963 C   0  0  0  0  0  0  0  0  0  0  0  0
   19.4599  -17.6090  -15.4219 C   0  0  0  0  0  0  0  0  0  0  0  0
   18.9167  -16.2749  -15.3919 N   0  0  0  0  0  0  0  0  0  0  0  0
   21.3804  -21.7502  -11.1382 C   0  0  0  0  0  0  0  0  0  0  0  0
   21.1873  -22.9582  -11.5048 O   0  0  0  0  0  0  0  0  0  0  0  0
   21.4119  -21.4229   -9.7749 N   0  0  0  0  0  0  0  0  0  0  0  0
   21.5187  -20.1156   -9.2005 C   0  0  0  0  0  0  0  0  0  0  0  0
   21.3227  -20.3377   -7.7212 C   0  0  0  0  0  0  0  0  0  0  0  0
   21.9039  -21.6982   -7.4911 C   0  0  0  0  0  0  0  0  0  0  0  0
   21.3426  -22.4389   -8.7157 C   0  0  1  0  0  0  0  0  0  0  0  0
   19.9287  -22.7410   -8.3746 C   0  0  0  0  0  0  0  0  0  0  0  0
   19.0856  -21.8164   -8.4947 O   0  0  0  0  0  0  0  0  0  0  0  0
   19.4802  -23.9903   -7.9286 N   0  0  0  0  0  0  0  0  0  0  0  0
   18.0960  -24.3056   -7.5869 C   0  0  1  0  0  0  0  0  0  0  0  0
   17.8066  -25.7553   -7.7070 C   0  0  0  0  0  0  0  0  0  0  0  0
   18.0038  -26.2092   -9.0953 C   0  0  0  0  0  0  0  0  0  0  0  0
   18.2274  -25.4480  -10.2341 C   0  0  0  0  0  0  0  0  0  0  0  0
   18.3472  -26.2862  -11.2753 N   0  0  0  0  0  0  0  0  0  0  0  0
   18.2093  -27.5448  -10.8456 C   0  0  0  0  0  0  0  0  0  0  0  0
   18.0022  -27.4760   -9.5234 N   0  0  0  0  0  0  0  0  0  0  0  0
   17.7506  -23.7762   -6.2531 C   0  0  0  0  0  0  0  0  0  0  0  0
   16.4179  -23.5363   -5.8970 O   0  0  0  0  0  0  0  0  0  0  0  0
   18.6011  -23.5129   -5.3735 O   0  0  0  0  0  0  0  0  0  0  0  0
  2  1  1  6
  3  4  1  0
  3  2  1  0
  4  5  1  0
  6  5  1  0
  7  6  1  0
  8  9  2  0
  8  2  1  0
 10  8  1  0
 11 10  1  0
 12 11  1  0
 13 12  1  0
 13 14  1  0
 14 10  1  0
 14 15  1  1
 16 15  2  0
 17 15  1  0
 18 17  1  0
 18 19  1  1
 20 19  1  0
 20 21  2  0
 22 21  1  0
 23 22  1  0
 24 23  2  0
 24 20  1  0
 25 18  1  0
 26 25  1  0
 27 25  2  0
M  END
$$$$
