KPH.pdb
     RDKit          3D

 27 28  0  0  1  0  0  0  0  0999 V2000
   24.6422  -11.7768  -19.5573 N   0  0  0  0  0  0  0  0  0  0  0  0
   24.1567  -10.5623  -20.0833 C   0  0  1  0  0  0  0  0  0  0  0  0
   22.8410  -10.6033  -20.7942 C   0  0  0  0  0  0  0  0  0  0  0  0
   21.7474  -11.3364  -20.1125 C   0  0  0  0  0  0  0  0  0  0  0  0
   20.4362  -11.3957  -20.8109 C   0  0  0  0  0  0  0  0  0  0  0  0
   19.3489  -12.0701  -19.9929 C   0  0  0  0  0  0  0  0  0  0  0  0
   18.1174  -12.0452  -20.7403 N   0  0  0  0  0  0  0  0  0  0  0  0
   24.1353   -9.5028  -19.0185 C   0  0  0  0  0  0  0  0  0  0  0  0
   23.9577   -9.9012  -17.8182 O   0  0  0  0  0  0  0  0  0  0  0  0
   24.2981   -8.1370  -19.2920 N   0  0  0  0  0  0  0  0  0  0  0  0
   24.5206   -7.5303  -20.5697 C   0  0  0  0  0  0  0  0  0  0  0  0
   24.4380   -6.0479  -20.3016 C   0  0  0  0  0  0  0  0  0  0  0  0
   24.9649   -5.9143  -18.9066 C   0  0  0  0  0  0  0  0  0  0  0  0
   24.2651   -7.1105  -18.2411 C   0  0  1  0  0  0  0  0  0  0  0  0
   22.8709   -6.6599  -17.9960 C   0  0  0  0  0  0  0  0  0  0  0  0
   22.0289   -6.8315  -18.9133 O   0  0  0  0  0  0  0  0  0  0  0  0
   22.4401   -6.0570  -16.8077 N   0  0  0  0  0  0  0  0  0  0  0  0
   21.0522   -5.7270  -16.4963 C   0  0  1  0  0  0  0  0  0  0  0  0
   20.1828   -6.9285  -16.4754 C   0  0  0  0  0  0  0  0  0  0  0  0
   20.3747   -7.6846  -15.2249 C   0  0  0  0  0  0  0  0  0  0  0  0
   21.5434   -7.8893  -14.5047 C   0  0  0  0  0  0  0  0  0  0  0  0
   21.2433   -8.6395  -13.4332 N   0  0  0  0  0  0  0  0  0  0  0  0
   19.9357   -8.9187  -13.4434 C   0  0  0  0  0  0  0  0  0  0  0  0
   19.4287   -8.3315  -14.5360 N   0  0  0  0  0  0  0  0  0  0  0  0
   20.9651   -4.9532  -15.2423 C   0  0  0  0  0  0  0  0  0  0  0  0
   22.0455   -4.8992  -14.3535 O   0  0  0  0  0  0  0  0  0  0  0  0
   19.9483   -4.3103  -14.8972 O   0  0  0  0  0  0  0  0  0  0  0  0
  2  1  1  1
  3  4  1  0
  3  2  1  0
  4  5  1  0
  6  5  1  0
  7  6  1  0
  8  9  2  0
  8  2  1  0
 10  8  1  0
 11 10  1  0
 12 11  1  0
 13 12  1  0
 13 14  1  0
 14 10  1  0
 14 15  1  6
 16 15  2  0
 17 15  1  0
 18 17  1  0
 18 19  1  1
 20 19  1  0
 20 21  2  0
 22 21  1  0
 23 22  1  0
 24 23  2  0
 24 20  1  0
 25 18  1  0
 26 25  1  0
 27 25  2  0
M  END
$$$$
