KPH.pdb
     RDKit          3D

 27 28  0  0  1  0  0  0  0  0999 V2000
   16.2316  -10.7831  -20.6752 N   0  0  0  0  0  0  0  0  0  0  0  0
   15.9242   -9.7293  -19.7906 C   0  0  1  0  0  0  0  0  0  0  0  0
   15.1221  -10.0702  -18.5746 C   0  0  0  0  0  0  0  0  0  0  0  0
   15.6586  -11.1524  -17.7148 C   0  0  0  0  0  0  0  0  0  0  0  0
   14.8364  -11.5544  -16.5432 C   0  0  0  0  0  0  0  0  0  0  0  0
   15.4117  -12.7353  -15.7812 C   0  0  0  0  0  0  0  0  0  0  0  0
   14.5836  -12.9992  -14.6321 N   0  0  0  0  0  0  0  0  0  0  0  0
   17.1747   -8.9966  -19.3956 C   0  0  0  0  0  0  0  0  0  0  0  0
   18.2580   -9.6730  -19.3941 O   0  0  0  0  0  0  0  0  0  0  0  0
   17.1892   -7.6401  -19.0401 N   0  0  0  0  0  0  0  0  0  0  0  0
   16.0749   -6.7414  -19.0083 C   0  0  0  0  0  0  0  0  0  0  0  0
   16.6258   -5.4812  -18.3881 C   0  0  0  0  0  0  0  0  0  0  0  0
   18.0515   -5.4603  -18.8447 C   0  0  0  0  0  0  0  0  0  0  0  0
   18.4182   -6.9396  -18.6431 C   0  0  1  0  0  0  0  0  0  0  0  0
   18.6546   -7.0874  -17.1840 C   0  0  0  0  0  0  0  0  0  0  0  0
   17.6678   -7.3585  -16.4541 O   0  0  0  0  0  0  0  0  0  0  0  0
   19.9073   -6.9433  -16.5749 N   0  0  0  0  0  0  0  0  0  0  0  0
   20.1900   -7.2329  -15.1718 C   0  0  1  0  0  0  0  0  0  0  0  0
   21.0610   -8.4226  -15.0109 C   0  0  0  0  0  0  0  0  0  0  0  0
   21.3711   -8.6483  -13.5878 C   0  0  0  0  0  0  0  0  0  0  0  0
   20.5071   -8.6568  -12.5016 C   0  0  0  0  0  0  0  0  0  0  0  0
   21.2310   -8.9027  -11.3988 N   0  0  0  0  0  0  0  0  0  0  0  0
   22.5157   -9.0503  -11.7390 C   0  0  0  0  0  0  0  0  0  0  0  0
   22.5788   -8.8926  -13.0683 N   0  0  0  0  0  0  0  0  0  0  0  0
   20.7379   -6.0438  -14.4902 C   0  0  0  0  0  0  0  0  0  0  0  0
   20.5107   -5.8281  -13.1256 O   0  0  0  0  0  0  0  0  0  0  0  0
   21.4238   -5.1714  -15.0687 O   0  0  0  0  0  0  0  0  0  0  0  0
  2  1  1  1
  3  4  1  0
  3  2  1  0
  4  5  1  0
  6  5  1  0
  7  6  1  0
  8  9  2  0
  8  2  1  0
 10  8  1  0
 11 10  1  0
 12 11  1  0
 13 12  1  0
 13 14  1  0
 14 10  1  0
 14 15  1  1
 16 15  2  0
 17 15  1  0
 18 17  1  0
 18 19  1  6
 20 19  1  0
 20 21  2  0
 22 21  1  0
 23 22  1  0
 24 23  2  0
 24 20  1  0
 25 18  1  0
 26 25  1  0
 27 25  2  0
M  END
$$$$
