KPH.pdb
     RDKit          3D

 27 28  0  0  1  0  0  0  0  0999 V2000
   25.8040  -19.5403  -13.8781 N   0  0  0  0  0  0  0  0  0  0  0  0
   26.1465  -18.7117  -14.9661 C   0  0  1  0  0  0  0  0  0  0  0  0
   26.0016  -19.2909  -16.3379 C   0  0  0  0  0  0  0  0  0  0  0  0
   26.5738  -20.6428  -16.5450 C   0  0  0  0  0  0  0  0  0  0  0  0
   27.7579  -20.7454  -17.4382 C   0  0  0  0  0  0  0  0  0  0  0  0
   27.9872  -22.1476  -17.9745 C   0  0  0  0  0  0  0  0  0  0  0  0
   28.7204  -22.9090  -16.9954 N   0  0  0  0  0  0  0  0  0  0  0  0
   25.4135  -17.4034  -14.8780 C   0  0  0  0  0  0  0  0  0  0  0  0
   24.2287  -17.4420  -14.4027 O   0  0  0  0  0  0  0  0  0  0  0  0
   25.9700  -16.1831  -15.2878 N   0  0  0  0  0  0  0  0  0  0  0  0
   27.2800  -15.9653  -15.8233 C   0  0  0  0  0  0  0  0  0  0  0  0
   27.2747  -14.5193  -16.2536 C   0  0  0  0  0  0  0  0  0  0  0  0
   26.3598  -13.8634  -15.2666 C   0  0  0  0  0  0  0  0  0  0  0  0
   25.2374  -14.9122  -15.2050 C   0  0  1  0  0  0  0  0  0  0  0  0
   24.4316  -14.6938  -16.4337 C   0  0  0  0  0  0  0  0  0  0  0  0
   24.6444  -15.4478  -17.4167 O   0  0  0  0  0  0  0  0  0  0  0  0
   23.4522  -13.7011  -16.5620 N   0  0  0  0  0  0  0  0  0  0  0  0
   22.0550  -13.9486  -16.9067 C   0  0  1  0  0  0  0  0  0  0  0  0
   21.4162  -14.9218  -15.9876 C   0  0  0  0  0  0  0  0  0  0  0  0
   19.9835  -15.0667  -16.3016 C   0  0  0  0  0  0  0  0  0  0  0  0
   19.2419  -14.4301  -17.2871 C   0  0  0  0  0  0  0  0  0  0  0  0
   17.9769  -14.8700  -17.2023 N   0  0  0  0  0  0  0  0  0  0  0  0
   17.8850  -15.7572  -16.2062 C   0  0  0  0  0  0  0  0  0  0  0  0
   19.1104  -15.8618  -15.6741 N   0  0  0  0  0  0  0  0  0  0  0  0
   21.3021  -12.6817  -16.9892 C   0  0  0  0  0  0  0  0  0  0  0  0
   21.3322  -11.7570  -15.9383 O   0  0  0  0  0  0  0  0  0  0  0  0
   20.6050  -12.3560  -17.9762 O   0  0  0  0  0  0  0  0  0  0  0  0
  2  1  1  1
  3  4  1  0
  3  2  1  0
  4  5  1  0
  6  5  1  0
  7  6  1  0
  8  9  2  0
  8  2  1  0
 10  8  1  0
 11 10  1  0
 12 11  1  0
 13 12  1  0
 13 14  1  0
 14 10  1  0
 14 15  1  6
 16 15  2  0
 17 15  1  0
 18 17  1  0
 18 19  1  1
 20 19  1  0
 20 21  2  0
 22 21  1  0
 23 22  1  0
 24 23  2  0
 24 20  1  0
 25 18  1  0
 26 25  1  0
 27 25  2  0
M  END
$$$$
