KPH.pdb
     RDKit          3D

 27 28  0  0  1  0  0  0  0  0999 V2000
   20.5836  -21.3845  -12.9722 N   0  0  0  0  0  0  0  0  0  0  0  0
   21.7759  -21.5744  -13.7000 C   0  0  1  0  0  0  0  0  0  0  0  0
   21.6770  -21.5454  -15.1926 C   0  0  0  0  0  0  0  0  0  0  0  0
   20.7880  -22.5569  -15.8128 C   0  0  0  0  0  0  0  0  0  0  0  0
   19.3436  -22.4891  -15.4673 C   0  0  0  0  0  0  0  0  0  0  0  0
   18.4968  -23.5004  -16.2199 C   0  0  0  0  0  0  0  0  0  0  0  0
   17.1590  -23.4811  -15.6853 N   0  0  0  0  0  0  0  0  0  0  0  0
   22.8319  -20.6130  -13.2339 C   0  0  0  0  0  0  0  0  0  0  0  0
   22.4533  -19.4156  -13.0016 O   0  0  0  0  0  0  0  0  0  0  0  0
   24.1741  -20.9766  -13.0525 N   0  0  0  0  0  0  0  0  0  0  0  0
   24.7475  -22.2790  -13.2113 C   0  0  0  0  0  0  0  0  0  0  0  0
   26.2330  -22.0555  -13.0722 C   0  0  0  0  0  0  0  0  0  0  0  0
   26.3268  -20.9157  -12.1060 C   0  0  0  0  0  0  0  0  0  0  0  0
   25.2070  -20.0128  -12.6486 C   0  0  1  0  0  0  0  0  0  0  0  0
   25.7891  -19.3425  -13.8398 C   0  0  0  0  0  0  0  0  0  0  0  0
   25.6801  -19.9211  -14.9504 O   0  0  0  0  0  0  0  0  0  0  0  0
   26.4499  -18.1086  -13.7994 N   0  0  0  0  0  0  0  0  0  0  0  0
   26.5407  -17.1749  -14.9184 C   0  0  1  0  0  0  0  0  0  0  0  0
   26.9345  -15.8136  -14.4803 C   0  0  0  0  0  0  0  0  0  0  0  0
   27.1348  -14.9328  -15.6449 C   0  0  0  0  0  0  0  0  0  0  0  0
   27.7600  -15.2169  -16.8510 C   0  0  0  0  0  0  0  0  0  0  0  0
   27.7085  -14.1140  -17.6138 N   0  0  0  0  0  0  0  0  0  0  0  0
   27.0780  -13.1439  -16.9434 C   0  0  0  0  0  0  0  0  0  0  0  0
   26.7390  -13.6602  -15.7542 N   0  0  0  0  0  0  0  0  0  0  0  0
   27.4310  -17.7017  -15.9712 C   0  0  0  0  0  0  0  0  0  0  0  0
   28.6273  -18.3510  -15.6434 O   0  0  0  0  0  0  0  0  0  0  0  0
   27.1847  -17.6072  -17.1945 O   0  0  0  0  0  0  0  0  0  0  0  0
  2  1  1  1
  3  4  1  0
  3  2  1  0
  4  5  1  0
  6  5  1  0
  7  6  1  0
  8  9  2  0
  8  2  1  0
 10  8  1  0
 11 10  1  0
 12 11  1  0
 13 12  1  0
 13 14  1  0
 14 10  1  0
 14 15  1  6
 16 15  2  0
 17 15  1  0
 18 17  1  0
 18 19  1  1
 20 19  1  0
 20 21  2  0
 22 21  1  0
 23 22  1  0
 24 23  2  0
 24 20  1  0
 25 18  1  0
 26 25  1  0
 27 25  2  0
M  END
$$$$
