KPH.pdb
     RDKit          3D

 27 28  0  0  1  0  0  0  0  0999 V2000
   28.1586  -22.1146  -16.9963 N   0  0  0  0  0  0  0  0  0  0  0  0
   28.4570  -21.1279  -16.0347 C   0  0  1  0  0  0  0  0  0  0  0  0
   28.0879  -19.7166  -16.3669 C   0  0  0  0  0  0  0  0  0  0  0  0
   26.9189  -19.5353  -17.2605 C   0  0  0  0  0  0  0  0  0  0  0  0
   25.5744  -19.5555  -16.6263 C   0  0  0  0  0  0  0  0  0  0  0  0
   24.4401  -19.3442  -17.6137 C   0  0  0  0  0  0  0  0  0  0  0  0
   24.6852  -18.1340  -18.3561 N   0  0  0  0  0  0  0  0  0  0  0  0
   27.8858  -21.5100  -14.6988 C   0  0  0  0  0  0  0  0  0  0  0  0
   26.8806  -22.2977  -14.7103 O   0  0  0  0  0  0  0  0  0  0  0  0
   28.4038  -21.0446  -13.4815 N   0  0  0  0  0  0  0  0  0  0  0  0
   29.5541  -20.2134  -13.2913 C   0  0  0  0  0  0  0  0  0  0  0  0
   29.5384  -19.8806  -11.8198 C   0  0  0  0  0  0  0  0  0  0  0  0
   28.9380  -21.0996  -11.1913 C   0  0  0  0  0  0  0  0  0  0  0  0
   27.7986  -21.3788  -12.1850 C   0  0  1  0  0  0  0  0  0  0  0  0
   26.7326  -20.4034  -11.8402 C   0  0  0  0  0  0  0  0  0  0  0  0
   26.8085  -19.2511  -12.3368 O   0  0  0  0  0  0  0  0  0  0  0  0
   25.6515  -20.6898  -10.9975 N   0  0  0  0  0  0  0  0  0  0  0  0
   24.2475  -20.4923  -11.3468 C   0  0  1  0  0  0  0  0  0  0  0  0
   23.8686  -21.2275  -12.5780 C   0  0  0  0  0  0  0  0  0  0  0  0
   22.4916  -20.8892  -12.9798 C   0  0  0  0  0  0  0  0  0  0  0  0
   21.9867  -19.6688  -13.4065 C   0  0  0  0  0  0  0  0  0  0  0  0
   20.6795  -19.8291  -13.6644 N   0  0  0  0  0  0  0  0  0  0  0  0
   20.3346  -21.0976  -13.4197 C   0  0  0  0  0  0  0  0  0  0  0  0
   21.4458  -21.7221  -13.0064 N   0  0  0  0  0  0  0  0  0  0  0  0
   23.3709  -20.8242  -10.2065 C   0  0  0  0  0  0  0  0  0  0  0  0
   22.2226  -20.0695   -9.9380 O   0  0  0  0  0  0  0  0  0  0  0  0
   23.5876  -21.7761   -9.4235 O   0  0  0  0  0  0  0  0  0  0  0  0
  2  1  1  6
  3  4  1  0
  3  2  1  0
  4  5  1  0
  6  5  1  0
  7  6  1  0
  8  9  2  0
  8  2  1  0
 10  8  1  0
 11 10  1  0
 12 11  1  0
 13 12  1  0
 13 14  1  0
 14 10  1  0
 14 15  1  1
 16 15  2  0
 17 15  1  0
 18 17  1  0
 18 19  1  6
 20 19  1  0
 20 21  2  0
 22 21  1  0
 23 22  1  0
 24 23  2  0
 24 20  1  0
 25 18  1  0
 26 25  1  0
 27 25  2  0
M  END
$$$$
