KPH.pdb
     RDKit          3D

 27 28  0  0  1  0  0  0  0  0999 V2000
   25.3399  -20.2520  -18.5412 N   0  0  0  0  0  0  0  0  0  0  0  0
   26.0022  -19.4758  -17.5685 C   0  0  1  0  0  0  0  0  0  0  0  0
   25.4824  -18.0937  -17.3275 C   0  0  0  0  0  0  0  0  0  0  0  0
   24.0117  -17.9218  -17.4017 C   0  0  0  0  0  0  0  0  0  0  0  0
   23.2538  -18.0317  -16.1274 C   0  0  0  0  0  0  0  0  0  0  0  0
   21.7507  -17.9133  -16.3094 C   0  0  0  0  0  0  0  0  0  0  0  0
   21.1074  -18.1229  -15.0374 N   0  0  0  0  0  0  0  0  0  0  0  0
   26.0906  -20.2276  -16.2709 C   0  0  0  0  0  0  0  0  0  0  0  0
   25.1478  -21.0523  -16.0219 O   0  0  0  0  0  0  0  0  0  0  0  0
   27.1396  -20.0577  -15.3557 N   0  0  0  0  0  0  0  0  0  0  0  0
   28.2826  -19.2069  -15.4970 C   0  0  0  0  0  0  0  0  0  0  0  0
   28.9734  -19.2798  -14.1578 C   0  0  0  0  0  0  0  0  0  0  0  0
   28.6810  -20.6710  -13.6880 C   0  0  0  0  0  0  0  0  0  0  0  0
   27.1972  -20.7775  -14.0761 C   0  0  1  0  0  0  0  0  0  0  0  0
   26.4639  -20.0289  -13.0232 C   0  0  0  0  0  0  0  0  0  0  0  0
   26.0537  -18.8739  -13.3022 O   0  0  0  0  0  0  0  0  0  0  0  0
   26.2032  -20.5313  -11.7424 N   0  0  0  0  0  0  0  0  0  0  0  0
   24.9452  -20.3616  -11.0207 C   0  0  1  0  0  0  0  0  0  0  0  0
   23.7827  -20.8526  -11.8001 C   0  0  0  0  0  0  0  0  0  0  0  0
   22.5274  -20.6055  -11.0685 C   0  0  0  0  0  0  0  0  0  0  0  0
   22.3538  -20.0921   -9.7908 C   0  0  0  0  0  0  0  0  0  0  0  0
   21.0364  -20.0441   -9.5395 N   0  0  0  0  0  0  0  0  0  0  0  0
   20.3683  -20.5046  -10.6022 C   0  0  0  0  0  0  0  0  0  0  0  0
   21.2892  -20.8390  -11.5163 N   0  0  0  0  0  0  0  0  0  0  0  0
   25.0203  -20.9787   -9.6820 C   0  0  0  0  0  0  0  0  0  0  0  0
   24.8045  -20.2187   -8.5261 O   0  0  0  0  0  0  0  0  0  0  0  0
   25.2747  -22.1895   -9.4933 O   0  0  0  0  0  0  0  0  0  0  0  0
  2  1  1  6
  3  4  1  0
  3  2  1  0
  4  5  1  0
  6  5  1  0
  7  6  1  0
  8  9  2  0
  8  2  1  0
 10  8  1  0
 11 10  1  0
 12 11  1  0
 13 12  1  0
 13 14  1  0
 14 10  1  0
 14 15  1  1
 16 15  2  0
 17 15  1  0
 18 17  1  0
 18 19  1  6
 20 19  1  0
 20 21  2  0
 22 21  1  0
 23 22  1  0
 24 23  2  0
 24 20  1  0
 25 18  1  0
 26 25  1  0
 27 25  2  0
M  END
$$$$
