KPH.pdb
     RDKit          3D

 27 28  0  0  1  0  0  0  0  0999 V2000
   17.1952   -7.4868  -17.2141 N   0  0  0  0  0  0  0  0  0  0  0  0
   18.0860   -8.5715  -17.3461 C   0  0  1  0  0  0  0  0  0  0  0  0
   18.9785   -8.8679  -16.1825 C   0  0  0  0  0  0  0  0  0  0  0  0
   19.7848   -7.7356  -15.6668 C   0  0  0  0  0  0  0  0  0  0  0  0
   20.7642   -8.0391  -14.5902 C   0  0  0  0  0  0  0  0  0  0  0  0
   21.4950   -6.8105  -14.0779 C   0  0  0  0  0  0  0  0  0  0  0  0
   22.4579   -7.2180  -13.0866 N   0  0  0  0  0  0  0  0  0  0  0  0
   17.3431   -9.8113  -17.7558 C   0  0  0  0  0  0  0  0  0  0  0  0
   16.1294   -9.9051  -17.3697 O   0  0  0  0  0  0  0  0  0  0  0  0
   17.9210  -10.8338  -18.5221 N   0  0  0  0  0  0  0  0  0  0  0  0
   19.2614  -10.8887  -19.0227 C   0  0  0  0  0  0  0  0  0  0  0  0
   19.3871  -12.2726  -19.6102 C   0  0  0  0  0  0  0  0  0  0  0  0
   18.0067  -12.5681  -20.1091 C   0  0  0  0  0  0  0  0  0  0  0  0
   17.1767  -12.0330  -18.9308 C   0  0  1  0  0  0  0  0  0  0  0  0
   17.2638  -13.0830  -17.8836 C   0  0  0  0  0  0  0  0  0  0  0  0
   18.4075  -13.4304  -17.4947 O   0  0  0  0  0  0  0  0  0  0  0  0
   16.1514  -13.7070  -17.3057 N   0  0  0  0  0  0  0  0  0  0  0  0
   16.1139  -15.0968  -16.8593 C   0  0  1  0  0  0  0  0  0  0  0  0
   15.6393  -16.0136  -17.9244 C   0  0  0  0  0  0  0  0  0  0  0  0
   14.2501  -15.6955  -18.3000 C   0  0  0  0  0  0  0  0  0  0  0  0
   13.3742  -14.7971  -17.7066 C   0  0  0  0  0  0  0  0  0  0  0  0
   12.2164  -14.8392  -18.3837 N   0  0  0  0  0  0  0  0  0  0  0  0
   12.3207  -15.7249  -19.3800 C   0  0  0  0  0  0  0  0  0  0  0  0
   13.5593  -16.2318  -19.3116 N   0  0  0  0  0  0  0  0  0  0  0  0
   17.4212  -15.5078  -16.3109 C   0  0  0  0  0  0  0  0  0  0  0  0
   18.5399  -15.6425  -17.1419 O   0  0  0  0  0  0  0  0  0  0  0  0
   17.6141  -15.7569  -15.0998 O   0  0  0  0  0  0  0  0  0  0  0  0
  2  1  1  1
  3  4  1  0
  3  2  1  0
  4  5  1  0
  6  5  1  0
  7  6  1  0
  8  9  2  0
  8  2  1  0
 10  8  1  0
 11 10  1  0
 12 11  1  0
 13 12  1  0
 13 14  1  0
 14 10  1  0
 14 15  1  1
 16 15  2  0
 17 15  1  0
 18 17  1  0
 18 19  1  6
 20 19  1  0
 20 21  2  0
 22 21  1  0
 23 22  1  0
 24 23  2  0
 24 20  1  0
 25 18  1  0
 26 25  1  0
 27 25  2  0
M  END
$$$$
