KPH.pdb
     RDKit          3D

 27 28  0  0  1  0  0  0  0  0999 V2000
   24.2746  -19.9974  -18.2829 N   0  0  0  0  0  0  0  0  0  0  0  0
   25.0215  -19.3356  -17.2871 C   0  0  1  0  0  0  0  0  0  0  0  0
   24.4704  -18.0473  -16.7629 C   0  0  0  0  0  0  0  0  0  0  0  0
   22.9934  -17.9489  -16.6800 C   0  0  0  0  0  0  0  0  0  0  0  0
   22.3507  -18.4631  -15.4419 C   0  0  0  0  0  0  0  0  0  0  0  0
   20.8406  -18.3026  -15.4367 C   0  0  0  0  0  0  0  0  0  0  0  0
   20.3076  -18.9271  -14.2527 N   0  0  0  0  0  0  0  0  0  0  0  0
   25.3201  -20.2703  -16.1495 C   0  0  0  0  0  0  0  0  0  0  0  0
   24.4756  -21.2052  -15.9403 O   0  0  0  0  0  0  0  0  0  0  0  0
   26.4577  -20.1521  -15.3379 N   0  0  0  0  0  0  0  0  0  0  0  0
   27.4875  -19.1615  -15.4294 C   0  0  0  0  0  0  0  0  0  0  0  0
   28.3492  -19.4016  -14.2145 C   0  0  0  0  0  0  0  0  0  0  0  0
   28.2523  -20.8805  -14.0029 C   0  0  0  0  0  0  0  0  0  0  0  0
   26.7476  -21.0864  -14.2416 C   0  0  1  0  0  0  0  0  0  0  0  0
   26.0889  -20.6392  -12.9874 C   0  0  0  0  0  0  0  0  0  0  0  0
   25.8736  -19.4091  -12.8441 O   0  0  0  0  0  0  0  0  0  0  0  0
   25.6949  -21.5034  -11.9584 N   0  0  0  0  0  0  0  0  0  0  0  0
   25.6162  -21.1373  -10.5470 C   0  0  1  0  0  0  0  0  0  0  0  0
   26.8243  -20.4081  -10.0902 C   0  0  0  0  0  0  0  0  0  0  0  0
   26.6888  -20.0168   -8.6757 C   0  0  0  0  0  0  0  0  0  0  0  0
   26.3361  -20.8028   -7.5874 C   0  0  0  0  0  0  0  0  0  0  0  0
   26.3398  -20.0230   -6.4952 N   0  0  0  0  0  0  0  0  0  0  0  0
   26.6793  -18.7777   -6.8442 C   0  0  0  0  0  0  0  0  0  0  0  0
   26.8863  -18.7956   -8.1681 N   0  0  0  0  0  0  0  0  0  0  0  0
   24.3743  -20.3905  -10.2666 C   0  0  0  0  0  0  0  0  0  0  0  0
   24.1099  -19.1701  -10.8999 O   0  0  0  0  0  0  0  0  0  0  0  0
   23.4970  -20.7856   -9.4663 O   0  0  0  0  0  0  0  0  0  0  0  0
  2  1  1  6
  3  4  1  0
  3  2  1  0
  4  5  1  0
  6  5  1  0
  7  6  1  0
  8  9  2  0
  8  2  1  0
 10  8  1  0
 11 10  1  0
 12 11  1  0
 13 12  1  0
 13 14  1  0
 14 10  1  0
 14 15  1  1
 16 15  2  0
 17 15  1  0
 18 17  1  0
 18 19  1  6
 20 19  1  0
 20 21  2  0
 22 21  1  0
 23 22  1  0
 24 23  2  0
 24 20  1  0
 25 18  1  0
 26 25  1  0
 27 25  2  0
M  END
$$$$
