DEW.pdb
     RDKit          3D

 32 33  0  0  1  0  0  0  0  0999 V2000
   26.7001  -34.1116    4.9065 N   0  0  0  0  0  0  0  0  0  0  0  0
   26.5665  -32.6982    4.6760 C   0  0  1  0  0  0  0  0  0  0  0  0
   27.8793  -32.0853    4.3266 C   0  0  0  0  0  0  0  0  0  0  0  0
   28.8923  -32.0928    5.3986 C   0  0  0  0  0  0  0  0  0  0  0  0
   30.0441  -32.5357    5.3300 O   0  0  0  0  0  0  0  0  0  0  0  0
   25.5489  -32.3490    3.6569 C   0  0  0  0  0  0  0  0  0  0  0  0
   25.6082  -31.2186    3.1272 O   0  0  0  0  0  0  0  0  0  0  0  0
   28.4860  -31.5332    6.6193 O   0  0  0  0  0  0  0  0  0  0  0  0
   24.4946  -33.2172    3.2353 N   0  0  0  0  0  0  0  0  0  0  0  0
   23.5261  -32.8734    2.2472 C   0  0  1  0  0  0  0  0  0  0  0  0
   22.8345  -33.9644    1.5591 C   0  0  0  0  0  0  0  0  0  0  0  0
   21.8634  -34.8286    2.2156 C   0  0  0  0  0  0  0  0  0  0  0  0
   21.2698  -35.9538    1.4958 C   0  0  0  0  0  0  0  0  0  0  0  0
   20.0951  -36.3080    1.4198 O   0  0  0  0  0  0  0  0  0  0  0  0
   22.6204  -31.7745    2.7042 C   0  0  0  0  0  0  0  0  0  0  0  0
   22.2314  -31.7245    3.8970 O   0  0  0  0  0  0  0  0  0  0  0  0
   22.1787  -36.7713    0.7686 O   0  0  0  0  0  0  0  0  0  0  0  0
   22.1640  -30.7539    1.8341 N   0  0  0  0  0  0  0  0  0  0  0  0
   21.2664  -29.6893    2.3115 C   0  0  1  0  0  0  0  0  0  0  0  0
   21.6813  -28.3985    1.6657 C   0  0  0  0  0  0  0  0  0  0  0  0
   20.6428  -27.3820    1.6689 C   0  0  0  0  0  0  0  0  0  0  0  0
   20.2976  -26.5714    2.7410 C   0  0  0  0  0  0  0  0  0  0  0  0
   19.2745  -25.7884    2.3704 N   0  0  0  0  0  0  0  0  0  0  0  0
   18.9150  -26.0395    1.0844 C   0  0  0  0  0  0  0  0  0  0  0  0
   17.9480  -25.4876    0.2707 C   0  0  0  0  0  0  0  0  0  0  0  0
   17.8220  -25.9341   -1.0222 C   0  0  0  0  0  0  0  0  0  0  0  0
   18.6517  -26.9155   -1.4875 C   0  0  0  0  0  0  0  0  0  0  0  0
   19.6085  -27.4543   -0.6640 C   0  0  0  0  0  0  0  0  0  0  0  0
   19.7689  -27.0375    0.6381 C   0  0  0  0  0  0  0  0  0  0  0  0
   19.8615  -30.0576    2.1444 C   0  0  0  0  0  0  0  0  0  0  0  0
   19.5551  -30.8393    1.1836 O   0  0  0  0  0  0  0  0  0  0  0  0
   18.8046  -29.6478    2.9328 O   0  0  0  0  0  0  0  0  0  0  0  0
  2  1  1  6
  2  3  1  0
  3  4  1  0
  4  5  2  0
  4  8  1  0
  6  7  2  0
  6  2  1  0
  9  6  1  0
 10 11  1  1
 10  9  1  0
 11 12  1  0
 12 13  1  0
 13 17  1  0
 14 13  2  0
 15 18  1  0
 15 10  1  0
 16 15  2  0
 19 18  1  0
 19 20  1  6
 20 21  1  0
 21 22  2  0
 22 23  1  0
 24 23  1  0
 25 24  2  0
 26 25  1  0
 27 28  1  0
 27 26  2  0
 28 29  2  0
 29 21  1  0
 29 24  1  0
 30 32  1  0
 30 19  1  0
 31 30  2  0
M  END
$$$$
