DEW.pdb
     RDKit          3D

 32 33  0  0  1  0  0  0  0  0999 V2000
   30.6178  -23.2147  -17.0144 N   0  0  0  0  0  0  0  0  0  0  0  0
   29.2022  -23.0419  -17.2009 C   0  0  1  0  0  0  0  0  0  0  0  0
   28.5069  -24.3578  -17.2785 C   0  0  0  0  0  0  0  0  0  0  0  0
   28.7209  -25.1200  -18.5229 C   0  0  0  0  0  0  0  0  0  0  0  0
   28.9972  -24.6620  -19.6370 O   0  0  0  0  0  0  0  0  0  0  0  0
   28.5618  -22.1817  -16.1781 C   0  0  0  0  0  0  0  0  0  0  0  0
   28.9486  -22.2853  -14.9942 O   0  0  0  0  0  0  0  0  0  0  0  0
   28.5926  -26.5125  -18.4095 O   0  0  0  0  0  0  0  0  0  0  0  0
   27.5236  -21.2375  -16.4495 N   0  0  0  0  0  0  0  0  0  0  0  0
   26.9340  -20.3954  -15.4616 C   0  0  1  0  0  0  0  0  0  0  0  0
   26.2915  -19.1599  -15.9117 C   0  0  0  0  0  0  0  0  0  0  0  0
   25.4671  -18.3312  -15.0431 C   0  0  0  0  0  0  0  0  0  0  0  0
   24.8150  -17.1324  -15.5667 C   0  0  0  0  0  0  0  0  0  0  0  0
   24.1341  -16.2894  -14.9860 O   0  0  0  0  0  0  0  0  0  0  0  0
   26.1280  -21.1708  -14.4686 C   0  0  0  0  0  0  0  0  0  0  0  0
   25.3090  -22.0411  -14.8538 O   0  0  0  0  0  0  0  0  0  0  0  0
   24.9864  -16.8930  -16.9582 O   0  0  0  0  0  0  0  0  0  0  0  0
   26.2442  -20.9686  -13.0713 N   0  0  0  0  0  0  0  0  0  0  0  0
   25.4812  -21.7882  -12.1157 C   0  0  1  0  0  0  0  0  0  0  0  0
   26.3871  -22.1446  -10.9723 C   0  0  0  0  0  0  0  0  0  0  0  0
   26.4098  -21.1513   -9.9118 C   0  0  0  0  0  0  0  0  0  0  0  0
   25.3560  -20.3271   -9.5429 C   0  0  0  0  0  0  0  0  0  0  0  0
   25.7704  -19.5239   -8.5527 N   0  0  0  0  0  0  0  0  0  0  0  0
   27.0677  -19.7757   -8.2373 C   0  0  0  0  0  0  0  0  0  0  0  0
   27.9119  -19.2293   -7.2935 C   0  0  0  0  0  0  0  0  0  0  0  0
   29.1957  -19.7052   -7.1838 C   0  0  0  0  0  0  0  0  0  0  0  0
   29.6220  -20.7102   -8.0062 C   0  0  0  0  0  0  0  0  0  0  0  0
   28.7689  -21.2423   -8.9404 C   0  0  0  0  0  0  0  0  0  0  0  0
   27.4751  -20.7951   -9.0852 C   0  0  0  0  0  0  0  0  0  0  0  0
   24.2196  -21.1477  -11.7477 C   0  0  0  0  0  0  0  0  0  0  0  0
   23.2904  -21.8801  -11.2699 O   0  0  0  0  0  0  0  0  0  0  0  0
   23.9164  -19.8051  -11.8573 O   0  0  0  0  0  0  0  0  0  0  0  0
  2  1  1  1
  2  3  1  0
  3  4  1  0
  4  5  2  0
  4  8  1  0
  6  7  2  0
  6  2  1  0
  9  6  1  0
 10 11  1  6
 10  9  1  0
 11 12  1  0
 12 13  1  0
 13 17  1  0
 14 13  2  0
 15 18  1  0
 15 10  1  0
 16 15  2  0
 19 18  1  0
 19 20  1  1
 20 21  1  0
 21 22  2  0
 22 23  1  0
 24 23  1  0
 25 24  2  0
 26 25  1  0
 27 28  1  0
 27 26  2  0
 28 29  2  0
 29 21  1  0
 29 24  1  0
 30 32  1  0
 30 19  1  0
 31 30  2  0
M  END
$$$$
