DEW.pdb
     RDKit          3D

 32 33  0  0  1  0  0  0  0  0999 V2000
   14.3154  -10.8202  -17.7311 N   0  0  0  0  0  0  0  0  0  0  0  0
   15.2464  -10.8120  -16.6348 C   0  0  1  0  0  0  0  0  0  0  0  0
   15.7268  -12.1892  -16.3289 C   0  0  0  0  0  0  0  0  0  0  0  0
   16.7533  -12.2871  -15.2743 C   0  0  0  0  0  0  0  0  0  0  0  0
   17.9768  -12.1857  -15.4162 O   0  0  0  0  0  0  0  0  0  0  0  0
   16.3965   -9.8981  -16.8300 C   0  0  0  0  0  0  0  0  0  0  0  0
   17.0666  -10.0089  -17.8791 O   0  0  0  0  0  0  0  0  0  0  0  0
   16.2694  -12.5209  -13.9784 O   0  0  0  0  0  0  0  0  0  0  0  0
   16.7997   -8.8937  -15.8963 N   0  0  0  0  0  0  0  0  0  0  0  0
   17.8578   -7.9671  -16.1298 C   0  0  1  0  0  0  0  0  0  0  0  0
   17.5543   -6.5400  -16.0157 C   0  0  0  0  0  0  0  0  0  0  0  0
   18.5294   -5.4955  -16.2973 C   0  0  0  0  0  0  0  0  0  0  0  0
   18.1467   -4.0869  -16.2197 C   0  0  0  0  0  0  0  0  0  0  0  0
   17.0422   -3.5805  -16.0328 O   0  0  0  0  0  0  0  0  0  0  0  0
   19.1243   -8.3741  -15.4462 C   0  0  0  0  0  0  0  0  0  0  0  0
   19.1268   -8.6477  -14.2208 O   0  0  0  0  0  0  0  0  0  0  0  0
   19.2035   -3.1492  -16.3839 O   0  0  0  0  0  0  0  0  0  0  0  0
   20.3607   -8.4706  -16.1308 N   0  0  0  0  0  0  0  0  0  0  0  0
   21.5762   -8.9429  -15.4477 C   0  0  1  0  0  0  0  0  0  0  0  0
   22.2421   -9.9648  -16.3239 C   0  0  0  0  0  0  0  0  0  0  0  0
   23.5135  -10.4409  -15.8059 C   0  0  0  0  0  0  0  0  0  0  0  0
   23.6845  -11.3420  -14.7644 C   0  0  0  0  0  0  0  0  0  0  0  0
   24.9985  -11.5054  -14.5545 N   0  0  0  0  0  0  0  0  0  0  0  0
   25.7237  -10.7473  -15.4178 C   0  0  0  0  0  0  0  0  0  0  0  0
   27.0826  -10.5945  -15.5962 C   0  0  0  0  0  0  0  0  0  0  0  0
   27.5413   -9.7562  -16.5829 C   0  0  0  0  0  0  0  0  0  0  0  0
   26.6515   -9.0851  -17.3742 C   0  0  0  0  0  0  0  0  0  0  0  0
   25.3022   -9.2483  -17.1827 C   0  0  0  0  0  0  0  0  0  0  0  0
   24.7992  -10.0772  -16.2056 C   0  0  0  0  0  0  0  0  0  0  0  0
   22.4202   -7.8274  -15.0228 C   0  0  0  0  0  0  0  0  0  0  0  0
   22.4737   -6.7951  -15.7708 O   0  0  0  0  0  0  0  0  0  0  0  0
   23.1799   -7.7631  -13.8716 O   0  0  0  0  0  0  0  0  0  0  0  0
  2  1  1  6
  2  3  1  0
  3  4  1  0
  4  5  2  0
  4  8  1  0
  6  7  2  0
  6  2  1  0
  9  6  1  0
 10 11  1  1
 10  9  1  0
 11 12  1  0
 12 13  1  0
 13 17  1  0
 14 13  2  0
 15 18  1  0
 15 10  1  0
 16 15  2  0
 19 18  1  0
 19 20  1  6
 20 21  1  0
 21 22  2  0
 22 23  1  0
 24 23  1  0
 25 24  2  0
 26 25  1  0
 27 28  1  0
 27 26  2  0
 28 29  2  0
 29 21  1  0
 29 24  1  0
 30 32  1  0
 30 19  1  0
 31 30  2  0
M  END
$$$$
