DEW.pdb
     RDKit          3D

 32 33  0  0  1  0  0  0  0  0999 V2000
   26.1327  -19.7788  -17.3932 N   0  0  0  0  0  0  0  0  0  0  0  0
   26.0662  -20.7396  -16.3249 C   0  0  1  0  0  0  0  0  0  0  0  0
   27.4224  -21.2514  -15.9788 C   0  0  0  0  0  0  0  0  0  0  0  0
   28.1497  -21.9217  -17.0730 C   0  0  0  0  0  0  0  0  0  0  0  0
   29.2771  -21.6435  -17.4961 O   0  0  0  0  0  0  0  0  0  0  0  0
   25.3796  -20.2408  -15.1100 C   0  0  0  0  0  0  0  0  0  0  0  0
   24.6606  -19.2239  -15.2143 O   0  0  0  0  0  0  0  0  0  0  0  0
   27.4727  -22.9863  -17.6867 O   0  0  0  0  0  0  0  0  0  0  0  0
   25.4840  -20.8415  -13.8173 N   0  0  0  0  0  0  0  0  0  0  0  0
   24.5764  -20.5914  -12.7466 C   0  0  1  0  0  0  0  0  0  0  0  0
   23.1492  -20.7953  -12.9984 C   0  0  0  0  0  0  0  0  0  0  0  0
   22.4098  -20.0636  -14.0176 C   0  0  0  0  0  0  0  0  0  0  0  0
   21.3283  -19.1565  -13.6379 C   0  0  0  0  0  0  0  0  0  0  0  0
   20.5377  -19.2239  -12.6989 O   0  0  0  0  0  0  0  0  0  0  0  0
   25.0536  -21.1757  -11.4552 C   0  0  0  0  0  0  0  0  0  0  0  0
   25.2155  -22.4154  -11.3385 O   0  0  0  0  0  0  0  0  0  0  0  0
   21.1534  -18.0190  -14.4736 O   0  0  0  0  0  0  0  0  0  0  0  0
   25.3423  -20.3783  -10.3205 N   0  0  0  0  0  0  0  0  0  0  0  0
   25.8286  -20.9808   -9.0684 C   0  0  1  0  0  0  0  0  0  0  0  0
   26.8173  -20.0380   -8.4449 C   0  0  0  0  0  0  0  0  0  0  0  0
   27.3841  -20.5242   -7.1983 C   0  0  0  0  0  0  0  0  0  0  0  0
   27.3673  -21.8380   -6.7517 C   0  0  0  0  0  0  0  0  0  0  0  0
   27.9543  -21.8857   -5.5474 N   0  0  0  0  0  0  0  0  0  0  0  0
   28.3689  -20.6503   -5.1628 C   0  0  0  0  0  0  0  0  0  0  0  0
   29.0256  -20.2058   -4.0344 C   0  0  0  0  0  0  0  0  0  0  0  0
   29.3429  -18.8742   -3.9217 C   0  0  0  0  0  0  0  0  0  0  0  0
   29.0068  -18.0070   -4.9234 C   0  0  0  0  0  0  0  0  0  0  0  0
   28.3529  -18.4661   -6.0393 C   0  0  0  0  0  0  0  0  0  0  0  0
   28.0150  -19.7916   -6.1931 C   0  0  0  0  0  0  0  0  0  0  0  0
   24.7219  -21.3967   -8.2084 C   0  0  0  0  0  0  0  0  0  0  0  0
   23.6234  -20.7526   -8.2885 O   0  0  0  0  0  0  0  0  0  0  0  0
   24.7319  -22.4375   -7.3011 O   0  0  0  0  0  0  0  0  0  0  0  0
  2  1  1  6
  2  3  1  0
  3  4  1  0
  4  5  2  0
  4  8  1  0
  6  7  2  0
  6  2  1  0
  9  6  1  0
 10 11  1  6
 10  9  1  0
 11 12  1  0
 12 13  1  0
 13 17  1  0
 14 13  2  0
 15 18  1  0
 15 10  1  0
 16 15  2  0
 19 18  1  0
 19 20  1  1
 20 21  1  0
 21 22  2  0
 22 23  1  0
 24 23  1  0
 25 24  2  0
 26 25  1  0
 27 28  1  0
 27 26  2  0
 28 29  2  0
 29 21  1  0
 29 24  1  0
 30 32  1  0
 30 19  1  0
 31 30  2  0
M  END
$$$$
