DEW.pdb
     RDKit          3D

 32 33  0  0  1  0  0  0  0  0999 V2000
   29.1619  -21.2536  -17.0305 N   0  0  0  0  0  0  0  0  0  0  0  0
   28.0258  -21.9516  -16.4913 C   0  0  1  0  0  0  0  0  0  0  0  0
   28.4142  -23.2992  -15.9871 C   0  0  0  0  0  0  0  0  0  0  0  0
   28.7577  -24.2928  -17.0217 C   0  0  0  0  0  0  0  0  0  0  0  0
   29.1489  -25.4509  -16.8395 O   0  0  0  0  0  0  0  0  0  0  0  0
   27.3012  -21.1990  -15.4403 C   0  0  0  0  0  0  0  0  0  0  0  0
   27.9663  -20.4758  -14.6679 O   0  0  0  0  0  0  0  0  0  0  0  0
   28.6194  -23.8577  -18.3483 O   0  0  0  0  0  0  0  0  0  0  0  0
   25.8863  -21.2434  -15.2428 N   0  0  0  0  0  0  0  0  0  0  0  0
   25.1947  -20.4797  -14.2573 C   0  0  1  0  0  0  0  0  0  0  0  0
   23.8468  -20.0089  -14.5790 C   0  0  0  0  0  0  0  0  0  0  0  0
   22.9799  -19.3573  -13.6070 C   0  0  0  0  0  0  0  0  0  0  0  0
   22.4527  -18.0190  -13.8671 C   0  0  0  0  0  0  0  0  0  0  0  0
   22.9587  -16.9188  -13.6554 O   0  0  0  0  0  0  0  0  0  0  0  0
   25.3182  -21.0777  -12.8920 C   0  0  0  0  0  0  0  0  0  0  0  0
   24.9411  -22.2558  -12.6765 O   0  0  0  0  0  0  0  0  0  0  0  0
   21.1582  -17.9678  -14.4543 O   0  0  0  0  0  0  0  0  0  0  0  0
   25.8560  -20.3619  -11.7942 N   0  0  0  0  0  0  0  0  0  0  0  0
   25.8326  -20.9221  -10.4331 C   0  0  1  0  0  0  0  0  0  0  0  0
   26.9947  -20.3542   -9.6700 C   0  0  0  0  0  0  0  0  0  0  0  0
   26.9061  -20.5548   -8.2335 C   0  0  0  0  0  0  0  0  0  0  0  0
   25.9987  -21.3755   -7.5785 C   0  0  0  0  0  0  0  0  0  0  0  0
   26.2053  -21.2697   -6.2581 N   0  0  0  0  0  0  0  0  0  0  0  0
   27.2214  -20.4068   -5.9957 C   0  0  0  0  0  0  0  0  0  0  0  0
   27.8002  -19.9929   -4.8143 C   0  0  0  0  0  0  0  0  0  0  0  0
   28.8496  -19.1076   -4.8536 C   0  0  0  0  0  0  0  0  0  0  0  0
   29.3079  -18.6478   -6.0565 C   0  0  0  0  0  0  0  0  0  0  0  0
   28.7199  -19.0696   -7.2227 C   0  0  0  0  0  0  0  0  0  0  0  0
   27.6657  -19.9548   -7.2295 C   0  0  0  0  0  0  0  0  0  0  0  0
   24.5221  -20.7550   -9.8069 C   0  0  0  0  0  0  0  0  0  0  0  0
   23.8386  -19.7211  -10.1098 O   0  0  0  0  0  0  0  0  0  0  0  0
   23.9254  -21.6151   -8.9066 O   0  0  0  0  0  0  0  0  0  0  0  0
  2  1  1  1
  2  3  1  0
  3  4  1  0
  4  5  2  0
  4  8  1  0
  6  7  2  0
  6  2  1  0
  9  6  1  0
 10 11  1  6
 10  9  1  0
 11 12  1  0
 12 13  1  0
 13 17  1  0
 14 13  2  0
 15 18  1  0
 15 10  1  0
 16 15  2  0
 19 18  1  0
 19 20  1  1
 20 21  1  0
 21 22  2  0
 22 23  1  0
 24 23  1  0
 25 24  2  0
 26 25  1  0
 27 28  1  0
 27 26  2  0
 28 29  2  0
 29 21  1  0
 29 24  1  0
 30 32  1  0
 30 19  1  0
 31 30  2  0
M  END
$$$$
