DEW.pdb
     RDKit          3D

 32 33  0  0  1  0  0  0  0  0999 V2000
   27.8497  -20.4166  -16.1631 N   0  0  0  0  0  0  0  0  0  0  0  0
   28.3366  -19.4099  -15.2585 C   0  0  1  0  0  0  0  0  0  0  0  0
   28.6176  -18.1345  -15.9766 C   0  0  0  0  0  0  0  0  0  0  0  0
   28.7168  -18.2374  -17.4446 C   0  0  0  0  0  0  0  0  0  0  0  0
   28.3025  -17.4228  -18.2766 O   0  0  0  0  0  0  0  0  0  0  0  0
   27.4467  -19.1619  -14.0998 C   0  0  0  0  0  0  0  0  0  0  0  0
   26.8972  -18.0433  -14.0068 O   0  0  0  0  0  0  0  0  0  0  0  0
   29.3524  -19.3905  -17.9290 O   0  0  0  0  0  0  0  0  0  0  0  0
   27.1722  -20.1160  -13.0715 N   0  0  0  0  0  0  0  0  0  0  0  0
   26.0659  -20.0271  -12.1765 C   0  0  1  0  0  0  0  0  0  0  0  0
   24.7263  -19.9129  -12.7547 C   0  0  0  0  0  0  0  0  0  0  0  0
   24.0789  -20.9974  -13.4799 C   0  0  0  0  0  0  0  0  0  0  0  0
   22.7613  -20.8011  -14.0814 C   0  0  0  0  0  0  0  0  0  0  0  0
   21.6772  -20.5779  -13.5464 O   0  0  0  0  0  0  0  0  0  0  0  0
   26.1622  -21.0190  -11.0613 C   0  0  0  0  0  0  0  0  0  0  0  0
   26.7690  -22.1058  -11.2264 O   0  0  0  0  0  0  0  0  0  0  0  0
   22.7120  -20.8774  -15.5008 O   0  0  0  0  0  0  0  0  0  0  0  0
   25.5867  -20.7890   -9.7874 N   0  0  0  0  0  0  0  0  0  0  0  0
   26.0844  -21.4837   -8.5888 C   0  0  1  0  0  0  0  0  0  0  0  0
   27.4937  -21.0322   -8.3337 C   0  0  0  0  0  0  0  0  0  0  0  0
   27.6119  -20.0605   -7.2597 C   0  0  0  0  0  0  0  0  0  0  0  0
   27.0222  -18.8047   -7.2268 C   0  0  0  0  0  0  0  0  0  0  0  0
   27.3913  -18.1908   -6.0936 N   0  0  0  0  0  0  0  0  0  0  0  0
   28.2098  -18.9870   -5.3573 C   0  0  0  0  0  0  0  0  0  0  0  0
   28.8207  -18.8047   -4.1344 C   0  0  0  0  0  0  0  0  0  0  0  0
   29.5940  -19.8126   -3.6121 C   0  0  0  0  0  0  0  0  0  0  0  0
   29.7498  -20.9803   -4.3054 C   0  0  0  0  0  0  0  0  0  0  0  0
   29.1350  -21.1449   -5.5214 C   0  0  0  0  0  0  0  0  0  0  0  0
   28.3524  -20.1610   -6.0822 C   0  0  0  0  0  0  0  0  0  0  0  0
   25.1610  -21.3412   -7.4643 C   0  0  0  0  0  0  0  0  0  0  0  0
   24.2125  -20.4942   -7.5690 O   0  0  0  0  0  0  0  0  0  0  0  0
   25.1991  -22.0419   -6.2752 O   0  0  0  0  0  0  0  0  0  0  0  0
  2  1  1  6
  2  3  1  0
  3  4  1  0
  4  5  2  0
  4  8  1  0
  6  7  2  0
  6  2  1  0
  9  6  1  0
 10 11  1  6
 10  9  1  0
 11 12  1  0
 12 13  1  0
 13 17  1  0
 14 13  2  0
 15 18  1  0
 15 10  1  0
 16 15  2  0
 19 18  1  0
 19 20  1  1
 20 21  1  0
 21 22  2  0
 22 23  1  0
 24 23  1  0
 25 24  2  0
 26 25  1  0
 27 28  1  0
 27 26  2  0
 28 29  2  0
 29 21  1  0
 29 24  1  0
 30 32  1  0
 30 19  1  0
 31 30  2  0
M  END
$$$$
