DEW.pdb
     RDKit          3D

 32 33  0  0  1  0  0  0  0  0999 V2000
   28.3839  -21.8698  -16.2966 N   0  0  0  0  0  0  0  0  0  0  0  0
   28.3749  -20.4710  -15.9619 C   0  0  1  0  0  0  0  0  0  0  0  0
   28.0306  -19.6378  -17.1486 C   0  0  0  0  0  0  0  0  0  0  0  0
   28.8451  -19.8779  -18.3546 C   0  0  0  0  0  0  0  0  0  0  0  0
   29.7261  -20.7326  -18.4986 O   0  0  0  0  0  0  0  0  0  0  0  0
   27.4911  -20.1315  -14.8218 C   0  0  0  0  0  0  0  0  0  0  0  0
   27.3937  -18.9311  -14.4881 O   0  0  0  0  0  0  0  0  0  0  0  0
   28.5765  -19.0357  -19.4440 O   0  0  0  0  0  0  0  0  0  0  0  0
   26.7391  -21.0856  -14.0687 N   0  0  0  0  0  0  0  0  0  0  0  0
   25.7968  -20.7381  -13.0568 C   0  0  1  0  0  0  0  0  0  0  0  0
   24.3739  -20.8670  -13.3743 C   0  0  0  0  0  0  0  0  0  0  0  0
   23.4405  -19.7512  -13.3061 C   0  0  0  0  0  0  0  0  0  0  0  0
   22.1668  -19.8951  -12.6036 C   0  0  0  0  0  0  0  0  0  0  0  0
   21.5431  -19.0781  -11.9291 O   0  0  0  0  0  0  0  0  0  0  0  0
   26.1727  -21.2963  -11.7211 C   0  0  0  0  0  0  0  0  0  0  0  0
   26.7680  -22.3985  -11.6363 O   0  0  0  0  0  0  0  0  0  0  0  0
   21.5435  -21.1694  -12.7083 O   0  0  0  0  0  0  0  0  0  0  0  0
   25.8835  -20.6247  -10.5077 N   0  0  0  0  0  0  0  0  0  0  0  0
   26.0710  -21.2864   -9.2061 C   0  0  1  0  0  0  0  0  0  0  0  0
   27.5070  -21.1242   -8.7977 C   0  0  0  0  0  0  0  0  0  0  0  0
   27.7057  -20.1649   -7.7244 C   0  0  0  0  0  0  0  0  0  0  0  0
   27.1876  -18.8785   -7.6733 C   0  0  0  0  0  0  0  0  0  0  0  0
   27.6184  -18.2907   -6.5481 N   0  0  0  0  0  0  0  0  0  0  0  0
   28.4095  -19.1340   -5.8347 C   0  0  0  0  0  0  0  0  0  0  0  0
   29.0599  -18.9908   -4.6271 C   0  0  0  0  0  0  0  0  0  0  0  0
   29.7889  -20.0422   -4.1271 C   0  0  0  0  0  0  0  0  0  0  0  0
   29.8622  -21.2139   -4.8272 C   0  0  0  0  0  0  0  0  0  0  0  0
   29.2091  -21.3392   -6.0279 C   0  0  0  0  0  0  0  0  0  0  0  0
   28.4685  -20.3112   -6.5661 C   0  0  0  0  0  0  0  0  0  0  0  0
   25.0806  -20.8375   -8.2289 C   0  0  0  0  0  0  0  0  0  0  0  0
   24.2752  -19.9094   -8.5721 O   0  0  0  0  0  0  0  0  0  0  0  0
   24.9126  -21.3216   -6.9467 O   0  0  0  0  0  0  0  0  0  0  0  0
  2  1  1  6
  2  3  1  0
  3  4  1  0
  4  5  2  0
  4  8  1  0
  6  7  2  0
  6  2  1  0
  9  6  1  0
 10 11  1  6
 10  9  1  0
 11 12  1  0
 12 13  1  0
 13 17  1  0
 14 13  2  0
 15 18  1  0
 15 10  1  0
 16 15  2  0
 19 18  1  0
 19 20  1  1
 20 21  1  0
 21 22  2  0
 22 23  1  0
 24 23  1  0
 25 24  2  0
 26 25  1  0
 27 28  1  0
 27 26  2  0
 28 29  2  0
 29 21  1  0
 29 24  1  0
 30 32  1  0
 30 19  1  0
 31 30  2  0
M  END
$$$$
