DEW.pdb
     RDKit          3D

 32 33  0  0  1  0  0  0  0  0999 V2000
   28.1633  -20.9790  -19.5743 N   0  0  0  0  0  0  0  0  0  0  0  0
   28.3235  -20.5564  -18.2088 C   0  0  1  0  0  0  0  0  0  0  0  0
   28.7033  -19.1173  -18.1339 C   0  0  0  0  0  0  0  0  0  0  0  0
   30.0138  -18.7722  -18.7162 C   0  0  0  0  0  0  0  0  0  0  0  0
   30.7749  -19.5257  -19.3329 O   0  0  0  0  0  0  0  0  0  0  0  0
   27.1414  -20.8211  -17.3552 C   0  0  0  0  0  0  0  0  0  0  0  0
   26.1769  -20.0291  -17.4214 O   0  0  0  0  0  0  0  0  0  0  0  0
   30.4227  -17.4417  -18.5405 O   0  0  0  0  0  0  0  0  0  0  0  0
   27.0254  -21.9232  -16.4525 N   0  0  0  0  0  0  0  0  0  0  0  0
   25.8509  -22.2163  -15.6993 C   0  0  1  0  0  0  0  0  0  0  0  0
   25.1113  -23.4344  -16.0327 C   0  0  0  0  0  0  0  0  0  0  0  0
   25.7528  -24.7296  -16.2110 C   0  0  0  0  0  0  0  0  0  0  0  0
   24.9558  -25.9101  -16.5394 C   0  0  0  0  0  0  0  0  0  0  0  0
   24.3513  -26.1891  -17.5729 O   0  0  0  0  0  0  0  0  0  0  0  0
   26.0579  -22.0154  -14.2317 C   0  0  0  0  0  0  0  0  0  0  0  0
   27.1353  -22.3611  -13.6874 O   0  0  0  0  0  0  0  0  0  0  0  0
   24.8564  -26.8932  -15.5163 O   0  0  0  0  0  0  0  0  0  0  0  0
   25.0706  -21.4364  -13.3969 N   0  0  0  0  0  0  0  0  0  0  0  0
   25.2243  -21.4186  -11.9330 C   0  0  1  0  0  0  0  0  0  0  0  0
   26.5763  -20.8512  -11.6081 C   0  0  0  0  0  0  0  0  0  0  0  0
   26.7652  -20.5595  -10.1971 C   0  0  0  0  0  0  0  0  0  0  0  0
   25.9028  -19.8285   -9.3923 C   0  0  0  0  0  0  0  0  0  0  0  0
   26.4346  -19.7450   -8.1645 N   0  0  0  0  0  0  0  0  0  0  0  0
   27.6267  -20.3944   -8.1091 C   0  0  0  0  0  0  0  0  0  0  0  0
   28.5227  -20.5949   -7.0801 C   0  0  0  0  0  0  0  0  0  0  0  0
   29.6623  -21.3253   -7.3135 C   0  0  0  0  0  0  0  0  0  0  0  0
   29.8962  -21.8436   -8.5565 C   0  0  0  0  0  0  0  0  0  0  0  0
   28.9942  -21.6340   -9.5694 C   0  0  0  0  0  0  0  0  0  0  0  0
   27.8403  -20.9078   -9.3799 C   0  0  0  0  0  0  0  0  0  0  0  0
   24.0904  -20.7638  -11.2827 C   0  0  0  0  0  0  0  0  0  0  0  0
   23.5094  -19.8121  -11.9029 O   0  0  0  0  0  0  0  0  0  0  0  0
   23.5624  -21.0718  -10.0447 O   0  0  0  0  0  0  0  0  0  0  0  0
  2  1  1  6
  2  3  1  0
  3  4  1  0
  4  5  2  0
  4  8  1  0
  6  7  2  0
  6  2  1  0
  9  6  1  0
 10 11  1  1
 10  9  1  0
 11 12  1  0
 12 13  1  0
 13 17  1  0
 14 13  2  0
 15 18  1  0
 15 10  1  0
 16 15  2  0
 19 18  1  0
 19 20  1  6
 20 21  1  0
 21 22  2  0
 22 23  1  0
 24 23  1  0
 25 24  2  0
 26 25  1  0
 27 28  1  0
 27 26  2  0
 28 29  2  0
 29 21  1  0
 29 24  1  0
 30 32  1  0
 30 19  1  0
 31 30  2  0
M  END
$$$$
