DEW.pdb
     RDKit          3D

 32 33  0  0  1  0  0  0  0  0999 V2000
   22.6567  -11.6395  -19.0591 N   0  0  0  0  0  0  0  0  0  0  0  0
   22.9455  -10.8174  -17.9148 C   0  0  1  0  0  0  0  0  0  0  0  0
   24.1363   -9.9556  -18.1605 C   0  0  0  0  0  0  0  0  0  0  0  0
   25.3931  -10.6714  -18.4494 C   0  0  0  0  0  0  0  0  0  0  0  0
   25.8687  -11.6225  -17.8196 O   0  0  0  0  0  0  0  0  0  0  0  0
   21.7997   -9.9938  -17.4620 C   0  0  0  0  0  0  0  0  0  0  0  0
   21.3027   -9.1799  -18.2697 O   0  0  0  0  0  0  0  0  0  0  0  0
   26.1114  -10.2083  -19.5621 O   0  0  0  0  0  0  0  0  0  0  0  0
   21.2199  -10.0615  -16.1573 N   0  0  0  0  0  0  0  0  0  0  0  0
   20.1682   -9.2105  -15.7074 C   0  0  1  0  0  0  0  0  0  0  0  0
   18.8568   -9.8136  -15.4657 C   0  0  0  0  0  0  0  0  0  0  0  0
   18.2374  -10.7614  -16.3817 C   0  0  0  0  0  0  0  0  0  0  0  0
   16.9474  -11.3675  -16.0572 C   0  0  0  0  0  0  0  0  0  0  0  0
   16.2259  -11.2046  -15.0753 O   0  0  0  0  0  0  0  0  0  0  0  0
   20.6182   -8.2836  -14.6232 C   0  0  0  0  0  0  0  0  0  0  0  0
   21.2077   -8.7295  -13.6083 O   0  0  0  0  0  0  0  0  0  0  0  0
   16.4382  -12.2875  -17.0150 O   0  0  0  0  0  0  0  0  0  0  0  0
   20.4077   -6.8840  -14.6836 N   0  0  0  0  0  0  0  0  0  0  0  0
   20.9908   -5.9808  -13.6780 C   0  0  1  0  0  0  0  0  0  0  0  0
   22.4794   -6.1789  -13.6735 C   0  0  0  0  0  0  0  0  0  0  0  0
   23.1532   -5.5804  -14.8134 C   0  0  0  0  0  0  0  0  0  0  0  0
   23.2926   -4.2215  -15.0578 C   0  0  0  0  0  0  0  0  0  0  0  0
   23.9396   -4.0626  -16.2212 N   0  0  0  0  0  0  0  0  0  0  0  0
   24.2440   -5.2662  -16.7731 C   0  0  0  0  0  0  0  0  0  0  0  0
   24.9062   -5.6098  -17.9330 C   0  0  0  0  0  0  0  0  0  0  0  0
   25.0908   -6.9373  -18.2339 C   0  0  0  0  0  0  0  0  0  0  0  0
   24.6192   -7.8997  -17.3856 C   0  0  0  0  0  0  0  0  0  0  0  0
   23.9619   -7.5402  -16.2356 C   0  0  0  0  0  0  0  0  0  0  0  0
   23.7542   -6.2225  -15.8958 C   0  0  0  0  0  0  0  0  0  0  0  0
   20.5363   -4.6040  -13.8662 C   0  0  0  0  0  0  0  0  0  0  0  0
   20.8500   -3.7410  -12.9803 O   0  0  0  0  0  0  0  0  0  0  0  0
   19.7919   -4.1212  -14.9241 O   0  0  0  0  0  0  0  0  0  0  0  0
  2  1  1  6
  2  3  1  0
  3  4  1  0
  4  5  2  0
  4  8  1  0
  6  7  2  0
  6  2  1  0
  9  6  1  0
 10 11  1  1
 10  9  1  0
 11 12  1  0
 12 13  1  0
 13 17  1  0
 14 13  2  0
 15 18  1  0
 15 10  1  0
 16 15  2  0
 19 18  1  0
 19 20  1  6
 20 21  1  0
 21 22  2  0
 22 23  1  0
 24 23  1  0
 25 24  2  0
 26 25  1  0
 27 28  1  0
 27 26  2  0
 28 29  2  0
 29 21  1  0
 29 24  1  0
 30 32  1  0
 30 19  1  0
 31 30  2  0
M  END
$$$$
