DEW.pdb
     RDKit          3D

 32 33  0  0  1  0  0  0  0  0999 V2000
   25.9041  -18.4712  -16.8457 N   0  0  0  0  0  0  0  0  0  0  0  0
   26.7350  -18.7016  -15.6945 C   0  0  1  0  0  0  0  0  0  0  0  0
   27.7541  -17.6245  -15.5445 C   0  0  0  0  0  0  0  0  0  0  0  0
   28.7639  -17.5480  -16.6169 C   0  0  0  0  0  0  0  0  0  0  0  0
   28.8322  -18.2585  -17.6258 O   0  0  0  0  0  0  0  0  0  0  0  0
   25.9783  -18.8726  -14.4318 C   0  0  0  0  0  0  0  0  0  0  0  0
   25.4500  -17.8625  -13.9194 O   0  0  0  0  0  0  0  0  0  0  0  0
   29.7434  -16.5565  -16.4563 O   0  0  0  0  0  0  0  0  0  0  0  0
   25.8108  -20.1182  -13.7510 N   0  0  0  0  0  0  0  0  0  0  0  0
   24.9241  -20.3126  -12.6517 C   0  0  1  0  0  0  0  0  0  0  0  0
   23.6535  -20.9913  -12.9100 C   0  0  0  0  0  0  0  0  0  0  0  0
   22.6639  -20.4921  -13.8547 C   0  0  0  0  0  0  0  0  0  0  0  0
   21.4435  -19.8467  -13.3745 C   0  0  0  0  0  0  0  0  0  0  0  0
   20.7134  -20.1461  -12.4317 O   0  0  0  0  0  0  0  0  0  0  0  0
   25.6374  -20.8049  -11.4327 C   0  0  0  0  0  0  0  0  0  0  0  0
   26.3549  -21.8339  -11.4868 O   0  0  0  0  0  0  0  0  0  0  0  0
   21.0261  -18.6963  -14.0993 O   0  0  0  0  0  0  0  0  0  0  0  0
   25.5434  -20.1497  -10.1802 N   0  0  0  0  0  0  0  0  0  0  0  0
   26.0494  -20.7798   -8.9497 C   0  0  1  0  0  0  0  0  0  0  0  0
   26.8300  -19.7526   -8.1812 C   0  0  0  0  0  0  0  0  0  0  0  0
   26.9909  -20.0727   -6.7729 C   0  0  0  0  0  0  0  0  0  0  0  0
   26.0571  -20.7113   -5.9692 C   0  0  0  0  0  0  0  0  0  0  0  0
   26.5521  -20.7957   -4.7261 N   0  0  0  0  0  0  0  0  0  0  0  0
   27.7889  -20.2373   -4.6598 C   0  0  0  0  0  0  0  0  0  0  0  0
   28.6865  -20.1006   -3.6216 C   0  0  0  0  0  0  0  0  0  0  0  0
   29.8983  -19.4976   -3.8553 C   0  0  0  0  0  0  0  0  0  0  0  0
   30.2015  -19.0415   -5.1076 C   0  0  0  0  0  0  0  0  0  0  0  0
   29.2965  -19.1852   -6.1294 C   0  0  0  0  0  0  0  0  0  0  0  0
   28.0707  -19.7822   -5.9394 C   0  0  0  0  0  0  0  0  0  0  0  0
   24.9790  -21.4457   -8.2091 C   0  0  0  0  0  0  0  0  0  0  0  0
   25.3030  -22.3373   -7.3559 O   0  0  0  0  0  0  0  0  0  0  0  0
   23.6243  -21.2074   -8.3296 O   0  0  0  0  0  0  0  0  0  0  0  0
  2  1  1  6
  2  3  1  0
  3  4  1  0
  4  5  2  0
  4  8  1  0
  6  7  2  0
  6  2  1  0
  9  6  1  0
 10 11  1  6
 10  9  1  0
 11 12  1  0
 12 13  1  0
 13 17  1  0
 14 13  2  0
 15 18  1  0
 15 10  1  0
 16 15  2  0
 19 18  1  0
 19 20  1  1
 20 21  1  0
 21 22  2  0
 22 23  1  0
 24 23  1  0
 25 24  2  0
 26 25  1  0
 27 28  1  0
 27 26  2  0
 28 29  2  0
 29 21  1  0
 29 24  1  0
 30 32  1  0
 30 19  1  0
 31 30  2  0
M  END
$$$$
