DEW.pdb
     RDKit          3D

 32 33  0  0  1  0  0  0  0  0999 V2000
   22.0404  -17.4312  -19.1271 N   0  0  0  0  0  0  0  0  0  0  0  0
   23.2789  -17.3805  -18.3974 C   0  0  1  0  0  0  0  0  0  0  0  0
   24.0665  -16.1688  -18.7614 C   0  0  0  0  0  0  0  0  0  0  0  0
   24.7942  -16.2421  -20.0423 C   0  0  0  0  0  0  0  0  0  0  0  0
   24.7652  -17.1666  -20.8619 O   0  0  0  0  0  0  0  0  0  0  0  0
   23.1138  -17.4635  -16.9270 C   0  0  0  0  0  0  0  0  0  0  0  0
   22.3593  -16.6371  -16.3705 O   0  0  0  0  0  0  0  0  0  0  0  0
   25.6002  -15.1343  -20.3448 O   0  0  0  0  0  0  0  0  0  0  0  0
   23.7629  -18.4257  -16.0928 N   0  0  0  0  0  0  0  0  0  0  0  0
   23.4256  -18.6524  -14.7262 C   0  0  1  0  0  0  0  0  0  0  0  0
   22.0123  -18.8329  -14.3918 C   0  0  0  0  0  0  0  0  0  0  0  0
   21.3180  -20.1050  -14.5358 C   0  0  0  0  0  0  0  0  0  0  0  0
   20.4534  -20.6002  -13.4664 C   0  0  0  0  0  0  0  0  0  0  0  0
   20.7129  -20.8294  -12.2868 O   0  0  0  0  0  0  0  0  0  0  0  0
   24.3336  -19.6496  -14.0797 C   0  0  0  0  0  0  0  0  0  0  0  0
   24.3892  -20.8297  -14.5048 O   0  0  0  0  0  0  0  0  0  0  0  0
   19.1039  -20.8605  -13.8329 O   0  0  0  0  0  0  0  0  0  0  0  0
   25.1612  -19.3217  -12.9776 N   0  0  0  0  0  0  0  0  0  0  0  0
   26.2924  -20.1808  -12.5909 C   0  0  1  0  0  0  0  0  0  0  0  0
   27.3359  -19.3202  -11.9383 C   0  0  0  0  0  0  0  0  0  0  0  0
   28.1238  -20.0152  -10.9344 C   0  0  0  0  0  0  0  0  0  0  0  0
   29.0153  -21.0521  -11.1706 C   0  0  0  0  0  0  0  0  0  0  0  0
   29.5200  -21.4553   -9.9958 N   0  0  0  0  0  0  0  0  0  0  0  0
   29.0023  -20.7273   -8.9722 C   0  0  0  0  0  0  0  0  0  0  0  0
   29.2227  -20.7599   -7.6112 C   0  0  0  0  0  0  0  0  0  0  0  0
   28.5591  -19.8712   -6.8010 C   0  0  0  0  0  0  0  0  0  0  0  0
   27.6914  -18.9679   -7.3482 C   0  0  0  0  0  0  0  0  0  0  0  0
   27.4833  -18.9495   -8.7047 C   0  0  0  0  0  0  0  0  0  0  0  0
   28.1262  -19.8223   -9.5532 C   0  0  0  0  0  0  0  0  0  0  0  0
   25.8472  -21.3354  -11.8125 C   0  0  0  0  0  0  0  0  0  0  0  0
   24.8024  -21.2075  -11.0913 O   0  0  0  0  0  0  0  0  0  0  0  0
   26.4429  -22.5805  -11.7742 O   0  0  0  0  0  0  0  0  0  0  0  0
  2  1  1  6
  2  3  1  0
  3  4  1  0
  4  5  2  0
  4  8  1  0
  6  7  2  0
  6  2  1  0
  9  6  1  0
 10 11  1  6
 10  9  1  0
 11 12  1  0
 12 13  1  0
 13 17  1  0
 14 13  2  0
 15 18  1  0
 15 10  1  0
 16 15  2  0
 19 18  1  0
 19 20  1  1
 20 21  1  0
 21 22  2  0
 22 23  1  0
 24 23  1  0
 25 24  2  0
 26 25  1  0
 27 28  1  0
 27 26  2  0
 28 29  2  0
 29 21  1  0
 29 24  1  0
 30 32  1  0
 30 19  1  0
 31 30  2  0
M  END
$$$$
