DEW.pdb
     RDKit          3D

 32 33  0  0  1  0  0  0  0  0999 V2000
   22.4873  -37.0275    5.1252 N   0  0  0  0  0  0  0  0  0  0  0  0
   22.9619  -36.7763    6.4595 C   0  0  1  0  0  0  0  0  0  0  0  0
   24.0292  -37.7443    6.8402 C   0  0  0  0  0  0  0  0  0  0  0  0
   24.3655  -37.7912    8.2755 C   0  0  0  0  0  0  0  0  0  0  0  0
   23.7955  -37.1900    9.1926 O   0  0  0  0  0  0  0  0  0  0  0  0
   23.4260  -35.3864    6.6806 C   0  0  0  0  0  0  0  0  0  0  0  0
   23.7946  -35.0635    7.8302 O   0  0  0  0  0  0  0  0  0  0  0  0
   25.4516  -38.6112    8.6163 O   0  0  0  0  0  0  0  0  0  0  0  0
   23.4797  -34.3802    5.6668 N   0  0  0  0  0  0  0  0  0  0  0  0
   23.8724  -33.0303    5.9038 C   0  0  1  0  0  0  0  0  0  0  0  0
   25.1999  -32.6146    5.4491 C   0  0  0  0  0  0  0  0  0  0  0  0
   25.6787  -32.8324    4.0910 C   0  0  0  0  0  0  0  0  0  0  0  0
   26.9940  -32.3418    3.6835 C   0  0  0  0  0  0  0  0  0  0  0  0
   27.6378  -32.5714    2.6617 O   0  0  0  0  0  0  0  0  0  0  0  0
   22.7851  -32.0599    5.5675 C   0  0  0  0  0  0  0  0  0  0  0  0
   21.8690  -32.3809    4.7712 O   0  0  0  0  0  0  0  0  0  0  0  0
   27.6377  -31.4645    4.5995 O   0  0  0  0  0  0  0  0  0  0  0  0
   22.7328  -30.7558    6.1184 N   0  0  0  0  0  0  0  0  0  0  0  0
   21.6240  -29.8394    5.8056 C   0  0  1  0  0  0  0  0  0  0  0  0
   21.7027  -28.6679    6.7418 C   0  0  0  0  0  0  0  0  0  0  0  0
   20.6006  -27.7312    6.6015 C   0  0  0  0  0  0  0  0  0  0  0  0
   19.6986  -27.6842    5.5479 C   0  0  0  0  0  0  0  0  0  0  0  0
   18.8530  -26.6651    5.7568 N   0  0  0  0  0  0  0  0  0  0  0  0
   19.1499  -26.0206    6.9154 C   0  0  0  0  0  0  0  0  0  0  0  0
   18.5661  -24.9441    7.5497 C   0  0  0  0  0  0  0  0  0  0  0  0
   19.0782  -24.5113    8.7485 C   0  0  0  0  0  0  0  0  0  0  0  0
   20.1554  -25.1480    9.2984 C   0  0  0  0  0  0  0  0  0  0  0  0
   20.7247  -26.2174    8.6535 C   0  0  0  0  0  0  0  0  0  0  0  0
   20.2445  -26.6837    7.4506 C   0  0  0  0  0  0  0  0  0  0  0  0
   21.5862  -29.5100    4.3817 C   0  0  0  0  0  0  0  0  0  0  0  0
   22.6930  -29.2923    3.7854 O   0  0  0  0  0  0  0  0  0  0  0  0
   20.4591  -29.4111    3.5903 O   0  0  0  0  0  0  0  0  0  0  0  0
  2  1  1  6
  2  3  1  0
  3  4  1  0
  4  5  2  0
  4  8  1  0
  6  7  2  0
  6  2  1  0
  9  6  1  0
 10 11  1  6
 10  9  1  0
 11 12  1  0
 12 13  1  0
 13 17  1  0
 14 13  2  0
 15 18  1  0
 15 10  1  0
 16 15  2  0
 19 18  1  0
 19 20  1  1
 20 21  1  0
 21 22  2  0
 22 23  1  0
 24 23  1  0
 25 24  2  0
 26 25  1  0
 27 28  1  0
 27 26  2  0
 28 29  2  0
 29 21  1  0
 29 24  1  0
 30 32  1  0
 30 19  1  0
 31 30  2  0
M  END
$$$$
