DEW.pdb
     RDKit          3D

 32 33  0  0  1  0  0  0  0  0999 V2000
   28.5209  -24.8933  -17.3545 N   0  0  0  0  0  0  0  0  0  0  0  0
   29.0203  -23.5613  -17.5666 C   0  0  1  0  0  0  0  0  0  0  0  0
   28.5566  -23.0166  -18.8740 C   0  0  0  0  0  0  0  0  0  0  0  0
   29.4905  -23.1860  -20.0030 C   0  0  0  0  0  0  0  0  0  0  0  0
   30.5898  -22.6399  -20.1469 O   0  0  0  0  0  0  0  0  0  0  0  0
   28.6958  -22.6164  -16.4720 C   0  0  0  0  0  0  0  0  0  0  0  0
   29.4738  -22.5549  -15.4959 O   0  0  0  0  0  0  0  0  0  0  0  0
   29.0678  -24.0651  -21.0114 O   0  0  0  0  0  0  0  0  0  0  0  0
   27.5469  -21.7665  -16.4507 N   0  0  0  0  0  0  0  0  0  0  0  0
   27.2919  -20.7962  -15.4376 C   0  0  1  0  0  0  0  0  0  0  0  0
   26.9995  -19.4262  -15.8612 C   0  0  0  0  0  0  0  0  0  0  0  0
   26.4768  -18.4100  -14.9583 C   0  0  0  0  0  0  0  0  0  0  0  0
   26.2376  -17.0495  -15.4360 C   0  0  0  0  0  0  0  0  0  0  0  0
   25.2837  -16.5911  -16.0616 O   0  0  0  0  0  0  0  0  0  0  0  0
   26.3688  -21.3141  -14.3809 C   0  0  0  0  0  0  0  0  0  0  0  0
   25.3219  -21.9312  -14.6967 O   0  0  0  0  0  0  0  0  0  0  0  0
   27.2557  -16.1018  -15.1384 O   0  0  0  0  0  0  0  0  0  0  0  0
   26.6221  -21.1397  -12.9981 N   0  0  0  0  0  0  0  0  0  0  0  0
   25.7135  -21.6928  -11.9804 C   0  0  1  0  0  0  0  0  0  0  0  0
   26.5280  -22.0685  -10.7759 C   0  0  0  0  0  0  0  0  0  0  0  0
   26.5053  -21.0709   -9.7195 C   0  0  0  0  0  0  0  0  0  0  0  0
   25.4432  -20.2327   -9.4112 C   0  0  0  0  0  0  0  0  0  0  0  0
   25.8131  -19.4302   -8.4030 N   0  0  0  0  0  0  0  0  0  0  0  0
   27.0884  -19.6959   -8.0170 C   0  0  0  0  0  0  0  0  0  0  0  0
   27.8869  -19.1553   -7.0311 C   0  0  0  0  0  0  0  0  0  0  0  0
   29.1572  -19.6458   -6.8503 C   0  0  0  0  0  0  0  0  0  0  0  0
   29.6151  -20.6594   -7.6448 C   0  0  0  0  0  0  0  0  0  0  0  0
   28.8073  -21.1855   -8.6217 C   0  0  0  0  0  0  0  0  0  0  0  0
   27.5287  -20.7237   -8.8379 C   0  0  0  0  0  0  0  0  0  0  0  0
   24.5845  -20.7992  -11.7272 C   0  0  0  0  0  0  0  0  0  0  0  0
   23.5400  -21.2896  -11.1827 O   0  0  0  0  0  0  0  0  0  0  0  0
   24.5235  -19.4499  -12.0139 O   0  0  0  0  0  0  0  0  0  0  0  0
  2  1  1  1
  2  3  1  0
  3  4  1  0
  4  5  2  0
  4  8  1  0
  6  7  2  0
  6  2  1  0
  9  6  1  0
 10 11  1  6
 10  9  1  0
 11 12  1  0
 12 13  1  0
 13 17  1  0
 14 13  2  0
 15 18  1  0
 15 10  1  0
 16 15  2  0
 19 18  1  0
 19 20  1  1
 20 21  1  0
 21 22  2  0
 22 23  1  0
 24 23  1  0
 25 24  2  0
 26 25  1  0
 27 28  1  0
 27 26  2  0
 28 29  2  0
 29 21  1  0
 29 24  1  0
 30 32  1  0
 30 19  1  0
 31 30  2  0
M  END
$$$$
