DEW.pdb
     RDKit          3D

 32 33  0  0  1  0  0  0  0  0999 V2000
   28.2969  -19.9817  -17.0687 N   0  0  0  0  0  0  0  0  0  0  0  0
   27.6469  -20.9672  -16.2471 C   0  0  1  0  0  0  0  0  0  0  0  0
   28.5216  -22.1566  -16.0430 C   0  0  0  0  0  0  0  0  0  0  0  0
   28.5985  -23.0942  -17.1789 C   0  0  0  0  0  0  0  0  0  0  0  0
   28.1063  -22.9430  -18.3024 O   0  0  0  0  0  0  0  0  0  0  0  0
   27.1758  -20.4459  -14.9424 C   0  0  0  0  0  0  0  0  0  0  0  0
   28.0007  -19.8605  -14.2084 O   0  0  0  0  0  0  0  0  0  0  0  0
   29.3107  -24.2789  -16.9387 O   0  0  0  0  0  0  0  0  0  0  0  0
   25.8366  -20.5681  -14.4579 N   0  0  0  0  0  0  0  0  0  0  0  0
   25.3870  -20.0345  -13.2146 C   0  0  1  0  0  0  0  0  0  0  0  0
   24.0359  -19.4748  -13.1595 C   0  0  0  0  0  0  0  0  0  0  0  0
   22.8335  -20.2903  -13.2598 C   0  0  0  0  0  0  0  0  0  0  0  0
   21.5127  -19.6644  -13.2458 C   0  0  0  0  0  0  0  0  0  0  0  0
   21.0409  -18.8051  -13.9878 O   0  0  0  0  0  0  0  0  0  0  0  0
   25.7195  -20.9302  -12.0638 C   0  0  0  0  0  0  0  0  0  0  0  0
   25.3995  -22.1440  -12.0886 O   0  0  0  0  0  0  0  0  0  0  0  0
   20.6291  -20.1078  -12.2232 O   0  0  0  0  0  0  0  0  0  0  0  0
   26.3987  -20.4659  -10.9106 N   0  0  0  0  0  0  0  0  0  0  0  0
   26.5154  -21.3029   -9.7053 C   0  0  1  0  0  0  0  0  0  0  0  0
   27.8661  -21.0632   -9.0942 C   0  0  0  0  0  0  0  0  0  0  0  0
   27.8373  -20.1869   -7.9354 C   0  0  0  0  0  0  0  0  0  0  0  0
   27.1070  -19.0127   -7.8180 C   0  0  0  0  0  0  0  0  0  0  0  0
   27.3663  -18.4681   -6.6208 N   0  0  0  0  0  0  0  0  0  0  0  0
   28.2461  -19.2325   -5.9226 C   0  0  0  0  0  0  0  0  0  0  0  0
   28.7921  -19.0964   -4.6635 C   0  0  0  0  0  0  0  0  0  0  0  0
   29.6582  -20.0558   -4.1987 C   0  0  0  0  0  0  0  0  0  0  0  0
   29.9690  -21.1305   -4.9841 C   0  0  0  0  0  0  0  0  0  0  0  0
   29.4171  -21.2501   -6.2350 C   0  0  0  0  0  0  0  0  0  0  0  0
   28.5457  -20.3121   -6.7406 C   0  0  0  0  0  0  0  0  0  0  0  0
   25.3742  -21.1167   -8.8107 C   0  0  0  0  0  0  0  0  0  0  0  0
   24.5690  -20.1576   -9.0551 O   0  0  0  0  0  0  0  0  0  0  0  0
   25.0604  -21.8852   -7.7073 O   0  0  0  0  0  0  0  0  0  0  0  0
  2  1  1  1
  2  3  1  0
  3  4  1  0
  4  5  2  0
  4  8  1  0
  6  7  2  0
  6  2  1  0
  9  6  1  0
 10 11  1  6
 10  9  1  0
 11 12  1  0
 12 13  1  0
 13 17  1  0
 14 13  2  0
 15 18  1  0
 15 10  1  0
 16 15  2  0
 19 18  1  0
 19 20  1  1
 20 21  1  0
 21 22  2  0
 22 23  1  0
 24 23  1  0
 25 24  2  0
 26 25  1  0
 27 28  1  0
 27 26  2  0
 28 29  2  0
 29 21  1  0
 29 24  1  0
 30 32  1  0
 30 19  1  0
 31 30  2  0
M  END
$$$$
