MMH.pdb
     RDKit          3D

 27 27  0  0  1  0  0  0  0  0999 V2000
   24.2037  -14.1206  -15.1302 C   0  0  0  0  0  0  0  0  0  0  0  0
   24.7985  -14.0912  -16.8359 S   0  0  0  0  0  0  0  0  0  0  0  0
   26.2492  -15.1071  -17.0823 C   0  0  0  0  0  0  0  0  0  0  0  0
   26.1522  -16.4441  -16.3842 C   0  0  0  0  0  0  0  0  0  0  0  0
   27.4195  -17.2560  -16.5332 C   0  0  2  0  0  0  0  0  0  0  0  0
   27.7727  -17.4426  -17.9284 N   0  0  0  0  0  0  0  0  0  0  0  0
   27.3467  -18.5754  -15.8957 C   0  0  0  0  0  0  0  0  0  0  0  0
   26.9762  -19.5902  -16.5369 O   0  0  0  0  0  0  0  0  0  0  0  0
   30.4376  -20.3940  -10.0654 C   0  0  0  0  0  0  0  0  0  0  0  0
   30.0864  -21.8318  -11.0994 S   0  0  0  0  0  0  0  0  0  0  0  0
   28.6669  -21.5439  -12.1894 C   0  0  0  0  0  0  0  0  0  0  0  0
   28.7316  -20.1688  -12.8223 C   0  0  0  0  0  0  0  0  0  0  0  0
   27.5807  -19.9846  -13.8164 C   0  0  2  0  0  0  0  0  0  0  0  0
   27.6989  -18.7381  -14.5192 N   0  0  0  0  0  0  0  0  0  0  0  0
   26.2845  -20.1334  -13.1107 C   0  0  0  0  0  0  0  0  0  0  0  0
   25.9531  -19.2310  -12.3027 O   0  0  0  0  0  0  0  0  0  0  0  0
   25.4803  -21.2720  -13.3708 N   0  0  0  0  0  0  0  0  0  0  0  0
   24.2003  -21.3561  -12.6475 C   0  0  1  0  0  0  0  0  0  0  0  0
   24.1551  -20.1357  -11.7618 C   0  0  0  0  0  0  0  0  0  0  0  0
   24.7945  -20.3258  -10.4463 C   0  0  0  0  0  0  0  0  0  0  0  0
   25.4545  -21.4983  -10.1211 C   0  0  0  0  0  0  0  0  0  0  0  0
   25.9395  -21.3989   -8.8722 N   0  0  0  0  0  0  0  0  0  0  0  0
   25.5784  -20.1840   -8.4476 C   0  0  0  0  0  0  0  0  0  0  0  0
   24.8875  -19.5303   -9.3909 N   0  0  0  0  0  0  0  0  0  0  0  0
   23.1347  -21.4050  -13.6500 C   0  0  0  0  0  0  0  0  0  0  0  0
   21.8103  -21.5422  -13.2585 O   0  0  0  0  0  0  0  0  0  0  0  0
   23.3142  -21.3304  -14.9081 O   0  0  0  0  0  0  0  0  0  0  0  0
  2  1  1  0
  3  4  1  0
  3  2  1  0
  4  5  1  0
  5  6  1  6
  7  8  2  0
  7  5  1  0
 10 11  1  0
 10  9  1  0
 11 12  1  0
 13 12  1  1
 13 14  1  0
 14  7  1  0
 15 17  1  0
 15 13  1  0
 16 15  2  0
 18 25  1  0
 18 17  1  0
 18 19  1  1
 19 20  1  0
 20 24  1  0
 20 21  2  0
 21 22  1  0
 23 22  1  0
 24 23  2  0
 25 26  1  0
 27 25  2  0
M  END
$$$$
