MMH.pdb
     RDKit          3D

 27 27  0  0  1  0  0  0  0  0999 V2000
   31.9728  -23.3502  -10.7708 C   0  0  0  0  0  0  0  0  0  0  0  0
   31.8505  -21.6373  -10.2093 S   0  0  0  0  0  0  0  0  0  0  0  0
   30.6783  -20.6779  -11.1594 C   0  0  0  0  0  0  0  0  0  0  0  0
   30.0567  -21.4663  -12.2890 C   0  0  0  0  0  0  0  0  0  0  0  0
   29.0066  -20.6677  -13.0286 C   0  0  2  0  0  0  0  0  0  0  0  0
   29.0579  -19.2613  -12.6740 N   0  0  0  0  0  0  0  0  0  0  0  0
   27.6394  -21.1502  -12.8039 C   0  0  0  0  0  0  0  0  0  0  0  0
   27.2778  -22.2894  -13.1909 O   0  0  0  0  0  0  0  0  0  0  0  0
   21.5566  -21.3943   -7.9088 C   0  0  0  0  0  0  0  0  0  0  0  0
   23.0707  -20.5408   -8.3977 S   0  0  0  0  0  0  0  0  0  0  0  0
   23.6020  -21.0180  -10.0637 C   0  0  0  0  0  0  0  0  0  0  0  0
   24.9529  -20.4204  -10.4007 C   0  0  0  0  0  0  0  0  0  0  0  0
   25.3398  -20.7566  -11.8443 C   0  0  2  0  0  0  0  0  0  0  0  0
   26.6795  -20.3288  -12.1337 N   0  0  0  0  0  0  0  0  0  0  0  0
   24.3342  -20.1879  -12.7747 C   0  0  0  0  0  0  0  0  0  0  0  0
   24.3162  -18.9410  -12.9232 O   0  0  0  0  0  0  0  0  0  0  0  0
   23.4442  -21.0601  -13.4511 N   0  0  0  0  0  0  0  0  0  0  0  0
   22.5378  -20.4458  -14.4358 C   0  0  1  0  0  0  0  0  0  0  0  0
   22.9304  -21.0332  -15.7688 C   0  0  0  0  0  0  0  0  0  0  0  0
   24.1144  -20.3986  -16.3780 C   0  0  0  0  0  0  0  0  0  0  0  0
   24.7749  -19.3494  -15.7622 C   0  0  0  0  0  0  0  0  0  0  0  0
   25.8098  -18.9693  -16.5299 N   0  0  0  0  0  0  0  0  0  0  0  0
   25.7763  -19.7765  -17.5948 C   0  0  0  0  0  0  0  0  0  0  0  0
   24.7568  -20.6414  -17.5109 N   0  0  0  0  0  0  0  0  0  0  0  0
   21.1685  -20.7615  -14.0254 C   0  0  0  0  0  0  0  0  0  0  0  0
   20.1085  -19.9782  -14.4601 O   0  0  0  0  0  0  0  0  0  0  0  0
   20.8398  -21.7329  -13.2710 O   0  0  0  0  0  0  0  0  0  0  0  0
  2  1  1  0
  3  4  1  0
  3  2  1  0
  4  5  1  0
  5  6  1  1
  7  8  2  0
  7  5  1  0
 10 11  1  0
 10  9  1  0
 11 12  1  0
 13 12  1  1
 13 14  1  0
 14  7  1  0
 15 17  1  0
 15 13  1  0
 16 15  2  0
 18 25  1  0
 18 17  1  0
 18 19  1  6
 19 20  1  0
 20 24  1  0
 20 21  2  0
 21 22  1  0
 23 22  1  0
 24 23  2  0
 25 26  1  0
 27 25  2  0
M  END
$$$$
