MMH.pdb
     RDKit          3D

 27 27  0  0  1  0  0  0  0  0999 V2000
   29.0094  -29.8911  -17.4334 C   0  0  0  0  0  0  0  0  0  0  0  0
   29.5202  -31.5747  -17.0226 S   0  0  0  0  0  0  0  0  0  0  0  0
   28.1459  -32.7155  -16.9384 C   0  0  0  0  0  0  0  0  0  0  0  0
   27.0859  -32.2821  -15.9521 C   0  0  0  0  0  0  0  0  0  0  0  0
   25.9242  -33.2496  -15.9050 C   0  0  2  0  0  0  0  0  0  0  0  0
   25.0809  -33.1284  -17.0798 N   0  0  0  0  0  0  0  0  0  0  0  0
   25.0813  -33.0933  -14.7143 C   0  0  0  0  0  0  0  0  0  0  0  0
   23.9534  -32.5441  -14.7811 O   0  0  0  0  0  0  0  0  0  0  0  0
   20.7716  -35.9150  -12.2595 C   0  0  0  0  0  0  0  0  0  0  0  0
   21.0049  -34.7413  -13.6115 S   0  0  0  0  0  0  0  0  0  0  0  0
   22.4830  -33.7210  -13.3668 C   0  0  0  0  0  0  0  0  0  0  0  0
   23.4597  -34.3887  -12.4203 C   0  0  0  0  0  0  0  0  0  0  0  0
   24.7164  -33.5282  -12.2563 C   0  0  2  0  0  0  0  0  0  0  0  0
   25.5275  -33.5663  -13.4406 N   0  0  0  0  0  0  0  0  0  0  0  0
   25.4496  -33.9449  -11.0360 C   0  0  0  0  0  0  0  0  0  0  0  0
   26.5441  -34.5418  -11.1882 O   0  0  0  0  0  0  0  0  0  0  0  0
   24.8956  -33.6583   -9.7627 N   0  0  0  0  0  0  0  0  0  0  0  0
   25.7147  -34.0114   -8.5909 C   0  0  1  0  0  0  0  0  0  0  0  0
   26.9310  -33.1219   -8.6646 C   0  0  0  0  0  0  0  0  0  0  0  0
   27.8260  -33.2324   -7.4974 C   0  0  0  0  0  0  0  0  0  0  0  0
   27.5516  -34.0944   -6.4496 C   0  0  0  0  0  0  0  0  0  0  0  0
   28.5259  -33.9940   -5.5301 N   0  0  0  0  0  0  0  0  0  0  0  0
   29.3775  -33.0846   -6.0141 C   0  0  0  0  0  0  0  0  0  0  0  0
   28.9627  -32.6203   -7.2002 N   0  0  0  0  0  0  0  0  0  0  0  0
   24.8901  -33.7962   -7.4008 C   0  0  0  0  0  0  0  0  0  0  0  0
   24.0993  -32.6609   -7.2921 O   0  0  0  0  0  0  0  0  0  0  0  0
   24.8249  -34.5888   -6.4066 O   0  0  0  0  0  0  0  0  0  0  0  0
  2  1  1  0
  3  4  1  0
  3  2  1  0
  4  5  1  0
  5  6  1  6
  7  8  2  0
  7  5  1  0
 10 11  1  0
 10  9  1  0
 11 12  1  0
 13 12  1  6
 13 14  1  0
 14  7  1  0
 15 17  1  0
 15 13  1  0
 16 15  2  0
 18 25  1  0
 18 17  1  0
 18 19  1  1
 19 20  1  0
 20 24  1  0
 20 21  2  0
 21 22  1  0
 23 22  1  0
 24 23  2  0
 25 26  1  0
 27 25  2  0
M  END
$$$$
