MMH.pdb
     RDKit          3D

 27 27  0  0  1  0  0  0  0  0999 V2000
   12.6511  -14.6218  -16.8758 C   0  0  0  0  0  0  0  0  0  0  0  0
   13.9497  -13.6127  -16.1279 S   0  0  0  0  0  0  0  0  0  0  0  0
   15.5858  -14.2875  -16.3827 C   0  0  0  0  0  0  0  0  0  0  0  0
   16.6713  -13.4406  -15.7592 C   0  0  0  0  0  0  0  0  0  0  0  0
   17.1939  -12.3923  -16.7160 C   0  0  2  0  0  0  0  0  0  0  0  0
   17.7560  -12.9935  -17.9113 N   0  0  0  0  0  0  0  0  0  0  0  0
   18.2069  -11.5124  -16.1225 C   0  0  0  0  0  0  0  0  0  0  0  0
   17.9909  -10.9022  -15.0458 O   0  0  0  0  0  0  0  0  0  0  0  0
   25.0422   -9.7517  -14.1108 C   0  0  0  0  0  0  0  0  0  0  0  0
   23.7971  -10.7986  -14.8941 S   0  0  0  0  0  0  0  0  0  0  0  0
   22.9421   -9.9336  -16.2381 C   0  0  0  0  0  0  0  0  0  0  0  0
   21.8628  -10.8029  -16.8505 C   0  0  0  0  0  0  0  0  0  0  0  0
   20.4966  -10.4609  -16.2477 C   0  0  2  0  0  0  0  0  0  0  0  0
   19.4734  -11.3279  -16.7606 N   0  0  0  0  0  0  0  0  0  0  0  0
   20.2026   -9.0232  -16.4639 C   0  0  0  0  0  0  0  0  0  0  0  0
   20.1063   -8.6192  -17.6491 O   0  0  0  0  0  0  0  0  0  0  0  0
   20.0441   -8.1716  -15.3413 N   0  0  0  0  0  0  0  0  0  0  0  0
   19.8025   -6.7463  -15.6220 C   0  0  1  0  0  0  0  0  0  0  0  0
   18.6628   -6.3437  -14.7192 C   0  0  0  0  0  0  0  0  0  0  0  0
   17.3279   -6.6543  -15.2643 C   0  0  0  0  0  0  0  0  0  0  0  0
   17.1691   -7.4148  -16.4100 C   0  0  0  0  0  0  0  0  0  0  0  0
   15.8584   -7.5422  -16.6759 N   0  0  0  0  0  0  0  0  0  0  0  0
   15.2329   -6.8688  -15.7054 C   0  0  0  0  0  0  0  0  0  0  0  0
   16.1119   -6.3302  -14.8500 N   0  0  0  0  0  0  0  0  0  0  0  0
   21.0525   -6.0314  -15.3589 C   0  0  0  0  0  0  0  0  0  0  0  0
   21.1975   -4.7071  -15.7478 O   0  0  0  0  0  0  0  0  0  0  0  0
   22.0697   -6.5317  -14.7794 O   0  0  0  0  0  0  0  0  0  0  0  0
  2  1  1  0
  3  4  1  0
  3  2  1  0
  4  5  1  0
  5  6  1  6
  7  8  2  0
  7  5  1  0
 10 11  1  0
 10  9  1  0
 11 12  1  0
 13 12  1  6
 13 14  1  0
 14  7  1  0
 15 17  1  0
 15 13  1  0
 16 15  2  0
 18 25  1  0
 18 17  1  0
 18 19  1  1
 19 20  1  0
 20 24  1  0
 20 21  2  0
 21 22  1  0
 23 22  1  0
 24 23  2  0
 25 26  1  0
 27 25  2  0
M  END
$$$$
