MMH.pdb
     RDKit          3D

 27 27  0  0  1  0  0  0  0  0999 V2000
   27.4568  -15.7166  -14.8826 C   0  0  0  0  0  0  0  0  0  0  0  0
   28.3945  -16.6310  -16.1272 S   0  0  0  0  0  0  0  0  0  0  0  0
   28.7727  -18.3035  -15.6203 C   0  0  0  0  0  0  0  0  0  0  0  0
   27.6131  -18.9808  -14.9270 C   0  0  0  0  0  0  0  0  0  0  0  0
   28.0110  -20.3073  -14.3189 C   0  0  2  0  0  0  0  0  0  0  0  0
   28.4218  -21.2583  -15.3353 N   0  0  0  0  0  0  0  0  0  0  0  0
   26.9504  -20.9227  -13.5134 C   0  0  0  0  0  0  0  0  0  0  0  0
   26.2036  -21.8138  -13.9894 O   0  0  0  0  0  0  0  0  0  0  0  0
   28.8290  -21.3054   -7.0300 C   0  0  0  0  0  0  0  0  0  0  0  0
   27.2590  -20.6692   -7.6546 S   0  0  0  0  0  0  0  0  0  0  0  0
   27.0004  -21.1102   -9.3936 C   0  0  0  0  0  0  0  0  0  0  0  0
   25.7235  -20.4966   -9.9309 C   0  0  0  0  0  0  0  0  0  0  0  0
   25.5527  -20.8348  -11.4152 C   0  0  2  0  0  0  0  0  0  0  0  0
   26.7407  -20.5196  -12.1574 N   0  0  0  0  0  0  0  0  0  0  0  0
   24.3414  -20.1610  -11.9433 C   0  0  0  0  0  0  0  0  0  0  0  0
   24.4871  -19.0345  -12.4790 O   0  0  0  0  0  0  0  0  0  0  0  0
   23.0832  -20.8040  -11.8252 N   0  0  0  0  0  0  0  0  0  0  0  0
   22.0279  -20.3674  -12.7549 C   0  0  1  0  0  0  0  0  0  0  0  0
   22.5230  -20.7369  -14.1312 C   0  0  0  0  0  0  0  0  0  0  0  0
   21.5426  -20.4937  -15.2061 C   0  0  0  0  0  0  0  0  0  0  0  0
   20.3148  -19.9072  -14.9516 C   0  0  0  0  0  0  0  0  0  0  0  0
   19.6288  -19.8047  -16.1020 N   0  0  0  0  0  0  0  0  0  0  0  0
   20.4295  -20.3215  -17.0393 C   0  0  0  0  0  0  0  0  0  0  0  0
   21.5857  -20.7393  -16.5072 N   0  0  0  0  0  0  0  0  0  0  0  0
   20.7922  -21.0475  -12.3634 C   0  0  0  0  0  0  0  0  0  0  0  0
   20.7542  -22.4315  -12.2675 O   0  0  0  0  0  0  0  0  0  0  0  0
   19.6948  -20.4634  -12.0889 O   0  0  0  0  0  0  0  0  0  0  0  0
  2  1  1  0
  3  4  1  0
  3  2  1  0
  4  5  1  0
  5  6  1  6
  7  8  2  0
  7  5  1  0
 10 11  1  0
 10  9  1  0
 11 12  1  0
 13 12  1  1
 13 14  1  0
 14  7  1  0
 15 17  1  0
 15 13  1  0
 16 15  2  0
 18 25  1  0
 18 17  1  0
 18 19  1  6
 19 20  1  0
 20 24  1  0
 20 21  2  0
 21 22  1  0
 23 22  1  0
 24 23  2  0
 25 26  1  0
 27 25  2  0
M  END
$$$$
