MMH.pdb
     RDKit          3D

 27 27  0  0  1  0  0  0  0  0999 V2000
   17.2120  -17.1956  -15.3472 C   0  0  0  0  0  0  0  0  0  0  0  0
   16.7629  -17.1928  -17.0972 S   0  0  0  0  0  0  0  0  0  0  0  0
   17.5981  -15.9131  -18.0256 C   0  0  0  0  0  0  0  0  0  0  0  0
   18.4640  -15.0305  -17.1563 C   0  0  0  0  0  0  0  0  0  0  0  0
   19.1091  -13.9131  -17.9455 C   0  0  2  0  0  0  0  0  0  0  0  0
   20.0041  -14.4279  -18.9654 N   0  0  0  0  0  0  0  0  0  0  0  0
   19.8566  -12.9649  -17.1122 C   0  0  0  0  0  0  0  0  0  0  0  0
   19.3195  -12.3961  -16.1292 O   0  0  0  0  0  0  0  0  0  0  0  0
   27.1375  -10.9189  -14.7087 C   0  0  0  0  0  0  0  0  0  0  0  0
   26.1306  -11.7789  -15.9361 S   0  0  0  0  0  0  0  0  0  0  0  0
   24.3677  -11.4071  -15.7375 C   0  0  0  0  0  0  0  0  0  0  0  0
   23.5300  -12.1671  -16.7457 C   0  0  0  0  0  0  0  0  0  0  0  0
   22.0453  -11.8375  -16.5620 C   0  0  2  0  0  0  0  0  0  0  0  0
   21.2244  -12.6641  -17.4015 N   0  0  0  0  0  0  0  0  0  0  0  0
   21.8262  -10.3870  -16.7817 C   0  0  0  0  0  0  0  0  0  0  0  0
   21.7555   -9.9807  -17.9679 O   0  0  0  0  0  0  0  0  0  0  0  0
   21.7069   -9.5264  -15.6611 N   0  0  0  0  0  0  0  0  0  0  0  0
   21.3338   -8.1290  -15.9379 C   0  0  1  0  0  0  0  0  0  0  0  0
   19.9405   -8.1886  -16.5136 C   0  0  0  0  0  0  0  0  0  0  0  0
   19.2843   -6.8730  -16.6322 C   0  0  0  0  0  0  0  0  0  0  0  0
   18.0665   -6.6107  -16.0285 C   0  0  0  0  0  0  0  0  0  0  0  0
   17.7059   -5.3446  -16.2963 N   0  0  0  0  0  0  0  0  0  0  0  0
   18.6909   -4.8477  -17.0510 C   0  0  0  0  0  0  0  0  0  0  0  0
   19.6467   -5.7631  -17.2582 N   0  0  0  0  0  0  0  0  0  0  0  0
   21.4261   -7.3941  -14.6753 C   0  0  0  0  0  0  0  0  0  0  0  0
   21.2527   -6.0173  -14.6516 O   0  0  0  0  0  0  0  0  0  0  0  0
   21.6618   -7.9217  -13.5409 O   0  0  0  0  0  0  0  0  0  0  0  0
  2  1  1  0
  3  4  1  0
  3  2  1  0
  4  5  1  0
  5  6  1  6
  7  8  2  0
  7  5  1  0
 10 11  1  0
 10  9  1  0
 11 12  1  0
 13 12  1  6
 13 14  1  0
 14  7  1  0
 15 17  1  0
 15 13  1  0
 16 15  2  0
 18 25  1  0
 18 17  1  0
 18 19  1  1
 19 20  1  0
 20 24  1  0
 20 21  2  0
 21 22  1  0
 23 22  1  0
 24 23  2  0
 25 26  1  0
 27 25  2  0
M  END
$$$$
