MMH.pdb
     RDKit          3D

 27 27  0  0  1  0  0  0  0  0999 V2000
   28.3094  -19.9840   -1.6564 C   0  0  0  0  0  0  0  0  0  0  0  0
   28.2246  -19.9088   -3.4595 S   0  0  0  0  0  0  0  0  0  0  0  0
   26.5567  -20.0717   -4.0829 C   0  0  0  0  0  0  0  0  0  0  0  0
   26.5028  -20.1709   -5.5900 C   0  0  0  0  0  0  0  0  0  0  0  0
   27.6552  -19.4459   -6.2487 C   0  0  2  0  0  0  0  0  0  0  0  0
   27.6127  -18.0205   -5.9794 N   0  0  0  0  0  0  0  0  0  0  0  0
   27.7133  -19.6391   -7.7019 C   0  0  0  0  0  0  0  0  0  0  0  0
   27.1360  -18.8479   -8.4887 O   0  0  0  0  0  0  0  0  0  0  0  0
   32.7686  -22.8075  -10.3945 C   0  0  0  0  0  0  0  0  0  0  0  0
   31.6285  -22.8228  -11.7944 S   0  0  0  0  0  0  0  0  0  0  0  0
   30.1181  -21.8853  -11.4401 C   0  0  0  0  0  0  0  0  0  0  0  0
   29.9128  -21.7198   -9.9481 C   0  0  0  0  0  0  0  0  0  0  0  0
   28.6385  -20.9160   -9.6710 C   0  0  2  0  0  0  0  0  0  0  0  0
   28.4341  -20.7406   -8.2606 N   0  0  0  0  0  0  0  0  0  0  0  0
   27.4868  -21.5585  -10.3499 C   0  0  0  0  0  0  0  0  0  0  0  0
   26.8125  -22.3903   -9.6935 O   0  0  0  0  0  0  0  0  0  0  0  0
   27.1948  -21.2151  -11.6942 N   0  0  0  0  0  0  0  0  0  0  0  0
   25.7924  -21.3536  -12.1220 C   0  0  1  0  0  0  0  0  0  0  0  0
   25.0734  -20.1597  -11.5443 C   0  0  0  0  0  0  0  0  0  0  0  0
   23.6548  -20.0665  -11.9373 C   0  0  0  0  0  0  0  0  0  0  0  0
   23.0424  -21.0536  -12.6902 C   0  0  0  0  0  0  0  0  0  0  0  0
   21.7590  -20.7157  -12.8990 N   0  0  0  0  0  0  0  0  0  0  0  0
   21.5969  -19.5413  -12.2816 C   0  0  0  0  0  0  0  0  0  0  0  0
   22.7355  -19.1428  -11.6991 N   0  0  0  0  0  0  0  0  0  0  0  0
   25.7851  -21.4034  -13.5850 C   0  0  0  0  0  0  0  0  0  0  0  0
   26.9275  -21.0787  -14.3029 O   0  0  0  0  0  0  0  0  0  0  0  0
   24.7826  -21.7319  -14.2976 O   0  0  0  0  0  0  0  0  0  0  0  0
  2  1  1  0
  3  4  1  0
  3  2  1  0
  4  5  1  0
  5  6  1  6
  7  8  2  0
  7  5  1  0
 10 11  1  0
 10  9  1  0
 11 12  1  0
 13 12  1  1
 13 14  1  0
 14  7  1  0
 15 17  1  0
 15 13  1  0
 16 15  2  0
 18 25  1  0
 18 17  1  0
 18 19  1  6
 19 20  1  0
 20 24  1  0
 20 21  2  0
 21 22  1  0
 23 22  1  0
 24 23  2  0
 25 26  1  0
 27 25  2  0
M  END
$$$$
