MMH.pdb
     RDKit          3D

 27 27  0  0  1  0  0  0  0  0999 V2000
   12.2377   -9.6520  -14.8927 C   0  0  0  0  0  0  0  0  0  0  0  0
   13.1490  -10.6858  -16.0611 S   0  0  0  0  0  0  0  0  0  0  0  0
   14.9144  -10.6609  -15.7787 C   0  0  0  0  0  0  0  0  0  0  0  0
   15.2732  -10.3306  -14.3482 C   0  0  0  0  0  0  0  0  0  0  0  0
   16.7680  -10.3501  -14.1183 C   0  0  2  0  0  0  0  0  0  0  0  0
   17.3028  -11.6967  -14.1997 N   0  0  0  0  0  0  0  0  0  0  0  0
   17.1690   -9.7718  -12.8310 C   0  0  0  0  0  0  0  0  0  0  0  0
   17.2450  -10.4773  -11.7943 O   0  0  0  0  0  0  0  0  0  0  0  0
   21.8428   -6.0883  -13.5590 C   0  0  0  0  0  0  0  0  0  0  0  0
   21.9466   -7.3078  -12.2316 S   0  0  0  0  0  0  0  0  0  0  0  0
   20.3464   -8.1011  -11.9225 C   0  0  0  0  0  0  0  0  0  0  0  0
   19.2638   -7.0716  -11.6696 C   0  0  0  0  0  0  0  0  0  0  0  0
   17.9043   -7.7575  -11.5021 C   0  0  2  0  0  0  0  0  0  0  0  0
   17.4855   -8.3812  -12.7258 N   0  0  0  0  0  0  0  0  0  0  0  0
   16.9161   -6.7832  -10.9783 C   0  0  0  0  0  0  0  0  0  0  0  0
   16.3295   -6.0443  -11.8072 O   0  0  0  0  0  0  0  0  0  0  0  0
   16.6746   -6.7233   -9.5823 N   0  0  0  0  0  0  0  0  0  0  0  0
   15.7211   -5.7007   -9.1200 C   0  0  1  0  0  0  0  0  0  0  0  0
   15.0635   -6.2852   -7.8945 C   0  0  0  0  0  0  0  0  0  0  0  0
   14.1134   -7.3750   -8.1864 C   0  0  0  0  0  0  0  0  0  0  0  0
   13.8430   -7.7762   -9.4833 C   0  0  0  0  0  0  0  0  0  0  0  0
   12.9509   -8.7803   -9.4568 N   0  0  0  0  0  0  0  0  0  0  0  0
   12.6850   -8.9840   -8.1627 C   0  0  0  0  0  0  0  0  0  0  0  0
   13.3821   -8.1405   -7.3899 N   0  0  0  0  0  0  0  0  0  0  0  0
   16.4835   -4.4780   -8.8615 C   0  0  0  0  0  0  0  0  0  0  0  0
   17.8685   -4.4841   -8.9494 O   0  0  0  0  0  0  0  0  0  0  0  0
   15.9738   -3.3542   -8.5483 O   0  0  0  0  0  0  0  0  0  0  0  0
  2  1  1  0
  3  4  1  0
  3  2  1  0
  4  5  1  0
  5  6  1  1
  7  8  2  0
  7  5  1  0
 10 11  1  0
 10  9  1  0
 11 12  1  0
 13 12  1  6
 13 14  1  0
 14  7  1  0
 15 17  1  0
 15 13  1  0
 16 15  2  0
 18 25  1  0
 18 17  1  0
 18 19  1  1
 19 20  1  0
 20 24  1  0
 20 21  2  0
 21 22  1  0
 23 22  1  0
 24 23  2  0
 25 26  1  0
 27 25  2  0
M  END
$$$$
