MMH.pdb
     RDKit          3D

 27 27  0  0  1  0  0  0  0  0999 V2000
   26.2132  -15.3546  -21.8790 C   0  0  0  0  0  0  0  0  0  0  0  0
   24.6319  -16.2254  -21.9517 S   0  0  0  0  0  0  0  0  0  0  0  0
   23.4984  -15.7134  -20.6670 C   0  0  0  0  0  0  0  0  0  0  0  0
   22.8978  -14.3510  -20.9261 C   0  0  0  0  0  0  0  0  0  0  0  0
   23.0781  -13.4176  -19.7497 C   0  0  2  0  0  0  0  0  0  0  0  0
   22.8949  -14.1091  -18.4870 N   0  0  0  0  0  0  0  0  0  0  0  0
   22.1755  -12.2613  -19.7773 C   0  0  0  0  0  0  0  0  0  0  0  0
   22.1323  -11.4910  -20.7687 O   0  0  0  0  0  0  0  0  0  0  0  0
   16.6801  -13.8729  -19.0515 C   0  0  0  0  0  0  0  0  0  0  0  0
   16.8194  -12.3753  -20.0503 S   0  0  0  0  0  0  0  0  0  0  0  0
   18.5078  -11.7159  -20.0391 C   0  0  0  0  0  0  0  0  0  0  0  0
   18.9492  -11.3628  -18.6333 C   0  0  0  0  0  0  0  0  0  0  0  0
   20.4019  -10.8765  -18.6368 C   0  0  2  0  0  0  0  0  0  0  0  0
   21.3173  -11.9823  -18.6679 N   0  0  0  0  0  0  0  0  0  0  0  0
   20.6260   -9.9686  -17.4854 C   0  0  0  0  0  0  0  0  0  0  0  0
   20.8911  -10.4901  -16.3741 O   0  0  0  0  0  0  0  0  0  0  0  0
   20.5336   -8.5671  -17.6795 N   0  0  0  0  0  0  0  0  0  0  0  0
   20.7665   -7.7195  -16.4980 C   0  0  1  0  0  0  0  0  0  0  0  0
   21.3321   -6.4270  -17.0323 C   0  0  0  0  0  0  0  0  0  0  0  0
   21.4829   -5.3719  -16.0128 C   0  0  0  0  0  0  0  0  0  0  0  0
   22.7040   -5.1038  -15.4186 C   0  0  0  0  0  0  0  0  0  0  0  0
   22.5540   -4.1017  -14.5365 N   0  0  0  0  0  0  0  0  0  0  0  0
   21.2611   -3.7679  -14.5958 C   0  0  0  0  0  0  0  0  0  0  0  0
   20.6080   -4.5292  -15.4838 N   0  0  0  0  0  0  0  0  0  0  0  0
   19.4838   -7.5690  -15.8088 C   0  0  0  0  0  0  0  0  0  0  0  0
   19.4440   -7.3960  -14.4324 O   0  0  0  0  0  0  0  0  0  0  0  0
   18.3451   -7.5822  -16.3780 O   0  0  0  0  0  0  0  0  0  0  0  0
  2  1  1  0
  3  4  1  0
  3  2  1  0
  4  5  1  0
  5  6  1  1
  7  8  2  0
  7  5  1  0
 10 11  1  0
 10  9  1  0
 11 12  1  0
 13 12  1  1
 13 14  1  0
 14  7  1  0
 15 17  1  0
 15 13  1  0
 16 15  2  0
 18 25  1  0
 18 17  1  0
 18 19  1  6
 19 20  1  0
 20 24  1  0
 20 21  2  0
 21 22  1  0
 23 22  1  0
 24 23  2  0
 25 26  1  0
 27 25  2  0
M  END
$$$$
