MMH.pdb
     RDKit          3D

 27 27  0  0  1  0  0  0  0  0999 V2000
   13.5632  -12.2702    8.3092 C   0  0  0  0  0  0  0  0  0  0  0  0
   13.4248  -12.0404    6.5225 S   0  0  0  0  0  0  0  0  0  0  0  0
   15.0131  -12.0115    5.7018 C   0  0  0  0  0  0  0  0  0  0  0  0
   15.8140  -13.2721    5.9333 C   0  0  0  0  0  0  0  0  0  0  0  0
   17.1974  -13.1855    5.3282 C   0  0  2  0  0  0  0  0  0  0  0  0
   17.1424  -13.1054    3.8802 N   0  0  0  0  0  0  0  0  0  0  0  0
   18.0672  -14.3086    5.6950 C   0  0  0  0  0  0  0  0  0  0  0  0
   18.2114  -15.2977    4.9340 O   0  0  0  0  0  0  0  0  0  0  0  0
   22.6648  -14.8100   11.1754 C   0  0  0  0  0  0  0  0  0  0  0  0
   23.2207  -15.1562    9.4928 S   0  0  0  0  0  0  0  0  0  0  0  0
   21.8796  -15.8118    8.4646 C   0  0  0  0  0  0  0  0  0  0  0  0
   20.8338  -14.7515    8.1859 C   0  0  0  0  0  0  0  0  0  0  0  0
   19.7109  -15.3255    7.3162 C   0  0  2  0  0  0  0  0  0  0  0  0
   18.7768  -14.3032    6.9366 N   0  0  0  0  0  0  0  0  0  0  0  0
   19.0716  -16.4659    8.0169 C   0  0  0  0  0  0  0  0  0  0  0  0
   18.2165  -16.2038    8.8985 O   0  0  0  0  0  0  0  0  0  0  0  0
   19.4445  -17.7894    7.6706 N   0  0  0  0  0  0  0  0  0  0  0  0
   18.7258  -18.8785    8.3531 C   0  0  1  0  0  0  0  0  0  0  0  0
   18.6282  -19.9944    7.3426 C   0  0  0  0  0  0  0  0  0  0  0  0
   17.4127  -19.9432    6.5087 C   0  0  0  0  0  0  0  0  0  0  0  0
   16.3927  -19.0429    6.7643 C   0  0  0  0  0  0  0  0  0  0  0  0
   15.4174  -19.2128    5.8561 N   0  0  0  0  0  0  0  0  0  0  0  0
   15.8408  -20.2015    5.0623 C   0  0  0  0  0  0  0  0  0  0  0  0
   17.0433  -20.6475    5.4491 N   0  0  0  0  0  0  0  0  0  0  0  0
   19.4928  -19.2244    9.5510 C   0  0  0  0  0  0  0  0  0  0  0  0
   18.8396  -19.5514   10.7311 O   0  0  0  0  0  0  0  0  0  0  0  0
   20.7637  -19.2557    9.6184 O   0  0  0  0  0  0  0  0  0  0  0  0
  2  1  1  0
  3  4  1  0
  3  2  1  0
  4  5  1  0
  5  6  1  6
  7  8  2  0
  7  5  1  0
 10 11  1  0
 10  9  1  0
 11 12  1  0
 13 12  1  1
 13 14  1  0
 14  7  1  0
 15 17  1  0
 15 13  1  0
 16 15  2  0
 18 25  1  0
 18 17  1  0
 18 19  1  6
 19 20  1  0
 20 24  1  0
 20 21  2  0
 21 22  1  0
 23 22  1  0
 24 23  2  0
 25 26  1  0
 27 25  2  0
M  END
$$$$
