MMH.pdb
     RDKit          3D

 27 27  0  0  1  0  0  0  0  0999 V2000
   18.2212  -15.5392  -20.1956 C   0  0  0  0  0  0  0  0  0  0  0  0
   18.2915  -17.2873  -19.7447 S   0  0  0  0  0  0  0  0  0  0  0  0
   19.6327  -17.6608  -18.6227 C   0  0  0  0  0  0  0  0  0  0  0  0
   20.0139  -16.4837  -17.7546 C   0  0  0  0  0  0  0  0  0  0  0  0
   21.1982  -16.7929  -16.8662 C   0  0  2  0  0  0  0  0  0  0  0  0
   20.9257  -17.9130  -15.9844 N   0  0  0  0  0  0  0  0  0  0  0  0
   21.6269  -15.6544  -16.0462 C   0  0  0  0  0  0  0  0  0  0  0  0
   20.9616  -15.2826  -15.0475 O   0  0  0  0  0  0  0  0  0  0  0  0
   27.4135  -10.4039  -14.4509 C   0  0  0  0  0  0  0  0  0  0  0  0
   26.9172  -11.9374  -15.2645 S   0  0  0  0  0  0  0  0  0  0  0  0
   25.1422  -12.2531  -15.0760 C   0  0  0  0  0  0  0  0  0  0  0  0
   24.7424  -13.5527  -15.7445 C   0  0  0  0  0  0  0  0  0  0  0  0
   23.2217  -13.7313  -15.6966 C   0  0  2  0  0  0  0  0  0  0  0  0
   22.8211  -14.9361  -16.3672 N   0  0  0  0  0  0  0  0  0  0  0  0
   22.5605  -12.5181  -16.2364 C   0  0  0  0  0  0  0  0  0  0  0  0
   22.5979  -12.3371  -17.4785 O   0  0  0  0  0  0  0  0  0  0  0  0
   21.9209  -11.6217  -15.3432 N   0  0  0  0  0  0  0  0  0  0  0  0
   21.2875  -10.4337  -15.9400 C   0  0  1  0  0  0  0  0  0  0  0  0
   19.8540  -10.4607  -15.4707 C   0  0  0  0  0  0  0  0  0  0  0  0
   19.0598   -9.2954  -15.9030 C   0  0  0  0  0  0  0  0  0  0  0  0
   19.6085   -8.2885  -16.6784 C   0  0  0  0  0  0  0  0  0  0  0  0
   18.6686   -7.3609  -16.9251 N   0  0  0  0  0  0  0  0  0  0  0  0
   17.5671   -7.7997  -16.3081 C   0  0  0  0  0  0  0  0  0  0  0  0
   17.7945   -8.9658  -15.6893 N   0  0  0  0  0  0  0  0  0  0  0  0
   22.0410   -9.2632  -15.4872 C   0  0  0  0  0  0  0  0  0  0  0  0
   21.8361   -8.0254  -16.0805 O   0  0  0  0  0  0  0  0  0  0  0  0
   22.9090   -9.2712  -14.5559 O   0  0  0  0  0  0  0  0  0  0  0  0
  2  1  1  0
  3  4  1  0
  3  2  1  0
  4  5  1  0
  5  6  1  1
  7  8  2  0
  7  5  1  0
 10 11  1  0
 10  9  1  0
 11 12  1  0
 13 12  1  6
 13 14  1  0
 14  7  1  0
 15 17  1  0
 15 13  1  0
 16 15  2  0
 18 25  1  0
 18 17  1  0
 18 19  1  1
 19 20  1  0
 20 24  1  0
 20 21  2  0
 21 22  1  0
 23 22  1  0
 24 23  2  0
 25 26  1  0
 27 25  2  0
M  END
$$$$
