MMH.pdb
     RDKit          3D

 27 27  0  0  1  0  0  0  0  0999 V2000
   30.9092  -24.7682  -15.7759 C   0  0  0  0  0  0  0  0  0  0  0  0
   30.6338  -23.7926  -17.2714 S   0  0  0  0  0  0  0  0  0  0  0  0
   29.5552  -22.3930  -16.9977 C   0  0  0  0  0  0  0  0  0  0  0  0
   28.4773  -22.6763  -15.9768 C   0  0  0  0  0  0  0  0  0  0  0  0
   27.5588  -21.4915  -15.7767 C   0  0  2  0  0  0  0  0  0  0  0  0
   28.3049  -20.2806  -15.4885 N   0  0  0  0  0  0  0  0  0  0  0  0
   26.5724  -21.6904  -14.7090 C   0  0  0  0  0  0  0  0  0  0  0  0
   25.6060  -22.4801  -14.8526 O   0  0  0  0  0  0  0  0  0  0  0  0
   27.4189  -20.9200   -7.8799 C   0  0  0  0  0  0  0  0  0  0  0  0
   25.9350  -20.0415   -8.4147 S   0  0  0  0  0  0  0  0  0  0  0  0
   25.2909  -20.7005   -9.9757 C   0  0  0  0  0  0  0  0  0  0  0  0
   26.2889  -20.5184  -11.1011 C   0  0  0  0  0  0  0  0  0  0  0  0
   25.7314  -21.0940  -12.4066 C   0  0  2  0  0  0  0  0  0  0  0  0
   26.6892  -20.9847  -13.4707 N   0  0  0  0  0  0  0  0  0  0  0  0
   24.4348  -20.4465  -12.7228 C   0  0  0  0  0  0  0  0  0  0  0  0
   24.4300  -19.2021  -12.8919 O   0  0  0  0  0  0  0  0  0  0  0  0
   23.2670  -21.2447  -12.8207 N   0  0  0  0  0  0  0  0  0  0  0  0
   22.0362  -20.5644  -13.2576 C   0  0  1  0  0  0  0  0  0  0  0  0
   21.7113  -21.1457  -14.6113 C   0  0  0  0  0  0  0  0  0  0  0  0
   20.4176  -20.6985  -15.1608 C   0  0  0  0  0  0  0  0  0  0  0  0
   19.5938  -19.8296  -14.4663 C   0  0  0  0  0  0  0  0  0  0  0  0
   18.4908  -19.5911  -15.1952 N   0  0  0  0  0  0  0  0  0  0  0  0
   18.6446  -20.3052  -16.3146 C   0  0  0  0  0  0  0  0  0  0  0  0
   19.8041  -20.9760  -16.3018 N   0  0  0  0  0  0  0  0  0  0  0  0
   21.0139  -20.8151  -12.2403 C   0  0  0  0  0  0  0  0  0  0  0  0
   20.9285  -22.0554  -11.6236 O   0  0  0  0  0  0  0  0  0  0  0  0
   20.1531  -19.9635  -11.8472 O   0  0  0  0  0  0  0  0  0  0  0  0
  2  1  1  0
  3  4  1  0
  3  2  1  0
  4  5  1  0
  5  6  1  1
  7  8  2  0
  7  5  1  0
 10 11  1  0
 10  9  1  0
 11 12  1  0
 13 12  1  1
 13 14  1  0
 14  7  1  0
 15 17  1  0
 15 13  1  0
 16 15  2  0
 18 25  1  0
 18 17  1  0
 18 19  1  6
 19 20  1  0
 20 24  1  0
 20 21  2  0
 21 22  1  0
 23 22  1  0
 24 23  2  0
 25 26  1  0
 27 25  2  0
M  END
$$$$
