MMH.pdb
     RDKit          3D

 27 27  0  0  1  0  0  0  0  0999 V2000
   24.7332   -5.7994  -24.7199 C   0  0  0  0  0  0  0  0  0  0  0  0
   25.7742   -6.6143  -25.9514 S   0  0  0  0  0  0  0  0  0  0  0  0
   26.9153   -7.7861  -25.2290 C   0  0  0  0  0  0  0  0  0  0  0  0
   26.3736   -8.4330  -23.9751 C   0  0  0  0  0  0  0  0  0  0  0  0
   27.3742   -9.3754  -23.3441 C   0  0  2  0  0  0  0  0  0  0  0  0
   27.6978  -10.4799  -24.2281 N   0  0  0  0  0  0  0  0  0  0  0  0
   26.9279   -9.9279  -22.0604 C   0  0  0  0  0  0  0  0  0  0  0  0
   26.1858  -10.9402  -22.0086 O   0  0  0  0  0  0  0  0  0  0  0  0
   28.5814  -11.4583  -14.5764 C   0  0  0  0  0  0  0  0  0  0  0  0
   29.0637  -10.6397  -16.1117 S   0  0  0  0  0  0  0  0  0  0  0  0
   27.6595  -10.4535  -17.2428 C   0  0  0  0  0  0  0  0  0  0  0  0
   28.0972   -9.8632  -18.5678 C   0  0  0  0  0  0  0  0  0  0  0  0
   26.9156   -9.8023  -19.5408 C   0  0  2  0  0  0  0  0  0  0  0  0
   27.3307   -9.3225  -20.8290 N   0  0  0  0  0  0  0  0  0  0  0  0
   25.8212   -8.9971  -18.9456 C   0  0  0  0  0  0  0  0  0  0  0  0
   25.8419   -7.7555  -19.1332 O   0  0  0  0  0  0  0  0  0  0  0  0
   24.8082   -9.6495  -18.1982 N   0  0  0  0  0  0  0  0  0  0  0  0
   23.6736   -8.8201  -17.7583 C   0  0  1  0  0  0  0  0  0  0  0  0
   22.5230   -9.7770  -17.5673 C   0  0  0  0  0  0  0  0  0  0  0  0
   21.2949   -9.1424  -17.0528 C   0  0  0  0  0  0  0  0  0  0  0  0
   21.2414   -7.7898  -16.7638 C   0  0  0  0  0  0  0  0  0  0  0  0
   20.0121   -7.4831  -16.3171 N   0  0  0  0  0  0  0  0  0  0  0  0
   19.3313   -8.6332  -16.3355 C   0  0  0  0  0  0  0  0  0  0  0  0
   20.0978   -9.6389  -16.7779 N   0  0  0  0  0  0  0  0  0  0  0  0
   24.0853   -8.1309  -16.5342 C   0  0  0  0  0  0  0  0  0  0  0  0
   23.3597   -7.0456  -16.0634 O   0  0  0  0  0  0  0  0  0  0  0  0
   25.0943   -8.4463  -15.8249 O   0  0  0  0  0  0  0  0  0  0  0  0
  2  1  1  0
  3  4  1  0
  3  2  1  0
  4  5  1  0
  5  6  1  6
  7  8  2  0
  7  5  1  0
 10 11  1  0
 10  9  1  0
 11 12  1  0
 13 12  1  1
 13 14  1  0
 14  7  1  0
 15 17  1  0
 15 13  1  0
 16 15  2  0
 18 25  1  0
 18 17  1  0
 18 19  1  1
 19 20  1  0
 20 24  1  0
 20 21  2  0
 21 22  1  0
 23 22  1  0
 24 23  2  0
 25 26  1  0
 27 25  2  0
M  END
$$$$
