MMH.pdb
     RDKit          3D

 27 27  0  0  1  0  0  0  0  0999 V2000
   28.8746  -21.5345  -20.8115 C   0  0  0  0  0  0  0  0  0  0  0  0
   29.4506  -21.2917  -19.1164 S   0  0  0  0  0  0  0  0  0  0  0  0
   28.8802  -22.5672  -18.0007 C   0  0  0  0  0  0  0  0  0  0  0  0
   27.3776  -22.5734  -17.8387 C   0  0  0  0  0  0  0  0  0  0  0  0
   26.9505  -22.0643  -16.4801 C   0  0  2  0  0  0  0  0  0  0  0  0
   27.5250  -22.8567  -15.4086 N   0  0  0  0  0  0  0  0  0  0  0  0
   25.4949  -22.0309  -16.2994 C   0  0  0  0  0  0  0  0  0  0  0  0
   24.7413  -21.5239  -17.1673 O   0  0  0  0  0  0  0  0  0  0  0  0
   21.9846  -26.8488  -13.7850 C   0  0  0  0  0  0  0  0  0  0  0  0
   20.9788  -25.4448  -13.2587 S   0  0  0  0  0  0  0  0  0  0  0  0
   21.5327  -23.8980  -14.0244 C   0  0  0  0  0  0  0  0  0  0  0  0
   23.0331  -23.8972  -14.2354 C   0  0  0  0  0  0  0  0  0  0  0  0
   23.4792  -22.5845  -14.8870 C   0  0  2  0  0  0  0  0  0  0  0  0
   24.8957  -22.5793  -15.1223 N   0  0  0  0  0  0  0  0  0  0  0  0
   23.0226  -21.4389  -14.0628 C   0  0  0  0  0  0  0  0  0  0  0  0
   23.7974  -21.0181  -13.1685 O   0  0  0  0  0  0  0  0  0  0  0  0
   21.7476  -20.8706  -14.3116 N   0  0  0  0  0  0  0  0  0  0  0  0
   21.6593  -19.4012  -14.2684 C   0  0  1  0  0  0  0  0  0  0  0  0
   22.6802  -18.9052  -15.2622 C   0  0  0  0  0  0  0  0  0  0  0  0
   22.6586  -17.4444  -15.4650 C   0  0  0  0  0  0  0  0  0  0  0  0
   21.8347  -16.6187  -14.7196 C   0  0  0  0  0  0  0  0  0  0  0  0
   22.0189  -15.3459  -15.1081 N   0  0  0  0  0  0  0  0  0  0  0  0
   22.9407  -15.4002  -16.0745 C   0  0  0  0  0  0  0  0  0  0  0  0
   23.3317  -16.6622  -16.2958 N   0  0  0  0  0  0  0  0  0  0  0  0
   20.2804  -19.0368  -14.5982 C   0  0  0  0  0  0  0  0  0  0  0  0
   19.6731  -17.9558  -13.9747 O   0  0  0  0  0  0  0  0  0  0  0  0
   19.5481  -19.6457  -15.4431 O   0  0  0  0  0  0  0  0  0  0  0  0
  2  1  1  0
  3  4  1  0
  3  2  1  0
  4  5  1  0
  5  6  1  1
  7  8  2  0
  7  5  1  0
 10 11  1  0
 10  9  1  0
 11 12  1  0
 13 12  1  1
 13 14  1  0
 14  7  1  0
 15 17  1  0
 15 13  1  0
 16 15  2  0
 18 25  1  0
 18 17  1  0
 18 19  1  6
 19 20  1  0
 20 24  1  0
 20 21  2  0
 21 22  1  0
 23 22  1  0
 24 23  2  0
 25 26  1  0
 27 25  2  0
M  END
$$$$
