VNW.pdb
     RDKit          3D

 30 31  0  0  1  0  0  0  0  0999 V2000
    7.7138  -16.9540   25.3998 C   0  0  0  0  0  0  0  0  0  0  0  0
    7.6938  -18.4523   25.5958 C   0  0  1  0  0  0  0  0  0  0  0  0
    6.4655  -18.7574   26.4385 C   0  0  0  0  0  0  0  0  0  0  0  0
    7.5618  -19.0923   24.2335 C   0  0  2  0  0  0  0  0  0  0  0  0
    7.1514  -20.4663   24.3910 N   0  0  0  0  0  0  0  0  0  0  0  0
    8.8197  -18.9846   23.4867 C   0  0  0  0  0  0  0  0  0  0  0  0
    9.7424  -19.8156   23.7806 O   0  0  0  0  0  0  0  0  0  0  0  0
    9.8780  -19.6305   19.0712 N   0  0  0  0  0  0  0  0  0  0  0  0
    9.3448  -18.4981   19.7153 C   0  0  0  0  0  0  0  0  0  0  0  0
    8.1163  -18.2907   19.6992 O   0  0  0  0  0  0  0  0  0  0  0  0
   10.2386  -17.5555   20.4101 C   0  0  0  0  0  0  0  0  0  0  0  0
   10.3289  -17.8849   21.8837 C   0  0  2  0  0  0  0  0  0  0  0  0
    9.0312  -18.0069   22.4744 N   0  0  0  0  0  0  0  0  0  0  0  0
   11.1738  -16.9008   22.6116 C   0  0  0  0  0  0  0  0  0  0  0  0
   10.9857  -15.6932   22.3685 O   0  0  0  0  0  0  0  0  0  0  0  0
   12.1416  -17.3257   23.5330 N   0  0  0  0  0  0  0  0  0  0  0  0
   12.9871  -16.5503   24.3690 C   0  0  1  0  0  0  0  0  0  0  0  0
   12.3060  -15.3578   25.0555 C   0  0  0  0  0  0  0  0  0  0  0  0
   11.5887  -15.7292   26.2856 C   0  0  0  0  0  0  0  0  0  0  0  0
   11.4238  -16.9373   26.8942 C   0  0  0  0  0  0  0  0  0  0  0  0
   10.6822  -16.8036   28.0321 N   0  0  0  0  0  0  0  0  0  0  0  0
   10.3543  -15.5155   28.1839 C   0  0  0  0  0  0  0  0  0  0  0  0
    9.6317  -14.8651   29.1525 C   0  0  0  0  0  0  0  0  0  0  0  0
    9.4723  -13.5019   29.0250 C   0  0  0  0  0  0  0  0  0  0  0  0
   10.0003  -12.7870   27.9850 C   0  0  0  0  0  0  0  0  0  0  0  0
   10.7325  -13.4704   27.0100 C   0  0  0  0  0  0  0  0  0  0  0  0
   10.9083  -14.8311   27.1094 C   0  0  0  0  0  0  0  0  0  0  0  0
   13.9067  -17.2757   25.2335 C   0  0  0  0  0  0  0  0  0  0  0  0
   13.7863  -18.5380   25.4078 O   0  0  0  0  0  0  0  0  0  0  0  0
   14.9594  -16.6911   25.9234 O   0  0  0  0  0  0  0  0  0  0  0  0
  2  1  1  6
  3  2  1  0
  4  2  1  0
  4  5  1  1
  6  4  1  0
  7  6  2  0
  8  9  1  0
  9 10  2  0
 11  9  1  0
 12 11  1  6
 12 13  1  0
 13  6  1  0
 14 12  1  0
 14 16  1  0
 15 14  2  0
 17 16  1  0
 17 28  1  0
 17 18  1  1
 19 18  1  0
 20 19  2  0
 21 20  1  0
 22 21  1  0
 22 27  2  0
 23 22  1  0
 24 23  2  0
 24 25  1  0
 25 26  2  0
 26 27  1  0
 27 19  1  0
 28 30  1  0
 29 28  2  0
M  END
$$$$
