VNW.pdb
     RDKit          3D

 30 31  0  0  1  0  0  0  0  0999 V2000
    8.8333  -12.9456   21.4458 C   0  0  0  0  0  0  0  0  0  0  0  0
    7.6012  -13.7197   21.0378 C   0  0  1  0  0  0  0  0  0  0  0  0
    6.9232  -12.9026   19.9495 C   0  0  0  0  0  0  0  0  0  0  0  0
    8.0565  -15.0490   20.4825 C   0  0  2  0  0  0  0  0  0  0  0  0
    6.9750  -15.6508   19.7414 N   0  0  0  0  0  0  0  0  0  0  0  0
    8.5291  -15.9256   21.5595 C   0  0  0  0  0  0  0  0  0  0  0  0
    7.6405  -16.4970   22.2753 O   0  0  0  0  0  0  0  0  0  0  0  0
   12.0668  -18.3858   20.1165 N   0  0  0  0  0  0  0  0  0  0  0  0
   11.3697  -18.6597   21.3083 C   0  0  0  0  0  0  0  0  0  0  0  0
   10.5870  -19.6274   21.3660 O   0  0  0  0  0  0  0  0  0  0  0  0
   11.5644  -17.8025   22.4904 C   0  0  0  0  0  0  0  0  0  0  0  0
   10.2870  -17.0733   22.8438 C   0  0  2  0  0  0  0  0  0  0  0  0
    9.9106  -16.1480   21.8191 N   0  0  0  0  0  0  0  0  0  0  0  0
   10.3864  -16.4118   24.1722 C   0  0  0  0  0  0  0  0  0  0  0  0
   11.0167  -15.3386   24.2324 O   0  0  0  0  0  0  0  0  0  0  0  0
    9.7907  -16.9821   25.3063 N   0  0  0  0  0  0  0  0  0  0  0  0
   10.0886  -16.7726   26.6783 C   0  0  1  0  0  0  0  0  0  0  0  0
    8.9574  -16.1375   27.4995 C   0  0  0  0  0  0  0  0  0  0  0  0
    7.9365  -15.4797   26.6685 C   0  0  0  0  0  0  0  0  0  0  0  0
    6.9969  -15.9986   25.8288 C   0  0  0  0  0  0  0  0  0  0  0  0
    6.2519  -15.0018   25.2684 N   0  0  0  0  0  0  0  0  0  0  0  0
    6.6895  -13.8250   25.7305 C   0  0  0  0  0  0  0  0  0  0  0  0
    6.2806  -12.5383   25.4845 C   0  0  0  0  0  0  0  0  0  0  0  0
    6.9449  -11.5204   26.1347 C   0  0  0  0  0  0  0  0  0  0  0  0
    7.9792  -11.7441   27.0016 C   0  0  0  0  0  0  0  0  0  0  0  0
    8.3787  -13.0628   27.2367 C   0  0  0  0  0  0  0  0  0  0  0  0
    7.7356  -14.1001   26.6021 C   0  0  0  0  0  0  0  0  0  0  0  0
   10.7857  -17.8445   27.3741 C   0  0  0  0  0  0  0  0  0  0  0  0
   11.1805  -17.6949   28.5824 O   0  0  0  0  0  0  0  0  0  0  0  0
   11.0771  -19.0812   26.8160 O   0  0  0  0  0  0  0  0  0  0  0  0
  2  1  1  6
  3  2  1  0
  4  2  1  0
  4  5  1  1
  6  4  1  0
  7  6  2  0
  8  9  1  0
  9 10  2  0
 11  9  1  0
 12 11  1  6
 12 13  1  0
 13  6  1  0
 14 12  1  0
 14 16  1  0
 15 14  2  0
 17 16  1  0
 17 28  1  0
 17 18  1  1
 19 18  1  0
 20 19  2  0
 21 20  1  0
 22 21  1  0
 22 27  2  0
 23 22  1  0
 24 23  2  0
 24 25  1  0
 25 26  2  0
 26 27  1  0
 27 19  1  0
 28 30  1  0
 29 28  2  0
M  END
$$$$
