VNW.pdb
     RDKit          3D

 30 31  0  0  1  0  0  0  0  0999 V2000
    7.7727  -12.1083   19.6532 C   0  0  0  0  0  0  0  0  0  0  0  0
    7.9334  -13.2771   20.5975 C   0  0  1  0  0  0  0  0  0  0  0  0
    6.5314  -13.6678   21.0376 C   0  0  0  0  0  0  0  0  0  0  0  0
    8.5699  -14.4085   19.8244 C   0  0  2  0  0  0  0  0  0  0  0  0
    7.8106  -14.6492   18.6215 N   0  0  0  0  0  0  0  0  0  0  0  0
    8.6658  -15.6137   20.6550 C   0  0  0  0  0  0  0  0  0  0  0  0
    8.2139  -16.6988   20.1581 O   0  0  0  0  0  0  0  0  0  0  0  0
   10.4846  -19.3020   23.3683 N   0  0  0  0  0  0  0  0  0  0  0  0
   11.0053  -18.8772   22.1314 C   0  0  0  0  0  0  0  0  0  0  0  0
   11.7919  -19.6087   21.5002 O   0  0  0  0  0  0  0  0  0  0  0  0
   10.6209  -17.5661   21.5804 C   0  0  0  0  0  0  0  0  0  0  0  0
    9.6968  -16.8332   22.5275 C   0  0  2  0  0  0  0  0  0  0  0  0
    9.2319  -15.6043   21.9607 N   0  0  0  0  0  0  0  0  0  0  0  0
   10.3334  -16.6202   23.8547 C   0  0  0  0  0  0  0  0  0  0  0  0
   11.4754  -16.1216   23.8693 O   0  0  0  0  0  0  0  0  0  0  0  0
    9.6663  -16.9704   25.0373 N   0  0  0  0  0  0  0  0  0  0  0  0
   10.1087  -16.8669   26.3821 C   0  0  1  0  0  0  0  0  0  0  0  0
    9.2150  -16.0173   27.2969 C   0  0  0  0  0  0  0  0  0  0  0  0
    8.0426  -15.4580   26.6052 C   0  0  0  0  0  0  0  0  0  0  0  0
    7.0088  -16.0692   25.9611 C   0  0  0  0  0  0  0  0  0  0  0  0
    6.1345  -15.1428   25.4712 N   0  0  0  0  0  0  0  0  0  0  0  0
    6.5798  -13.9212   25.7861 C   0  0  0  0  0  0  0  0  0  0  0  0
    6.0721  -12.6712   25.5344 C   0  0  0  0  0  0  0  0  0  0  0  0
    6.7789  -11.5863   26.0071 C   0  0  0  0  0  0  0  0  0  0  0  0
    7.9482  -11.7098   26.7064 C   0  0  0  0  0  0  0  0  0  0  0  0
    8.4465  -12.9928   26.9508 C   0  0  0  0  0  0  0  0  0  0  0  0
    7.7639  -14.0951   26.4912 C   0  0  0  0  0  0  0  0  0  0  0  0
   10.6002  -18.0841   27.0114 C   0  0  0  0  0  0  0  0  0  0  0  0
   10.3837  -19.2297   26.4832 O   0  0  0  0  0  0  0  0  0  0  0  0
   11.3214  -18.1171   28.1966 O   0  0  0  0  0  0  0  0  0  0  0  0
  2  1  1  6
  3  2  1  0
  4  2  1  0
  4  5  1  6
  6  4  1  0
  7  6  2  0
  8  9  1  0
  9 10  2  0
 11  9  1  0
 12 11  1  6
 12 13  1  0
 13  6  1  0
 14 12  1  0
 14 16  1  0
 15 14  2  0
 17 16  1  0
 17 28  1  0
 17 18  1  1
 19 18  1  0
 20 19  2  0
 21 20  1  0
 22 21  1  0
 22 27  2  0
 23 22  1  0
 24 23  2  0
 24 25  1  0
 25 26  2  0
 26 27  1  0
 27 19  1  0
 28 30  1  0
 29 28  2  0
M  END
$$$$
