VNW.pdb
     RDKit          3D

 30 31  0  0  1  0  0  0  0  0999 V2000
    8.1175  -12.8824   21.5246 C   0  0  0  0  0  0  0  0  0  0  0  0
    7.4412  -13.2282   20.2181 C   0  0  1  0  0  0  0  0  0  0  0  0
    7.6147  -12.0188   19.3131 C   0  0  0  0  0  0  0  0  0  0  0  0
    8.1568  -14.4229   19.6323 C   0  0  2  0  0  0  0  0  0  0  0  0
    7.7029  -14.6331   18.2791 N   0  0  0  0  0  0  0  0  0  0  0  0
    7.9469  -15.6120   20.4652 C   0  0  0  0  0  0  0  0  0  0  0  0
    6.9267  -16.3322   20.2024 O   0  0  0  0  0  0  0  0  0  0  0  0
   10.6981  -20.4037   21.7268 N   0  0  0  0  0  0  0  0  0  0  0  0
    9.5430  -19.6266   21.5182 C   0  0  0  0  0  0  0  0  0  0  0  0
    8.4143  -20.1293   21.6787 O   0  0  0  0  0  0  0  0  0  0  0  0
    9.6664  -18.2166   21.1097 C   0  0  0  0  0  0  0  0  0  0  0  0
    8.8301  -17.3227   21.9982 C   0  0  2  0  0  0  0  0  0  0  0  0
    8.8242  -15.9717   21.5264 N   0  0  0  0  0  0  0  0  0  0  0  0
    9.2629  -17.4069   23.4187 C   0  0  0  0  0  0  0  0  0  0  0  0
    9.1997  -18.5217   23.9720 O   0  0  0  0  0  0  0  0  0  0  0  0
    9.7222  -16.2704   24.0995 N   0  0  0  0  0  0  0  0  0  0  0  0
   10.2086  -16.1551   25.4281 C   0  0  1  0  0  0  0  0  0  0  0  0
    9.1296  -16.1833   26.5201 C   0  0  0  0  0  0  0  0  0  0  0  0
    7.9215  -15.4235   26.1611 C   0  0  0  0  0  0  0  0  0  0  0  0
    6.7093  -15.8386   25.6971 C   0  0  0  0  0  0  0  0  0  0  0  0
    5.8780  -14.7729   25.5073 N   0  0  0  0  0  0  0  0  0  0  0  0
    6.5292  -13.6535   25.8429 C   0  0  0  0  0  0  0  0  0  0  0  0
    6.1435  -12.3364   25.8382 C   0  0  0  0  0  0  0  0  0  0  0  0
    7.0634  -11.3987   26.2559 C   0  0  0  0  0  0  0  0  0  0  0  0
    8.3253  -11.7292   26.6681 C   0  0  0  0  0  0  0  0  0  0  0  0
    8.6963  -13.0769   26.6642 C   0  0  0  0  0  0  0  0  0  0  0  0
    7.8004  -14.0360   26.2521 C   0  0  0  0  0  0  0  0  0  0  0  0
   11.4005  -16.9204   25.7639 C   0  0  0  0  0  0  0  0  0  0  0  0
   11.8786  -16.9034   26.9511 O   0  0  0  0  0  0  0  0  0  0  0  0
   12.1040  -17.7095   24.8649 O   0  0  0  0  0  0  0  0  0  0  0  0
  2  1  1  1
  3  2  1  0
  4  2  1  0
  4  5  1  6
  6  4  1  0
  7  6  2  0
  8  9  1  0
  9 10  2  0
 11  9  1  0
 12 11  1  6
 12 13  1  0
 13  6  1  0
 14 12  1  0
 14 16  1  0
 15 14  2  0
 17 16  1  0
 17 28  1  0
 17 18  1  1
 19 18  1  0
 20 19  2  0
 21 20  1  0
 22 21  1  0
 22 27  2  0
 23 22  1  0
 24 23  2  0
 24 25  1  0
 25 26  2  0
 26 27  1  0
 27 19  1  0
 28 30  1  0
 29 28  2  0
M  END
$$$$
