VNW.pdb
     RDKit          3D

 30 31  0  0  1  0  0  0  0  0999 V2000
    8.9962  -13.0815   21.0518 C   0  0  0  0  0  0  0  0  0  0  0  0
    7.6964  -13.7321   20.6382 C   0  0  1  0  0  0  0  0  0  0  0  0
    7.0080  -12.7541   19.6993 C   0  0  0  0  0  0  0  0  0  0  0  0
    8.0346  -15.0081   19.9031 C   0  0  2  0  0  0  0  0  0  0  0  0
    6.8418  -15.5299   19.2818 N   0  0  0  0  0  0  0  0  0  0  0  0
    8.6430  -15.9844   20.8133 C   0  0  0  0  0  0  0  0  0  0  0  0
    7.8650  -16.5778   21.6326 O   0  0  0  0  0  0  0  0  0  0  0  0
   10.9465  -19.9095   20.2041 N   0  0  0  0  0  0  0  0  0  0  0  0
   11.5389  -18.6365   20.1038 C   0  0  0  0  0  0  0  0  0  0  0  0
   11.8292  -18.1687   18.9860 O   0  0  0  0  0  0  0  0  0  0  0  0
   11.8168  -17.8543   21.3207 C   0  0  0  0  0  0  0  0  0  0  0  0
   10.5685  -17.1516   21.8067 C   0  0  2  0  0  0  0  0  0  0  0  0
   10.0356  -16.2774   20.8069 N   0  0  0  0  0  0  0  0  0  0  0  0
   10.8088  -16.4378   23.0893 C   0  0  0  0  0  0  0  0  0  0  0  0
   11.7268  -15.5955   23.1132 O   0  0  0  0  0  0  0  0  0  0  0  0
   10.0275  -16.7098   24.2215 N   0  0  0  0  0  0  0  0  0  0  0  0
   10.2134  -16.2861   25.5634 C   0  0  1  0  0  0  0  0  0  0  0  0
    9.8170  -14.8300   25.8463 C   0  0  0  0  0  0  0  0  0  0  0  0
    8.3665  -14.5970   25.7615 C   0  0  0  0  0  0  0  0  0  0  0  0
    7.3508  -15.4166   25.3690 C   0  0  0  0  0  0  0  0  0  0  0  0
    6.1515  -14.7717   25.4616 N   0  0  0  0  0  0  0  0  0  0  0  0
    6.3635  -13.5305   25.9136 C   0  0  0  0  0  0  0  0  0  0  0  0
    5.5015  -12.4968   26.1819 C   0  0  0  0  0  0  0  0  0  0  0  0
    6.0415  -11.3192   26.6529 C   0  0  0  0  0  0  0  0  0  0  0  0
    7.3830  -11.1479   26.8587 C   0  0  0  0  0  0  0  0  0  0  0  0
    8.2421  -12.2144   26.5783 C   0  0  0  0  0  0  0  0  0  0  0  0
    7.7331  -13.4021   26.1065 C   0  0  0  0  0  0  0  0  0  0  0  0
    9.8138  -17.2149   26.6108 C   0  0  0  0  0  0  0  0  0  0  0  0
    9.9839  -16.9245   27.8457 O   0  0  0  0  0  0  0  0  0  0  0  0
    9.2336  -18.4541   26.3794 O   0  0  0  0  0  0  0  0  0  0  0  0
  2  1  1  6
  3  2  1  0
  4  2  1  0
  4  5  1  1
  6  4  1  0
  7  6  2  0
  8  9  1  0
  9 10  2  0
 11  9  1  0
 12 11  1  6
 12 13  1  0
 13  6  1  0
 14 12  1  0
 14 16  1  0
 15 14  2  0
 17 16  1  0
 17 28  1  0
 17 18  1  1
 19 18  1  0
 20 19  2  0
 21 20  1  0
 22 21  1  0
 22 27  2  0
 23 22  1  0
 24 23  2  0
 24 25  1  0
 25 26  2  0
 26 27  1  0
 27 19  1  0
 28 30  1  0
 29 28  2  0
M  END
$$$$
