VNW.pdb
     RDKit          3D

 30 31  0  0  1  0  0  0  0  0999 V2000
    8.8085  -12.8033   21.1539 C   0  0  0  0  0  0  0  0  0  0  0  0
    7.7888  -13.5216   20.3006 C   0  0  1  0  0  0  0  0  0  0  0  0
    7.3021  -12.5113   19.2738 C   0  0  0  0  0  0  0  0  0  0  0  0
    8.4921  -14.6669   19.6103 C   0  0  2  0  0  0  0  0  0  0  0  0
    7.6281  -15.2109   18.5911 N   0  0  0  0  0  0  0  0  0  0  0  0
    8.8939  -15.6892   20.5824 C   0  0  0  0  0  0  0  0  0  0  0  0
    7.9651  -16.3928   21.1026 O   0  0  0  0  0  0  0  0  0  0  0  0
   12.2481  -18.0350   19.1576 N   0  0  0  0  0  0  0  0  0  0  0  0
   11.6408  -18.4493   20.3581 C   0  0  0  0  0  0  0  0  0  0  0  0
   10.9508  -19.4864   20.3838 O   0  0  0  0  0  0  0  0  0  0  0  0
   11.8202  -17.6571   21.5871 C   0  0  0  0  0  0  0  0  0  0  0  0
   10.5546  -16.9041   21.9326 C   0  0  2  0  0  0  0  0  0  0  0  0
   10.2512  -15.9094   20.9496 N   0  0  0  0  0  0  0  0  0  0  0  0
   10.6220  -16.3228   23.3000 C   0  0  0  0  0  0  0  0  0  0  0  0
   11.4646  -15.4271   23.5012 O   0  0  0  0  0  0  0  0  0  0  0  0
    9.7666  -16.7725   24.3160 N   0  0  0  0  0  0  0  0  0  0  0  0
    9.8481  -16.5613   25.7173 C   0  0  1  0  0  0  0  0  0  0  0  0
    8.4973  -16.4117   26.4318 C   0  0  0  0  0  0  0  0  0  0  0  0
    7.5901  -15.4648   25.7642 C   0  0  0  0  0  0  0  0  0  0  0  0
    6.7332  -15.6339   24.7181 C   0  0  0  0  0  0  0  0  0  0  0  0
    6.0799  -14.4683   24.4402 N   0  0  0  0  0  0  0  0  0  0  0  0
    6.4961  -13.5269   25.2948 C   0  0  0  0  0  0  0  0  0  0  0  0
    6.1505  -12.2064   25.4380 C   0  0  0  0  0  0  0  0  0  0  0  0
    6.7674  -11.4885   26.4401 C   0  0  0  0  0  0  0  0  0  0  0  0
    7.6957  -12.0366   27.2822 C   0  0  0  0  0  0  0  0  0  0  0  0
    8.0324  -13.3833   27.1176 C   0  0  0  0  0  0  0  0  0  0  0  0
    7.4342  -14.1258   26.1260 C   0  0  0  0  0  0  0  0  0  0  0  0
   10.8121  -17.3676   26.4519 C   0  0  0  0  0  0  0  0  0  0  0  0
   11.0130  -17.1745   27.7012 O   0  0  0  0  0  0  0  0  0  0  0  0
   11.5748  -18.3819   25.8903 O   0  0  0  0  0  0  0  0  0  0  0  0
  2  1  1  1
  3  2  1  0
  4  2  1  0
  4  5  1  6
  6  4  1  0
  7  6  2  0
  8  9  1  0
  9 10  2  0
 11  9  1  0
 12 11  1  6
 12 13  1  0
 13  6  1  0
 14 12  1  0
 14 16  1  0
 15 14  2  0
 17 16  1  0
 17 28  1  0
 17 18  1  1
 19 18  1  0
 20 19  2  0
 21 20  1  0
 22 21  1  0
 22 27  2  0
 23 22  1  0
 24 23  2  0
 24 25  1  0
 25 26  2  0
 26 27  1  0
 27 19  1  0
 28 30  1  0
 29 28  2  0
M  END
$$$$
