VNW.pdb
     RDKit          3D

 30 31  0  0  1  0  0  0  0  0999 V2000
    7.4336  -12.9278   20.4740 C   0  0  0  0  0  0  0  0  0  0  0  0
    7.8206  -13.8360   19.3298 C   0  0  1  0  0  0  0  0  0  0  0  0
    7.8924  -12.9571   18.0911 C   0  0  0  0  0  0  0  0  0  0  0  0
    9.1834  -14.4102   19.6395 C   0  0  2  0  0  0  0  0  0  0  0  0
    9.7250  -15.0191   18.4492 N   0  0  0  0  0  0  0  0  0  0  0  0
    9.1025  -15.3667   20.7487 C   0  0  0  0  0  0  0  0  0  0  0  0
    8.4629  -14.9965   21.7891 O   0  0  0  0  0  0  0  0  0  0  0  0
   10.4900  -19.6311   19.2021 N   0  0  0  0  0  0  0  0  0  0  0  0
    9.6521  -19.4239   20.3140 C   0  0  0  0  0  0  0  0  0  0  0  0
    8.4403  -19.7051   20.2444 O   0  0  0  0  0  0  0  0  0  0  0  0
   10.2066  -18.8740   21.5632 C   0  0  0  0  0  0  0  0  0  0  0  0
    9.6355  -17.5027   21.8488 C   0  0  2  0  0  0  0  0  0  0  0  0
    9.7009  -16.6568   20.6964 N   0  0  0  0  0  0  0  0  0  0  0  0
   10.2880  -16.8752   23.0289 C   0  0  0  0  0  0  0  0  0  0  0  0
   11.1642  -16.0166   22.8103 O   0  0  0  0  0  0  0  0  0  0  0  0
    9.9243  -17.2428   24.3323 N   0  0  0  0  0  0  0  0  0  0  0  0
   10.1128  -16.5376   25.5497 C   0  0  1  0  0  0  0  0  0  0  0  0
    9.7337  -15.0504   25.5048 C   0  0  0  0  0  0  0  0  0  0  0  0
    8.2923  -14.8138   25.6832 C   0  0  0  0  0  0  0  0  0  0  0  0
    7.2186  -15.6206   25.4521 C   0  0  0  0  0  0  0  0  0  0  0  0
    6.0581  -14.9777   25.7726 N   0  0  0  0  0  0  0  0  0  0  0  0
    6.3536  -13.7505   26.2157 C   0  0  0  0  0  0  0  0  0  0  0  0
    5.5585  -12.7243   26.6610 C   0  0  0  0  0  0  0  0  0  0  0  0
    6.1799  -11.5615   27.0632 C   0  0  0  0  0  0  0  0  0  0  0  0
    7.5377  -11.3974   27.0348 C   0  0  0  0  0  0  0  0  0  0  0  0
    8.3277  -12.4560   26.5772 C   0  0  0  0  0  0  0  0  0  0  0  0
    7.7366  -13.6289   26.1684 C   0  0  0  0  0  0  0  0  0  0  0  0
    9.6998  -17.2096   26.7732 C   0  0  0  0  0  0  0  0  0  0  0  0
   10.0277  -16.7453   27.9200 O   0  0  0  0  0  0  0  0  0  0  0  0
    8.9416  -18.3714   26.8113 O   0  0  0  0  0  0  0  0  0  0  0  0
  2  1  1  1
  3  2  1  0
  4  2  1  0
  4  5  1  6
  6  4  1  0
  7  6  2  0
  8  9  1  0
  9 10  2  0
 11  9  1  0
 12 11  1  6
 12 13  1  0
 13  6  1  0
 14 12  1  0
 14 16  1  0
 15 14  2  0
 17 16  1  0
 17 28  1  0
 17 18  1  6
 19 18  1  0
 20 19  2  0
 21 20  1  0
 22 21  1  0
 22 27  2  0
 23 22  1  0
 24 23  2  0
 24 25  1  0
 25 26  2  0
 26 27  1  0
 27 19  1  0
 28 30  1  0
 29 28  2  0
M  END
$$$$
