VNW.pdb
     RDKit          3D

 30 31  0  0  1  0  0  0  0  0999 V2000
    8.5758  -12.4689   18.8114 C   0  0  0  0  0  0  0  0  0  0  0  0
    8.7396  -13.4348   19.9620 C   0  0  1  0  0  0  0  0  0  0  0  0
    7.5883  -13.1620   20.9171 C   0  0  0  0  0  0  0  0  0  0  0  0
    8.6325  -14.8353   19.4052 C   0  0  2  0  0  0  0  0  0  0  0  0
    7.4028  -14.9589   18.6611 N   0  0  0  0  0  0  0  0  0  0  0  0
    8.7166  -15.8283   20.4816 C   0  0  0  0  0  0  0  0  0  0  0  0
    7.6154  -16.2705   20.9511 O   0  0  0  0  0  0  0  0  0  0  0  0
   13.1308  -18.6489   22.0781 N   0  0  0  0  0  0  0  0  0  0  0  0
   12.0558  -18.2359   21.2686 C   0  0  0  0  0  0  0  0  0  0  0  0
   12.2735  -17.6283   20.2029 O   0  0  0  0  0  0  0  0  0  0  0  0
   10.6704  -18.5216   21.6800 C   0  0  0  0  0  0  0  0  0  0  0  0
    9.9500  -17.2493   22.0679 C   0  0  2  0  0  0  0  0  0  0  0  0
    9.9565  -16.2965   21.0001 N   0  0  0  0  0  0  0  0  0  0  0  0
   10.5006  -16.6718   23.3231 C   0  0  0  0  0  0  0  0  0  0  0  0
   11.4641  -15.8885   23.2193 O   0  0  0  0  0  0  0  0  0  0  0  0
    9.9499  -17.0027   24.5694 N   0  0  0  0  0  0  0  0  0  0  0  0
   10.2910  -16.5175   25.8591 C   0  0  1  0  0  0  0  0  0  0  0  0
    9.8429  -15.0784   26.1517 C   0  0  0  0  0  0  0  0  0  0  0  0
    8.3851  -14.8964   26.0663 C   0  0  0  0  0  0  0  0  0  0  0  0
    7.3800  -15.8001   25.8922 C   0  0  0  0  0  0  0  0  0  0  0  0
    6.1678  -15.1731   25.8833 N   0  0  0  0  0  0  0  0  0  0  0  0
    6.3607  -13.8599   26.0512 C   0  0  0  0  0  0  0  0  0  0  0  0
    5.4807  -12.8090   26.1194 C   0  0  0  0  0  0  0  0  0  0  0  0
    6.0035  -11.5477   26.3087 C   0  0  0  0  0  0  0  0  0  0  0  0
    7.3455  -11.3110   26.4292 C   0  0  0  0  0  0  0  0  0  0  0  0
    8.2232  -12.3965   26.3563 C   0  0  0  0  0  0  0  0  0  0  0  0
    7.7315  -13.6673   26.1672 C   0  0  0  0  0  0  0  0  0  0  0  0
   10.1015  -17.4281   26.9789 C   0  0  0  0  0  0  0  0  0  0  0  0
    9.4749  -18.5338   26.8272 O   0  0  0  0  0  0  0  0  0  0  0  0
   10.5636  -17.1935   28.2663 O   0  0  0  0  0  0  0  0  0  0  0  0
  2  1  1  6
  3  2  1  0
  4  2  1  0
  4  5  1  1
  6  4  1  0
  7  6  2  0
  8  9  1  0
  9 10  2  0
 11  9  1  0
 12 11  1  6
 12 13  1  0
 13  6  1  0
 14 12  1  0
 14 16  1  0
 15 14  2  0
 17 16  1  0
 17 28  1  0
 17 18  1  1
 19 18  1  0
 20 19  2  0
 21 20  1  0
 22 21  1  0
 22 27  2  0
 23 22  1  0
 24 23  2  0
 24 25  1  0
 25 26  2  0
 26 27  1  0
 27 19  1  0
 28 30  1  0
 29 28  2  0
M  END
$$$$
