VNW.pdb
     RDKit          3D

 30 31  0  0  1  0  0  0  0  0999 V2000
    9.0152  -13.0692   20.7224 C   0  0  0  0  0  0  0  0  0  0  0  0
    8.1553  -13.4490   19.5391 C   0  0  1  0  0  0  0  0  0  0  0  0
    8.2451  -12.2926   18.5560 C   0  0  0  0  0  0  0  0  0  0  0  0
    8.7425  -14.6991   18.9265 C   0  0  2  0  0  0  0  0  0  0  0  0
    7.9936  -15.0464   17.7435 N   0  0  0  0  0  0  0  0  0  0  0  0
    8.7564  -15.7958   19.9006 C   0  0  0  0  0  0  0  0  0  0  0  0
    8.0346  -16.8149   19.6379 O   0  0  0  0  0  0  0  0  0  0  0  0
   12.5517  -18.3969   21.3550 N   0  0  0  0  0  0  0  0  0  0  0  0
   11.4279  -17.8828   20.6811 C   0  0  0  0  0  0  0  0  0  0  0  0
   11.5746  -17.2243   19.6336 O   0  0  0  0  0  0  0  0  0  0  0  0
   10.0752  -18.1225   21.2132 C   0  0  0  0  0  0  0  0  0  0  0  0
    9.5603  -16.9034   21.9460 C   0  0  2  0  0  0  0  0  0  0  0  0
    9.5298  -15.7536   21.0945 N   0  0  0  0  0  0  0  0  0  0  0  0
   10.3357  -16.6464   23.1889 C   0  0  0  0  0  0  0  0  0  0  0  0
   11.5523  -16.4060   23.0662 O   0  0  0  0  0  0  0  0  0  0  0  0
    9.7127  -16.6761   24.4447 N   0  0  0  0  0  0  0  0  0  0  0  0
   10.2644  -16.4188   25.7270 C   0  0  1  0  0  0  0  0  0  0  0  0
    9.8209  -15.0981   26.3725 C   0  0  0  0  0  0  0  0  0  0  0  0
    8.3696  -14.8701   26.2876 C   0  0  0  0  0  0  0  0  0  0  0  0
    7.3379  -15.7390   26.0932 C   0  0  0  0  0  0  0  0  0  0  0  0
    6.1454  -15.0752   26.0943 N   0  0  0  0  0  0  0  0  0  0  0  0
    6.3778  -13.7721   26.2891 C   0  0  0  0  0  0  0  0  0  0  0  0
    5.5300  -12.6965   26.3766 C   0  0  0  0  0  0  0  0  0  0  0  0
    6.0905  -11.4558   26.5925 C   0  0  0  0  0  0  0  0  0  0  0  0
    7.4388  -11.2626   26.7205 C   0  0  0  0  0  0  0  0  0  0  0  0
    8.2831  -12.3727   26.6277 C   0  0  0  0  0  0  0  0  0  0  0  0
    7.7535  -13.6238   26.4120 C   0  0  0  0  0  0  0  0  0  0  0  0
   10.3190  -17.5358   26.6590 C   0  0  0  0  0  0  0  0  0  0  0  0
   11.0099  -17.4608   27.7338 O   0  0  0  0  0  0  0  0  0  0  0  0
    9.6538  -18.7402   26.4781 O   0  0  0  0  0  0  0  0  0  0  0  0
  2  1  1  1
  3  2  1  0
  4  2  1  0
  4  5  1  6
  6  4  1  0
  7  6  2  0
  8  9  1  0
  9 10  2  0
 11  9  1  0
 12 11  1  6
 12 13  1  0
 13  6  1  0
 14 12  1  0
 14 16  1  0
 15 14  2  0
 17 16  1  0
 17 28  1  0
 17 18  1  1
 19 18  1  0
 20 19  2  0
 21 20  1  0
 22 21  1  0
 22 27  2  0
 23 22  1  0
 24 23  2  0
 24 25  1  0
 25 26  2  0
 26 27  1  0
 27 19  1  0
 28 30  1  0
 29 28  2  0
M  END
$$$$
