SAT.pdb
     RDKit          3D

 19 18  0  0  1  0  0  0  0  0999 V2000
   13.8594  -12.0909  -14.2330 O   0  0  0  0  0  0  0  0  0  0  0  0
   15.0534  -11.3738  -14.3355 C   0  0  0  0  0  0  0  0  0  0  0  0
   15.8693  -12.0307  -15.4346 C   0  0  2  0  0  0  0  0  0  0  0  0
   16.2552  -13.3334  -14.9684 N   0  0  0  0  0  0  0  0  0  0  0  0
   17.0779  -11.1610  -15.6670 C   0  0  0  0  0  0  0  0  0  0  0  0
   18.1526  -11.4225  -15.0683 O   0  0  0  0  0  0  0  0  0  0  0  0
   17.9158   -8.5338  -18.1444 C   0  0  0  0  0  0  0  0  0  0  0  0
   18.1779   -9.3011  -16.8429 C   0  0  2  0  0  0  0  0  0  0  0  0
   16.9982  -10.0585  -16.5544 N   0  0  0  0  0  0  0  0  0  0  0  0
   18.5204   -8.3351  -15.7733 C   0  0  0  0  0  0  0  0  0  0  0  0
   17.6594   -7.9197  -14.9488 O   0  0  0  0  0  0  0  0  0  0  0  0
   22.1365   -5.9683  -13.3331 C   0  0  0  0  0  0  0  0  0  0  0  0
   21.7173   -6.8606  -14.4508 C   0  0  1  0  0  0  0  0  0  0  0  0
   22.1902   -8.1508  -14.1980 O   0  0  0  0  0  0  0  0  0  0  0  0
   20.2175   -6.9432  -14.6145 C   0  0  2  0  0  0  0  0  0  0  0  0
   19.8364   -7.8600  -15.6621 N   0  0  0  0  0  0  0  0  0  0  0  0
   19.6664   -5.5939  -14.8885 C   0  0  0  0  0  0  0  0  0  0  0  0
   19.0557   -4.8454  -13.9111 O   0  0  0  0  0  0  0  0  0  0  0  0
   19.7677   -5.1348  -16.0518 O   0  0  0  0  0  0  0  0  0  0  0  0
  2  1  1  0
  3  2  1  0
  3  4  1  1
  5  6  2  0
  5  3  1  0
  8  7  1  6
  8  9  1  0
  9  5  1  0
 10  8  1  0
 10 11  2  0
 13 12  1  1
 13 14  1  0
 15 16  1  6
 15 13  1  0
 16 10  1  0
 17 15  1  0
 18 17  1  0
 19 17  2  0
M  END
$$$$
