SAT.pdb
     RDKit          3D

 19 18  0  0  1  0  0  0  0  0999 V2000
   17.2328  -12.0134  -18.5935 O   0  0  0  0  0  0  0  0  0  0  0  0
   18.1160  -12.6884  -17.7480 C   0  0  0  0  0  0  0  0  0  0  0  0
   19.4577  -11.9870  -17.8612 C   0  0  2  0  0  0  0  0  0  0  0  0
   20.4102  -12.7482  -17.1018 N   0  0  0  0  0  0  0  0  0  0  0  0
   19.2847  -10.6068  -17.2813 C   0  0  0  0  0  0  0  0  0  0  0  0
   18.9190   -9.6634  -18.0283 O   0  0  0  0  0  0  0  0  0  0  0  0
   18.4406   -9.2483  -14.1101 C   0  0  0  0  0  0  0  0  0  0  0  0
   19.3171   -9.0755  -15.3563 C   0  0  2  0  0  0  0  0  0  0  0  0
   19.5336  -10.3798  -15.9045 N   0  0  0  0  0  0  0  0  0  0  0  0
   20.5750   -8.3943  -14.9713 C   0  0  0  0  0  0  0  0  0  0  0  0
   21.5615   -9.0289  -14.5047 O   0  0  0  0  0  0  0  0  0  0  0  0
   22.8875   -6.6552  -17.1668 C   0  0  0  0  0  0  0  0  0  0  0  0
   22.4824   -5.6699  -16.1246 C   0  0  1  0  0  0  0  0  0  0  0  0
   21.4860   -4.8433  -16.6500 O   0  0  0  0  0  0  0  0  0  0  0  0
   21.9323   -6.3184  -14.8757 C   0  0  2  0  0  0  0  0  0  0  0  0
   20.6866   -7.0036  -15.1246 N   0  0  0  0  0  0  0  0  0  0  0  0
   21.7525   -5.2968  -13.8158 C   0  0  0  0  0  0  0  0  0  0  0  0
   20.5070   -4.9044  -13.3876 O   0  0  0  0  0  0  0  0  0  0  0  0
   22.7768   -4.7841  -13.3037 O   0  0  0  0  0  0  0  0  0  0  0  0
  2  1  1  0
  3  2  1  0
  3  4  1  1
  5  6  2  0
  5  3  1  0
  8  7  1  1
  8  9  1  0
  9  5  1  0
 10  8  1  0
 10 11  2  0
 13 12  1  6
 13 14  1  0
 15 16  1  6
 15 13  1  0
 16 10  1  0
 17 15  1  0
 18 17  1  0
 19 17  2  0
M  END
$$$$
