SAT.pdb
     RDKit          3D

 19 18  0  0  1  0  0  0  0  0999 V2000
   20.0680   -9.0370  -18.9570 O   0  0  0  0  0  0  0  0  0  0  0  0
   20.8805  -10.1553  -19.1566 C   0  0  0  0  0  0  0  0  0  0  0  0
   20.5407  -11.1486  -18.0598 C   0  0  2  0  0  0  0  0  0  0  0  0
   19.2025  -11.6143  -18.2960 N   0  0  0  0  0  0  0  0  0  0  0  0
   20.6311  -10.4083  -16.7503 C   0  0  0  0  0  0  0  0  0  0  0  0
   19.5865   -9.9354  -16.2337 O   0  0  0  0  0  0  0  0  0  0  0  0
   23.3110   -9.7928  -14.2517 C   0  0  0  0  0  0  0  0  0  0  0  0
   21.9748   -9.4547  -14.9236 C   0  0  2  0  0  0  0  0  0  0  0  0
   21.8860  -10.2494  -16.1106 N   0  0  0  0  0  0  0  0  0  0  0  0
   21.9264   -7.9996  -15.1973 C   0  0  0  0  0  0  0  0  0  0  0  0
   22.3843   -7.5061  -16.2653 O   0  0  0  0  0  0  0  0  0  0  0  0
   19.7612   -3.7106  -14.4236 C   0  0  0  0  0  0  0  0  0  0  0  0
   19.8740   -5.1837  -14.2273 C   0  0  1  0  0  0  0  0  0  0  0  0
   18.9982   -5.8232  -15.1083 O   0  0  0  0  0  0  0  0  0  0  0  0
   21.2637   -5.7137  -14.4930 C   0  0  2  0  0  0  0  0  0  0  0  0
   21.3578   -7.1334  -14.2506 N   0  0  0  0  0  0  0  0  0  0  0  0
   22.2484   -4.9846  -13.6574 C   0  0  0  0  0  0  0  0  0  0  0  0
   22.9429   -3.8982  -14.1328 O   0  0  0  0  0  0  0  0  0  0  0  0
   22.4430   -5.3826  -12.4834 O   0  0  0  0  0  0  0  0  0  0  0  0
  2  1  1  0
  3  2  1  0
  3  4  1  6
  5  6  2  0
  5  3  1  0
  8  7  1  6
  8  9  1  0
  9  5  1  0
 10  8  1  0
 10 11  2  0
 13 12  1  6
 13 14  1  0
 15 16  1  1
 15 13  1  0
 16 10  1  0
 17 15  1  0
 18 17  1  0
 19 17  2  0
M  END
$$$$
