SAT.pdb
     RDKit          3D

 19 18  0  0  1  0  0  0  0  0999 V2000
   19.5229   -9.6361  -20.8601 O   0  0  0  0  0  0  0  0  0  0  0  0
   19.5661   -8.8994  -19.6744 C   0  0  0  0  0  0  0  0  0  0  0  0
   19.4792   -9.8961  -18.5325 C   0  0  2  0  0  0  0  0  0  0  0  0
   18.1194  -10.3532  -18.4586 N   0  0  0  0  0  0  0  0  0  0  0  0
   19.8709   -9.1628  -17.2755 C   0  0  0  0  0  0  0  0  0  0  0  0
   19.0469   -8.3837  -16.7316 O   0  0  0  0  0  0  0  0  0  0  0  0
   22.7633   -9.3188  -14.9491 C   0  0  0  0  0  0  0  0  0  0  0  0
   21.5295   -8.6260  -15.5398 C   0  0  2  0  0  0  0  0  0  0  0  0
   21.1589   -9.3535  -16.7154 N   0  0  0  0  0  0  0  0  0  0  0  0
   21.8580   -7.2084  -15.8171 C   0  0  0  0  0  0  0  0  0  0  0  0
   22.5487   -6.8669  -16.8172 O   0  0  0  0  0  0  0  0  0  0  0  0
   19.5112   -4.5129  -16.5702 C   0  0  0  0  0  0  0  0  0  0  0  0
   20.3119   -4.0540  -15.3999 C   0  0  1  0  0  0  0  0  0  0  0  0
   19.5598   -4.2443  -14.2379 O   0  0  0  0  0  0  0  0  0  0  0  0
   21.6112   -4.8078  -15.2367 C   0  0  2  0  0  0  0  0  0  0  0  0
   21.3944   -6.2059  -14.9511 N   0  0  0  0  0  0  0  0  0  0  0  0
   22.4226   -4.1850  -14.1628 C   0  0  0  0  0  0  0  0  0  0  0  0
   22.9922   -2.9429  -14.3090 O   0  0  0  0  0  0  0  0  0  0  0  0
   22.5855   -4.8226  -13.0944 O   0  0  0  0  0  0  0  0  0  0  0  0
  2  1  1  0
  3  2  1  0
  3  4  1  1
  5  6  2  0
  5  3  1  0
  8  7  1  6
  8  9  1  0
  9  5  1  0
 10  8  1  0
 10 11  2  0
 13 12  1  6
 13 14  1  0
 15 16  1  1
 15 13  1  0
 16 10  1  0
 17 15  1  0
 18 17  1  0
 19 17  2  0
M  END
$$$$
