SAT.pdb
     RDKit          3D

 19 18  0  0  1  0  0  0  0  0999 V2000
   18.9868  -11.8506  -14.7699 O   0  0  0  0  0  0  0  0  0  0  0  0
   18.1992  -10.7671  -14.3745 C   0  0  0  0  0  0  0  0  0  0  0  0
   16.9743  -11.3408  -13.6850 C   0  0  2  0  0  0  0  0  0  0  0  0
   16.1553  -11.9522  -14.6943 N   0  0  0  0  0  0  0  0  0  0  0  0
   16.2552  -10.1886  -13.0317 C   0  0  0  0  0  0  0  0  0  0  0  0
   15.7055   -9.3151  -13.7504 O   0  0  0  0  0  0  0  0  0  0  0  0
   14.7852   -9.6736   -9.7451 C   0  0  0  0  0  0  0  0  0  0  0  0
   15.4084   -9.0715  -11.0102 C   0  0  2  0  0  0  0  0  0  0  0  0
   16.2021  -10.0956  -11.6183 N   0  0  0  0  0  0  0  0  0  0  0  0
   16.1968   -7.8741  -10.6374 C   0  0  0  0  0  0  0  0  0  0  0  0
   17.4468   -7.9245  -10.4679 O   0  0  0  0  0  0  0  0  0  0  0  0
   16.2366   -2.9291  -10.2642 C   0  0  0  0  0  0  0  0  0  0  0  0
   15.4883   -4.1927  -10.5186 C   0  0  1  0  0  0  0  0  0  0  0  0
   15.1411   -4.2454  -11.8709 O   0  0  0  0  0  0  0  0  0  0  0  0
   16.2907   -5.4327  -10.1999 C   0  0  2  0  0  0  0  0  0  0  0  0
   15.5479   -6.6416  -10.4644 N   0  0  0  0  0  0  0  0  0  0  0  0
   16.7273   -5.3989   -8.7829 C   0  0  0  0  0  0  0  0  0  0  0  0
   17.9535   -4.9020   -8.4113 O   0  0  0  0  0  0  0  0  0  0  0  0
   15.9436   -5.8405   -7.9082 O   0  0  0  0  0  0  0  0  0  0  0  0
  2  1  1  0
  3  2  1  0
  3  4  1  6
  5  6  2  0
  5  3  1  0
  8  7  1  1
  8  9  1  0
  9  5  1  0
 10  8  1  0
 10 11  2  0
 13 12  1  6
 13 14  1  0
 15 16  1  1
 15 13  1  0
 16 10  1  0
 17 15  1  0
 18 17  1  0
 19 17  2  0
M  END
$$$$
