SAT.pdb
     RDKit          3D

 19 18  0  0  1  0  0  0  0  0999 V2000
   17.4623   -8.9974  -12.6447 O   0  0  0  0  0  0  0  0  0  0  0  0
   17.8747   -9.5473  -11.4289 C   0  0  0  0  0  0  0  0  0  0  0  0
   16.6264  -10.0504  -10.7265 C   0  0  2  0  0  0  0  0  0  0  0  0
   15.9357  -10.9186  -11.6390 N   0  0  0  0  0  0  0  0  0  0  0  0
   15.7896   -8.8420  -10.3937 C   0  0  0  0  0  0  0  0  0  0  0  0
   14.8175   -8.5402  -11.1324 O   0  0  0  0  0  0  0  0  0  0  0  0
   15.3037   -6.7195   -7.4465 C   0  0  0  0  0  0  0  0  0  0  0  0
   15.3178   -6.8920   -8.9701 C   0  0  2  0  0  0  0  0  0  0  0  0
   16.1006   -8.0556   -9.2562 N   0  0  0  0  0  0  0  0  0  0  0  0
   15.8627   -5.6620   -9.5904 C   0  0  0  0  0  0  0  0  0  0  0  0
   17.1046   -5.4625   -9.6970 O   0  0  0  0  0  0  0  0  0  0  0  0
   13.1859   -2.9541  -11.6814 C   0  0  0  0  0  0  0  0  0  0  0  0
   14.6009   -3.2599  -12.0359 C   0  0  1  0  0  0  0  0  0  0  0  0
   15.1471   -2.1573  -12.6978 O   0  0  0  0  0  0  0  0  0  0  0  0
   15.4658   -3.5494  -10.8313 C   0  0  2  0  0  0  0  0  0  0  0  0
   14.9839   -4.6822  -10.0778 N   0  0  0  0  0  0  0  0  0  0  0  0
   15.5372   -2.3491   -9.9631 C   0  0  0  0  0  0  0  0  0  0  0  0
   16.3436   -1.2786  -10.2670 O   0  0  0  0  0  0  0  0  0  0  0  0
   14.8351   -2.3241   -8.9235 O   0  0  0  0  0  0  0  0  0  0  0  0
  2  1  1  0
  3  2  1  0
  3  4  1  6
  5  6  2  0
  5  3  1  0
  8  7  1  1
  8  9  1  0
  9  5  1  0
 10  8  1  0
 10 11  2  0
 13 12  1  1
 13 14  1  0
 15 16  1  1
 15 13  1  0
 16 10  1  0
 17 15  1  0
 18 17  1  0
 19 17  2  0
M  END
$$$$
