SAT.pdb
     RDKit          3D

 19 18  0  0  1  0  0  0  0  0999 V2000
   18.1831  -15.0265  -18.9026 O   0  0  0  0  0  0  0  0  0  0  0  0
   18.3075  -13.9902  -17.9746 C   0  0  0  0  0  0  0  0  0  0  0  0
   19.5184  -14.3099  -17.1163 C   0  0  2  0  0  0  0  0  0  0  0  0
   19.1970  -15.4659  -16.3266 N   0  0  0  0  0  0  0  0  0  0  0  0
   19.7673  -13.1097  -16.2395 C   0  0  0  0  0  0  0  0  0  0  0  0
   18.8922  -12.7600  -15.4066 O   0  0  0  0  0  0  0  0  0  0  0  0
   22.6451  -10.8155  -15.6798 C   0  0  0  0  0  0  0  0  0  0  0  0
   21.1600  -11.1872  -15.5942 C   0  0  2  0  0  0  0  0  0  0  0  0
   20.9797  -12.3848  -16.3570 N   0  0  0  0  0  0  0  0  0  0  0  0
   20.3488  -10.0542  -16.0971 C   0  0  0  0  0  0  0  0  0  0  0  0
   20.0548   -9.9347  -17.3190 O   0  0  0  0  0  0  0  0  0  0  0  0
   17.1301   -6.4920  -15.2254 C   0  0  0  0  0  0  0  0  0  0  0  0
   17.8961   -7.7032  -14.8162 C   0  0  1  0  0  0  0  0  0  0  0  0
   17.0713   -8.8231  -14.9488 O   0  0  0  0  0  0  0  0  0  0  0  0
   19.1302   -7.9375  -15.6559 C   0  0  2  0  0  0  0  0  0  0  0  0
   19.8873   -9.0785  -15.1999 N   0  0  0  0  0  0  0  0  0  0  0  0
   19.9806   -6.7224  -15.6501 C   0  0  0  0  0  0  0  0  0  0  0  0
   19.8968   -5.7713  -16.6385 O   0  0  0  0  0  0  0  0  0  0  0  0
   20.7963   -6.5715  -14.7087 O   0  0  0  0  0  0  0  0  0  0  0  0
  2  1  1  0
  3  2  1  0
  3  4  1  1
  5  6  2  0
  5  3  1  0
  8  7  1  6
  8  9  1  0
  9  5  1  0
 10  8  1  0
 10 11  2  0
 13 12  1  6
 13 14  1  0
 15 16  1  1
 15 13  1  0
 16 10  1  0
 17 15  1  0
 18 17  1  0
 19 17  2  0
M  END
$$$$
