SAT.pdb
     RDKit          3D

 19 18  0  0  1  0  0  0  0  0999 V2000
   15.8482  -10.0996  -16.9497 O   0  0  0  0  0  0  0  0  0  0  0  0
   17.0380   -9.3890  -16.7760 C   0  0  0  0  0  0  0  0  0  0  0  0
   18.1508  -10.4149  -16.6573 C   0  0  2  0  0  0  0  0  0  0  0  0
   17.6732  -11.4775  -15.8171 N   0  0  0  0  0  0  0  0  0  0  0  0
   19.3290   -9.7173  -16.0277 C   0  0  0  0  0  0  0  0  0  0  0  0
   19.3011   -9.4408  -14.8011 O   0  0  0  0  0  0  0  0  0  0  0  0
   22.7803   -8.9184  -17.1082 C   0  0  0  0  0  0  0  0  0  0  0  0
   21.5572   -8.6911  -16.2117 C   0  0  2  0  0  0  0  0  0  0  0  0
   20.4568   -9.3780  -16.8165 N   0  0  0  0  0  0  0  0  0  0  0  0
   21.3237   -7.2347  -16.0735 C   0  0  0  0  0  0  0  0  0  0  0  0
   20.7377   -6.5651  -16.9689 O   0  0  0  0  0  0  0  0  0  0  0  0
   19.6290   -5.5131  -13.0621 C   0  0  0  0  0  0  0  0  0  0  0  0
   20.9599   -4.8936  -13.3193 C   0  0  1  0  0  0  0  0  0  0  0  0
   21.8817   -5.4131  -12.4069 O   0  0  0  0  0  0  0  0  0  0  0  0
   21.4837   -5.1670  -14.7100 C   0  0  2  0  0  0  0  0  0  0  0  0
   21.7616   -6.5678  -14.9188 N   0  0  0  0  0  0  0  0  0  0  0  0
   22.7036   -4.3602  -14.9556 C   0  0  0  0  0  0  0  0  0  0  0  0
   22.6669   -2.9880  -15.0227 O   0  0  0  0  0  0  0  0  0  0  0  0
   23.7947   -4.9616  -15.1048 O   0  0  0  0  0  0  0  0  0  0  0  0
  2  1  1  0
  3  2  1  0
  3  4  1  1
  5  6  2  0
  5  3  1  0
  8  7  1  6
  8  9  1  0
  9  5  1  0
 10  8  1  0
 10 11  2  0
 13 12  1  6
 13 14  1  0
 15 16  1  1
 15 13  1  0
 16 10  1  0
 17 15  1  0
 18 17  1  0
 19 17  2  0
M  END
$$$$
