SAT.pdb
     RDKit          3D

 19 18  0  0  1  0  0  0  0  0999 V2000
   20.3823  -10.8569  -20.2648 O   0  0  0  0  0  0  0  0  0  0  0  0
   20.1783  -10.2379  -19.0295 C   0  0  0  0  0  0  0  0  0  0  0  0
   20.7224  -11.1790  -17.9696 C   0  0  2  0  0  0  0  0  0  0  0  0
   19.8246  -12.2967  -17.8802 N   0  0  0  0  0  0  0  0  0  0  0  0
   20.7583  -10.4108  -16.6736 C   0  0  0  0  0  0  0  0  0  0  0  0
   19.6861   -9.9704  -16.1856 O   0  0  0  0  0  0  0  0  0  0  0  0
   23.2194   -9.8179  -14.0009 C   0  0  0  0  0  0  0  0  0  0  0  0
   22.0309   -9.3551  -14.8520 C   0  0  2  0  0  0  0  0  0  0  0  0
   21.9935  -10.1894  -16.0144 N   0  0  0  0  0  0  0  0  0  0  0  0
   22.1990   -7.9195  -15.1763 C   0  0  0  0  0  0  0  0  0  0  0  0
   22.9176   -7.5328  -16.1396 O   0  0  0  0  0  0  0  0  0  0  0  0
   19.8589   -5.4641  -16.4045 C   0  0  0  0  0  0  0  0  0  0  0  0
   20.3685   -4.9242  -15.1122 C   0  0  1  0  0  0  0  0  0  0  0  0
   19.4280   -5.1868  -14.1129 O   0  0  0  0  0  0  0  0  0  0  0  0
   21.6794   -5.5426  -14.6856 C   0  0  2  0  0  0  0  0  0  0  0  0
   21.5462   -6.9507  -14.3983 N   0  0  0  0  0  0  0  0  0  0  0  0
   22.2118   -4.8259  -13.5013 C   0  0  0  0  0  0  0  0  0  0  0  0
   22.6671   -3.5316  -13.5785 O   0  0  0  0  0  0  0  0  0  0  0  0
   22.2415   -5.4317  -12.4029 O   0  0  0  0  0  0  0  0  0  0  0  0
  2  1  1  0
  3  2  1  0
  3  4  1  1
  5  6  2  0
  5  3  1  0
  8  7  1  1
  8  9  1  0
  9  5  1  0
 10  8  1  0
 10 11  2  0
 13 12  1  6
 13 14  1  0
 15 16  1  1
 15 13  1  0
 16 10  1  0
 17 15  1  0
 18 17  1  0
 19 17  2  0
M  END
$$$$
