SAT.pdb
     RDKit          3D

 19 18  0  0  1  0  0  0  0  0999 V2000
   18.4922   -9.5718  -18.0112 O   0  0  0  0  0  0  0  0  0  0  0  0
   17.7089  -10.5155  -17.3431 C   0  0  0  0  0  0  0  0  0  0  0  0
   18.6644  -11.4702  -16.6498 C   0  0  2  0  0  0  0  0  0  0  0  0
   17.8823  -12.5407  -16.0969 N   0  0  0  0  0  0  0  0  0  0  0  0
   19.3562  -10.6899  -15.5619 C   0  0  0  0  0  0  0  0  0  0  0  0
   18.6914  -10.2801  -14.5761 O   0  0  0  0  0  0  0  0  0  0  0  0
   22.8343   -9.9487  -14.6029 C   0  0  0  0  0  0  0  0  0  0  0  0
   21.3580   -9.5467  -14.7030 C   0  0  2  0  0  0  0  0  0  0  0  0
   20.7453  -10.4229  -15.6544 N   0  0  0  0  0  0  0  0  0  0  0  0
   21.2712   -8.1198  -15.0918 C   0  0  0  0  0  0  0  0  0  0  0  0
   21.3084   -7.7540  -16.2995 O   0  0  0  0  0  0  0  0  0  0  0  0
   19.6825   -3.6575  -14.3255 C   0  0  0  0  0  0  0  0  0  0  0  0
   19.7411   -5.1271  -14.0840 C   0  0  1  0  0  0  0  0  0  0  0  0
   18.7702   -5.7513  -14.8714 O   0  0  0  0  0  0  0  0  0  0  0  0
   21.0795   -5.7339  -14.4352 C   0  0  2  0  0  0  0  0  0  0  0  0
   21.1437   -7.1361  -14.0989 N   0  0  0  0  0  0  0  0  0  0  0  0
   22.1641   -4.9918  -13.7479 C   0  0  0  0  0  0  0  0  0  0  0  0
   22.8683   -3.9899  -14.3717 O   0  0  0  0  0  0  0  0  0  0  0  0
   22.4361   -5.2983  -12.5620 O   0  0  0  0  0  0  0  0  0  0  0  0
  2  1  1  0
  3  2  1  0
  3  4  1  1
  5  6  2  0
  5  3  1  0
  8  7  1  6
  8  9  1  0
  9  5  1  0
 10  8  1  0
 10 11  2  0
 13 12  1  6
 13 14  1  0
 15 16  1  1
 15 13  1  0
 16 10  1  0
 17 15  1  0
 18 17  1  0
 19 17  2  0
M  END
$$$$
