SAT.pdb
     RDKit          3D

 19 18  0  0  1  0  0  0  0  0999 V2000
   19.9187   -9.7919  -19.0418 O   0  0  0  0  0  0  0  0  0  0  0  0
   20.6829  -10.9592  -19.1047 C   0  0  0  0  0  0  0  0  0  0  0  0
   20.4148  -11.7312  -17.8252 C   0  0  2  0  0  0  0  0  0  0  0  0
   19.0306  -12.1148  -17.8323 N   0  0  0  0  0  0  0  0  0  0  0  0
   20.7108  -10.8002  -16.6777 C   0  0  0  0  0  0  0  0  0  0  0  0
   19.7601  -10.2382  -16.0760 O   0  0  0  0  0  0  0  0  0  0  0  0
   23.7236   -9.9861  -14.6821 C   0  0  0  0  0  0  0  0  0  0  0  0
   22.3198   -9.6609  -15.2063 C   0  0  2  0  0  0  0  0  0  0  0  0
   22.0518  -10.5637  -16.2841 N   0  0  0  0  0  0  0  0  0  0  0  0
   22.2757   -8.2388  -15.6190 C   0  0  0  0  0  0  0  0  0  0  0  0
   22.7217   -7.8542  -16.7357 O   0  0  0  0  0  0  0  0  0  0  0  0
   19.5229   -6.0529  -16.4337 C   0  0  0  0  0  0  0  0  0  0  0  0
   20.2247   -5.4177  -15.2825 C   0  0  1  0  0  0  0  0  0  0  0  0
   19.5383   -5.7339  -14.1073 O   0  0  0  0  0  0  0  0  0  0  0  0
   21.6517   -5.8882  -15.1237 C   0  0  2  0  0  0  0  0  0  0  0  0
   21.7250   -7.2812  -14.7533 N   0  0  0  0  0  0  0  0  0  0  0  0
   22.3477   -5.0523  -14.1154 C   0  0  0  0  0  0  0  0  0  0  0  0
   22.7084   -3.7515  -14.3729 O   0  0  0  0  0  0  0  0  0  0  0  0
   22.6085   -5.5611  -12.9985 O   0  0  0  0  0  0  0  0  0  0  0  0
  2  1  1  0
  3  2  1  0
  3  4  1  6
  5  6  2  0
  5  3  1  0
  8  7  1  6
  8  9  1  0
  9  5  1  0
 10  8  1  0
 10 11  2  0
 13 12  1  6
 13 14  1  0
 15 16  1  1
 15 13  1  0
 16 10  1  0
 17 15  1  0
 18 17  1  0
 19 17  2  0
M  END
$$$$
