SAT.pdb
     RDKit          3D

 19 18  0  0  1  0  0  0  0  0999 V2000
   22.3033  -11.6727  -20.5766 O   0  0  0  0  0  0  0  0  0  0  0  0
   21.6113  -10.8994  -19.6418 C   0  0  0  0  0  0  0  0  0  0  0  0
   21.4035  -11.7707  -18.4160 C   0  0  2  0  0  0  0  0  0  0  0  0
   20.1600  -12.4693  -18.5865 N   0  0  0  0  0  0  0  0  0  0  0  0
   21.3460  -10.8499  -17.2244 C   0  0  0  0  0  0  0  0  0  0  0  0
   20.3253  -10.1384  -17.0411 O   0  0  0  0  0  0  0  0  0  0  0  0
   23.4047  -10.4174  -14.1719 C   0  0  0  0  0  0  0  0  0  0  0  0
   22.3599   -9.9275  -15.1816 C   0  0  2  0  0  0  0  0  0  0  0  0
   22.4366  -10.7904  -16.3209 N   0  0  0  0  0  0  0  0  0  0  0  0
   22.6344   -8.5095  -15.5111 C   0  0  0  0  0  0  0  0  0  0  0  0
   23.5159   -8.1785  -16.3519 O   0  0  0  0  0  0  0  0  0  0  0  0
   20.6844   -6.1465  -17.3129 C   0  0  0  0  0  0  0  0  0  0  0  0
   20.8778   -5.5495  -15.9610 C   0  0  1  0  0  0  0  0  0  0  0  0
   19.7463   -5.8156  -15.1858 O   0  0  0  0  0  0  0  0  0  0  0  0
   22.0779   -6.1069  -15.2316 C   0  0  2  0  0  0  0  0  0  0  0  0
   21.9004   -7.4948  -14.8775 N   0  0  0  0  0  0  0  0  0  0  0  0
   22.3489   -5.2987  -14.0179 C   0  0  0  0  0  0  0  0  0  0  0  0
   22.8115   -4.0069  -14.0926 O   0  0  0  0  0  0  0  0  0  0  0  0
   22.1451   -5.8230  -12.8963 O   0  0  0  0  0  0  0  0  0  0  0  0
  2  1  1  0
  3  2  1  0
  3  4  1  6
  5  6  2  0
  5  3  1  0
  8  7  1  1
  8  9  1  0
  9  5  1  0
 10  8  1  0
 10 11  2  0
 13 12  1  6
 13 14  1  0
 15 16  1  1
 15 13  1  0
 16 10  1  0
 17 15  1  0
 18 17  1  0
 19 17  2  0
M  END
$$$$
