SAT.pdb
     RDKit          3D

 19 18  0  0  1  0  0  0  0  0999 V2000
   16.9465   -9.5439  -10.1624 O   0  0  0  0  0  0  0  0  0  0  0  0
   15.6810   -9.2145  -10.6529 C   0  0  0  0  0  0  0  0  0  0  0  0
   15.5827   -9.8019  -12.0494 C   0  0  2  0  0  0  0  0  0  0  0  0
   15.9681  -11.1832  -11.9668 N   0  0  0  0  0  0  0  0  0  0  0  0
   16.5361   -9.0272  -12.9224 C   0  0  0  0  0  0  0  0  0  0  0  0
   17.6293   -9.5493  -13.2598 O   0  0  0  0  0  0  0  0  0  0  0  0
   16.3086   -5.8323  -14.8112 C   0  0  0  0  0  0  0  0  0  0  0  0
   17.0885   -7.0168  -14.2282 C   0  0  2  0  0  0  0  0  0  0  0  0
   16.1979   -7.7209  -13.3566 N   0  0  0  0  0  0  0  0  0  0  0  0
   18.2936   -6.5068  -13.5339 C   0  0  0  0  0  0  0  0  0  0  0  0
   18.3117   -6.3091  -12.2872 O   0  0  0  0  0  0  0  0  0  0  0  0
   22.1478   -6.9468  -15.3709 C   0  0  0  0  0  0  0  0  0  0  0  0
   21.7877   -6.8988  -13.9254 C   0  0  1  0  0  0  0  0  0  0  0  0
   22.9199   -6.5358  -13.1916 O   0  0  0  0  0  0  0  0  0  0  0  0
   20.6984   -5.8981  -13.6175 C   0  0  2  0  0  0  0  0  0  0  0  0
   19.4556   -6.2314  -14.2714 N   0  0  0  0  0  0  0  0  0  0  0  0
   21.1377   -4.5383  -14.0144 C   0  0  0  0  0  0  0  0  0  0  0  0
   22.1438   -3.8767  -13.3520 O   0  0  0  0  0  0  0  0  0  0  0  0
   20.5650   -3.9877  -14.9856 O   0  0  0  0  0  0  0  0  0  0  0  0
  2  1  1  0
  3  2  1  0
  3  4  1  1
  5  6  2  0
  5  3  1  0
  8  7  1  1
  8  9  1  0
  9  5  1  0
 10  8  1  0
 10 11  2  0
 13 12  1  6
 13 14  1  0
 15 16  1  6
 15 13  1  0
 16 10  1  0
 17 15  1  0
 18 17  1  0
 19 17  2  0
M  END
$$$$
