SAT.pdb
     RDKit          3D

 19 18  0  0  1  0  0  0  0  0999 V2000
   17.7103  -10.0669  -19.5484 O   0  0  0  0  0  0  0  0  0  0  0  0
   17.9439   -9.3906  -18.3489 C   0  0  0  0  0  0  0  0  0  0  0  0
   18.9987  -10.1810  -17.5955 C   0  0  2  0  0  0  0  0  0  0  0  0
   18.4033  -11.4247  -17.1929 N   0  0  0  0  0  0  0  0  0  0  0  0
   19.3934   -9.3586  -16.3958 C   0  0  0  0  0  0  0  0  0  0  0  0
   18.5002   -8.9091  -15.6329 O   0  0  0  0  0  0  0  0  0  0  0  0
   22.4506   -8.8860  -14.4617 C   0  0  0  0  0  0  0  0  0  0  0  0
   21.1232   -8.3245  -14.9850 C   0  0  2  0  0  0  0  0  0  0  0  0
   20.7618   -9.0970  -16.1344 N   0  0  0  0  0  0  0  0  0  0  0  0
   21.2935   -6.8842  -15.2869 C   0  0  0  0  0  0  0  0  0  0  0  0
   21.7625   -6.4845  -16.3887 O   0  0  0  0  0  0  0  0  0  0  0  0
   20.0123   -2.2572  -14.3639 C   0  0  0  0  0  0  0  0  0  0  0  0
   19.8747   -3.7223  -14.1276 C   0  0  1  0  0  0  0  0  0  0  0  0
   18.7638   -4.1895  -14.8346 O   0  0  0  0  0  0  0  0  0  0  0  0
   21.0781   -4.5134  -14.5846 C   0  0  2  0  0  0  0  0  0  0  0  0
   20.9268   -5.9259  -14.3293 N   0  0  0  0  0  0  0  0  0  0  0  0
   22.2999   -4.0001  -13.9188 C   0  0  0  0  0  0  0  0  0  0  0  0
   23.1517   -3.1193  -14.5410 O   0  0  0  0  0  0  0  0  0  0  0  0
   22.5508   -4.3902  -12.7529 O   0  0  0  0  0  0  0  0  0  0  0  0
  2  1  1  0
  3  2  1  0
  3  4  1  1
  5  6  2  0
  5  3  1  0
  8  7  1  6
  8  9  1  0
  9  5  1  0
 10  8  1  0
 10 11  2  0
 13 12  1  6
 13 14  1  0
 15 16  1  1
 15 13  1  0
 16 10  1  0
 17 15  1  0
 18 17  1  0
 19 17  2  0
M  END
$$$$
