YQF.pdb
     RDKit          3D

 33 34  0  0  1  0  0  0  0  0999 V2000
    9.1011  -12.5058   17.2975 O   0  0  0  0  0  0  0  0  0  0  0  0
    8.5316  -13.0694   18.4189 C   0  0  0  0  0  0  0  0  0  0  0  0
    9.2806  -13.3467   19.5382 C   0  0  0  0  0  0  0  0  0  0  0  0
    8.7068  -13.9113   20.6596 C   0  0  0  0  0  0  0  0  0  0  0  0
    7.3630  -14.2180   20.6996 C   0  0  0  0  0  0  0  0  0  0  0  0
    6.7168  -14.8291   21.8991 C   0  0  0  0  0  0  0  0  0  0  0  0
    6.8664  -16.3278   21.7703 C   0  0  2  0  0  0  0  0  0  0  0  0
    5.9761  -16.7561   20.7160 N   0  0  0  0  0  0  0  0  0  0  0  0
    6.5134  -17.0336   23.0145 C   0  0  0  0  0  0  0  0  0  0  0  0
    5.3154  -17.3518   23.2923 O   0  0  0  0  0  0  0  0  0  0  0  0
    6.6052  -13.9449   19.5862 C   0  0  0  0  0  0  0  0  0  0  0  0
    7.1735  -13.3820   18.4659 C   0  0  0  0  0  0  0  0  0  0  0  0
    6.5632  -21.3389   26.6826 N   0  0  0  0  0  0  0  0  0  0  0  0
    7.6547  -21.1942   25.7966 C   0  0  0  0  0  0  0  0  0  0  0  0
    8.3550  -22.1782   25.4787 O   0  0  0  0  0  0  0  0  0  0  0  0
    7.9514  -19.8127   25.2435 C   0  0  0  0  0  0  0  0  0  0  0  0
    7.0305  -18.8113   25.8323 C   0  0  0  0  0  0  0  0  0  0  0  0
    7.3110  -17.4189   25.3979 C   0  0  2  0  0  0  0  0  0  0  0  0
    7.5224  -17.3779   23.9433 N   0  0  0  0  0  0  0  0  0  0  0  0
    8.4471  -16.7781   26.0961 C   0  0  0  0  0  0  0  0  0  0  0  0
    9.3178  -16.1037   25.4222 O   0  0  0  0  0  0  0  0  0  0  0  0
    8.6971  -16.8159   27.4850 N   0  0  0  0  0  0  0  0  0  0  0  0
    9.7747  -16.0070   28.0922 C   0  0  1  0  0  0  0  0  0  0  0  0
    9.0626  -14.8558   28.7522 C   0  0  0  0  0  0  0  0  0  0  0  0
    8.4180  -13.9066   27.8592 C   0  0  0  0  0  0  0  0  0  0  0  0
    7.0424  -13.9999   27.7012 C   0  0  0  0  0  0  0  0  0  0  0  0
    6.3138  -13.1674   26.8972 C   0  0  0  0  0  0  0  0  0  0  0  0
    6.9488  -12.1688   26.1897 C   0  0  0  0  0  0  0  0  0  0  0  0
    8.3304  -12.0539   26.3312 C   0  0  0  0  0  0  0  0  0  0  0  0
    9.0424  -12.9058   27.1484 C   0  0  0  0  0  0  0  0  0  0  0  0
   10.4761  -16.7815   29.1335 C   0  0  0  0  0  0  0  0  0  0  0  0
   10.1178  -18.0761   29.4620 O   0  0  0  0  0  0  0  0  0  0  0  0
   11.4308  -16.2515   29.7455 O   0  0  0  0  0  0  0  0  0  0  0  0
  2  1  1  0
  3  2  2  0
  4  3  1  0
  5  4  2  0
  5 11  1  0
  6  5  1  0
  7  6  1  0
  7  8  1  6
  9  7  1  0
  9 10  2  0
 11 12  2  0
 12  2  1  0
 13 14  1  0
 14 16  1  0
 15 14  2  0
 16 17  1  0
 18 17  1  1
 18 19  1  0
 18 20  1  0
 19  9  1  0
 20 21  2  0
 20 22  1  0
 22 23  1  0
 23 31  1  0
 23 24  1  1
 25 24  1  0
 25 30  1  0
 26 25  2  0
 27 26  1  0
 27 28  2  0
 28 29  1  0
 29 30  2  0
 31 33  2  0
 31 32  1  0
M  END
$$$$
