YQF.pdb
     RDKit          3D

 33 34  0  0  1  0  0  0  0  0999 V2000
    7.8260  -13.2233   16.0579 O   0  0  0  0  0  0  0  0  0  0  0  0
    7.6587  -13.7664   17.3136 C   0  0  0  0  0  0  0  0  0  0  0  0
    7.8638  -13.0182   18.4489 C   0  0  0  0  0  0  0  0  0  0  0  0
    7.6954  -13.5655   19.7049 C   0  0  0  0  0  0  0  0  0  0  0  0
    7.3157  -14.8810   19.8682 C   0  0  0  0  0  0  0  0  0  0  0  0
    7.1265  -15.4982   21.2147 C   0  0  0  0  0  0  0  0  0  0  0  0
    8.3612  -15.1811   22.0272 C   0  0  2  0  0  0  0  0  0  0  0  0
    9.4735  -15.1217   21.1069 N   0  0  0  0  0  0  0  0  0  0  0  0
    8.6363  -16.2064   23.0489 C   0  0  0  0  0  0  0  0  0  0  0  0
    7.7423  -16.6108   23.8558 O   0  0  0  0  0  0  0  0  0  0  0  0
    7.1081  -15.6377   18.7401 C   0  0  0  0  0  0  0  0  0  0  0  0
    7.2750  -15.0958   17.4857 C   0  0  0  0  0  0  0  0  0  0  0  0
   13.1705  -20.5751   22.3368 N   0  0  0  0  0  0  0  0  0  0  0  0
   12.4939  -19.6071   21.5606 C   0  0  0  0  0  0  0  0  0  0  0  0
   12.9389  -19.2544   20.4483 O   0  0  0  0  0  0  0  0  0  0  0  0
   11.2141  -19.0095   22.1153 C   0  0  0  0  0  0  0  0  0  0  0  0
   11.3814  -18.6687   23.5483 C   0  0  0  0  0  0  0  0  0  0  0  0
   10.2723  -17.8468   24.0966 C   0  0  2  0  0  0  0  0  0  0  0  0
    9.9278  -16.7724   23.1537 N   0  0  0  0  0  0  0  0  0  0  0  0
   10.5360  -17.2820   25.4383 C   0  0  0  0  0  0  0  0  0  0  0  0
   11.0283  -18.0328   26.3663 O   0  0  0  0  0  0  0  0  0  0  0  0
   10.3057  -15.9479   25.8384 N   0  0  0  0  0  0  0  0  0  0  0  0
   10.6808  -15.4768   27.1881 C   0  0  1  0  0  0  0  0  0  0  0  0
   10.4238  -13.9931   27.1600 C   0  0  0  0  0  0  0  0  0  0  0  0
    9.0291  -13.5872   27.0964 C   0  0  0  0  0  0  0  0  0  0  0  0
    8.3736  -13.7163   25.8800 C   0  0  0  0  0  0  0  0  0  0  0  0
    7.0631  -13.3771   25.6857 C   0  0  0  0  0  0  0  0  0  0  0  0
    6.3220  -12.8758   26.7347 C   0  0  0  0  0  0  0  0  0  0  0  0
    6.9573  -12.7364   27.9672 C   0  0  0  0  0  0  0  0  0  0  0  0
    8.2799  -13.0858   28.1375 C   0  0  0  0  0  0  0  0  0  0  0  0
    9.8044  -16.0836   28.2078 C   0  0  0  0  0  0  0  0  0  0  0  0
    8.7190  -16.8738   27.8769 O   0  0  0  0  0  0  0  0  0  0  0  0
   10.0477  -15.8780   29.4184 O   0  0  0  0  0  0  0  0  0  0  0  0
  2  1  1  0
  3  2  2  0
  4  3  1  0
  5  4  2  0
  5 11  1  0
  6  5  1  0
  7  6  1  0
  7  8  1  6
  9  7  1  0
  9 10  2  0
 11 12  2  0
 12  2  1  0
 13 14  1  0
 14 16  1  0
 15 14  2  0
 16 17  1  0
 18 17  1  6
 18 19  1  0
 18 20  1  0
 19  9  1  0
 20 21  2  0
 20 22  1  0
 22 23  1  0
 23 31  1  0
 23 24  1  6
 25 24  1  0
 25 30  1  0
 26 25  2  0
 27 26  1  0
 27 28  2  0
 28 29  1  0
 29 30  2  0
 31 33  2  0
 31 32  1  0
M  END
$$$$
