YQF.pdb
     RDKit          3D

 33 34  0  0  1  0  0  0  0  0999 V2000
    9.9458  -19.0881   29.6320 O   0  0  0  0  0  0  0  0  0  0  0  0
    8.9885  -18.8631   28.6663 C   0  0  0  0  0  0  0  0  0  0  0  0
    8.2023  -19.8847   28.1877 C   0  0  0  0  0  0  0  0  0  0  0  0
    7.2445  -19.6556   27.2205 C   0  0  0  0  0  0  0  0  0  0  0  0
    7.0402  -18.3958   26.6986 C   0  0  0  0  0  0  0  0  0  0  0  0
    6.0115  -18.1201   25.6519 C   0  0  0  0  0  0  0  0  0  0  0  0
    6.4343  -18.8636   24.4055 C   0  0  2  0  0  0  0  0  0  0  0  0
    6.9685  -20.1374   24.8295 N   0  0  0  0  0  0  0  0  0  0  0  0
    7.4669  -18.1380   23.6451 C   0  0  0  0  0  0  0  0  0  0  0  0
    8.6668  -18.5493   23.5759 O   0  0  0  0  0  0  0  0  0  0  0  0
    7.8205  -17.3676   27.1700 C   0  0  0  0  0  0  0  0  0  0  0  0
    8.7768  -17.5917   28.1344 C   0  0  0  0  0  0  0  0  0  0  0  0
    7.0937  -12.3172   19.6040 N   0  0  0  0  0  0  0  0  0  0  0  0
    7.5361  -13.6462   19.4168 C   0  0  0  0  0  0  0  0  0  0  0  0
    7.2978  -14.2556   18.3530 O   0  0  0  0  0  0  0  0  0  0  0  0
    8.3074  -14.3108   20.5420 C   0  0  0  0  0  0  0  0  0  0  0  0
    7.3998  -15.1368   21.3734 C   0  0  0  0  0  0  0  0  0  0  0  0
    8.1081  -16.1415   22.2072 C   0  0  2  0  0  0  0  0  0  0  0  0
    7.1356  -16.9445   22.9631 N   0  0  0  0  0  0  0  0  0  0  0  0
    9.1197  -15.5708   23.1237 C   0  0  0  0  0  0  0  0  0  0  0  0
   10.1266  -14.9200   22.6445 O   0  0  0  0  0  0  0  0  0  0  0  0
    9.1060  -15.6550   24.5328 N   0  0  0  0  0  0  0  0  0  0  0  0
   10.0761  -14.9019   25.3552 C   0  0  1  0  0  0  0  0  0  0  0  0
    9.2944  -14.4690   26.5674 C   0  0  0  0  0  0  0  0  0  0  0  0
    8.2331  -13.5034   26.3322 C   0  0  0  0  0  0  0  0  0  0  0  0
    7.0345  -13.6836   27.0080 C   0  0  0  0  0  0  0  0  0  0  0  0
    5.9601  -12.8469   26.8814 C   0  0  0  0  0  0  0  0  0  0  0  0
    6.0372  -11.7540   26.0445 C   0  0  0  0  0  0  0  0  0  0  0  0
    7.2306  -11.5507   25.3542 C   0  0  0  0  0  0  0  0  0  0  0  0
    8.2998  -12.4088   25.4991 C   0  0  0  0  0  0  0  0  0  0  0  0
   11.1722  -15.7848   25.7967 C   0  0  0  0  0  0  0  0  0  0  0  0
   11.2598  -17.1090   25.4080 O   0  0  0  0  0  0  0  0  0  0  0  0
   12.0577  -15.3233   26.5516 O   0  0  0  0  0  0  0  0  0  0  0  0
  2  1  1  0
  3  2  2  0
  4  3  1  0
  5  4  2  0
  5 11  1  0
  6  5  1  0
  7  6  1  0
  7  8  1  1
  9  7  1  0
  9 10  2  0
 11 12  2  0
 12  2  1  0
 13 14  1  0
 14 16  1  0
 15 14  2  0
 16 17  1  0
 18 17  1  1
 18 19  1  0
 18 20  1  0
 19  9  1  0
 20 21  2  0
 20 22  1  0
 22 23  1  0
 23 31  1  0
 23 24  1  1
 25 24  1  0
 25 30  1  0
 26 25  2  0
 27 26  1  0
 27 28  2  0
 28 29  1  0
 29 30  2  0
 31 33  2  0
 31 32  1  0
M  END
$$$$
