YQF.pdb
     RDKit          3D

 33 34  0  0  1  0  0  0  0  0999 V2000
    9.2292  -25.2041   18.4488 O   0  0  0  0  0  0  0  0  0  0  0  0
    9.4104  -23.8379   18.4620 C   0  0  0  0  0  0  0  0  0  0  0  0
    9.7144  -23.1462   17.3131 C   0  0  0  0  0  0  0  0  0  0  0  0
    9.8953  -21.7778   17.3303 C   0  0  0  0  0  0  0  0  0  0  0  0
    9.7782  -21.0540   18.4981 C   0  0  0  0  0  0  0  0  0  0  0  0
    9.9688  -19.5738   18.5450 C   0  0  0  0  0  0  0  0  0  0  0  0
    9.8230  -19.1518   19.9893 C   0  0  2  0  0  0  0  0  0  0  0  0
    8.4085  -19.1125   20.2812 N   0  0  0  0  0  0  0  0  0  0  0  0
   10.4040  -17.8220   20.2443 C   0  0  0  0  0  0  0  0  0  0  0  0
   11.6282  -17.5672   20.0205 O   0  0  0  0  0  0  0  0  0  0  0  0
    9.4746  -21.7356   19.6521 C   0  0  0  0  0  0  0  0  0  0  0  0
    9.2934  -23.1002   19.6394 C   0  0  0  0  0  0  0  0  0  0  0  0
    7.3019  -12.6556   19.0342 N   0  0  0  0  0  0  0  0  0  0  0  0
    8.0398  -13.6318   18.3273 C   0  0  0  0  0  0  0  0  0  0  0  0
    7.6524  -14.0438   17.2137 O   0  0  0  0  0  0  0  0  0  0  0  0
    9.3132  -14.1643   18.9576 C   0  0  0  0  0  0  0  0  0  0  0  0
    9.1016  -14.4370   20.3993 C   0  0  0  0  0  0  0  0  0  0  0  0
   10.0711  -15.4076   20.9686 C   0  0  2  0  0  0  0  0  0  0  0  0
    9.5934  -16.7815   20.7538 N   0  0  0  0  0  0  0  0  0  0  0  0
   10.3811  -15.1937   22.3994 C   0  0  0  0  0  0  0  0  0  0  0  0
   11.2032  -14.2605   22.7463 O   0  0  0  0  0  0  0  0  0  0  0  0
    9.8493  -15.9253   23.4833 N   0  0  0  0  0  0  0  0  0  0  0  0
    9.4331  -15.2523   24.7316 C   0  0  1  0  0  0  0  0  0  0  0  0
    8.3138  -14.3345   24.3159 C   0  0  0  0  0  0  0  0  0  0  0  0
    7.7449  -13.5043   25.3652 C   0  0  0  0  0  0  0  0  0  0  0  0
    8.4721  -12.3968   25.7782 C   0  0  0  0  0  0  0  0  0  0  0  0
    8.0497  -11.5324   26.7502 C   0  0  0  0  0  0  0  0  0  0  0  0
    6.8391  -11.7426   27.3756 C   0  0  0  0  0  0  0  0  0  0  0  0
    6.0894  -12.8482   26.9787 C   0  0  0  0  0  0  0  0  0  0  0  0
    6.5372  -13.7050   25.9960 C   0  0  0  0  0  0  0  0  0  0  0  0
    8.8989  -16.2350   25.6933 C   0  0  0  0  0  0  0  0  0  0  0  0
    9.0801  -16.1101   27.0585 O   0  0  0  0  0  0  0  0  0  0  0  0
    8.2578  -17.2202   25.2627 O   0  0  0  0  0  0  0  0  0  0  0  0
  2  1  1  0
  3  2  2  0
  4  3  1  0
  5  4  2  0
  5 11  1  0
  6  5  1  0
  7  6  1  0
  7  8  1  6
  9  7  1  0
  9 10  2  0
 11 12  2  0
 12  2  1  0
 13 14  1  0
 14 16  1  0
 15 14  2  0
 16 17  1  0
 18 17  1  1
 18 19  1  0
 18 20  1  0
 19  9  1  0
 20 21  2  0
 20 22  1  0
 22 23  1  0
 23 31  1  0
 23 24  1  6
 25 24  1  0
 25 30  1  0
 26 25  2  0
 27 26  1  0
 27 28  2  0
 28 29  1  0
 29 30  2  0
 31 33  2  0
 31 32  1  0
M  END
$$$$
