YQF.pdb
     RDKit          3D

 33 34  0  0  1  0  0  0  0  0999 V2000
    7.9833  -11.9376   16.8334 O   0  0  0  0  0  0  0  0  0  0  0  0
    8.0053  -12.6511   18.0125 C   0  0  0  0  0  0  0  0  0  0  0  0
    9.1848  -12.9050   18.6722 C   0  0  0  0  0  0  0  0  0  0  0  0
    9.2030  -13.6200   19.8528 C   0  0  0  0  0  0  0  0  0  0  0  0
    8.0410  -14.1058   20.4143 C   0  0  0  0  0  0  0  0  0  0  0  0
    8.0320  -14.8820   21.6899 C   0  0  0  0  0  0  0  0  0  0  0  0
    8.5878  -16.2533   21.3804 C   0  0  2  0  0  0  0  0  0  0  0  0
    7.6364  -16.9139   20.5166 N   0  0  0  0  0  0  0  0  0  0  0  0
    8.7800  -17.0655   22.5946 C   0  0  0  0  0  0  0  0  0  0  0  0
    7.8122  -17.6469   23.1768 O   0  0  0  0  0  0  0  0  0  0  0  0
    6.8566  -13.8576   19.7631 C   0  0  0  0  0  0  0  0  0  0  0  0
    6.8340  -13.1450   18.5855 C   0  0  0  0  0  0  0  0  0  0  0  0
   13.2910  -20.9632   23.5272 N   0  0  0  0  0  0  0  0  0  0  0  0
   12.8458  -19.9113   22.6950 C   0  0  0  0  0  0  0  0  0  0  0  0
   13.6012  -19.4139   21.8338 O   0  0  0  0  0  0  0  0  0  0  0  0
   11.4272  -19.4042   22.8766 C   0  0  0  0  0  0  0  0  0  0  0  0
   11.1868  -19.0368   24.2925 C   0  0  0  0  0  0  0  0  0  0  0  0
   10.3315  -17.8336   24.4568 C   0  0  2  0  0  0  0  0  0  0  0  0
   10.0726  -17.2170   23.1473 N   0  0  0  0  0  0  0  0  0  0  0  0
   10.8688  -16.8258   25.3973 C   0  0  0  0  0  0  0  0  0  0  0  0
   11.9315  -16.1607   25.0883 O   0  0  0  0  0  0  0  0  0  0  0  0
   10.3217  -16.4864   26.6535 N   0  0  0  0  0  0  0  0  0  0  0  0
   11.1174  -15.7601   27.6653 C   0  0  1  0  0  0  0  0  0  0  0  0
   10.7047  -14.3197   27.5138 C   0  0  0  0  0  0  0  0  0  0  0  0
    9.2771  -14.0735   27.3907 C   0  0  0  0  0  0  0  0  0  0  0  0
    8.7483  -12.9854   28.0706 C   0  0  0  0  0  0  0  0  0  0  0  0
    7.4255  -12.6397   28.0353 C   0  0  0  0  0  0  0  0  0  0  0  0
    6.5400  -13.3920   27.2931 C   0  0  0  0  0  0  0  0  0  0  0  0
    7.0462  -14.4903   26.6008 C   0  0  0  0  0  0  0  0  0  0  0  0
    8.3843  -14.8180   26.6523 C   0  0  0  0  0  0  0  0  0  0  0  0
   10.7574  -16.2091   29.0235 C   0  0  0  0  0  0  0  0  0  0  0  0
    9.8156  -17.1952   29.2529 O   0  0  0  0  0  0  0  0  0  0  0  0
   11.3220  -15.6805   30.0078 O   0  0  0  0  0  0  0  0  0  0  0  0
  2  1  1  0
  3  2  2  0
  4  3  1  0
  5  4  2  0
  5 11  1  0
  6  5  1  0
  7  6  1  0
  7  8  1  6
  9  7  1  0
  9 10  2  0
 11 12  2  0
 12  2  1  0
 13 14  1  0
 14 16  1  0
 15 14  2  0
 16 17  1  0
 18 17  1  6
 18 19  1  0
 18 20  1  0
 19  9  1  0
 20 21  2  0
 20 22  1  0
 22 23  1  0
 23 31  1  0
 23 24  1  1
 25 24  1  0
 25 30  1  0
 26 25  2  0
 27 26  1  0
 27 28  2  0
 28 29  1  0
 29 30  2  0
 31 33  2  0
 31 32  1  0
M  END
$$$$
