YQF.pdb
     RDKit          3D

 33 34  0  0  1  0  0  0  0  0999 V2000
    9.2791  -12.4362   16.9299 O   0  0  0  0  0  0  0  0  0  0  0  0
    8.7227  -12.9563   18.0786 C   0  0  0  0  0  0  0  0  0  0  0  0
    9.4842  -13.6454   18.9929 C   0  0  0  0  0  0  0  0  0  0  0  0
    8.9234  -14.1651   20.1423 C   0  0  0  0  0  0  0  0  0  0  0  0
    7.5807  -14.0129   20.4165 C   0  0  0  0  0  0  0  0  0  0  0  0
    6.9484  -14.5646   21.6516 C   0  0  0  0  0  0  0  0  0  0  0  0
    7.0964  -16.0679   21.5940 C   0  0  2  0  0  0  0  0  0  0  0  0
    5.8772  -16.5948   21.0253 N   0  0  0  0  0  0  0  0  0  0  0  0
    7.3010  -16.6608   22.9273 C   0  0  0  0  0  0  0  0  0  0  0  0
    6.3401  -16.8459   23.7373 O   0  0  0  0  0  0  0  0  0  0  0  0
    6.8105  -13.3257   19.5093 C   0  0  0  0  0  0  0  0  0  0  0  0
    7.3657  -12.8059   18.3619 C   0  0  0  0  0  0  0  0  0  0  0  0
   11.0695  -21.2165   23.9669 N   0  0  0  0  0  0  0  0  0  0  0  0
   10.8196  -20.9096   25.3236 C   0  0  0  0  0  0  0  0  0  0  0  0
   11.2185  -21.6657   26.2341 O   0  0  0  0  0  0  0  0  0  0  0  0
   10.0548  -19.6385   25.6425 C   0  0  0  0  0  0  0  0  0  0  0  0
    9.6154  -18.9723   24.3931 C   0  0  0  0  0  0  0  0  0  0  0  0
    8.8836  -17.7006   24.6240 C   0  0  2  0  0  0  0  0  0  0  0  0
    8.5981  -17.0434   23.3400 N   0  0  0  0  0  0  0  0  0  0  0  0
    9.5680  -16.7590   25.5372 C   0  0  0  0  0  0  0  0  0  0  0  0
   10.6466  -16.1615   25.1540 O   0  0  0  0  0  0  0  0  0  0  0  0
    9.1525  -16.4168   26.8422 N   0  0  0  0  0  0  0  0  0  0  0  0
   10.0082  -15.6024   27.7304 C   0  0  1  0  0  0  0  0  0  0  0  0
    9.0517  -14.6871   28.4484 C   0  0  0  0  0  0  0  0  0  0  0  0
    8.3130  -13.7531   27.6142 C   0  0  0  0  0  0  0  0  0  0  0  0
    8.9041  -12.5287   27.3359 C   0  0  0  0  0  0  0  0  0  0  0  0
    8.3206  -11.5642   26.5616 C   0  0  0  0  0  0  0  0  0  0  0  0
    7.0764  -11.7869   26.0109 C   0  0  0  0  0  0  0  0  0  0  0  0
    6.4614  -13.0092   26.2754 C   0  0  0  0  0  0  0  0  0  0  0  0
    7.0706  -13.9656   27.0593 C   0  0  0  0  0  0  0  0  0  0  0  0
   10.6754  -16.4581   28.7297 C   0  0  0  0  0  0  0  0  0  0  0  0
   11.6127  -15.9661   29.6193 O   0  0  0  0  0  0  0  0  0  0  0  0
   10.3863  -17.6751   28.7776 O   0  0  0  0  0  0  0  0  0  0  0  0
  2  1  1  0
  3  2  2  0
  4  3  1  0
  5  4  2  0
  5 11  1  0
  6  5  1  0
  7  6  1  0
  7  8  1  1
  9  7  1  0
  9 10  2  0
 11 12  2  0
 12  2  1  0
 13 14  1  0
 14 16  1  0
 15 14  2  0
 16 17  1  0
 18 17  1  6
 18 19  1  0
 18 20  1  0
 19  9  1  0
 20 21  2  0
 20 22  1  0
 22 23  1  0
 23 31  1  0
 23 24  1  1
 25 24  1  0
 25 30  1  0
 26 25  2  0
 27 26  1  0
 27 28  2  0
 28 29  1  0
 29 30  2  0
 31 33  2  0
 31 32  1  0
M  END
$$$$
