YQF.pdb
     RDKit          3D

 33 34  0  0  1  0  0  0  0  0999 V2000
    5.9535  -14.9833   14.0557 O   0  0  0  0  0  0  0  0  0  0  0  0
    6.9193  -15.1540   15.0240 C   0  0  0  0  0  0  0  0  0  0  0  0
    7.3769  -16.4054   15.3641 C   0  0  0  0  0  0  0  0  0  0  0  0
    8.3443  -16.5725   16.3345 C   0  0  0  0  0  0  0  0  0  0  0  0
    8.8875  -15.4929   16.9982 C   0  0  0  0  0  0  0  0  0  0  0  0
    9.9347  -15.6451   18.0517 C   0  0  0  0  0  0  0  0  0  0  0  0
    9.2946  -16.3689   19.2143 C   0  0  2  0  0  0  0  0  0  0  0  0
    8.2183  -15.5339   19.6959 N   0  0  0  0  0  0  0  0  0  0  0  0
   10.2452  -16.6104   20.3139 C   0  0  0  0  0  0  0  0  0  0  0  0
   11.1463  -17.5029   20.2421 O   0  0  0  0  0  0  0  0  0  0  0  0
    8.4373  -14.2377   16.6659 C   0  0  0  0  0  0  0  0  0  0  0  0
    7.4727  -14.0666   15.6989 C   0  0  0  0  0  0  0  0  0  0  0  0
   14.0373  -15.3853   19.8142 N   0  0  0  0  0  0  0  0  0  0  0  0
   13.7794  -14.5308   20.9099 C   0  0  0  0  0  0  0  0  0  0  0  0
   14.7163  -13.9836   21.5284 O   0  0  0  0  0  0  0  0  0  0  0  0
   12.3353  -14.2972   21.3130 C   0  0  0  0  0  0  0  0  0  0  0  0
   12.0715  -14.8783   22.6510 C   0  0  0  0  0  0  0  0  0  0  0  0
   11.0925  -15.9951   22.6309 C   0  0  2  0  0  0  0  0  0  0  0  0
   10.1716  -15.8373   21.4955 N   0  0  0  0  0  0  0  0  0  0  0  0
   10.3287  -16.1608   23.8871 C   0  0  0  0  0  0  0  0  0  0  0  0
   10.9464  -16.1493   25.0210 O   0  0  0  0  0  0  0  0  0  0  0  0
    8.9316  -16.3319   23.9939 N   0  0  0  0  0  0  0  0  0  0  0  0
    8.3002  -16.6986   25.2789 C   0  0  1  0  0  0  0  0  0  0  0  0
    7.0324  -15.8871   25.3269 C   0  0  0  0  0  0  0  0  0  0  0  0
    7.1913  -14.4693   25.6072 C   0  0  0  0  0  0  0  0  0  0  0  0
    7.0785  -13.5841   24.5443 C   0  0  0  0  0  0  0  0  0  0  0  0
    7.2009  -12.2280   24.6714 C   0  0  0  0  0  0  0  0  0  0  0  0
    7.4503  -11.6751   25.9095 C   0  0  0  0  0  0  0  0  0  0  0  0
    7.5679  -12.5430   26.9935 C   0  0  0  0  0  0  0  0  0  0  0  0
    7.4403  -13.9069   26.8394 C   0  0  0  0  0  0  0  0  0  0  0  0
    7.9400  -18.1290   25.2864 C   0  0  0  0  0  0  0  0  0  0  0  0
    8.2016  -18.9649   24.2163 O   0  0  0  0  0  0  0  0  0  0  0  0
    7.3760  -18.6084   26.2959 O   0  0  0  0  0  0  0  0  0  0  0  0
  2  1  1  0
  3  2  2  0
  4  3  1  0
  5  4  2  0
  5 11  1  0
  6  5  1  0
  7  6  1  0
  7  8  1  1
  9  7  1  0
  9 10  2  0
 11 12  2  0
 12  2  1  0
 13 14  1  0
 14 16  1  0
 15 14  2  0
 16 17  1  0
 18 17  1  1
 18 19  1  0
 18 20  1  0
 19  9  1  0
 20 21  2  0
 20 22  1  0
 22 23  1  0
 23 31  1  0
 23 24  1  6
 25 24  1  0
 25 30  1  0
 26 25  2  0
 27 26  1  0
 27 28  2  0
 28 29  1  0
 29 30  2  0
 31 33  2  0
 31 32  1  0
M  END
$$$$
