YQF.pdb
     RDKit          3D

 33 34  0  0  1  0  0  0  0  0999 V2000
    3.8535  -24.1860   25.2510 O   0  0  0  0  0  0  0  0  0  0  0  0
    4.5659  -23.0358   24.9885 C   0  0  0  0  0  0  0  0  0  0  0  0
    5.8568  -22.8772   25.4349 C   0  0  0  0  0  0  0  0  0  0  0  0
    6.5673  -21.7236   25.1701 C   0  0  0  0  0  0  0  0  0  0  0  0
    6.0104  -20.6886   24.4491 C   0  0  0  0  0  0  0  0  0  0  0  0
    6.7561  -19.4303   24.1485 C   0  0  0  0  0  0  0  0  0  0  0  0
    6.7200  -19.2389   22.6494 C   0  0  2  0  0  0  0  0  0  0  0  0
    7.2534  -20.4420   22.0530 N   0  0  0  0  0  0  0  0  0  0  0  0
    7.5283  -18.0866   22.2136 C   0  0  0  0  0  0  0  0  0  0  0  0
    8.7788  -18.1790   22.0100 O   0  0  0  0  0  0  0  0  0  0  0  0
    4.7208  -20.8369   23.9981 C   0  0  0  0  0  0  0  0  0  0  0  0
    4.0087  -21.9855   24.2600 C   0  0  0  0  0  0  0  0  0  0  0  0
    7.7377  -14.2025   19.0151 N   0  0  0  0  0  0  0  0  0  0  0  0
    7.9629  -13.1019   19.8725 C   0  0  0  0  0  0  0  0  0  0  0  0
    8.5982  -12.1023   19.4763 O   0  0  0  0  0  0  0  0  0  0  0  0
    7.4124  -13.1684   21.2849 C   0  0  0  0  0  0  0  0  0  0  0  0
    6.7324  -14.4655   21.5142 C   0  0  0  0  0  0  0  0  0  0  0  0
    7.6647  -15.5757   21.8375 C   0  0  2  0  0  0  0  0  0  0  0  0
    6.9152  -16.8290   22.0092 N   0  0  0  0  0  0  0  0  0  0  0  0
    8.5224  -15.3292   23.0176 C   0  0  0  0  0  0  0  0  0  0  0  0
    9.6037  -14.6347   22.8923 O   0  0  0  0  0  0  0  0  0  0  0  0
    8.2784  -15.7834   24.3317 N   0  0  0  0  0  0  0  0  0  0  0  0
    9.2039  -15.4615   25.4382 C   0  0  1  0  0  0  0  0  0  0  0  0
    8.3089  -15.0483   26.5768 C   0  0  0  0  0  0  0  0  0  0  0  0
    7.7126  -13.7264   26.4736 C   0  0  0  0  0  0  0  0  0  0  0  0
    8.5660  -12.6321   26.4594 C   0  0  0  0  0  0  0  0  0  0  0  0
    8.1364  -11.3374   26.3611 C   0  0  0  0  0  0  0  0  0  0  0  0
    6.7875  -11.0677   26.2693 C   0  0  0  0  0  0  0  0  0  0  0  0
    5.9093  -12.1498   26.2814 C   0  0  0  0  0  0  0  0  0  0  0  0
    6.3673  -13.4461   26.3813 C   0  0  0  0  0  0  0  0  0  0  0  0
    9.9558  -16.6629   25.8471 C   0  0  0  0  0  0  0  0  0  0  0  0
    9.8492  -17.8678   25.1770 O   0  0  0  0  0  0  0  0  0  0  0  0
   10.7191  -16.5945   26.8368 O   0  0  0  0  0  0  0  0  0  0  0  0
  2  1  1  0
  3  2  2  0
  4  3  1  0
  5  4  2  0
  5 11  1  0
  6  5  1  0
  7  6  1  0
  7  8  1  6
  9  7  1  0
  9 10  2  0
 11 12  2  0
 12  2  1  0
 13 14  1  0
 14 16  1  0
 15 14  2  0
 16 17  1  0
 18 17  1  1
 18 19  1  0
 18 20  1  0
 19  9  1  0
 20 21  2  0
 20 22  1  0
 22 23  1  0
 23 31  1  0
 23 24  1  1
 25 24  1  0
 25 30  1  0
 26 25  2  0
 27 26  1  0
 27 28  2  0
 28 29  1  0
 29 30  2  0
 31 33  2  0
 31 32  1  0
M  END
$$$$
