YQF.pdb
     RDKit          3D

 33 34  0  0  1  0  0  0  0  0999 V2000
    7.8526  -11.6213   17.4553 O   0  0  0  0  0  0  0  0  0  0  0  0
    7.7685  -12.3900   18.5962 C   0  0  0  0  0  0  0  0  0  0  0  0
    6.6600  -13.1602   18.8588 C   0  0  0  0  0  0  0  0  0  0  0  0
    6.5793  -13.9289   20.0026 C   0  0  0  0  0  0  0  0  0  0  0  0
    7.6054  -13.9534   20.9234 C   0  0  0  0  0  0  0  0  0  0  0  0
    7.5442  -14.7754   22.1684 C   0  0  0  0  0  0  0  0  0  0  0  0
    8.0678  -16.1502   21.8203 C   0  0  2  0  0  0  0  0  0  0  0  0
    6.9683  -16.8930   21.2487 N   0  0  0  0  0  0  0  0  0  0  0  0
    8.5731  -16.8713   23.0017 C   0  0  0  0  0  0  0  0  0  0  0  0
    7.7984  -17.4890   23.7966 O   0  0  0  0  0  0  0  0  0  0  0  0
    8.7179  -13.1873   20.6705 C   0  0  0  0  0  0  0  0  0  0  0  0
    8.8025  -12.4193   19.5312 C   0  0  0  0  0  0  0  0  0  0  0  0
   12.3412  -21.4614   25.3417 N   0  0  0  0  0  0  0  0  0  0  0  0
   12.9091  -20.3483   24.6817 C   0  0  0  0  0  0  0  0  0  0  0  0
   13.7263  -20.5056   23.7504 O   0  0  0  0  0  0  0  0  0  0  0  0
   12.4991  -18.9594   25.1351 C   0  0  0  0  0  0  0  0  0  0  0  0
   11.8313  -18.2310   24.0301 C   0  0  0  0  0  0  0  0  0  0  0  0
   10.5502  -17.5933   24.4280 C   0  0  2  0  0  0  0  0  0  0  0  0
    9.9593  -16.8905   23.2796 N   0  0  0  0  0  0  0  0  0  0  0  0
   10.6569  -16.6781   25.5856 C   0  0  0  0  0  0  0  0  0  0  0  0
   11.2774  -15.5528   25.4600 O   0  0  0  0  0  0  0  0  0  0  0  0
   10.1259  -16.9025   26.8741 N   0  0  0  0  0  0  0  0  0  0  0  0
   10.4711  -16.0216   28.0096 C   0  0  1  0  0  0  0  0  0  0  0  0
    9.1560  -15.4371   28.4532 C   0  0  0  0  0  0  0  0  0  0  0  0
    8.5793  -14.4263   27.5816 C   0  0  0  0  0  0  0  0  0  0  0  0
    7.5043  -14.7966   26.7859 C   0  0  0  0  0  0  0  0  0  0  0  0
    6.8676  -13.9434   25.9275 C   0  0  0  0  0  0  0  0  0  0  0  0
    7.2907  -12.6355   25.8215 C   0  0  0  0  0  0  0  0  0  0  0  0
    8.3688  -12.2385   26.6103 C   0  0  0  0  0  0  0  0  0  0  0  0
    8.9940  -13.1179   27.4683 C   0  0  0  0  0  0  0  0  0  0  0  0
   11.0309  -16.8112   29.1227 C   0  0  0  0  0  0  0  0  0  0  0  0
   11.5450  -16.2230   30.2637 O   0  0  0  0  0  0  0  0  0  0  0  0
   11.0438  -18.0599   29.0358 O   0  0  0  0  0  0  0  0  0  0  0  0
  2  1  1  0
  3  2  2  0
  4  3  1  0
  5  4  2  0
  5 11  1  0
  6  5  1  0
  7  6  1  0
  7  8  1  1
  9  7  1  0
  9 10  2  0
 11 12  2  0
 12  2  1  0
 13 14  1  0
 14 16  1  0
 15 14  2  0
 16 17  1  0
 18 17  1  6
 18 19  1  0
 18 20  1  0
 19  9  1  0
 20 21  2  0
 20 22  1  0
 22 23  1  0
 23 31  1  0
 23 24  1  1
 25 24  1  0
 25 30  1  0
 26 25  2  0
 27 26  1  0
 27 28  2  0
 28 29  1  0
 29 30  2  0
 31 33  2  0
 31 32  1  0
M  END
$$$$
