GTR.pdb
     RDKit          3D

 23 22  0  0  1  0  0  0  0  0999 V2000
   23.8954  -20.2548  -15.6542 N   0  0  0  0  0  0  0  0  0  0  0  0
   23.7869  -19.2682  -16.6963 C   0  0  0  0  0  0  0  0  0  0  0  0
   23.5067  -17.9327  -16.1108 C   0  0  0  0  0  0  0  0  0  0  0  0
   22.5852  -17.7815  -15.2405 O   0  0  0  0  0  0  0  0  0  0  0  0
   26.2316  -15.4911  -14.6660 C   0  0  0  0  0  0  0  0  0  0  0  0
   25.4208  -14.8141  -15.7145 C   0  0  1  0  0  0  0  0  0  0  0  0
   26.1425  -14.8391  -16.9176 O   0  0  0  0  0  0  0  0  0  0  0  0
   24.1019  -15.4978  -15.9829 C   0  0  2  0  0  0  0  0  0  0  0  0
   24.2837  -16.8209  -16.5362 N   0  0  0  0  0  0  0  0  0  0  0  0
   23.2231  -14.7219  -16.8669 C   0  0  0  0  0  0  0  0  0  0  0  0
   23.1119  -14.9703  -18.0889 O   0  0  0  0  0  0  0  0  0  0  0  0
   15.3448  -11.2043  -15.6563 N   0  0  0  0  0  0  0  0  0  0  0  0
   15.8032  -10.5705  -16.8391 C   0  0  0  0  0  0  0  0  0  0  0  0
   15.0424   -9.8145  -17.5550 N   0  0  0  0  0  0  0  0  0  0  0  0
   17.1561  -10.7606  -17.2762 N   0  0  0  0  0  0  0  0  0  0  0  0
   17.9897  -11.6460  -16.4645 C   0  0  0  0  0  0  0  0  0  0  0  0
   19.3370  -11.7610  -17.1844 C   0  0  0  0  0  0  0  0  0  0  0  0
   20.3031  -12.5920  -16.3859 C   0  0  0  0  0  0  0  0  0  0  0  0
   21.6064  -12.8143  -17.1226 C   0  0  2  0  0  0  0  0  0  0  0  0
   22.4712  -13.6536  -16.3277 N   0  0  0  0  0  0  0  0  0  0  0  0
   22.3126  -11.5409  -17.3875 C   0  0  0  0  0  0  0  0  0  0  0  0
   21.9278  -10.6993  -18.4176 O   0  0  0  0  0  0  0  0  0  0  0  0
   23.2911  -11.2247  -16.6470 O   0  0  0  0  0  0  0  0  0  0  0  0
  2  1  1  0
  3  9  1  0
  3  2  1  0
  4  3  2  0
  6  5  1  1
  7  6  1  0
  8  6  1  0
  8 10  1  0
  8  9  1  6
 10 11  2  0
 13 12  1  0
 13 14  2  0
 15 13  1  0
 16 15  1  0
 17 16  1  0
 18 17  1  0
 19 18  1  1
 19 21  1  0
 20 10  1  0
 20 19  1  0
 21 22  1  0
 23 21  2  0
M  END
$$$$
