GTR.pdb
     RDKit          3D

 23 22  0  0  1  0  0  0  0  0999 V2000
   17.2262  -17.9791  -14.1602 N   0  0  0  0  0  0  0  0  0  0  0  0
   16.6375  -16.8965  -14.9036 C   0  0  0  0  0  0  0  0  0  0  0  0
   17.1666  -15.5957  -14.4209 C   0  0  0  0  0  0  0  0  0  0  0  0
   17.6157  -15.4741  -13.2322 O   0  0  0  0  0  0  0  0  0  0  0  0
   19.9672  -13.6602  -15.8664 C   0  0  0  0  0  0  0  0  0  0  0  0
   18.7966  -12.7411  -15.8509 C   0  0  1  0  0  0  0  0  0  0  0  0
   18.2489  -12.6996  -17.1421 O   0  0  0  0  0  0  0  0  0  0  0  0
   17.6946  -13.1942  -14.9241 C   0  0  2  0  0  0  0  0  0  0  0  0
   17.1651  -14.4838  -15.3066 N   0  0  0  0  0  0  0  0  0  0  0  0
   16.5922  -12.2291  -14.8290 C   0  0  0  0  0  0  0  0  0  0  0  0
   15.5757  -12.2977  -15.5566 O   0  0  0  0  0  0  0  0  0  0  0  0
   12.3367  -10.0592   -8.0769 N   0  0  0  0  0  0  0  0  0  0  0  0
   11.7409  -10.9103   -9.0421 C   0  0  0  0  0  0  0  0  0  0  0  0
   10.6558  -11.5659   -8.8066 N   0  0  0  0  0  0  0  0  0  0  0  0
   12.3466  -11.0647  -10.3331 N   0  0  0  0  0  0  0  0  0  0  0  0
   13.6223  -10.3827  -10.5452 C   0  0  0  0  0  0  0  0  0  0  0  0
   13.9785  -10.5693  -12.0234 C   0  0  0  0  0  0  0  0  0  0  0  0
   15.3006   -9.9276  -12.3422 C   0  0  0  0  0  0  0  0  0  0  0  0
   15.6937  -10.1238  -13.7906 C   0  0  2  0  0  0  0  0  0  0  0  0
   16.6724  -11.1809  -13.8844 N   0  0  0  0  0  0  0  0  0  0  0  0
   16.2809   -8.8961  -14.3723 C   0  0  0  0  0  0  0  0  0  0  0  0
   15.4949   -7.8091  -14.7160 O   0  0  0  0  0  0  0  0  0  0  0  0
   17.5341   -8.8510  -14.5551 O   0  0  0  0  0  0  0  0  0  0  0  0
  2  1  1  0
  3  9  1  0
  3  2  1  0
  4  3  2  0
  6  5  1  6
  7  6  1  0
  8  6  1  0
  8 10  1  0
  8  9  1  6
 10 11  2  0
 13 12  1  0
 13 14  2  0
 15 13  1  0
 16 15  1  0
 17 16  1  0
 18 17  1  0
 19 18  1  1
 19 21  1  0
 20 10  1  0
 20 19  1  0
 21 22  1  0
 23 21  2  0
M  END
$$$$
