GTR.pdb
     RDKit          3D

 23 22  0  0  1  0  0  0  0  0999 V2000
   24.8734  -20.4877   -8.3152 N   0  0  0  0  0  0  0  0  0  0  0  0
   25.3295  -21.2691   -9.4344 C   0  0  0  0  0  0  0  0  0  0  0  0
   25.3410  -20.4412  -10.6670 C   0  0  0  0  0  0  0  0  0  0  0  0
   24.8282  -19.2722  -10.6733 O   0  0  0  0  0  0  0  0  0  0  0  0
   28.4923  -20.2633  -13.1860 C   0  0  0  0  0  0  0  0  0  0  0  0
   27.2181  -20.5719  -13.8905 C   0  0  1  0  0  0  0  0  0  0  0  0
   27.1694  -21.9531  -14.1330 O   0  0  0  0  0  0  0  0  0  0  0  0
   25.9908  -20.2276  -13.0818 C   0  0  2  0  0  0  0  0  0  0  0  0
   25.9343  -20.9728  -11.8444 N   0  0  0  0  0  0  0  0  0  0  0  0
   24.7399  -20.4293  -13.8238 C   0  0  0  0  0  0  0  0  0  0  0  0
   24.0230  -21.4437  -13.6674 O   0  0  0  0  0  0  0  0  0  0  0  0
   20.0001  -14.1982  -18.0972 N   0  0  0  0  0  0  0  0  0  0  0  0
   19.1448  -15.3235  -17.9826 C   0  0  0  0  0  0  0  0  0  0  0  0
   17.9006  -15.2804  -18.3185 N   0  0  0  0  0  0  0  0  0  0  0  0
   19.6569  -16.5649  -17.4784 N   0  0  0  0  0  0  0  0  0  0  0  0
   21.0039  -16.5368  -16.9107 C   0  0  0  0  0  0  0  0  0  0  0  0
   21.2944  -17.9520  -16.4014 C   0  0  0  0  0  0  0  0  0  0  0  0
   22.6944  -18.0516  -15.8614 C   0  0  0  0  0  0  0  0  0  0  0  0
   23.0147  -19.4447  -15.3640 C   0  0  2  0  0  0  0  0  0  0  0  0
   24.3216  -19.4478  -14.7508 N   0  0  0  0  0  0  0  0  0  0  0  0
   23.0170  -20.4345  -16.4642 C   0  0  0  0  0  0  0  0  0  0  0  0
   21.9057  -21.2127  -16.7415 O   0  0  0  0  0  0  0  0  0  0  0  0
   24.0670  -20.5635  -17.1618 O   0  0  0  0  0  0  0  0  0  0  0  0
  2  1  1  0
  3  9  1  0
  3  2  1  0
  4  3  2  0
  6  5  1  1
  7  6  1  0
  8  6  1  0
  8 10  1  0
  8  9  1  1
 10 11  2  0
 13 12  1  0
 13 14  2  0
 15 13  1  0
 16 15  1  0
 17 16  1  0
 18 17  1  0
 19 18  1  6
 19 21  1  0
 20 10  1  0
 20 19  1  0
 21 22  1  0
 23 21  2  0
M  END
$$$$
