GTR.pdb
     RDKit          3D

 23 22  0  0  1  0  0  0  0  0999 V2000
   30.0832  -23.5636  -17.7741 N   0  0  0  0  0  0  0  0  0  0  0  0
   28.9440  -22.7337  -18.0648 C   0  0  0  0  0  0  0  0  0  0  0  0
   28.6057  -21.8963  -16.8862 C   0  0  0  0  0  0  0  0  0  0  0  0
   29.1199  -22.1391  -15.7433 O   0  0  0  0  0  0  0  0  0  0  0  0
   28.5630  -17.9591  -16.7950 C   0  0  0  0  0  0  0  0  0  0  0  0
   27.2476  -18.5082  -16.3667 C   0  0  1  0  0  0  0  0  0  0  0  0
   26.3626  -18.4364  -17.4532 O   0  0  0  0  0  0  0  0  0  0  0  0
   27.3128  -19.9583  -15.9524 C   0  0  2  0  0  0  0  0  0  0  0  0
   27.6967  -20.8159  -17.0510 N   0  0  0  0  0  0  0  0  0  0  0  0
   26.0540  -20.4472  -15.3759 C   0  0  0  0  0  0  0  0  0  0  0  0
   25.1777  -21.0178  -16.0643 O   0  0  0  0  0  0  0  0  0  0  0  0
   23.6305  -21.1922   -6.7865 N   0  0  0  0  0  0  0  0  0  0  0  0
   22.4359  -21.3421   -7.5358 C   0  0  0  0  0  0  0  0  0  0  0  0
   21.2801  -21.4532   -6.9751 N   0  0  0  0  0  0  0  0  0  0  0  0
   22.4879  -21.3742   -8.9690 N   0  0  0  0  0  0  0  0  0  0  0  0
   23.7487  -20.9700   -9.5891 C   0  0  0  0  0  0  0  0  0  0  0  0
   23.5381  -21.0528  -11.1042 C   0  0  0  0  0  0  0  0  0  0  0  0
   24.7750  -20.6208  -11.8425 C   0  0  0  0  0  0  0  0  0  0  0  0
   24.5950  -20.6907  -13.3437 C   0  0  2  0  0  0  0  0  0  0  0  0
   25.8139  -20.2719  -13.9942 N   0  0  0  0  0  0  0  0  0  0  0  0
   23.4974  -19.8130  -13.8075 C   0  0  0  0  0  0  0  0  0  0  0  0
   22.2080  -20.2902  -13.9721 O   0  0  0  0  0  0  0  0  0  0  0  0
   23.7566  -18.5978  -14.0565 O   0  0  0  0  0  0  0  0  0  0  0  0
  2  1  1  0
  3  9  1  0
  3  2  1  0
  4  3  2  0
  6  5  1  6
  7  6  1  0
  8  6  1  0
  8 10  1  0
  8  9  1  6
 10 11  2  0
 13 12  1  0
 13 14  2  0
 15 13  1  0
 16 15  1  0
 17 16  1  0
 18 17  1  0
 19 18  1  1
 19 21  1  0
 20 10  1  0
 20 19  1  0
 21 22  1  0
 23 21  2  0
M  END
$$$$
