GTR.pdb
     RDKit          3D

 23 22  0  0  1  0  0  0  0  0999 V2000
   30.5356  -26.2870  -16.2231 N   0  0  0  0  0  0  0  0  0  0  0  0
   29.4302  -25.8430  -17.0307 C   0  0  0  0  0  0  0  0  0  0  0  0
   29.0198  -24.4734  -16.6298 C   0  0  0  0  0  0  0  0  0  0  0  0
   29.5865  -23.8822  -15.6507 O   0  0  0  0  0  0  0  0  0  0  0  0
   28.9583  -21.5012  -18.9172 C   0  0  0  0  0  0  0  0  0  0  0  0
   27.6049  -21.6037  -18.3066 C   0  0  1  0  0  0  0  0  0  0  0  0
   26.7409  -22.1945  -19.2411 O   0  0  0  0  0  0  0  0  0  0  0  0
   27.5716  -22.4719  -17.0721 C   0  0  2  0  0  0  0  0  0  0  0  0
   27.9819  -23.8286  -17.3562 N   0  0  0  0  0  0  0  0  0  0  0  0
   26.2559  -22.4923  -16.4207 C   0  0  0  0  0  0  0  0  0  0  0  0
   25.3638  -23.3122  -16.7357 O   0  0  0  0  0  0  0  0  0  0  0  0
   26.4553  -20.8383   -9.1327 N   0  0  0  0  0  0  0  0  0  0  0  0
   25.0851  -20.5613   -9.3710 C   0  0  0  0  0  0  0  0  0  0  0  0
   24.1877  -20.6826   -8.4530 N   0  0  0  0  0  0  0  0  0  0  0  0
   24.6564  -20.1294  -10.6699 N   0  0  0  0  0  0  0  0  0  0  0  0
   23.7930  -21.0450  -11.4140 C   0  0  0  0  0  0  0  0  0  0  0  0
   23.5412  -20.3976  -12.7794 C   0  0  0  0  0  0  0  0  0  0  0  0
   24.7830  -20.4318  -13.6270 C   0  0  0  0  0  0  0  0  0  0  0  0
   24.7446  -21.5488  -14.6476 C   0  0  2  0  0  0  0  0  0  0  0  0
   25.9770  -21.5559  -15.3995 N   0  0  0  0  0  0  0  0  0  0  0  0
   23.6226  -21.3861  -15.5990 C   0  0  0  0  0  0  0  0  0  0  0  0
   22.4617  -22.1324  -15.4851 O   0  0  0  0  0  0  0  0  0  0  0  0
   23.7394  -20.5406  -16.5356 O   0  0  0  0  0  0  0  0  0  0  0  0
  2  1  1  0
  3  9  1  0
  3  2  1  0
  4  3  2  0
  6  5  1  6
  7  6  1  0
  8  6  1  0
  8 10  1  0
  8  9  1  6
 10 11  2  0
 13 12  1  0
 13 14  2  0
 15 13  1  0
 16 15  1  0
 17 16  1  0
 18 17  1  0
 19 18  1  1
 19 21  1  0
 20 10  1  0
 20 19  1  0
 21 22  1  0
 23 21  2  0
M  END
$$$$
