GTR.pdb
     RDKit          3D

 23 22  0  0  1  0  0  0  0  0999 V2000
   23.5833  -13.5961  -15.4953 N   0  0  0  0  0  0  0  0  0  0  0  0
   24.0889  -14.1691  -16.7149 C   0  0  0  0  0  0  0  0  0  0  0  0
   24.1491  -15.6483  -16.5999 C   0  0  0  0  0  0  0  0  0  0  0  0
   23.5039  -16.2589  -15.6831 O   0  0  0  0  0  0  0  0  0  0  0  0
   26.7201  -17.9814  -19.3351 C   0  0  0  0  0  0  0  0  0  0  0  0
   25.3521  -18.3677  -18.8944 C   0  0  1  0  0  0  0  0  0  0  0  0
   25.2963  -19.7664  -18.7975 O   0  0  0  0  0  0  0  0  0  0  0  0
   24.9865  -17.8215  -17.5354 C   0  0  2  0  0  0  0  0  0  0  0  0
   24.9394  -16.3766  -17.5303 N   0  0  0  0  0  0  0  0  0  0  0  0
   25.8897  -18.2784  -16.4718 C   0  0  0  0  0  0  0  0  0  0  0  0
   26.9093  -17.6347  -16.1348 O   0  0  0  0  0  0  0  0  0  0  0  0
   24.1105  -21.1337   -8.5516 N   0  0  0  0  0  0  0  0  0  0  0  0
   25.5266  -21.0874   -8.6108 C   0  0  0  0  0  0  0  0  0  0  0  0
   26.2637  -21.1780   -7.5567 N   0  0  0  0  0  0  0  0  0  0  0  0
   26.1867  -20.9353   -9.8752 N   0  0  0  0  0  0  0  0  0  0  0  0
   25.3368  -20.6420  -11.0281 C   0  0  0  0  0  0  0  0  0  0  0  0
   26.2740  -20.4339  -12.2218 C   0  0  0  0  0  0  0  0  0  0  0  0
   25.5006  -20.0369  -13.4489 C   0  0  0  0  0  0  0  0  0  0  0  0
   26.3799  -19.9705  -14.6790 C   0  0  2  0  0  0  0  0  0  0  0  0
   25.6060  -19.4879  -15.7980 N   0  0  0  0  0  0  0  0  0  0  0  0
   26.9297  -21.2979  -15.0342 C   0  0  0  0  0  0  0  0  0  0  0  0
   26.4704  -22.0019  -16.1346 O   0  0  0  0  0  0  0  0  0  0  0  0
   27.8422  -21.7910  -14.3062 O   0  0  0  0  0  0  0  0  0  0  0  0
  2  1  1  0
  3  9  1  0
  3  2  1  0
  4  3  2  0
  6  5  1  1
  7  6  1  0
  8  6  1  0
  8 10  1  0
  8  9  1  6
 10 11  2  0
 13 12  1  0
 13 14  2  0
 15 13  1  0
 16 15  1  0
 17 16  1  0
 18 17  1  0
 19 18  1  1
 19 21  1  0
 20 10  1  0
 20 19  1  0
 21 22  1  0
 23 21  2  0
M  END
$$$$
