GTR.pdb
     RDKit          3D

 23 22  0  0  1  0  0  0  0  0999 V2000
   18.1730  -25.0734   -7.3550 N   0  0  0  0  0  0  0  0  0  0  0  0
   18.6177  -25.2213   -5.9942 C   0  0  0  0  0  0  0  0  0  0  0  0
   17.4576  -25.4615   -5.0990 C   0  0  0  0  0  0  0  0  0  0  0  0
   16.2888  -25.0639   -5.4237 O   0  0  0  0  0  0  0  0  0  0  0  0
   15.9035  -27.6053   -0.8659 C   0  0  0  0  0  0  0  0  0  0  0  0
   16.9995  -27.3258   -1.8332 C   0  0  1  0  0  0  0  0  0  0  0  0
   17.3252  -28.5216   -2.4912 O   0  0  0  0  0  0  0  0  0  0  0  0
   16.6133  -26.3315   -2.9014 C   0  0  2  0  0  0  0  0  0  0  0  0
   17.6698  -26.1436   -3.8700 N   0  0  0  0  0  0  0  0  0  0  0  0
   16.2219  -25.0260   -2.3552 C   0  0  0  0  0  0  0  0  0  0  0  0
   17.0375  -24.2642   -1.7878 O   0  0  0  0  0  0  0  0  0  0  0  0
   12.2868  -20.6556   -7.6440 N   0  0  0  0  0  0  0  0  0  0  0  0
   11.3290  -21.0878   -6.6918 C   0  0  0  0  0  0  0  0  0  0  0  0
   10.0726  -20.8225   -6.8089 N   0  0  0  0  0  0  0  0  0  0  0  0
   11.7464  -21.8484   -5.5495 N   0  0  0  0  0  0  0  0  0  0  0  0
   13.1709  -22.1642   -5.4564 C   0  0  0  0  0  0  0  0  0  0  0  0
   13.3376  -23.0826   -4.2416 C   0  0  0  0  0  0  0  0  0  0  0  0
   14.1501  -22.4115   -3.1687 C   0  0  0  0  0  0  0  0  0  0  0  0
   14.4050  -23.3276   -1.9913 C   0  0  2  0  0  0  0  0  0  0  0  0
   14.8775  -24.6052   -2.4694 N   0  0  0  0  0  0  0  0  0  0  0  0
   13.1778  -23.5558   -1.1961 C   0  0  0  0  0  0  0  0  0  0  0  0
   12.6010  -22.5441   -0.4468 O   0  0  0  0  0  0  0  0  0  0  0  0
   12.6520  -24.7087   -1.2096 O   0  0  0  0  0  0  0  0  0  0  0  0
  2  1  1  0
  3  9  1  0
  3  2  1  0
  4  3  2  0
  6  5  1  1
  7  6  1  0
  8  6  1  0
  8 10  1  0
  8  9  1  6
 10 11  2  0
 13 12  1  0
 13 14  2  0
 15 13  1  0
 16 15  1  0
 17 16  1  0
 18 17  1  0
 19 18  1  6
 19 21  1  0
 20 10  1  0
 20 19  1  0
 21 22  1  0
 23 21  2  0
M  END
$$$$
