GTR.pdb
     RDKit          3D

 23 22  0  0  1  0  0  0  0  0999 V2000
   18.3532  -10.9699  -16.3815 N   0  0  0  0  0  0  0  0  0  0  0  0
   18.6982   -9.6230  -16.0100 C   0  0  0  0  0  0  0  0  0  0  0  0
   18.8064   -9.5103  -14.5333 C   0  0  0  0  0  0  0  0  0  0  0  0
   18.5214  -10.5008  -13.7801 O   0  0  0  0  0  0  0  0  0  0  0  0
   21.8925   -8.3762  -12.6838 C   0  0  0  0  0  0  0  0  0  0  0  0
   20.7638   -7.5298  -12.2097 C   0  0  1  0  0  0  0  0  0  0  0  0
   20.8469   -6.2827  -12.8476 O   0  0  0  0  0  0  0  0  0  0  0  0
   19.4075   -8.1016  -12.5450 C   0  0  2  0  0  0  0  0  0  0  0  0
   19.2341   -8.2775  -13.9693 N   0  0  0  0  0  0  0  0  0  0  0  0
   18.2991   -7.2942  -12.0203 C   0  0  0  0  0  0  0  0  0  0  0  0
   17.8638   -6.2835  -12.6173 O   0  0  0  0  0  0  0  0  0  0  0  0
   11.6706   -9.3630   -6.4415 N   0  0  0  0  0  0  0  0  0  0  0  0
   11.3903   -8.1092   -7.0418 C   0  0  0  0  0  0  0  0  0  0  0  0
   10.2094   -7.5913   -7.0367 N   0  0  0  0  0  0  0  0  0  0  0  0
   12.4395   -7.3710   -7.6836 N   0  0  0  0  0  0  0  0  0  0  0  0
   13.5959   -8.1388   -8.1427 C   0  0  0  0  0  0  0  0  0  0  0  0
   14.5443   -7.1419   -8.8161 C   0  0  0  0  0  0  0  0  0  0  0  0
   15.7511   -7.8432   -9.3760 C   0  0  0  0  0  0  0  0  0  0  0  0
   16.6287   -6.9098  -10.1818 C   0  0  2  0  0  0  0  0  0  0  0  0
   17.6951   -7.6637  -10.7971 N   0  0  0  0  0  0  0  0  0  0  0  0
   17.2341   -5.8570   -9.3359 C   0  0  0  0  0  0  0  0  0  0  0  0
   18.3643   -6.1002   -8.5738 O   0  0  0  0  0  0  0  0  0  0  0  0
   16.6959   -4.7098   -9.3174 O   0  0  0  0  0  0  0  0  0  0  0  0
  2  1  1  0
  3  9  1  0
  3  2  1  0
  4  3  2  0
  6  5  1  6
  7  6  1  0
  8  6  1  0
  8 10  1  0
  8  9  1  6
 10 11  2  0
 13 12  1  0
 13 14  2  0
 15 13  1  0
 16 15  1  0
 17 16  1  0
 18 17  1  0
 19 18  1  1
 19 21  1  0
 20 10  1  0
 20 19  1  0
 21 22  1  0
 23 21  2  0
M  END
$$$$
