GTR.pdb
     RDKit          3D

 23 22  0  0  1  0  0  0  0  0999 V2000
   22.4655  -20.2228  -14.9249 N   0  0  0  0  0  0  0  0  0  0  0  0
   23.1001  -19.5815  -16.0462 C   0  0  0  0  0  0  0  0  0  0  0  0
   23.4551  -18.1812  -15.7024 C   0  0  0  0  0  0  0  0  0  0  0  0
   22.5965  -17.4021  -15.1683 O   0  0  0  0  0  0  0  0  0  0  0  0
   27.0457  -14.8545  -15.0435 C   0  0  0  0  0  0  0  0  0  0  0  0
   26.6377  -16.2301  -15.4387 C   0  0  1  0  0  0  0  0  0  0  0  0
   26.8867  -17.0930  -14.3605 O   0  0  0  0  0  0  0  0  0  0  0  0
   25.1674  -16.3471  -15.7603 C   0  0  2  0  0  0  0  0  0  0  0  0
   24.7712  -17.7202  -15.9784 N   0  0  0  0  0  0  0  0  0  0  0  0
   24.7680  -15.5399  -16.9199 C   0  0  0  0  0  0  0  0  0  0  0  0
   25.0283  -15.8804  -18.0963 O   0  0  0  0  0  0  0  0  0  0  0  0
   17.7208  -10.6649  -17.7782 N   0  0  0  0  0  0  0  0  0  0  0  0
   18.0757  -12.0319  -17.9058 C   0  0  0  0  0  0  0  0  0  0  0  0
   17.1990  -12.9770  -17.8776 N   0  0  0  0  0  0  0  0  0  0  0  0
   19.4512  -12.4029  -18.0734 N   0  0  0  0  0  0  0  0  0  0  0  0
   20.4296  -11.3164  -18.0641 C   0  0  0  0  0  0  0  0  0  0  0  0
   21.7712  -11.9315  -18.4745 C   0  0  0  0  0  0  0  0  0  0  0  0
   22.2582  -12.9013  -17.4334 C   0  0  0  0  0  0  0  0  0  0  0  0
   23.6091  -13.4849  -17.7870 C   0  0  2  0  0  0  0  0  0  0  0  0
   24.0636  -14.3327  -16.7105 N   0  0  0  0  0  0  0  0  0  0  0  0
   24.6238  -12.4299  -18.0056 C   0  0  0  0  0  0  0  0  0  0  0  0
   24.7445  -11.7812  -19.2230 O   0  0  0  0  0  0  0  0  0  0  0  0
   25.3946  -12.1220  -17.0479 O   0  0  0  0  0  0  0  0  0  0  0  0
  2  1  1  0
  3  9  1  0
  3  2  1  0
  4  3  2  0
  6  5  1  1
  7  6  1  0
  8  6  1  0
  8 10  1  0
  8  9  1  6
 10 11  2  0
 13 12  1  0
 13 14  2  0
 15 13  1  0
 16 15  1  0
 17 16  1  0
 18 17  1  0
 19 18  1  1
 19 21  1  0
 20 10  1  0
 20 19  1  0
 21 22  1  0
 23 21  2  0
M  END
$$$$
