GTR.pdb
     RDKit          3D

 23 22  0  0  1  0  0  0  0  0999 V2000
   31.6007  -19.0460  -20.3264 N   0  0  0  0  0  0  0  0  0  0  0  0
   30.2219  -19.4023  -20.1187 C   0  0  0  0  0  0  0  0  0  0  0  0
   29.6586  -18.6307  -18.9818 C   0  0  0  0  0  0  0  0  0  0  0  0
   30.4156  -17.9320  -18.2280 O   0  0  0  0  0  0  0  0  0  0  0  0
   27.4464  -15.8444  -19.0802 C   0  0  0  0  0  0  0  0  0  0  0  0
   26.7261  -16.8401  -18.2406 C   0  0  1  0  0  0  0  0  0  0  0  0
   25.7652  -17.4799  -19.0383 O   0  0  0  0  0  0  0  0  0  0  0  0
   27.6264  -17.9203  -17.6916 C   0  0  2  0  0  0  0  0  0  0  0  0
   28.2579  -18.6824  -18.7453 N   0  0  0  0  0  0  0  0  0  0  0  0
   26.9308  -18.8393  -16.7820 C   0  0  0  0  0  0  0  0  0  0  0  0
   26.3545  -19.8749  -17.1858 O   0  0  0  0  0  0  0  0  0  0  0  0
   26.7531  -20.0282   -8.6648 N   0  0  0  0  0  0  0  0  0  0  0  0
   25.6710  -20.7630   -9.2125 C   0  0  0  0  0  0  0  0  0  0  0  0
   24.5081  -20.7948   -8.6563 N   0  0  0  0  0  0  0  0  0  0  0  0
   25.8500  -21.5050  -10.4270 N   0  0  0  0  0  0  0  0  0  0  0  0
   26.6424  -20.8653  -11.4760 C   0  0  0  0  0  0  0  0  0  0  0  0
   25.8238  -19.6712  -11.9768 C   0  0  0  0  0  0  0  0  0  0  0  0
   26.5763  -18.9095  -13.0328 C   0  0  0  0  0  0  0  0  0  0  0  0
   26.2467  -19.3948  -14.4280 C   0  0  2  0  0  0  0  0  0  0  0  0
   26.9055  -18.5530  -15.3983 N   0  0  0  0  0  0  0  0  0  0  0  0
   24.7913  -19.3568  -14.6941 C   0  0  0  0  0  0  0  0  0  0  0  0
   24.0043  -20.4907  -14.5835 O   0  0  0  0  0  0  0  0  0  0  0  0
   24.2649  -18.2542  -15.0303 O   0  0  0  0  0  0  0  0  0  0  0  0
  2  1  1  0
  3  9  1  0
  3  2  1  0
  4  3  2  0
  6  5  1  6
  7  6  1  0
  8  6  1  0
  8 10  1  0
  8  9  1  6
 10 11  2  0
 13 12  1  0
 13 14  2  0
 15 13  1  0
 16 15  1  0
 17 16  1  0
 18 17  1  0
 19 18  1  1
 19 21  1  0
 20 10  1  0
 20 19  1  0
 21 22  1  0
 23 21  2  0
M  END
$$$$
