GTR.pdb
     RDKit          3D

 23 22  0  0  1  0  0  0  0  0999 V2000
   14.6022  -12.9088  -14.7969 N   0  0  0  0  0  0  0  0  0  0  0  0
   14.3222  -11.5011  -14.6923 C   0  0  0  0  0  0  0  0  0  0  0  0
   15.3076  -10.7221  -15.4842 C   0  0  0  0  0  0  0  0  0  0  0  0
   15.5848  -11.0499  -16.6864 O   0  0  0  0  0  0  0  0  0  0  0  0
   15.7492   -6.6368  -14.6018 C   0  0  0  0  0  0  0  0  0  0  0  0
   16.0630   -7.3620  -15.8631 C   0  0  1  0  0  0  0  0  0  0  0  0
   16.9345   -6.5690  -16.6250 O   0  0  0  0  0  0  0  0  0  0  0  0
   16.7606   -8.6812  -15.6351 C   0  0  2  0  0  0  0  0  0  0  0  0
   15.9400   -9.6013  -14.8803 N   0  0  0  0  0  0  0  0  0  0  0  0
   18.0601   -8.5349  -14.9676 C   0  0  0  0  0  0  0  0  0  0  0  0
   18.1638   -8.3534  -13.7332 O   0  0  0  0  0  0  0  0  0  0  0  0
   24.3582  -12.8437  -16.0678 N   0  0  0  0  0  0  0  0  0  0  0  0
   23.7887  -12.1289  -17.1521 C   0  0  0  0  0  0  0  0  0  0  0  0
   23.6477  -12.6503  -18.3230 N   0  0  0  0  0  0  0  0  0  0  0  0
   23.3459  -10.7773  -16.9661 N   0  0  0  0  0  0  0  0  0  0  0  0
   23.6025  -10.1768  -15.6580 C   0  0  0  0  0  0  0  0  0  0  0  0
   22.9992   -8.7692  -15.6961 C   0  0  0  0  0  0  0  0  0  0  0  0
   21.5968   -8.8006  -16.2382 C   0  0  0  0  0  0  0  0  0  0  0  0
   20.5659   -8.5221  -15.1658 C   0  0  2  0  0  0  0  0  0  0  0  0
   19.2430   -8.6000  -15.7384 N   0  0  0  0  0  0  0  0  0  0  0  0
   20.7363   -7.1757  -14.5754 C   0  0  0  0  0  0  0  0  0  0  0  0
   21.3935   -6.9903  -13.3707 O   0  0  0  0  0  0  0  0  0  0  0  0
   20.2652   -6.1769  -15.1968 O   0  0  0  0  0  0  0  0  0  0  0  0
  2  1  1  0
  3  9  1  0
  3  2  1  0
  4  3  2  0
  6  5  1  1
  7  6  1  0
  8  6  1  0
  8 10  1  0
  8  9  1  1
 10 11  2  0
 13 12  1  0
 13 14  2  0
 15 13  1  0
 16 15  1  0
 17 16  1  0
 18 17  1  0
 19 18  1  6
 19 21  1  0
 20 10  1  0
 20 19  1  0
 21 22  1  0
 23 21  2  0
M  END
$$$$
