GTR.pdb
     RDKit          3D

 23 22  0  0  1  0  0  0  0  0999 V2000
   24.1148  -20.7838   -7.9085 N   0  0  0  0  0  0  0  0  0  0  0  0
   24.2771  -21.3198   -9.2343 C   0  0  0  0  0  0  0  0  0  0  0  0
   25.2233  -20.4820  -10.0138 C   0  0  0  0  0  0  0  0  0  0  0  0
   25.6802  -19.3919   -9.5315 O   0  0  0  0  0  0  0  0  0  0  0  0
   28.5205  -21.5849  -11.6322 C   0  0  0  0  0  0  0  0  0  0  0  0
   27.6370  -21.0155  -12.6859 C   0  0  1  0  0  0  0  0  0  0  0  0
   27.0238  -22.0758  -13.3705 O   0  0  0  0  0  0  0  0  0  0  0  0
   26.5277  -20.1539  -12.1328 C   0  0  2  0  0  0  0  0  0  0  0  0
   25.6138  -20.9144  -11.3104 N   0  0  0  0  0  0  0  0  0  0  0  0
   25.7689  -19.4552  -13.1777 C   0  0  0  0  0  0  0  0  0  0  0  0
   24.6448  -19.8466  -13.5660 O   0  0  0  0  0  0  0  0  0  0  0  0
   26.7289  -13.2339  -17.9475 N   0  0  0  0  0  0  0  0  0  0  0  0
   25.3368  -12.9952  -17.8204 C   0  0  0  0  0  0  0  0  0  0  0  0
   24.6262  -12.5291  -18.7901 N   0  0  0  0  0  0  0  0  0  0  0  0
   24.6720  -13.2738  -16.5802 N   0  0  0  0  0  0  0  0  0  0  0  0
   25.4580  -13.9557  -15.5531 C   0  0  0  0  0  0  0  0  0  0  0  0
   25.7045  -15.3790  -16.0632 C   0  0  0  0  0  0  0  0  0  0  0  0
   26.3628  -16.2218  -15.0058 C   0  0  0  0  0  0  0  0  0  0  0  0
   25.6440  -17.5373  -14.7976 C   0  0  2  0  0  0  0  0  0  0  0  0
   26.3194  -18.2976  -13.7729 N   0  0  0  0  0  0  0  0  0  0  0  0
   25.6153  -18.3501  -16.0341 C   0  0  0  0  0  0  0  0  0  0  0  0
   24.5637  -18.2681  -16.9313 O   0  0  0  0  0  0  0  0  0  0  0  0
   26.5821  -19.1359  -16.2659 O   0  0  0  0  0  0  0  0  0  0  0  0
  2  1  1  0
  3  9  1  0
  3  2  1  0
  4  3  2  0
  6  5  1  1
  7  6  1  0
  8  6  1  0
  8 10  1  0
  8  9  1  6
 10 11  2  0
 13 12  1  0
 13 14  2  0
 15 13  1  0
 16 15  1  0
 17 16  1  0
 18 17  1  0
 19 18  1  6
 19 21  1  0
 20 10  1  0
 20 19  1  0
 21 22  1  0
 23 21  2  0
M  END
$$$$
