QQW.pdb
     RDKit          3D

 33 34  0  0  1  0  0  0  0  0999 V2000
   15.9619  -17.5597   19.3830 N   0  0  0  0  0  0  0  0  0  0  0  0
   15.4062  -18.8742   19.1988 C   0  0  0  0  0  0  0  0  0  0  0  0
   16.0353  -19.6754   18.4726 O   0  0  0  0  0  0  0  0  0  0  0  0
   14.1491  -19.1570   19.8838 C   0  0  0  0  0  0  0  0  0  0  0  0
   13.6467  -17.9565   20.6347 C   0  0  0  0  0  0  0  0  0  0  0  0
   12.6262  -18.3421   21.6382 C   0  0  2  0  0  0  0  0  0  0  0  0
   11.7892  -19.4455   21.2067 N   0  0  0  0  0  0  0  0  0  0  0  0
   11.7293  -17.2154   22.0240 C   0  0  0  0  0  0  0  0  0  0  0  0
   12.2586  -16.1537   22.4030 O   0  0  0  0  0  0  0  0  0  0  0  0
    6.0662  -17.8469   20.1262 N   0  0  0  0  0  0  0  0  0  0  0  0
    6.3336  -16.4635   20.0168 C   0  0  0  0  0  0  0  0  0  0  0  0
    5.7253  -15.7226   19.1868 O   0  0  0  0  0  0  0  0  0  0  0  0
    7.3562  -15.8526   20.8974 C   0  0  0  0  0  0  0  0  0  0  0  0
    7.9117  -16.8353   21.8953 C   0  0  0  0  0  0  0  0  0  0  0  0
    9.3105  -16.4354   22.3203 C   0  0  2  0  0  0  0  0  0  0  0  0
   10.3339  -17.3649   21.9556 N   0  0  0  0  0  0  0  0  0  0  0  0
    9.4135  -15.8971   23.6691 C   0  0  0  0  0  0  0  0  0  0  0  0
    8.9331  -14.7756   24.0132 O   0  0  0  0  0  0  0  0  0  0  0  0
   10.0785  -16.6330   24.6846 N   0  0  0  0  0  0  0  0  0  0  0  0
   10.1295  -16.1110   26.0647 C   0  0  1  0  0  0  0  0  0  0  0  0
    8.8165  -16.4428   26.7207 C   0  0  0  0  0  0  0  0  0  0  0  0
    7.7390  -15.5634   26.2411 C   0  0  0  0  0  0  0  0  0  0  0  0
    6.6081  -16.0091   25.5594 C   0  0  0  0  0  0  0  0  0  0  0  0
    5.8156  -14.9734   25.3196 N   0  0  0  0  0  0  0  0  0  0  0  0
    6.3885  -13.8614   25.8203 C   0  0  0  0  0  0  0  0  0  0  0  0
    5.9810  -12.5531   25.8207 C   0  0  0  0  0  0  0  0  0  0  0  0
    6.7635  -11.5710   26.3946 C   0  0  0  0  0  0  0  0  0  0  0  0
    7.9542  -11.9236   26.9636 C   0  0  0  0  0  0  0  0  0  0  0  0
    8.3774  -13.2241   26.9731 C   0  0  0  0  0  0  0  0  0  0  0  0
    7.5982  -14.2230   26.4003 C   0  0  0  0  0  0  0  0  0  0  0  0
   11.3027  -16.6833   26.7055 C   0  0  0  0  0  0  0  0  0  0  0  0
   11.5344  -16.4548   27.9173 O   0  0  0  0  0  0  0  0  0  0  0  0
   12.2229  -17.4993   26.0631 O   0  0  0  0  0  0  0  0  0  0  0  0
  2  1  1  0
  3  2  2  0
  4  2  1  0
  5  4  1  0
  6  5  1  0
  6  7  1  6
  8  9  2  0
  8  6  1  0
 10 11  1  0
 11 12  2  0
 11 13  1  0
 13 14  1  0
 15 14  1  1
 15 16  1  0
 16  8  1  0
 17 15  1  0
 17 19  1  0
 18 17  2  0
 20 19  1  0
 20 31  1  0
 20 21  1  1
 22 21  1  0
 23 22  2  0
 24 23  1  0
 24 25  1  0
 25 30  2  0
 26 25  1  0
 26 27  2  0
 27 28  1  0
 28 29  2  0
 30 22  1  0
 30 29  1  0
 31 33  1  0
 32 31  2  0
M  END
$$$$
