QQW.pdb
     RDKit          3D

 33 34  0  0  1  0  0  0  0  0999 V2000
    6.9418  -14.5719   15.5070 N   0  0  0  0  0  0  0  0  0  0  0  0
    8.3122  -14.5338   15.9440 C   0  0  0  0  0  0  0  0  0  0  0  0
    9.1996  -14.7890   15.0998 O   0  0  0  0  0  0  0  0  0  0  0  0
    8.5452  -14.1956   17.3442 C   0  0  0  0  0  0  0  0  0  0  0  0
    7.2598  -14.1376   18.1201 C   0  0  0  0  0  0  0  0  0  0  0  0
    7.5054  -13.7707   19.5350 C   0  0  2  0  0  0  0  0  0  0  0  0
    8.3463  -12.5980   19.6834 N   0  0  0  0  0  0  0  0  0  0  0  0
    8.1200  -14.8736   20.3278 C   0  0  0  0  0  0  0  0  0  0  0  0
    9.3504  -14.8381   20.5174 O   0  0  0  0  0  0  0  0  0  0  0  0
    6.1607  -20.4801   20.5476 N   0  0  0  0  0  0  0  0  0  0  0  0
    7.0947  -20.3108   21.5946 C   0  0  0  0  0  0  0  0  0  0  0  0
    6.9158  -20.8118   22.7456 O   0  0  0  0  0  0  0  0  0  0  0  0
    8.3248  -19.5237   21.3463 C   0  0  0  0  0  0  0  0  0  0  0  0
    8.0502  -18.2659   20.5635 C   0  0  0  0  0  0  0  0  0  0  0  0
    7.7221  -17.1157   21.4944 C   0  0  2  0  0  0  0  0  0  0  0  0
    7.3211  -15.9112   20.8367 N   0  0  0  0  0  0  0  0  0  0  0  0
    8.6487  -16.9381   22.6032 C   0  0  0  0  0  0  0  0  0  0  0  0
    9.0202  -17.8828   23.3624 O   0  0  0  0  0  0  0  0  0  0  0  0
    9.1894  -15.6564   22.8858 N   0  0  0  0  0  0  0  0  0  0  0  0
    9.9936  -15.4445   24.1057 C   0  0  1  0  0  0  0  0  0  0  0  0
    9.1720  -15.9165   25.2746 C   0  0  0  0  0  0  0  0  0  0  0  0
    7.9426  -15.1222   25.4227 C   0  0  0  0  0  0  0  0  0  0  0  0
    6.6547  -15.6413   25.3052 C   0  0  0  0  0  0  0  0  0  0  0  0
    5.7788  -14.6754   25.5467 N   0  0  0  0  0  0  0  0  0  0  0  0
    6.4484  -13.5382   25.8182 C   0  0  0  0  0  0  0  0  0  0  0  0
    6.0073  -12.2757   26.1170 C   0  0  0  0  0  0  0  0  0  0  0  0
    6.9041  -11.2511   26.3455 C   0  0  0  0  0  0  0  0  0  0  0  0
    8.2422  -11.5150   26.2685 C   0  0  0  0  0  0  0  0  0  0  0  0
    8.7012  -12.7686   25.9718 C   0  0  0  0  0  0  0  0  0  0  0  0
    7.8089  -13.8098   25.7414 C   0  0  0  0  0  0  0  0  0  0  0  0
   11.2594  -16.1361   23.9205 C   0  0  0  0  0  0  0  0  0  0  0  0
   11.4450  -16.8515   22.9065 O   0  0  0  0  0  0  0  0  0  0  0  0
   12.3252  -16.0636   24.8059 O   0  0  0  0  0  0  0  0  0  0  0  0
  2  1  1  0
  3  2  2  0
  4  2  1  0
  5  4  1  0
  6  5  1  0
  6  7  1  6
  8  9  2  0
  8  6  1  0
 10 11  1  0
 11 12  2  0
 11 13  1  0
 13 14  1  0
 15 14  1  6
 15 16  1  0
 16  8  1  0
 17 15  1  0
 17 19  1  0
 18 17  2  0
 20 19  1  0
 20 31  1  0
 20 21  1  1
 22 21  1  0
 23 22  2  0
 24 23  1  0
 24 25  1  0
 25 30  2  0
 26 25  1  0
 26 27  2  0
 27 28  1  0
 28 29  2  0
 30 22  1  0
 30 29  1  0
 31 33  1  0
 32 31  2  0
M  END
$$$$
