QQW.pdb
     RDKit          3D

 33 34  0  0  1  0  0  0  0  0999 V2000
    7.0767  -15.5942   15.2679 N   0  0  0  0  0  0  0  0  0  0  0  0
    8.2165  -14.7579   15.5359 C   0  0  0  0  0  0  0  0  0  0  0  0
    9.2429  -14.9331   14.8423 O   0  0  0  0  0  0  0  0  0  0  0  0
    8.0701  -13.7706   16.6004 C   0  0  0  0  0  0  0  0  0  0  0  0
    7.3490  -14.3417   17.7885 C   0  0  0  0  0  0  0  0  0  0  0  0
    7.9168  -13.8264   19.0570 C   0  0  2  0  0  0  0  0  0  0  0  0
    8.7224  -12.6333   18.8791 N   0  0  0  0  0  0  0  0  0  0  0  0
    8.7478  -14.8324   19.7780 C   0  0  0  0  0  0  0  0  0  0  0  0
    8.2675  -15.9686   19.9496 O   0  0  0  0  0  0  0  0  0  0  0  0
   14.1403  -14.1701   17.5541 N   0  0  0  0  0  0  0  0  0  0  0  0
   14.0525  -14.0497   18.9594 C   0  0  0  0  0  0  0  0  0  0  0  0
   15.0816  -13.9490   19.6934 O   0  0  0  0  0  0  0  0  0  0  0  0
   12.7181  -14.0399   19.6025 C   0  0  0  0  0  0  0  0  0  0  0  0
   12.3397  -15.3899   20.1543 C   0  0  0  0  0  0  0  0  0  0  0  0
   11.0076  -15.3211   20.8740 C   0  0  2  0  0  0  0  0  0  0  0  0
   10.0296  -14.4917   20.2417 N   0  0  0  0  0  0  0  0  0  0  0  0
   11.0963  -15.1830   22.3206 C   0  0  0  0  0  0  0  0  0  0  0  0
   11.5096  -14.1335   22.8990 O   0  0  0  0  0  0  0  0  0  0  0  0
   10.7099  -16.2552   23.1669 N   0  0  0  0  0  0  0  0  0  0  0  0
    9.8641  -15.9974   24.3493 C   0  0  1  0  0  0  0  0  0  0  0  0
    8.6733  -15.2023   23.8868 C   0  0  0  0  0  0  0  0  0  0  0  0
    7.8209  -14.8042   25.0179 C   0  0  0  0  0  0  0  0  0  0  0  0
    6.8788  -15.6357   25.6205 C   0  0  0  0  0  0  0  0  0  0  0  0
    6.3247  -14.9902   26.6376 N   0  0  0  0  0  0  0  0  0  0  0  0
    6.8708  -13.7613   26.7229 C   0  0  0  0  0  0  0  0  0  0  0  0
    6.6343  -12.7220   27.5842 C   0  0  0  0  0  0  0  0  0  0  0  0
    7.3234  -11.5321   27.4593 C   0  0  0  0  0  0  0  0  0  0  0  0
    8.2471  -11.4053   26.4611 C   0  0  0  0  0  0  0  0  0  0  0  0
    8.4969  -12.4316   25.5923 C   0  0  0  0  0  0  0  0  0  0  0  0
    7.8114  -13.6357   25.7081 C   0  0  0  0  0  0  0  0  0  0  0  0
    9.5522  -17.2835   24.9523 C   0  0  0  0  0  0  0  0  0  0  0  0
    8.9810  -17.3352   26.0683 O   0  0  0  0  0  0  0  0  0  0  0  0
    9.8410  -18.5092   24.3697 O   0  0  0  0  0  0  0  0  0  0  0  0
  2  1  1  0
  3  2  2  0
  4  2  1  0
  5  4  1  0
  6  5  1  0
  6  7  1  6
  8  9  2  0
  8  6  1  0
 10 11  1  0
 11 12  2  0
 11 13  1  0
 13 14  1  0
 15 14  1  6
 15 16  1  0
 16  8  1  0
 17 15  1  0
 17 19  1  0
 18 17  2  0
 20 19  1  0
 20 31  1  0
 20 21  1  6
 22 21  1  0
 23 22  2  0
 24 23  1  0
 24 25  1  0
 25 30  2  0
 26 25  1  0
 26 27  2  0
 27 28  1  0
 28 29  2  0
 30 22  1  0
 30 29  1  0
 31 33  1  0
 32 31  2  0
M  END
$$$$
