QQW.pdb
     RDKit          3D

 33 34  0  0  1  0  0  0  0  0999 V2000
   11.2489  -22.2794   19.0865 N   0  0  0  0  0  0  0  0  0  0  0  0
    9.8139  -22.3068   18.9845 C   0  0  0  0  0  0  0  0  0  0  0  0
    9.2779  -23.3700   18.6004 O   0  0  0  0  0  0  0  0  0  0  0  0
    9.1071  -21.0817   19.3438 C   0  0  0  0  0  0  0  0  0  0  0  0
   10.0529  -20.0205   19.8304 C   0  0  0  0  0  0  0  0  0  0  0  0
    9.5748  -19.4186   21.0978 C   0  0  2  0  0  0  0  0  0  0  0  0
    8.1284  -19.3643   21.1944 N   0  0  0  0  0  0  0  0  0  0  0  0
   10.0974  -18.0410   21.3255 C   0  0  0  0  0  0  0  0  0  0  0  0
   11.3104  -17.8389   21.1290 O   0  0  0  0  0  0  0  0  0  0  0  0
    7.3746  -12.6702   19.9776 N   0  0  0  0  0  0  0  0  0  0  0  0
    7.7394  -13.8448   19.2816 C   0  0  0  0  0  0  0  0  0  0  0  0
    7.3710  -14.0634   18.0881 O   0  0  0  0  0  0  0  0  0  0  0  0
    8.5793  -14.8574   19.9622 C   0  0  0  0  0  0  0  0  0  0  0  0
    8.6702  -14.6199   21.4473 C   0  0  0  0  0  0  0  0  0  0  0  0
    9.5457  -15.6674   22.1055 C   0  0  2  0  0  0  0  0  0  0  0  0
    9.2341  -17.0163   21.7481 N   0  0  0  0  0  0  0  0  0  0  0  0
    9.8124  -15.4462   23.5196 C   0  0  0  0  0  0  0  0  0  0  0  0
   10.3228  -14.3797   23.9766 O   0  0  0  0  0  0  0  0  0  0  0  0
    9.5000  -16.4508   24.4725 N   0  0  0  0  0  0  0  0  0  0  0  0
    9.9010  -16.2834   25.8836 C   0  0  1  0  0  0  0  0  0  0  0  0
    8.6458  -16.2953   26.7132 C   0  0  0  0  0  0  0  0  0  0  0  0
    7.6406  -15.3627   26.1800 C   0  0  0  0  0  0  0  0  0  0  0  0
    6.5173  -15.7522   25.4529 C   0  0  0  0  0  0  0  0  0  0  0  0
    5.7947  -14.6768   25.1706 N   0  0  0  0  0  0  0  0  0  0  0  0
    6.4063  -13.5931   25.6873 C   0  0  0  0  0  0  0  0  0  0  0  0
    6.0725  -12.2643   25.6596 C   0  0  0  0  0  0  0  0  0  0  0  0
    6.8828  -11.3212   26.2598 C   0  0  0  0  0  0  0  0  0  0  0  0
    8.0263  -11.7331   26.8831 C   0  0  0  0  0  0  0  0  0  0  0  0
    8.3757  -13.0549   26.9212 C   0  0  0  0  0  0  0  0  0  0  0  0
    7.5677  -14.0151   26.3226 C   0  0  0  0  0  0  0  0  0  0  0  0
   10.8571  -17.3343   26.1939 C   0  0  0  0  0  0  0  0  0  0  0  0
   11.3484  -17.4205   27.3453 O   0  0  0  0  0  0  0  0  0  0  0  0
   11.2852  -18.2927   25.2866 O   0  0  0  0  0  0  0  0  0  0  0  0
  2  1  1  0
  3  2  2  0
  4  2  1  0
  5  4  1  0
  6  5  1  0
  6  7  1  6
  8  9  2  0
  8  6  1  0
 10 11  1  0
 11 12  2  0
 11 13  1  0
 13 14  1  0
 15 14  1  1
 15 16  1  0
 16  8  1  0
 17 15  1  0
 17 19  1  0
 18 17  2  0
 20 19  1  0
 20 31  1  0
 20 21  1  1
 22 21  1  0
 23 22  2  0
 24 23  1  0
 24 25  1  0
 25 30  2  0
 26 25  1  0
 26 27  2  0
 27 28  1  0
 28 29  2  0
 30 22  1  0
 30 29  1  0
 31 33  1  0
 32 31  2  0
M  END
$$$$
