QQW.pdb
     RDKit          3D

 33 34  0  0  1  0  0  0  0  0999 V2000
    6.6380  -12.6333   17.1325 N   0  0  0  0  0  0  0  0  0  0  0  0
    7.7449  -13.4172   16.6522 C   0  0  0  0  0  0  0  0  0  0  0  0
    7.6660  -13.8884   15.4959 O   0  0  0  0  0  0  0  0  0  0  0  0
    8.8704  -13.5913   17.5646 C   0  0  0  0  0  0  0  0  0  0  0  0
    8.5052  -14.4629   18.7327 C   0  0  0  0  0  0  0  0  0  0  0  0
    9.6289  -14.5678   19.6935 C   0  0  2  0  0  0  0  0  0  0  0  0
   10.8560  -15.0484   19.0871 N   0  0  0  0  0  0  0  0  0  0  0  0
    9.3233  -15.4466   20.8584 C   0  0  0  0  0  0  0  0  0  0  0  0
    8.2642  -15.2408   21.4805 O   0  0  0  0  0  0  0  0  0  0  0  0
   11.8138  -21.1756   21.4622 N   0  0  0  0  0  0  0  0  0  0  0  0
   10.9701  -20.5754   20.5004 C   0  0  0  0  0  0  0  0  0  0  0  0
   10.7822  -21.0866   19.3553 O   0  0  0  0  0  0  0  0  0  0  0  0
   10.2798  -19.3080   20.8341 C   0  0  0  0  0  0  0  0  0  0  0  0
   10.7732  -18.7117   22.1268 C   0  0  0  0  0  0  0  0  0  0  0  0
   10.1588  -17.3453   22.3562 C   0  0  2  0  0  0  0  0  0  0  0  0
   10.2134  -16.4690   21.2278 N   0  0  0  0  0  0  0  0  0  0  0  0
   10.4853  -16.7308   23.6351 C   0  0  0  0  0  0  0  0  0  0  0  0
   11.3591  -15.8227   23.7719 O   0  0  0  0  0  0  0  0  0  0  0  0
    9.8144  -17.1394   24.8174 N   0  0  0  0  0  0  0  0  0  0  0  0
   10.1418  -16.5069   26.1108 C   0  0  1  0  0  0  0  0  0  0  0  0
    9.8628  -15.0345   25.9758 C   0  0  0  0  0  0  0  0  0  0  0  0
    8.4173  -14.7617   25.9514 C   0  0  0  0  0  0  0  0  0  0  0  0
    7.4444  -15.7147   25.6557 C   0  0  0  0  0  0  0  0  0  0  0  0
    6.2472  -15.1566   25.7731 N   0  0  0  0  0  0  0  0  0  0  0  0
    6.4011  -13.8679   26.1351 C   0  0  0  0  0  0  0  0  0  0  0  0
    5.4846  -12.8765   26.3697 C   0  0  0  0  0  0  0  0  0  0  0  0
    5.8948  -11.6058   26.7209 C   0  0  0  0  0  0  0  0  0  0  0  0
    7.2322  -11.3501   26.8308 C   0  0  0  0  0  0  0  0  0  0  0  0
    8.1615  -12.3268   26.6008 C   0  0  0  0  0  0  0  0  0  0  0  0
    7.7619  -13.6111   26.2485 C   0  0  0  0  0  0  0  0  0  0  0  0
    9.3727  -17.1901   27.1386 C   0  0  0  0  0  0  0  0  0  0  0  0
    8.5162  -18.0496   26.8191 O   0  0  0  0  0  0  0  0  0  0  0  0
    9.5166  -16.9651   28.5001 O   0  0  0  0  0  0  0  0  0  0  0  0
  2  1  1  0
  3  2  2  0
  4  2  1  0
  5  4  1  0
  6  5  1  0
  6  7  1  6
  8  9  2  0
  8  6  1  0
 10 11  1  0
 11 12  2  0
 11 13  1  0
 13 14  1  0
 15 14  1  6
 15 16  1  0
 16  8  1  0
 17 15  1  0
 17 19  1  0
 18 17  2  0
 20 19  1  0
 20 31  1  0
 20 21  1  6
 22 21  1  0
 23 22  2  0
 24 23  1  0
 24 25  1  0
 25 30  2  0
 26 25  1  0
 26 27  2  0
 27 28  1  0
 28 29  2  0
 30 22  1  0
 30 29  1  0
 31 33  1  0
 32 31  2  0
M  END
$$$$
