QQW.pdb
     RDKit          3D

 33 34  0  0  1  0  0  0  0  0999 V2000
    9.2624  -13.1361   17.0353 N   0  0  0  0  0  0  0  0  0  0  0  0
    8.5185  -13.8249   16.0142 C   0  0  0  0  0  0  0  0  0  0  0  0
    8.2008  -13.1799   14.9904 O   0  0  0  0  0  0  0  0  0  0  0  0
    8.2013  -15.2268   16.2664 C   0  0  0  0  0  0  0  0  0  0  0  0
    8.7043  -15.6742   17.6097 C   0  0  0  0  0  0  0  0  0  0  0  0
    8.3274  -17.0820   17.8800 C   0  0  2  0  0  0  0  0  0  0  0  0
    7.4495  -17.6423   16.8701 N   0  0  0  0  0  0  0  0  0  0  0  0
    7.6718  -17.2685   19.2059 C   0  0  0  0  0  0  0  0  0  0  0  0
    6.5572  -16.7419   19.3831 O   0  0  0  0  0  0  0  0  0  0  0  0
    7.2124  -22.0168   21.9666 N   0  0  0  0  0  0  0  0  0  0  0  0
    6.1502  -21.1980   21.5210 C   0  0  0  0  0  0  0  0  0  0  0  0
    5.0668  -21.6825   21.0746 O   0  0  0  0  0  0  0  0  0  0  0  0
    6.3007  -19.7254   21.5745 C   0  0  0  0  0  0  0  0  0  0  0  0
    7.6013  -19.3065   22.2094 C   0  0  0  0  0  0  0  0  0  0  0  0
    8.0864  -17.9955   21.6237 C   0  0  2  0  0  0  0  0  0  0  0  0
    8.3060  -18.0176   20.2111 N   0  0  0  0  0  0  0  0  0  0  0  0
    9.1141  -17.3174   22.4007 C   0  0  0  0  0  0  0  0  0  0  0  0
   10.3296  -17.2522   22.0466 O   0  0  0  0  0  0  0  0  0  0  0  0
    8.7825  -16.6820   23.6259 N   0  0  0  0  0  0  0  0  0  0  0  0
    9.8286  -15.9992   24.4129 C   0  0  1  0  0  0  0  0  0  0  0  0
    9.4235  -14.5561   24.5449 C   0  0  0  0  0  0  0  0  0  0  0  0
    8.1226  -14.4229   25.2189 C   0  0  0  0  0  0  0  0  0  0  0  0
    7.2583  -15.4863   25.4724 C   0  0  0  0  0  0  0  0  0  0  0  0
    6.2044  -15.0336   26.1379 N   0  0  0  0  0  0  0  0  0  0  0  0
    6.3469  -13.7075   26.3292 C   0  0  0  0  0  0  0  0  0  0  0  0
    5.5374  -12.7879   26.9433 C   0  0  0  0  0  0  0  0  0  0  0  0
    5.8994  -11.4568   27.0007 C   0  0  0  0  0  0  0  0  0  0  0  0
    7.0799  -11.0683   26.4339 C   0  0  0  0  0  0  0  0  0  0  0  0
    7.9009  -11.9715   25.8170 C   0  0  0  0  0  0  0  0  0  0  0  0
    7.5493  -13.3152   25.7539 C   0  0  0  0  0  0  0  0  0  0  0  0
    9.9704  -16.7188   25.6687 C   0  0  0  0  0  0  0  0  0  0  0  0
   10.7641  -16.3039   26.5475 O   0  0  0  0  0  0  0  0  0  0  0  0
    9.2681  -17.8710   25.9915 O   0  0  0  0  0  0  0  0  0  0  0  0
  2  1  1  0
  3  2  2  0
  4  2  1  0
  5  4  1  0
  6  5  1  0
  6  7  1  6
  8  9  2  0
  8  6  1  0
 10 11  1  0
 11 12  2  0
 11 13  1  0
 13 14  1  0
 15 14  1  1
 15 16  1  0
 16  8  1  0
 17 15  1  0
 17 19  1  0
 18 17  2  0
 20 19  1  0
 20 31  1  0
 20 21  1  1
 22 21  1  0
 23 22  2  0
 24 23  1  0
 24 25  1  0
 25 30  2  0
 26 25  1  0
 26 27  2  0
 27 28  1  0
 28 29  2  0
 30 22  1  0
 30 29  1  0
 31 33  1  0
 32 31  2  0
M  END
$$$$
