QQW.pdb
     RDKit          3D

 33 34  0  0  1  0  0  0  0  0999 V2000
    7.6024  -12.2831   18.7688 N   0  0  0  0  0  0  0  0  0  0  0  0
    7.8050  -13.3559   17.8315 C   0  0  0  0  0  0  0  0  0  0  0  0
    7.8339  -13.0677   16.6144 O   0  0  0  0  0  0  0  0  0  0  0  0
    7.9623  -14.6946   18.3905 C   0  0  0  0  0  0  0  0  0  0  0  0
    7.6910  -14.7118   19.8682 C   0  0  0  0  0  0  0  0  0  0  0  0
    8.7342  -15.4744   20.5944 C   0  0  2  0  0  0  0  0  0  0  0  0
    9.3020  -16.5547   19.8103 N   0  0  0  0  0  0  0  0  0  0  0  0
    8.2486  -16.0526   21.8799 C   0  0  0  0  0  0  0  0  0  0  0  0
    7.4665  -15.3690   22.5668 O   0  0  0  0  0  0  0  0  0  0  0  0
    5.5904  -19.7578   24.2075 N   0  0  0  0  0  0  0  0  0  0  0  0
    5.7131  -19.9388   22.8113 C   0  0  0  0  0  0  0  0  0  0  0  0
    4.7104  -20.1701   22.0705 O   0  0  0  0  0  0  0  0  0  0  0  0
    7.0536  -19.8567   22.1864 C   0  0  0  0  0  0  0  0  0  0  0  0
    8.1377  -19.5753   23.1942 C   0  0  0  0  0  0  0  0  0  0  0  0
    8.2735  -18.0850   23.4340 C   0  0  2  0  0  0  0  0  0  0  0  0
    8.6706  -17.3294   22.2870 N   0  0  0  0  0  0  0  0  0  0  0  0
    8.9370  -17.7198   24.6775 C   0  0  0  0  0  0  0  0  0  0  0  0
    9.0056  -18.4863   25.6849 O   0  0  0  0  0  0  0  0  0  0  0  0
    9.5532  -16.4483   24.8132 N   0  0  0  0  0  0  0  0  0  0  0  0
   10.0378  -15.9974   26.1330 C   0  0  1  0  0  0  0  0  0  0  0  0
    8.8376  -15.8567   27.0297 C   0  0  0  0  0  0  0  0  0  0  0  0
    7.7633  -15.0952   26.3737 C   0  0  0  0  0  0  0  0  0  0  0  0
    6.5982  -15.6641   25.8628 C   0  0  0  0  0  0  0  0  0  0  0  0
    5.8210  -14.6993   25.3901 N   0  0  0  0  0  0  0  0  0  0  0  0
    6.4372  -13.5151   25.5724 C   0  0  0  0  0  0  0  0  0  0  0  0
    6.0597  -12.2376   25.2504 C   0  0  0  0  0  0  0  0  0  0  0  0
    6.8850  -11.1668   25.5305 C   0  0  0  0  0  0  0  0  0  0  0  0
    8.0877  -11.4000   26.1347 C   0  0  0  0  0  0  0  0  0  0  0  0
    8.4813  -12.6678   26.4637 C   0  0  0  0  0  0  0  0  0  0  0  0
    7.6589  -13.7548   26.1891 C   0  0  0  0  0  0  0  0  0  0  0  0
   11.0362  -16.9545   26.5824 C   0  0  0  0  0  0  0  0  0  0  0  0
   11.5705  -16.8262   27.7104 O   0  0  0  0  0  0  0  0  0  0  0  0
   11.4613  -18.0460   25.8388 O   0  0  0  0  0  0  0  0  0  0  0  0
  2  1  1  0
  3  2  2  0
  4  2  1  0
  5  4  1  0
  6  5  1  0
  6  7  1  6
  8  9  2  0
  8  6  1  0
 10 11  1  0
 11 12  2  0
 11 13  1  0
 13 14  1  0
 15 14  1  6
 15 16  1  0
 16  8  1  0
 17 15  1  0
 17 19  1  0
 18 17  2  0
 20 19  1  0
 20 31  1  0
 20 21  1  1
 22 21  1  0
 23 22  2  0
 24 23  1  0
 24 25  1  0
 25 30  2  0
 26 25  1  0
 26 27  2  0
 27 28  1  0
 28 29  2  0
 30 22  1  0
 30 29  1  0
 31 33  1  0
 32 31  2  0
M  END
$$$$
