QQW.pdb
     RDKit          3D

 33 34  0  0  1  0  0  0  0  0999 V2000
    7.1909  -14.9243   15.8441 N   0  0  0  0  0  0  0  0  0  0  0  0
    8.4479  -14.4833   16.3881 C   0  0  0  0  0  0  0  0  0  0  0  0
    9.3029  -14.0379   15.5908 O   0  0  0  0  0  0  0  0  0  0  0  0
    8.6122  -14.5942   17.8339 C   0  0  0  0  0  0  0  0  0  0  0  0
    7.3939  -15.1855   18.4848 C   0  0  0  0  0  0  0  0  0  0  0  0
    7.6054  -15.3791   19.9390 C   0  0  2  0  0  0  0  0  0  0  0  0
    7.8539  -14.1395   20.6502 N   0  0  0  0  0  0  0  0  0  0  0  0
    8.7257  -16.3129   20.2485 C   0  0  0  0  0  0  0  0  0  0  0  0
    8.6219  -17.4934   19.8657 O   0  0  0  0  0  0  0  0  0  0  0  0
   13.8525  -13.8044   18.9044 N   0  0  0  0  0  0  0  0  0  0  0  0
   13.8665  -14.4499   20.1615 C   0  0  0  0  0  0  0  0  0  0  0  0
   14.9468  -14.7399   20.7587 O   0  0  0  0  0  0  0  0  0  0  0  0
   12.5811  -14.8019   20.8082 C   0  0  0  0  0  0  0  0  0  0  0  0
   12.2891  -16.2781   20.7332 C   0  0  0  0  0  0  0  0  0  0  0  0
   10.9796  -16.6017   21.4244 C   0  0  2  0  0  0  0  0  0  0  0  0
    9.8545  -15.8577   20.9504 N   0  0  0  0  0  0  0  0  0  0  0  0
   11.0658  -16.7416   22.8710 C   0  0  0  0  0  0  0  0  0  0  0  0
   12.0720  -17.2298   23.4678 O   0  0  0  0  0  0  0  0  0  0  0  0
    9.9894  -16.3224   23.6960 N   0  0  0  0  0  0  0  0  0  0  0  0
   10.0891  -16.4473   25.1638 C   0  0  1  0  0  0  0  0  0  0  0  0
    9.8911  -15.0746   25.7473 C   0  0  0  0  0  0  0  0  0  0  0  0
    8.4908  -14.6386   25.6318 C   0  0  0  0  0  0  0  0  0  0  0  0
    7.4265  -15.4889   25.3381 C   0  0  0  0  0  0  0  0  0  0  0  0
    6.2998  -14.7901   25.3613 N   0  0  0  0  0  0  0  0  0  0  0  0
    6.5884  -13.5082   25.6595 C   0  0  0  0  0  0  0  0  0  0  0  0
    5.7860  -12.4051   25.7905 C   0  0  0  0  0  0  0  0  0  0  0  0
    6.3272  -11.1714   26.0923 C   0  0  0  0  0  0  0  0  0  0  0  0
    7.6789  -11.0657   26.2583 C   0  0  0  0  0  0  0  0  0  0  0  0
    8.4956  -12.1555   26.1318 C   0  0  0  0  0  0  0  0  0  0  0  0
    7.9634  -13.4040   25.8301 C   0  0  0  0  0  0  0  0  0  0  0  0
    9.1173  -17.4439   25.5847 C   0  0  0  0  0  0  0  0  0  0  0  0
    8.9979  -17.7351   26.7993 O   0  0  0  0  0  0  0  0  0  0  0  0
    8.2724  -18.1242   24.7195 O   0  0  0  0  0  0  0  0  0  0  0  0
  2  1  1  0
  3  2  2  0
  4  2  1  0
  5  4  1  0
  6  5  1  0
  6  7  1  1
  8  9  2  0
  8  6  1  0
 10 11  1  0
 11 12  2  0
 11 13  1  0
 13 14  1  0
 15 14  1  1
 15 16  1  0
 16  8  1  0
 17 15  1  0
 17 19  1  0
 18 17  2  0
 20 19  1  0
 20 31  1  0
 20 21  1  1
 22 21  1  0
 23 22  2  0
 24 23  1  0
 24 25  1  0
 25 30  2  0
 26 25  1  0
 26 27  2  0
 27 28  1  0
 28 29  2  0
 30 22  1  0
 30 29  1  0
 31 33  1  0
 32 31  2  0
M  END
$$$$
