QQW.pdb
     RDKit          3D

 33 34  0  0  1  0  0  0  0  0999 V2000
    7.3307  -17.4050   16.4788 N   0  0  0  0  0  0  0  0  0  0  0  0
    8.0020  -16.1410   16.3305 C   0  0  0  0  0  0  0  0  0  0  0  0
    7.9103  -15.5592   15.2267 O   0  0  0  0  0  0  0  0  0  0  0  0
    8.7336  -15.6464   17.4922 C   0  0  0  0  0  0  0  0  0  0  0  0
    8.6166  -16.5849   18.6597 C   0  0  0  0  0  0  0  0  0  0  0  0
    9.4178  -16.1076   19.8117 C   0  0  2  0  0  0  0  0  0  0  0  0
   10.8418  -16.3312   19.6490 N   0  0  0  0  0  0  0  0  0  0  0  0
    9.0065  -16.7225   21.1060 C   0  0  0  0  0  0  0  0  0  0  0  0
    7.8199  -16.5920   21.4612 O   0  0  0  0  0  0  0  0  0  0  0  0
    8.3140  -21.7656   22.5323 N   0  0  0  0  0  0  0  0  0  0  0  0
    9.5901  -21.5368   21.9698 C   0  0  0  0  0  0  0  0  0  0  0  0
   10.3167  -22.4824   21.5391 O   0  0  0  0  0  0  0  0  0  0  0  0
   10.1015  -20.1496   21.8773 C   0  0  0  0  0  0  0  0  0  0  0  0
   10.2160  -19.4914   23.2277 C   0  0  0  0  0  0  0  0  0  0  0  0
    9.7620  -18.0470   23.1607 C   0  0  2  0  0  0  0  0  0  0  0  0
    9.9411  -17.4233   21.8866 N   0  0  0  0  0  0  0  0  0  0  0  0
   10.1334  -17.2314   24.3081 C   0  0  0  0  0  0  0  0  0  0  0  0
   11.1191  -16.4344   24.3100 O   0  0  0  0  0  0  0  0  0  0  0  0
    9.3798  -17.3004   25.5091 N   0  0  0  0  0  0  0  0  0  0  0  0
    9.7808  -16.4982   26.6820 C   0  0  1  0  0  0  0  0  0  0  0  0
    8.5236  -16.0988   27.4059 C   0  0  0  0  0  0  0  0  0  0  0  0
    7.6337  -15.3088   26.5409 C   0  0  0  0  0  0  0  0  0  0  0  0
    6.5927  -15.8471   25.7866 C   0  0  0  0  0  0  0  0  0  0  0  0
    5.9582  -14.8618   25.1661 N   0  0  0  0  0  0  0  0  0  0  0  0
    6.5482  -13.6937   25.4869 C   0  0  0  0  0  0  0  0  0  0  0  0
    6.2788  -12.4063   25.1023 C   0  0  0  0  0  0  0  0  0  0  0  0
    7.0493  -11.3571   25.5625 C   0  0  0  0  0  0  0  0  0  0  0  0
    8.0880  -11.6219   26.4091 C   0  0  0  0  0  0  0  0  0  0  0  0
    8.3719  -12.9001   26.8041 C   0  0  0  0  0  0  0  0  0  0  0  0
    7.6028  -13.9655   26.3497 C   0  0  0  0  0  0  0  0  0  0  0  0
   10.7144  -17.2974   27.4596 C   0  0  0  0  0  0  0  0  0  0  0  0
   10.9146  -18.5001   27.1633 O   0  0  0  0  0  0  0  0  0  0  0  0
   11.4362  -16.8193   28.5439 O   0  0  0  0  0  0  0  0  0  0  0  0
  2  1  1  0
  3  2  2  0
  4  2  1  0
  5  4  1  0
  6  5  1  0
  6  7  1  6
  8  9  2  0
  8  6  1  0
 10 11  1  0
 11 12  2  0
 11 13  1  0
 13 14  1  0
 15 14  1  6
 15 16  1  0
 16  8  1  0
 17 15  1  0
 17 19  1  0
 18 17  2  0
 20 19  1  0
 20 31  1  0
 20 21  1  1
 22 21  1  0
 23 22  2  0
 24 23  1  0
 24 25  1  0
 25 30  2  0
 26 25  1  0
 26 27  2  0
 27 28  1  0
 28 29  2  0
 30 22  1  0
 30 29  1  0
 31 33  1  0
 32 31  2  0
M  END
$$$$
