QQW.pdb
     RDKit          3D

 33 34  0  0  1  0  0  0  0  0999 V2000
    9.3929  -19.7262   15.7313 N   0  0  0  0  0  0  0  0  0  0  0  0
    8.0008  -19.9343   16.0302 C   0  0  0  0  0  0  0  0  0  0  0  0
    7.3502  -20.6905   15.2751 O   0  0  0  0  0  0  0  0  0  0  0  0
    7.4698  -19.2402   17.1987 C   0  0  0  0  0  0  0  0  0  0  0  0
    8.4852  -18.3078   17.7964 C   0  0  0  0  0  0  0  0  0  0  0  0
    8.3256  -18.2152   19.2671 C   0  0  2  0  0  0  0  0  0  0  0  0
    6.9397  -18.1314   19.6872 N   0  0  0  0  0  0  0  0  0  0  0  0
    9.0518  -17.0577   19.8633 C   0  0  0  0  0  0  0  0  0  0  0  0
   10.2969  -17.0862   19.8572 O   0  0  0  0  0  0  0  0  0  0  0  0
    8.1264  -14.0611   17.2306 N   0  0  0  0  0  0  0  0  0  0  0  0
    8.2586  -13.3305   18.4331 C   0  0  0  0  0  0  0  0  0  0  0  0
    9.2141  -12.5201   18.6285 O   0  0  0  0  0  0  0  0  0  0  0  0
    7.2517  -13.5124   19.5043 C   0  0  0  0  0  0  0  0  0  0  0  0
    7.8792  -13.5850   20.8722 C   0  0  0  0  0  0  0  0  0  0  0  0
    8.8359  -14.7571   20.9620 C   0  0  2  0  0  0  0  0  0  0  0  0
    8.3377  -15.9781   20.4096 N   0  0  0  0  0  0  0  0  0  0  0  0
    9.5286  -14.8897   22.2357 C   0  0  0  0  0  0  0  0  0  0  0  0
   10.4183  -14.0801   22.6356 O   0  0  0  0  0  0  0  0  0  0  0  0
    9.2232  -15.9674   23.1076 N   0  0  0  0  0  0  0  0  0  0  0  0
    9.9662  -16.1292   24.3733 C   0  0  1  0  0  0  0  0  0  0  0  0
    9.8334  -14.8422   25.1414 C   0  0  0  0  0  0  0  0  0  0  0  0
    8.4497  -14.6257   25.5918 C   0  0  0  0  0  0  0  0  0  0  0  0
    7.4477  -15.5928   25.5396 C   0  0  0  0  0  0  0  0  0  0  0  0
    6.3400  -15.0922   26.0695 N   0  0  0  0  0  0  0  0  0  0  0  0
    6.5804  -13.8275   26.4673 C   0  0  0  0  0  0  0  0  0  0  0  0
    5.7694  -12.8923   27.0551 C   0  0  0  0  0  0  0  0  0  0  0  0
    6.2500  -11.6347   27.3610 C   0  0  0  0  0  0  0  0  0  0  0  0
    7.5500  -11.3349   27.0677 C   0  0  0  0  0  0  0  0  0  0  0  0
    8.3745  -12.2553   26.4815 C   0  0  0  0  0  0  0  0  0  0  0  0
    7.9037  -13.5259   26.1700 C   0  0  0  0  0  0  0  0  0  0  0  0
    9.4369  -17.3064   25.0433 C   0  0  0  0  0  0  0  0  0  0  0  0
    8.4393  -17.9048   24.5733 O   0  0  0  0  0  0  0  0  0  0  0  0
    9.9685  -17.8484   26.2047 O   0  0  0  0  0  0  0  0  0  0  0  0
  2  1  1  0
  3  2  2  0
  4  2  1  0
  5  4  1  0
  6  5  1  0
  6  7  1  6
  8  9  2  0
  8  6  1  0
 10 11  1  0
 11 12  2  0
 11 13  1  0
 13 14  1  0
 15 14  1  1
 15 16  1  0
 16  8  1  0
 17 15  1  0
 17 19  1  0
 18 17  2  0
 20 19  1  0
 20 31  1  0
 20 21  1  1
 22 21  1  0
 23 22  2  0
 24 23  1  0
 24 25  1  0
 25 30  2  0
 26 25  1  0
 26 27  2  0
 27 28  1  0
 28 29  2  0
 30 22  1  0
 30 29  1  0
 31 33  1  0
 32 31  2  0
M  END
$$$$
