QQW.pdb
     RDKit          3D

 33 34  0  0  1  0  0  0  0  0999 V2000
    6.6711  -14.4024   14.2351 N   0  0  0  0  0  0  0  0  0  0  0  0
    7.9893  -14.6632   14.7497 C   0  0  0  0  0  0  0  0  0  0  0  0
    8.7278  -15.4324   14.0954 O   0  0  0  0  0  0  0  0  0  0  0  0
    8.3495  -13.9992   15.9982 C   0  0  0  0  0  0  0  0  0  0  0  0
    8.2685  -14.9392   17.1675 C   0  0  0  0  0  0  0  0  0  0  0  0
    8.5762  -14.2402   18.4378 C   0  0  2  0  0  0  0  0  0  0  0  0
    9.2587  -12.9751   18.2428 N   0  0  0  0  0  0  0  0  0  0  0  0
    9.3979  -15.0601   19.3733 C   0  0  0  0  0  0  0  0  0  0  0  0
    9.0008  -16.2096   19.6419 O   0  0  0  0  0  0  0  0  0  0  0  0
   15.3300  -15.9068   19.0114 N   0  0  0  0  0  0  0  0  0  0  0  0
   14.5316  -14.7898   18.6767 C   0  0  0  0  0  0  0  0  0  0  0  0
   14.9954  -13.7954   18.0412 O   0  0  0  0  0  0  0  0  0  0  0  0
   13.1058  -14.7735   19.0781 C   0  0  0  0  0  0  0  0  0  0  0  0
   12.9216  -15.0658   20.5446 C   0  0  0  0  0  0  0  0  0  0  0  0
   11.4493  -15.1131   20.9014 C   0  0  2  0  0  0  0  0  0  0  0  0
   10.5794  -14.5363   19.9244 N   0  0  0  0  0  0  0  0  0  0  0  0
   11.1401  -14.7758   22.2836 C   0  0  0  0  0  0  0  0  0  0  0  0
   11.1036  -13.5869   22.7220 O   0  0  0  0  0  0  0  0  0  0  0  0
   10.8580  -15.8005   23.2245 N   0  0  0  0  0  0  0  0  0  0  0  0
    9.8913  -15.5597   24.3141 C   0  0  1  0  0  0  0  0  0  0  0  0
    8.6002  -15.1162   23.6812 C   0  0  0  0  0  0  0  0  0  0  0  0
    7.5700  -14.8448   24.6958 C   0  0  0  0  0  0  0  0  0  0  0  0
    6.6010  -15.7635   25.0947 C   0  0  0  0  0  0  0  0  0  0  0  0
    5.8673  -15.2226   26.0577 N   0  0  0  0  0  0  0  0  0  0  0  0
    6.3212  -13.9782   26.3043 C   0  0  0  0  0  0  0  0  0  0  0  0
    5.9006  -13.0180   27.1869 C   0  0  0  0  0  0  0  0  0  0  0  0
    6.5288  -11.7900   27.2451 C   0  0  0  0  0  0  0  0  0  0  0  0
    7.5790  -11.5449   26.4067 C   0  0  0  0  0  0  0  0  0  0  0  0
    8.0131  -12.4908   25.5195 C   0  0  0  0  0  0  0  0  0  0  0  0
    7.3907  -13.7323   25.4521 C   0  0  0  0  0  0  0  0  0  0  0  0
    9.8068  -16.7797   25.1011 C   0  0  0  0  0  0  0  0  0  0  0  0
    9.9366  -17.8980   24.5472 O   0  0  0  0  0  0  0  0  0  0  0  0
    9.5908  -16.8111   26.4713 O   0  0  0  0  0  0  0  0  0  0  0  0
  2  1  1  0
  3  2  2  0
  4  2  1  0
  5  4  1  0
  6  5  1  0
  6  7  1  6
  8  9  2  0
  8  6  1  0
 10 11  1  0
 11 12  2  0
 11 13  1  0
 13 14  1  0
 15 14  1  6
 15 16  1  0
 16  8  1  0
 17 15  1  0
 17 19  1  0
 18 17  2  0
 20 19  1  0
 20 31  1  0
 20 21  1  6
 22 21  1  0
 23 22  2  0
 24 23  1  0
 24 25  1  0
 25 30  2  0
 26 25  1  0
 26 27  2  0
 27 28  1  0
 28 29  2  0
 30 22  1  0
 30 29  1  0
 31 33  1  0
 32 31  2  0
M  END
$$$$
