QQW.pdb
     RDKit          3D

 33 34  0  0  1  0  0  0  0  0999 V2000
    7.5991  -12.2169   16.9665 N   0  0  0  0  0  0  0  0  0  0  0  0
    8.0743  -13.2472   16.0815 C   0  0  0  0  0  0  0  0  0  0  0  0
    7.9612  -13.0548   14.8505 O   0  0  0  0  0  0  0  0  0  0  0  0
    8.6523  -14.4329   16.7055 C   0  0  0  0  0  0  0  0  0  0  0  0
    8.3362  -14.4948   18.1731 C   0  0  0  0  0  0  0  0  0  0  0  0
    9.2948  -15.3689   18.8901 C   0  0  2  0  0  0  0  0  0  0  0  0
    9.6151  -16.5826   18.1630 N   0  0  0  0  0  0  0  0  0  0  0  0
    8.8241  -15.7639   20.2484 C   0  0  0  0  0  0  0  0  0  0  0  0
    7.8395  -15.1647   20.7202 O   0  0  0  0  0  0  0  0  0  0  0  0
    7.7829  -21.4364   22.1123 N   0  0  0  0  0  0  0  0  0  0  0  0
    7.7674  -20.7677   23.3572 C   0  0  0  0  0  0  0  0  0  0  0  0
    7.3913  -21.3389   24.4249 O   0  0  0  0  0  0  0  0  0  0  0  0
    8.2036  -19.3537   23.4241 C   0  0  0  0  0  0  0  0  0  0  0  0
    8.6404  -18.8262   22.0821 C   0  0  0  0  0  0  0  0  0  0  0  0
    9.1196  -17.3931   22.1990 C   0  0  2  0  0  0  0  0  0  0  0  0
    9.4826  -16.7818   20.9586 N   0  0  0  0  0  0  0  0  0  0  0  0
   10.0295  -17.1371   23.3064 C   0  0  0  0  0  0  0  0  0  0  0  0
   11.2613  -17.4356   23.2828 O   0  0  0  0  0  0  0  0  0  0  0  0
    9.5554  -16.5226   24.4949 N   0  0  0  0  0  0  0  0  0  0  0  0
   10.4656  -16.3260   25.6407 C   0  0  1  0  0  0  0  0  0  0  0  0
   10.0802  -15.0322   26.3054 C   0  0  0  0  0  0  0  0  0  0  0  0
    8.6280  -14.8062   26.2397 C   0  0  0  0  0  0  0  0  0  0  0  0
    7.6771  -15.8242   26.1981 C   0  0  0  0  0  0  0  0  0  0  0  0
    6.4672  -15.2815   26.1971 N   0  0  0  0  0  0  0  0  0  0  0  0
    6.5913  -13.9404   26.2357 C   0  0  0  0  0  0  0  0  0  0  0  0
    5.6519  -12.9427   26.2396 C   0  0  0  0  0  0  0  0  0  0  0  0
    6.0327  -11.6159   26.2677 C   0  0  0  0  0  0  0  0  0  0  0  0
    7.3640  -11.3110   26.2910 C   0  0  0  0  0  0  0  0  0  0  0  0
    8.3159  -12.2930   26.2878 C   0  0  0  0  0  0  0  0  0  0  0  0
    7.9461  -13.6331   26.2616 C   0  0  0  0  0  0  0  0  0  0  0  0
   10.3685  -17.5069   26.4837 C   0  0  0  0  0  0  0  0  0  0  0  0
    9.4728  -18.3601   26.2737 O   0  0  0  0  0  0  0  0  0  0  0  0
   11.2225  -17.7828   27.5418 O   0  0  0  0  0  0  0  0  0  0  0  0
  2  1  1  0
  3  2  2  0
  4  2  1  0
  5  4  1  0
  6  5  1  0
  6  7  1  6
  8  9  2  0
  8  6  1  0
 10 11  1  0
 11 12  2  0
 11 13  1  0
 13 14  1  0
 15 14  1  6
 15 16  1  0
 16  8  1  0
 17 15  1  0
 17 19  1  0
 18 17  2  0
 20 19  1  0
 20 31  1  0
 20 21  1  1
 22 21  1  0
 23 22  2  0
 24 23  1  0
 24 25  1  0
 25 30  2  0
 26 25  1  0
 26 27  2  0
 27 28  1  0
 28 29  2  0
 30 22  1  0
 30 29  1  0
 31 33  1  0
 32 31  2  0
M  END
$$$$
