QQW.pdb
     RDKit          3D

 33 34  0  0  1  0  0  0  0  0999 V2000
   11.8727  -15.5914   14.3581 N   0  0  0  0  0  0  0  0  0  0  0  0
   11.8402  -17.0293   14.4014 C   0  0  0  0  0  0  0  0  0  0  0  0
   11.2806  -17.6275   13.4558 O   0  0  0  0  0  0  0  0  0  0  0  0
   12.4705  -17.6653   15.5536 C   0  0  0  0  0  0  0  0  0  0  0  0
   12.9171  -16.6517   16.5688 C   0  0  0  0  0  0  0  0  0  0  0  0
   12.6284  -17.1130   17.9475 C   0  0  2  0  0  0  0  0  0  0  0  0
   11.6948  -18.2223   17.9951 N   0  0  0  0  0  0  0  0  0  0  0  0
   12.0959  -16.0332   18.8269 C   0  0  0  0  0  0  0  0  0  0  0  0
   12.7779  -14.9992   18.9567 O   0  0  0  0  0  0  0  0  0  0  0  0
    7.0509  -13.0260   19.1723 N   0  0  0  0  0  0  0  0  0  0  0  0
    7.7738  -13.7658   18.2094 C   0  0  0  0  0  0  0  0  0  0  0  0
    7.4527  -13.7713   16.9828 O   0  0  0  0  0  0  0  0  0  0  0  0
    8.9458  -14.5628   18.6401 C   0  0  0  0  0  0  0  0  0  0  0  0
    9.1325  -14.5426   20.1351 C   0  0  0  0  0  0  0  0  0  0  0  0
   10.2987  -15.4209   20.5420 C   0  0  2  0  0  0  0  0  0  0  0  0
   10.8625  -16.1946   19.4800 N   0  0  0  0  0  0  0  0  0  0  0  0
   10.1246  -16.1303   21.8014 C   0  0  0  0  0  0  0  0  0  0  0  0
    9.5154  -17.2374   21.9021 O   0  0  0  0  0  0  0  0  0  0  0  0
   10.6484  -15.5905   23.0052 N   0  0  0  0  0  0  0  0  0  0  0  0
    9.7682  -15.3975   24.1748 C   0  0  1  0  0  0  0  0  0  0  0  0
    8.5098  -14.7324   23.6868 C   0  0  0  0  0  0  0  0  0  0  0  0
    7.5973  -14.4270   24.7997 C   0  0  0  0  0  0  0  0  0  0  0  0
    6.8083  -15.3744   25.4494 C   0  0  0  0  0  0  0  0  0  0  0  0
    6.1480  -14.7806   26.4341 N   0  0  0  0  0  0  0  0  0  0  0  0
    6.4761  -13.4739   26.4526 C   0  0  0  0  0  0  0  0  0  0  0  0
    6.0622  -12.4465   27.2596 C   0  0  0  0  0  0  0  0  0  0  0  0
    6.5388  -11.1648   27.0695 C   0  0  0  0  0  0  0  0  0  0  0  0
    7.4315  -10.9346   26.0616 C   0  0  0  0  0  0  0  0  0  0  0  0
    7.8563  -11.9472   25.2463 C   0  0  0  0  0  0  0  0  0  0  0  0
    7.3857  -13.2429   25.4281 C   0  0  0  0  0  0  0  0  0  0  0  0
    9.5784  -16.6975   24.7983 C   0  0  0  0  0  0  0  0  0  0  0  0
    9.1903  -17.6749   24.1139 O   0  0  0  0  0  0  0  0  0  0  0  0
    9.8052  -16.9592   26.1419 O   0  0  0  0  0  0  0  0  0  0  0  0
  2  1  1  0
  3  2  2  0
  4  2  1  0
  5  4  1  0
  6  5  1  0
  6  7  1  6
  8  9  2  0
  8  6  1  0
 10 11  1  0
 11 12  2  0
 11 13  1  0
 13 14  1  0
 15 14  1  6
 15 16  1  0
 16  8  1  0
 17 15  1  0
 17 19  1  0
 18 17  2  0
 20 19  1  0
 20 31  1  0
 20 21  1  6
 22 21  1  0
 23 22  2  0
 24 23  1  0
 24 25  1  0
 25 30  2  0
 26 25  1  0
 26 27  2  0
 27 28  1  0
 28 29  2  0
 30 22  1  0
 30 29  1  0
 31 33  1  0
 32 31  2  0
M  END
$$$$
