SAT.pdb
     RDKit          3D

 19 18  0  0  1  0  0  0  0  0999 V2000
    7.2119  -17.2838   17.2197 O   0  0  0  0  0  0  0  0  0  0  0  0
    8.0966  -17.0446   16.1658 C   0  0  0  0  0  0  0  0  0  0  0  0
    8.2029  -15.5379   16.0128 C   0  0  2  0  0  0  0  0  0  0  0  0
    9.0113  -15.2757   14.8548 N   0  0  0  0  0  0  0  0  0  0  0  0
    8.8631  -15.0128   17.2617 C   0  0  0  0  0  0  0  0  0  0  0  0
   10.0844  -15.2400   17.4581 O   0  0  0  0  0  0  0  0  0  0  0  0
    7.7481  -12.9211   20.1394 C   0  0  0  0  0  0  0  0  0  0  0  0
    8.7092  -13.8955   19.4479 C   0  0  2  0  0  0  0  0  0  0  0  0
    8.1086  -14.2695   18.2038 N   0  0  0  0  0  0  0  0  0  0  0  0
    8.9523  -15.0508   20.3427 C   0  0  0  0  0  0  0  0  0  0  0  0
    8.1223  -15.9957   20.4527 O   0  0  0  0  0  0  0  0  0  0  0  0
   12.1936  -17.4412   23.2446 C   0  0  0  0  0  0  0  0  0  0  0  0
   11.8863  -16.3402   22.2882 C   0  0  1  0  0  0  0  0  0  0  0  0
   12.5620  -16.5837   21.0898 O   0  0  0  0  0  0  0  0  0  0  0  0
   10.4137  -16.2221   21.9714 C   0  0  2  0  0  0  0  0  0  0  0  0
   10.1353  -15.1092   21.0956 N   0  0  0  0  0  0  0  0  0  0  0  0
    9.6376  -16.0918   23.2285 C   0  0  0  0  0  0  0  0  0  0  0  0
    9.3634  -14.8680   23.7904 O   0  0  0  0  0  0  0  0  0  0  0  0
    9.2255  -17.1383   23.7845 O   0  0  0  0  0  0  0  0  0  0  0  0
  2  1  1  0
  3  2  1  0
  3  4  1  6
  5  6  2  0
  5  3  1  0
  8  7  1  1
  8  9  1  0
  9  5  1  0
 10  8  1  0
 10 11  2  0
 13 12  1  1
 13 14  1  0
 15 16  1  6
 15 13  1  0
 16 10  1  0
 17 15  1  0
 18 17  1  0
 19 17  2  0
M  END
$$$$
