SAT.pdb
     RDKit          3D

 19 18  0  0  1  0  0  0  0  0999 V2000
    8.9726  -17.0969   18.1245 O   0  0  0  0  0  0  0  0  0  0  0  0
    8.3674  -16.7067   16.9278 C   0  0  0  0  0  0  0  0  0  0  0  0
    9.1238  -15.4891   16.4276 C   0  0  2  0  0  0  0  0  0  0  0  0
   10.3662  -15.9485   15.8721 N   0  0  0  0  0  0  0  0  0  0  0  0
    9.3625  -14.5976   17.6190 C   0  0  0  0  0  0  0  0  0  0  0  0
   10.4748  -14.6326   18.2049 O   0  0  0  0  0  0  0  0  0  0  0  0
    7.3907  -11.9284   19.3188 C   0  0  0  0  0  0  0  0  0  0  0  0
    8.5714  -12.9012   19.2154 C   0  0  2  0  0  0  0  0  0  0  0  0
    8.3379  -13.7286   18.0711 N   0  0  0  0  0  0  0  0  0  0  0  0
    8.6732  -13.6731   20.4757 C   0  0  0  0  0  0  0  0  0  0  0  0
    8.9586  -13.1214   21.5747 O   0  0  0  0  0  0  0  0  0  0  0  0
    6.2506  -16.8869   21.3521 C   0  0  0  0  0  0  0  0  0  0  0  0
    7.7079  -17.1197   21.5601 C   0  0  1  0  0  0  0  0  0  0  0  0
    8.2086  -17.8379   20.4712 O   0  0  0  0  0  0  0  0  0  0  0  0
    8.5036  -15.8403   21.6736 C   0  0  2  0  0  0  0  0  0  0  0  0
    8.4482  -15.0584   20.4616 N   0  0  0  0  0  0  0  0  0  0  0  0
    9.9118  -16.1526   22.0182 C   0  0  0  0  0  0  0  0  0  0  0  0
   10.2570  -16.7248   23.2190 O   0  0  0  0  0  0  0  0  0  0  0  0
   10.8041  -15.8809   21.1789 O   0  0  0  0  0  0  0  0  0  0  0  0
  2  1  1  0
  3  2  1  0
  3  4  1  1
  5  6  2  0
  5  3  1  0
  8  7  1  1
  8  9  1  0
  9  5  1  0
 10  8  1  0
 10 11  2  0
 13 12  1  6
 13 14  1  0
 15 16  1  6
 15 13  1  0
 16 10  1  0
 17 15  1  0
 18 17  1  0
 19 17  2  0
M  END
$$$$
