SAT.pdb
     RDKit          3D

 19 18  0  0  1  0  0  0  0  0999 V2000
    6.3691  -18.4382   19.7547 O   0  0  0  0  0  0  0  0  0  0  0  0
    7.2153  -18.4186   18.6437 C   0  0  0  0  0  0  0  0  0  0  0  0
    7.4639  -16.9598   18.3045 C   0  0  2  0  0  0  0  0  0  0  0  0
    8.3021  -16.9226   17.1386 N   0  0  0  0  0  0  0  0  0  0  0  0
    8.1611  -16.3435   19.4900 C   0  0  0  0  0  0  0  0  0  0  0  0
    9.3640  -16.6309   19.7184 O   0  0  0  0  0  0  0  0  0  0  0  0
    7.2040  -13.7963   22.0404 C   0  0  0  0  0  0  0  0  0  0  0  0
    8.1405  -14.8574   21.4503 C   0  0  2  0  0  0  0  0  0  0  0  0
    7.4616  -15.4478   20.3372 N   0  0  0  0  0  0  0  0  0  0  0  0
    8.4833  -15.8394   22.5052 C   0  0  0  0  0  0  0  0  0  0  0  0
    7.7233  -16.8067   22.7886 O   0  0  0  0  0  0  0  0  0  0  0  0
   12.0303  -18.0728   24.9997 C   0  0  0  0  0  0  0  0  0  0  0  0
   11.5659  -17.0542   24.0158 C   0  0  1  0  0  0  0  0  0  0  0  0
   11.7409  -17.5621   22.7260 O   0  0  0  0  0  0  0  0  0  0  0  0
   10.1069  -16.6955   24.1760 C   0  0  2  0  0  0  0  0  0  0  0  0
    9.6847  -15.7022   23.2177 N   0  0  0  0  0  0  0  0  0  0  0  0
    9.8556  -16.2154   25.5565 C   0  0  0  0  0  0  0  0  0  0  0  0
    9.6044  -17.0817   26.5934 O   0  0  0  0  0  0  0  0  0  0  0  0
    9.8760  -14.9790   25.7695 O   0  0  0  0  0  0  0  0  0  0  0  0
  2  1  1  0
  3  2  1  0
  3  4  1  6
  5  6  2  0
  5  3  1  0
  8  7  1  1
  8  9  1  0
  9  5  1  0
 10  8  1  0
 10 11  2  0
 13 12  1  1
 13 14  1  0
 15 16  1  6
 15 13  1  0
 16 10  1  0
 17 15  1  0
 18 17  1  0
 19 17  2  0
M  END
$$$$
