SAT.pdb
     RDKit          3D

 19 18  0  0  1  0  0  0  0  0999 V2000
    8.5273  -16.7272   13.3731 O   0  0  0  0  0  0  0  0  0  0  0  0
    8.0143  -16.5714   14.6628 C   0  0  0  0  0  0  0  0  0  0  0  0
    8.6597  -17.6405   15.5261 C   0  0  2  0  0  0  0  0  0  0  0  0
    8.2741  -18.9180   14.9948 N   0  0  0  0  0  0  0  0  0  0  0  0
    8.1312  -17.4564   16.9255 C   0  0  0  0  0  0  0  0  0  0  0  0
    7.3477  -16.5036   17.1704 O   0  0  0  0  0  0  0  0  0  0  0  0
    8.0542  -19.5220   19.9813 C   0  0  0  0  0  0  0  0  0  0  0  0
    8.0188  -18.1586   19.2805 C   0  0  2  0  0  0  0  0  0  0  0  0
    8.5177  -18.3530   17.9531 N   0  0  0  0  0  0  0  0  0  0  0  0
    8.8225  -17.1918   20.0640 C   0  0  0  0  0  0  0  0  0  0  0  0
   10.0473  -16.9967   19.8284 O   0  0  0  0  0  0  0  0  0  0  0  0
    7.3931  -13.5602   21.1843 C   0  0  0  0  0  0  0  0  0  0  0  0
    8.0150  -14.3351   22.2952 C   0  0  1  0  0  0  0  0  0  0  0  0
    7.0016  -14.9289   23.0518 O   0  0  0  0  0  0  0  0  0  0  0  0
    8.9334  -15.4333   21.8121 C   0  0  2  0  0  0  0  0  0  0  0  0
    8.2172  -16.4650   21.1010 N   0  0  0  0  0  0  0  0  0  0  0  0
    9.6670  -16.0174   22.9611 C   0  0  0  0  0  0  0  0  0  0  0  0
    9.4909  -17.3243   23.3479 O   0  0  0  0  0  0  0  0  0  0  0  0
   10.4688  -15.2850   23.5896 O   0  0  0  0  0  0  0  0  0  0  0  0
  2  1  1  0
  3  2  1  0
  3  4  1  6
  5  6  2  0
  5  3  1  0
  8  7  1  1
  8  9  1  0
  9  5  1  0
 10  8  1  0
 10 11  2  0
 13 12  1  6
 13 14  1  0
 15 16  1  1
 15 13  1  0
 16 10  1  0
 17 15  1  0
 18 17  1  0
 19 17  2  0
M  END
$$$$
