SAT.pdb
     RDKit          3D

 19 18  0  0  1  0  0  0  0  0999 V2000
   10.1243  -16.3163   20.5383 O   0  0  0  0  0  0  0  0  0  0  0  0
    9.3160  -17.4478   20.6688 C   0  0  0  0  0  0  0  0  0  0  0  0
    7.8952  -16.9535   20.8735 C   0  0  2  0  0  0  0  0  0  0  0  0
    7.7492  -15.7335   20.1293 N   0  0  0  0  0  0  0  0  0  0  0  0
    7.7214  -16.7086   22.3503 C   0  0  0  0  0  0  0  0  0  0  0  0
    7.7790  -15.5331   22.7935 O   0  0  0  0  0  0  0  0  0  0  0  0
    6.7883  -18.8738   25.2377 C   0  0  0  0  0  0  0  0  0  0  0  0
    7.2221  -17.5439   24.6097 C   0  0  2  0  0  0  0  0  0  0  0  0
    7.4951  -17.7985   23.2280 N   0  0  0  0  0  0  0  0  0  0  0  0
    8.3982  -17.0234   25.3449 C   0  0  0  0  0  0  0  0  0  0  0  0
    9.5775  -17.2117   24.9357 O   0  0  0  0  0  0  0  0  0  0  0  0
    9.9746  -13.6042   28.5129 C   0  0  0  0  0  0  0  0  0  0  0  0
    8.8645  -14.3236   27.8263 C   0  0  1  0  0  0  0  0  0  0  0  0
    8.3436  -13.4978   26.8269 O   0  0  0  0  0  0  0  0  0  0  0  0
    9.3058  -15.6135   27.1749 C   0  0  2  0  0  0  0  0  0  0  0  0
    8.2101  -16.2985   26.5319 N   0  0  0  0  0  0  0  0  0  0  0  0
    9.9400  -16.4956   28.1845 C   0  0  0  0  0  0  0  0  0  0  0  0
   11.2709  -16.3891   28.5100 O   0  0  0  0  0  0  0  0  0  0  0  0
    9.2282  -17.3603   28.7502 O   0  0  0  0  0  0  0  0  0  0  0  0
  2  1  1  0
  3  2  1  0
  3  4  1  6
  5  6  2  0
  5  3  1  0
  8  7  1  1
  8  9  1  0
  9  5  1  0
 10  8  1  0
 10 11  2  0
 13 12  1  6
 13 14  1  0
 15 16  1  1
 15 13  1  0
 16 10  1  0
 17 15  1  0
 18 17  1  0
 19 17  2  0
M  END
$$$$
