SAT.pdb
     RDKit          3D

 19 18  0  0  1  0  0  0  0  0999 V2000
   10.9526  -13.0388   18.6349 O   0  0  0  0  0  0  0  0  0  0  0  0
   10.0915  -13.1113   19.7321 C   0  0  0  0  0  0  0  0  0  0  0  0
    9.0461  -14.1620   19.4035 C   0  0  2  0  0  0  0  0  0  0  0  0
    8.1013  -13.5660   18.5004 N   0  0  0  0  0  0  0  0  0  0  0  0
    8.3833  -14.5464   20.7012 C   0  0  0  0  0  0  0  0  0  0  0  0
    7.4143  -13.8665   21.1261 O   0  0  0  0  0  0  0  0  0  0  0  0
    8.6424  -17.4680   22.9831 C   0  0  0  0  0  0  0  0  0  0  0  0
    8.1903  -16.0425   22.6445 C   0  0  2  0  0  0  0  0  0  0  0  0
    8.8527  -15.6661   21.4328 N   0  0  0  0  0  0  0  0  0  0  0  0
    8.5144  -15.1500   23.7816 C   0  0  0  0  0  0  0  0  0  0  0  0
    9.6431  -14.5961   23.8942 O   0  0  0  0  0  0  0  0  0  0  0  0
    6.7950  -12.2650   27.3682 C   0  0  0  0  0  0  0  0  0  0  0  0
    6.5463  -13.2785   26.3042 C   0  0  1  0  0  0  0  0  0  0  0  0
    6.0011  -12.6361   25.1896 O   0  0  0  0  0  0  0  0  0  0  0  0
    7.8014  -13.9912   25.8575 C   0  0  2  0  0  0  0  0  0  0  0  0
    7.5477  -14.9047   24.7692 N   0  0  0  0  0  0  0  0  0  0  0  0
    8.4044  -14.7140   27.0035 C   0  0  0  0  0  0  0  0  0  0  0  0
    9.1273  -14.0637   27.9746 O   0  0  0  0  0  0  0  0  0  0  0  0
    8.2417  -15.9561   27.0757 O   0  0  0  0  0  0  0  0  0  0  0  0
  2  1  1  0
  3  2  1  0
  3  4  1  6
  5  6  2  0
  5  3  1  0
  8  7  1  1
  8  9  1  0
  9  5  1  0
 10  8  1  0
 10 11  2  0
 13 12  1  1
 13 14  1  0
 15 16  1  6
 15 13  1  0
 16 10  1  0
 17 15  1  0
 18 17  1  0
 19 17  2  0
M  END
$$$$
