SAT.pdb
     RDKit          3D

 19 18  0  0  1  0  0  0  0  0999 V2000
    7.3308  -17.4549   14.6872 O   0  0  0  0  0  0  0  0  0  0  0  0
    8.0380  -16.9043   15.7583 C   0  0  0  0  0  0  0  0  0  0  0  0
    8.2881  -15.4459   15.4185 C   0  0  2  0  0  0  0  0  0  0  0  0
    9.2803  -15.4066   14.3807 N   0  0  0  0  0  0  0  0  0  0  0  0
    8.7929  -14.7806   16.6730 C   0  0  0  0  0  0  0  0  0  0  0  0
   10.0277  -14.7650   16.9110 O   0  0  0  0  0  0  0  0  0  0  0  0
    7.2150  -12.7571   19.3718 C   0  0  0  0  0  0  0  0  0  0  0  0
    8.3700  -13.5669   18.7706 C   0  0  2  0  0  0  0  0  0  0  0  0
    7.8786  -14.1789   17.5737 N   0  0  0  0  0  0  0  0  0  0  0  0
    8.8417  -14.5518   19.7716 C   0  0  0  0  0  0  0  0  0  0  0  0
    9.3250  -14.1952   20.8820 O   0  0  0  0  0  0  0  0  0  0  0  0
    8.9846  -19.3205   21.1251 C   0  0  0  0  0  0  0  0  0  0  0  0
    8.7286  -18.3061   20.0637 C   0  0  1  0  0  0  0  0  0  0  0  0
    7.3556  -18.2573   19.8099 O   0  0  0  0  0  0  0  0  0  0  0  0
    9.1756  -16.9156   20.4507 C   0  0  2  0  0  0  0  0  0  0  0  0
    8.7546  -15.9240   19.4902 N   0  0  0  0  0  0  0  0  0  0  0  0
   10.6504  -16.8860   20.6051 C   0  0  0  0  0  0  0  0  0  0  0  0
   11.2527  -16.8930   21.8403 O   0  0  0  0  0  0  0  0  0  0  0  0
   11.3566  -16.8539   19.5684 O   0  0  0  0  0  0  0  0  0  0  0  0
  2  1  1  0
  3  2  1  0
  3  4  1  6
  5  6  2  0
  5  3  1  0
  8  7  1  1
  8  9  1  0
  9  5  1  0
 10  8  1  0
 10 11  2  0
 13 12  1  1
 13 14  1  0
 15 16  1  6
 15 13  1  0
 16 10  1  0
 17 15  1  0
 18 17  1  0
 19 17  2  0
M  END
$$$$
