SAT.pdb
     RDKit          3D

 19 18  0  0  1  0  0  0  0  0999 V2000
    8.4577  -17.1323   16.3404 O   0  0  0  0  0  0  0  0  0  0  0  0
    7.5618  -16.1486   15.9157 C   0  0  0  0  0  0  0  0  0  0  0  0
    8.3223  -14.8347   15.9048 C   0  0  2  0  0  0  0  0  0  0  0  0
    9.3786  -14.9532   14.9386 N   0  0  0  0  0  0  0  0  0  0  0  0
    8.8790  -14.6352   17.2909 C   0  0  0  0  0  0  0  0  0  0  0  0
   10.0415  -15.0364   17.5543 O   0  0  0  0  0  0  0  0  0  0  0  0
    7.6635  -12.8745   20.3455 C   0  0  0  0  0  0  0  0  0  0  0  0
    8.6637  -13.7431   19.5734 C   0  0  2  0  0  0  0  0  0  0  0  0
    8.0941  -13.9999   18.2857 N   0  0  0  0  0  0  0  0  0  0  0  0
    8.9268  -14.9794   20.3459 C   0  0  0  0  0  0  0  0  0  0  0  0
    8.1462  -15.9707   20.3046 O   0  0  0  0  0  0  0  0  0  0  0  0
   12.1855  -17.0203   20.3277 C   0  0  0  0  0  0  0  0  0  0  0  0
   11.8277  -16.6733   21.7323 C   0  0  1  0  0  0  0  0  0  0  0  0
   12.6234  -15.6026   22.1478 O   0  0  0  0  0  0  0  0  0  0  0  0
   10.3824  -16.2632   21.8931 C   0  0  2  0  0  0  0  0  0  0  0  0
   10.0734  -15.0645   21.1509 N   0  0  0  0  0  0  0  0  0  0  0  0
   10.0710  -16.0708   23.3303 C   0  0  0  0  0  0  0  0  0  0  0  0
   10.0456  -17.1213   24.2160 O   0  0  0  0  0  0  0  0  0  0  0  0
    9.8255  -14.9090   23.7356 O   0  0  0  0  0  0  0  0  0  0  0  0
  2  1  1  0
  3  2  1  0
  3  4  1  6
  5  6  2  0
  5  3  1  0
  8  7  1  1
  8  9  1  0
  9  5  1  0
 10  8  1  0
 10 11  2  0
 13 12  1  6
 13 14  1  0
 15 16  1  6
 15 13  1  0
 16 10  1  0
 17 15  1  0
 18 17  1  0
 19 17  2  0
M  END
$$$$
