SAT.pdb
     RDKit          3D

 19 18  0  0  1  0  0  0  0  0999 V2000
    6.2553  -18.0591   16.3365 O   0  0  0  0  0  0  0  0  0  0  0  0
    7.0557  -17.6432   17.4028 C   0  0  0  0  0  0  0  0  0  0  0  0
    7.7375  -16.3584   16.9675 C   0  0  2  0  0  0  0  0  0  0  0  0
    8.6910  -16.6975   15.9482 N   0  0  0  0  0  0  0  0  0  0  0  0
    8.4253  -15.7903   18.1821 C   0  0  0  0  0  0  0  0  0  0  0  0
    9.5408  -16.2524   18.5342 O   0  0  0  0  0  0  0  0  0  0  0  0
    7.6262  -13.0566   20.5952 C   0  0  0  0  0  0  0  0  0  0  0  0
    8.4587  -14.2428   20.0942 C   0  0  2  0  0  0  0  0  0  0  0  0
    7.8152  -14.7435   18.9179 N   0  0  0  0  0  0  0  0  0  0  0  0
    8.5579  -15.2531   21.1731 C   0  0  0  0  0  0  0  0  0  0  0  0
    7.5618  -15.9355   21.5417 O   0  0  0  0  0  0  0  0  0  0  0  0
   10.9524  -18.1479   21.1905 C   0  0  0  0  0  0  0  0  0  0  0  0
   11.1156  -17.4170   22.4791 C   0  0  1  0  0  0  0  0  0  0  0  0
   12.2650  -16.6261   22.4052 O   0  0  0  0  0  0  0  0  0  0  0  0
    9.9509  -16.5090   22.7987 C   0  0  2  0  0  0  0  0  0  0  0  0
    9.7888  -15.4680   21.8123 N   0  0  0  0  0  0  0  0  0  0  0  0
   10.1309  -15.9153   24.1458 C   0  0  0  0  0  0  0  0  0  0  0  0
   10.0568  -16.6725   25.2902 O   0  0  0  0  0  0  0  0  0  0  0  0
   10.3569  -14.6838   24.2279 O   0  0  0  0  0  0  0  0  0  0  0  0
  2  1  1  0
  3  2  1  0
  3  4  1  6
  5  6  2  0
  5  3  1  0
  8  7  1  1
  8  9  1  0
  9  5  1  0
 10  8  1  0
 10 11  2  0
 13 12  1  6
 13 14  1  0
 15 16  1  6
 15 13  1  0
 16 10  1  0
 17 15  1  0
 18 17  1  0
 19 17  2  0
M  END
$$$$
