SAT.pdb
     RDKit          3D

 19 18  0  0  1  0  0  0  0  0999 V2000
    7.2837  -17.1288   16.2984 O   0  0  0  0  0  0  0  0  0  0  0  0
    8.3206  -16.8089   15.4191 C   0  0  0  0  0  0  0  0  0  0  0  0
    8.4961  -15.3019   15.4739 C   0  0  2  0  0  0  0  0  0  0  0  0
    9.4478  -14.9392   14.4611 N   0  0  0  0  0  0  0  0  0  0  0  0
    9.0169  -14.9678   16.8481 C   0  0  0  0  0  0  0  0  0  0  0  0
   10.1982  -15.2731   17.1530 O   0  0  0  0  0  0  0  0  0  0  0  0
    7.6846  -13.0114   19.7226 C   0  0  0  0  0  0  0  0  0  0  0  0
    8.7022  -13.9524   19.0666 C   0  0  2  0  0  0  0  0  0  0  0  0
    8.1775  -14.3146   17.7851 N   0  0  0  0  0  0  0  0  0  0  0  0
    8.9215  -15.1196   19.9521 C   0  0  0  0  0  0  0  0  0  0  0  0
    8.1365  -16.1082   19.9596 O   0  0  0  0  0  0  0  0  0  0  0  0
   12.1642  -15.1392   22.8848 C   0  0  0  0  0  0  0  0  0  0  0  0
   11.7623  -16.3252   22.0767 C   0  0  1  0  0  0  0  0  0  0  0  0
   11.9449  -17.4768   22.8465 O   0  0  0  0  0  0  0  0  0  0  0  0
   10.3157  -16.2857   21.6424 C   0  0  2  0  0  0  0  0  0  0  0  0
   10.0301  -15.1398   20.8126 N   0  0  0  0  0  0  0  0  0  0  0  0
    9.4325  -16.2886   22.8339 C   0  0  0  0  0  0  0  0  0  0  0  0
    9.1911  -17.4317   23.5575 O   0  0  0  0  0  0  0  0  0  0  0  0
    8.8965  -15.2082   23.1799 O   0  0  0  0  0  0  0  0  0  0  0  0
  2  1  1  0
  3  2  1  0
  3  4  1  6
  5  6  2  0
  5  3  1  0
  8  7  1  1
  8  9  1  0
  9  5  1  0
 10  8  1  0
 10 11  2  0
 13 12  1  1
 13 14  1  0
 15 16  1  1
 15 13  1  0
 16 10  1  0
 17 15  1  0
 18 17  1  0
 19 17  2  0
M  END
$$$$
