SAT.pdb
     RDKit          3D

 19 18  0  0  1  0  0  0  0  0999 V2000
    6.9516  -18.7054   18.2130 O   0  0  0  0  0  0  0  0  0  0  0  0
    6.1279  -17.6122   17.9353 C   0  0  0  0  0  0  0  0  0  0  0  0
    7.0132  -16.5339   17.3367 C   0  0  2  0  0  0  0  0  0  0  0  0
    7.8192  -17.1498   16.3197 N   0  0  0  0  0  0  0  0  0  0  0  0
    7.8710  -15.9967   18.4533 C   0  0  0  0  0  0  0  0  0  0  0  0
    9.0085  -16.4943   18.6536 O   0  0  0  0  0  0  0  0  0  0  0  0
    7.4882  -13.2310   20.9316 C   0  0  0  0  0  0  0  0  0  0  0  0
    8.2371  -14.4081   20.2956 C   0  0  2  0  0  0  0  0  0  0  0  0
    7.3943  -14.9392   19.2679 N   0  0  0  0  0  0  0  0  0  0  0  0
    8.5608  -15.3997   21.3475 C   0  0  0  0  0  0  0  0  0  0  0  0
    7.7061  -16.2271   21.7700 O   0  0  0  0  0  0  0  0  0  0  0  0
   12.0868  -17.8002   23.8187 C   0  0  0  0  0  0  0  0  0  0  0  0
   11.6793  -16.7899   22.8016 C   0  0  1  0  0  0  0  0  0  0  0  0
   11.9044  -17.3180   21.5278 O   0  0  0  0  0  0  0  0  0  0  0  0
   10.2194  -16.4113   22.8922 C   0  0  2  0  0  0  0  0  0  0  0  0
    9.8511  -15.4311   21.8988 N   0  0  0  0  0  0  0  0  0  0  0  0
    9.9151  -15.9026   24.2517 C   0  0  0  0  0  0  0  0  0  0  0  0
    9.4970  -16.7342   25.2627 O   0  0  0  0  0  0  0  0  0  0  0  0
   10.0479  -14.6743   24.4710 O   0  0  0  0  0  0  0  0  0  0  0  0
  2  1  1  0
  3  2  1  0
  3  4  1  6
  5  6  2  0
  5  3  1  0
  8  7  1  1
  8  9  1  0
  9  5  1  0
 10  8  1  0
 10 11  2  0
 13 12  1  1
 13 14  1  0
 15 16  1  6
 15 13  1  0
 16 10  1  0
 17 15  1  0
 18 17  1  0
 19 17  2  0
M  END
$$$$
