TKK.pdb
     RDKit          3D

 26 25  0  0  1  0  0  0  0  0999 V2000
    6.7660  -21.0443   18.0927 C   0  0  0  0  0  0  0  0  0  0  0  0
    7.6206  -20.1916   19.0063 C   0  0  1  0  0  0  0  0  0  0  0  0
    8.7679  -20.9064   19.3188 O   0  0  0  0  0  0  0  0  0  0  0  0
    7.9246  -18.9097   18.2714 C   0  0  2  0  0  0  0  0  0  0  0  0
    8.5109  -19.1182   16.9792 N   0  0  0  0  0  0  0  0  0  0  0  0
    8.7337  -17.9672   19.0423 C   0  0  0  0  0  0  0  0  0  0  0  0
    9.9698  -18.1764   19.1413 O   0  0  0  0  0  0  0  0  0  0  0  0
    8.2260  -16.8147   19.6994 N   0  0  0  0  0  0  0  0  0  0  0  0
    9.0242  -15.8907   20.4787 C   0  0  1  0  0  0  0  0  0  0  0  0
    8.3522  -14.5498   20.6297 C   0  0  0  0  0  0  0  0  0  0  0  0
    8.0052  -13.8922   19.3548 C   0  0  0  0  0  0  0  0  0  0  0  0
    7.2294  -12.6336   19.4431 C   0  0  0  0  0  0  0  0  0  0  0  0
    6.8659  -12.0465   18.0982 C   0  0  0  0  0  0  0  0  0  0  0  0
    5.9699  -10.9168   18.3813 N   0  0  0  0  0  0  0  0  0  0  0  0
    9.3697  -16.4727   21.8122 C   0  0  0  0  0  0  0  0  0  0  0  0
    8.4362  -16.9277   22.5460 O   0  0  0  0  0  0  0  0  0  0  0  0
   10.6823  -16.5472   22.3091 N   0  0  0  0  0  0  0  0  0  0  0  0
   11.0285  -17.2163   23.5717 C   0  0  1  0  0  0  0  0  0  0  0  0
   11.4799  -18.6140   23.3174 C   0  0  0  0  0  0  0  0  0  0  0  0
   11.8488  -19.3029   24.5936 C   0  0  0  0  0  0  0  0  0  0  0  0
   12.4733  -20.6678   24.3474 C   0  0  0  0  0  0  0  0  0  0  0  0
   12.7742  -21.3800   25.6340 C   0  0  0  0  0  0  0  0  0  0  0  0
   13.4578  -22.6278   25.2634 N   0  0  0  0  0  0  0  0  0  0  0  0
   11.9960  -16.4317   24.3351 C   0  0  0  0  0  0  0  0  0  0  0  0
   12.2592  -16.4796   25.6732 O   0  0  0  0  0  0  0  0  0  0  0  0
   12.6885  -15.5826   23.6589 O   0  0  0  0  0  0  0  0  0  0  0  0
  2  1  1  6
  2  4  1  0
  2  3  1  0
  4  5  1  6
  6  4  1  0
  7  6  2  0
  8  6  1  0
  9  8  1  0
  9 10  1  1
 10 11  1  0
 11 12  1  0
 12 13  1  0
 13 14  1  0
 15  9  1  0
 16 15  2  0
 17 15  1  0
 18 24  1  0
 18 17  1  0
 18 19  1  6
 20 19  1  0
 21 22  1  0
 21 20  1  0
 23 22  1  0
 24 25  1  0
 26 24  2  0
M  END
$$$$
