TKK.pdb
     RDKit          3D

 26 25  0  0  1  0  0  0  0  0999 V2000
    5.9791  -21.8430   18.2570 C   0  0  0  0  0  0  0  0  0  0  0  0
    6.8818  -20.8271   18.9242 C   0  0  1  0  0  0  0  0  0  0  0  0
    7.9616  -21.5022   19.4750 O   0  0  0  0  0  0  0  0  0  0  0  0
    7.3023  -19.8359   17.8676 C   0  0  2  0  0  0  0  0  0  0  0  0
    7.9222  -20.4461   16.7273 N   0  0  0  0  0  0  0  0  0  0  0  0
    8.1445  -18.7548   18.3768 C   0  0  0  0  0  0  0  0  0  0  0  0
    9.3857  -18.8180   18.1847 O   0  0  0  0  0  0  0  0  0  0  0  0
    7.6641  -17.6200   19.0833 N   0  0  0  0  0  0  0  0  0  0  0  0
    8.5056  -16.6063   19.6856 C   0  0  1  0  0  0  0  0  0  0  0  0
    7.8857  -15.2347   19.6051 C   0  0  0  0  0  0  0  0  0  0  0  0
    8.7575  -14.1406   20.0756 C   0  0  0  0  0  0  0  0  0  0  0  0
    8.2305  -12.7630   19.9407 C   0  0  0  0  0  0  0  0  0  0  0  0
    9.2041  -11.6927   20.3790 C   0  0  0  0  0  0  0  0  0  0  0  0
    8.5111  -10.4124   20.1797 N   0  0  0  0  0  0  0  0  0  0  0  0
    8.8454  -16.9611   21.0981 C   0  0  0  0  0  0  0  0  0  0  0  0
    7.9153  -17.3371   21.8794 O   0  0  0  0  0  0  0  0  0  0  0  0
   10.1491  -16.9024   21.6200 N   0  0  0  0  0  0  0  0  0  0  0  0
   10.5153  -17.4494   22.9348 C   0  0  1  0  0  0  0  0  0  0  0  0
   11.2407  -18.7426   22.7807 C   0  0  0  0  0  0  0  0  0  0  0  0
   11.5863  -19.3298   24.1130 C   0  0  0  0  0  0  0  0  0  0  0  0
   12.3918  -20.6133   23.9811 C   0  0  0  0  0  0  0  0  0  0  0  0
   12.7697  -21.1710   25.3225 C   0  0  0  0  0  0  0  0  0  0  0  0
   13.4035  -22.4721   25.0634 N   0  0  0  0  0  0  0  0  0  0  0  0
   11.2547  -16.4684   23.7256 C   0  0  0  0  0  0  0  0  0  0  0  0
   11.2703  -16.3101   25.0808 O   0  0  0  0  0  0  0  0  0  0  0  0
   11.9842  -15.6441   23.0577 O   0  0  0  0  0  0  0  0  0  0  0  0
  2  1  1  6
  2  4  1  0
  2  3  1  0
  4  5  1  6
  6  4  1  0
  7  6  2  0
  8  6  1  0
  9  8  1  0
  9 10  1  1
 10 11  1  0
 11 12  1  0
 12 13  1  0
 13 14  1  0
 15  9  1  0
 16 15  2  0
 17 15  1  0
 18 24  1  0
 18 17  1  0
 18 19  1  6
 20 19  1  0
 21 22  1  0
 21 20  1  0
 23 22  1  0
 24 25  1  0
 26 24  2  0
M  END
$$$$
