TKK.pdb
     RDKit          3D

 26 25  0  0  1  0  0  0  0  0999 V2000
    9.6651  -12.8393   17.0309 C   0  0  0  0  0  0  0  0  0  0  0  0
    9.6505  -13.7564   18.2354 C   0  0  1  0  0  0  0  0  0  0  0  0
   10.2568  -13.0933   19.2926 O   0  0  0  0  0  0  0  0  0  0  0  0
    8.2098  -14.0992   18.5226 C   0  0  2  0  0  0  0  0  0  0  0  0
    7.3710  -12.9475   18.6863 N   0  0  0  0  0  0  0  0  0  0  0  0
    8.0357  -15.0102   19.6528 C   0  0  0  0  0  0  0  0  0  0  0  0
    7.5449  -14.5588   20.7190 O   0  0  0  0  0  0  0  0  0  0  0  0
    8.3831  -16.3874   19.6421 N   0  0  0  0  0  0  0  0  0  0  0  0
    8.3111  -17.2653   20.7921 C   0  0  1  0  0  0  0  0  0  0  0  0
    8.5093  -18.7111   20.4141 C   0  0  0  0  0  0  0  0  0  0  0  0
    7.3752  -19.3146   19.6876 C   0  0  0  0  0  0  0  0  0  0  0  0
    6.0566  -19.2785   20.3612 C   0  0  0  0  0  0  0  0  0  0  0  0
    4.9463  -19.9218   19.5618 C   0  0  0  0  0  0  0  0  0  0  0  0
    3.7141  -19.6945   20.3294 N   0  0  0  0  0  0  0  0  0  0  0  0
    9.2839  -16.8470   21.8480 C   0  0  0  0  0  0  0  0  0  0  0  0
   10.4697  -16.5402   21.5062 O   0  0  0  0  0  0  0  0  0  0  0  0
    8.9610  -16.7722   23.2139 N   0  0  0  0  0  0  0  0  0  0  0  0
    9.9074  -16.3125   24.2410 C   0  0  1  0  0  0  0  0  0  0  0  0
    9.1767  -15.7692   25.4212 C   0  0  0  0  0  0  0  0  0  0  0  0
   10.1271  -15.3461   26.4968 C   0  0  0  0  0  0  0  0  0  0  0  0
    9.4035  -14.7914   27.7143 C   0  0  0  0  0  0  0  0  0  0  0  0
   10.3663  -14.3460   28.7762 C   0  0  0  0  0  0  0  0  0  0  0  0
    9.5480  -13.9206   29.9212 N   0  0  0  0  0  0  0  0  0  0  0  0
   10.8575  -17.3659   24.5904 C   0  0  0  0  0  0  0  0  0  0  0  0
   12.1672  -17.2403   24.9521 O   0  0  0  0  0  0  0  0  0  0  0  0
   10.4015  -18.5692   24.5491 O   0  0  0  0  0  0  0  0  0  0  0  0
  2  1  1  6
  2  4  1  0
  2  3  1  0
  4  5  1  1
  6  4  1  0
  7  6  2  0
  8  6  1  0
  9  8  1  0
  9 10  1  6
 10 11  1  0
 11 12  1  0
 12 13  1  0
 13 14  1  0
 15  9  1  0
 16 15  2  0
 17 15  1  0
 18 24  1  0
 18 17  1  0
 18 19  1  1
 20 19  1  0
 21 22  1  0
 21 20  1  0
 23 22  1  0
 24 25  1  0
 26 24  2  0
M  END
$$$$
