TKK.pdb
     RDKit          3D

 26 25  0  0  1  0  0  0  0  0999 V2000
    9.6676  -13.6965   16.9797 C   0  0  0  0  0  0  0  0  0  0  0  0
    9.3753  -14.3767   18.3003 C   0  0  1  0  0  0  0  0  0  0  0  0
   10.3349  -13.9732   19.2176 O   0  0  0  0  0  0  0  0  0  0  0  0
    7.9809  -13.9766   18.7139 C   0  0  2  0  0  0  0  0  0  0  0  0
    7.7843  -12.5565   18.7579 N   0  0  0  0  0  0  0  0  0  0  0  0
    7.5433  -14.5819   19.9707 C   0  0  0  0  0  0  0  0  0  0  0  0
    7.3657  -13.8362   20.9676 O   0  0  0  0  0  0  0  0  0  0  0  0
    7.2991  -15.9686   20.1582 N   0  0  0  0  0  0  0  0  0  0  0  0
    6.9611  -16.5825   21.4260 C   0  0  1  0  0  0  0  0  0  0  0  0
    6.4762  -17.9998   21.2573 C   0  0  0  0  0  0  0  0  0  0  0  0
    6.1499  -18.6894   22.5209 C   0  0  0  0  0  0  0  0  0  0  0  0
    5.5623  -20.0443   22.4087 C   0  0  0  0  0  0  0  0  0  0  0  0
    5.2423  -20.6817   23.7417 C   0  0  0  0  0  0  0  0  0  0  0  0
    4.6087  -21.9703   23.4297 N   0  0  0  0  0  0  0  0  0  0  0  0
    8.1129  -16.5175   22.3775 C   0  0  0  0  0  0  0  0  0  0  0  0
    9.2790  -16.7949   21.9528 O   0  0  0  0  0  0  0  0  0  0  0  0
    7.9811  -16.1637   23.7313 N   0  0  0  0  0  0  0  0  0  0  0  0
    9.1297  -15.9746   24.6296 C   0  0  1  0  0  0  0  0  0  0  0  0
    8.7149  -15.2518   25.8656 C   0  0  0  0  0  0  0  0  0  0  0  0
    9.8622  -15.1024   26.8145 C   0  0  0  0  0  0  0  0  0  0  0  0
    9.4795  -14.3100   28.0551 C   0  0  0  0  0  0  0  0  0  0  0  0
   10.6450  -14.1393   28.9855 C   0  0  0  0  0  0  0  0  0  0  0  0
   10.1726  -13.2843   30.0842 N   0  0  0  0  0  0  0  0  0  0  0  0
    9.7971  -17.2447   24.9052 C   0  0  0  0  0  0  0  0  0  0  0  0
   11.1335  -17.4909   25.0280 O   0  0  0  0  0  0  0  0  0  0  0  0
    9.0248  -18.2649   25.0481 O   0  0  0  0  0  0  0  0  0  0  0  0
  2  1  1  6
  2  4  1  0
  2  3  1  0
  4  5  1  1
  6  4  1  0
  7  6  2  0
  8  6  1  0
  9  8  1  0
  9 10  1  6
 10 11  1  0
 11 12  1  0
 12 13  1  0
 13 14  1  0
 15  9  1  0
 16 15  2  0
 17 15  1  0
 18 24  1  0
 18 17  1  0
 18 19  1  1
 20 19  1  0
 21 22  1  0
 21 20  1  0
 23 22  1  0
 24 25  1  0
 26 24  2  0
M  END
$$$$
