TKK.pdb
     RDKit          3D

 26 25  0  0  1  0  0  0  0  0999 V2000
    7.7528  -18.7249   18.2620 C   0  0  0  0  0  0  0  0  0  0  0  0
    8.1777  -18.1594   19.6006 C   0  0  1  0  0  0  0  0  0  0  0  0
    9.2385  -18.9176   20.0747 O   0  0  0  0  0  0  0  0  0  0  0  0
    8.5565  -16.7160   19.3797 C   0  0  2  0  0  0  0  0  0  0  0  0
    9.5547  -16.5370   18.3655 N   0  0  0  0  0  0  0  0  0  0  0  0
    8.9534  -16.0181   20.6015 C   0  0  0  0  0  0  0  0  0  0  0  0
   10.1788  -15.8437   20.8235 O   0  0  0  0  0  0  0  0  0  0  0  0
    8.0495  -15.5133   21.5741 N   0  0  0  0  0  0  0  0  0  0  0  0
    8.4421  -14.9227   22.8372 C   0  0  1  0  0  0  0  0  0  0  0  0
    7.2941  -14.2186   23.5143 C   0  0  0  0  0  0  0  0  0  0  0  0
    7.6225  -13.6401   24.8318 C   0  0  0  0  0  0  0  0  0  0  0  0
    6.5610  -12.8492   25.4962 C   0  0  0  0  0  0  0  0  0  0  0  0
    7.0033  -12.1997   26.7878 C   0  0  0  0  0  0  0  0  0  0  0  0
    5.8754  -11.3659   27.2257 N   0  0  0  0  0  0  0  0  0  0  0  0
    9.0540  -15.9455   23.7404 C   0  0  0  0  0  0  0  0  0  0  0  0
    8.4213  -17.0253   23.9660 O   0  0  0  0  0  0  0  0  0  0  0  0
   10.3032  -15.7817   24.3633 N   0  0  0  0  0  0  0  0  0  0  0  0
   10.9779  -16.8543   25.1092 C   0  0  1  0  0  0  0  0  0  0  0  0
   12.4539  -16.7797   24.9143 C   0  0  0  0  0  0  0  0  0  0  0  0
   13.1437  -17.9364   25.5666 C   0  0  0  0  0  0  0  0  0  0  0  0
   14.6470  -17.9104   25.3359 C   0  0  0  0  0  0  0  0  0  0  0  0
   15.3129  -19.1399   25.8816 C   0  0  0  0  0  0  0  0  0  0  0  0
   16.7023  -19.1025   25.4021 N   0  0  0  0  0  0  0  0  0  0  0  0
   10.5844  -16.8449   26.5162 C   0  0  0  0  0  0  0  0  0  0  0  0
   10.5753  -17.8837   27.4008 O   0  0  0  0  0  0  0  0  0  0  0  0
   10.1927  -15.7102   26.9817 O   0  0  0  0  0  0  0  0  0  0  0  0
  2  1  1  6
  2  4  1  0
  2  3  1  0
  4  5  1  6
  6  4  1  0
  7  6  2  0
  8  6  1  0
  9  8  1  0
  9 10  1  1
 10 11  1  0
 11 12  1  0
 12 13  1  0
 13 14  1  0
 15  9  1  0
 16 15  2  0
 17 15  1  0
 18 24  1  0
 18 17  1  0
 18 19  1  1
 20 19  1  0
 21 22  1  0
 21 20  1  0
 23 22  1  0
 24 25  1  0
 26 24  2  0
M  END
$$$$
