TKK.pdb
     RDKit          3D

 26 25  0  0  1  0  0  0  0  0999 V2000
    8.2113  -15.4281   17.2194 C   0  0  0  0  0  0  0  0  0  0  0  0
    8.6259  -15.3974   18.6751 C   0  0  1  0  0  0  0  0  0  0  0  0
   10.0044  -15.5430   18.7366 O   0  0  0  0  0  0  0  0  0  0  0  0
    8.1610  -14.0816   19.2480 C   0  0  2  0  0  0  0  0  0  0  0  0
    8.6434  -12.9417   18.5235 N   0  0  0  0  0  0  0  0  0  0  0  0
    8.4467  -13.9265   20.6734 C   0  0  0  0  0  0  0  0  0  0  0  0
    9.4807  -13.2975   21.0146 O   0  0  0  0  0  0  0  0  0  0  0  0
    7.6355  -14.4389   21.7209 N   0  0  0  0  0  0  0  0  0  0  0  0
    7.8569  -14.1929   23.1311 C   0  0  1  0  0  0  0  0  0  0  0  0
    6.5661  -14.1557   23.9089 C   0  0  0  0  0  0  0  0  0  0  0  0
    6.7218  -13.8180   25.3372 C   0  0  0  0  0  0  0  0  0  0  0  0
    6.0954  -12.5570   25.7965 C   0  0  0  0  0  0  0  0  0  0  0  0
    6.1935  -12.3363   27.2889 C   0  0  0  0  0  0  0  0  0  0  0  0
    5.4262  -11.1141   27.5662 N   0  0  0  0  0  0  0  0  0  0  0  0
    8.8042  -15.1957   23.7084 C   0  0  0  0  0  0  0  0  0  0  0  0
    8.7298  -16.4056   23.3241 O   0  0  0  0  0  0  0  0  0  0  0  0
    9.7846  -14.8760   24.6634 N   0  0  0  0  0  0  0  0  0  0  0  0
   10.5388  -15.8908   25.4138 C   0  0  1  0  0  0  0  0  0  0  0  0
   10.5388  -15.5731   26.8702 C   0  0  0  0  0  0  0  0  0  0  0  0
   10.8251  -16.7925   27.6889 C   0  0  0  0  0  0  0  0  0  0  0  0
   11.3201  -16.4422   29.0838 C   0  0  0  0  0  0  0  0  0  0  0  0
   11.7374  -17.6652   29.8474 C   0  0  0  0  0  0  0  0  0  0  0  0
   12.3830  -17.1822   31.0769 N   0  0  0  0  0  0  0  0  0  0  0  0
   10.0477  -17.2352   25.1206 C   0  0  0  0  0  0  0  0  0  0  0  0
    8.8118  -17.7585   25.3665 O   0  0  0  0  0  0  0  0  0  0  0  0
   10.8906  -18.0306   24.5599 O   0  0  0  0  0  0  0  0  0  0  0  0
  2  1  1  6
  2  4  1  0
  2  3  1  0
  4  5  1  6
  6  4  1  0
  7  6  2  0
  8  6  1  0
  9  8  1  0
  9 10  1  1
 10 11  1  0
 11 12  1  0
 12 13  1  0
 13 14  1  0
 15  9  1  0
 16 15  2  0
 17 15  1  0
 18 24  1  0
 18 17  1  0
 18 19  1  1
 20 19  1  0
 21 22  1  0
 21 20  1  0
 23 22  1  0
 24 25  1  0
 26 24  2  0
M  END
$$$$
