TKK.pdb
     RDKit          3D

 26 25  0  0  1  0  0  0  0  0999 V2000
    5.0936  -21.6105   19.3579 C   0  0  0  0  0  0  0  0  0  0  0  0
    6.0941  -20.6078   19.8923 C   0  0  1  0  0  0  0  0  0  0  0  0
    7.3079  -21.2571   20.0663 O   0  0  0  0  0  0  0  0  0  0  0  0
    6.1826  -19.4828   18.8912 C   0  0  2  0  0  0  0  0  0  0  0  0
    6.5816  -19.9136   17.5827 N   0  0  0  0  0  0  0  0  0  0  0  0
    7.0228  -18.3696   19.3298 C   0  0  0  0  0  0  0  0  0  0  0  0
    8.2689  -18.4650   19.1895 O   0  0  0  0  0  0  0  0  0  0  0  0
    6.5352  -17.1690   19.9116 N   0  0  0  0  0  0  0  0  0  0  0  0
    7.3705  -16.1042   20.4282 C   0  0  1  0  0  0  0  0  0  0  0  0
    6.5970  -14.8267   20.6335 C   0  0  0  0  0  0  0  0  0  0  0  0
    7.4151  -13.6804   21.0752 C   0  0  0  0  0  0  0  0  0  0  0  0
    8.2566  -13.0260   20.0468 C   0  0  0  0  0  0  0  0  0  0  0  0
    9.0088  -11.8168   20.5544 C   0  0  0  0  0  0  0  0  0  0  0  0
    9.8181  -11.3425   19.4233 N   0  0  0  0  0  0  0  0  0  0  0  0
    8.0584  -16.5250   21.6876 C   0  0  0  0  0  0  0  0  0  0  0  0
    7.3860  -17.1225   22.5864 O   0  0  0  0  0  0  0  0  0  0  0  0
    9.4219  -16.2959   21.9400 N   0  0  0  0  0  0  0  0  0  0  0  0
   10.1210  -16.8197   23.1227 C   0  0  1  0  0  0  0  0  0  0  0  0
   11.4733  -17.3248   22.7512 C   0  0  0  0  0  0  0  0  0  0  0  0
   12.1848  -17.8885   23.9409 C   0  0  0  0  0  0  0  0  0  0  0  0
   13.5323  -18.4890   23.5705 C   0  0  0  0  0  0  0  0  0  0  0  0
   14.2157  -19.0946   24.7617 C   0  0  0  0  0  0  0  0  0  0  0  0
   15.4528  -19.7090   24.2581 N   0  0  0  0  0  0  0  0  0  0  0  0
   10.1543  -15.8290   24.1960 C   0  0  0  0  0  0  0  0  0  0  0  0
   10.2656  -16.0384   25.5398 O   0  0  0  0  0  0  0  0  0  0  0  0
   10.0641  -14.5988   23.8271 O   0  0  0  0  0  0  0  0  0  0  0  0
  2  1  1  6
  2  4  1  0
  2  3  1  0
  4  5  1  6
  6  4  1  0
  7  6  2  0
  8  6  1  0
  9  8  1  0
  9 10  1  1
 10 11  1  0
 11 12  1  0
 12 13  1  0
 13 14  1  0
 15  9  1  0
 16 15  2  0
 17 15  1  0
 18 24  1  0
 18 17  1  0
 18 19  1  6
 20 19  1  0
 21 22  1  0
 21 20  1  0
 23 22  1  0
 24 25  1  0
 26 24  2  0
M  END
$$$$
