TKK.pdb
     RDKit          3D

 26 25  0  0  1  0  0  0  0  0999 V2000
   10.9807  -13.6518   17.4109 C   0  0  0  0  0  0  0  0  0  0  0  0
   10.4916  -14.2543   18.7109 C   0  0  1  0  0  0  0  0  0  0  0  0
   11.1012  -13.5789   19.7583 O   0  0  0  0  0  0  0  0  0  0  0  0
    8.9896  -14.1154   18.7344 C   0  0  2  0  0  0  0  0  0  0  0  0
    8.5399  -12.7600   18.6018 N   0  0  0  0  0  0  0  0  0  0  0  0
    8.3589  -14.7409   19.8956 C   0  0  0  0  0  0  0  0  0  0  0  0
    7.9522  -14.0031   20.8293 O   0  0  0  0  0  0  0  0  0  0  0  0
    8.1662  -16.1391   20.0557 N   0  0  0  0  0  0  0  0  0  0  0  0
    7.6520  -16.7690   21.2545 C   0  0  1  0  0  0  0  0  0  0  0  0
    7.2524  -18.2024   21.0142 C   0  0  0  0  0  0  0  0  0  0  0  0
    6.8557  -18.9391   22.2300 C   0  0  0  0  0  0  0  0  0  0  0  0
    6.3574  -20.3209   22.0398 C   0  0  0  0  0  0  0  0  0  0  0  0
    5.9003  -20.9851   23.3186 C   0  0  0  0  0  0  0  0  0  0  0  0
    7.1197  -21.4765   23.9750 N   0  0  0  0  0  0  0  0  0  0  0  0
    8.6333  -16.6650   22.3781 C   0  0  0  0  0  0  0  0  0  0  0  0
    9.8349  -17.0321   22.1823 O   0  0  0  0  0  0  0  0  0  0  0  0
    8.3016  -16.1796   23.6548 N   0  0  0  0  0  0  0  0  0  0  0  0
    9.2299  -16.2114   24.7945 C   0  0  1  0  0  0  0  0  0  0  0  0
    8.5919  -15.6236   26.0067 C   0  0  0  0  0  0  0  0  0  0  0  0
    9.4583  -15.8024   27.2135 C   0  0  0  0  0  0  0  0  0  0  0  0
    9.5659  -14.5267   28.0350 C   0  0  0  0  0  0  0  0  0  0  0  0
   10.4339  -14.7177   29.2445 C   0  0  0  0  0  0  0  0  0  0  0  0
   10.4440  -13.4286   29.9514 N   0  0  0  0  0  0  0  0  0  0  0  0
    9.7458  -17.5603   25.0156 C   0  0  0  0  0  0  0  0  0  0  0  0
    9.1953  -18.7507   24.6392 O   0  0  0  0  0  0  0  0  0  0  0  0
   10.8634  -17.6366   25.6502 O   0  0  0  0  0  0  0  0  0  0  0  0
  2  1  1  6
  2  4  1  0
  2  3  1  0
  4  5  1  1
  6  4  1  0
  7  6  2  0
  8  6  1  0
  9  8  1  0
  9 10  1  6
 10 11  1  0
 11 12  1  0
 12 13  1  0
 13 14  1  0
 15  9  1  0
 16 15  2  0
 17 15  1  0
 18 24  1  0
 18 17  1  0
 18 19  1  1
 20 19  1  0
 21 22  1  0
 21 20  1  0
 23 22  1  0
 24 25  1  0
 26 24  2  0
M  END
$$$$
