TKK.pdb
     RDKit          3D

 26 25  0  0  1  0  0  0  0  0999 V2000
    9.5118  -13.6358   16.9618 C   0  0  0  0  0  0  0  0  0  0  0  0
    9.2982  -14.2788   18.3157 C   0  0  1  0  0  0  0  0  0  0  0  0
   10.2981  -13.8350   19.1691 O   0  0  0  0  0  0  0  0  0  0  0  0
    7.9214  -13.8840   18.7894 C   0  0  2  0  0  0  0  0  0  0  0  0
    7.7076  -12.4658   18.8029 N   0  0  0  0  0  0  0  0  0  0  0  0
    7.5576  -14.4576   20.0840 C   0  0  0  0  0  0  0  0  0  0  0  0
    7.5127  -13.6996   21.0864 O   0  0  0  0  0  0  0  0  0  0  0  0
    7.2458  -15.8260   20.3031 N   0  0  0  0  0  0  0  0  0  0  0  0
    6.9281  -16.4033   21.5931 C   0  0  1  0  0  0  0  0  0  0  0  0
    6.4621  -17.8320   21.4748 C   0  0  0  0  0  0  0  0  0  0  0  0
    6.2801  -18.5251   22.7651 C   0  0  0  0  0  0  0  0  0  0  0  0
    5.8393  -19.9379   22.7069 C   0  0  0  0  0  0  0  0  0  0  0  0
    5.5771  -20.5506   24.0638 C   0  0  0  0  0  0  0  0  0  0  0  0
    5.1123  -21.9202   23.8038 N   0  0  0  0  0  0  0  0  0  0  0  0
    8.0874  -16.2914   22.5310 C   0  0  0  0  0  0  0  0  0  0  0  0
    9.2539  -16.5625   22.1034 O   0  0  0  0  0  0  0  0  0  0  0  0
    7.9624  -15.8994   23.8749 N   0  0  0  0  0  0  0  0  0  0  0  0
    9.1000  -15.8355   24.8042 C   0  0  1  0  0  0  0  0  0  0  0  0
    8.6781  -15.2530   26.1098 C   0  0  0  0  0  0  0  0  0  0  0  0
    9.8072  -15.2543   27.0918 C   0  0  0  0  0  0  0  0  0  0  0  0
    9.3814  -14.7290   28.4543 C   0  0  0  0  0  0  0  0  0  0  0  0
   10.4857  -14.8476   29.4641 C   0  0  0  0  0  0  0  0  0  0  0  0
    9.9636  -14.2756   30.7138 N   0  0  0  0  0  0  0  0  0  0  0  0
    9.7427  -17.1405   24.9399 C   0  0  0  0  0  0  0  0  0  0  0  0
    9.1616  -18.3499   25.1878 O   0  0  0  0  0  0  0  0  0  0  0  0
   11.0238  -17.1511   24.8119 O   0  0  0  0  0  0  0  0  0  0  0  0
  2  1  1  6
  2  4  1  0
  2  3  1  0
  4  5  1  1
  6  4  1  0
  7  6  2  0
  8  6  1  0
  9  8  1  0
  9 10  1  6
 10 11  1  0
 11 12  1  0
 12 13  1  0
 13 14  1  0
 15  9  1  0
 16 15  2  0
 17 15  1  0
 18 24  1  0
 18 17  1  0
 18 19  1  1
 20 19  1  0
 21 22  1  0
 21 20  1  0
 23 22  1  0
 24 25  1  0
 26 24  2  0
M  END
$$$$
