TKK.pdb
     RDKit          3D

 26 25  0  0  1  0  0  0  0  0999 V2000
   14.2685  -18.4786   15.9514 C   0  0  0  0  0  0  0  0  0  0  0  0
   13.2576  -17.5257   15.3497 C   0  0  1  0  0  0  0  0  0  0  0  0
   13.3124  -17.6503   13.9689 O   0  0  0  0  0  0  0  0  0  0  0  0
   11.9048  -17.8940   15.9066 C   0  0  2  0  0  0  0  0  0  0  0  0
   10.8135  -17.2811   15.2063 N   0  0  0  0  0  0  0  0  0  0  0  0
   11.7750  -17.6556   17.3431 C   0  0  0  0  0  0  0  0  0  0  0  0
   11.7674  -16.4683   17.7575 O   0  0  0  0  0  0  0  0  0  0  0  0
   11.6550  -18.6757   18.3243 N   0  0  0  0  0  0  0  0  0  0  0  0
   11.6265  -18.4456   19.7542 C   0  0  1  0  0  0  0  0  0  0  0  0
   11.3346  -19.7076   20.5252 C   0  0  0  0  0  0  0  0  0  0  0  0
   11.2460  -19.5249   21.9871 C   0  0  0  0  0  0  0  0  0  0  0  0
   11.0194  -20.7429   22.7988 C   0  0  0  0  0  0  0  0  0  0  0  0
   10.9422  -20.4785   24.2854 C   0  0  0  0  0  0  0  0  0  0  0  0
   10.5856  -21.7626   24.9044 N   0  0  0  0  0  0  0  0  0  0  0  0
   12.8980  -17.8118   20.2210 C   0  0  0  0  0  0  0  0  0  0  0  0
   13.9991  -18.1924   19.7113 O   0  0  0  0  0  0  0  0  0  0  0  0
   12.9488  -16.8074   21.2029 N   0  0  0  0  0  0  0  0  0  0  0  0
   14.1785  -16.0780   21.5458 C   0  0  1  0  0  0  0  0  0  0  0  0
   14.3003  -14.8406   20.7236 C   0  0  0  0  0  0  0  0  0  0  0  0
   15.4606  -14.9294   19.7829 C   0  0  0  0  0  0  0  0  0  0  0  0
   15.5899  -13.6872   18.9146 C   0  0  0  0  0  0  0  0  0  0  0  0
   16.7395  -13.7980   17.9559 C   0  0  0  0  0  0  0  0  0  0  0  0
   16.6439  -12.6342   17.0626 N   0  0  0  0  0  0  0  0  0  0  0  0
   14.2552  -15.8216   22.9820 C   0  0  0  0  0  0  0  0  0  0  0  0
   15.3374  -15.4344   23.7174 O   0  0  0  0  0  0  0  0  0  0  0  0
   13.1609  -15.9847   23.6404 O   0  0  0  0  0  0  0  0  0  0  0  0
  2  1  1  1
  2  4  1  0
  2  3  1  0
  4  5  1  6
  6  4  1  0
  7  6  2  0
  8  6  1  0
  9  8  1  0
  9 10  1  1
 10 11  1  0
 11 12  1  0
 12 13  1  0
 13 14  1  0
 15  9  1  0
 16 15  2  0
 17 15  1  0
 18 24  1  0
 18 17  1  0
 18 19  1  6
 20 19  1  0
 21 22  1  0
 21 20  1  0
 23 22  1  0
 24 25  1  0
 26 24  2  0
M  END
$$$$
