TKK.pdb
     RDKit          3D

 26 25  0  0  1  0  0  0  0  0999 V2000
   15.8941  -19.0464   15.0912 C   0  0  0  0  0  0  0  0  0  0  0  0
   15.0997  -18.8524   16.3653 C   0  0  1  0  0  0  0  0  0  0  0  0
   15.9512  -18.3394   17.3333 O   0  0  0  0  0  0  0  0  0  0  0  0
   13.9606  -17.9159   16.0474 C   0  0  2  0  0  0  0  0  0  0  0  0
   14.3899  -16.5909   15.7051 N   0  0  0  0  0  0  0  0  0  0  0  0
   12.9384  -17.8571   17.0910 C   0  0  0  0  0  0  0  0  0  0  0  0
   13.1078  -17.0675   18.0550 O   0  0  0  0  0  0  0  0  0  0  0  0
   11.7495  -18.6343   17.1028 N   0  0  0  0  0  0  0  0  0  0  0  0
   10.7723  -18.6308   18.1722 C   0  0  1  0  0  0  0  0  0  0  0  0
    9.4438  -19.1869   17.7271 C   0  0  0  0  0  0  0  0  0  0  0  0
    8.3922  -19.1620   18.7625 C   0  0  0  0  0  0  0  0  0  0  0  0
    7.0751  -19.7273   18.3890 C   0  0  0  0  0  0  0  0  0  0  0  0
    5.9987  -19.5004   19.4260 C   0  0  0  0  0  0  0  0  0  0  0  0
    4.7735  -20.0911   18.8699 N   0  0  0  0  0  0  0  0  0  0  0  0
   11.2869  -19.3612   19.3714 C   0  0  0  0  0  0  0  0  0  0  0  0
   11.9980  -20.4014   19.2006 O   0  0  0  0  0  0  0  0  0  0  0  0
   11.0272  -18.9608   20.6934 N   0  0  0  0  0  0  0  0  0  0  0  0
   11.5112  -19.7004   21.8684 C   0  0  1  0  0  0  0  0  0  0  0  0
   11.1375  -18.9906   23.1248 C   0  0  0  0  0  0  0  0  0  0  0  0
   11.7196  -19.6717   24.3234 C   0  0  0  0  0  0  0  0  0  0  0  0
   11.4457  -18.9038   25.6074 C   0  0  0  0  0  0  0  0  0  0  0  0
   12.1022  -19.5516   26.7916 C   0  0  0  0  0  0  0  0  0  0  0  0
   11.8124  -18.6884   27.9460 N   0  0  0  0  0  0  0  0  0  0  0  0
   11.0593  -21.0894   21.8388 C   0  0  0  0  0  0  0  0  0  0  0  0
   11.7681  -22.2179   22.1323 O   0  0  0  0  0  0  0  0  0  0  0  0
    9.8344  -21.2737   21.4878 O   0  0  0  0  0  0  0  0  0  0  0  0
  2  1  1  6
  2  4  1  0
  2  3  1  0
  4  5  1  1
  6  4  1  0
  7  6  2  0
  8  6  1  0
  9  8  1  0
  9 10  1  6
 10 11  1  0
 11 12  1  0
 12 13  1  0
 13 14  1  0
 15  9  1  0
 16 15  2  0
 17 15  1  0
 18 24  1  0
 18 17  1  0
 18 19  1  1
 20 19  1  0
 21 22  1  0
 21 20  1  0
 23 22  1  0
 24 25  1  0
 26 24  2  0
M  END
$$$$
