TKK.pdb
     RDKit          3D

 26 25  0  0  1  0  0  0  0  0999 V2000
   10.8971  -14.7380   19.3946 C   0  0  0  0  0  0  0  0  0  0  0  0
   10.1957  -13.4259   19.1144 C   0  0  1  0  0  0  0  0  0  0  0  0
   10.7669  -12.8618   17.9828 O   0  0  0  0  0  0  0  0  0  0  0  0
    8.7300  -13.7299   18.9275 C   0  0  2  0  0  0  0  0  0  0  0  0
    7.9532  -12.5845   18.5512 N   0  0  0  0  0  0  0  0  0  0  0  0
    8.1161  -14.3962   20.0750 C   0  0  0  0  0  0  0  0  0  0  0  0
    7.8009  -13.7025   21.0754 O   0  0  0  0  0  0  0  0  0  0  0  0
    7.8433  -15.7881   20.1508 N   0  0  0  0  0  0  0  0  0  0  0  0
    7.3133  -16.4624   21.3183 C   0  0  1  0  0  0  0  0  0  0  0  0
    6.7937  -17.8388   20.9900 C   0  0  0  0  0  0  0  0  0  0  0  0
    6.4436  -18.6575   22.1672 C   0  0  0  0  0  0  0  0  0  0  0  0
    5.0645  -19.1952   22.2192 C   0  0  0  0  0  0  0  0  0  0  0  0
    4.7292  -19.8871   23.5209 C   0  0  0  0  0  0  0  0  0  0  0  0
    5.3207  -21.2289   23.4273 N   0  0  0  0  0  0  0  0  0  0  0  0
    8.3301  -16.5180   22.4134 C   0  0  0  0  0  0  0  0  0  0  0  0
    9.5274  -16.8360   22.1264 O   0  0  0  0  0  0  0  0  0  0  0  0
    8.0368  -16.2363   23.7587 N   0  0  0  0  0  0  0  0  0  0  0  0
    9.0522  -16.2403   24.8221 C   0  0  1  0  0  0  0  0  0  0  0  0
    8.5730  -15.4736   26.0072 C   0  0  0  0  0  0  0  0  0  0  0  0
    9.6025  -15.4586   27.0931 C   0  0  0  0  0  0  0  0  0  0  0  0
    9.1738  -14.6048   28.2766 C   0  0  0  0  0  0  0  0  0  0  0  0
   10.2401  -14.5435   29.3312 C   0  0  0  0  0  0  0  0  0  0  0  0
    9.7196  -13.6689   30.3922 N   0  0  0  0  0  0  0  0  0  0  0  0
    9.4657  -17.6027   25.1499 C   0  0  0  0  0  0  0  0  0  0  0  0
   10.7203  -18.0659   25.4204 O   0  0  0  0  0  0  0  0  0  0  0  0
    8.5252  -18.4812   25.1858 O   0  0  0  0  0  0  0  0  0  0  0  0
  2  1  1  6
  2  4  1  0
  2  3  1  0
  4  5  1  1
  6  4  1  0
  7  6  2  0
  8  6  1  0
  9  8  1  0
  9 10  1  6
 10 11  1  0
 11 12  1  0
 12 13  1  0
 13 14  1  0
 15  9  1  0
 16 15  2  0
 17 15  1  0
 18 24  1  0
 18 17  1  0
 18 19  1  1
 20 19  1  0
 21 22  1  0
 21 20  1  0
 23 22  1  0
 24 25  1  0
 26 24  2  0
M  END
$$$$
