TKK.pdb
     RDKit          3D

 26 25  0  0  1  0  0  0  0  0999 V2000
    9.6743  -13.5923   17.2573 C   0  0  0  0  0  0  0  0  0  0  0  0
    9.3582  -14.2476   18.5850 C   0  0  1  0  0  0  0  0  0  0  0  0
   10.2292  -13.7390   19.5378 O   0  0  0  0  0  0  0  0  0  0  0  0
    7.9156  -13.9437   18.9049 C   0  0  2  0  0  0  0  0  0  0  0  0
    7.6161  -12.5411   18.9119 N   0  0  0  0  0  0  0  0  0  0  0  0
    7.4444  -14.5625   20.1428 C   0  0  0  0  0  0  0  0  0  0  0  0
    7.2561  -13.8302   21.1475 O   0  0  0  0  0  0  0  0  0  0  0  0
    7.1782  -15.9486   20.3033 N   0  0  0  0  0  0  0  0  0  0  0  0
    6.8767  -16.5897   21.5668 C   0  0  1  0  0  0  0  0  0  0  0  0
    6.4316  -18.0183   21.3849 C   0  0  0  0  0  0  0  0  0  0  0  0
    6.2741  -18.7750   22.6423 C   0  0  0  0  0  0  0  0  0  0  0  0
    5.8452  -20.1875   22.5214 C   0  0  0  0  0  0  0  0  0  0  0  0
    5.6927  -20.8936   23.8494 C   0  0  0  0  0  0  0  0  0  0  0  0
    5.2524  -22.2589   23.5309 N   0  0  0  0  0  0  0  0  0  0  0  0
    8.0396  -16.5035   22.5030 C   0  0  0  0  0  0  0  0  0  0  0  0
    9.2126  -16.6832   22.0462 O   0  0  0  0  0  0  0  0  0  0  0  0
    7.9110  -16.2323   23.8761 N   0  0  0  0  0  0  0  0  0  0  0  0
    9.0619  -16.0180   24.7657 C   0  0  1  0  0  0  0  0  0  0  0  0
    8.6385  -15.3157   26.0105 C   0  0  0  0  0  0  0  0  0  0  0  0
    9.7772  -15.1891   26.9730 C   0  0  0  0  0  0  0  0  0  0  0  0
    9.3498  -14.5472   28.2840 C   0  0  0  0  0  0  0  0  0  0  0  0
   10.5031  -14.4061   29.2342 C   0  0  0  0  0  0  0  0  0  0  0  0
    9.9503  -13.8330   30.4702 N   0  0  0  0  0  0  0  0  0  0  0  0
    9.7662  -17.2713   25.0262 C   0  0  0  0  0  0  0  0  0  0  0  0
   11.1064  -17.4736   25.1837 O   0  0  0  0  0  0  0  0  0  0  0  0
    9.0275  -18.3219   25.1161 O   0  0  0  0  0  0  0  0  0  0  0  0
  2  1  1  6
  2  4  1  0
  2  3  1  0
  4  5  1  1
  6  4  1  0
  7  6  2  0
  8  6  1  0
  9  8  1  0
  9 10  1  6
 10 11  1  0
 11 12  1  0
 12 13  1  0
 13 14  1  0
 15  9  1  0
 16 15  2  0
 17 15  1  0
 18 24  1  0
 18 17  1  0
 18 19  1  1
 20 19  1  0
 21 22  1  0
 21 20  1  0
 23 22  1  0
 24 25  1  0
 26 24  2  0
M  END
$$$$
