TKK.pdb
     RDKit          3D

 26 25  0  0  1  0  0  0  0  0999 V2000
   12.6776  -21.9047   18.9285 C   0  0  0  0  0  0  0  0  0  0  0  0
   11.5248  -21.1338   18.3212 C   0  0  1  0  0  0  0  0  0  0  0  0
   11.6399  -21.1982   16.9400 O   0  0  0  0  0  0  0  0  0  0  0  0
   10.2487  -21.7638   18.8215 C   0  0  2  0  0  0  0  0  0  0  0  0
    9.0811  -21.3285   18.1115 N   0  0  0  0  0  0  0  0  0  0  0  0
   10.0438  -21.6146   20.2614 C   0  0  0  0  0  0  0  0  0  0  0  0
    9.8007  -20.4687   20.7187 O   0  0  0  0  0  0  0  0  0  0  0  0
   10.0989  -22.6791   21.2003 N   0  0  0  0  0  0  0  0  0  0  0  0
    9.9750  -22.5207   22.6349 C   0  0  1  0  0  0  0  0  0  0  0  0
    9.8538  -23.8462   23.3425 C   0  0  0  0  0  0  0  0  0  0  0  0
    8.7563  -23.9162   24.3269 C   0  0  0  0  0  0  0  0  0  0  0  0
    8.6890  -25.1354   25.1651 C   0  0  0  0  0  0  0  0  0  0  0  0
    7.4805  -25.1852   26.0721 C   0  0  0  0  0  0  0  0  0  0  0  0
    7.6566  -26.3782   26.9118 N   0  0  0  0  0  0  0  0  0  0  0  0
   11.1102  -21.7184   23.1860 C   0  0  0  0  0  0  0  0  0  0  0  0
   12.2993  -22.0284   22.8591 O   0  0  0  0  0  0  0  0  0  0  0  0
   10.9384  -20.6278   24.0558 N   0  0  0  0  0  0  0  0  0  0  0  0
   12.0603  -19.8590   24.6145 C   0  0  1  0  0  0  0  0  0  0  0  0
   12.0524  -18.4638   24.0898 C   0  0  0  0  0  0  0  0  0  0  0  0
   13.4239  -17.8664   24.1234 C   0  0  0  0  0  0  0  0  0  0  0  0
   13.6190  -16.8192   23.0377 C   0  0  0  0  0  0  0  0  0  0  0  0
   14.9567  -16.1476   23.1490 C   0  0  0  0  0  0  0  0  0  0  0  0
   15.0642  -15.2499   21.9896 N   0  0  0  0  0  0  0  0  0  0  0  0
   12.0665  -19.9222   26.0742 C   0  0  0  0  0  0  0  0  0  0  0  0
   11.0976  -20.4031   26.9059 O   0  0  0  0  0  0  0  0  0  0  0  0
   13.1214  -19.4620   26.6513 O   0  0  0  0  0  0  0  0  0  0  0  0
  2  1  1  1
  2  4  1  0
  2  3  1  0
  4  5  1  6
  6  4  1  0
  7  6  2  0
  8  6  1  0
  9  8  1  0
  9 10  1  1
 10 11  1  0
 11 12  1  0
 12 13  1  0
 13 14  1  0
 15  9  1  0
 16 15  2  0
 17 15  1  0
 18 24  1  0
 18 17  1  0
 18 19  1  1
 20 19  1  0
 21 22  1  0
 21 20  1  0
 23 22  1  0
 24 25  1  0
 26 24  2  0
M  END
$$$$
