TKK.pdb
     RDKit          3D

 26 25  0  0  1  0  0  0  0  0999 V2000
   11.6561  -20.6649   18.5282 C   0  0  0  0  0  0  0  0  0  0  0  0
   11.1259  -19.4059   17.8756 C   0  0  1  0  0  0  0  0  0  0  0  0
   10.4724  -19.7660   16.7058 O   0  0  0  0  0  0  0  0  0  0  0  0
   10.2045  -18.7389   18.8665 C   0  0  2  0  0  0  0  0  0  0  0  0
    9.4504  -17.6559   18.3048 N   0  0  0  0  0  0  0  0  0  0  0  0
   10.8740  -18.3012   20.0903 C   0  0  0  0  0  0  0  0  0  0  0  0
   11.4828  -17.2009   20.0821 O   0  0  0  0  0  0  0  0  0  0  0  0
   10.8918  -19.0325   21.3079 N   0  0  0  0  0  0  0  0  0  0  0  0
   11.5775  -18.6121   22.5126 C   0  0  1  0  0  0  0  0  0  0  0  0
   10.9119  -19.1417   23.7571 C   0  0  0  0  0  0  0  0  0  0  0  0
   11.6506  -18.8751   25.0068 C   0  0  0  0  0  0  0  0  0  0  0  0
   11.0032  -19.3030   26.2684 C   0  0  0  0  0  0  0  0  0  0  0  0
   11.8528  -19.0732   27.4975 C   0  0  0  0  0  0  0  0  0  0  0  0
   11.0527  -19.5490   28.6345 N   0  0  0  0  0  0  0  0  0  0  0  0
   13.0220  -18.9966   22.4697 C   0  0  0  0  0  0  0  0  0  0  0  0
   13.3297  -20.2289   22.4090 O   0  0  0  0  0  0  0  0  0  0  0  0
   14.0735  -18.0642   22.4933 N   0  0  0  0  0  0  0  0  0  0  0  0
   15.4918  -18.4487   22.4433 C   0  0  1  0  0  0  0  0  0  0  0  0
   16.3196  -17.3297   21.9098 C   0  0  0  0  0  0  0  0  0  0  0  0
   16.2938  -17.3046   20.4138 C   0  0  0  0  0  0  0  0  0  0  0  0
   17.0688  -16.1246   19.8477 C   0  0  0  0  0  0  0  0  0  0  0  0
   17.1041  -16.1528   18.3474 C   0  0  0  0  0  0  0  0  0  0  0  0
   17.6863  -14.8704   17.9253 N   0  0  0  0  0  0  0  0  0  0  0  0
   15.9519  -18.9329   23.7427 C   0  0  0  0  0  0  0  0  0  0  0  0
   16.9835  -19.7841   24.0133 O   0  0  0  0  0  0  0  0  0  0  0  0
   15.2979  -18.5035   24.7652 O   0  0  0  0  0  0  0  0  0  0  0  0
  2  1  1  1
  2  4  1  0
  2  3  1  0
  4  5  1  6
  6  4  1  0
  7  6  2  0
  8  6  1  0
  9  8  1  0
  9 10  1  1
 10 11  1  0
 11 12  1  0
 12 13  1  0
 13 14  1  0
 15  9  1  0
 16 15  2  0
 17 15  1  0
 18 24  1  0
 18 17  1  0
 18 19  1  1
 20 19  1  0
 21 22  1  0
 21 20  1  0
 23 22  1  0
 24 25  1  0
 26 24  2  0
M  END
$$$$
