IHG.pdb
     RDKit          3D

 23 23  0  0  1  0  0  0  0  0999 V2000
    6.5903  -11.4823   27.3936 C   0  0  0  0  0  0  0  0  0  0  0  0
    6.0940  -12.5233   26.4492 C   0  0  0  0  0  0  0  0  0  0  0  0
    7.0833  -13.6381   26.1992 C   0  0  2  0  0  0  0  0  0  0  0  0
    8.3818  -13.1277   25.6295 C   0  0  0  0  0  0  0  0  0  0  0  0
    6.4804  -14.5881   25.2180 C   0  0  2  0  0  0  0  0  0  0  0  0
    5.2115  -15.1148   25.6235 N   0  0  0  0  0  0  0  0  0  0  0  0
    7.4133  -15.6865   24.8402 C   0  0  0  0  0  0  0  0  0  0  0  0
    7.4093  -16.8004   25.4286 O   0  0  0  0  0  0  0  0  0  0  0  0
    8.3254  -15.4917   23.8053 N   0  0  0  0  0  0  0  0  0  0  0  0
    9.2222  -16.6153   23.3124 C   0  0  1  0  0  0  0  0  0  0  0  0
    9.5696  -16.1178   21.9421 C   0  0  0  0  0  0  0  0  0  0  0  0
    8.6162  -16.3629   20.8847 C   0  0  0  0  0  0  0  0  0  0  0  0
    7.3925  -16.9550   20.8375 C   0  0  0  0  0  0  0  0  0  0  0  0
    6.8457  -16.8691   19.6003 N   0  0  0  0  0  0  0  0  0  0  0  0
    7.7356  -16.2151   18.8653 C   0  0  0  0  0  0  0  0  0  0  0  0
    8.8053  -15.8973   19.6011 N   0  0  0  0  0  0  0  0  0  0  0  0
   10.3721  -16.4777   24.2417 C   0  0  0  0  0  0  0  0  0  0  0  0
   11.0050  -15.3557   24.2113 O   0  0  0  0  0  0  0  0  0  0  0  0
   10.8551  -17.4279   25.1592 N   0  0  0  0  0  0  0  0  0  0  0  0
   12.0601  -17.1479   25.9667 C   0  0  0  0  0  0  0  0  0  0  0  0
   12.4298  -18.2959   26.7887 C   0  0  0  0  0  0  0  0  0  0  0  0
   11.6553  -19.4375   26.7849 O   0  0  0  0  0  0  0  0  0  0  0  0
   13.4529  -18.2628   27.5084 O   0  0  0  0  0  0  0  0  0  0  0  0
  1  2  1  0
  2  3  1  0
  3  4  1  6
  5  7  1  0
  5  6  1  1
  5  3  1  0
  7  8  2  0
  9 10  1  0
  9  7  1  0
 10 17  1  0
 10 11  1  6
 12 11  1  0
 12 16  1  0
 13 14  1  0
 13 12  2  0
 14 15  1  0
 15 16  2  0
 17 18  2  0
 19 20  1  0
 19 17  1  0
 21 20  1  0
 22 21  1  0
 23 21  2  0
M  END
$$$$
