IHG.pdb
     RDKit          3D

 23 23  0  0  1  0  0  0  0  0999 V2000
    6.6366  -11.7741   27.7746 C   0  0  0  0  0  0  0  0  0  0  0  0
    6.0874  -12.7436   26.7845 C   0  0  0  0  0  0  0  0  0  0  0  0
    7.1239  -13.6861   26.2177 C   0  0  2  0  0  0  0  0  0  0  0  0
    8.2440  -12.9503   25.5285 C   0  0  0  0  0  0  0  0  0  0  0  0
    6.4560  -14.5700   25.2170 C   0  0  2  0  0  0  0  0  0  0  0  0
    5.3179  -15.2726   25.7301 N   0  0  0  0  0  0  0  0  0  0  0  0
    7.4074  -15.5104   24.5614 C   0  0  0  0  0  0  0  0  0  0  0  0
    7.3967  -16.7475   24.7989 O   0  0  0  0  0  0  0  0  0  0  0  0
    8.3453  -15.0222   23.6542 N   0  0  0  0  0  0  0  0  0  0  0  0
    9.1790  -15.9550   22.7914 C   0  0  1  0  0  0  0  0  0  0  0  0
    9.5996  -15.0238   21.6951 C   0  0  0  0  0  0  0  0  0  0  0  0
    8.6090  -14.6751   20.7029 C   0  0  0  0  0  0  0  0  0  0  0  0
    7.3264  -15.0658   20.4736 C   0  0  0  0  0  0  0  0  0  0  0  0
    6.7740  -14.3798   19.4434 N   0  0  0  0  0  0  0  0  0  0  0  0
    7.7201  -13.5498   19.0239 C   0  0  0  0  0  0  0  0  0  0  0  0
    8.8295  -13.6994   19.7544 N   0  0  0  0  0  0  0  0  0  0  0  0
   10.3074  -16.2465   23.7114 C   0  0  0  0  0  0  0  0  0  0  0  0
   11.3070  -16.8870   23.2105 O   0  0  0  0  0  0  0  0  0  0  0  0
   10.4198  -15.9031   25.0706 N   0  0  0  0  0  0  0  0  0  0  0  0
   11.6660  -16.1787   25.8146 C   0  0  0  0  0  0  0  0  0  0  0  0
   11.6249  -17.4888   26.4570 C   0  0  0  0  0  0  0  0  0  0  0  0
   12.6118  -17.8639   27.3448 O   0  0  0  0  0  0  0  0  0  0  0  0
   10.6956  -18.2905   26.2129 O   0  0  0  0  0  0  0  0  0  0  0  0
  1  2  1  0
  2  3  1  0
  3  4  1  6
  5  7  1  0
  5  6  1  1
  5  3  1  0
  7  8  2  0
  9 10  1  0
  9  7  1  0
 10 17  1  0
 10 11  1  6
 12 11  1  0
 12 16  1  0
 13 14  1  0
 13 12  2  0
 14 15  1  0
 15 16  2  0
 17 18  2  0
 19 20  1  0
 19 17  1  0
 21 20  1  0
 22 21  1  0
 23 21  2  0
M  END
$$$$
