IHG.pdb
     RDKit          3D

 23 23  0  0  1  0  0  0  0  0999 V2000
    7.3920  -11.4118   27.6210 C   0  0  0  0  0  0  0  0  0  0  0  0
    7.3840  -12.8811   27.3698 C   0  0  0  0  0  0  0  0  0  0  0  0
    7.1667  -13.2486   25.9201 C   0  0  2  0  0  0  0  0  0  0  0  0
    5.8436  -12.7486   25.3998 C   0  0  0  0  0  0  0  0  0  0  0  0
    7.1847  -14.7370   25.8063 C   0  0  2  0  0  0  0  0  0  0  0  0
    8.1060  -15.3769   26.6973 N   0  0  0  0  0  0  0  0  0  0  0  0
    7.3946  -15.1997   24.4058 C   0  0  0  0  0  0  0  0  0  0  0  0
    6.4660  -15.2002   23.5545 O   0  0  0  0  0  0  0  0  0  0  0  0
    8.6521  -15.6494   24.0089 N   0  0  0  0  0  0  0  0  0  0  0  0
    8.9018  -16.1800   22.6068 C   0  0  1  0  0  0  0  0  0  0  0  0
    9.4500  -14.9569   21.9364 C   0  0  0  0  0  0  0  0  0  0  0  0
    8.5641  -14.2261   21.0598 C   0  0  0  0  0  0  0  0  0  0  0  0
    7.2607  -14.3742   20.7002 C   0  0  0  0  0  0  0  0  0  0  0  0
    6.8500  -13.3664   19.8922 N   0  0  0  0  0  0  0  0  0  0  0  0
    7.9068  -12.5782   19.7454 C   0  0  0  0  0  0  0  0  0  0  0  0
    8.9482  -13.0618   20.4297 N   0  0  0  0  0  0  0  0  0  0  0  0
    9.9736  -17.1721   22.8745 C   0  0  0  0  0  0  0  0  0  0  0  0
   10.8710  -16.8313   23.7341 O   0  0  0  0  0  0  0  0  0  0  0  0
   10.1270  -18.4480   22.3031 N   0  0  0  0  0  0  0  0  0  0  0  0
   11.2474  -19.3223   22.7065 C   0  0  0  0  0  0  0  0  0  0  0  0
   12.3716  -19.2090   21.7825 C   0  0  0  0  0  0  0  0  0  0  0  0
   13.4614  -20.0465   21.9006 O   0  0  0  0  0  0  0  0  0  0  0  0
   12.3645  -18.3522   20.8705 O   0  0  0  0  0  0  0  0  0  0  0  0
  1  2  1  0
  2  3  1  0
  3  4  1  1
  5  7  1  0
  5  6  1  1
  5  3  1  0
  7  8  2  0
  9 10  1  0
  9  7  1  0
 10 17  1  0
 10 11  1  6
 12 11  1  0
 12 16  1  0
 13 14  1  0
 13 12  2  0
 14 15  1  0
 15 16  2  0
 17 18  2  0
 19 20  1  0
 19 17  1  0
 21 20  1  0
 22 21  1  0
 23 21  2  0
M  END
$$$$
