IHG.pdb
     RDKit          3D

 23 23  0  0  1  0  0  0  0  0999 V2000
    6.6288  -11.8272   28.0495 C   0  0  0  0  0  0  0  0  0  0  0  0
    6.0890  -12.6415   26.9237 C   0  0  0  0  0  0  0  0  0  0  0  0
    7.0832  -13.6280   26.3560 C   0  0  2  0  0  0  0  0  0  0  0  0
    8.3125  -12.9463   25.8127 C   0  0  0  0  0  0  0  0  0  0  0  0
    6.4237  -14.3681   25.2398 C   0  0  2  0  0  0  0  0  0  0  0  0
    5.2113  -15.0307   25.6182 N   0  0  0  0  0  0  0  0  0  0  0  0
    7.3509  -15.3115   24.5543 C   0  0  0  0  0  0  0  0  0  0  0  0
    7.3682  -16.5432   24.8176 O   0  0  0  0  0  0  0  0  0  0  0  0
    8.2333  -14.8321   23.5886 N   0  0  0  0  0  0  0  0  0  0  0  0
    9.1215  -15.7688   22.7867 C   0  0  1  0  0  0  0  0  0  0  0  0
    9.5312  -14.8714   21.6585 C   0  0  0  0  0  0  0  0  0  0  0  0
    8.5727  -14.6558   20.5992 C   0  0  0  0  0  0  0  0  0  0  0  0
    7.3093  -15.1026   20.3661 C   0  0  0  0  0  0  0  0  0  0  0  0
    6.7824  -14.5440   19.2491 N   0  0  0  0  0  0  0  0  0  0  0  0
    7.7252  -13.7380   18.7786 C   0  0  0  0  0  0  0  0  0  0  0  0
    8.8081  -13.7801   19.5610 N   0  0  0  0  0  0  0  0  0  0  0  0
   10.2389  -15.9747   23.7426 C   0  0  0  0  0  0  0  0  0  0  0  0
   10.9846  -14.9520   23.9844 O   0  0  0  0  0  0  0  0  0  0  0  0
   10.5821  -17.1567   24.4230 N   0  0  0  0  0  0  0  0  0  0  0  0
   11.7732  -17.2025   25.2958 C   0  0  0  0  0  0  0  0  0  0  0  0
   11.9325  -18.5161   25.9120 C   0  0  0  0  0  0  0  0  0  0  0  0
   13.0076  -18.7764   26.7362 O   0  0  0  0  0  0  0  0  0  0  0  0
   11.0981  -19.4248   25.7026 O   0  0  0  0  0  0  0  0  0  0  0  0
  1  2  1  0
  2  3  1  0
  3  4  1  6
  5  7  1  0
  5  6  1  1
  5  3  1  0
  7  8  2  0
  9 10  1  0
  9  7  1  0
 10 17  1  0
 10 11  1  6
 12 11  1  0
 12 16  1  0
 13 14  1  0
 13 12  2  0
 14 15  1  0
 15 16  2  0
 17 18  2  0
 19 20  1  0
 19 17  1  0
 21 20  1  0
 22 21  1  0
 23 21  2  0
M  END
$$$$
