IHG.pdb
     RDKit          3D

 23 23  0  0  1  0  0  0  0  0999 V2000
    7.4905  -11.5149   19.4300 C   0  0  0  0  0  0  0  0  0  0  0  0
    8.0327  -12.5693   18.5266 C   0  0  0  0  0  0  0  0  0  0  0  0
    8.3791  -13.8580   19.2359 C   0  0  2  0  0  0  0  0  0  0  0  0
    9.4785  -13.6704   20.2495 C   0  0  0  0  0  0  0  0  0  0  0  0
    8.8432  -14.8442   18.2158 C   0  0  2  0  0  0  0  0  0  0  0  0
    7.8687  -15.1407   17.2086 N   0  0  0  0  0  0  0  0  0  0  0  0
    9.3677  -16.0962   18.8298 C   0  0  0  0  0  0  0  0  0  0  0  0
    8.6476  -17.1180   18.9860 O   0  0  0  0  0  0  0  0  0  0  0  0
   10.6947  -16.1553   19.2500 N   0  0  0  0  0  0  0  0  0  0  0  0
   11.3135  -17.4487   19.7537 C   0  0  1  0  0  0  0  0  0  0  0  0
   12.4541  -17.6074   18.7946 C   0  0  0  0  0  0  0  0  0  0  0  0
   13.3605  -18.7103   19.0167 C   0  0  0  0  0  0  0  0  0  0  0  0
   13.3629  -19.7716   19.8675 C   0  0  0  0  0  0  0  0  0  0  0  0
   14.4158  -20.5930   19.6351 N   0  0  0  0  0  0  0  0  0  0  0  0
   15.0789  -20.0410   18.6274 C   0  0  0  0  0  0  0  0  0  0  0  0
   14.4760  -18.9151   18.2332 N   0  0  0  0  0  0  0  0  0  0  0  0
   11.7925  -17.0219   21.0927 C   0  0  0  0  0  0  0  0  0  0  0  0
   12.3487  -15.8616   21.1615 O   0  0  0  0  0  0  0  0  0  0  0  0
   11.7092  -17.7330   22.3031 N   0  0  0  0  0  0  0  0  0  0  0  0
   12.2207  -17.1439   23.5576 C   0  0  0  0  0  0  0  0  0  0  0  0
   13.6212  -17.4914   23.7777 C   0  0  0  0  0  0  0  0  0  0  0  0
   14.2889  -17.0318   24.8939 O   0  0  0  0  0  0  0  0  0  0  0  0
   14.2368  -18.2102   22.9590 O   0  0  0  0  0  0  0  0  0  0  0  0
  1  2  1  0
  2  3  1  0
  3  4  1  1
  5  7  1  0
  5  6  1  6
  5  3  1  0
  7  8  2  0
  9 10  1  0
  9  7  1  0
 10 17  1  0
 10 11  1  6
 12 11  1  0
 12 16  1  0
 13 14  1  0
 13 12  2  0
 14 15  1  0
 15 16  2  0
 17 18  2  0
 19 20  1  0
 19 17  1  0
 21 20  1  0
 22 21  1  0
 23 21  2  0
M  END
$$$$
