IHG.pdb
     RDKit          3D

 23 23  0  0  1  0  0  0  0  0999 V2000
    7.8451  -11.9257   19.1853 C   0  0  0  0  0  0  0  0  0  0  0  0
    8.0088  -13.3782   18.8930 C   0  0  0  0  0  0  0  0  0  0  0  0
    8.7908  -14.1259   19.9482 C   0  0  2  0  0  0  0  0  0  0  0  0
   10.1954  -13.5994   20.0935 C   0  0  0  0  0  0  0  0  0  0  0  0
    8.8660  -15.5617   19.5460 C   0  0  2  0  0  0  0  0  0  0  0  0
    7.6118  -16.1152   19.1302 N   0  0  0  0  0  0  0  0  0  0  0  0
    9.5008  -16.4141   20.5899 C   0  0  0  0  0  0  0  0  0  0  0  0
    8.8934  -16.7490   21.6415 O   0  0  0  0  0  0  0  0  0  0  0  0
   10.8076  -16.8637   20.4128 N   0  0  0  0  0  0  0  0  0  0  0  0
   11.4358  -17.8764   21.3558 C   0  0  1  0  0  0  0  0  0  0  0  0
   11.3940  -19.1127   20.5098 C   0  0  0  0  0  0  0  0  0  0  0  0
   10.1213  -19.7834   20.3757 C   0  0  0  0  0  0  0  0  0  0  0  0
    9.2001  -20.2432   21.2646 C   0  0  0  0  0  0  0  0  0  0  0  0
    8.1070  -20.7402   20.6357 N   0  0  0  0  0  0  0  0  0  0  0  0
    8.3456  -20.5887   19.3396 C   0  0  0  0  0  0  0  0  0  0  0  0
    9.5400  -20.0199   19.1484 N   0  0  0  0  0  0  0  0  0  0  0  0
   12.8168  -17.3401   21.4558 C   0  0  0  0  0  0  0  0  0  0  0  0
   13.6810  -18.0851   22.0545 O   0  0  0  0  0  0  0  0  0  0  0  0
   13.2998  -16.1118   20.9702 N   0  0  0  0  0  0  0  0  0  0  0  0
   14.7378  -15.7836   21.0545 C   0  0  0  0  0  0  0  0  0  0  0  0
   15.0323  -14.9764   22.2344 C   0  0  0  0  0  0  0  0  0  0  0  0
   14.7257  -15.4434   23.4957 O   0  0  0  0  0  0  0  0  0  0  0  0
   15.5664  -13.8505   22.1206 O   0  0  0  0  0  0  0  0  0  0  0  0
  1  2  1  0
  2  3  1  0
  3  4  1  6
  5  7  1  0
  5  6  1  1
  5  3  1  0
  7  8  2  0
  9 10  1  0
  9  7  1  0
 10 17  1  0
 10 11  1  6
 12 11  1  0
 12 16  1  0
 13 14  1  0
 13 12  2  0
 14 15  1  0
 15 16  2  0
 17 18  2  0
 19 20  1  0
 19 17  1  0
 21 20  1  0
 22 21  1  0
 23 21  2  0
M  END
$$$$
