IHG.pdb
     RDKit          3D

 23 23  0  0  1  0  0  0  0  0999 V2000
    6.6266  -12.1827   27.9272 C   0  0  0  0  0  0  0  0  0  0  0  0
    6.1272  -13.0371   26.8125 C   0  0  0  0  0  0  0  0  0  0  0  0
    7.2022  -13.8770   26.1621 C   0  0  2  0  0  0  0  0  0  0  0  0
    8.2551  -13.0323   25.4921 C   0  0  0  0  0  0  0  0  0  0  0  0
    6.5605  -14.7386   25.1255 C   0  0  2  0  0  0  0  0  0  0  0  0
    5.5154  -15.5771   25.6323 N   0  0  0  0  0  0  0  0  0  0  0  0
    7.5530  -15.5377   24.3535 C   0  0  0  0  0  0  0  0  0  0  0  0
    7.7398  -16.7643   24.5713 O   0  0  0  0  0  0  0  0  0  0  0  0
    8.3068  -14.9238   23.3555 N   0  0  0  0  0  0  0  0  0  0  0  0
    9.2408  -15.7203   22.4596 C   0  0  1  0  0  0  0  0  0  0  0  0
    9.4545  -14.7475   21.3398 C   0  0  0  0  0  0  0  0  0  0  0  0
    8.4275  -14.6640   20.3272 C   0  0  0  0  0  0  0  0  0  0  0  0
    7.2391  -15.2974   20.1354 C   0  0  0  0  0  0  0  0  0  0  0  0
    6.5824  -14.8069   19.0560 N   0  0  0  0  0  0  0  0  0  0  0  0
    7.3671  -13.8553   18.5673 C   0  0  0  0  0  0  0  0  0  0  0  0
    8.4776  -13.7430   19.3027 N   0  0  0  0  0  0  0  0  0  0  0  0
   10.4421  -15.8133   23.3274 C   0  0  0  0  0  0  0  0  0  0  0  0
   10.7876  -14.7383   23.9482 O   0  0  0  0  0  0  0  0  0  0  0  0
   11.2515  -16.9400   23.5581 N   0  0  0  0  0  0  0  0  0  0  0  0
   12.3883  -16.8687   24.4989 C   0  0  0  0  0  0  0  0  0  0  0  0
   13.6510  -16.6671   23.7951 C   0  0  0  0  0  0  0  0  0  0  0  0
   14.8518  -16.9137   24.4279 O   0  0  0  0  0  0  0  0  0  0  0  0
   13.6642  -16.2681   22.6092 O   0  0  0  0  0  0  0  0  0  0  0  0
  1  2  1  0
  2  3  1  0
  3  4  1  6
  5  7  1  0
  5  6  1  1
  5  3  1  0
  7  8  2  0
  9 10  1  0
  9  7  1  0
 10 17  1  0
 10 11  1  6
 12 11  1  0
 12 16  1  0
 13 14  1  0
 13 12  2  0
 14 15  1  0
 15 16  2  0
 17 18  2  0
 19 20  1  0
 19 17  1  0
 21 20  1  0
 22 21  1  0
 23 21  2  0
M  END
$$$$
