IHG.pdb
     RDKit          3D

 23 23  0  0  1  0  0  0  0  0999 V2000
   11.4948  -21.5436   18.3327 C   0  0  0  0  0  0  0  0  0  0  0  0
   10.4645  -20.4679   18.2754 C   0  0  0  0  0  0  0  0  0  0  0  0
   10.8600  -19.2078   19.0100 C   0  0  2  0  0  0  0  0  0  0  0  0
   11.0995  -19.4573   20.4769 C   0  0  0  0  0  0  0  0  0  0  0  0
    9.7493  -18.2193   18.8763 C   0  0  2  0  0  0  0  0  0  0  0  0
    9.3774  -17.9430   17.5208 N   0  0  0  0  0  0  0  0  0  0  0  0
   10.0170  -16.9564   19.6198 C   0  0  0  0  0  0  0  0  0  0  0  0
   10.8544  -16.1063   19.2160 O   0  0  0  0  0  0  0  0  0  0  0  0
    9.3275  -16.6918   20.8012 N   0  0  0  0  0  0  0  0  0  0  0  0
    9.6172  -15.4525   21.6317 C   0  0  1  0  0  0  0  0  0  0  0  0
    8.2703  -14.7954   21.6363 C   0  0  0  0  0  0  0  0  0  0  0  0
    7.8561  -14.1205   20.4279 C   0  0  0  0  0  0  0  0  0  0  0  0
    6.7387  -14.1739   19.6542 C   0  0  0  0  0  0  0  0  0  0  0  0
    6.7892  -13.2712   18.6443 N   0  0  0  0  0  0  0  0  0  0  0  0
    7.9498  -12.6449   18.7879 C   0  0  0  0  0  0  0  0  0  0  0  0
    8.6126  -13.1271   19.8438 N   0  0  0  0  0  0  0  0  0  0  0  0
    9.9195  -16.0679   22.9487 C   0  0  0  0  0  0  0  0  0  0  0  0
    9.0125  -16.8362   23.4462 O   0  0  0  0  0  0  0  0  0  0  0  0
   11.0842  -15.9160   23.7222 N   0  0  0  0  0  0  0  0  0  0  0  0
   11.2010  -16.5708   25.0413 C   0  0  0  0  0  0  0  0  0  0  0  0
   12.3564  -17.4611   25.0943 C   0  0  0  0  0  0  0  0  0  0  0  0
   12.6683  -18.1340   26.2574 O   0  0  0  0  0  0  0  0  0  0  0  0
   13.0807  -17.6275   24.0876 O   0  0  0  0  0  0  0  0  0  0  0  0
  1  2  1  0
  2  3  1  0
  3  4  1  1
  5  7  1  0
  5  6  1  6
  5  3  1  0
  7  8  2  0
  9 10  1  0
  9  7  1  0
 10 17  1  0
 10 11  1  1
 12 11  1  0
 12 16  1  0
 13 14  1  0
 13 12  2  0
 14 15  1  0
 15 16  2  0
 17 18  2  0
 19 20  1  0
 19 17  1  0
 21 20  1  0
 22 21  1  0
 23 21  2  0
M  END
$$$$
