IHG.pdb
     RDKit          3D

 23 23  0  0  1  0  0  0  0  0999 V2000
    7.2808  -12.1312   19.0518 C   0  0  0  0  0  0  0  0  0  0  0  0
    7.0013  -13.5230   19.5065 C   0  0  0  0  0  0  0  0  0  0  0  0
    7.2795  -13.7500   20.9745 C   0  0  2  0  0  0  0  0  0  0  0  0
    8.7367  -13.5650   21.3115 C   0  0  0  0  0  0  0  0  0  0  0  0
    6.8926  -15.1515   21.3134 C   0  0  2  0  0  0  0  0  0  0  0  0
    5.5237  -15.4619   21.0270 N   0  0  0  0  0  0  0  0  0  0  0  0
    7.2352  -15.5144   22.7171 C   0  0  0  0  0  0  0  0  0  0  0  0
    6.4785  -15.2348   23.6847 O   0  0  0  0  0  0  0  0  0  0  0  0
    8.4268  -16.1845   22.9853 N   0  0  0  0  0  0  0  0  0  0  0  0
    8.8446  -16.5284   24.4054 C   0  0  1  0  0  0  0  0  0  0  0  0
    7.7533  -17.4775   24.7980 C   0  0  0  0  0  0  0  0  0  0  0  0
    7.9367  -18.2343   26.0150 C   0  0  0  0  0  0  0  0  0  0  0  0
    8.8172  -18.1576   27.0489 C   0  0  0  0  0  0  0  0  0  0  0  0
    8.5273  -19.0608   28.0171 N   0  0  0  0  0  0  0  0  0  0  0  0
    7.4533  -19.7090   27.5856 C   0  0  0  0  0  0  0  0  0  0  0  0
    7.0735  -19.2404   26.3928 N   0  0  0  0  0  0  0  0  0  0  0  0
   10.1178  -17.2489   24.1512 C   0  0  0  0  0  0  0  0  0  0  0  0
   10.1578  -17.9922   23.0994 O   0  0  0  0  0  0  0  0  0  0  0  0
   11.2937  -17.2156   24.9219 N   0  0  0  0  0  0  0  0  0  0  0  0
   12.1484  -16.0107   24.9370 C   0  0  0  0  0  0  0  0  0  0  0  0
   13.3188  -16.1764   24.0808 C   0  0  0  0  0  0  0  0  0  0  0  0
   13.2655  -15.8263   22.7476 O   0  0  0  0  0  0  0  0  0  0  0  0
   14.3868  -16.6376   24.5418 O   0  0  0  0  0  0  0  0  0  0  0  0
  1  2  1  0
  2  3  1  0
  3  4  1  6
  5  7  1  0
  5  6  1  1
  5  3  1  0
  7  8  2  0
  9 10  1  0
  9  7  1  0
 10 17  1  0
 10 11  1  6
 12 11  1  0
 12 16  1  0
 13 14  1  0
 13 12  2  0
 14 15  1  0
 15 16  2  0
 17 18  2  0
 19 20  1  0
 19 17  1  0
 21 20  1  0
 22 21  1  0
 23 21  2  0
M  END
$$$$
