IHG.pdb
     RDKit          3D

 23 23  0  0  1  0  0  0  0  0999 V2000
    7.2521  -11.7653   27.4489 C   0  0  0  0  0  0  0  0  0  0  0  0
    6.5601  -12.9601   26.8872 C   0  0  0  0  0  0  0  0  0  0  0  0
    7.3595  -13.6831   25.8278 C   0  0  2  0  0  0  0  0  0  0  0  0
    7.6958  -12.7895   24.6618 C   0  0  0  0  0  0  0  0  0  0  0  0
    6.5429  -14.8267   25.3238 C   0  0  2  0  0  0  0  0  0  0  0  0
    6.0626  -15.6970   26.3553 N   0  0  0  0  0  0  0  0  0  0  0  0
    7.2414  -15.6015   24.2601 C   0  0  0  0  0  0  0  0  0  0  0  0
    7.6222  -16.7891   24.4374 O   0  0  0  0  0  0  0  0  0  0  0  0
    7.4890  -15.0081   23.0241 N   0  0  0  0  0  0  0  0  0  0  0  0
    8.0529  -15.8030   21.8581 C   0  0  1  0  0  0  0  0  0  0  0  0
    7.5920  -14.9702   20.7005 C   0  0  0  0  0  0  0  0  0  0  0  0
    8.1028  -15.3099   19.3924 C   0  0  0  0  0  0  0  0  0  0  0  0
    8.8886  -16.3142   18.9191 C   0  0  0  0  0  0  0  0  0  0  0  0
    9.0278  -16.2444   17.5726 N   0  0  0  0  0  0  0  0  0  0  0  0
    8.3207  -15.1860   17.1987 C   0  0  0  0  0  0  0  0  0  0  0  0
    7.7544  -14.6043   18.2606 N   0  0  0  0  0  0  0  0  0  0  0  0
    9.5100  -15.6389   22.0917 C   0  0  0  0  0  0  0  0  0  0  0  0
   10.2956  -16.1662   21.2171 O   0  0  0  0  0  0  0  0  0  0  0  0
   10.1405  -14.9705   23.1564 N   0  0  0  0  0  0  0  0  0  0  0  0
   11.6143  -14.9277   23.2494 C   0  0  0  0  0  0  0  0  0  0  0  0
   12.1900  -16.2685   23.2130 C   0  0  0  0  0  0  0  0  0  0  0  0
   12.3954  -16.9093   22.0088 O   0  0  0  0  0  0  0  0  0  0  0  0
   12.5058  -16.8565   24.2715 O   0  0  0  0  0  0  0  0  0  0  0  0
  1  2  1  0
  2  3  1  0
  3  4  1  6
  5  7  1  0
  5  6  1  1
  5  3  1  0
  7  8  2  0
  9 10  1  0
  9  7  1  0
 10 17  1  0
 10 11  1  6
 12 11  1  0
 12 16  1  0
 13 14  1  0
 13 12  2  0
 14 15  1  0
 15 16  2  0
 17 18  2  0
 19 20  1  0
 19 17  1  0
 21 20  1  0
 22 21  1  0
 23 21  2  0
M  END
$$$$
