IHG.pdb
     RDKit          3D

 23 23  0  0  1  0  0  0  0  0999 V2000
    7.4998  -10.5705   25.8057 C   0  0  0  0  0  0  0  0  0  0  0  0
    7.8154  -12.0157   25.9892 C   0  0  0  0  0  0  0  0  0  0  0  0
    6.6387  -12.9309   25.7406 C   0  0  2  0  0  0  0  0  0  0  0  0
    5.5095  -12.6790   26.7063 C   0  0  0  0  0  0  0  0  0  0  0  0
    7.0979  -14.3412   25.9114 C   0  0  2  0  0  0  0  0  0  0  0  0
    8.1305  -14.5015   26.8911 N   0  0  0  0  0  0  0  0  0  0  0  0
    7.4897  -14.9739   24.6208 C   0  0  0  0  0  0  0  0  0  0  0  0
    6.6440  -15.2641   23.7333 O   0  0  0  0  0  0  0  0  0  0  0  0
    8.8302  -15.2604   24.3717 N   0  0  0  0  0  0  0  0  0  0  0  0
    9.2708  -15.9636   23.0986 C   0  0  1  0  0  0  0  0  0  0  0  0
    9.7195  -14.7962   22.2730 C   0  0  0  0  0  0  0  0  0  0  0  0
    8.7411  -14.1796   21.4070 C   0  0  0  0  0  0  0  0  0  0  0  0
    8.0972  -12.9815   21.4152 C   0  0  0  0  0  0  0  0  0  0  0  0
    7.3127  -12.8309   20.3202 N   0  0  0  0  0  0  0  0  0  0  0  0
    7.4680  -13.9458   19.6182 C   0  0  0  0  0  0  0  0  0  0  0  0
    8.3149  -14.7734   20.2383 N   0  0  0  0  0  0  0  0  0  0  0  0
   10.4300  -16.7434   23.6016 C   0  0  0  0  0  0  0  0  0  0  0  0
   11.5734  -16.1494   23.5849 O   0  0  0  0  0  0  0  0  0  0  0  0
   10.4309  -18.0583   24.1005 N   0  0  0  0  0  0  0  0  0  0  0  0
   11.6945  -18.7072   24.5063 C   0  0  0  0  0  0  0  0  0  0  0  0
   11.8416  -20.0213   23.8883 C   0  0  0  0  0  0  0  0  0  0  0  0
   11.9847  -21.1495   24.6690 O   0  0  0  0  0  0  0  0  0  0  0  0
   11.8403  -20.1448   22.6431 O   0  0  0  0  0  0  0  0  0  0  0  0
  1  2  1  0
  2  3  1  0
  3  4  1  1
  5  7  1  0
  5  6  1  1
  5  3  1  0
  7  8  2  0
  9 10  1  0
  9  7  1  0
 10 17  1  0
 10 11  1  6
 12 11  1  0
 12 16  1  0
 13 14  1  0
 13 12  2  0
 14 15  1  0
 15 16  2  0
 17 18  2  0
 19 20  1  0
 19 17  1  0
 21 20  1  0
 22 21  1  0
 23 21  2  0
M  END
$$$$
