IHG.pdb
     RDKit          3D

 23 23  0  0  1  0  0  0  0  0999 V2000
    6.3918  -11.7293   27.2565 C   0  0  0  0  0  0  0  0  0  0  0  0
    6.0466  -12.8414   26.3258 C   0  0  0  0  0  0  0  0  0  0  0  0
    7.2117  -13.7488   26.0047 C   0  0  2  0  0  0  0  0  0  0  0  0
    8.3548  -13.0014   25.3675 C   0  0  0  0  0  0  0  0  0  0  0  0
    6.7417  -14.7940   25.0480 C   0  0  2  0  0  0  0  0  0  0  0  0
    5.6053  -15.5346   25.5085 N   0  0  0  0  0  0  0  0  0  0  0  0
    7.8354  -15.7122   24.6234 C   0  0  0  0  0  0  0  0  0  0  0  0
    8.0864  -16.7834   25.2371 O   0  0  0  0  0  0  0  0  0  0  0  0
    8.6148  -15.3906   23.5144 N   0  0  0  0  0  0  0  0  0  0  0  0
    9.6475  -16.3577   22.9595 C   0  0  1  0  0  0  0  0  0  0  0  0
    9.6262  -15.9895   21.5069 C   0  0  0  0  0  0  0  0  0  0  0  0
    8.5876  -16.5723   20.6889 C   0  0  0  0  0  0  0  0  0  0  0  0
    7.5236  -17.3786   20.9495 C   0  0  0  0  0  0  0  0  0  0  0  0
    6.7791  -17.5946   19.8377 N   0  0  0  0  0  0  0  0  0  0  0  0
    7.3824  -16.9154   18.8709 C   0  0  0  0  0  0  0  0  0  0  0  0
    8.4661  -16.2926   19.3446 N   0  0  0  0  0  0  0  0  0  0  0  0
   10.8781  -15.8573   23.6228 C   0  0  0  0  0  0  0  0  0  0  0  0
   10.8587  -14.6321   24.0216 O   0  0  0  0  0  0  0  0  0  0  0  0
   12.0681  -16.5635   23.8733 N   0  0  0  0  0  0  0  0  0  0  0  0
   13.1886  -15.9182   24.5879 C   0  0  0  0  0  0  0  0  0  0  0  0
   14.2898  -16.8511   24.8061 C   0  0  0  0  0  0  0  0  0  0  0  0
   15.4938  -16.4063   25.3115 O   0  0  0  0  0  0  0  0  0  0  0  0
   14.1592  -18.0665   24.5387 O   0  0  0  0  0  0  0  0  0  0  0  0
  1  2  1  0
  2  3  1  0
  3  4  1  6
  5  7  1  0
  5  6  1  1
  5  3  1  0
  7  8  2  0
  9 10  1  0
  9  7  1  0
 10 17  1  0
 10 11  1  6
 12 11  1  0
 12 16  1  0
 13 14  1  0
 13 12  2  0
 14 15  1  0
 15 16  2  0
 17 18  2  0
 19 20  1  0
 19 17  1  0
 21 20  1  0
 22 21  1  0
 23 21  2  0
M  END
$$$$
