IHG.pdb
     RDKit          3D

 23 23  0  0  1  0  0  0  0  0999 V2000
    8.0554  -13.1436   17.7505 C   0  0  0  0  0  0  0  0  0  0  0  0
    7.8623  -14.3590   18.5916 C   0  0  0  0  0  0  0  0  0  0  0  0
    8.6108  -14.3151   19.9038 C   0  0  2  0  0  0  0  0  0  0  0  0
    9.3479  -15.6002   20.1803 C   0  0  0  0  0  0  0  0  0  0  0  0
    7.6217  -14.0950   21.0001 C   0  0  2  0  0  0  0  0  0  0  0  0
    6.7587  -12.9716   20.7873 N   0  0  0  0  0  0  0  0  0  0  0  0
    8.2643  -14.0222   22.3422 C   0  0  0  0  0  0  0  0  0  0  0  0
    8.8669  -12.9902   22.7410 O   0  0  0  0  0  0  0  0  0  0  0  0
    8.2062  -15.1218   23.1957 N   0  0  0  0  0  0  0  0  0  0  0  0
    8.9188  -15.1264   24.5380 C   0  0  1  0  0  0  0  0  0  0  0  0
    7.7519  -15.0673   25.4765 C   0  0  0  0  0  0  0  0  0  0  0  0
    7.2745  -13.7591   25.8614 C   0  0  0  0  0  0  0  0  0  0  0  0
    7.6452  -12.4895   25.5441 C   0  0  0  0  0  0  0  0  0  0  0  0
    6.8222  -11.5743   26.1120 N   0  0  0  0  0  0  0  0  0  0  0  0
    5.9260  -12.2783   26.7910 C   0  0  0  0  0  0  0  0  0  0  0  0
    6.1662  -13.5869   26.6629 N   0  0  0  0  0  0  0  0  0  0  0  0
    9.5276  -16.4806   24.5220 C   0  0  0  0  0  0  0  0  0  0  0  0
    8.7134  -17.4778   24.5790 O   0  0  0  0  0  0  0  0  0  0  0  0
   10.8930  -16.8091   24.4482 N   0  0  0  0  0  0  0  0  0  0  0  0
   11.3893  -18.0872   24.9984 C   0  0  0  0  0  0  0  0  0  0  0  0
   12.8470  -18.1524   24.9640 C   0  0  0  0  0  0  0  0  0  0  0  0
   13.5100  -19.2544   25.4629 O   0  0  0  0  0  0  0  0  0  0  0  0
   13.5169  -17.2116   24.4822 O   0  0  0  0  0  0  0  0  0  0  0  0
  1  2  1  0
  2  3  1  0
  3  4  1  1
  5  7  1  0
  5  6  1  6
  5  3  1  0
  7  8  2  0
  9 10  1  0
  9  7  1  0
 10 17  1  0
 10 11  1  1
 12 11  1  0
 12 16  1  0
 13 14  1  0
 13 12  2  0
 14 15  1  0
 15 16  2  0
 17 18  2  0
 19 20  1  0
 19 17  1  0
 21 20  1  0
 22 21  1  0
 23 21  2  0
M  END
$$$$
