IHG.pdb
     RDKit          3D

 23 23  0  0  1  0  0  0  0  0999 V2000
    6.8575  -11.4113   26.9830 C   0  0  0  0  0  0  0  0  0  0  0  0
    6.1954  -12.5537   26.2912 C   0  0  0  0  0  0  0  0  0  0  0  0
    7.1591  -13.6131   25.8089 C   0  0  2  0  0  0  0  0  0  0  0  0
    8.1068  -13.0848   24.7629 C   0  0  0  0  0  0  0  0  0  0  0  0
    6.3680  -14.7271   25.2071 C   0  0  2  0  0  0  0  0  0  0  0  0
    5.3936  -15.2921   26.0922 N   0  0  0  0  0  0  0  0  0  0  0  0
    7.2328  -15.7905   24.6234 C   0  0  0  0  0  0  0  0  0  0  0  0
    7.4196  -16.8940   25.2017 O   0  0  0  0  0  0  0  0  0  0  0  0
    7.8624  -15.5735   23.3997 N   0  0  0  0  0  0  0  0  0  0  0  0
    8.6558  -16.6692   22.7072 C   0  0  1  0  0  0  0  0  0  0  0  0
    8.7130  -16.1343   21.3084 C   0  0  0  0  0  0  0  0  0  0  0  0
    9.4334  -16.9135   20.3280 C   0  0  0  0  0  0  0  0  0  0  0  0
   10.1355  -18.0773   20.3799 C   0  0  0  0  0  0  0  0  0  0  0  0
   10.5699  -18.4514   19.1517 N   0  0  0  0  0  0  0  0  0  0  0  0
   10.1340  -17.5128   18.3217 C   0  0  0  0  0  0  0  0  0  0  0  0
    9.4510  -16.5788   18.9908 N   0  0  0  0  0  0  0  0  0  0  0  0
    9.9677  -16.5323   23.3891 C   0  0  0  0  0  0  0  0  0  0  0  0
   10.2977  -15.3458   23.7682 O   0  0  0  0  0  0  0  0  0  0  0  0
   10.8979  -17.5472   23.6763 N   0  0  0  0  0  0  0  0  0  0  0  0
   12.1483  -17.2377   24.3996 C   0  0  0  0  0  0  0  0  0  0  0  0
   12.3233  -18.1076   25.5585 C   0  0  0  0  0  0  0  0  0  0  0  0
   13.5815  -18.5359   25.9281 O   0  0  0  0  0  0  0  0  0  0  0  0
   11.3369  -18.4776   26.2336 O   0  0  0  0  0  0  0  0  0  0  0  0
  1  2  1  0
  2  3  1  0
  3  4  1  6
  5  7  1  0
  5  6  1  1
  5  3  1  0
  7  8  2  0
  9 10  1  0
  9  7  1  0
 10 17  1  0
 10 11  1  6
 12 11  1  0
 12 16  1  0
 13 14  1  0
 13 12  2  0
 14 15  1  0
 15 16  2  0
 17 18  2  0
 19 20  1  0
 19 17  1  0
 21 20  1  0
 22 21  1  0
 23 21  2  0
M  END
$$$$
