IHG.pdb
     RDKit          3D

 23 23  0  0  1  0  0  0  0  0999 V2000
    6.8944  -11.5051   27.7433 C   0  0  0  0  0  0  0  0  0  0  0  0
    6.2896  -12.4580   26.7696 C   0  0  0  0  0  0  0  0  0  0  0  0
    7.2829  -13.4266   26.1703 C   0  0  2  0  0  0  0  0  0  0  0  0
    8.4228  -12.7190   25.4841 C   0  0  0  0  0  0  0  0  0  0  0  0
    6.5706  -14.2620   25.1586 C   0  0  2  0  0  0  0  0  0  0  0  0
    5.4117  -14.9313   25.6695 N   0  0  0  0  0  0  0  0  0  0  0  0
    7.4779  -15.2238   24.4721 C   0  0  0  0  0  0  0  0  0  0  0  0
    7.3803  -16.4692   24.6349 O   0  0  0  0  0  0  0  0  0  0  0  0
    8.4713  -14.7470   23.6196 N   0  0  0  0  0  0  0  0  0  0  0  0
    9.2714  -15.6821   22.7279 C   0  0  1  0  0  0  0  0  0  0  0  0
    9.7119  -14.7366   21.6518 C   0  0  0  0  0  0  0  0  0  0  0  0
    8.7160  -14.3045   20.6984 C   0  0  0  0  0  0  0  0  0  0  0  0
    8.0990  -13.1175   20.4526 C   0  0  0  0  0  0  0  0  0  0  0  0
    7.2783  -13.1969   19.3767 N   0  0  0  0  0  0  0  0  0  0  0  0
    7.3836  -14.4464   18.9434 C   0  0  0  0  0  0  0  0  0  0  0  0
    8.2345  -15.1358   19.7097 N   0  0  0  0  0  0  0  0  0  0  0  0
   10.3969  -16.0291   23.6321 C   0  0  0  0  0  0  0  0  0  0  0  0
   11.3992  -16.6359   23.0958 O   0  0  0  0  0  0  0  0  0  0  0  0
   10.5039  -15.7712   25.0104 N   0  0  0  0  0  0  0  0  0  0  0  0
   11.6906  -16.2178   25.7685 C   0  0  0  0  0  0  0  0  0  0  0  0
   11.5336  -17.5880   26.2464 C   0  0  0  0  0  0  0  0  0  0  0  0
   11.8958  -17.9258   27.5339 O   0  0  0  0  0  0  0  0  0  0  0  0
   11.0689  -18.4760   25.4971 O   0  0  0  0  0  0  0  0  0  0  0  0
  1  2  1  0
  2  3  1  0
  3  4  1  6
  5  7  1  0
  5  6  1  1
  5  3  1  0
  7  8  2  0
  9 10  1  0
  9  7  1  0
 10 17  1  0
 10 11  1  6
 12 11  1  0
 12 16  1  0
 13 14  1  0
 13 12  2  0
 14 15  1  0
 15 16  2  0
 17 18  2  0
 19 20  1  0
 19 17  1  0
 21 20  1  0
 22 21  1  0
 23 21  2  0
M  END
$$$$
