AGE.pdb
     RDKit          3D

 19 18  0  0  1  0  0  0  0  0999 V2000
   17.6839  -11.2811  -17.2337 C   0  0  0  0  0  0  0  0  0  0  0  0
   18.5151  -11.1930  -15.9773 C   0  0  2  0  0  0  0  0  0  0  0  0
   18.0462  -10.2041  -15.0532 N   0  0  0  0  0  0  0  0  0  0  0  0
   19.9147  -10.8410  -16.3904 C   0  0  0  0  0  0  0  0  0  0  0  0
   20.6010  -11.6486  -17.0862 O   0  0  0  0  0  0  0  0  0  0  0  0
   20.5187   -9.6202  -16.0307 N   0  0  0  0  0  0  0  0  0  0  0  0
   21.8839   -9.3530  -16.3726 C   0  0  0  0  0  0  0  0  0  0  0  0
   22.2755   -7.9623  -15.9488 C   0  0  0  0  0  0  0  0  0  0  0  0
   23.4661   -7.5478  -16.0666 O   0  0  0  0  0  0  0  0  0  0  0  0
   21.3348   -7.0606  -15.4018 N   0  0  0  0  0  0  0  0  0  0  0  0
   21.6567   -5.6794  -15.0439 C   0  0  1  0  0  0  0  0  0  0  0  0
   20.5036   -4.8468  -15.4945 C   0  0  0  0  0  0  0  0  0  0  0  0
   19.2166   -5.0859  -14.7622 C   0  0  0  0  0  0  0  0  0  0  0  0
   18.1772   -4.2278  -15.3728 C   0  0  0  0  0  0  0  0  0  0  0  0
   17.9847   -3.0602  -14.9650 O   0  0  0  0  0  0  0  0  0  0  0  0
   21.9148   -5.6169  -13.5999 C   0  0  0  0  0  0  0  0  0  0  0  0
   22.3913   -4.5800  -13.0942 O   0  0  0  0  0  0  0  0  0  0  0  0
   17.3936   -4.6961  -16.4092 O   0  0  0  0  0  0  0  0  0  0  0  0
   21.6489   -6.6757  -12.7558 O   0  0  0  0  0  0  0  0  0  0  0  0
  2  3  1  0
  2  1  1  6
  4  2  1  0
  5  4  2  0
  6  4  1  0
  7  6  1  0
  8 10  1  0
  8  7  1  0
  9  8  2  0
 11 16  1  0
 11 10  1  0
 11 12  1  1
 12 13  1  0
 13 14  1  0
 14 15  2  0
 14 18  1  0
 16 19  1  0
 17 16  2  0
M  END
$$$$
