AGE.pdb
     RDKit          3D

 19 18  0  0  1  0  0  0  0  0999 V2000
   18.4385  -13.6912  -16.2313 C   0  0  0  0  0  0  0  0  0  0  0  0
   17.9026  -12.4265  -15.6064 C   0  0  2  0  0  0  0  0  0  0  0  0
   16.5744  -12.1001  -16.0320 N   0  0  0  0  0  0  0  0  0  0  0  0
   18.8231  -11.3079  -16.0001 C   0  0  0  0  0  0  0  0  0  0  0  0
   20.0388  -11.3201  -15.6405 O   0  0  0  0  0  0  0  0  0  0  0  0
   18.3866  -10.2136  -16.7726 N   0  0  0  0  0  0  0  0  0  0  0  0
   19.2977   -9.1716  -17.1417 C   0  0  0  0  0  0  0  0  0  0  0  0
   18.8944   -7.8652  -16.5113 C   0  0  0  0  0  0  0  0  0  0  0  0
   17.7347   -7.6943  -16.0327 O   0  0  0  0  0  0  0  0  0  0  0  0
   19.7892   -6.7746  -16.4262 N   0  0  0  0  0  0  0  0  0  0  0  0
   19.4507   -5.5027  -15.7883 C   0  0  1  0  0  0  0  0  0  0  0  0
   20.6805   -5.0462  -15.0777 C   0  0  0  0  0  0  0  0  0  0  0  0
   21.0815   -5.8762  -13.8944 C   0  0  0  0  0  0  0  0  0  0  0  0
   22.2542   -5.2332  -13.2614 C   0  0  0  0  0  0  0  0  0  0  0  0
   22.5431   -5.4566  -12.0642 O   0  0  0  0  0  0  0  0  0  0  0  0
   18.9727   -4.5732  -16.8195 C   0  0  0  0  0  0  0  0  0  0  0  0
   19.1848   -4.8147  -18.0257 O   0  0  0  0  0  0  0  0  0  0  0  0
   23.0591   -4.3696  -13.9782 O   0  0  0  0  0  0  0  0  0  0  0  0
   18.2840   -3.4181  -16.5104 O   0  0  0  0  0  0  0  0  0  0  0  0
  2  3  1  0
  2  1  1  6
  4  2  1  0
  5  4  2  0
  6  4  1  0
  7  6  1  0
  8 10  1  0
  8  7  1  0
  9  8  2  0
 11 16  1  0
 11 10  1  0
 11 12  1  6
 12 13  1  0
 13 14  1  0
 14 15  2  0
 14 18  1  0
 16 19  1  0
 17 16  2  0
M  END
$$$$
