AGE.pdb
     RDKit          3D

 19 18  0  0  1  0  0  0  0  0999 V2000
   20.5345  -12.2012  -15.8485 C   0  0  0  0  0  0  0  0  0  0  0  0
   20.1403  -10.9351  -16.5690 C   0  0  2  0  0  0  0  0  0  0  0  0
   20.4977  -10.9352  -17.9560 N   0  0  0  0  0  0  0  0  0  0  0  0
   20.8443   -9.7962  -15.8902 C   0  0  0  0  0  0  0  0  0  0  0  0
   20.4870   -9.4183  -14.7339 O   0  0  0  0  0  0  0  0  0  0  0  0
   21.9141   -9.1078  -16.4954 N   0  0  0  0  0  0  0  0  0  0  0  0
   22.5849   -8.0484  -15.8026 C   0  0  0  0  0  0  0  0  0  0  0  0
   22.0823   -6.7075  -16.2677 C   0  0  0  0  0  0  0  0  0  0  0  0
   21.2180   -6.6103  -17.1879 O   0  0  0  0  0  0  0  0  0  0  0  0
   22.5517   -5.5013  -15.7002 N   0  0  0  0  0  0  0  0  0  0  0  0
   22.0383   -4.1830  -16.0714 C   0  0  1  0  0  0  0  0  0  0  0  0
   21.9043   -3.4095  -14.8027 C   0  0  0  0  0  0  0  0  0  0  0  0
   21.4119   -2.0014  -14.9605 C   0  0  0  0  0  0  0  0  0  0  0  0
   21.3221   -1.3951  -13.6138 C   0  0  0  0  0  0  0  0  0  0  0  0
   21.0137   -0.1907  -13.4690 O   0  0  0  0  0  0  0  0  0  0  0  0
   22.9543   -3.5809  -17.0482 C   0  0  0  0  0  0  0  0  0  0  0  0
   24.1600   -3.9041  -17.0566 O   0  0  0  0  0  0  0  0  0  0  0  0
   21.5768   -2.1455  -12.4826 O   0  0  0  0  0  0  0  0  0  0  0  0
   22.5350   -2.6526  -17.9792 O   0  0  0  0  0  0  0  0  0  0  0  0
  2  3  1  0
  2  1  1  1
  4  2  1  0
  5  4  2  0
  6  4  1  0
  7  6  1  0
  8 10  1  0
  8  7  1  0
  9  8  2  0
 11 16  1  0
 11 10  1  0
 11 12  1  1
 12 13  1  0
 13 14  1  0
 14 15  2  0
 14 18  1  0
 16 19  1  0
 17 16  2  0
M  END
$$$$
