AGE.pdb
     RDKit          3D

 19 18  0  0  1  0  0  0  0  0999 V2000
   16.7528  -12.4906  -16.4927 C   0  0  0  0  0  0  0  0  0  0  0  0
   18.1792  -12.0010  -16.5460 C   0  0  2  0  0  0  0  0  0  0  0  0
   19.0706  -12.7543  -15.7155 N   0  0  0  0  0  0  0  0  0  0  0  0
   18.1800  -10.5732  -16.0825 C   0  0  0  0  0  0  0  0  0  0  0  0
   17.5938   -9.6774  -16.7617 O   0  0  0  0  0  0  0  0  0  0  0  0
   18.8200  -10.1705  -14.8938 N   0  0  0  0  0  0  0  0  0  0  0  0
   18.7622   -8.8064  -14.4603 C   0  0  0  0  0  0  0  0  0  0  0  0
   20.1484   -8.2480  -14.2769 C   0  0  0  0  0  0  0  0  0  0  0  0
   21.1570   -9.0069  -14.1764 O   0  0  0  0  0  0  0  0  0  0  0  0
   20.3850   -6.8564  -14.2084 N   0  0  0  0  0  0  0  0  0  0  0  0
   21.7214   -6.2634  -14.2503 C   0  0  1  0  0  0  0  0  0  0  0  0
   21.9918   -5.9326  -15.6798 C   0  0  0  0  0  0  0  0  0  0  0  0
   23.3240   -5.2979  -15.9489 C   0  0  0  0  0  0  0  0  0  0  0  0
   23.5211   -5.2534  -17.4147 C   0  0  0  0  0  0  0  0  0  0  0  0
   22.5432   -5.2225  -18.1954 O   0  0  0  0  0  0  0  0  0  0  0  0
   21.7486   -5.1040  -13.3499 C   0  0  0  0  0  0  0  0  0  0  0  0
   20.6828   -4.5465  -13.0159 O   0  0  0  0  0  0  0  0  0  0  0  0
   24.7913   -5.2447  -17.9569 O   0  0  0  0  0  0  0  0  0  0  0  0
   22.9248   -4.5896  -12.8437 O   0  0  0  0  0  0  0  0  0  0  0  0
  2  3  1  0
  2  1  1  1
  4  2  1  0
  5  4  2  0
  6  4  1  0
  7  6  1  0
  8 10  1  0
  8  7  1  0
  9  8  2  0
 11 16  1  0
 11 10  1  0
 11 12  1  6
 12 13  1  0
 13 14  1  0
 14 15  2  0
 14 18  1  0
 16 19  1  0
 17 16  2  0
M  END
$$$$
