AGE.pdb
     RDKit          3D

 19 18  0  0  1  0  0  0  0  0999 V2000
   19.6764  -12.2115  -17.8416 C   0  0  0  0  0  0  0  0  0  0  0  0
   19.7429  -11.0207  -16.9169 C   0  0  2  0  0  0  0  0  0  0  0  0
   18.4682  -10.6421  -16.3845 N   0  0  0  0  0  0  0  0  0  0  0  0
   20.2955   -9.8704  -17.7075 C   0  0  0  0  0  0  0  0  0  0  0  0
   21.4700   -9.9230  -18.1821 O   0  0  0  0  0  0  0  0  0  0  0  0
   19.5486   -8.7017  -17.9540 N   0  0  0  0  0  0  0  0  0  0  0  0
   20.1463   -7.5796  -18.6141 C   0  0  0  0  0  0  0  0  0  0  0  0
   20.1340   -6.3685  -17.7197 C   0  0  0  0  0  0  0  0  0  0  0  0
   19.0572   -5.9301  -17.2183 O   0  0  0  0  0  0  0  0  0  0  0  0
   21.3199   -5.6688  -17.4014 N   0  0  0  0  0  0  0  0  0  0  0  0
   21.3551   -4.5028  -16.5192 C   0  0  1  0  0  0  0  0  0  0  0  0
   21.9813   -4.9572  -15.2435 C   0  0  0  0  0  0  0  0  0  0  0  0
   21.0350   -5.5473  -14.2405 C   0  0  0  0  0  0  0  0  0  0  0  0
   21.8100   -5.8901  -13.0276 C   0  0  0  0  0  0  0  0  0  0  0  0
   22.3028   -4.9955  -12.3040 O   0  0  0  0  0  0  0  0  0  0  0  0
   22.0859   -3.4241  -17.1962 C   0  0  0  0  0  0  0  0  0  0  0  0
   22.2006   -2.3077  -16.6496 O   0  0  0  0  0  0  0  0  0  0  0  0
   22.0082   -7.2079  -12.6646 O   0  0  0  0  0  0  0  0  0  0  0  0
   22.6652   -3.5906  -18.4375 O   0  0  0  0  0  0  0  0  0  0  0  0
  2  3  1  0
  2  1  1  6
  4  2  1  0
  5  4  2  0
  6  4  1  0
  7  6  1  0
  8 10  1  0
  8  7  1  0
  9  8  2  0
 11 16  1  0
 11 10  1  0
 11 12  1  1
 12 13  1  0
 13 14  1  0
 14 15  2  0
 14 18  1  0
 16 19  1  0
 17 16  2  0
M  END
$$$$
