AGE.pdb
     RDKit          3D

 19 18  0  0  1  0  0  0  0  0999 V2000
   19.7697  -19.3392  -13.9904 C   0  0  0  0  0  0  0  0  0  0  0  0
   20.2311  -19.8138  -15.3465 C   0  0  2  0  0  0  0  0  0  0  0  0
   20.6395  -21.1867  -15.3602 N   0  0  0  0  0  0  0  0  0  0  0  0
   21.3993  -18.9598  -15.7459 C   0  0  0  0  0  0  0  0  0  0  0  0
   21.2824  -17.6988  -15.8048 O   0  0  0  0  0  0  0  0  0  0  0  0
   22.6557  -19.5100  -16.0677 N   0  0  0  0  0  0  0  0  0  0  0  0
   23.7302  -18.6690  -16.5041 C   0  0  0  0  0  0  0  0  0  0  0  0
   24.9124  -18.7950  -15.5803 C   0  0  0  0  0  0  0  0  0  0  0  0
   25.8041  -17.8977  -15.5244 O   0  0  0  0  0  0  0  0  0  0  0  0
   25.0796  -19.9170  -14.7375 N   0  0  0  0  0  0  0  0  0  0  0  0
   26.1461  -20.0254  -13.7425 C   0  0  1  0  0  0  0  0  0  0  0  0
   25.4898  -20.4155  -12.4608 C   0  0  0  0  0  0  0  0  0  0  0  0
   26.4264  -20.7742  -11.3453 C   0  0  0  0  0  0  0  0  0  0  0  0
   25.6134  -21.0931  -10.1509 C   0  0  0  0  0  0  0  0  0  0  0  0
   24.3649  -21.1507  -10.2182 O   0  0  0  0  0  0  0  0  0  0  0  0
   27.1419  -20.9903  -14.2255 C   0  0  0  0  0  0  0  0  0  0  0  0
   26.8123  -21.8708  -15.0467 O   0  0  0  0  0  0  0  0  0  0  0  0
   26.2144  -21.3353   -8.9312 O   0  0  0  0  0  0  0  0  0  0  0  0
   28.4558  -20.9689  -13.8043 O   0  0  0  0  0  0  0  0  0  0  0  0
  2  3  1  0
  2  1  1  1
  4  2  1  0
  5  4  2  0
  6  4  1  0
  7  6  1  0
  8 10  1  0
  8  7  1  0
  9  8  2  0
 11 16  1  0
 11 10  1  0
 11 12  1  1
 12 13  1  0
 13 14  1  0
 14 15  2  0
 14 18  1  0
 16 19  1  0
 17 16  2  0
M  END
$$$$
