AGE.pdb
     RDKit          3D

 19 18  0  0  1  0  0  0  0  0999 V2000
   22.7103   -9.7993  -22.2077 C   0  0  0  0  0  0  0  0  0  0  0  0
   22.3344  -10.4264  -20.8876 C   0  0  2  0  0  0  0  0  0  0  0  0
   20.9214  -10.4590  -20.6552 N   0  0  0  0  0  0  0  0  0  0  0  0
   22.9820   -9.6127  -19.8050 C   0  0  0  0  0  0  0  0  0  0  0  0
   24.2409   -9.6293  -19.6553 O   0  0  0  0  0  0  0  0  0  0  0  0
   22.2348   -8.8084  -18.9221 N   0  0  0  0  0  0  0  0  0  0  0  0
   22.8930   -7.9354  -17.9965 C   0  0  0  0  0  0  0  0  0  0  0  0
   21.8862   -7.1930  -17.1585 C   0  0  0  0  0  0  0  0  0  0  0  0
   20.7418   -6.8962  -17.6117 O   0  0  0  0  0  0  0  0  0  0  0  0
   22.1728   -6.7950  -15.8331 N   0  0  0  0  0  0  0  0  0  0  0  0
   21.1658   -6.2607  -14.9168 C   0  0  1  0  0  0  0  0  0  0  0  0
   20.6175   -7.4270  -14.1652 C   0  0  0  0  0  0  0  0  0  0  0  0
   19.5481   -7.0991  -13.1658 C   0  0  0  0  0  0  0  0  0  0  0  0
   19.0896   -8.3663  -12.5547 C   0  0  0  0  0  0  0  0  0  0  0  0
   19.3665   -9.4700  -13.0763 O   0  0  0  0  0  0  0  0  0  0  0  0
   21.7970   -5.2421  -14.0683 C   0  0  0  0  0  0  0  0  0  0  0  0
   21.0925   -4.4990  -13.3543 O   0  0  0  0  0  0  0  0  0  0  0  0
   18.3441   -8.3610  -11.3921 O   0  0  0  0  0  0  0  0  0  0  0  0
   23.1645   -5.0637  -14.0220 O   0  0  0  0  0  0  0  0  0  0  0  0
  2  3  1  0
  2  1  1  6
  4  2  1  0
  5  4  2  0
  6  4  1  0
  7  6  1  0
  8 10  1  0
  8  7  1  0
  9  8  2  0
 11 16  1  0
 11 10  1  0
 11 12  1  1
 12 13  1  0
 13 14  1  0
 14 15  2  0
 14 18  1  0
 16 19  1  0
 17 16  2  0
M  END
$$$$
