AGE.pdb
     RDKit          3D

 19 18  0  0  1  0  0  0  0  0999 V2000
   18.1120  -13.6212  -15.4119 C   0  0  0  0  0  0  0  0  0  0  0  0
   18.2351  -12.4406  -16.3436 C   0  0  2  0  0  0  0  0  0  0  0  0
   19.5130  -12.3525  -16.9845 N   0  0  0  0  0  0  0  0  0  0  0  0
   18.0200  -11.2005  -15.5255 C   0  0  0  0  0  0  0  0  0  0  0  0
   16.9861  -11.0802  -14.8016 O   0  0  0  0  0  0  0  0  0  0  0  0
   18.9398  -10.1334  -15.5244 N   0  0  0  0  0  0  0  0  0  0  0  0
   18.6481   -8.9196  -14.8216 C   0  0  0  0  0  0  0  0  0  0  0  0
   19.8288   -7.9862  -14.8606 C   0  0  0  0  0  0  0  0  0  0  0  0
   20.9711   -8.3832  -15.2357 O   0  0  0  0  0  0  0  0  0  0  0  0
   19.7154   -6.6296  -14.4809 N   0  0  0  0  0  0  0  0  0  0  0  0
   20.7871   -5.6506  -14.6604 C   0  0  1  0  0  0  0  0  0  0  0  0
   20.1274   -4.3162  -14.7613 C   0  0  0  0  0  0  0  0  0  0  0  0
   21.0588   -3.1529  -14.9321 C   0  0  0  0  0  0  0  0  0  0  0  0
   20.2434   -1.9197  -14.9924 C   0  0  0  0  0  0  0  0  0  0  0  0
   18.9930   -1.9747  -15.0136 O   0  0  0  0  0  0  0  0  0  0  0  0
   21.7269   -5.7728  -13.5390 C   0  0  0  0  0  0  0  0  0  0  0  0
   21.3731   -6.3419  -12.4859 O   0  0  0  0  0  0  0  0  0  0  0  0
   20.8439   -0.6765  -15.0268 O   0  0  0  0  0  0  0  0  0  0  0  0
   23.0132   -5.2764  -13.5961 O   0  0  0  0  0  0  0  0  0  0  0  0
  2  3  1  0
  2  1  1  1
  4  2  1  0
  5  4  2  0
  6  4  1  0
  7  6  1  0
  8 10  1  0
  8  7  1  0
  9  8  2  0
 11 16  1  0
 11 10  1  0
 11 12  1  1
 12 13  1  0
 13 14  1  0
 14 15  2  0
 14 18  1  0
 16 19  1  0
 17 16  2  0
M  END
$$$$
