AGE.pdb
     RDKit          3D

 19 18  0  0  1  0  0  0  0  0999 V2000
   16.2647   -9.4542  -15.5426 C   0  0  0  0  0  0  0  0  0  0  0  0
   16.9418  -10.3765  -14.5586 C   0  0  2  0  0  0  0  0  0  0  0  0
   16.2298  -10.5116  -13.3231 N   0  0  0  0  0  0  0  0  0  0  0  0
   18.3002   -9.8056  -14.2718 C   0  0  0  0  0  0  0  0  0  0  0  0
   18.4618   -8.9774  -13.3255 O   0  0  0  0  0  0  0  0  0  0  0  0
   19.4365  -10.1571  -15.0266 N   0  0  0  0  0  0  0  0  0  0  0  0
   20.7114   -9.5686  -14.7429 C   0  0  0  0  0  0  0  0  0  0  0  0
   20.7601   -8.1452  -15.2311 C   0  0  0  0  0  0  0  0  0  0  0  0
   20.2809   -7.8174  -16.3564 O   0  0  0  0  0  0  0  0  0  0  0  0
   21.3415   -7.1148  -14.4581 N   0  0  0  0  0  0  0  0  0  0  0  0
   21.3190   -5.7052  -14.8475 C   0  0  1  0  0  0  0  0  0  0  0  0
   19.9059   -5.2493  -14.7018 C   0  0  0  0  0  0  0  0  0  0  0  0
   19.6982   -3.7670  -14.7993 C   0  0  0  0  0  0  0  0  0  0  0  0
   18.6686   -3.5168  -15.8321 C   0  0  0  0  0  0  0  0  0  0  0  0
   18.1059   -4.4656  -16.4237 O   0  0  0  0  0  0  0  0  0  0  0  0
   22.2761   -4.9718  -14.0097 C   0  0  0  0  0  0  0  0  0  0  0  0
   22.8171   -3.9329  -14.4414 O   0  0  0  0  0  0  0  0  0  0  0  0
   18.3035   -2.2280  -16.1682 O   0  0  0  0  0  0  0  0  0  0  0  0
   22.6137   -5.3870  -12.7378 O   0  0  0  0  0  0  0  0  0  0  0  0
  2  3  1  0
  2  1  1  6
  4  2  1  0
  5  4  2  0
  6  4  1  0
  7  6  1  0
  8 10  1  0
  8  7  1  0
  9  8  2  0
 11 16  1  0
 11 10  1  0
 11 12  1  1
 12 13  1  0
 13 14  1  0
 14 15  2  0
 14 18  1  0
 16 19  1  0
 17 16  2  0
M  END
$$$$
