AGE.pdb
     RDKit          3D

 19 18  0  0  1  0  0  0  0  0999 V2000
   22.2216  -18.8708  -15.3951 C   0  0  0  0  0  0  0  0  0  0  0  0
   21.5619  -20.2004  -15.1225 C   0  0  2  0  0  0  0  0  0  0  0  0
   20.2626  -20.3223  -15.7129 N   0  0  0  0  0  0  0  0  0  0  0  0
   21.4292  -20.3372  -13.6335 C   0  0  0  0  0  0  0  0  0  0  0  0
   22.4563  -20.2988  -12.8912 O   0  0  0  0  0  0  0  0  0  0  0  0
   20.1808  -20.5114  -13.0043 N   0  0  0  0  0  0  0  0  0  0  0  0
   20.0988  -20.7047  -11.5872 C   0  0  0  0  0  0  0  0  0  0  0  0
   19.5435  -22.0673  -11.2680 C   0  0  0  0  0  0  0  0  0  0  0  0
   19.4127  -22.9524  -12.1640 O   0  0  0  0  0  0  0  0  0  0  0  0
   19.1442  -22.4180   -9.9585 N   0  0  0  0  0  0  0  0  0  0  0  0
   18.5989  -23.7286   -9.6064 C   0  0  1  0  0  0  0  0  0  0  0  0
   18.7630  -23.8716   -8.1304 C   0  0  0  0  0  0  0  0  0  0  0  0
   18.2661  -25.1638   -7.5534 C   0  0  0  0  0  0  0  0  0  0  0  0
   18.5367  -25.1487   -6.0987 C   0  0  0  0  0  0  0  0  0  0  0  0
   19.0500  -24.1479   -5.5496 O   0  0  0  0  0  0  0  0  0  0  0  0
   17.2058  -23.7957  -10.0652 C   0  0  0  0  0  0  0  0  0  0  0  0
   16.5027  -22.7644  -10.0823 O   0  0  0  0  0  0  0  0  0  0  0  0
   18.2285  -26.2406   -5.3112 O   0  0  0  0  0  0  0  0  0  0  0  0
   16.6236  -24.9732  -10.4883 O   0  0  0  0  0  0  0  0  0  0  0  0
  2  3  1  0
  2  1  1  1
  4  2  1  0
  5  4  2  0
  6  4  1  0
  7  6  1  0
  8 10  1  0
  8  7  1  0
  9  8  2  0
 11 16  1  0
 11 10  1  0
 11 12  1  1
 12 13  1  0
 13 14  1  0
 14 15  2  0
 14 18  1  0
 16 19  1  0
 17 16  2  0
M  END
$$$$
