IIC.pdb
     RDKit          3D

 23 22  0  0  1  0  0  0  0  0999 V2000
    7.2198  -21.5931   27.5960 C   0  0  0  0  0  0  0  0  0  0  0  0
    6.2124  -20.6226   27.0313 C   0  0  0  0  0  0  0  0  0  0  0  0
    6.8760  -19.4711   26.3023 C   0  0  2  0  0  0  0  0  0  0  0  0
    7.9368  -18.9015   27.1817 C   0  0  0  0  0  0  0  0  0  0  0  0
    5.8464  -18.4706   25.8250 C   0  0  2  0  0  0  0  0  0  0  0  0
    5.0867  -19.2138   24.7938 N   0  0  0  0  0  0  0  0  0  0  0  0
    6.4847  -17.3404   25.1428 C   0  0  0  0  0  0  0  0  0  0  0  0
    6.9529  -17.4874   23.9614 O   0  0  0  0  0  0  0  0  0  0  0  0
    5.7735  -12.1138   26.7943 C   0  0  0  0  0  0  0  0  0  0  0  0
    5.9987  -13.2181   25.7866 C   0  0  0  0  0  0  0  0  0  0  0  0
    7.4220  -13.7343   25.8396 C   0  0  2  0  0  0  0  0  0  0  0  0
    8.3531  -12.6967   25.3080 C   0  0  0  0  0  0  0  0  0  0  0  0
    7.5294  -15.0528   25.0482 C   0  0  2  0  0  0  0  0  0  0  0  0
    6.6540  -16.0241   25.6642 N   0  0  0  0  0  0  0  0  0  0  0  0
    8.9475  -15.3934   25.0342 C   0  0  0  0  0  0  0  0  0  0  0  0
    9.4596  -15.6127   26.1864 O   0  0  0  0  0  0  0  0  0  0  0  0
    9.7989  -15.5069   23.9228 N   0  0  0  0  0  0  0  0  0  0  0  0
   11.0169  -16.3086   24.0265 C   0  0  1  0  0  0  0  0  0  0  0  0
   10.9971  -17.4677   23.0578 C   0  0  0  0  0  0  0  0  0  0  0  0
   12.5874  -18.3294   23.2215 S   0  0  0  0  0  0  0  0  0  0  0  0
   12.1519  -15.4350   23.6442 C   0  0  0  0  0  0  0  0  0  0  0  0
   12.0748  -14.5958   22.7068 O   0  0  0  0  0  0  0  0  0  0  0  0
   13.3622  -15.5092   24.3147 O   0  0  0  0  0  0  0  0  0  0  0  0
  1  2  1  0
  3  2  1  0
  3  4  1  1
  5  3  1  0
  5  6  1  6
  7  8  2  0
  7  5  1  0
  9 10  1  0
 10 11  1  0
 11 13  1  0
 11 12  1  6
 13 14  1  1
 14  7  1  0
 15 17  1  0
 15 13  1  0
 16 15  2  0
 18 17  1  0
 18 21  1  0
 18 19  1  6
 20 19  1  0
 21 23  1  0
 22 21  2  0
M  END
$$$$
