IIC.pdb
     RDKit          3D

 23 22  0  0  1  0  0  0  0  0999 V2000
    6.2125  -18.7041   19.3860 C   0  0  0  0  0  0  0  0  0  0  0  0
    6.2526  -17.2234   19.6712 C   0  0  0  0  0  0  0  0  0  0  0  0
    6.9969  -16.9092   20.9537 C   0  0  2  0  0  0  0  0  0  0  0  0
    6.5122  -17.8306   22.0212 C   0  0  0  0  0  0  0  0  0  0  0  0
    6.8903  -15.4385   21.2922 C   0  0  2  0  0  0  0  0  0  0  0  0
    7.5097  -14.7648   20.1280 N   0  0  0  0  0  0  0  0  0  0  0  0
    7.7143  -15.1037   22.4581 C   0  0  0  0  0  0  0  0  0  0  0  0
    8.9900  -15.1049   22.3620 O   0  0  0  0  0  0  0  0  0  0  0  0
    6.0217  -11.6284   26.2252 C   0  0  0  0  0  0  0  0  0  0  0  0
    6.9357  -12.3980   25.2989 C   0  0  0  0  0  0  0  0  0  0  0  0
    7.3968  -13.6963   25.9289 C   0  0  2  0  0  0  0  0  0  0  0  0
    8.2683  -13.4032   27.1039 C   0  0  0  0  0  0  0  0  0  0  0  0
    8.1289  -14.5554   24.8790 C   0  0  2  0  0  0  0  0  0  0  0  0
    7.2401  -14.7553   23.7568 N   0  0  0  0  0  0  0  0  0  0  0  0
    8.5515  -15.7633   25.5786 C   0  0  0  0  0  0  0  0  0  0  0  0
    7.6498  -16.6650   25.6883 O   0  0  0  0  0  0  0  0  0  0  0  0
    9.8103  -16.0454   26.1344 N   0  0  0  0  0  0  0  0  0  0  0  0
   10.3716  -17.3889   26.0032 C   0  0  1  0  0  0  0  0  0  0  0  0
   10.6350  -17.7364   24.5567 C   0  0  0  0  0  0  0  0  0  0  0  0
   11.4372  -19.3657   24.5352 S   0  0  0  0  0  0  0  0  0  0  0  0
   11.6796  -17.3887   26.7008 C   0  0  0  0  0  0  0  0  0  0  0  0
   12.2917  -16.3259   26.9921 O   0  0  0  0  0  0  0  0  0  0  0  0
   12.2899  -18.5779   27.0656 O   0  0  0  0  0  0  0  0  0  0  0  0
  1  2  1  0
  3  2  1  0
  3  4  1  1
  5  3  1  0
  5  6  1  6
  7  8  2  0
  7  5  1  0
  9 10  1  0
 10 11  1  0
 11 13  1  0
 11 12  1  1
 13 14  1  6
 14  7  1  0
 15 17  1  0
 15 13  1  0
 16 15  2  0
 18 17  1  0
 18 21  1  0
 18 19  1  6
 20 19  1  0
 21 23  1  0
 22 21  2  0
M  END
$$$$
