IIC.pdb
     RDKit          3D

 23 22  0  0  1  0  0  0  0  0999 V2000
    7.7785  -21.4415   27.9625 C   0  0  0  0  0  0  0  0  0  0  0  0
    6.7013  -20.5855   27.3442 C   0  0  0  0  0  0  0  0  0  0  0  0
    7.2768  -19.4408   26.5342 C   0  0  2  0  0  0  0  0  0  0  0  0
    8.3724  -18.8063   27.3219 C   0  0  0  0  0  0  0  0  0  0  0  0
    6.1851  -18.4914   26.0918 C   0  0  2  0  0  0  0  0  0  0  0  0
    5.3766  -19.3003   25.1511 N   0  0  0  0  0  0  0  0  0  0  0  0
    6.7374  -17.3751   25.3178 C   0  0  0  0  0  0  0  0  0  0  0  0
    7.0919  -17.5530   24.1015 O   0  0  0  0  0  0  0  0  0  0  0  0
    5.5349  -12.3153   26.7086 C   0  0  0  0  0  0  0  0  0  0  0  0
    5.8464  -13.4534   25.7635 C   0  0  0  0  0  0  0  0  0  0  0  0
    7.3403  -13.6593   25.6183 C   0  0  2  0  0  0  0  0  0  0  0  0
    7.9223  -12.5571   24.7983 C   0  0  0  0  0  0  0  0  0  0  0  0
    7.6189  -15.0405   24.9929 C   0  0  2  0  0  0  0  0  0  0  0  0
    6.9360  -16.0413   25.7810 N   0  0  0  0  0  0  0  0  0  0  0  0
    9.0709  -15.1625   24.9299 C   0  0  0  0  0  0  0  0  0  0  0  0
    9.6588  -15.1868   26.0665 O   0  0  0  0  0  0  0  0  0  0  0  0
    9.8824  -15.2552   23.7871 N   0  0  0  0  0  0  0  0  0  0  0  0
   11.2063  -15.8665   23.8906 C   0  0  1  0  0  0  0  0  0  0  0  0
   11.1139  -17.3081   24.3329 C   0  0  0  0  0  0  0  0  0  0  0  0
   11.4773  -17.3465   26.1119 S   0  0  0  0  0  0  0  0  0  0  0  0
   11.8006  -15.8602   22.5326 C   0  0  0  0  0  0  0  0  0  0  0  0
   11.1469  -15.5238   21.5087 O   0  0  0  0  0  0  0  0  0  0  0  0
   13.1209  -16.2306   22.3337 O   0  0  0  0  0  0  0  0  0  0  0  0
  1  2  1  0
  3  2  1  0
  3  4  1  1
  5  3  1  0
  5  6  1  6
  7  8  2  0
  7  5  1  0
  9 10  1  0
 10 11  1  0
 11 13  1  0
 11 12  1  6
 13 14  1  1
 14  7  1  0
 15 17  1  0
 15 13  1  0
 16 15  2  0
 18 17  1  0
 18 21  1  0
 18 19  1  6
 20 19  1  0
 21 23  1  0
 22 21  2  0
M  END
$$$$
