IIC.pdb
     RDKit          3D

 23 22  0  0  1  0  0  0  0  0999 V2000
    4.6908  -21.0396   25.4424 C   0  0  0  0  0  0  0  0  0  0  0  0
    5.5575  -21.0455   24.2078 C   0  0  0  0  0  0  0  0  0  0  0  0
    6.4921  -19.8530   24.1609 C   0  0  2  0  0  0  0  0  0  0  0  0
    7.4482  -19.9549   25.3006 C   0  0  0  0  0  0  0  0  0  0  0  0
    5.7114  -18.5583   24.1050 C   0  0  2  0  0  0  0  0  0  0  0  0
    4.9980  -18.6345   22.8095 N   0  0  0  0  0  0  0  0  0  0  0  0
    6.6101  -17.4027   24.0219 C   0  0  0  0  0  0  0  0  0  0  0  0
    7.4083  -17.2826   23.0293 O   0  0  0  0  0  0  0  0  0  0  0  0
    5.6537  -12.6015   26.5317 C   0  0  0  0  0  0  0  0  0  0  0  0
    6.1527  -13.5721   25.4854 C   0  0  0  0  0  0  0  0  0  0  0  0
    7.4438  -14.2366   25.9176 C   0  0  2  0  0  0  0  0  0  0  0  0
    8.5347  -13.2208   25.9824 C   0  0  0  0  0  0  0  0  0  0  0  0
    7.7918  -15.3826   24.9471 C   0  0  2  0  0  0  0  0  0  0  0  0
    6.7059  -16.3364   24.9636 N   0  0  0  0  0  0  0  0  0  0  0  0
    9.0896  -15.8889   25.3792 C   0  0  0  0  0  0  0  0  0  0  0  0
    9.1566  -16.2119   26.6158 O   0  0  0  0  0  0  0  0  0  0  0  0
   10.2515  -16.0598   24.6087 N   0  0  0  0  0  0  0  0  0  0  0  0
   11.4272  -16.6898   25.2071 C   0  0  1  0  0  0  0  0  0  0  0  0
   11.5741  -18.1234   24.7539 C   0  0  0  0  0  0  0  0  0  0  0  0
   10.6051  -19.1484   25.8979 S   0  0  0  0  0  0  0  0  0  0  0  0
   12.6168  -15.9507   24.7213 C   0  0  0  0  0  0  0  0  0  0  0  0
   12.5339  -15.0001   23.8977 O   0  0  0  0  0  0  0  0  0  0  0  0
   13.8878  -16.2827   25.1622 O   0  0  0  0  0  0  0  0  0  0  0  0
  1  2  1  0
  3  2  1  0
  3  4  1  1
  5  3  1  0
  5  6  1  6
  7  8  2  0
  7  5  1  0
  9 10  1  0
 10 11  1  0
 11 13  1  0
 11 12  1  6
 13 14  1  1
 14  7  1  0
 15 17  1  0
 15 13  1  0
 16 15  2  0
 18 17  1  0
 18 21  1  0
 18 19  1  6
 20 19  1  0
 21 23  1  0
 22 21  2  0
M  END
$$$$
