IIC.pdb
     RDKit          3D

 23 22  0  0  1  0  0  0  0  0999 V2000
    5.6663  -21.8910   24.4476 C   0  0  0  0  0  0  0  0  0  0  0  0
    5.2113  -20.5296   23.9840 C   0  0  0  0  0  0  0  0  0  0  0  0
    6.2561  -19.4613   24.2388 C   0  0  2  0  0  0  0  0  0  0  0  0
    6.8130  -19.6598   25.6076 C   0  0  0  0  0  0  0  0  0  0  0  0
    5.6907  -18.0820   23.9805 C   0  0  2  0  0  0  0  0  0  0  0  0
    5.3643  -18.1015   22.5362 N   0  0  0  0  0  0  0  0  0  0  0  0
    6.7142  -17.0485   24.1656 C   0  0  0  0  0  0  0  0  0  0  0  0
    7.6972  -16.9678   23.3508 O   0  0  0  0  0  0  0  0  0  0  0  0
    5.7235  -12.3618   26.7997 C   0  0  0  0  0  0  0  0  0  0  0  0
    6.3798  -13.2598   25.7757 C   0  0  0  0  0  0  0  0  0  0  0  0
    7.4819  -14.0940   26.3961 C   0  0  2  0  0  0  0  0  0  0  0  0
    8.6377  -13.2184   26.7476 C   0  0  0  0  0  0  0  0  0  0  0  0
    7.8954  -15.2181   25.4258 C   0  0  2  0  0  0  0  0  0  0  0  0
    6.7474  -16.0665   25.1989 N   0  0  0  0  0  0  0  0  0  0  0  0
    9.0526  -15.8635   26.0353 C   0  0  0  0  0  0  0  0  0  0  0  0
    8.8172  -16.4508   27.1479 O   0  0  0  0  0  0  0  0  0  0  0  0
   10.3700  -15.9140   25.5506 N   0  0  0  0  0  0  0  0  0  0  0  0
   11.3413  -16.7976   26.1933 C   0  0  1  0  0  0  0  0  0  0  0  0
   12.4081  -17.2429   25.2207 C   0  0  0  0  0  0  0  0  0  0  0  0
   11.5586  -17.9823   23.7960 S   0  0  0  0  0  0  0  0  0  0  0  0
   12.0142  -16.0123   27.2553 C   0  0  0  0  0  0  0  0  0  0  0  0
   12.9095  -16.5018   27.9954 O   0  0  0  0  0  0  0  0  0  0  0  0
   11.6786  -14.6866   27.4788 O   0  0  0  0  0  0  0  0  0  0  0  0
  1  2  1  0
  3  2  1  0
  3  4  1  1
  5  3  1  0
  5  6  1  6
  7  8  2  0
  7  5  1  0
  9 10  1  0
 10 11  1  0
 11 13  1  0
 11 12  1  6
 13 14  1  1
 14  7  1  0
 15 17  1  0
 15 13  1  0
 16 15  2  0
 18 17  1  0
 18 21  1  0
 18 19  1  6
 20 19  1  0
 21 23  1  0
 22 21  2  0
M  END
$$$$
