IIC.pdb
     RDKit          3D

 23 22  0  0  1  0  0  0  0  0999 V2000
    6.7421  -17.2218   18.3981 C   0  0  0  0  0  0  0  0  0  0  0  0
    6.8131  -15.8263   18.9665 C   0  0  0  0  0  0  0  0  0  0  0  0
    7.4594  -15.8007   20.3374 C   0  0  2  0  0  0  0  0  0  0  0  0
    6.8795  -16.9042   21.1556 C   0  0  0  0  0  0  0  0  0  0  0  0
    7.3478  -14.4265   20.9602 C   0  0  2  0  0  0  0  0  0  0  0  0
    8.1434  -13.5656   20.0554 N   0  0  0  0  0  0  0  0  0  0  0  0
    8.0087  -14.3842   22.2685 C   0  0  0  0  0  0  0  0  0  0  0  0
    9.2848  -14.4373   22.3430 O   0  0  0  0  0  0  0  0  0  0  0  0
    5.8532  -11.6146   26.3770 C   0  0  0  0  0  0  0  0  0  0  0  0
    6.8693  -12.2298   25.4416 C   0  0  0  0  0  0  0  0  0  0  0  0
    7.2331  -13.6374   25.8676 C   0  0  2  0  0  0  0  0  0  0  0  0
    7.9333  -13.5988   27.1846 C   0  0  0  0  0  0  0  0  0  0  0  0
    8.1014  -14.3037   24.7821 C   0  0  2  0  0  0  0  0  0  0  0  0
    7.3667  -14.2828   23.5375 N   0  0  0  0  0  0  0  0  0  0  0  0
    8.4391  -15.6250   25.2990 C   0  0  0  0  0  0  0  0  0  0  0  0
    7.4370  -16.3927   25.5099 O   0  0  0  0  0  0  0  0  0  0  0  0
    9.7133  -16.1418   25.5859 N   0  0  0  0  0  0  0  0  0  0  0  0
    9.8476  -17.5339   26.0117 C   0  0  1  0  0  0  0  0  0  0  0  0
   10.8646  -18.2707   25.1719 C   0  0  0  0  0  0  0  0  0  0  0  0
   11.9650  -17.0217   24.4459 S   0  0  0  0  0  0  0  0  0  0  0  0
   10.3541  -17.5204   27.4048 C   0  0  0  0  0  0  0  0  0  0  0  0
   10.6756  -16.4559   27.9983 O   0  0  0  0  0  0  0  0  0  0  0  0
   10.4959  -18.6986   28.1201 O   0  0  0  0  0  0  0  0  0  0  0  0
  1  2  1  0
  3  2  1  0
  3  4  1  1
  5  3  1  0
  5  6  1  6
  7  8  2  0
  7  5  1  0
  9 10  1  0
 10 11  1  0
 11 13  1  0
 11 12  1  1
 13 14  1  6
 14  7  1  0
 15 17  1  0
 15 13  1  0
 16 15  2  0
 18 17  1  0
 18 21  1  0
 18 19  1  6
 20 19  1  0
 21 23  1  0
 22 21  2  0
M  END
$$$$
