IIC.pdb
     RDKit          3D

 23 22  0  0  1  0  0  0  0  0999 V2000
    7.0179  -18.6910   19.3343 C   0  0  0  0  0  0  0  0  0  0  0  0
    7.1172  -17.2125   19.6164 C   0  0  0  0  0  0  0  0  0  0  0  0
    7.7445  -16.9302   20.9671 C   0  0  2  0  0  0  0  0  0  0  0  0
    7.1873  -17.8937   21.9593 C   0  0  0  0  0  0  0  0  0  0  0  0
    7.5837  -15.4733   21.3420 C   0  0  2  0  0  0  0  0  0  0  0  0
    8.3735  -14.7573   20.3141 N   0  0  0  0  0  0  0  0  0  0  0  0
    8.2175  -15.1870   22.6329 C   0  0  0  0  0  0  0  0  0  0  0  0
    9.4930  -15.1671   22.7295 O   0  0  0  0  0  0  0  0  0  0  0  0
    5.8681  -11.8478   26.1509 C   0  0  0  0  0  0  0  0  0  0  0  0
    6.9182  -12.5809   25.3474 C   0  0  0  0  0  0  0  0  0  0  0  0
    7.3470  -13.8613   26.0342 C   0  0  2  0  0  0  0  0  0  0  0  0
    8.0294  -13.5373   27.3209 C   0  0  0  0  0  0  0  0  0  0  0  0
    8.2598  -14.6765   25.0969 C   0  0  2  0  0  0  0  0  0  0  0  0
    7.5478  -14.9103   23.8609 N   0  0  0  0  0  0  0  0  0  0  0  0
    8.6381  -15.8680   25.8481 C   0  0  0  0  0  0  0  0  0  0  0  0
    7.6587  -16.6030   26.2204 O   0  0  0  0  0  0  0  0  0  0  0  0
    9.9290  -16.2935   26.2024 N   0  0  0  0  0  0  0  0  0  0  0  0
   10.1052  -17.5807   26.8727 C   0  0  1  0  0  0  0  0  0  0  0  0
   11.2672  -18.3503   26.2897 C   0  0  0  0  0  0  0  0  0  0  0  0
   11.0236  -18.4063   24.4909 S   0  0  0  0  0  0  0  0  0  0  0  0
   10.4325  -17.2967   28.2903 C   0  0  0  0  0  0  0  0  0  0  0  0
   10.5505  -16.1237   28.7363 O   0  0  0  0  0  0  0  0  0  0  0  0
   10.6247  -18.3284   29.1951 O   0  0  0  0  0  0  0  0  0  0  0  0
  1  2  1  0
  3  2  1  0
  3  4  1  1
  5  3  1  0
  5  6  1  6
  7  8  2  0
  7  5  1  0
  9 10  1  0
 10 11  1  0
 11 13  1  0
 11 12  1  1
 13 14  1  6
 14  7  1  0
 15 17  1  0
 15 13  1  0
 16 15  2  0
 18 17  1  0
 18 21  1  0
 18 19  1  6
 20 19  1  0
 21 23  1  0
 22 21  2  0
M  END
$$$$
