IIC.pdb
     RDKit          3D

 23 22  0  0  1  0  0  0  0  0999 V2000
    6.7662  -18.3729   19.0732 C   0  0  0  0  0  0  0  0  0  0  0  0
    6.8754  -16.8986   19.3727 C   0  0  0  0  0  0  0  0  0  0  0  0
    7.4580  -16.6371   20.7474 C   0  0  2  0  0  0  0  0  0  0  0  0
    6.7877  -17.5407   21.7260 C   0  0  0  0  0  0  0  0  0  0  0  0
    7.3847  -15.1660   21.0929 C   0  0  2  0  0  0  0  0  0  0  0  0
    8.2266  -14.5207   20.0596 N   0  0  0  0  0  0  0  0  0  0  0  0
    8.0235  -14.8943   22.3845 C   0  0  0  0  0  0  0  0  0  0  0  0
    9.2965  -14.9579   22.4950 O   0  0  0  0  0  0  0  0  0  0  0  0
    5.8286  -11.6073   26.1794 C   0  0  0  0  0  0  0  0  0  0  0  0
    6.8245  -12.3317   25.3024 C   0  0  0  0  0  0  0  0  0  0  0  0
    7.1592  -13.7006   25.8586 C   0  0  2  0  0  0  0  0  0  0  0  0
    7.8157  -13.5551   27.1906 C   0  0  0  0  0  0  0  0  0  0  0  0
    8.0559  -14.4637   24.8638 C   0  0  2  0  0  0  0  0  0  0  0  0
    7.3619  -14.5461   23.5986 N   0  0  0  0  0  0  0  0  0  0  0  0
    8.3650  -15.7374   25.5037 C   0  0  0  0  0  0  0  0  0  0  0  0
    7.3442  -16.4333   25.8379 O   0  0  0  0  0  0  0  0  0  0  0  0
    9.6298  -16.2776   25.7892 N   0  0  0  0  0  0  0  0  0  0  0  0
    9.7288  -17.6236   26.3510 C   0  0  1  0  0  0  0  0  0  0  0  0
   10.7807  -18.4413   25.6389 C   0  0  0  0  0  0  0  0  0  0  0  0
   12.0814  -17.2918   25.1049 S   0  0  0  0  0  0  0  0  0  0  0  0
   10.1629  -17.4803   27.7611 C   0  0  0  0  0  0  0  0  0  0  0  0
   10.4609  -16.3653   28.2681 O   0  0  0  0  0  0  0  0  0  0  0  0
   10.2594  -18.5863   28.5902 O   0  0  0  0  0  0  0  0  0  0  0  0
  1  2  1  0
  3  2  1  0
  3  4  1  1
  5  3  1  0
  5  6  1  6
  7  8  2  0
  7  5  1  0
  9 10  1  0
 10 11  1  0
 11 13  1  0
 11 12  1  1
 13 14  1  6
 14  7  1  0
 15 17  1  0
 15 13  1  0
 16 15  2  0
 18 17  1  0
 18 21  1  0
 18 19  1  6
 20 19  1  0
 21 23  1  0
 22 21  2  0
M  END
$$$$
