IIC.pdb
     RDKit          3D

 23 22  0  0  1  0  0  0  0  0999 V2000
    7.6832  -20.4950   27.7179 C   0  0  0  0  0  0  0  0  0  0  0  0
    6.8735  -19.3805   27.1033 C   0  0  0  0  0  0  0  0  0  0  0  0
    6.3241  -19.7580   25.7419 C   0  0  2  0  0  0  0  0  0  0  0  0
    7.4432  -20.2831   24.9080 C   0  0  0  0  0  0  0  0  0  0  0  0
    5.5666  -18.6018   25.1270 C   0  0  2  0  0  0  0  0  0  0  0  0
    5.0012  -19.1742   23.8839 N   0  0  0  0  0  0  0  0  0  0  0  0
    6.4797  -17.5298   24.7181 C   0  0  0  0  0  0  0  0  0  0  0  0
    7.0937  -17.6044   23.5982 O   0  0  0  0  0  0  0  0  0  0  0  0
    6.0681  -12.5005   26.9128 C   0  0  0  0  0  0  0  0  0  0  0  0
    6.2978  -13.5188   25.8192 C   0  0  0  0  0  0  0  0  0  0  0  0
    7.6726  -14.1461   25.9266 C   0  0  2  0  0  0  0  0  0  0  0  0
    8.7148  -13.1345   25.5852 C   0  0  0  0  0  0  0  0  0  0  0  0
    7.7568  -15.3807   25.0075 C   0  0  2  0  0  0  0  0  0  0  0  0
    6.7810  -16.3479   25.4565 N   0  0  0  0  0  0  0  0  0  0  0  0
    9.1487  -15.8144   25.0510 C   0  0  0  0  0  0  0  0  0  0  0  0
    9.5389  -16.2576   26.1865 O   0  0  0  0  0  0  0  0  0  0  0  0
   10.0915  -15.8022   24.0099 N   0  0  0  0  0  0  0  0  0  0  0  0
   11.3095  -16.6016   24.1308 C   0  0  1  0  0  0  0  0  0  0  0  0
   11.7001  -17.2134   22.8059 C   0  0  0  0  0  0  0  0  0  0  0  0
   11.5651  -15.9064   21.5522 S   0  0  0  0  0  0  0  0  0  0  0  0
   12.4012  -15.6815   24.5294 C   0  0  0  0  0  0  0  0  0  0  0  0
   12.2335  -14.4365   24.6338 O   0  0  0  0  0  0  0  0  0  0  0  0
   13.6702  -16.1636   24.8073 O   0  0  0  0  0  0  0  0  0  0  0  0
  1  2  1  0
  3  2  1  0
  3  4  1  6
  5  3  1  0
  5  6  1  6
  7  8  2  0
  7  5  1  0
  9 10  1  0
 10 11  1  0
 11 13  1  0
 11 12  1  6
 13 14  1  1
 14  7  1  0
 15 17  1  0
 15 13  1  0
 16 15  2  0
 18 17  1  0
 18 21  1  0
 18 19  1  6
 20 19  1  0
 21 23  1  0
 22 21  2  0
M  END
$$$$
