IIC.pdb
     RDKit          3D

 23 22  0  0  1  0  0  0  0  0999 V2000
    8.6761  -20.9732   25.3127 C   0  0  0  0  0  0  0  0  0  0  0  0
    7.7291  -20.0560   24.5798 C   0  0  0  0  0  0  0  0  0  0  0  0
    6.5432  -19.6579   25.4359 C   0  0  2  0  0  0  0  0  0  0  0  0
    5.8534  -20.8972   25.8960 C   0  0  0  0  0  0  0  0  0  0  0  0
    5.6556  -18.6755   24.7038 C   0  0  2  0  0  0  0  0  0  0  0  0
    5.3471  -19.3637   23.4294 N   0  0  0  0  0  0  0  0  0  0  0  0
    6.3922  -17.4566   24.3549 C   0  0  0  0  0  0  0  0  0  0  0  0
    6.8561  -17.3053   23.1723 O   0  0  0  0  0  0  0  0  0  0  0  0
    5.7867  -12.8362   27.2374 C   0  0  0  0  0  0  0  0  0  0  0  0
    6.0054  -13.6805   26.0025 C   0  0  0  0  0  0  0  0  0  0  0  0
    7.4369  -14.1681   25.9116 C   0  0  2  0  0  0  0  0  0  0  0  0
    8.3406  -13.0201   25.6087 C   0  0  0  0  0  0  0  0  0  0  0  0
    7.5454  -15.2736   24.8428 C   0  0  2  0  0  0  0  0  0  0  0  0
    6.6671  -16.3575   25.2207 N   0  0  0  0  0  0  0  0  0  0  0  0
    8.9632  -15.6047   24.7560 C   0  0  0  0  0  0  0  0  0  0  0  0
    9.4380  -16.2099   25.7789 O   0  0  0  0  0  0  0  0  0  0  0  0
    9.8499  -15.3411   23.6990 N   0  0  0  0  0  0  0  0  0  0  0  0
   11.1051  -16.0850   23.6084 C   0  0  1  0  0  0  0  0  0  0  0  0
   11.6476  -16.0796   22.1985 C   0  0  0  0  0  0  0  0  0  0  0  0
   10.3202  -16.6762   21.1120 S   0  0  0  0  0  0  0  0  0  0  0  0
   12.0936  -15.3846   24.4628 C   0  0  0  0  0  0  0  0  0  0  0  0
   13.2807  -15.7873   24.5947 O   0  0  0  0  0  0  0  0  0  0  0  0
   11.7437  -14.2402   25.1613 O   0  0  0  0  0  0  0  0  0  0  0  0
  1  2  1  0
  3  2  1  0
  3  4  1  6
  5  3  1  0
  5  6  1  6
  7  8  2  0
  7  5  1  0
  9 10  1  0
 10 11  1  0
 11 13  1  0
 11 12  1  6
 13 14  1  1
 14  7  1  0
 15 17  1  0
 15 13  1  0
 16 15  2  0
 18 17  1  0
 18 21  1  0
 18 19  1  6
 20 19  1  0
 21 23  1  0
 22 21  2  0
M  END
$$$$
