IIC.pdb
     RDKit          3D

 23 22  0  0  1  0  0  0  0  0999 V2000
    8.3549  -21.1641   28.0304 C   0  0  0  0  0  0  0  0  0  0  0  0
    7.1666  -20.3535   27.5763 C   0  0  0  0  0  0  0  0  0  0  0  0
    7.5684  -19.2185   26.6554 C   0  0  2  0  0  0  0  0  0  0  0  0
    8.7189  -18.4949   27.2688 C   0  0  0  0  0  0  0  0  0  0  0  0
    6.3776  -18.3461   26.3240 C   0  0  2  0  0  0  0  0  0  0  0  0
    5.5135  -19.2278   25.5062 N   0  0  0  0  0  0  0  0  0  0  0  0
    6.7674  -17.2249   25.4632 C   0  0  0  0  0  0  0  0  0  0  0  0
    6.9045  -17.4024   24.2037 O   0  0  0  0  0  0  0  0  0  0  0  0
    5.7927  -12.2398   27.1780 C   0  0  0  0  0  0  0  0  0  0  0  0
    5.9025  -13.3227   26.1286 C   0  0  0  0  0  0  0  0  0  0  0  0
    7.3323  -13.4950   25.6583 C   0  0  2  0  0  0  0  0  0  0  0  0
    7.6985  -12.3757   24.7423 C   0  0  0  0  0  0  0  0  0  0  0  0
    7.4952  -14.8662   24.9731 C   0  0  2  0  0  0  0  0  0  0  0  0
    7.0239  -15.8863   25.8821 N   0  0  0  0  0  0  0  0  0  0  0  0
    8.8999  -14.9549   24.5907 C   0  0  0  0  0  0  0  0  0  0  0  0
    9.7272  -14.9072   25.5660 O   0  0  0  0  0  0  0  0  0  0  0  0
    9.4383  -15.0848   23.2998 N   0  0  0  0  0  0  0  0  0  0  0  0
   10.7838  -15.6313   23.1316 C   0  0  1  0  0  0  0  0  0  0  0  0
   10.8745  -17.0433   23.6612 C   0  0  0  0  0  0  0  0  0  0  0  0
   11.5476  -16.9412   25.3449 S   0  0  0  0  0  0  0  0  0  0  0  0
   11.0556  -15.6893   21.6755 C   0  0  0  0  0  0  0  0  0  0  0  0
   10.1807  -15.4116   20.8116 O   0  0  0  0  0  0  0  0  0  0  0  0
   12.3040  -16.0576   21.2004 O   0  0  0  0  0  0  0  0  0  0  0  0
  1  2  1  0
  3  2  1  0
  3  4  1  1
  5  3  1  0
  5  6  1  6
  7  8  2  0
  7  5  1  0
  9 10  1  0
 10 11  1  0
 11 13  1  0
 11 12  1  6
 13 14  1  1
 14  7  1  0
 15 17  1  0
 15 13  1  0
 16 15  2  0
 18 17  1  0
 18 21  1  0
 18 19  1  6
 20 19  1  0
 21 23  1  0
 22 21  2  0
M  END
$$$$
