IIC.pdb
     RDKit          3D

 23 22  0  0  1  0  0  0  0  0999 V2000
    7.5809  -17.7825   20.3643 C   0  0  0  0  0  0  0  0  0  0  0  0
    8.0383  -16.3688   20.6243 C   0  0  0  0  0  0  0  0  0  0  0  0
    6.8821  -15.3887   20.6399 C   0  0  2  0  0  0  0  0  0  0  0  0
    6.1890  -15.4520   19.3212 C   0  0  0  0  0  0  0  0  0  0  0  0
    7.3517  -14.0076   21.0412 C   0  0  2  0  0  0  0  0  0  0  0  0
    8.4272  -13.7064   20.0688 N   0  0  0  0  0  0  0  0  0  0  0  0
    7.9779  -14.0271   22.3670 C   0  0  0  0  0  0  0  0  0  0  0  0
    9.2471  -14.1469   22.4737 O   0  0  0  0  0  0  0  0  0  0  0  0
    5.9777  -11.0631   26.2448 C   0  0  0  0  0  0  0  0  0  0  0  0
    7.0297  -11.7901   25.4383 C   0  0  0  0  0  0  0  0  0  0  0  0
    7.2252  -13.2083   25.9338 C   0  0  2  0  0  0  0  0  0  0  0  0
    7.9314  -13.1888   27.2480 C   0  0  0  0  0  0  0  0  0  0  0  0
    8.0025  -14.0262   24.8834 C   0  0  2  0  0  0  0  0  0  0  0  0
    7.3072  -13.9201   23.6207 N   0  0  0  0  0  0  0  0  0  0  0  0
    8.1191  -15.3716   25.4342 C   0  0  0  0  0  0  0  0  0  0  0  0
    7.1972  -16.1827   25.0731 O   0  0  0  0  0  0  0  0  0  0  0  0
    9.1082  -15.8699   26.2982 N   0  0  0  0  0  0  0  0  0  0  0  0
    9.8005  -17.1126   25.9610 C   0  0  1  0  0  0  0  0  0  0  0  0
   10.5814  -16.9760   24.6749 C   0  0  0  0  0  0  0  0  0  0  0  0
   10.4525  -18.5620   23.7995 S   0  0  0  0  0  0  0  0  0  0  0  0
   10.7782  -17.3784   27.0431 C   0  0  0  0  0  0  0  0  0  0  0  0
   10.9095  -18.5145   27.5733 O   0  0  0  0  0  0  0  0  0  0  0  0
   11.5994  -16.3701   27.5215 O   0  0  0  0  0  0  0  0  0  0  0  0
  1  2  1  0
  3  2  1  0
  3  4  1  6
  5  3  1  0
  5  6  1  6
  7  8  2  0
  7  5  1  0
  9 10  1  0
 10 11  1  0
 11 13  1  0
 11 12  1  1
 13 14  1  6
 14  7  1  0
 15 17  1  0
 15 13  1  0
 16 15  2  0
 18 17  1  0
 18 21  1  0
 18 19  1  6
 20 19  1  0
 21 23  1  0
 22 21  2  0
M  END
$$$$
