IIC.pdb
     RDKit          3D

 23 22  0  0  1  0  0  0  0  0999 V2000
    6.3583  -11.4971   28.1151 C   0  0  0  0  0  0  0  0  0  0  0  0
    5.7107  -12.4830   27.1748 C   0  0  0  0  0  0  0  0  0  0  0  0
    6.7321  -13.2388   26.3483 C   0  0  2  0  0  0  0  0  0  0  0  0
    7.6646  -12.2531   25.7299 C   0  0  0  0  0  0  0  0  0  0  0  0
    6.0508  -14.1662   25.3661 C   0  0  2  0  0  0  0  0  0  0  0  0
    5.4192  -15.1896   26.2302 N   0  0  0  0  0  0  0  0  0  0  0  0
    7.0331  -14.8679   24.5337 C   0  0  0  0  0  0  0  0  0  0  0  0
    7.5646  -15.9548   24.9495 O   0  0  0  0  0  0  0  0  0  0  0  0
    7.6883  -12.4505   20.1693 C   0  0  0  0  0  0  0  0  0  0  0  0
    7.4372  -13.8846   20.5771 C   0  0  0  0  0  0  0  0  0  0  0  0
    8.6881  -14.5270   21.1408 C   0  0  2  0  0  0  0  0  0  0  0  0
    9.3028  -15.4171   20.1132 C   0  0  0  0  0  0  0  0  0  0  0  0
    8.3431  -15.3003   22.4289 C   0  0  2  0  0  0  0  0  0  0  0  0
    7.4911  -14.4652   23.2449 N   0  0  0  0  0  0  0  0  0  0  0  0
    9.6218  -15.6755   23.0217 C   0  0  0  0  0  0  0  0  0  0  0  0
   10.3780  -14.6922   23.3369 O   0  0  0  0  0  0  0  0  0  0  0  0
   10.1089  -16.9671   23.2817 N   0  0  0  0  0  0  0  0  0  0  0  0
   11.4600  -17.1344   23.8144 C   0  0  1  0  0  0  0  0  0  0  0  0
   11.4656  -18.0337   25.0283 C   0  0  0  0  0  0  0  0  0  0  0  0
    9.9171  -18.9822   24.9988 S   0  0  0  0  0  0  0  0  0  0  0  0
   12.2657  -17.8050   22.7663 C   0  0  0  0  0  0  0  0  0  0  0  0
   11.7527  -18.2775   21.7163 O   0  0  0  0  0  0  0  0  0  0  0  0
   13.6379  -17.9403   22.9035 O   0  0  0  0  0  0  0  0  0  0  0  0
  1  2  1  0
  3  2  1  0
  3  4  1  6
  5  3  1  0
  5  6  1  1
  7  8  2  0
  7  5  1  0
  9 10  1  0
 10 11  1  0
 11 13  1  0
 11 12  1  6
 13 14  1  1
 14  7  1  0
 15 17  1  0
 15 13  1  0
 16 15  2  0
 18 17  1  0
 18 21  1  0
 18 19  1  1
 20 19  1  0
 21 23  1  0
 22 21  2  0
M  END
$$$$
