IIC.pdb
     RDKit          3D

 23 22  0  0  1  0  0  0  0  0999 V2000
    7.6873  -18.7375   21.1179 C   0  0  0  0  0  0  0  0  0  0  0  0
    8.0370  -17.2720   21.1927 C   0  0  0  0  0  0  0  0  0  0  0  0
    6.8042  -16.3901   21.1863 C   0  0  2  0  0  0  0  0  0  0  0  0
    5.9836  -16.7310   19.9889 C   0  0  0  0  0  0  0  0  0  0  0  0
    7.1854  -14.9302   21.2962 C   0  0  2  0  0  0  0  0  0  0  0  0
    8.1549  -14.7368   20.1938 N   0  0  0  0  0  0  0  0  0  0  0  0
    7.9098  -14.6659   22.5434 C   0  0  0  0  0  0  0  0  0  0  0  0
    9.1891  -14.6740   22.5547 O   0  0  0  0  0  0  0  0  0  0  0  0
    5.5896  -11.7054   26.4753 C   0  0  0  0  0  0  0  0  0  0  0  0
    6.6515  -12.2539   25.5495 C   0  0  0  0  0  0  0  0  0  0  0  0
    7.2402  -13.5433   26.0843 C   0  0  2  0  0  0  0  0  0  0  0  0
    8.0081  -13.2653   27.3330 C   0  0  0  0  0  0  0  0  0  0  0  0
    8.1260  -14.1996   25.0070 C   0  0  2  0  0  0  0  0  0  0  0  0
    7.3297  -14.3827   23.8147 N   0  0  0  0  0  0  0  0  0  0  0  0
    8.6527  -15.4171   25.6131 C   0  0  0  0  0  0  0  0  0  0  0  0
    7.7650  -16.2617   25.9827 O   0  0  0  0  0  0  0  0  0  0  0  0
    9.9964  -15.7625   25.8331 N   0  0  0  0  0  0  0  0  0  0  0  0
   10.3331  -17.1262   26.2383 C   0  0  1  0  0  0  0  0  0  0  0  0
   11.6120  -17.5946   25.5846 C   0  0  0  0  0  0  0  0  0  0  0  0
   12.7845  -16.2092   25.6488 S   0  0  0  0  0  0  0  0  0  0  0  0
   10.5694  -17.1040   27.7016 C   0  0  0  0  0  0  0  0  0  0  0  0
   10.5339  -16.0406   28.3775 O   0  0  0  0  0  0  0  0  0  0  0  0
   10.8433  -18.2724   28.3943 O   0  0  0  0  0  0  0  0  0  0  0  0
  1  2  1  0
  3  2  1  0
  3  4  1  6
  5  3  1  0
  5  6  1  6
  7  8  2  0
  7  5  1  0
  9 10  1  0
 10 11  1  0
 11 13  1  0
 11 12  1  1
 13 14  1  6
 14  7  1  0
 15 17  1  0
 15 13  1  0
 16 15  2  0
 18 17  1  0
 18 21  1  0
 18 19  1  6
 20 19  1  0
 21 23  1  0
 22 21  2  0
M  END
$$$$
