IIC.pdb
     RDKit          3D

 23 22  0  0  1  0  0  0  0  0999 V2000
    8.0055  -21.1087   24.8676 C   0  0  0  0  0  0  0  0  0  0  0  0
    7.3461  -20.0119   24.0690 C   0  0  0  0  0  0  0  0  0  0  0  0
    6.1262  -19.4492   24.7711 C   0  0  2  0  0  0  0  0  0  0  0  0
    5.1553  -20.5582   24.9965 C   0  0  0  0  0  0  0  0  0  0  0  0
    5.5675  -18.2644   24.0143 C   0  0  2  0  0  0  0  0  0  0  0  0
    5.2346  -18.8231   22.6840 N   0  0  0  0  0  0  0  0  0  0  0  0
    6.5976  -17.2441   23.7952 C   0  0  0  0  0  0  0  0  0  0  0  0
    7.3620  -17.3157   22.7718 O   0  0  0  0  0  0  0  0  0  0  0  0
    6.7876  -12.9113   27.2285 C   0  0  0  0  0  0  0  0  0  0  0  0
    6.9171  -14.1666   26.3959 C   0  0  0  0  0  0  0  0  0  0  0  0
    7.7378  -13.9202   25.1466 C   0  0  2  0  0  0  0  0  0  0  0  0
    7.0277  -12.9512   24.2617 C   0  0  0  0  0  0  0  0  0  0  0  0
    8.0061  -15.2562   24.4259 C   0  0  2  0  0  0  0  0  0  0  0  0
    6.8638  -16.1184   24.6287 N   0  0  0  0  0  0  0  0  0  0  0  0
    9.2741  -15.7455   24.9550 C   0  0  0  0  0  0  0  0  0  0  0  0
    9.3071  -15.8891   26.2263 O   0  0  0  0  0  0  0  0  0  0  0  0
   10.4403  -16.0714   24.2431 N   0  0  0  0  0  0  0  0  0  0  0  0
   11.6428  -16.4696   24.9729 C   0  0  1  0  0  0  0  0  0  0  0  0
   12.0370  -17.8918   24.6497 C   0  0  0  0  0  0  0  0  0  0  0  0
   10.7399  -18.9721   25.3196 S   0  0  0  0  0  0  0  0  0  0  0  0
   12.7461  -15.5923   24.5140 C   0  0  0  0  0  0  0  0  0  0  0  0
   12.5984  -14.7433   23.5941 O   0  0  0  0  0  0  0  0  0  0  0  0
   14.0040  -15.6736   25.0893 O   0  0  0  0  0  0  0  0  0  0  0  0
  1  2  1  0
  3  2  1  0
  3  4  1  6
  5  3  1  0
  5  6  1  6
  7  8  2  0
  7  5  1  0
  9 10  1  0
 10 11  1  0
 11 13  1  0
 11 12  1  6
 13 14  1  1
 14  7  1  0
 15 17  1  0
 15 13  1  0
 16 15  2  0
 18 17  1  0
 18 21  1  0
 18 19  1  6
 20 19  1  0
 21 23  1  0
 22 21  2  0
M  END
$$$$
