EAI.pdb
     RDKit          3D

 23 22  0  0  1  0  0  0  0  0999 V2000
   25.7947  -21.5414  -14.0066 N   0  0  0  0  0  0  0  0  0  0  0  0
   26.9064  -20.8347  -13.4390 C   0  0  1  0  0  0  0  0  0  0  0  0
   27.2976  -19.6882  -14.3029 C   0  0  0  0  0  0  0  0  0  0  0  0
   27.4611  -19.9533  -15.7484 C   0  0  0  0  0  0  0  0  0  0  0  0
   28.1458  -21.1877  -16.1288 C   0  0  0  0  0  0  0  0  0  0  0  0
   29.4202  -21.1218  -16.2222 O   0  0  0  0  0  0  0  0  0  0  0  0
   26.5648  -20.3820  -12.0657 C   0  0  0  0  0  0  0  0  0  0  0  0
   27.4724  -19.7190  -11.4427 O   0  0  0  0  0  0  0  0  0  0  0  0
   27.5913  -22.4093  -16.3951 O   0  0  0  0  0  0  0  0  0  0  0  0
   23.6938  -20.1529   -9.7091 C   0  0  0  0  0  0  0  0  0  0  0  0
   25.1528  -20.0328  -10.0676 C   0  0  2  0  0  0  0  0  0  0  0  0
   25.3599  -20.6066  -11.3871 N   0  0  0  0  0  0  0  0  0  0  0  0
   26.0366  -20.6712   -9.0552 C   0  0  0  0  0  0  0  0  0  0  0  0
   26.3254  -21.8725   -9.2029 O   0  0  0  0  0  0  0  0  0  0  0  0
   30.2499  -19.4074   -4.7183 C   0  0  0  0  0  0  0  0  0  0  0  0
   29.1976  -20.3060   -5.2628 C   0  0  0  0  0  0  0  0  0  0  0  0
   28.3185  -19.7634   -6.3204 C   0  0  2  0  0  0  0  0  0  0  0  0
   27.9695  -18.2994   -6.1519 C   0  0  0  0  0  0  0  0  0  0  0  0
   27.2006  -20.6255   -6.7929 C   0  0  2  0  0  0  0  0  0  0  0  0
   26.5604  -19.9836   -7.9409 N   0  0  0  0  0  0  0  0  0  0  0  0
   26.2285  -21.0786   -5.8100 C   0  0  0  0  0  0  0  0  0  0  0  0
   25.0415  -20.5859   -5.7683 O   0  0  0  0  0  0  0  0  0  0  0  0
   26.4535  -22.0491   -4.8524 O   0  0  0  0  0  0  0  0  0  0  0  0
  2  3  1  0
  2  1  1  6
  4  5  1  0
  4  3  1  0
  5  6  2  0
  7  2  1  0
  8  7  2  0
  9  5  1  0
 11 10  1  1
 11 12  1  0
 12  7  1  0
 13 11  1  0
 13 20  1  0
 14 13  2  0
 16 15  1  0
 17 18  1  1
 17 16  1  0
 19 20  1  6
 19 17  1  0
 21 23  1  0
 21 19  1  0
 22 21  2  0
M  END
$$$$
