EAI.pdb
     RDKit          3D

 23 22  0  0  1  0  0  0  0  0999 V2000
   20.8637  -21.1046  -13.0748 N   0  0  0  0  0  0  0  0  0  0  0  0
   22.2298  -21.5408  -13.1061 C   0  0  1  0  0  0  0  0  0  0  0  0
   22.8091  -21.3589  -14.4645 C   0  0  0  0  0  0  0  0  0  0  0  0
   22.2558  -22.1909  -15.5545 C   0  0  0  0  0  0  0  0  0  0  0  0
   20.9071  -21.8727  -16.0202 C   0  0  0  0  0  0  0  0  0  0  0  0
   19.9905  -22.7115  -15.7146 O   0  0  0  0  0  0  0  0  0  0  0  0
   23.0153  -20.8038  -12.0828 C   0  0  0  0  0  0  0  0  0  0  0  0
   22.8111  -19.5370  -12.0119 O   0  0  0  0  0  0  0  0  0  0  0  0
   20.5017  -20.7840  -16.7421 O   0  0  0  0  0  0  0  0  0  0  0  0
   25.0456  -21.2103   -9.0545 C   0  0  0  0  0  0  0  0  0  0  0  0
   24.7275  -20.4749  -10.3311 C   0  0  2  0  0  0  0  0  0  0  0  0
   23.9516  -21.3496  -11.1948 N   0  0  0  0  0  0  0  0  0  0  0  0
   25.9518  -19.9830  -11.0184 C   0  0  0  0  0  0  0  0  0  0  0  0
   26.6342  -19.1120  -10.4491 O   0  0  0  0  0  0  0  0  0  0  0  0
   30.0958  -22.0176  -10.8583 C   0  0  0  0  0  0  0  0  0  0  0  0
   29.0222  -21.0498  -11.2079 C   0  0  0  0  0  0  0  0  0  0  0  0
   28.7121  -20.8646  -12.6416 C   0  0  2  0  0  0  0  0  0  0  0  0
   29.9295  -20.7064  -13.5283 C   0  0  0  0  0  0  0  0  0  0  0  0
   27.5642  -19.9819  -12.9870 C   0  0  2  0  0  0  0  0  0  0  0  0
   26.3744  -20.4538  -12.2788 N   0  0  0  0  0  0  0  0  0  0  0  0
   27.2971  -19.7328  -14.3951 C   0  0  0  0  0  0  0  0  0  0  0  0
   26.4034  -20.4013  -15.0339 O   0  0  0  0  0  0  0  0  0  0  0  0
   27.9389  -18.7901  -15.1755 O   0  0  0  0  0  0  0  0  0  0  0  0
  2  3  1  0
  2  1  1  6
  4  5  1  0
  4  3  1  0
  5  6  2  0
  7  2  1  0
  8  7  2  0
  9  5  1  0
 11 10  1  1
 11 12  1  0
 12  7  1  0
 13 11  1  0
 13 20  1  0
 14 13  2  0
 16 15  1  0
 17 18  1  6
 17 16  1  0
 19 20  1  6
 19 17  1  0
 21 23  1  0
 21 19  1  0
 22 21  2  0
M  END
$$$$
