EAI.pdb
     RDKit          3D

 23 22  0  0  1  0  0  0  0  0999 V2000
   16.4279  -14.0751  -17.9025 N   0  0  0  0  0  0  0  0  0  0  0  0
   16.1389  -13.2626  -16.7563 C   0  0  1  0  0  0  0  0  0  0  0  0
   16.5776  -13.9406  -15.5066 C   0  0  0  0  0  0  0  0  0  0  0  0
   15.8665  -15.1785  -15.1215 C   0  0  0  0  0  0  0  0  0  0  0  0
   16.3017  -15.8462  -13.8960 C   0  0  0  0  0  0  0  0  0  0  0  0
   17.2972  -15.3201  -13.2882 O   0  0  0  0  0  0  0  0  0  0  0  0
   16.7894  -11.9351  -16.9054 C   0  0  0  0  0  0  0  0  0  0  0  0
   17.9587  -11.9310  -17.4386 O   0  0  0  0  0  0  0  0  0  0  0  0
   15.7729  -16.9658  -13.3149 O   0  0  0  0  0  0  0  0  0  0  0  0
   16.0628   -8.3150  -16.8209 C   0  0  0  0  0  0  0  0  0  0  0  0
   17.0182   -9.4789  -16.7546 C   0  0  2  0  0  0  0  0  0  0  0  0
   16.2582  -10.6964  -16.5232 N   0  0  0  0  0  0  0  0  0  0  0  0
   18.0662   -9.2896  -15.7158 C   0  0  0  0  0  0  0  0  0  0  0  0
   17.8348   -9.7063  -14.5664 O   0  0  0  0  0  0  0  0  0  0  0  0
   22.7512  -11.1880  -16.3834 C   0  0  0  0  0  0  0  0  0  0  0  0
   21.4965  -10.5126  -15.9581 C   0  0  0  0  0  0  0  0  0  0  0  0
   21.6046   -9.1246  -15.4603 C   0  0  2  0  0  0  0  0  0  0  0  0
   22.8362   -8.8567  -14.6209 C   0  0  0  0  0  0  0  0  0  0  0  0
   20.3586   -8.4708  -14.9744 C   0  0  2  0  0  0  0  0  0  0  0  0
   19.3040   -8.6632  -15.9697 N   0  0  0  0  0  0  0  0  0  0  0  0
   20.4441   -7.0877  -14.5317 C   0  0  0  0  0  0  0  0  0  0  0  0
   20.2272   -6.1126  -15.3415 O   0  0  0  0  0  0  0  0  0  0  0  0
   20.7503   -6.6771  -13.2483 O   0  0  0  0  0  0  0  0  0  0  0  0
  2  3  1  0
  2  1  1  6
  4  5  1  0
  4  3  1  0
  5  6  2  0
  7  2  1  0
  8  7  2  0
  9  5  1  0
 11 10  1  1
 11 12  1  0
 12  7  1  0
 13 11  1  0
 13 20  1  0
 14 13  2  0
 16 15  1  0
 17 18  1  1
 17 16  1  0
 19 20  1  6
 19 17  1  0
 21 23  1  0
 21 19  1  0
 22 21  2  0
M  END
$$$$
