EAI.pdb
     RDKit          3D

 23 22  0  0  1  0  0  0  0  0999 V2000
   23.3452  -22.8673  -18.4640 N   0  0  0  0  0  0  0  0  0  0  0  0
   22.4171  -22.0204  -17.7720 C   0  0  1  0  0  0  0  0  0  0  0  0
   21.2093  -22.7871  -17.3629 C   0  0  0  0  0  0  0  0  0  0  0  0
   20.2033  -23.0754  -18.4075 C   0  0  0  0  0  0  0  0  0  0  0  0
   19.0708  -22.1575  -18.5171 C   0  0  0  0  0  0  0  0  0  0  0  0
   18.5588  -21.7569  -17.4150 O   0  0  0  0  0  0  0  0  0  0  0  0
   23.0835  -21.3993  -16.5984 C   0  0  0  0  0  0  0  0  0  0  0  0
   24.0443  -22.0688  -16.0690 O   0  0  0  0  0  0  0  0  0  0  0  0
   18.4907  -21.6696  -19.6556 O   0  0  0  0  0  0  0  0  0  0  0  0
   23.3203  -18.1847  -14.7611 C   0  0  0  0  0  0  0  0  0  0  0  0
   23.5606  -19.6659  -14.9025 C   0  0  2  0  0  0  0  0  0  0  0  0
   22.7689  -20.1650  -16.0149 N   0  0  0  0  0  0  0  0  0  0  0  0
   23.2601  -20.4081  -13.6486 C   0  0  0  0  0  0  0  0  0  0  0  0
   22.2464  -21.1292  -13.6224 O   0  0  0  0  0  0  0  0  0  0  0  0
   25.9686  -21.3351   -8.0627 C   0  0  0  0  0  0  0  0  0  0  0  0
   24.8517  -21.5445   -9.0218 C   0  0  0  0  0  0  0  0  0  0  0  0
   24.8638  -20.7469  -10.2666 C   0  0  2  0  0  0  0  0  0  0  0  0
   25.3547  -19.3250  -10.0922 C   0  0  0  0  0  0  0  0  0  0  0  0
   23.7095  -20.9038  -11.1935 C   0  0  2  0  0  0  0  0  0  0  0  0
   24.0651  -20.3340  -12.4929 N   0  0  0  0  0  0  0  0  0  0  0  0
   22.4046  -20.4498  -10.7381 C   0  0  0  0  0  0  0  0  0  0  0  0
   22.0254  -19.2324  -10.9050 O   0  0  0  0  0  0  0  0  0  0  0  0
   21.4608  -21.2364  -10.1057 O   0  0  0  0  0  0  0  0  0  0  0  0
  2  3  1  0
  2  1  1  1
  4  5  1  0
  4  3  1  0
  5  6  2  0
  7  2  1  0
  8  7  2  0
  9  5  1  0
 11 10  1  1
 11 12  1  0
 12  7  1  0
 13 11  1  0
 13 20  1  0
 14 13  2  0
 16 15  1  0
 17 18  1  1
 17 16  1  0
 19 20  1  6
 19 17  1  0
 21 23  1  0
 21 19  1  0
 22 21  2  0
M  END
$$$$
