EAI.pdb
     RDKit          3D

 23 22  0  0  1  0  0  0  0  0999 V2000
   15.6715  -13.9130  -18.8419 N   0  0  0  0  0  0  0  0  0  0  0  0
   16.1309  -13.3832  -17.5906 C   0  0  1  0  0  0  0  0  0  0  0  0
   16.8291  -14.4323  -16.7995 C   0  0  0  0  0  0  0  0  0  0  0  0
   15.9895  -15.4548  -16.1393 C   0  0  0  0  0  0  0  0  0  0  0  0
   16.6625  -16.4023  -15.2525 C   0  0  0  0  0  0  0  0  0  0  0  0
   17.1979  -15.9095  -14.2000 O   0  0  0  0  0  0  0  0  0  0  0  0
   17.0158  -12.2150  -17.8350 C   0  0  0  0  0  0  0  0  0  0  0  0
   17.1490  -11.8481  -19.0594 O   0  0  0  0  0  0  0  0  0  0  0  0
   16.7887  -17.7553  -15.4074 O   0  0  0  0  0  0  0  0  0  0  0  0
   17.4924   -9.3120  -17.8920 C   0  0  0  0  0  0  0  0  0  0  0  0
   18.4503  -10.2872  -17.2571 C   0  0  2  0  0  0  0  0  0  0  0  0
   17.7159  -11.4802  -16.8691 N   0  0  0  0  0  0  0  0  0  0  0  0
   19.1720   -9.6954  -16.0986 C   0  0  0  0  0  0  0  0  0  0  0  0
   18.5596   -9.5830  -15.0213 O   0  0  0  0  0  0  0  0  0  0  0  0
   23.6171  -12.1861  -15.7615 C   0  0  0  0  0  0  0  0  0  0  0  0
   22.4034  -11.3470  -15.5771 C   0  0  0  0  0  0  0  0  0  0  0  0
   22.6042   -9.9319  -15.1985 C   0  0  2  0  0  0  0  0  0  0  0  0
   23.7049   -9.7076  -14.1829 C   0  0  0  0  0  0  0  0  0  0  0  0
   21.3889   -9.0946  -15.0034 C   0  0  2  0  0  0  0  0  0  0  0  0
   20.5110   -9.2572  -16.1621 N   0  0  0  0  0  0  0  0  0  0  0  0
   21.5760   -7.6949  -14.6537 C   0  0  0  0  0  0  0  0  0  0  0  0
   21.7319   -6.7954  -15.5593 O   0  0  0  0  0  0  0  0  0  0  0  0
   21.6031   -7.1893  -13.3680 O   0  0  0  0  0  0  0  0  0  0  0  0
  2  3  1  0
  2  1  1  6
  4  5  1  0
  4  3  1  0
  5  6  2  0
  7  2  1  0
  8  7  2  0
  9  5  1  0
 11 10  1  1
 11 12  1  0
 12  7  1  0
 13 11  1  0
 13 20  1  0
 14 13  2  0
 16 15  1  0
 17 18  1  1
 17 16  1  0
 19 20  1  6
 19 17  1  0
 21 23  1  0
 21 19  1  0
 22 21  2  0
M  END
$$$$
