EAI.pdb
     RDKit          3D

 23 22  0  0  1  0  0  0  0  0999 V2000
   20.7467  -20.1073  -16.0743 N   0  0  0  0  0  0  0  0  0  0  0  0
   20.1379  -18.8487  -16.3950 C   0  0  1  0  0  0  0  0  0  0  0  0
   19.6119  -18.1910  -15.1683 C   0  0  0  0  0  0  0  0  0  0  0  0
   18.5114  -18.8719  -14.4528 C   0  0  0  0  0  0  0  0  0  0  0  0
   17.9048  -18.1620  -13.3280 C   0  0  0  0  0  0  0  0  0  0  0  0
   17.1282  -17.1896  -13.6255 O   0  0  0  0  0  0  0  0  0  0  0  0
   21.1203  -17.9795  -17.0927 C   0  0  0  0  0  0  0  0  0  0  0  0
   22.3559  -18.1591  -16.7887 O   0  0  0  0  0  0  0  0  0  0  0  0
   18.0625  -18.4114  -11.9925 O   0  0  0  0  0  0  0  0  0  0  0  0
   21.4387  -15.7255  -19.9999 C   0  0  0  0  0  0  0  0  0  0  0  0
   21.9184  -16.2548  -18.6727 C   0  0  2  0  0  0  0  0  0  0  0  0
   20.8342  -16.9892  -18.0415 N   0  0  0  0  0  0  0  0  0  0  0  0
   22.4284  -15.1745  -17.7860 C   0  0  0  0  0  0  0  0  0  0  0  0
   21.6468  -14.6821  -16.9524 O   0  0  0  0  0  0  0  0  0  0  0  0
   26.5589  -15.8754  -14.8589 C   0  0  0  0  0  0  0  0  0  0  0  0
   25.3439  -15.3574  -15.5421 C   0  0  0  0  0  0  0  0  0  0  0  0
   25.4683  -14.0821  -16.2797 C   0  0  2  0  0  0  0  0  0  0  0  0
   26.2463  -13.0098  -15.5460 C   0  0  0  0  0  0  0  0  0  0  0  0
   24.2697  -13.5957  -17.0165 C   0  0  2  0  0  0  0  0  0  0  0  0
   23.7492  -14.6836  -17.8443 N   0  0  0  0  0  0  0  0  0  0  0  0
   24.3877  -12.3522  -17.7622 C   0  0  0  0  0  0  0  0  0  0  0  0
   24.8624  -12.3324  -18.9571 O   0  0  0  0  0  0  0  0  0  0  0  0
   24.0174  -11.1042  -17.2984 O   0  0  0  0  0  0  0  0  0  0  0  0
  2  3  1  0
  2  1  1  1
  4  5  1  0
  4  3  1  0
  5  6  2  0
  7  2  1  0
  8  7  2  0
  9  5  1  0
 11 10  1  6
 11 12  1  0
 12  7  1  0
 13 11  1  0
 13 20  1  0
 14 13  2  0
 16 15  1  0
 17 18  1  1
 17 16  1  0
 19 20  1  6
 19 17  1  0
 21 23  1  0
 21 19  1  0
 22 21  2  0
M  END
$$$$
