EAI.pdb
     RDKit          3D

 23 22  0  0  1  0  0  0  0  0999 V2000
   14.8746  -11.5333  -16.7152 N   0  0  0  0  0  0  0  0  0  0  0  0
   15.2510  -10.3385  -17.4139 C   0  0  1  0  0  0  0  0  0  0  0  0
   14.4302   -9.1832  -16.9607 C   0  0  0  0  0  0  0  0  0  0  0  0
   14.4972   -8.8246  -15.5277 C   0  0  0  0  0  0  0  0  0  0  0  0
   15.2382   -7.6149  -15.1748 C   0  0  0  0  0  0  0  0  0  0  0  0
   15.9612   -7.6816  -14.1212 O   0  0  0  0  0  0  0  0  0  0  0  0
   16.7008  -10.0786  -17.2184 C   0  0  0  0  0  0  0  0  0  0  0  0
   17.3079  -10.8415  -16.3812 O   0  0  0  0  0  0  0  0  0  0  0  0
   15.2568   -6.4173  -15.8352 O   0  0  0  0  0  0  0  0  0  0  0  0
   19.5234   -8.1706  -18.6980 C   0  0  0  0  0  0  0  0  0  0  0  0
   18.9004   -9.0282  -17.6266 C   0  0  2  0  0  0  0  0  0  0  0  0
   17.4654   -9.0896  -17.8508 N   0  0  0  0  0  0  0  0  0  0  0  0
   19.2135   -8.5366  -16.2578 C   0  0  0  0  0  0  0  0  0  0  0  0
   18.3747   -7.8161  -15.6872 O   0  0  0  0  0  0  0  0  0  0  0  0
   21.6555   -9.9256  -11.0291 C   0  0  0  0  0  0  0  0  0  0  0  0
   21.9493   -8.9738  -12.1331 C   0  0  0  0  0  0  0  0  0  0  0  0
   21.4849   -9.3380  -13.4887 C   0  0  2  0  0  0  0  0  0  0  0  0
   22.4518  -10.2049  -14.2678 C   0  0  0  0  0  0  0  0  0  0  0  0
   20.8035   -8.2826  -14.2874 C   0  0  2  0  0  0  0  0  0  0  0  0
   20.4101   -8.8461  -15.5786 N   0  0  0  0  0  0  0  0  0  0  0  0
   21.4750   -7.0005  -14.4342 C   0  0  0  0  0  0  0  0  0  0  0  0
   21.4890   -6.1406  -13.4783 O   0  0  0  0  0  0  0  0  0  0  0  0
   22.1489   -6.5763  -15.5636 O   0  0  0  0  0  0  0  0  0  0  0  0
  2  3  1  0
  2  1  1  1
  4  5  1  0
  4  3  1  0
  5  6  2  0
  7  2  1  0
  8  7  2  0
  9  5  1  0
 11 10  1  6
 11 12  1  0
 12  7  1  0
 13 11  1  0
 13 20  1  0
 14 13  2  0
 16 15  1  0
 17 18  1  6
 17 16  1  0
 19 20  1  6
 19 17  1  0
 21 23  1  0
 21 19  1  0
 22 21  2  0
M  END
$$$$
