EAI.pdb
     RDKit          3D

 23 22  0  0  1  0  0  0  0  0999 V2000
   26.6832  -33.6372  -15.1303 N   0  0  0  0  0  0  0  0  0  0  0  0
   25.3208  -34.0852  -15.1558 C   0  0  1  0  0  0  0  0  0  0  0  0
   25.2533  -35.5693  -15.0738 C   0  0  0  0  0  0  0  0  0  0  0  0
   25.6783  -36.1982  -13.8047 C   0  0  0  0  0  0  0  0  0  0  0  0
   25.6098  -37.6563  -13.7249 C   0  0  0  0  0  0  0  0  0  0  0  0
   25.9964  -38.1812  -12.6239 O   0  0  0  0  0  0  0  0  0  0  0  0
   24.5629  -33.4498  -14.0470 C   0  0  0  0  0  0  0  0  0  0  0  0
   25.2602  -32.9990  -13.0661 O   0  0  0  0  0  0  0  0  0  0  0  0
   25.1791  -38.5318  -14.6834 O   0  0  0  0  0  0  0  0  0  0  0  0
   21.1041  -32.4591  -13.0612 C   0  0  0  0  0  0  0  0  0  0  0  0
   22.5843  -32.6146  -12.8240 C   0  0  2  0  0  0  0  0  0  0  0  0
   23.1728  -33.2963  -13.9652 N   0  0  0  0  0  0  0  0  0  0  0  0
   22.8796  -33.3316  -11.5543 C   0  0  0  0  0  0  0  0  0  0  0  0
   23.0827  -34.5581  -11.6069 O   0  0  0  0  0  0  0  0  0  0  0  0
   26.3366  -33.0918   -6.7448 C   0  0  0  0  0  0  0  0  0  0  0  0
   24.9582  -33.4205   -7.1957 C   0  0  0  0  0  0  0  0  0  0  0  0
   24.5496  -32.9508   -8.5367 C   0  0  2  0  0  0  0  0  0  0  0  0
   24.9207  -31.5132   -8.8345 C   0  0  0  0  0  0  0  0  0  0  0  0
   23.2093  -33.3692   -9.0314 C   0  0  2  0  0  0  0  0  0  0  0  0
   22.9400  -32.6912  -10.2993 N   0  0  0  0  0  0  0  0  0  0  0  0
   22.0849  -33.2742   -8.1132 C   0  0  0  0  0  0  0  0  0  0  0  0
   21.9738  -34.0697   -7.1090 O   0  0  0  0  0  0  0  0  0  0  0  0
   21.0539  -32.3588   -8.2045 O   0  0  0  0  0  0  0  0  0  0  0  0
  2  3  1  0
  2  1  1  1
  4  5  1  0
  4  3  1  0
  5  6  2  0
  7  2  1  0
  8  7  2  0
  9  5  1  0
 11 10  1  6
 11 12  1  0
 12  7  1  0
 13 11  1  0
 13 20  1  0
 14 13  2  0
 16 15  1  0
 17 18  1  1
 17 16  1  0
 19 20  1  6
 19 17  1  0
 21 23  1  0
 21 19  1  0
 22 21  2  0
M  END
$$$$
