EAI.pdb
     RDKit          3D

 23 22  0  0  1  0  0  0  0  0999 V2000
   17.7083  -11.3320  -16.6178 N   0  0  0  0  0  0  0  0  0  0  0  0
   18.9472  -10.8570  -17.1626 C   0  0  1  0  0  0  0  0  0  0  0  0
   18.7009   -9.9402  -18.3084 C   0  0  0  0  0  0  0  0  0  0  0  0
   18.4715  -10.5567  -19.6327 C   0  0  0  0  0  0  0  0  0  0  0  0
   19.4272  -11.5716  -20.0727 C   0  0  0  0  0  0  0  0  0  0  0  0
   18.9689  -12.7584  -20.2098 O   0  0  0  0  0  0  0  0  0  0  0  0
   19.7395  -10.1879  -16.0986 C   0  0  0  0  0  0  0  0  0  0  0  0
   19.0923   -9.3970  -15.3193 O   0  0  0  0  0  0  0  0  0  0  0  0
   20.7544  -11.4087  -20.3601 O   0  0  0  0  0  0  0  0  0  0  0  0
   23.1422  -10.1121  -14.5862 C   0  0  0  0  0  0  0  0  0  0  0  0
   21.7500   -9.5751  -14.7984 C   0  0  2  0  0  0  0  0  0  0  0  0
   21.1131  -10.3318  -15.8638 N   0  0  0  0  0  0  0  0  0  0  0  0
   21.7470   -8.1171  -15.0940 C   0  0  0  0  0  0  0  0  0  0  0  0
   21.8676   -7.7587  -16.2794 O   0  0  0  0  0  0  0  0  0  0  0  0
   19.0218   -3.2482  -15.7017 C   0  0  0  0  0  0  0  0  0  0  0  0
   20.3080   -3.7392  -15.1397 C   0  0  0  0  0  0  0  0  0  0  0  0
   20.4105   -5.1814  -14.8309 C   0  0  2  0  0  0  0  0  0  0  0  0
   19.1998   -5.7565  -14.1261 C   0  0  0  0  0  0  0  0  0  0  0  0
   21.7220   -5.6867  -14.3403 C   0  0  2  0  0  0  0  0  0  0  0  0
   21.6149   -7.1256  -14.0997 N   0  0  0  0  0  0  0  0  0  0  0  0
   22.3441   -4.9924  -13.2235 C   0  0  0  0  0  0  0  0  0  0  0  0
   22.7893   -3.7925  -13.3476 O   0  0  0  0  0  0  0  0  0  0  0  0
   22.5185   -5.5138  -11.9557 O   0  0  0  0  0  0  0  0  0  0  0  0
  2  3  1  0
  2  1  1  1
  4  5  1  0
  4  3  1  0
  5  6  2  0
  7  2  1  0
  8  7  2  0
  9  5  1  0
 11 10  1  6
 11 12  1  0
 12  7  1  0
 13 11  1  0
 13 20  1  0
 14 13  2  0
 16 15  1  0
 17 18  1  1
 17 16  1  0
 19 20  1  1
 19 17  1  0
 21 23  1  0
 21 19  1  0
 22 21  2  0
M  END
$$$$
