EAI.pdb
     RDKit          3D

 23 22  0  0  1  0  0  0  0  0999 V2000
   17.3526  -11.0613  -18.2893 N   0  0  0  0  0  0  0  0  0  0  0  0
   18.2542  -11.2919  -17.1978 C   0  0  1  0  0  0  0  0  0  0  0  0
   18.8608  -12.6472  -17.2938 C   0  0  0  0  0  0  0  0  0  0  0  0
   17.9910  -13.8026  -16.9853 C   0  0  0  0  0  0  0  0  0  0  0  0
   17.2901  -14.4299  -18.1043 C   0  0  0  0  0  0  0  0  0  0  0  0
   17.5227  -13.9403  -19.2633 O   0  0  0  0  0  0  0  0  0  0  0  0
   19.2983  -10.2351  -17.1777 C   0  0  0  0  0  0  0  0  0  0  0  0
   20.2249  -10.3672  -16.2971 O   0  0  0  0  0  0  0  0  0  0  0  0
   16.4158  -15.4810  -18.0661 O   0  0  0  0  0  0  0  0  0  0  0  0
   20.3197   -7.0881  -18.9037 C   0  0  0  0  0  0  0  0  0  0  0  0
   20.4032   -8.1148  -17.8034 C   0  0  2  0  0  0  0  0  0  0  0  0
   19.3708   -9.1156  -18.0169 N   0  0  0  0  0  0  0  0  0  0  0  0
   20.2925   -7.5030  -16.4518 C   0  0  0  0  0  0  0  0  0  0  0  0
   19.1590   -7.2039  -16.0344 O   0  0  0  0  0  0  0  0  0  0  0  0
   21.7351   -8.6875  -10.9206 C   0  0  0  0  0  0  0  0  0  0  0  0
   21.4629   -7.5715  -11.8650 C   0  0  0  0  0  0  0  0  0  0  0  0
   21.6144   -7.8486  -13.3093 C   0  0  2  0  0  0  0  0  0  0  0  0
   22.8256   -8.6871  -13.6604 C   0  0  0  0  0  0  0  0  0  0  0  0
   21.3243   -6.7366  -14.2556 C   0  0  2  0  0  0  0  0  0  0  0  0
   21.4053   -7.2465  -15.6242 N   0  0  0  0  0  0  0  0  0  0  0  0
   22.0631   -5.4941  -14.0924 C   0  0  0  0  0  0  0  0  0  0  0  0
   23.0357   -5.1877  -14.8758 O   0  0  0  0  0  0  0  0  0  0  0  0
   21.8166   -4.5392  -13.1245 O   0  0  0  0  0  0  0  0  0  0  0  0
  2  3  1  0
  2  1  1  6
  4  5  1  0
  4  3  1  0
  5  6  2  0
  7  2  1  0
  8  7  2  0
  9  5  1  0
 11 10  1  6
 11 12  1  0
 12  7  1  0
 13 11  1  0
 13 20  1  0
 14 13  2  0
 16 15  1  0
 17 18  1  1
 17 16  1  0
 19 20  1  6
 19 17  1  0
 21 23  1  0
 21 19  1  0
 22 21  2  0
M  END
$$$$
