EAI.pdb
     RDKit          3D

 23 22  0  0  1  0  0  0  0  0999 V2000
   15.9440  -12.4241  -13.9601 N   0  0  0  0  0  0  0  0  0  0  0  0
   16.0737  -11.0408  -14.3166 C   0  0  1  0  0  0  0  0  0  0  0  0
   14.7789  -10.5018  -14.8134 C   0  0  0  0  0  0  0  0  0  0  0  0
   14.2816  -11.0172  -16.1071 C   0  0  0  0  0  0  0  0  0  0  0  0
   13.1001  -10.3705  -16.6751 C   0  0  0  0  0  0  0  0  0  0  0  0
   13.3181   -9.3918  -17.4700 O   0  0  0  0  0  0  0  0  0  0  0  0
   16.5669  -10.2658  -13.1489 C   0  0  0  0  0  0  0  0  0  0  0  0
   16.1184  -10.6224  -11.9986 O   0  0  0  0  0  0  0  0  0  0  0  0
   11.7858  -10.6850  -16.4640 O   0  0  0  0  0  0  0  0  0  0  0  0
   19.1045   -7.7353  -12.1826 C   0  0  0  0  0  0  0  0  0  0  0  0
   17.8485   -8.5324  -11.9401 C   0  0  2  0  0  0  0  0  0  0  0  0
   17.4650   -9.1909  -13.1781 N   0  0  0  0  0  0  0  0  0  0  0  0
   16.7415   -7.6926  -11.4086 C   0  0  0  0  0  0  0  0  0  0  0  0
   15.9704   -7.1543  -12.2234 O   0  0  0  0  0  0  0  0  0  0  0  0
   12.2108   -7.0822   -7.6734 C   0  0  0  0  0  0  0  0  0  0  0  0
   13.4120   -6.3804   -8.1986 C   0  0  0  0  0  0  0  0  0  0  0  0
   14.4457   -7.2027   -8.8628 C   0  0  2  0  0  0  0  0  0  0  0  0
   14.8030   -8.4742   -8.1220 C   0  0  0  0  0  0  0  0  0  0  0  0
   15.5980   -6.4899   -9.4796 C   0  0  2  0  0  0  0  0  0  0  0  0
   16.5250   -7.4776  -10.0317 N   0  0  0  0  0  0  0  0  0  0  0  0
   16.2837   -5.4860   -8.6806 C   0  0  0  0  0  0  0  0  0  0  0  0
   15.7415   -4.3473   -8.4301 O   0  0  0  0  0  0  0  0  0  0  0  0
   17.5381   -5.6316   -8.1195 O   0  0  0  0  0  0  0  0  0  0  0  0
  2  3  1  0
  2  1  1  1
  4  5  1  0
  4  3  1  0
  5  6  2  0
  7  2  1  0
  8  7  2  0
  9  5  1  0
 11 10  1  6
 11 12  1  0
 12  7  1  0
 13 11  1  0
 13 20  1  0
 14 13  2  0
 16 15  1  0
 17 18  1  1
 17 16  1  0
 19 20  1  1
 19 17  1  0
 21 23  1  0
 21 19  1  0
 22 21  2  0
M  END
$$$$
