EAI.pdb
     RDKit          3D

 23 22  0  0  1  0  0  0  0  0999 V2000
   20.0517  -11.1048  -19.4101 N   0  0  0  0  0  0  0  0  0  0  0  0
   21.0274  -10.0575  -19.5022 C   0  0  1  0  0  0  0  0  0  0  0  0
   20.5123   -8.9293  -20.3242 C   0  0  0  0  0  0  0  0  0  0  0  0
   19.0968   -8.9900  -20.7477 C   0  0  0  0  0  0  0  0  0  0  0  0
   18.6535   -8.0141  -21.7417 C   0  0  0  0  0  0  0  0  0  0  0  0
   19.5747   -7.4282  -22.4091 O   0  0  0  0  0  0  0  0  0  0  0  0
   21.4049   -9.6021  -18.1393 C   0  0  0  0  0  0  0  0  0  0  0  0
   20.4521   -9.5270  -17.2801 O   0  0  0  0  0  0  0  0  0  0  0  0
   17.3715   -7.6506  -22.0499 O   0  0  0  0  0  0  0  0  0  0  0  0
   24.3448   -8.8085  -16.0110 C   0  0  0  0  0  0  0  0  0  0  0  0
   22.8790   -8.7362  -16.3546 C   0  0  2  0  0  0  0  0  0  0  0  0
   22.6877   -9.2473  -17.7019 N   0  0  0  0  0  0  0  0  0  0  0  0
   22.3348   -7.3585  -16.2161 C   0  0  0  0  0  0  0  0  0  0  0  0
   22.3401   -6.6222  -17.2192 O   0  0  0  0  0  0  0  0  0  0  0  0
   17.6585   -5.9721  -15.7616 C   0  0  0  0  0  0  0  0  0  0  0  0
   19.1258   -5.7858  -15.9154 C   0  0  0  0  0  0  0  0  0  0  0  0
   19.8988   -5.4348  -14.7050 C   0  0  2  0  0  0  0  0  0  0  0  0
   19.3358   -4.2676  -13.9214 C   0  0  0  0  0  0  0  0  0  0  0  0
   21.3838   -5.4658  -14.8060 C   0  0  2  0  0  0  0  0  0  0  0  0
   21.8156   -6.8487  -15.0080 N   0  0  0  0  0  0  0  0  0  0  0  0
   22.1507   -4.8024  -13.7630 C   0  0  0  0  0  0  0  0  0  0  0  0
   22.3816   -3.5381  -13.8055 O   0  0  0  0  0  0  0  0  0  0  0  0
   22.6932   -5.4220  -12.6534 O   0  0  0  0  0  0  0  0  0  0  0  0
  2  3  1  0
  2  1  1  1
  4  5  1  0
  4  3  1  0
  5  6  2  0
  7  2  1  0
  8  7  2  0
  9  5  1  0
 11 10  1  6
 11 12  1  0
 12  7  1  0
 13 11  1  0
 13 20  1  0
 14 13  2  0
 16 15  1  0
 17 18  1  6
 17 16  1  0
 19 20  1  1
 19 17  1  0
 21 23  1  0
 21 19  1  0
 22 21  2  0
M  END
$$$$
