EAI.pdb
     RDKit          3D

 23 22  0  0  1  0  0  0  0  0999 V2000
   21.4720  -15.4893  -16.7927 N   0  0  0  0  0  0  0  0  0  0  0  0
   21.1137  -14.4680  -17.7338 C   0  0  1  0  0  0  0  0  0  0  0  0
   19.6348  -14.3670  -17.8631 C   0  0  0  0  0  0  0  0  0  0  0  0
   18.9180  -15.5485  -18.3893 C   0  0  0  0  0  0  0  0  0  0  0  0
   18.3301  -16.4639  -17.4128 C   0  0  0  0  0  0  0  0  0  0  0  0
   17.7013  -15.9236  -16.4382 O   0  0  0  0  0  0  0  0  0  0  0  0
   21.7074  -13.1712  -17.3173 C   0  0  0  0  0  0  0  0  0  0  0  0
   21.4177  -12.7671  -16.1323 O   0  0  0  0  0  0  0  0  0  0  0  0
   18.3663  -17.8311  -17.4137 O   0  0  0  0  0  0  0  0  0  0  0  0
   24.1939  -10.6248  -18.3991 C   0  0  0  0  0  0  0  0  0  0  0  0
   23.0843  -11.1281  -17.5120 C   0  0  2  0  0  0  0  0  0  0  0  0
   22.5446  -12.3505  -18.0844 N   0  0  0  0  0  0  0  0  0  0  0  0
   22.0190  -10.1096  -17.3086 C   0  0  0  0  0  0  0  0  0  0  0  0
   21.1649   -9.9678  -18.2023 O   0  0  0  0  0  0  0  0  0  0  0  0
   18.2937  -10.4714  -14.1032 C   0  0  0  0  0  0  0  0  0  0  0  0
   19.2203   -9.9872  -15.1606 C   0  0  0  0  0  0  0  0  0  0  0  0
   19.9681   -8.7402  -14.8927 C   0  0  2  0  0  0  0  0  0  0  0  0
   19.1481   -7.6494  -14.2362 C   0  0  0  0  0  0  0  0  0  0  0  0
   20.9159   -8.2698  -15.9399 C   0  0  2  0  0  0  0  0  0  0  0  0
   21.9310   -9.3004  -16.1569 N   0  0  0  0  0  0  0  0  0  0  0  0
   21.5053   -6.9494  -15.7806 C   0  0  0  0  0  0  0  0  0  0  0  0
   22.6289   -6.7881  -15.1764 O   0  0  0  0  0  0  0  0  0  0  0  0
   20.9556   -5.7682  -16.2413 O   0  0  0  0  0  0  0  0  0  0  0  0
  2  3  1  0
  2  1  1  1
  4  5  1  0
  4  3  1  0
  5  6  2  0
  7  2  1  0
  8  7  2  0
  9  5  1  0
 11 10  1  6
 11 12  1  0
 12  7  1  0
 13 11  1  0
 13 20  1  0
 14 13  2  0
 16 15  1  0
 17 18  1  6
 17 16  1  0
 19 20  1  1
 19 17  1  0
 21 23  1  0
 21 19  1  0
 22 21  2  0
M  END
$$$$
