EAI.pdb
     RDKit          3D

 23 22  0  0  1  0  0  0  0  0999 V2000
   15.8094  -12.1441  -12.6014 N   0  0  0  0  0  0  0  0  0  0  0  0
   15.3926  -10.7961  -12.8595 C   0  0  1  0  0  0  0  0  0  0  0  0
   13.9104  -10.7141  -12.9613 C   0  0  0  0  0  0  0  0  0  0  0  0
   13.3402  -10.3519  -14.2767 C   0  0  0  0  0  0  0  0  0  0  0  0
   13.3320  -11.3860  -15.3099 C   0  0  0  0  0  0  0  0  0  0  0  0
   12.7489  -12.4839  -15.0067 O   0  0  0  0  0  0  0  0  0  0  0  0
   15.9095   -9.8984  -11.7945 C   0  0  0  0  0  0  0  0  0  0  0  0
   15.3135   -9.9618  -10.6577 O   0  0  0  0  0  0  0  0  0  0  0  0
   13.8696  -11.3241  -16.5660 O   0  0  0  0  0  0  0  0  0  0  0  0
   18.7396   -7.6764  -10.9359 C   0  0  0  0  0  0  0  0  0  0  0  0
   17.3078   -8.1245  -10.7914 C   0  0  2  0  0  0  0  0  0  0  0  0
   16.9741   -8.9946  -11.9071 N   0  0  0  0  0  0  0  0  0  0  0  0
   16.3647   -6.9776  -10.6988 C   0  0  0  0  0  0  0  0  0  0  0  0
   15.7566   -6.6337  -11.7285 O   0  0  0  0  0  0  0  0  0  0  0  0
   12.6268   -5.7531   -6.6769 C   0  0  0  0  0  0  0  0  0  0  0  0
   13.9546   -5.5315   -7.3087 C   0  0  0  0  0  0  0  0  0  0  0  0
   13.9983   -5.4227   -8.7826 C   0  0  2  0  0  0  0  0  0  0  0  0
   13.2171   -6.4960   -9.5112 C   0  0  0  0  0  0  0  0  0  0  0  0
   15.3012   -5.0614   -9.4056 C   0  0  2  0  0  0  0  0  0  0  0  0
   16.1277   -6.2641   -9.5056 N   0  0  0  0  0  0  0  0  0  0  0  0
   16.0370   -3.9399   -8.8425 C   0  0  0  0  0  0  0  0  0  0  0  0
   17.0902   -4.1234   -8.1279 O   0  0  0  0  0  0  0  0  0  0  0  0
   15.7092   -2.6073   -9.0041 O   0  0  0  0  0  0  0  0  0  0  0  0
  2  3  1  0
  2  1  1  1
  4  5  1  0
  4  3  1  0
  5  6  2  0
  7  2  1  0
  8  7  2  0
  9  5  1  0
 11 10  1  6
 11 12  1  0
 12  7  1  0
 13 11  1  0
 13 20  1  0
 14 13  2  0
 16 15  1  0
 17 18  1  6
 17 16  1  0
 19 20  1  1
 19 17  1  0
 21 23  1  0
 21 19  1  0
 22 21  2  0
M  END
$$$$
