QLL.pdb
     RDKit          3D

 26 25  0  0  1  0  0  0  0  0999 V2000
   12.3334  -17.5720   18.4573 N   0  0  0  0  0  0  0  0  0  0  0  0
   11.1039  -18.1357   18.0079 C   0  0  0  0  0  0  0  0  0  0  0  0
   11.1034  -18.7768   16.9298 O   0  0  0  0  0  0  0  0  0  0  0  0
    9.8454  -17.9934   18.7580 C   0  0  0  0  0  0  0  0  0  0  0  0
   10.0592  -17.1563   19.9728 C   0  0  0  0  0  0  0  0  0  0  0  0
    9.2886  -17.6395   21.1727 C   0  0  2  0  0  0  0  0  0  0  0  0
    7.9303  -17.9281   20.8092 N   0  0  0  0  0  0  0  0  0  0  0  0
    9.4024  -16.6700   22.2824 C   0  0  0  0  0  0  0  0  0  0  0  0
   10.5554  -16.2609   22.5719 O   0  0  0  0  0  0  0  0  0  0  0  0
    7.7579  -12.1548   24.8098 C   0  0  0  0  0  0  0  0  0  0  0  0
    7.1402  -13.4251   25.3649 C   0  0  1  0  0  0  0  0  0  0  0  0
    5.9075  -13.1441   26.1486 C   0  0  0  0  0  0  0  0  0  0  0  0
    7.0486  -14.4971   24.3410 C   0  0  0  0  0  0  0  0  0  0  0  0
    8.3417  -15.2231   24.0505 C   0  0  2  0  0  0  0  0  0  0  0  0
    8.2706  -16.1975   23.0150 N   0  0  0  0  0  0  0  0  0  0  0  0
    8.9126  -15.7317   25.3091 C   0  0  0  0  0  0  0  0  0  0  0  0
    8.1840  -16.2671   26.2092 O   0  0  0  0  0  0  0  0  0  0  0  0
    9.3948  -13.5595   29.3875 C   0  0  0  0  0  0  0  0  0  0  0  0
    9.9401  -13.9479   27.9916 C   0  0  1  0  0  0  0  0  0  0  0  0
   11.2302  -13.1770   27.8337 C   0  0  0  0  0  0  0  0  0  0  0  0
   10.2142  -15.3993   28.0580 C   0  0  0  0  0  0  0  0  0  0  0  0
   10.8073  -16.0657   26.8721 C   0  0  2  0  0  0  0  0  0  0  0  0
   10.3002  -15.6543   25.5868 N   0  0  0  0  0  0  0  0  0  0  0  0
   10.6461  -17.5269   27.0159 C   0  0  0  0  0  0  0  0  0  0  0  0
    9.9415  -18.2471   26.0722 O   0  0  0  0  0  0  0  0  0  0  0  0
   11.1503  -18.1079   27.9952 O   0  0  0  0  0  0  0  0  0  0  0  0
  2  1  1  0
  3  2  2  0
  4  2  1  0
  5  4  1  0
  5  6  1  0
  6  8  1  0
  6  7  1  6
  8  9  2  0
 11 10  1  6
 12 11  1  0
 13 11  1  0
 14 13  1  1
 15  8  1  0
 15 14  1  0
 16 14  1  0
 16 17  2  0
 19 18  1  1
 19 21  1  0
 19 20  1  0
 22 21  1  1
 22 23  1  0
 23 16  1  0
 24 25  1  0
 24 22  1  0
 26 24  2  0
M  END
$$$$
