QLL.pdb
     RDKit          3D

 26 25  0  0  1  0  0  0  0  0999 V2000
   10.0974  -19.1536   16.5164 N   0  0  0  0  0  0  0  0  0  0  0  0
   10.2106  -20.2968   17.3600 C   0  0  0  0  0  0  0  0  0  0  0  0
   10.4315  -21.4098   16.8254 O   0  0  0  0  0  0  0  0  0  0  0  0
   10.0787  -20.2181   18.8238 C   0  0  0  0  0  0  0  0  0  0  0  0
    9.7488  -18.8250   19.2393 C   0  0  0  0  0  0  0  0  0  0  0  0
    9.6332  -18.6597   20.7315 C   0  0  2  0  0  0  0  0  0  0  0  0
    8.3819  -19.1880   21.1957 N   0  0  0  0  0  0  0  0  0  0  0  0
    9.8473  -17.2475   21.1111 C   0  0  0  0  0  0  0  0  0  0  0  0
   11.0089  -16.7859   20.9761 O   0  0  0  0  0  0  0  0  0  0  0  0
    6.3727  -13.2921   19.7820 C   0  0  0  0  0  0  0  0  0  0  0  0
    7.7126  -13.9112   20.1351 C   0  0  1  0  0  0  0  0  0  0  0  0
    8.8370  -13.2319   19.4372 C   0  0  0  0  0  0  0  0  0  0  0  0
    7.8653  -14.1197   21.5977 C   0  0  0  0  0  0  0  0  0  0  0  0
    8.9793  -15.0572   22.0023 C   0  0  2  0  0  0  0  0  0  0  0  0
    8.8005  -16.4150   21.6134 N   0  0  0  0  0  0  0  0  0  0  0  0
    9.2728  -14.8814   23.4347 C   0  0  0  0  0  0  0  0  0  0  0  0
   10.2143  -14.1215   23.8392 O   0  0  0  0  0  0  0  0  0  0  0  0
    6.0181  -12.7720   26.4063 C   0  0  0  0  0  0  0  0  0  0  0  0
    7.4913  -13.0747   26.0391 C   0  0  1  0  0  0  0  0  0  0  0  0
    8.3145  -12.0733   26.8157 C   0  0  0  0  0  0  0  0  0  0  0  0
    7.7531  -14.4448   26.5296 C   0  0  0  0  0  0  0  0  0  0  0  0
    8.7723  -15.2671   25.8316 C   0  0  2  0  0  0  0  0  0  0  0  0
    8.5252  -15.5458   24.4389 N   0  0  0  0  0  0  0  0  0  0  0  0
    8.9400  -16.5399   26.5621 C   0  0  0  0  0  0  0  0  0  0  0  0
    8.8349  -17.7450   25.8969 O   0  0  0  0  0  0  0  0  0  0  0  0
    9.1773  -16.5208   27.7845 O   0  0  0  0  0  0  0  0  0  0  0  0
  2  1  1  0
  3  2  2  0
  4  2  1  0
  5  4  1  0
  5  6  1  0
  6  8  1  0
  6  7  1  6
  8  9  2  0
 11 10  1  1
 12 11  1  0
 13 11  1  0
 14 13  1  1
 15  8  1  0
 15 14  1  0
 16 14  1  0
 16 17  2  0
 19 18  1  1
 19 21  1  0
 19 20  1  0
 22 21  1  1
 22 23  1  0
 23 16  1  0
 24 25  1  0
 24 22  1  0
 26 24  2  0
M  END
$$$$
