QLL.pdb
     RDKit          3D

 26 25  0  0  1  0  0  0  0  0999 V2000
   13.5266  -18.8531   20.2407 N   0  0  0  0  0  0  0  0  0  0  0  0
   12.6288  -18.9874   19.1421 C   0  0  0  0  0  0  0  0  0  0  0  0
   12.9573  -19.7418   18.1954 O   0  0  0  0  0  0  0  0  0  0  0  0
   11.3406  -18.2780   19.0796 C   0  0  0  0  0  0  0  0  0  0  0  0
   11.1821  -17.3882   20.2650 C   0  0  0  0  0  0  0  0  0  0  0  0
    9.7438  -17.1182   20.6196 C   0  0  2  0  0  0  0  0  0  0  0  0
    9.0154  -16.6951   19.4574 N   0  0  0  0  0  0  0  0  0  0  0  0
    9.6612  -16.1594   21.7412 C   0  0  0  0  0  0  0  0  0  0  0  0
   10.6165  -15.3538   21.8800 O   0  0  0  0  0  0  0  0  0  0  0  0
    7.5274  -12.3145   24.6089 C   0  0  0  0  0  0  0  0  0  0  0  0
    6.9449  -13.6464   25.0450 C   0  0  1  0  0  0  0  0  0  0  0  0
    5.6137  -13.4838   25.6885 C   0  0  0  0  0  0  0  0  0  0  0  0
    7.0493  -14.6784   23.9820 C   0  0  0  0  0  0  0  0  0  0  0  0
    8.4432  -15.2036   23.7281 C   0  0  2  0  0  0  0  0  0  0  0  0
    8.5573  -16.1231   22.6473 N   0  0  0  0  0  0  0  0  0  0  0  0
    9.0206  -15.6940   24.9910 C   0  0  0  0  0  0  0  0  0  0  0  0
    9.1615  -16.9399   25.2262 O   0  0  0  0  0  0  0  0  0  0  0  0
   12.0298  -14.8699   29.6215 C   0  0  0  0  0  0  0  0  0  0  0  0
   10.4928  -15.0394   29.6948 C   0  0  1  0  0  0  0  0  0  0  0  0
   10.0468  -14.1784   30.8539 C   0  0  0  0  0  0  0  0  0  0  0  0
    9.9688  -14.4985   28.4223 C   0  0  0  0  0  0  0  0  0  0  0  0
   10.0935  -15.3227   27.1946 C   0  0  2  0  0  0  0  0  0  0  0  0
    9.4507  -14.8088   26.0109 N   0  0  0  0  0  0  0  0  0  0  0  0
    9.5832  -16.6797   27.4774 C   0  0  0  0  0  0  0  0  0  0  0  0
    8.2425  -16.9677   27.3189 O   0  0  0  0  0  0  0  0  0  0  0  0
   10.3704  -17.5653   27.8606 O   0  0  0  0  0  0  0  0  0  0  0  0
  2  1  1  0
  3  2  2  0
  4  2  1  0
  5  4  1  0
  5  6  1  0
  6  8  1  0
  6  7  1  6
  8  9  2  0
 11 10  1  6
 12 11  1  0
 13 11  1  0
 14 13  1  1
 15  8  1  0
 15 14  1  0
 16 14  1  0
 16 17  2  0
 19 18  1  6
 19 21  1  0
 19 20  1  0
 22 21  1  1
 22 23  1  0
 23 16  1  0
 24 25  1  0
 24 22  1  0
 26 24  2  0
M  END
$$$$
