QLL.pdb
     RDKit          3D

 26 25  0  0  1  0  0  0  0  0999 V2000
   10.7766  -17.2954   14.3555 N   0  0  0  0  0  0  0  0  0  0  0  0
   11.4835  -16.6071   15.3840 C   0  0  0  0  0  0  0  0  0  0  0  0
   12.1640  -15.6023   15.0668 O   0  0  0  0  0  0  0  0  0  0  0  0
   11.4435  -17.0301   16.7932 C   0  0  0  0  0  0  0  0  0  0  0  0
   10.1041  -17.5930   17.1265 C   0  0  0  0  0  0  0  0  0  0  0  0
   10.0024  -18.0902   18.5441 C   0  0  2  0  0  0  0  0  0  0  0  0
    8.7775  -18.8148   18.7311 N   0  0  0  0  0  0  0  0  0  0  0  0
   10.1699  -16.9715   19.4953 C   0  0  0  0  0  0  0  0  0  0  0  0
   11.3434  -16.6830   19.8421 O   0  0  0  0  0  0  0  0  0  0  0  0
    6.4617  -12.8107   19.7417 C   0  0  0  0  0  0  0  0  0  0  0  0
    7.8018  -13.5231   19.7485 C   0  0  1  0  0  0  0  0  0  0  0  0
    8.8896  -12.6605   19.2141 C   0  0  0  0  0  0  0  0  0  0  0  0
    8.0669  -14.2053   21.0409 C   0  0  0  0  0  0  0  0  0  0  0  0
    9.1851  -15.2214   21.0159 C   0  0  2  0  0  0  0  0  0  0  0  0
    9.0665  -16.2293   20.0174 N   0  0  0  0  0  0  0  0  0  0  0  0
    9.3984  -15.7501   22.3737 C   0  0  0  0  0  0  0  0  0  0  0  0
    8.4233  -16.0091   23.1546 O   0  0  0  0  0  0  0  0  0  0  0  0
   11.0627  -20.6771   24.2482 C   0  0  0  0  0  0  0  0  0  0  0  0
   11.0931  -19.2596   24.8699 C   0  0  1  0  0  0  0  0  0  0  0  0
   12.4632  -19.1214   25.4923 C   0  0  0  0  0  0  0  0  0  0  0  0
   10.9472  -18.3216   23.7364 C   0  0  0  0  0  0  0  0  0  0  0  0
   10.8748  -16.8671   24.0221 C   0  0  2  0  0  0  0  0  0  0  0  0
   10.6967  -15.9997   22.8844 N   0  0  0  0  0  0  0  0  0  0  0  0
   12.0907  -16.4645   24.7577 C   0  0  0  0  0  0  0  0  0  0  0  0
   12.2242  -16.7605   26.0994 O   0  0  0  0  0  0  0  0  0  0  0  0
   12.9975  -15.8550   24.1601 O   0  0  0  0  0  0  0  0  0  0  0  0
  2  1  1  0
  3  2  2  0
  4  2  1  0
  5  4  1  0
  5  6  1  0
  6  8  1  0
  6  7  1  6
  8  9  2  0
 11 10  1  1
 12 11  1  0
 13 11  1  0
 14 13  1  1
 15  8  1  0
 15 14  1  0
 16 14  1  0
 16 17  2  0
 19 18  1  6
 19 21  1  0
 19 20  1  0
 22 21  1  6
 22 23  1  0
 23 16  1  0
 24 25  1  0
 24 22  1  0
 26 24  2  0
M  END
$$$$
