QLL.pdb
     RDKit          3D

 26 25  0  0  1  0  0  0  0  0999 V2000
   11.2639  -17.7595   16.4855 N   0  0  0  0  0  0  0  0  0  0  0  0
   10.3111  -18.7801   16.7717 C   0  0  0  0  0  0  0  0  0  0  0  0
    9.5661  -19.1744   15.8427 O   0  0  0  0  0  0  0  0  0  0  0  0
   10.1716  -19.3826   18.1073 C   0  0  0  0  0  0  0  0  0  0  0  0
   10.8824  -18.5563   19.1243 C   0  0  0  0  0  0  0  0  0  0  0  0
   10.1423  -18.4534   20.4315 C   0  0  2  0  0  0  0  0  0  0  0  0
    8.7887  -18.9043   20.2744 N   0  0  0  0  0  0  0  0  0  0  0  0
   10.2415  -17.0817   20.9727 C   0  0  0  0  0  0  0  0  0  0  0  0
   11.3792  -16.6877   21.3347 O   0  0  0  0  0  0  0  0  0  0  0  0
    6.5120  -12.8244   19.7815 C   0  0  0  0  0  0  0  0  0  0  0  0
    7.8217  -13.5573   20.0076 C   0  0  1  0  0  0  0  0  0  0  0  0
    8.9784  -12.8088   19.4468 C   0  0  0  0  0  0  0  0  0  0  0  0
    7.9572  -14.0441   21.4042 C   0  0  0  0  0  0  0  0  0  0  0  0
    9.1640  -14.9140   21.6693 C   0  0  2  0  0  0  0  0  0  0  0  0
    9.1124  -16.2147   21.0928 N   0  0  0  0  0  0  0  0  0  0  0  0
    9.4626  -14.9130   23.1114 C   0  0  0  0  0  0  0  0  0  0  0  0
   10.3680  -14.1648   23.6095 O   0  0  0  0  0  0  0  0  0  0  0  0
    8.0523  -12.7094   27.1197 C   0  0  0  0  0  0  0  0  0  0  0  0
    6.9007  -13.6150   26.6193 C   0  0  1  0  0  0  0  0  0  0  0  0
    5.7195  -12.6934   26.4217 C   0  0  0  0  0  0  0  0  0  0  0  0
    7.3524  -14.1563   25.3195 C   0  0  0  0  0  0  0  0  0  0  0  0
    8.3723  -15.2343   25.3142 C   0  0  2  0  0  0  0  0  0  0  0  0
    8.7603  -15.7416   24.0218 N   0  0  0  0  0  0  0  0  0  0  0  0
    7.8904  -16.3508   26.1527 C   0  0  0  0  0  0  0  0  0  0  0  0
    7.6399  -17.5869   25.5914 O   0  0  0  0  0  0  0  0  0  0  0  0
    7.7105  -16.1713   27.3718 O   0  0  0  0  0  0  0  0  0  0  0  0
  2  1  1  0
  3  2  2  0
  4  2  1  0
  5  4  1  0
  5  6  1  0
  6  8  1  0
  6  7  1  6
  8  9  2  0
 11 10  1  1
 12 11  1  0
 13 11  1  0
 14 13  1  1
 15  8  1  0
 15 14  1  0
 16 14  1  0
 16 17  2  0
 19 18  1  6
 19 21  1  0
 19 20  1  0
 22 21  1  6
 22 23  1  0
 23 16  1  0
 24 25  1  0
 24 22  1  0
 26 24  2  0
M  END
$$$$
