QLL.pdb
     RDKit          3D

 26 25  0  0  1  0  0  0  0  0999 V2000
    8.0409  -16.8869   17.4098 N   0  0  0  0  0  0  0  0  0  0  0  0
    7.8473  -17.9251   18.3669 C   0  0  0  0  0  0  0  0  0  0  0  0
    6.6837  -18.3578   18.5464 O   0  0  0  0  0  0  0  0  0  0  0  0
    8.9550  -18.5025   19.1453 C   0  0  0  0  0  0  0  0  0  0  0  0
    9.5278  -17.4801   20.0666 C   0  0  0  0  0  0  0  0  0  0  0  0
    9.2192  -17.7447   21.5164 C   0  0  2  0  0  0  0  0  0  0  0  0
    7.9350  -18.3727   21.6458 N   0  0  0  0  0  0  0  0  0  0  0  0
    9.3425  -16.5005   22.3045 C   0  0  0  0  0  0  0  0  0  0  0  0
   10.4153  -15.8542   22.1939 O   0  0  0  0  0  0  0  0  0  0  0  0
    7.5879  -11.8577   24.6238 C   0  0  0  0  0  0  0  0  0  0  0  0
    7.2239  -13.1233   25.3783 C   0  0  1  0  0  0  0  0  0  0  0  0
    6.1030  -12.8971   26.3297 C   0  0  0  0  0  0  0  0  0  0  0  0
    7.1062  -14.2982   24.4775 C   0  0  0  0  0  0  0  0  0  0  0  0
    8.4164  -14.8613   23.9779 C   0  0  2  0  0  0  0  0  0  0  0  0
    8.3059  -16.0245   23.1646 N   0  0  0  0  0  0  0  0  0  0  0  0
    9.3491  -15.0108   25.1078 C   0  0  0  0  0  0  0  0  0  0  0  0
    9.9550  -14.0096   25.6158 O   0  0  0  0  0  0  0  0  0  0  0  0
    9.9398  -13.9204   29.4922 C   0  0  0  0  0  0  0  0  0  0  0  0
   10.2785  -14.2748   28.0238 C   0  0  1  0  0  0  0  0  0  0  0  0
   11.6116  -13.6187   27.7477 C   0  0  0  0  0  0  0  0  0  0  0  0
   10.4137  -15.7467   27.9877 C   0  0  0  0  0  0  0  0  0  0  0  0
   10.6612  -16.4060   26.6814 C   0  0  2  0  0  0  0  0  0  0  0  0
    9.6222  -16.2734   25.6908 N   0  0  0  0  0  0  0  0  0  0  0  0
   10.9339  -17.8389   26.9145 C   0  0  0  0  0  0  0  0  0  0  0  0
   11.9568  -18.2261   27.7567 O   0  0  0  0  0  0  0  0  0  0  0  0
   10.2346  -18.6984   26.3461 O   0  0  0  0  0  0  0  0  0  0  0  0
  2  1  1  0
  3  2  2  0
  4  2  1  0
  5  4  1  0
  5  6  1  0
  6  8  1  0
  6  7  1  6
  8  9  2  0
 11 10  1  6
 12 11  1  0
 13 11  1  0
 14 13  1  1
 15  8  1  0
 15 14  1  0
 16 14  1  0
 16 17  2  0
 19 18  1  1
 19 21  1  0
 19 20  1  0
 22 21  1  1
 22 23  1  0
 23 16  1  0
 24 25  1  0
 24 22  1  0
 26 24  2  0
M  END
$$$$
