QLL.pdb
     RDKit          3D

 26 25  0  0  1  0  0  0  0  0999 V2000
    7.8669  -21.7693   22.8927 N   0  0  0  0  0  0  0  0  0  0  0  0
    9.0982  -21.6778   22.1807 C   0  0  0  0  0  0  0  0  0  0  0  0
    9.5627  -22.7207   21.6613 O   0  0  0  0  0  0  0  0  0  0  0  0
    9.8375  -20.4135   22.0346 C   0  0  0  0  0  0  0  0  0  0  0  0
    9.1648  -19.3289   22.8049 C   0  0  0  0  0  0  0  0  0  0  0  0
    8.7792  -18.1463   21.9565 C   0  0  2  0  0  0  0  0  0  0  0  0
    9.4902  -18.1746   20.7100 N   0  0  0  0  0  0  0  0  0  0  0  0
    8.9702  -16.8886   22.7090 C   0  0  0  0  0  0  0  0  0  0  0  0
   10.0753  -16.3034   22.5788 O   0  0  0  0  0  0  0  0  0  0  0  0
    7.4555  -12.1775   24.7768 C   0  0  0  0  0  0  0  0  0  0  0  0
    7.0251  -13.3182   25.6808 C   0  0  1  0  0  0  0  0  0  0  0  0
    5.9049  -12.9222   26.5758 C   0  0  0  0  0  0  0  0  0  0  0  0
    6.8637  -14.5929   24.9358 C   0  0  0  0  0  0  0  0  0  0  0  0
    8.1281  -15.1426   24.3174 C   0  0  2  0  0  0  0  0  0  0  0  0
    7.9625  -16.3344   23.5565 N   0  0  0  0  0  0  0  0  0  0  0  0
    9.1782  -15.2334   25.3459 C   0  0  0  0  0  0  0  0  0  0  0  0
    9.7159  -14.1924   25.8508 O   0  0  0  0  0  0  0  0  0  0  0  0
    9.0406  -14.3828   29.6652 C   0  0  0  0  0  0  0  0  0  0  0  0
    9.6381  -14.5787   28.2506 C   0  0  1  0  0  0  0  0  0  0  0  0
   10.7941  -13.6093   28.1632 C   0  0  0  0  0  0  0  0  0  0  0  0
   10.1325  -15.9717   28.2136 C   0  0  0  0  0  0  0  0  0  0  0  0
   10.5915  -16.5290   26.9171 C   0  0  2  0  0  0  0  0  0  0  0  0
    9.6464  -16.4807   25.8295 N   0  0  0  0  0  0  0  0  0  0  0  0
   11.0257  -17.9254   27.1252 C   0  0  0  0  0  0  0  0  0  0  0  0
   12.0462  -18.2141   28.0088 O   0  0  0  0  0  0  0  0  0  0  0  0
   10.4651  -18.8437   26.4980 O   0  0  0  0  0  0  0  0  0  0  0  0
  2  1  1  0
  3  2  2  0
  4  2  1  0
  5  4  1  0
  5  6  1  0
  6  8  1  0
  6  7  1  6
  8  9  2  0
 11 10  1  6
 12 11  1  0
 13 11  1  0
 14 13  1  1
 15  8  1  0
 15 14  1  0
 16 14  1  0
 16 17  2  0
 19 18  1  1
 19 21  1  0
 19 20  1  0
 22 21  1  1
 22 23  1  0
 23 16  1  0
 24 25  1  0
 24 22  1  0
 26 24  2  0
M  END
$$$$
