QLL.pdb
     RDKit          3D

 26 25  0  0  1  0  0  0  0  0999 V2000
    7.1763  -19.3186   18.9674 N   0  0  0  0  0  0  0  0  0  0  0  0
    8.3807  -18.9110   18.3235 C   0  0  0  0  0  0  0  0  0  0  0  0
    8.8154  -19.6118   17.3784 O   0  0  0  0  0  0  0  0  0  0  0  0
    9.1261  -17.7069   18.7250 C   0  0  0  0  0  0  0  0  0  0  0  0
    8.3950  -16.9814   19.8027 C   0  0  0  0  0  0  0  0  0  0  0  0
    8.7916  -17.4160   21.1887 C   0  0  2  0  0  0  0  0  0  0  0  0
    7.8320  -18.3460   21.7127 N   0  0  0  0  0  0  0  0  0  0  0  0
    8.9984  -16.2388   22.0580 C   0  0  0  0  0  0  0  0  0  0  0  0
    9.9881  -15.5054   21.8061 O   0  0  0  0  0  0  0  0  0  0  0  0
    7.7074  -11.9328   24.7543 C   0  0  0  0  0  0  0  0  0  0  0  0
    7.2819  -13.1276   25.5879 C   0  0  1  0  0  0  0  0  0  0  0  0
    6.1788  -12.7838   26.5248 C   0  0  0  0  0  0  0  0  0  0  0  0
    7.0990  -14.3493   24.7634 C   0  0  0  0  0  0  0  0  0  0  0  0
    8.3340  -14.8258   24.0345 C   0  0  2  0  0  0  0  0  0  0  0  0
    8.1297  -15.9194   23.1462 N   0  0  0  0  0  0  0  0  0  0  0  0
    9.4231  -15.0398   25.0023 C   0  0  0  0  0  0  0  0  0  0  0  0
   10.5171  -14.3867   24.9379 O   0  0  0  0  0  0  0  0  0  0  0  0
   10.0270  -13.6259   27.7609 C   0  0  0  0  0  0  0  0  0  0  0  0
   10.6201  -14.5918   28.8153 C   0  0  1  0  0  0  0  0  0  0  0  0
    9.8824  -14.2898   30.0992 C   0  0  0  0  0  0  0  0  0  0  0  0
   10.2904  -15.9533   28.3420 C   0  0  0  0  0  0  0  0  0  0  0  0
   10.4490  -16.2621   26.8992 C   0  0  2  0  0  0  0  0  0  0  0  0
    9.3138  -15.9812   26.0562 N   0  0  0  0  0  0  0  0  0  0  0  0
   10.8252  -17.6832   26.7543 C   0  0  0  0  0  0  0  0  0  0  0  0
   11.9646  -18.1686   27.3641 O   0  0  0  0  0  0  0  0  0  0  0  0
   10.1077  -18.4434   26.0775 O   0  0  0  0  0  0  0  0  0  0  0  0
  2  1  1  0
  3  2  2  0
  4  2  1  0
  5  4  1  0
  5  6  1  0
  6  8  1  0
  6  7  1  1
  8  9  2  0
 11 10  1  6
 12 11  1  0
 13 11  1  0
 14 13  1  1
 15  8  1  0
 15 14  1  0
 16 14  1  0
 16 17  2  0
 19 18  1  6
 19 21  1  0
 19 20  1  0
 22 21  1  1
 22 23  1  0
 23 16  1  0
 24 25  1  0
 24 22  1  0
 26 24  2  0
M  END
$$$$
