QLL.pdb
     RDKit          3D

 26 25  0  0  1  0  0  0  0  0999 V2000
   11.0944  -18.9691   16.6479 N   0  0  0  0  0  0  0  0  0  0  0  0
   10.1298  -19.7819   17.3114 C   0  0  0  0  0  0  0  0  0  0  0  0
    9.4930  -20.6222   16.6320 O   0  0  0  0  0  0  0  0  0  0  0  0
    9.8568  -19.6709   18.7535 C   0  0  0  0  0  0  0  0  0  0  0  0
   10.6405  -18.5483   19.3434 C   0  0  0  0  0  0  0  0  0  0  0  0
   10.4145  -18.3761   20.8220 C   0  0  2  0  0  0  0  0  0  0  0  0
    9.2277  -19.0733   21.2290 N   0  0  0  0  0  0  0  0  0  0  0  0
   10.3994  -16.9415   21.1769 C   0  0  0  0  0  0  0  0  0  0  0  0
   11.5018  -16.3371   21.1734 O   0  0  0  0  0  0  0  0  0  0  0  0
    6.2905  -13.3802   19.7484 C   0  0  0  0  0  0  0  0  0  0  0  0
    7.6773  -13.9147   20.0555 C   0  0  1  0  0  0  0  0  0  0  0  0
    8.7358  -13.1458   19.3475 C   0  0  0  0  0  0  0  0  0  0  0  0
    7.8801  -14.1440   21.5089 C   0  0  0  0  0  0  0  0  0  0  0  0
    9.1564  -14.8651   21.8757 C   0  0  2  0  0  0  0  0  0  0  0  0
    9.2007  -16.2414   21.5145 N   0  0  0  0  0  0  0  0  0  0  0  0
    9.4748  -14.6100   23.2908 C   0  0  0  0  0  0  0  0  0  0  0  0
   10.0704  -13.5453   23.6640 O   0  0  0  0  0  0  0  0  0  0  0  0
    8.4063  -12.5041   27.3467 C   0  0  0  0  0  0  0  0  0  0  0  0
    7.3190  -13.5687   27.0624 C   0  0  1  0  0  0  0  0  0  0  0  0
    6.0164  -12.8059   26.9910 C   0  0  0  0  0  0  0  0  0  0  0  0
    7.6528  -14.1394   25.7398 C   0  0  0  0  0  0  0  0  0  0  0  0
    8.8101  -15.0625   25.6355 C   0  0  2  0  0  0  0  0  0  0  0  0
    9.1363  -15.5324   24.3122 N   0  0  0  0  0  0  0  0  0  0  0  0
    8.5772  -16.2211   26.5217 C   0  0  0  0  0  0  0  0  0  0  0  0
    9.0072  -16.1935   27.8332 O   0  0  0  0  0  0  0  0  0  0  0  0
    7.9895  -17.2257   26.0788 O   0  0  0  0  0  0  0  0  0  0  0  0
  2  1  1  0
  3  2  2  0
  4  2  1  0
  5  4  1  0
  5  6  1  0
  6  8  1  0
  6  7  1  6
  8  9  2  0
 11 10  1  1
 12 11  1  0
 13 11  1  0
 14 13  1  1
 15  8  1  0
 15 14  1  0
 16 14  1  0
 16 17  2  0
 19 18  1  6
 19 21  1  0
 19 20  1  0
 22 21  1  6
 22 23  1  0
 23 16  1  0
 24 25  1  0
 24 22  1  0
 26 24  2  0
M  END
$$$$
