QLL.pdb
     RDKit          3D

 26 25  0  0  1  0  0  0  0  0999 V2000
    5.3791  -19.7572   25.1500 N   0  0  0  0  0  0  0  0  0  0  0  0
    6.7881  -19.9156   25.0059 C   0  0  0  0  0  0  0  0  0  0  0  0
    7.4319  -20.4051   25.9646 O   0  0  0  0  0  0  0  0  0  0  0  0
    7.5084  -19.5283   23.7821 C   0  0  0  0  0  0  0  0  0  0  0  0
    6.5616  -18.9525   22.7850 C   0  0  0  0  0  0  0  0  0  0  0  0
    7.2185  -18.5899   21.4795 C   0  0  2  0  0  0  0  0  0  0  0  0
    7.7818  -19.7580   20.8641 N   0  0  0  0  0  0  0  0  0  0  0  0
    8.2017  -17.5051   21.6816 C   0  0  0  0  0  0  0  0  0  0  0  0
    9.3870  -17.8428   21.9298 O   0  0  0  0  0  0  0  0  0  0  0  0
    7.3038  -12.4213   19.4054 C   0  0  0  0  0  0  0  0  0  0  0  0
    7.9870  -13.7110   19.8218 C   0  0  1  0  0  0  0  0  0  0  0  0
    9.0605  -14.1011   18.8688 C   0  0  0  0  0  0  0  0  0  0  0  0
    8.3425  -13.7162   21.2639 C   0  0  0  0  0  0  0  0  0  0  0  0
    8.7717  -15.0553   21.8170 C   0  0  2  0  0  0  0  0  0  0  0  0
    7.8529  -16.1218   21.6049 N   0  0  0  0  0  0  0  0  0  0  0  0
    9.1860  -14.8963   23.2213 C   0  0  0  0  0  0  0  0  0  0  0  0
   10.2208  -14.2236   23.5444 O   0  0  0  0  0  0  0  0  0  0  0  0
    5.8080  -12.8877   26.5097 C   0  0  0  0  0  0  0  0  0  0  0  0
    7.1582  -13.1421   25.7964 C   0  0  1  0  0  0  0  0  0  0  0  0
    8.0359  -11.9680   26.1635 C   0  0  0  0  0  0  0  0  0  0  0  0
    7.6943  -14.3877   26.3856 C   0  0  0  0  0  0  0  0  0  0  0  0
    8.7546  -15.1223   25.6518 C   0  0  2  0  0  0  0  0  0  0  0  0
    8.4576  -15.4807   24.2874 N   0  0  0  0  0  0  0  0  0  0  0  0
    9.1044  -16.3398   26.4115 C   0  0  0  0  0  0  0  0  0  0  0  0
    9.5202  -16.2470   27.7246 O   0  0  0  0  0  0  0  0  0  0  0  0
    9.0221  -17.4535   25.8604 O   0  0  0  0  0  0  0  0  0  0  0  0
  2  1  1  0
  3  2  2  0
  4  2  1  0
  5  4  1  0
  5  6  1  0
  6  8  1  0
  6  7  1  1
  8  9  2  0
 11 10  1  6
 12 11  1  0
 13 11  1  0
 14 13  1  1
 15  8  1  0
 15 14  1  0
 16 14  1  0
 16 17  2  0
 19 18  1  1
 19 21  1  0
 19 20  1  0
 22 21  1  1
 22 23  1  0
 23 16  1  0
 24 25  1  0
 24 22  1  0
 26 24  2  0
M  END
$$$$
