QLL.pdb
     RDKit          3D

 26 25  0  0  1  0  0  0  0  0999 V2000
   11.5219  -20.7106   17.3786 N   0  0  0  0  0  0  0  0  0  0  0  0
   10.6850  -19.5599   17.4602 C   0  0  0  0  0  0  0  0  0  0  0  0
   10.6048  -18.8116   16.4567 O   0  0  0  0  0  0  0  0  0  0  0  0
    9.9179  -19.2215   18.6699 C   0  0  0  0  0  0  0  0  0  0  0  0
   10.7647  -19.3945   19.8845 C   0  0  0  0  0  0  0  0  0  0  0  0
   10.0734  -18.9816   21.1568 C   0  0  2  0  0  0  0  0  0  0  0  0
    8.7375  -19.5054   21.1903 N   0  0  0  0  0  0  0  0  0  0  0  0
   10.1291  -17.5138   21.3201 C   0  0  0  0  0  0  0  0  0  0  0  0
   11.2658  -16.9933   21.4537 O   0  0  0  0  0  0  0  0  0  0  0  0
    9.0504  -13.0643   19.6027 C   0  0  0  0  0  0  0  0  0  0  0  0
    8.0004  -13.1417   20.6958 C   0  0  1  0  0  0  0  0  0  0  0  0
    6.8038  -12.3191   20.3727 C   0  0  0  0  0  0  0  0  0  0  0  0
    7.7499  -14.5385   21.1340 C   0  0  0  0  0  0  0  0  0  0  0  0
    8.9704  -15.2953   21.6040 C   0  0  2  0  0  0  0  0  0  0  0  0
    8.9604  -16.6924   21.3303 N   0  0  0  0  0  0  0  0  0  0  0  0
    9.2390  -14.9665   23.0141 C   0  0  0  0  0  0  0  0  0  0  0  0
   10.2209  -14.2273   23.3563 O   0  0  0  0  0  0  0  0  0  0  0  0
    6.0888  -12.3004   26.1629 C   0  0  0  0  0  0  0  0  0  0  0  0
    7.4416  -12.7853   25.5873 C   0  0  1  0  0  0  0  0  0  0  0  0
    8.4918  -11.9139   26.2365 C   0  0  0  0  0  0  0  0  0  0  0  0
    7.5887  -14.1866   26.0356 C   0  0  0  0  0  0  0  0  0  0  0  0
    8.6507  -15.0217   25.4215 C   0  0  2  0  0  0  0  0  0  0  0  0
    8.4215  -15.4524   24.0649 N   0  0  0  0  0  0  0  0  0  0  0  0
    8.8822  -16.2035   26.2767 C   0  0  0  0  0  0  0  0  0  0  0  0
    8.8614  -17.4724   25.7335 O   0  0  0  0  0  0  0  0  0  0  0  0
    9.0970  -16.0494   27.4937 O   0  0  0  0  0  0  0  0  0  0  0  0
  2  1  1  0
  3  2  2  0
  4  2  1  0
  5  4  1  0
  5  6  1  0
  6  8  1  0
  6  7  1  6
  8  9  2  0
 11 10  1  6
 12 11  1  0
 13 11  1  0
 14 13  1  1
 15  8  1  0
 15 14  1  0
 16 14  1  0
 16 17  2  0
 19 18  1  1
 19 21  1  0
 19 20  1  0
 22 21  1  1
 22 23  1  0
 23 16  1  0
 24 25  1  0
 24 22  1  0
 26 24  2  0
M  END
$$$$
