QLL.pdb
     RDKit          3D

 26 25  0  0  1  0  0  0  0  0999 V2000
   11.8275  -16.0670   15.3364 N   0  0  0  0  0  0  0  0  0  0  0  0
   11.7901  -17.4711   15.5779 C   0  0  0  0  0  0  0  0  0  0  0  0
   11.9531  -18.2456   14.6047 O   0  0  0  0  0  0  0  0  0  0  0  0
   11.5688  -18.0396   16.9173 C   0  0  0  0  0  0  0  0  0  0  0  0
   11.2788  -16.9551   17.8981 C   0  0  0  0  0  0  0  0  0  0  0  0
   11.0427  -17.4629   19.2958 C   0  0  2  0  0  0  0  0  0  0  0  0
    9.9486  -18.3919   19.3100 N   0  0  0  0  0  0  0  0  0  0  0  0
   10.8608  -16.3326   20.2305 C   0  0  0  0  0  0  0  0  0  0  0  0
   11.8999  -15.7791   20.6718 O   0  0  0  0  0  0  0  0  0  0  0  0
    6.2878  -13.5464   19.6304 C   0  0  0  0  0  0  0  0  0  0  0  0
    7.7775  -13.7392   19.8472 C   0  0  1  0  0  0  0  0  0  0  0  0
    8.5783  -12.7090   19.1329 C   0  0  0  0  0  0  0  0  0  0  0  0
    8.1104  -13.9689   21.2763 C   0  0  0  0  0  0  0  0  0  0  0  0
    9.3663  -14.7717   21.5246 C   0  0  2  0  0  0  0  0  0  0  0  0
    9.5735  -15.8641   20.6355 N   0  0  0  0  0  0  0  0  0  0  0  0
    9.4398  -15.1402   22.9485 C   0  0  0  0  0  0  0  0  0  0  0  0
    9.2743  -14.2788   23.8748 O   0  0  0  0  0  0  0  0  0  0  0  0
    6.4045  -18.5836   25.3335 C   0  0  0  0  0  0  0  0  0  0  0  0
    7.2415  -17.3287   24.9854 C   0  0  1  0  0  0  0  0  0  0  0  0
    6.7853  -16.2591   25.9506 C   0  0  0  0  0  0  0  0  0  0  0  0
    8.6477  -17.6974   25.2551 C   0  0  0  0  0  0  0  0  0  0  0  0
    9.7240  -16.7989   24.7685 C   0  0  2  0  0  0  0  0  0  0  0  0
    9.6973  -16.4702   23.3651 N   0  0  0  0  0  0  0  0  0  0  0  0
   11.0323  -17.3961   25.1055 C   0  0  0  0  0  0  0  0  0  0  0  0
   11.9402  -17.6943   24.1093 O   0  0  0  0  0  0  0  0  0  0  0  0
   11.3133  -17.6300   26.2960 O   0  0  0  0  0  0  0  0  0  0  0  0
  2  1  1  0
  3  2  2  0
  4  2  1  0
  5  4  1  0
  5  6  1  0
  6  8  1  0
  6  7  1  6
  8  9  2  0
 11 10  1  1
 12 11  1  0
 13 11  1  0
 14 13  1  1
 15  8  1  0
 15 14  1  0
 16 14  1  0
 16 17  2  0
 19 18  1  1
 19 21  1  0
 19 20  1  0
 22 21  1  6
 22 23  1  0
 23 16  1  0
 24 25  1  0
 24 22  1  0
 26 24  2  0
M  END
$$$$
