QLL.pdb
     RDKit          3D

 26 25  0  0  1  0  0  0  0  0999 V2000
   12.4688  -19.2650   17.1091 N   0  0  0  0  0  0  0  0  0  0  0  0
   11.2354  -19.9499   17.3109 C   0  0  0  0  0  0  0  0  0  0  0  0
   10.9366  -20.8796   16.5236 O   0  0  0  0  0  0  0  0  0  0  0  0
   10.3076  -19.6077   18.4011 C   0  0  0  0  0  0  0  0  0  0  0  0
   10.8180  -18.4339   19.1653 C   0  0  0  0  0  0  0  0  0  0  0  0
   10.2096  -18.3052   20.5366 C   0  0  2  0  0  0  0  0  0  0  0  0
    8.8835  -18.8544   20.5467 N   0  0  0  0  0  0  0  0  0  0  0  0
   10.2633  -16.9009   20.9939 C   0  0  0  0  0  0  0  0  0  0  0  0
   11.4009  -16.4063   21.1987 O   0  0  0  0  0  0  0  0  0  0  0  0
    6.3956  -12.9700   19.5872 C   0  0  0  0  0  0  0  0  0  0  0  0
    7.7749  -13.5101   19.9177 C   0  0  1  0  0  0  0  0  0  0  0  0
    8.8535  -12.6158   19.4178 C   0  0  0  0  0  0  0  0  0  0  0  0
    7.8790  -13.9533   21.3314 C   0  0  0  0  0  0  0  0  0  0  0  0
    9.1102  -14.7639   21.6638 C   0  0  2  0  0  0  0  0  0  0  0  0
    9.0914  -16.1112   21.2042 N   0  0  0  0  0  0  0  0  0  0  0  0
    9.4149  -14.6279   23.0982 C   0  0  0  0  0  0  0  0  0  0  0  0
   10.1134  -13.6596   23.5477 O   0  0  0  0  0  0  0  0  0  0  0  0
    8.1246  -12.5097   27.1107 C   0  0  0  0  0  0  0  0  0  0  0  0
    7.1283  -13.6652   26.8483 C   0  0  1  0  0  0  0  0  0  0  0  0
    5.7614  -13.0214   26.8233 C   0  0  0  0  0  0  0  0  0  0  0  0
    7.4711  -14.1939   25.5107 C   0  0  0  0  0  0  0  0  0  0  0  0
    8.6138  -15.1330   25.3889 C   0  0  2  0  0  0  0  0  0  0  0  0
    8.9482  -15.5640   24.0546 N   0  0  0  0  0  0  0  0  0  0  0  0
    8.3505  -16.3162   26.2330 C   0  0  0  0  0  0  0  0  0  0  0  0
    8.2258  -17.5667   25.6615 O   0  0  0  0  0  0  0  0  0  0  0  0
    8.2413  -16.1801   27.4660 O   0  0  0  0  0  0  0  0  0  0  0  0
  2  1  1  0
  3  2  2  0
  4  2  1  0
  5  4  1  0
  5  6  1  0
  6  8  1  0
  6  7  1  6
  8  9  2  0
 11 10  1  1
 12 11  1  0
 13 11  1  0
 14 13  1  1
 15  8  1  0
 15 14  1  0
 16 14  1  0
 16 17  2  0
 19 18  1  6
 19 21  1  0
 19 20  1  0
 22 21  1  6
 22 23  1  0
 23 16  1  0
 24 25  1  0
 24 22  1  0
 26 24  2  0
M  END
$$$$
