LGM.pdb
     RDKit          3D

 21 20  0  0  1  0  0  0  0  0999 V2000
    7.5625  -14.0355   19.1384 C   0  0  0  0  0  0  0  0  0  0  0  0
    7.5229  -13.5885   20.6140 C   0  0  2  0  0  0  0  0  0  0  0  0
    7.1269  -12.1566   20.6283 C   0  0  0  0  0  0  0  0  0  0  0  0
    8.8333  -13.9494   21.1936 C   0  0  0  0  0  0  0  0  0  0  0  0
    9.1219  -15.4181   21.3060 C   0  0  2  0  0  0  0  0  0  0  0  0
    7.9807  -16.1606   21.8051 N   0  0  0  0  0  0  0  0  0  0  0  0
   10.2891  -15.6968   22.1223 C   0  0  0  0  0  0  0  0  0  0  0  0
   11.4058  -15.1067   21.9166 O   0  0  0  0  0  0  0  0  0  0  0  0
   10.2009  -16.6579   23.1965 N   0  0  0  0  0  0  0  0  0  0  0  0
   11.3816  -16.9167   23.9350 C   0  0  0  0  0  0  0  0  0  0  0  0
   11.4121  -16.4174   25.3197 C   0  0  0  0  0  0  0  0  0  0  0  0
   12.5402  -16.4725   25.9306 O   0  0  0  0  0  0  0  0  0  0  0  0
    7.2954  -11.2567   25.7207 C   0  0  0  0  0  0  0  0  0  0  0  0
    7.5569  -12.5453   26.9195 S   0  0  0  0  0  0  0  0  0  0  0  0
    9.1036  -13.3839   26.8226 C   0  0  0  0  0  0  0  0  0  0  0  0
    9.4186  -14.4640   27.7595 C   0  0  0  0  0  0  0  0  0  0  0  0
   10.5642  -15.3678   27.4377 C   0  0  2  0  0  0  0  0  0  0  0  0
   10.3456  -15.8881   26.0456 N   0  0  0  0  0  0  0  0  0  0  0  0
   10.6229  -16.5634   28.2650 C   0  0  0  0  0  0  0  0  0  0  0  0
   11.1335  -16.5550   29.5363 O   0  0  0  0  0  0  0  0  0  0  0  0
   10.2057  -17.6580   27.8298 O   0  0  0  0  0  0  0  0  0  0  0  0
  2  3  1  6
  2  1  1  0
  4  2  1  0
  5  4  1  0
  5  6  1  1
  7  5  1  0
  7  8  2  0
  9  7  1  0
 10  9  1  0
 10 11  1  0
 11 18  1  0
 12 11  2  0
 14 13  1  0
 15 14  1  0
 16 15  1  0
 17 16  1  1
 18 17  1  0
 19 20  1  0
 19 17  1  0
 21 19  2  0
M  END
$$$$
