LGM.pdb
     RDKit          3D

 21 20  0  0  1  0  0  0  0  0999 V2000
    7.8546  -13.9205   19.0865 C   0  0  0  0  0  0  0  0  0  0  0  0
    7.3798  -13.6227   20.5234 C   0  0  2  0  0  0  0  0  0  0  0  0
    6.8872  -12.2211   20.5411 C   0  0  0  0  0  0  0  0  0  0  0  0
    8.5056  -13.9711   21.4146 C   0  0  0  0  0  0  0  0  0  0  0  0
    8.9269  -15.4118   21.4112 C   0  0  2  0  0  0  0  0  0  0  0  0
    7.8917  -16.2831   21.9327 N   0  0  0  0  0  0  0  0  0  0  0  0
   10.1680  -15.6323   22.1306 C   0  0  0  0  0  0  0  0  0  0  0  0
   11.2410  -15.0076   21.8207 O   0  0  0  0  0  0  0  0  0  0  0  0
   10.2059  -16.5735   23.2250 N   0  0  0  0  0  0  0  0  0  0  0  0
   11.4521  -16.7715   23.8686 C   0  0  0  0  0  0  0  0  0  0  0  0
   11.5356  -16.3565   25.2787 C   0  0  0  0  0  0  0  0  0  0  0  0
   12.6522  -16.5633   25.8782 O   0  0  0  0  0  0  0  0  0  0  0  0
    6.1564  -12.3263   26.7549 C   0  0  0  0  0  0  0  0  0  0  0  0
    7.7951  -12.3567   27.4473 S   0  0  0  0  0  0  0  0  0  0  0  0
    8.7146  -13.8365   27.1832 C   0  0  0  0  0  0  0  0  0  0  0  0
   10.1396  -13.8902   27.5147 C   0  0  0  0  0  0  0  0  0  0  0  0
   10.8437  -15.2033   27.3995 C   0  0  2  0  0  0  0  0  0  0  0  0
   10.5309  -15.7602   26.0399 N   0  0  0  0  0  0  0  0  0  0  0  0
   10.3586  -16.2160   28.3249 C   0  0  0  0  0  0  0  0  0  0  0  0
    9.7044  -17.3443   27.9052 O   0  0  0  0  0  0  0  0  0  0  0  0
   10.5226  -16.0819   29.5564 O   0  0  0  0  0  0  0  0  0  0  0  0
  2  3  1  6
  2  1  1  0
  4  2  1  0
  5  4  1  0
  5  6  1  1
  7  5  1  0
  7  8  2  0
  9  7  1  0
 10  9  1  0
 10 11  1  0
 11 18  1  0
 12 11  2  0
 14 13  1  0
 15 14  1  0
 16 15  1  0
 17 16  1  1
 18 17  1  0
 19 20  1  0
 19 17  1  0
 21 19  2  0
M  END
$$$$
