LGM.pdb
     RDKit          3D

 21 20  0  0  1  0  0  0  0  0999 V2000
    7.7436  -13.2363   21.9137 C   0  0  0  0  0  0  0  0  0  0  0  0
    8.2382  -13.8746   20.5996 C   0  0  2  0  0  0  0  0  0  0  0  0
    8.0418  -12.8700   19.5228 C   0  0  0  0  0  0  0  0  0  0  0  0
    7.5355  -15.1683   20.4749 C   0  0  0  0  0  0  0  0  0  0  0  0
    7.7771  -16.1581   21.5771 C   0  0  2  0  0  0  0  0  0  0  0  0
    6.9348  -15.9056   22.7301 N   0  0  0  0  0  0  0  0  0  0  0  0
    9.1694  -16.2122   21.9836 C   0  0  0  0  0  0  0  0  0  0  0  0
    9.9767  -17.0750   21.4924 O   0  0  0  0  0  0  0  0  0  0  0  0
    9.6684  -15.2746   22.9619 N   0  0  0  0  0  0  0  0  0  0  0  0
   11.0296  -15.3897   23.3367 C   0  0  0  0  0  0  0  0  0  0  0  0
   11.3029  -15.5510   24.7743 C   0  0  0  0  0  0  0  0  0  0  0  0
   12.5357  -15.6341   25.1237 O   0  0  0  0  0  0  0  0  0  0  0  0
    6.2967  -11.9942   26.7215 C   0  0  0  0  0  0  0  0  0  0  0  0
    7.9329  -12.1716   27.3975 S   0  0  0  0  0  0  0  0  0  0  0  0
    8.7283  -13.7141   27.0927 C   0  0  0  0  0  0  0  0  0  0  0  0
   10.1203  -13.9204   27.4967 C   0  0  0  0  0  0  0  0  0  0  0  0
   10.7530  -15.2424   27.2052 C   0  0  2  0  0  0  0  0  0  0  0  0
   10.3661  -15.6238   25.8047 N   0  0  0  0  0  0  0  0  0  0  0  0
   10.2497  -16.3317   28.0281 C   0  0  0  0  0  0  0  0  0  0  0  0
    9.5277  -17.3741   27.5090 O   0  0  0  0  0  0  0  0  0  0  0  0
   10.4603  -16.3470   29.2598 O   0  0  0  0  0  0  0  0  0  0  0  0
  2  3  1  6
  2  1  1  0
  4  2  1  0
  5  4  1  0
  5  6  1  1
  7  5  1  0
  7  8  2  0
  9  7  1  0
 10  9  1  0
 10 11  1  0
 11 18  1  0
 12 11  2  0
 14 13  1  0
 15 14  1  0
 16 15  1  0
 17 16  1  1
 18 17  1  0
 19 20  1  0
 19 17  1  0
 21 19  2  0
M  END
$$$$
