LGM.pdb
     RDKit          3D

 21 20  0  0  1  0  0  0  0  0999 V2000
    6.7077  -13.8329   22.2727 C   0  0  0  0  0  0  0  0  0  0  0  0
    7.9589  -13.5262   21.4246 C   0  0  2  0  0  0  0  0  0  0  0  0
    7.8171  -12.1359   20.9203 C   0  0  0  0  0  0  0  0  0  0  0  0
    8.0654  -14.6147   20.4311 C   0  0  0  0  0  0  0  0  0  0  0  0
    8.2205  -16.0005   20.9864 C   0  0  2  0  0  0  0  0  0  0  0  0
    7.0817  -16.3946   21.7929 N   0  0  0  0  0  0  0  0  0  0  0  0
    9.4457  -16.1632   21.7472 C   0  0  0  0  0  0  0  0  0  0  0  0
   10.5923  -15.9397   21.2249 O   0  0  0  0  0  0  0  0  0  0  0  0
    9.3832  -16.5840   23.1272 N   0  0  0  0  0  0  0  0  0  0  0  0
   10.6126  -16.7728   23.8050 C   0  0  0  0  0  0  0  0  0  0  0  0
   10.8124  -15.9857   25.0331 C   0  0  0  0  0  0  0  0  0  0  0  0
   11.9762  -15.4724   25.2091 O   0  0  0  0  0  0  0  0  0  0  0  0
    6.6730  -11.4103   25.3913 C   0  0  0  0  0  0  0  0  0  0  0  0
    7.0523  -12.8703   26.3349 S   0  0  0  0  0  0  0  0  0  0  0  0
    8.7378  -13.0621   26.8115 C   0  0  0  0  0  0  0  0  0  0  0  0
    9.1344  -14.1550   27.7013 C   0  0  0  0  0  0  0  0  0  0  0  0
   10.2802  -15.0216   27.2901 C   0  0  2  0  0  0  0  0  0  0  0  0
    9.8725  -15.7341   26.0320 N   0  0  0  0  0  0  0  0  0  0  0  0
   10.5783  -16.0912   28.2304 C   0  0  0  0  0  0  0  0  0  0  0  0
   10.3692  -17.4123   27.9335 O   0  0  0  0  0  0  0  0  0  0  0  0
   11.0383  -15.8315   29.3629 O   0  0  0  0  0  0  0  0  0  0  0  0
  2  3  1  6
  2  1  1  0
  4  2  1  0
  5  4  1  0
  5  6  1  1
  7  5  1  0
  7  8  2  0
  9  7  1  0
 10  9  1  0
 10 11  1  0
 11 18  1  0
 12 11  2  0
 14 13  1  0
 15 14  1  0
 16 15  1  0
 17 16  1  1
 18 17  1  0
 19 20  1  0
 19 17  1  0
 21 19  2  0
M  END
$$$$
