LGM.pdb
     RDKit          3D

 21 20  0  0  1  0  0  0  0  0999 V2000
    7.6705  -13.9285   19.2939 C   0  0  0  0  0  0  0  0  0  0  0  0
    7.5096  -13.5536   20.7813 C   0  0  2  0  0  0  0  0  0  0  0  0
    7.1555  -12.1116   20.8346 C   0  0  0  0  0  0  0  0  0  0  0  0
    8.7506  -13.9862   21.4564 C   0  0  0  0  0  0  0  0  0  0  0  0
    9.0073  -15.4649   21.4786 C   0  0  2  0  0  0  0  0  0  0  0  0
    7.8478  -16.2122   21.9256 N   0  0  0  0  0  0  0  0  0  0  0  0
   10.1637  -15.8188   22.2811 C   0  0  0  0  0  0  0  0  0  0  0  0
   11.3046  -15.2721   22.0883 O   0  0  0  0  0  0  0  0  0  0  0  0
   10.0368  -16.8071   23.3263 N   0  0  0  0  0  0  0  0  0  0  0  0
   11.1940  -17.0971   24.0900 C   0  0  0  0  0  0  0  0  0  0  0  0
   11.2984  -16.4343   25.4005 C   0  0  0  0  0  0  0  0  0  0  0  0
   12.4402  -16.4848   25.9859 O   0  0  0  0  0  0  0  0  0  0  0  0
    6.5175  -12.1275   25.6343 C   0  0  0  0  0  0  0  0  0  0  0  0
    7.4117  -12.3559   27.1555 S   0  0  0  0  0  0  0  0  0  0  0  0
    8.3639  -13.8338   27.2739 C   0  0  0  0  0  0  0  0  0  0  0  0
    9.8233  -13.7671   27.3695 C   0  0  0  0  0  0  0  0  0  0  0  0
   10.5914  -15.0489   27.3722 C   0  0  2  0  0  0  0  0  0  0  0  0
   10.2889  -15.7537   26.0805 N   0  0  0  0  0  0  0  0  0  0  0  0
   10.1708  -15.9866   28.4023 C   0  0  0  0  0  0  0  0  0  0  0  0
    9.5637  -17.1794   28.1090 O   0  0  0  0  0  0  0  0  0  0  0  0
   10.3492  -15.7245   29.6110 O   0  0  0  0  0  0  0  0  0  0  0  0
  2  3  1  6
  2  1  1  0
  4  2  1  0
  5  4  1  0
  5  6  1  1
  7  5  1  0
  7  8  2  0
  9  7  1  0
 10  9  1  0
 10 11  1  0
 11 18  1  0
 12 11  2  0
 14 13  1  0
 15 14  1  0
 16 15  1  0
 17 16  1  6
 18 17  1  0
 19 20  1  0
 19 17  1  0
 21 19  2  0
M  END
$$$$
