LGM.pdb
     RDKit          3D

 21 20  0  0  1  0  0  0  0  0999 V2000
    9.2505  -12.5285   19.1314 C   0  0  0  0  0  0  0  0  0  0  0  0
    8.1587  -13.5694   18.8100 C   0  0  2  0  0  0  0  0  0  0  0  0
    7.0338  -12.8415   18.1681 C   0  0  0  0  0  0  0  0  0  0  0  0
    7.8862  -14.2898   20.0709 C   0  0  0  0  0  0  0  0  0  0  0  0
    9.0802  -14.8776   20.7650 C   0  0  2  0  0  0  0  0  0  0  0  0
    9.7011  -15.9295   19.9836 N   0  0  0  0  0  0  0  0  0  0  0  0
    8.7676  -15.3678   22.0949 C   0  0  0  0  0  0  0  0  0  0  0  0
    8.2083  -14.6196   22.9694 O   0  0  0  0  0  0  0  0  0  0  0  0
    9.0875  -16.7301   22.4513 N   0  0  0  0  0  0  0  0  0  0  0  0
    8.7605  -17.1521   23.7633 C   0  0  0  0  0  0  0  0  0  0  0  0
    9.4339  -16.4469   24.8664 C   0  0  0  0  0  0  0  0  0  0  0  0
   10.7177  -16.4752   24.8738 O   0  0  0  0  0  0  0  0  0  0  0  0
    5.9696  -12.4209   26.8349 C   0  0  0  0  0  0  0  0  0  0  0  0
    7.5523  -11.6269   26.6608 S   0  0  0  0  0  0  0  0  0  0  0  0
    8.9566  -12.6898   26.7154 C   0  0  0  0  0  0  0  0  0  0  0  0
    8.9158  -13.9288   27.4943 C   0  0  0  0  0  0  0  0  0  0  0  0
    9.6696  -15.1124   26.9807 C   0  0  2  0  0  0  0  0  0  0  0  0
    8.8288  -15.7473   25.9100 N   0  0  0  0  0  0  0  0  0  0  0  0
    9.8556  -16.1665   27.9663 C   0  0  0  0  0  0  0  0  0  0  0  0
    9.0204  -17.2492   28.0533 O   0  0  0  0  0  0  0  0  0  0  0  0
   10.7992  -16.1125   28.7838 O   0  0  0  0  0  0  0  0  0  0  0  0
  2  3  1  1
  2  1  1  0
  4  2  1  0
  5  4  1  0
  5  6  1  6
  7  5  1  0
  7  8  2  0
  9  7  1  0
 10  9  1  0
 10 11  1  0
 11 18  1  0
 12 11  2  0
 14 13  1  0
 15 14  1  0
 16 15  1  0
 17 16  1  1
 18 17  1  0
 19 20  1  0
 19 17  1  0
 21 19  2  0
M  END
$$$$
