LGM.pdb
     RDKit          3D

 21 20  0  0  1  0  0  0  0  0999 V2000
    6.7617  -13.4415   20.9185 C   0  0  0  0  0  0  0  0  0  0  0  0
    8.1698  -13.5534   20.2992 C   0  0  2  0  0  0  0  0  0  0  0  0
    8.1778  -12.7144   19.0730 C   0  0  0  0  0  0  0  0  0  0  0  0
    8.4459  -14.9973   20.1508 C   0  0  0  0  0  0  0  0  0  0  0  0
    8.3476  -15.8188   21.4032 C   0  0  2  0  0  0  0  0  0  0  0  0
    7.5324  -15.1744   22.4145 N   0  0  0  0  0  0  0  0  0  0  0  0
    9.6478  -16.1534   21.9548 C   0  0  0  0  0  0  0  0  0  0  0  0
   10.3834  -17.0601   21.4313 O   0  0  0  0  0  0  0  0  0  0  0  0
   10.1353  -15.4524   23.1194 N   0  0  0  0  0  0  0  0  0  0  0  0
   11.3491  -15.9075   23.6905 C   0  0  0  0  0  0  0  0  0  0  0  0
   11.4259  -15.8998   25.1607 C   0  0  0  0  0  0  0  0  0  0  0  0
   12.5956  -15.7897   25.6790 O   0  0  0  0  0  0  0  0  0  0  0  0
    6.6631  -13.0920   26.8215 C   0  0  0  0  0  0  0  0  0  0  0  0
    8.1688  -12.2468   27.2507 S   0  0  0  0  0  0  0  0  0  0  0  0
    9.5954  -13.2639   27.4387 C   0  0  0  0  0  0  0  0  0  0  0  0
    9.4572  -14.6618   27.8511 C   0  0  0  0  0  0  0  0  0  0  0  0
   10.5524  -15.6151   27.4979 C   0  0  2  0  0  0  0  0  0  0  0  0
   10.3632  -15.9994   26.0581 N   0  0  0  0  0  0  0  0  0  0  0  0
   10.4916  -16.8773   28.2195 C   0  0  0  0  0  0  0  0  0  0  0  0
   10.9576  -17.0165   29.5003 O   0  0  0  0  0  0  0  0  0  0  0  0
   10.0074  -17.8949   27.6795 O   0  0  0  0  0  0  0  0  0  0  0  0
  2  3  1  6
  2  1  1  0
  4  2  1  0
  5  4  1  0
  5  6  1  1
  7  5  1  0
  7  8  2  0
  9  7  1  0
 10  9  1  0
 10 11  1  0
 11 18  1  0
 12 11  2  0
 14 13  1  0
 15 14  1  0
 16 15  1  0
 17 16  1  1
 18 17  1  0
 19 20  1  0
 19 17  1  0
 21 19  2  0
M  END
$$$$
