LGM.pdb
     RDKit          3D

 21 20  0  0  1  0  0  0  0  0999 V2000
    8.8104  -12.3542   19.4403 C   0  0  0  0  0  0  0  0  0  0  0  0
    7.9910  -13.3633   18.6103 C   0  0  2  0  0  0  0  0  0  0  0  0
    6.9438  -12.5924   17.8916 C   0  0  0  0  0  0  0  0  0  0  0  0
    7.5523  -14.4161   19.5496 C   0  0  0  0  0  0  0  0  0  0  0  0
    8.6298  -15.0451   20.3840 C   0  0  2  0  0  0  0  0  0  0  0  0
    9.1934  -16.2209   19.7496 N   0  0  0  0  0  0  0  0  0  0  0  0
    8.1781  -15.3741   21.7236 C   0  0  0  0  0  0  0  0  0  0  0  0
    7.7321  -14.4761   22.5187 O   0  0  0  0  0  0  0  0  0  0  0  0
    8.2253  -16.7429   22.1810 N   0  0  0  0  0  0  0  0  0  0  0  0
    7.8265  -16.9956   23.5165 C   0  0  0  0  0  0  0  0  0  0  0  0
    8.7489  -16.5472   24.5727 C   0  0  0  0  0  0  0  0  0  0  0  0
    8.8537  -15.2798   24.7505 O   0  0  0  0  0  0  0  0  0  0  0  0
   11.7889  -13.5115   28.6619 C   0  0  0  0  0  0  0  0  0  0  0  0
   10.0822  -13.7375   28.2129 S   0  0  0  0  0  0  0  0  0  0  0  0
    9.3931  -15.3174   28.5786 C   0  0  0  0  0  0  0  0  0  0  0  0
    9.0499  -16.2424   27.4968 C   0  0  0  0  0  0  0  0  0  0  0  0
   10.1550  -16.7715   26.6414 C   0  0  2  0  0  0  0  0  0  0  0  0
    9.5258  -17.3508   25.4065 N   0  0  0  0  0  0  0  0  0  0  0  0
   10.8786  -17.8857   27.2347 C   0  0  0  0  0  0  0  0  0  0  0  0
   12.1467  -17.7564   27.7373 O   0  0  0  0  0  0  0  0  0  0  0  0
   10.3567  -19.0192   27.3002 O   0  0  0  0  0  0  0  0  0  0  0  0
  2  3  1  1
  2  1  1  0
  4  2  1  0
  5  4  1  0
  5  6  1  6
  7  5  1  0
  7  8  2  0
  9  7  1  0
 10  9  1  0
 10 11  1  0
 11 18  1  0
 12 11  2  0
 14 13  1  0
 15 14  1  0
 16 15  1  0
 17 16  1  1
 18 17  1  0
 19 20  1  0
 19 17  1  0
 21 19  2  0
M  END
$$$$
