LGM.pdb
     RDKit          3D

 21 20  0  0  1  0  0  0  0  0999 V2000
    9.2334  -12.5051   19.3953 C   0  0  0  0  0  0  0  0  0  0  0  0
    8.3630  -13.6506   18.8394 C   0  0  2  0  0  0  0  0  0  0  0  0
    7.3653  -13.0391   17.9239 C   0  0  0  0  0  0  0  0  0  0  0  0
    7.8599  -14.3974   20.0109 C   0  0  0  0  0  0  0  0  0  0  0  0
    8.9015  -14.9085   20.9632 C   0  0  2  0  0  0  0  0  0  0  0  0
    9.7940  -15.8622   20.3334 N   0  0  0  0  0  0  0  0  0  0  0  0
    8.3252  -15.4875   22.1628 C   0  0  0  0  0  0  0  0  0  0  0  0
    7.4604  -14.8547   22.8622 O   0  0  0  0  0  0  0  0  0  0  0  0
    8.7263  -16.8085   22.5863 N   0  0  0  0  0  0  0  0  0  0  0  0
    8.1582  -17.3069   23.7844 C   0  0  0  0  0  0  0  0  0  0  0  0
    8.6697  -16.7346   25.0407 C   0  0  0  0  0  0  0  0  0  0  0  0
    8.1913  -17.2130   26.1322 O   0  0  0  0  0  0  0  0  0  0  0  0
    6.1286  -11.6374   27.1330 C   0  0  0  0  0  0  0  0  0  0  0  0
    7.8595  -11.9879   27.3498 S   0  0  0  0  0  0  0  0  0  0  0  0
    8.2496  -13.6009   27.9423 C   0  0  0  0  0  0  0  0  0  0  0  0
    8.4112  -14.7136   27.0047 C   0  0  0  0  0  0  0  0  0  0  0  0
    9.7821  -15.0117   26.4901 C   0  0  2  0  0  0  0  0  0  0  0  0
    9.6216  -15.7248   25.1778 N   0  0  0  0  0  0  0  0  0  0  0  0
   10.5333  -15.9433   27.3178 C   0  0  0  0  0  0  0  0  0  0  0  0
    9.9603  -17.0502   27.8867 O   0  0  0  0  0  0  0  0  0  0  0  0
   11.7478  -15.7551   27.5440 O   0  0  0  0  0  0  0  0  0  0  0  0
  2  3  1  1
  2  1  1  0
  4  2  1  0
  5  4  1  0
  5  6  1  6
  7  5  1  0
  7  8  2  0
  9  7  1  0
 10  9  1  0
 10 11  1  0
 11 18  1  0
 12 11  2  0
 14 13  1  0
 15 14  1  0
 16 15  1  0
 17 16  1  1
 18 17  1  0
 19 20  1  0
 19 17  1  0
 21 19  2  0
M  END
$$$$
