LGM.pdb
     RDKit          3D

 21 20  0  0  1  0  0  0  0  0999 V2000
    9.5584  -12.7087   18.9576 C   0  0  0  0  0  0  0  0  0  0  0  0
    8.2991  -13.4098   18.4086 C   0  0  2  0  0  0  0  0  0  0  0  0
    7.4874  -12.3753   17.7169 C   0  0  0  0  0  0  0  0  0  0  0  0
    7.6866  -14.1198   19.5505 C   0  0  0  0  0  0  0  0  0  0  0  0
    8.5826  -15.0667   20.2945 C   0  0  2  0  0  0  0  0  0  0  0  0
    9.0659  -16.1390   19.4464 N   0  0  0  0  0  0  0  0  0  0  0  0
    7.9507  -15.6190   21.4788 C   0  0  0  0  0  0  0  0  0  0  0  0
    7.5390  -14.8678   22.4294 O   0  0  0  0  0  0  0  0  0  0  0  0
    7.7741  -17.0472   21.5982 N   0  0  0  0  0  0  0  0  0  0  0  0
    7.1857  -17.5312   22.7923 C   0  0  0  0  0  0  0  0  0  0  0  0
    7.7840  -17.0654   24.0543 C   0  0  0  0  0  0  0  0  0  0  0  0
    9.0665  -17.0580   24.1192 O   0  0  0  0  0  0  0  0  0  0  0  0
    7.3624  -11.4673   27.7204 C   0  0  0  0  0  0  0  0  0  0  0  0
    6.0683  -12.4590   27.0078 S   0  0  0  0  0  0  0  0  0  0  0  0
    6.5834  -13.9570   26.2362 C   0  0  0  0  0  0  0  0  0  0  0  0
    7.0490  -15.0838   27.0468 C   0  0  0  0  0  0  0  0  0  0  0  0
    7.8789  -16.1358   26.3853 C   0  0  2  0  0  0  0  0  0  0  0  0
    7.1087  -16.6287   25.1935 N   0  0  0  0  0  0  0  0  0  0  0  0
    8.0838  -17.3242   27.1995 C   0  0  0  0  0  0  0  0  0  0  0  0
    7.2857  -18.4332   27.0977 O   0  0  0  0  0  0  0  0  0  0  0  0
    9.0097  -17.3682   28.0374 O   0  0  0  0  0  0  0  0  0  0  0  0
  2  3  1  1
  2  1  1  0
  4  2  1  0
  5  4  1  0
  5  6  1  6
  7  5  1  0
  7  8  2  0
  9  7  1  0
 10  9  1  0
 10 11  1  0
 11 18  1  0
 12 11  2  0
 14 13  1  0
 15 14  1  0
 16 15  1  0
 17 16  1  1
 18 17  1  0
 19 20  1  0
 19 17  1  0
 21 19  2  0
M  END
$$$$
