LGM.pdb
     RDKit          3D

 21 20  0  0  1  0  0  0  0  0999 V2000
    5.6854  -11.5922   25.4696 C   0  0  0  0  0  0  0  0  0  0  0  0
    6.2000  -13.0303   25.6833 C   0  0  2  0  0  0  0  0  0  0  0  0
    6.2041  -13.2818   27.1476 C   0  0  0  0  0  0  0  0  0  0  0  0
    7.4862  -13.1238   24.9621 C   0  0  0  0  0  0  0  0  0  0  0  0
    7.5180  -14.0619   23.7908 C   0  0  2  0  0  0  0  0  0  0  0  0
    6.4464  -15.0373   23.8452 N   0  0  0  0  0  0  0  0  0  0  0  0
    8.7952  -14.7370   23.6508 C   0  0  0  0  0  0  0  0  0  0  0  0
    9.8996  -14.0913   23.6760 O   0  0  0  0  0  0  0  0  0  0  0  0
    8.8345  -16.1706   23.4813 N   0  0  0  0  0  0  0  0  0  0  0  0
   10.0837  -16.7517   23.1526 C   0  0  0  0  0  0  0  0  0  0  0  0
   10.9946  -17.0281   24.2758 C   0  0  0  0  0  0  0  0  0  0  0  0
   12.2444  -17.1254   23.9975 O   0  0  0  0  0  0  0  0  0  0  0  0
   10.2074  -12.6327   28.4840 C   0  0  0  0  0  0  0  0  0  0  0  0
   10.9177  -14.2122   28.8916 S   0  0  0  0  0  0  0  0  0  0  0  0
   11.1563  -15.3199   27.5421 C   0  0  0  0  0  0  0  0  0  0  0  0
   11.5839  -16.6990   27.7846 C   0  0  0  0  0  0  0  0  0  0  0  0
   11.6858  -17.6239   26.6154 C   0  0  2  0  0  0  0  0  0  0  0  0
   10.6488  -17.1969   25.6161 N   0  0  0  0  0  0  0  0  0  0  0  0
   11.3436  -19.0042   26.9235 C   0  0  0  0  0  0  0  0  0  0  0  0
   10.1539  -19.5697   26.5466 O   0  0  0  0  0  0  0  0  0  0  0  0
   12.1387  -19.7291   27.5590 O   0  0  0  0  0  0  0  0  0  0  0  0
  2  3  1  1
  2  1  1  0
  4  2  1  0
  5  4  1  0
  5  6  1  1
  7  5  1  0
  7  8  2  0
  9  7  1  0
 10  9  1  0
 10 11  1  0
 11 18  1  0
 12 11  2  0
 14 13  1  0
 15 14  1  0
 16 15  1  0
 17 16  1  1
 18 17  1  0
 19 20  1  0
 19 17  1  0
 21 19  2  0
M  END
$$$$
