CIS.pdb
     RDKit          3D

 21 20  0  0  1  0  0  0  0  0999 V2000
    7.4667  -15.1823   19.7465 N   0  0  0  0  0  0  0  0  0  0  0  0
    6.8098  -15.4683   20.9834 C   0  0  1  0  0  0  0  0  0  0  0  0
    6.3506  -16.9208   21.0462 C   0  0  0  0  0  0  0  0  0  0  0  0
    4.7419  -17.1170   20.2349 S   0  0  0  0  0  0  0  0  0  0  0  0
    7.6551  -15.1386   22.1653 C   0  0  0  0  0  0  0  0  0  0  0  0
    8.9026  -15.2909   22.1248 O   0  0  0  0  0  0  0  0  0  0  0  0
    7.4127  -11.7197   27.2899 C   0  0  0  0  0  0  0  0  0  0  0  0
    8.1514  -12.8200   26.5485 C   0  0  0  0  0  0  0  0  0  0  0  0
    7.3077  -13.2396   25.3950 C   0  0  2  0  0  0  0  0  0  0  0  0
    6.0105  -13.8022   25.9396 C   0  0  0  0  0  0  0  0  0  0  0  0
    7.9311  -14.2994   24.5318 C   0  0  2  0  0  0  0  0  0  0  0  0
    7.1134  -14.6420   23.3859 N   0  0  0  0  0  0  0  0  0  0  0  0
    8.2288  -15.5463   25.2800 C   0  0  0  0  0  0  0  0  0  0  0  0
    7.3084  -16.2960   25.7020 O   0  0  0  0  0  0  0  0  0  0  0  0
   11.8986  -17.2722   24.9034 O   0  0  0  0  0  0  0  0  0  0  0  0
   10.7783  -18.0079   25.2271 C   0  0  0  0  0  0  0  0  0  0  0  0
    9.8681  -17.2374   26.1884 C   0  0  2  0  0  0  0  0  0  0  0  0
    9.5578  -15.9683   25.5645 N   0  0  0  0  0  0  0  0  0  0  0  0
   10.5080  -17.0726   27.5100 C   0  0  0  0  0  0  0  0  0  0  0  0
   10.7460  -15.8287   28.0524 O   0  0  0  0  0  0  0  0  0  0  0  0
   10.8457  -18.0842   28.1605 O   0  0  0  0  0  0  0  0  0  0  0  0
  2  1  1  6
  3  2  1  0
  4  3  1  0
  5  2  1  0
  6  5  2  0
  7  8  1  0
  8  9  1  0
  9 11  1  0
  9 10  1  1
 11 13  1  0
 11 12  1  6
 12  5  1  0
 13 18  1  0
 14 13  2  0
 15 16  1  0
 17 19  1  0
 17 16  1  6
 18 17  1  0
 19 21  2  0
 19 20  1  0
M  END
$$$$
