CIS.pdb
     RDKit          3D

 21 20  0  0  1  0  0  0  0  0999 V2000
    7.8404  -15.2353   20.4199 N   0  0  0  0  0  0  0  0  0  0  0  0
    7.1531  -15.6264   21.6106 C   0  0  1  0  0  0  0  0  0  0  0  0
    6.8150  -17.1130   21.5946 C   0  0  0  0  0  0  0  0  0  0  0  0
    5.4063  -17.4354   20.5011 S   0  0  0  0  0  0  0  0  0  0  0  0
    7.9119  -15.2788   22.8450 C   0  0  0  0  0  0  0  0  0  0  0  0
    9.1626  -15.4004   22.8851 O   0  0  0  0  0  0  0  0  0  0  0  0
    5.8165  -11.6195   26.3625 C   0  0  0  0  0  0  0  0  0  0  0  0
    6.8830  -12.2747   25.5027 C   0  0  0  0  0  0  0  0  0  0  0  0
    7.2668  -13.5596   26.1510 C   0  0  2  0  0  0  0  0  0  0  0  0
    8.1769  -13.2441   27.3206 C   0  0  0  0  0  0  0  0  0  0  0  0
    8.0054  -14.5062   25.2481 C   0  0  2  0  0  0  0  0  0  0  0  0
    7.2803  -14.7984   24.0282 N   0  0  0  0  0  0  0  0  0  0  0  0
    8.3354  -15.7920   25.9122 C   0  0  0  0  0  0  0  0  0  0  0  0
    7.4342  -16.5856   26.2938 O   0  0  0  0  0  0  0  0  0  0  0  0
   12.0707  -17.4435   25.4841 O   0  0  0  0  0  0  0  0  0  0  0  0
   10.9450  -18.1982   25.7377 C   0  0  0  0  0  0  0  0  0  0  0  0
   10.0151  -17.4905   26.7280 C   0  0  2  0  0  0  0  0  0  0  0  0
    9.6752  -16.2043   26.1569 N   0  0  0  0  0  0  0  0  0  0  0  0
   10.6488  -17.3657   28.0570 C   0  0  0  0  0  0  0  0  0  0  0  0
   11.0221  -18.4703   28.7910 O   0  0  0  0  0  0  0  0  0  0  0  0
   10.8556  -16.2306   28.5358 O   0  0  0  0  0  0  0  0  0  0  0  0
  2  1  1  6
  3  2  1  0
  4  3  1  0
  5  2  1  0
  6  5  2  0
  7  8  1  0
  8  9  1  0
  9 11  1  0
  9 10  1  1
 11 13  1  0
 11 12  1  6
 12  5  1  0
 13 18  1  0
 14 13  2  0
 15 16  1  0
 17 19  1  0
 17 16  1  6
 18 17  1  0
 19 21  2  0
 19 20  1  0
M  END
$$$$
