CIS.pdb
     RDKit          3D

 21 20  0  0  1  0  0  0  0  0999 V2000
    4.8762  -19.2208   24.2386 N   0  0  0  0  0  0  0  0  0  0  0  0
    5.7673  -18.6196   25.1807 C   0  0  1  0  0  0  0  0  0  0  0  0
    6.8273  -19.6085   25.6528 C   0  0  0  0  0  0  0  0  0  0  0  0
    6.5240  -20.0970   27.3714 S   0  0  0  0  0  0  0  0  0  0  0  0
    6.4087  -17.3845   24.6482 C   0  0  0  0  0  0  0  0  0  0  0  0
    6.7284  -17.2992   23.4352 O   0  0  0  0  0  0  0  0  0  0  0  0
    6.0522  -12.2607   27.0383 C   0  0  0  0  0  0  0  0  0  0  0  0
    6.0398  -13.3440   25.9741 C   0  0  0  0  0  0  0  0  0  0  0  0
    7.4028  -13.9416   25.9146 C   0  0  2  0  0  0  0  0  0  0  0  0
    8.3558  -12.8900   25.3837 C   0  0  0  0  0  0  0  0  0  0  0  0
    7.5088  -15.1406   25.0156 C   0  0  2  0  0  0  0  0  0  0  0  0
    6.6922  -16.2507   25.4630 N   0  0  0  0  0  0  0  0  0  0  0  0
    8.9047  -15.6216   24.8639 C   0  0  0  0  0  0  0  0  0  0  0  0
    9.5664  -16.0427   25.8499 O   0  0  0  0  0  0  0  0  0  0  0  0
   11.2319  -15.2420   21.3077 O   0  0  0  0  0  0  0  0  0  0  0  0
   10.9752  -16.4829   21.8512 C   0  0  0  0  0  0  0  0  0  0  0  0
   10.7859  -16.3948   23.3686 C   0  0  2  0  0  0  0  0  0  0  0  0
    9.5757  -15.6372   23.6090 N   0  0  0  0  0  0  0  0  0  0  0  0
   11.9668  -15.7888   24.0179 C   0  0  0  0  0  0  0  0  0  0  0  0
   11.8600  -14.6866   24.8377 O   0  0  0  0  0  0  0  0  0  0  0  0
   13.0973  -16.2833   23.8235 O   0  0  0  0  0  0  0  0  0  0  0  0
  2  1  1  6
  3  2  1  0
  4  3  1  0
  5  2  1  0
  6  5  2  0
  7  8  1  0
  8  9  1  0
  9 11  1  0
  9 10  1  6
 11 13  1  0
 11 12  1  1
 12  5  1  0
 13 18  1  0
 14 13  2  0
 15 16  1  0
 17 19  1  0
 17 16  1  6
 18 17  1  0
 19 21  2  0
 19 20  1  0
M  END
$$$$
