CIS.pdb
     RDKit          3D

 21 20  0  0  1  0  0  0  0  0999 V2000
    6.9959  -16.7664   20.6374 N   0  0  0  0  0  0  0  0  0  0  0  0
    6.6515  -16.9567   22.0115 C   0  0  1  0  0  0  0  0  0  0  0  0
    6.6351  -18.4359   22.3809 C   0  0  0  0  0  0  0  0  0  0  0  0
    5.9916  -18.6675   24.0591 S   0  0  0  0  0  0  0  0  0  0  0  0
    7.5470  -16.2008   22.9318 C   0  0  0  0  0  0  0  0  0  0  0  0
    8.7962  -16.2533   22.7986 O   0  0  0  0  0  0  0  0  0  0  0  0
    7.3345  -11.6070   27.0641 C   0  0  0  0  0  0  0  0  0  0  0  0
    8.1342  -12.7795   26.5237 C   0  0  0  0  0  0  0  0  0  0  0  0
    7.2349  -13.5806   25.6473 C   0  0  2  0  0  0  0  0  0  0  0  0
    6.1399  -14.1729   26.5110 C   0  0  0  0  0  0  0  0  0  0  0  0
    7.9180  -14.7182   24.9429 C   0  0  2  0  0  0  0  0  0  0  0  0
    7.0532  -15.3909   23.9948 N   0  0  0  0  0  0  0  0  0  0  0  0
    8.4567  -15.7333   25.8823 C   0  0  0  0  0  0  0  0  0  0  0  0
    7.6948  -16.4461   26.5887 O   0  0  0  0  0  0  0  0  0  0  0  0
   12.6095  -16.4509   26.1625 O   0  0  0  0  0  0  0  0  0  0  0  0
   11.6979  -17.4772   26.2917 C   0  0  0  0  0  0  0  0  0  0  0  0
   10.3909  -16.9818   26.9181 C   0  0  2  0  0  0  0  0  0  0  0  0
    9.8521  -15.9625   26.0422 N   0  0  0  0  0  0  0  0  0  0  0  0
   10.6143  -16.4826   28.2908 C   0  0  0  0  0  0  0  0  0  0  0  0
   11.0688  -17.3050   29.2983 O   0  0  0  0  0  0  0  0  0  0  0  0
   10.3871  -15.2827   28.5537 O   0  0  0  0  0  0  0  0  0  0  0  0
  2  1  1  6
  3  2  1  0
  4  3  1  0
  5  2  1  0
  6  5  2  0
  7  8  1  0
  8  9  1  0
  9 11  1  0
  9 10  1  1
 11 13  1  0
 11 12  1  6
 12  5  1  0
 13 18  1  0
 14 13  2  0
 15 16  1  0
 17 19  1  0
 17 16  1  6
 18 17  1  0
 19 21  2  0
 19 20  1  0
M  END
$$$$
