CIS.pdb
     RDKit          3D

 21 20  0  0  1  0  0  0  0  0999 V2000
    9.2399  -18.0776   16.0260 N   0  0  0  0  0  0  0  0  0  0  0  0
    8.3170  -17.7976   17.0810 C   0  0  1  0  0  0  0  0  0  0  0  0
    7.6198  -19.0657   17.5609 C   0  0  0  0  0  0  0  0  0  0  0  0
    6.7590  -19.8789   16.1890 S   0  0  0  0  0  0  0  0  0  0  0  0
    8.9593  -17.0923   18.2257 C   0  0  0  0  0  0  0  0  0  0  0  0
   10.2063  -17.1264   18.3825 O   0  0  0  0  0  0  0  0  0  0  0  0
    6.8206  -12.3708   20.2878 C   0  0  0  0  0  0  0  0  0  0  0  0
    7.8039  -13.3793   19.7200 C   0  0  0  0  0  0  0  0  0  0  0  0
    7.9933  -14.4535   20.7343 C   0  0  2  0  0  0  0  0  0  0  0  0
    8.6830  -13.8476   21.9397 C   0  0  0  0  0  0  0  0  0  0  0  0
    8.8386  -15.6019   20.2616 C   0  0  2  0  0  0  0  0  0  0  0  0
    8.2159  -16.3529   19.1904 N   0  0  0  0  0  0  0  0  0  0  0  0
    9.1834  -16.5472   21.3529 C   0  0  0  0  0  0  0  0  0  0  0  0
    8.2988  -17.2271   21.9383 O   0  0  0  0  0  0  0  0  0  0  0  0
   13.1148  -17.6398   21.9708 O   0  0  0  0  0  0  0  0  0  0  0  0
   12.0862  -18.4794   22.3425 C   0  0  0  0  0  0  0  0  0  0  0  0
   10.8752  -17.6851   22.8412 C   0  0  2  0  0  0  0  0  0  0  0  0
   10.5197  -16.7425   21.8013 N   0  0  0  0  0  0  0  0  0  0  0  0
   11.1685  -17.0191   24.1272 C   0  0  0  0  0  0  0  0  0  0  0  0
   11.4731  -17.7356   25.2639 O   0  0  0  0  0  0  0  0  0  0  0  0
   11.1417  -15.7721   24.1944 O   0  0  0  0  0  0  0  0  0  0  0  0
  2  1  1  6
  3  2  1  0
  4  3  1  0
  5  2  1  0
  6  5  2  0
  7  8  1  0
  8  9  1  0
  9 11  1  0
  9 10  1  1
 11 13  1  0
 11 12  1  6
 12  5  1  0
 13 18  1  0
 14 13  2  0
 15 16  1  0
 17 19  1  0
 17 16  1  6
 18 17  1  0
 19 21  2  0
 19 20  1  0
M  END
$$$$
