CIS.pdb
     RDKit          3D

 21 20  0  0  1  0  0  0  0  0999 V2000
    7.5497  -14.9249   20.0843 N   0  0  0  0  0  0  0  0  0  0  0  0
    6.9589  -15.4188   21.2885 C   0  0  1  0  0  0  0  0  0  0  0  0
    6.7442  -16.9269   21.2246 C   0  0  0  0  0  0  0  0  0  0  0  0
    5.0316  -17.3090   20.7717 S   0  0  0  0  0  0  0  0  0  0  0  0
    7.7487  -15.0568   22.4990 C   0  0  0  0  0  0  0  0  0  0  0  0
    9.0051  -15.1024   22.4830 O   0  0  0  0  0  0  0  0  0  0  0  0
    5.8262  -11.5723   26.4495 C   0  0  0  0  0  0  0  0  0  0  0  0
    6.6996  -12.2281   25.3943 C   0  0  0  0  0  0  0  0  0  0  0  0
    7.1372  -13.5508   25.9211 C   0  0  2  0  0  0  0  0  0  0  0  0
    8.0509  -13.3079   27.1052 C   0  0  0  0  0  0  0  0  0  0  0  0
    7.8968  -14.3857   24.9297 C   0  0  2  0  0  0  0  0  0  0  0  0
    7.1418  -14.6461   23.7209 N   0  0  0  0  0  0  0  0  0  0  0  0
    8.3359  -15.6868   25.4932 C   0  0  0  0  0  0  0  0  0  0  0  0
    7.5134  -16.4948   26.0014 O   0  0  0  0  0  0  0  0  0  0  0  0
   12.3335  -16.9949   25.1016 O   0  0  0  0  0  0  0  0  0  0  0  0
   11.2656  -17.8664   25.0694 C   0  0  0  0  0  0  0  0  0  0  0  0
   10.1335  -17.3896   25.9843 C   0  0  2  0  0  0  0  0  0  0  0  0
    9.6981  -16.0985   25.4947 N   0  0  0  0  0  0  0  0  0  0  0  0
   10.5746  -17.3368   27.3936 C   0  0  0  0  0  0  0  0  0  0  0  0
   10.9602  -18.4690   28.0774 O   0  0  0  0  0  0  0  0  0  0  0  0
   10.6018  -16.2391   27.9890 O   0  0  0  0  0  0  0  0  0  0  0  0
  2  1  1  6
  3  2  1  0
  4  3  1  0
  5  2  1  0
  6  5  2  0
  7  8  1  0
  8  9  1  0
  9 11  1  0
  9 10  1  1
 11 13  1  0
 11 12  1  6
 12  5  1  0
 13 18  1  0
 14 13  2  0
 15 16  1  0
 17 19  1  0
 17 16  1  6
 18 17  1  0
 19 21  2  0
 19 20  1  0
M  END
$$$$
