CIS.pdb
     RDKit          3D

 21 20  0  0  1  0  0  0  0  0999 V2000
    9.4339  -17.8914   15.9836 N   0  0  0  0  0  0  0  0  0  0  0  0
    8.5247  -17.7569   17.0783 C   0  0  1  0  0  0  0  0  0  0  0  0
    8.0472  -19.1170   17.5749 C   0  0  0  0  0  0  0  0  0  0  0  0
    6.9737  -19.9044   16.3452 S   0  0  0  0  0  0  0  0  0  0  0  0
    9.1010  -16.9661   18.2020 C   0  0  0  0  0  0  0  0  0  0  0  0
   10.3458  -16.8944   18.3642 O   0  0  0  0  0  0  0  0  0  0  0  0
    6.6674  -12.3486   20.1821 C   0  0  0  0  0  0  0  0  0  0  0  0
    7.6824  -13.3317   19.6258 C   0  0  0  0  0  0  0  0  0  0  0  0
    7.9337  -14.3670   20.6667 C   0  0  2  0  0  0  0  0  0  0  0  0
    8.5819  -13.6906   21.8576 C   0  0  0  0  0  0  0  0  0  0  0  0
    8.8486  -15.4733   20.2240 C   0  0  2  0  0  0  0  0  0  0  0  0
    8.2947  -16.2589   19.1398 N   0  0  0  0  0  0  0  0  0  0  0  0
    9.2093  -16.3958   21.3295 C   0  0  0  0  0  0  0  0  0  0  0  0
    8.3289  -17.0221   21.9777 O   0  0  0  0  0  0  0  0  0  0  0  0
   12.9745  -18.0637   21.6606 O   0  0  0  0  0  0  0  0  0  0  0  0
   11.8264  -18.6106   22.1936 C   0  0  0  0  0  0  0  0  0  0  0  0
   10.9246  -17.5283   22.7949 C   0  0  2  0  0  0  0  0  0  0  0  0
   10.5573  -16.6280   21.7222 N   0  0  0  0  0  0  0  0  0  0  0  0
   11.6007  -16.8303   23.9080 C   0  0  0  0  0  0  0  0  0  0  0  0
   11.8928  -17.4666   25.0946 O   0  0  0  0  0  0  0  0  0  0  0  0
   11.9198  -15.6296   23.7779 O   0  0  0  0  0  0  0  0  0  0  0  0
  2  1  1  6
  3  2  1  0
  4  3  1  0
  5  2  1  0
  6  5  2  0
  7  8  1  0
  8  9  1  0
  9 11  1  0
  9 10  1  1
 11 13  1  0
 11 12  1  6
 12  5  1  0
 13 18  1  0
 14 13  2  0
 15 16  1  0
 17 19  1  0
 17 16  1  6
 18 17  1  0
 19 21  2  0
 19 20  1  0
M  END
$$$$
