CIS.pdb
     RDKit          3D

 21 20  0  0  1  0  0  0  0  0999 V2000
    7.6688  -14.7331   20.1765 N   0  0  0  0  0  0  0  0  0  0  0  0
    7.0989  -15.3426   21.3370 C   0  0  1  0  0  0  0  0  0  0  0  0
    6.9636  -16.8513   21.1630 C   0  0  0  0  0  0  0  0  0  0  0  0
    5.5234  -17.2488   20.1373 S   0  0  0  0  0  0  0  0  0  0  0  0
    7.8628  -15.0286   22.5772 C   0  0  0  0  0  0  0  0  0  0  0  0
    9.1200  -15.0460   22.5783 O   0  0  0  0  0  0  0  0  0  0  0  0
    5.8854  -11.5789   26.4263 C   0  0  0  0  0  0  0  0  0  0  0  0
    6.8276  -12.2440   25.4383 C   0  0  0  0  0  0  0  0  0  0  0  0
    7.2099  -13.5718   25.9945 C   0  0  2  0  0  0  0  0  0  0  0  0
    8.1047  -13.3401   27.1951 C   0  0  0  0  0  0  0  0  0  0  0  0
    7.9634  -14.4463   25.0330 C   0  0  2  0  0  0  0  0  0  0  0  0
    7.2292  -14.6969   23.8094 N   0  0  0  0  0  0  0  0  0  0  0  0
    8.3425  -15.7541   25.6240 C   0  0  0  0  0  0  0  0  0  0  0  0
    7.4718  -16.5914   25.9821 O   0  0  0  0  0  0  0  0  0  0  0  0
   12.1577  -17.2334   25.1900 O   0  0  0  0  0  0  0  0  0  0  0  0
   11.0807  -18.0619   25.4243 C   0  0  0  0  0  0  0  0  0  0  0  0
   10.0831  -17.4143   26.3895 C   0  0  2  0  0  0  0  0  0  0  0  0
    9.6981  -16.1397   25.8209 N   0  0  0  0  0  0  0  0  0  0  0  0
   10.6643  -17.2745   27.7409 C   0  0  0  0  0  0  0  0  0  0  0  0
   11.1060  -18.3644   28.4586 O   0  0  0  0  0  0  0  0  0  0  0  0
   10.7616  -16.1399   28.2543 O   0  0  0  0  0  0  0  0  0  0  0  0
  2  1  1  6
  3  2  1  0
  4  3  1  0
  5  2  1  0
  6  5  2  0
  7  8  1  0
  8  9  1  0
  9 11  1  0
  9 10  1  1
 11 13  1  0
 11 12  1  6
 12  5  1  0
 13 18  1  0
 14 13  2  0
 15 16  1  0
 17 19  1  0
 17 16  1  6
 18 17  1  0
 19 21  2  0
 19 20  1  0
M  END
$$$$
