CIS.pdb
     RDKit          3D

 21 20  0  0  1  0  0  0  0  0999 V2000
    5.9545  -15.5439   20.4652 N   0  0  0  0  0  0  0  0  0  0  0  0
    5.8298  -16.0465   21.7974 C   0  0  1  0  0  0  0  0  0  0  0  0
    5.7530  -17.5691   21.8123 C   0  0  0  0  0  0  0  0  0  0  0  0
    5.1579  -18.1624   23.4180 S   0  0  0  0  0  0  0  0  0  0  0  0
    6.9257  -15.5723   22.6887 C   0  0  0  0  0  0  0  0  0  0  0  0
    8.1162  -15.5481   22.2850 O   0  0  0  0  0  0  0  0  0  0  0  0
    5.8707  -11.9690   26.8149 C   0  0  0  0  0  0  0  0  0  0  0  0
    6.5164  -12.5882   25.5878 C   0  0  0  0  0  0  0  0  0  0  0  0
    7.2467  -13.8109   26.0237 C   0  0  2  0  0  0  0  0  0  0  0  0
    8.4461  -13.3771   26.8418 C   0  0  0  0  0  0  0  0  0  0  0  0
    7.7558  -14.6580   24.8923 C   0  0  2  0  0  0  0  0  0  0  0  0
    6.6963  -15.1276   24.0226 N   0  0  0  0  0  0  0  0  0  0  0  0
    8.5290  -15.8353   25.3605 C   0  0  0  0  0  0  0  0  0  0  0  0
    8.0262  -16.6828   26.1456 O   0  0  0  0  0  0  0  0  0  0  0  0
   12.3690  -16.5881   23.8225 O   0  0  0  0  0  0  0  0  0  0  0  0
   11.4806  -17.6161   24.0571 C   0  0  0  0  0  0  0  0  0  0  0  0
   10.5780  -17.3060   25.2552 C   0  0  2  0  0  0  0  0  0  0  0  0
    9.8718  -16.0778   24.9565 N   0  0  0  0  0  0  0  0  0  0  0  0
   11.3634  -17.2136   26.5033 C   0  0  0  0  0  0  0  0  0  0  0  0
   11.3913  -16.0633   27.2612 O   0  0  0  0  0  0  0  0  0  0  0  0
   12.0235  -18.2013   26.8894 O   0  0  0  0  0  0  0  0  0  0  0  0
  2  1  1  6
  3  2  1  0
  4  3  1  0
  5  2  1  0
  6  5  2  0
  7  8  1  0
  8  9  1  0
  9 11  1  0
  9 10  1  1
 11 13  1  0
 11 12  1  1
 12  5  1  0
 13 18  1  0
 14 13  2  0
 15 16  1  0
 17 19  1  0
 17 16  1  6
 18 17  1  0
 19 21  2  0
 19 20  1  0
M  END
$$$$
