CIS.pdb
     RDKit          3D

 21 20  0  0  1  0  0  0  0  0999 V2000
    7.7543  -14.1276   19.8903 N   0  0  0  0  0  0  0  0  0  0  0  0
    7.0573  -14.7352   20.9804 C   0  0  1  0  0  0  0  0  0  0  0  0
    6.7436  -16.1992   20.6928 C   0  0  0  0  0  0  0  0  0  0  0  0
    5.9451  -16.9737   22.1236 S   0  0  0  0  0  0  0  0  0  0  0  0
    7.7936  -14.6045   22.2692 C   0  0  0  0  0  0  0  0  0  0  0  0
    9.0432  -14.7372   22.3109 O   0  0  0  0  0  0  0  0  0  0  0  0
    5.6572  -11.5928   26.4674 C   0  0  0  0  0  0  0  0  0  0  0  0
    6.6226  -12.1032   25.4121 C   0  0  0  0  0  0  0  0  0  0  0  0
    7.0494  -13.4742   25.8081 C   0  0  2  0  0  0  0  0  0  0  0  0
    7.9172  -13.3591   27.0448 C   0  0  0  0  0  0  0  0  0  0  0  0
    7.8507  -14.1942   24.7610 C   0  0  2  0  0  0  0  0  0  0  0  0
    7.1408  -14.3274   23.5049 N   0  0  0  0  0  0  0  0  0  0  0  0
    8.2811  -15.5460   25.1975 C   0  0  0  0  0  0  0  0  0  0  0  0
    7.4437  -16.4373   25.5005 O   0  0  0  0  0  0  0  0  0  0  0  0
   12.2632  -16.8040   24.7839 O   0  0  0  0  0  0  0  0  0  0  0  0
   11.1911  -17.6697   24.7370 C   0  0  0  0  0  0  0  0  0  0  0  0
   10.0860  -17.2362   25.7050 C   0  0  2  0  0  0  0  0  0  0  0  0
    9.6514  -15.9159   25.3000 N   0  0  0  0  0  0  0  0  0  0  0  0
   10.5615  -17.2672   27.1037 C   0  0  0  0  0  0  0  0  0  0  0  0
   10.9456  -18.4405   27.7151 O   0  0  0  0  0  0  0  0  0  0  0  0
   10.6199  -16.2042   27.7573 O   0  0  0  0  0  0  0  0  0  0  0  0
  2  1  1  6
  3  2  1  0
  4  3  1  0
  5  2  1  0
  6  5  2  0
  7  8  1  0
  8  9  1  0
  9 11  1  0
  9 10  1  1
 11 13  1  0
 11 12  1  6
 12  5  1  0
 13 18  1  0
 14 13  2  0
 15 16  1  0
 17 19  1  0
 17 16  1  6
 18 17  1  0
 19 21  2  0
 19 20  1  0
M  END
$$$$
