CIS.pdb
     RDKit          3D

 21 20  0  0  1  0  0  0  0  0999 V2000
    8.0417  -15.7571   20.4348 N   0  0  0  0  0  0  0  0  0  0  0  0
    7.2436  -16.0856   21.5743 C   0  0  1  0  0  0  0  0  0  0  0  0
    6.8053  -17.5455   21.5438 C   0  0  0  0  0  0  0  0  0  0  0  0
    5.6946  -17.9073   22.9294 S   0  0  0  0  0  0  0  0  0  0  0  0
    7.9324  -15.7761   22.8588 C   0  0  0  0  0  0  0  0  0  0  0  0
    9.1582  -16.0155   23.0038 O   0  0  0  0  0  0  0  0  0  0  0  0
    6.0598  -11.7364   26.2052 C   0  0  0  0  0  0  0  0  0  0  0  0
    6.9399  -12.6051   25.3236 C   0  0  0  0  0  0  0  0  0  0  0  0
    7.1927  -13.8821   26.0475 C   0  0  2  0  0  0  0  0  0  0  0  0
    8.0487  -13.5754   27.2596 C   0  0  0  0  0  0  0  0  0  0  0  0
    7.9180  -14.9158   25.2337 C   0  0  2  0  0  0  0  0  0  0  0  0
    7.2589  -15.2029   23.9758 N   0  0  0  0  0  0  0  0  0  0  0  0
    8.1025  -16.1946   25.9644 C   0  0  0  0  0  0  0  0  0  0  0  0
    7.1196  -16.8493   26.4034 O   0  0  0  0  0  0  0  0  0  0  0  0
   11.3697  -18.5767   25.4694 O   0  0  0  0  0  0  0  0  0  0  0  0
   10.1747  -19.0129   26.0012 C   0  0  0  0  0  0  0  0  0  0  0  0
    9.5852  -17.9769   26.9630 C   0  0  2  0  0  0  0  0  0  0  0  0
    9.3869  -16.7550   26.2122 N   0  0  0  0  0  0  0  0  0  0  0  0
   10.4622  -17.7800   28.1359 C   0  0  0  0  0  0  0  0  0  0  0  0
   10.7385  -18.8027   29.0168 O   0  0  0  0  0  0  0  0  0  0  0  0
   10.9714  -16.6581   28.3419 O   0  0  0  0  0  0  0  0  0  0  0  0
  2  1  1  6
  3  2  1  0
  4  3  1  0
  5  2  1  0
  6  5  2  0
  7  8  1  0
  8  9  1  0
  9 11  1  0
  9 10  1  1
 11 13  1  0
 11 12  1  6
 12  5  1  0
 13 18  1  0
 14 13  2  0
 15 16  1  0
 17 19  1  0
 17 16  1  6
 18 17  1  0
 19 21  2  0
 19 20  1  0
M  END
$$$$
