CIS.pdb
     RDKit          3D

 21 20  0  0  1  0  0  0  0  0999 V2000
    6.1704  -16.3224   20.8888 N   0  0  0  0  0  0  0  0  0  0  0  0
    5.9233  -16.4999   22.2855 C   0  0  1  0  0  0  0  0  0  0  0  0
    5.6865  -17.9670   22.6261 C   0  0  0  0  0  0  0  0  0  0  0  0
    4.1443  -18.5551   21.8777 S   0  0  0  0  0  0  0  0  0  0  0  0
    7.0142  -15.9391   23.1315 C   0  0  0  0  0  0  0  0  0  0  0  0
    8.2029  -15.9281   22.7219 O   0  0  0  0  0  0  0  0  0  0  0  0
    5.9377  -11.9025   26.6963 C   0  0  0  0  0  0  0  0  0  0  0  0
    6.6932  -12.6508   25.6121 C   0  0  0  0  0  0  0  0  0  0  0  0
    7.3431  -13.8339   26.2417 C   0  0  2  0  0  0  0  0  0  0  0  0
    8.5392  -13.3484   27.0350 C   0  0  0  0  0  0  0  0  0  0  0  0
    7.8390  -14.8570   25.2597 C   0  0  2  0  0  0  0  0  0  0  0  0
    6.7817  -15.3935   24.4269 N   0  0  0  0  0  0  0  0  0  0  0  0
    8.5349  -15.9917   25.9163 C   0  0  0  0  0  0  0  0  0  0  0  0
    8.0006  -16.6344   26.8592 O   0  0  0  0  0  0  0  0  0  0  0  0
   12.3990  -17.0595   24.7381 O   0  0  0  0  0  0  0  0  0  0  0  0
   11.5014  -18.0697   25.0118 C   0  0  0  0  0  0  0  0  0  0  0  0
   10.4590  -17.6210   26.0406 C   0  0  2  0  0  0  0  0  0  0  0  0
    9.8347  -16.4201   25.5264 N   0  0  0  0  0  0  0  0  0  0  0  0
   11.0763  -17.4102   27.3664 C   0  0  0  0  0  0  0  0  0  0  0  0
   11.0543  -16.1827   27.9916 O   0  0  0  0  0  0  0  0  0  0  0  0
   11.6358  -18.3664   27.9435 O   0  0  0  0  0  0  0  0  0  0  0  0
  2  1  1  6
  3  2  1  0
  4  3  1  0
  5  2  1  0
  6  5  2  0
  7  8  1  0
  8  9  1  0
  9 11  1  0
  9 10  1  6
 11 13  1  0
 11 12  1  1
 12  5  1  0
 13 18  1  0
 14 13  2  0
 15 16  1  0
 17 19  1  0
 17 16  1  6
 18 17  1  0
 19 21  2  0
 19 20  1  0
M  END
$$$$
