CIS.pdb
     RDKit          3D

 21 20  0  0  1  0  0  0  0  0999 V2000
    4.5763  -18.7719   23.5835 N   0  0  0  0  0  0  0  0  0  0  0  0
    5.5053  -18.4769   24.6290 C   0  0  1  0  0  0  0  0  0  0  0  0
    6.3766  -19.6846   24.9556 C   0  0  0  0  0  0  0  0  0  0  0  0
    6.7709  -19.7275   26.7239 S   0  0  0  0  0  0  0  0  0  0  0  0
    6.3538  -17.2923   24.3177 C   0  0  0  0  0  0  0  0  0  0  0  0
    6.8894  -17.1657   23.1872 O   0  0  0  0  0  0  0  0  0  0  0  0
    6.0113  -12.2928   26.9142 C   0  0  0  0  0  0  0  0  0  0  0  0
    6.1194  -13.3238   25.8045 C   0  0  0  0  0  0  0  0  0  0  0  0
    7.4111  -14.0455   25.9756 C   0  0  2  0  0  0  0  0  0  0  0  0
    8.5366  -13.0696   25.6988 C   0  0  0  0  0  0  0  0  0  0  0  0
    7.5893  -15.2135   25.0478 C   0  0  2  0  0  0  0  0  0  0  0  0
    6.6043  -16.2545   25.2611 N   0  0  0  0  0  0  0  0  0  0  0  0
    8.9390  -15.8233   25.1465 C   0  0  0  0  0  0  0  0  0  0  0  0
    9.3749  -16.2837   26.2352 O   0  0  0  0  0  0  0  0  0  0  0  0
   11.6257  -15.7322   21.9228 O   0  0  0  0  0  0  0  0  0  0  0  0
   11.4868  -16.9143   22.6188 C   0  0  0  0  0  0  0  0  0  0  0  0
   11.0636  -16.6574   24.0684 C   0  0  2  0  0  0  0  0  0  0  0  0
    9.8154  -15.9248   24.0299 N   0  0  0  0  0  0  0  0  0  0  0  0
   12.1173  -15.9341   24.8101 C   0  0  0  0  0  0  0  0  0  0  0  0
   13.3837  -16.4538   24.9659 O   0  0  0  0  0  0  0  0  0  0  0  0
   11.8611  -14.8197   25.3130 O   0  0  0  0  0  0  0  0  0  0  0  0
  2  1  1  6
  3  2  1  0
  4  3  1  0
  5  2  1  0
  6  5  2  0
  7  8  1  0
  8  9  1  0
  9 11  1  0
  9 10  1  6
 11 13  1  0
 11 12  1  1
 12  5  1  0
 13 18  1  0
 14 13  2  0
 15 16  1  0
 17 19  1  0
 17 16  1  6
 18 17  1  0
 19 21  2  0
 19 20  1  0
M  END
$$$$
