CIS.pdb
     RDKit          3D

 21 20  0  0  1  0  0  0  0  0999 V2000
    6.9102  -16.0703   20.3193 N   0  0  0  0  0  0  0  0  0  0  0  0
    6.4988  -16.2900   21.6704 C   0  0  1  0  0  0  0  0  0  0  0  0
    6.1300  -17.7500   21.9089 C   0  0  0  0  0  0  0  0  0  0  0  0
    5.4471  -17.9720   23.5729 S   0  0  0  0  0  0  0  0  0  0  0  0
    7.5238  -15.8448   22.6561 C   0  0  0  0  0  0  0  0  0  0  0  0
    8.7463  -16.0541   22.4497 O   0  0  0  0  0  0  0  0  0  0  0  0
    6.3742  -12.3693   27.1811 C   0  0  0  0  0  0  0  0  0  0  0  0
    6.5440  -13.6576   26.3952 C   0  0  0  0  0  0  0  0  0  0  0  0
    7.8037  -13.5497   25.6078 C   0  0  2  0  0  0  0  0  0  0  0  0
    7.6264  -12.4476   24.5832 C   0  0  0  0  0  0  0  0  0  0  0  0
    8.1716  -14.8018   24.8635 C   0  0  2  0  0  0  0  0  0  0  0  0
    7.1883  -15.1701   23.8652 N   0  0  0  0  0  0  0  0  0  0  0  0
    8.3783  -15.9638   25.7636 C   0  0  0  0  0  0  0  0  0  0  0  0
    7.4139  -16.5156   26.3577 O   0  0  0  0  0  0  0  0  0  0  0  0
   11.8403  -18.1822   25.5899 O   0  0  0  0  0  0  0  0  0  0  0  0
   10.6605  -18.7046   26.0761 C   0  0  0  0  0  0  0  0  0  0  0  0
    9.8804  -17.6588   26.8785 C   0  0  2  0  0  0  0  0  0  0  0  0
    9.6644  -16.5214   26.0091 N   0  0  0  0  0  0  0  0  0  0  0  0
   10.6000  -17.2920   28.1158 C   0  0  0  0  0  0  0  0  0  0  0  0
   10.8909  -18.2215   29.0903 O   0  0  0  0  0  0  0  0  0  0  0  0
   10.9582  -16.1082   28.2912 O   0  0  0  0  0  0  0  0  0  0  0  0
  2  1  1  6
  3  2  1  0
  4  3  1  0
  5  2  1  0
  6  5  2  0
  7  8  1  0
  8  9  1  0
  9 11  1  0
  9 10  1  6
 11 13  1  0
 11 12  1  6
 12  5  1  0
 13 18  1  0
 14 13  2  0
 15 16  1  0
 17 19  1  0
 17 16  1  6
 18 17  1  0
 19 21  2  0
 19 20  1  0
M  END
$$$$
