SVT.pdb
     RDKit          3D

 21 20  0  0  1  0  0  0  0  0999 V2000
   23.0172  -10.2776  -22.2033 O   0  0  0  0  0  0  0  0  0  0  0  0
   22.7311   -9.9967  -20.8913 C   0  0  0  0  0  0  0  0  0  0  0  0
   23.3894  -10.9320  -19.9068 C   0  0  2  0  0  0  0  0  0  0  0  0
   23.0046  -12.2942  -20.0874 N   0  0  0  0  0  0  0  0  0  0  0  0
   23.1597  -10.5146  -18.5007 C   0  0  0  0  0  0  0  0  0  0  0  0
   22.0188  -10.6145  -18.0002 O   0  0  0  0  0  0  0  0  0  0  0  0
   26.4532   -9.9029  -15.9259 C   0  0  0  0  0  0  0  0  0  0  0  0
   25.0457  -10.1272  -15.3835 C   0  0  1  0  0  0  0  0  0  0  0  0
   24.9876   -9.6627  -13.9827 C   0  0  0  0  0  0  0  0  0  0  0  0
   24.0968   -9.5192  -16.3554 C   0  0  2  0  0  0  0  0  0  0  0  0
   24.2220   -9.9999  -17.7081 N   0  0  0  0  0  0  0  0  0  0  0  0
   23.9874   -8.0350  -16.2523 C   0  0  0  0  0  0  0  0  0  0  0  0
   24.9374   -7.3390  -16.6943 O   0  0  0  0  0  0  0  0  0  0  0  0
   21.6985   -5.5056  -17.8662 C   0  0  0  0  0  0  0  0  0  0  0  0
   21.5741   -5.4067  -16.3712 C   0  0  1  0  0  0  0  0  0  0  0  0
   20.4870   -6.1285  -15.8673 O   0  0  0  0  0  0  0  0  0  0  0  0
   22.8217   -5.8894  -15.6489 C   0  0  2  0  0  0  0  0  0  0  0  0
   22.8923   -7.3376  -15.6904 N   0  0  0  0  0  0  0  0  0  0  0  0
   22.6737   -5.4889  -14.2285 C   0  0  0  0  0  0  0  0  0  0  0  0
   22.8285   -4.2838  -13.8989 O   0  0  0  0  0  0  0  0  0  0  0  0
   22.3654   -6.4097  -13.2302 O   0  0  0  0  0  0  0  0  0  0  0  0
  2  3  1  0
  2  1  1  0
  3  4  1  1
  5  6  2  0
  5  3  1  0
  8  7  1  6
  8 10  1  0
  9  8  1  0
 10 12  1  0
 10 11  1  6
 11  5  1  0
 12 18  1  0
 13 12  2  0
 15 16  1  0
 15 14  1  6
 17 15  1  0
 17 18  1  1
 19 21  1  0
 19 17  1  0
 20 19  2  0
M  END
$$$$
