SVT.pdb
     RDKit          3D

 21 20  0  0  1  0  0  0  0  0999 V2000
   18.1576  -10.3450  -19.6523 O   0  0  0  0  0  0  0  0  0  0  0  0
   18.6702   -9.8357  -18.4861 C   0  0  0  0  0  0  0  0  0  0  0  0
   19.1681  -10.8872  -17.5249 C   0  0  2  0  0  0  0  0  0  0  0  0
   18.1480  -11.7966  -17.1143 N   0  0  0  0  0  0  0  0  0  0  0  0
   19.8328  -10.2900  -16.3392 C   0  0  0  0  0  0  0  0  0  0  0  0
   19.1518   -9.9593  -15.3446 O   0  0  0  0  0  0  0  0  0  0  0  0
   22.7880  -11.4384  -14.2196 C   0  0  0  0  0  0  0  0  0  0  0  0
   23.2076  -10.1023  -14.8232 C   0  0  1  0  0  0  0  0  0  0  0  0
   24.2649  -10.3361  -15.8276 C   0  0  0  0  0  0  0  0  0  0  0  0
   21.9675   -9.4117  -15.2701 C   0  0  2  0  0  0  0  0  0  0  0  0
   21.2397  -10.0865  -16.3150 N   0  0  0  0  0  0  0  0  0  0  0  0
   22.1360   -7.9480  -15.5035 C   0  0  0  0  0  0  0  0  0  0  0  0
   22.6967   -7.5785  -16.5672 O   0  0  0  0  0  0  0  0  0  0  0  0
   19.5100   -5.0993  -14.2675 C   0  0  0  0  0  0  0  0  0  0  0  0
   20.5903   -4.8770  -15.2891 C   0  0  1  0  0  0  0  0  0  0  0  0
   20.8355   -3.5220  -15.5349 O   0  0  0  0  0  0  0  0  0  0  0  0
   21.9099   -5.5188  -14.8915 C   0  0  2  0  0  0  0  0  0  0  0  0
   21.7147   -6.9296  -14.6165 N   0  0  0  0  0  0  0  0  0  0  0  0
   22.3350   -4.8709  -13.6269 C   0  0  0  0  0  0  0  0  0  0  0  0
   22.3600   -5.5381  -12.5596 O   0  0  0  0  0  0  0  0  0  0  0  0
   22.7136   -3.5317  -13.5746 O   0  0  0  0  0  0  0  0  0  0  0  0
  2  3  1  0
  2  1  1  0
  3  4  1  1
  5  6  2  0
  5  3  1  0
  8  7  1  6
  8 10  1  0
  9  8  1  0
 10 12  1  0
 10 11  1  6
 11  5  1  0
 12 18  1  0
 13 12  2  0
 15 16  1  0
 15 14  1  1
 17 15  1  0
 17 18  1  1
 19 21  1  0
 19 17  1  0
 20 19  2  0
M  END
$$$$
