SVT.pdb
     RDKit          3D

 21 20  0  0  1  0  0  0  0  0999 V2000
   16.4286   -9.9318  -18.7663 O   0  0  0  0  0  0  0  0  0  0  0  0
   17.1356   -9.4476  -17.6949 C   0  0  0  0  0  0  0  0  0  0  0  0
   17.8854  -10.5078  -16.9260 C   0  0  2  0  0  0  0  0  0  0  0  0
   17.0279  -11.4942  -16.3535 N   0  0  0  0  0  0  0  0  0  0  0  0
   18.7658   -9.9235  -15.8830 C   0  0  0  0  0  0  0  0  0  0  0  0
   18.2640   -9.4270  -14.8515 O   0  0  0  0  0  0  0  0  0  0  0  0
   22.9380  -10.6867  -16.0819 C   0  0  0  0  0  0  0  0  0  0  0  0
   22.2427  -10.3759  -14.7607 C   0  0  1  0  0  0  0  0  0  0  0  0
   23.2524   -9.9458  -13.7724 C   0  0  0  0  0  0  0  0  0  0  0  0
   21.1242   -9.4411  -15.0606 C   0  0  2  0  0  0  0  0  0  0  0  0
   20.1791   -9.9189  -16.0379 N   0  0  0  0  0  0  0  0  0  0  0  0
   21.5528   -8.0290  -15.2788 C   0  0  0  0  0  0  0  0  0  0  0  0
   22.2053   -7.7623  -16.3206 O   0  0  0  0  0  0  0  0  0  0  0  0
   19.8454   -5.0140  -16.2880 C   0  0  0  0  0  0  0  0  0  0  0  0
   20.4716   -4.7253  -14.9520 C   0  0  1  0  0  0  0  0  0  0  0  0
   19.5832   -4.9012  -13.8859 O   0  0  0  0  0  0  0  0  0  0  0  0
   21.6925   -5.5897  -14.6812 C   0  0  2  0  0  0  0  0  0  0  0  0
   21.2850   -6.9532  -14.4000 N   0  0  0  0  0  0  0  0  0  0  0  0
   22.3322   -5.0520  -13.4558 C   0  0  0  0  0  0  0  0  0  0  0  0
   22.2895   -5.7139  -12.3857 O   0  0  0  0  0  0  0  0  0  0  0  0
   22.9884   -3.8237  -13.4440 O   0  0  0  0  0  0  0  0  0  0  0  0
  2  3  1  0
  2  1  1  0
  3  4  1  1
  5  6  2  0
  5  3  1  0
  8  7  1  6
  8 10  1  0
  9  8  1  0
 10 12  1  0
 10 11  1  6
 11  5  1  0
 12 18  1  0
 13 12  2  0
 15 16  1  0
 15 14  1  6
 17 15  1  0
 17 18  1  1
 19 21  1  0
 19 17  1  0
 20 19  2  0
M  END
$$$$
