SVT.pdb
     RDKit          3D

 21 20  0  0  1  0  0  0  0  0999 V2000
   14.9908  -13.3218  -11.2667 O   0  0  0  0  0  0  0  0  0  0  0  0
   14.8903  -11.9715  -11.4872 C   0  0  0  0  0  0  0  0  0  0  0  0
   14.0608  -11.2427  -10.4585 C   0  0  2  0  0  0  0  0  0  0  0  0
   12.7094  -11.6980  -10.4062 N   0  0  0  0  0  0  0  0  0  0  0  0
   14.1007   -9.7709  -10.6497 C   0  0  0  0  0  0  0  0  0  0  0  0
   13.3337   -9.2294  -11.4747 O   0  0  0  0  0  0  0  0  0  0  0  0
   13.3919   -6.9908   -8.3914 C   0  0  0  0  0  0  0  0  0  0  0  0
   14.8610   -6.7858   -8.7456 C   0  0  1  0  0  0  0  0  0  0  0  0
   15.6926   -7.1186   -7.5714 C   0  0  0  0  0  0  0  0  0  0  0  0
   15.1173   -7.5286  -10.0095 C   0  0  2  0  0  0  0  0  0  0  0  0
   15.0021   -8.9613   -9.9057 N   0  0  0  0  0  0  0  0  0  0  0  0
   16.3321   -7.0748  -10.7467 C   0  0  0  0  0  0  0  0  0  0  0  0
   17.4580   -7.3307  -10.2475 O   0  0  0  0  0  0  0  0  0  0  0  0
   18.0761   -8.1758  -13.8111 C   0  0  0  0  0  0  0  0  0  0  0  0
   17.6313   -6.7511  -13.9918 C   0  0  1  0  0  0  0  0  0  0  0  0
   16.3910   -6.6456  -14.6297 O   0  0  0  0  0  0  0  0  0  0  0  0
   17.5369   -5.9982  -12.6744 C   0  0  2  0  0  0  0  0  0  0  0  0
   16.3227   -6.3707  -11.9738 N   0  0  0  0  0  0  0  0  0  0  0  0
   17.4343   -4.5579  -13.0131 C   0  0  0  0  0  0  0  0  0  0  0  0
   16.3610   -3.9380  -12.7920 O   0  0  0  0  0  0  0  0  0  0  0  0
   18.4967   -3.8542  -13.5750 O   0  0  0  0  0  0  0  0  0  0  0  0
  2  3  1  0
  2  1  1  0
  3  4  1  6
  5  6  2  0
  5  3  1  0
  8  7  1  1
  8 10  1  0
  9  8  1  0
 10 12  1  0
 10 11  1  1
 11  5  1  0
 12 18  1  0
 13 12  2  0
 15 16  1  0
 15 14  1  1
 17 15  1  0
 17 18  1  6
 19 21  1  0
 19 17  1  0
 20 19  2  0
M  END
$$$$
