SVT.pdb
     RDKit          3D

 21 20  0  0  1  0  0  0  0  0999 V2000
   21.1979  -13.1057  -16.7358 O   0  0  0  0  0  0  0  0  0  0  0  0
   20.6598  -11.8438  -16.7568 C   0  0  0  0  0  0  0  0  0  0  0  0
   19.2995  -11.7470  -16.1107 C   0  0  2  0  0  0  0  0  0  0  0  0
   18.2659  -12.3440  -16.8927 N   0  0  0  0  0  0  0  0  0  0  0  0
   18.9422  -10.3472  -15.7684 C   0  0  0  0  0  0  0  0  0  0  0  0
   18.6010   -9.5533  -16.6714 O   0  0  0  0  0  0  0  0  0  0  0  0
   18.1055   -9.2872  -11.7838 C   0  0  0  0  0  0  0  0  0  0  0  0
   17.7222   -8.3696  -12.9399 C   0  0  1  0  0  0  0  0  0  0  0  0
   17.4802   -7.0093  -12.4179 C   0  0  0  0  0  0  0  0  0  0  0  0
   18.7593   -8.5329  -13.9946 C   0  0  2  0  0  0  0  0  0  0  0  0
   18.9817   -9.8909  -14.4224 N   0  0  0  0  0  0  0  0  0  0  0  0
   20.0153   -7.7704  -13.7368 C   0  0  0  0  0  0  0  0  0  0  0  0
   20.8187   -8.2241  -12.8819 O   0  0  0  0  0  0  0  0  0  0  0  0
   23.0602   -7.1718  -15.8357 C   0  0  0  0  0  0  0  0  0  0  0  0
   22.4388   -5.8527  -15.4695 C   0  0  1  0  0  0  0  0  0  0  0  0
   21.5734   -5.3672  -16.4554 O   0  0  0  0  0  0  0  0  0  0  0  0
   21.6607   -5.9168  -14.1651 C   0  0  2  0  0  0  0  0  0  0  0  0
   20.3807   -6.5644  -14.3799 N   0  0  0  0  0  0  0  0  0  0  0  0
   21.3911   -4.5156  -13.7603 C   0  0  0  0  0  0  0  0  0  0  0  0
   20.2283   -4.0454  -13.8699 O   0  0  0  0  0  0  0  0  0  0  0  0
   22.3908   -3.6877  -13.2557 O   0  0  0  0  0  0  0  0  0  0  0  0
  2  3  1  0
  2  1  1  0
  3  4  1  6
  5  6  2  0
  5  3  1  0
  8  7  1  1
  8 10  1  0
  9  8  1  0
 10 12  1  0
 10 11  1  1
 11  5  1  0
 12 18  1  0
 13 12  2  0
 15 16  1  0
 15 14  1  6
 17 15  1  0
 17 18  1  6
 19 21  1  0
 19 17  1  0
 20 19  2  0
M  END
$$$$
