SVT.pdb
     RDKit          3D

 21 20  0  0  1  0  0  0  0  0999 V2000
   17.6378  -10.1869  -18.9881 O   0  0  0  0  0  0  0  0  0  0  0  0
   18.3003   -9.6547  -17.9111 C   0  0  0  0  0  0  0  0  0  0  0  0
   18.8706  -10.6881  -16.9708 C   0  0  2  0  0  0  0  0  0  0  0  0
   17.8733  -11.5323  -16.3972 N   0  0  0  0  0  0  0  0  0  0  0  0
   19.7009  -10.0745  -15.9038 C   0  0  0  0  0  0  0  0  0  0  0  0
   19.1935   -9.8171  -14.7909 O   0  0  0  0  0  0  0  0  0  0  0  0
   22.7295  -11.2744  -14.2173 C   0  0  0  0  0  0  0  0  0  0  0  0
   23.1854   -9.9712  -14.8650 C   0  0  1  0  0  0  0  0  0  0  0  0
   24.0960  -10.2809  -15.9858 C   0  0  0  0  0  0  0  0  0  0  0  0
   21.9632   -9.1766  -15.1641 C   0  0  2  0  0  0  0  0  0  0  0  0
   21.0722   -9.7726  -16.1272 N   0  0  0  0  0  0  0  0  0  0  0  0
   22.2224   -7.7269  -15.4014 C   0  0  0  0  0  0  0  0  0  0  0  0
   23.0015   -7.4098  -16.3367 O   0  0  0  0  0  0  0  0  0  0  0  0
   20.4023   -4.9114  -16.8341 C   0  0  0  0  0  0  0  0  0  0  0  0
   20.7415   -4.5453  -15.4160 C   0  0  1  0  0  0  0  0  0  0  0  0
   19.6961   -4.8032  -14.5231 O   0  0  0  0  0  0  0  0  0  0  0  0
   21.9739   -5.2737  -14.9045 C   0  0  2  0  0  0  0  0  0  0  0  0
   21.6599   -6.6671  -14.6517 N   0  0  0  0  0  0  0  0  0  0  0  0
   22.3280   -4.6519  -13.6053 C   0  0  0  0  0  0  0  0  0  0  0  0
   22.2015   -5.3119  -12.5407 O   0  0  0  0  0  0  0  0  0  0  0  0
   22.8025   -3.3455  -13.5172 O   0  0  0  0  0  0  0  0  0  0  0  0
  2  3  1  0
  2  1  1  0
  3  4  1  1
  5  6  2  0
  5  3  1  0
  8  7  1  6
  8 10  1  0
  9  8  1  0
 10 12  1  0
 10 11  1  6
 11  5  1  0
 12 18  1  0
 13 12  2  0
 15 16  1  0
 15 14  1  6
 17 15  1  0
 17 18  1  1
 19 21  1  0
 19 17  1  0
 20 19  2  0
M  END
$$$$
