SVT.pdb
     RDKit          3D

 21 20  0  0  1  0  0  0  0  0999 V2000
   23.2867  -11.2786  -20.5295 O   0  0  0  0  0  0  0  0  0  0  0  0
   22.5315  -10.5667  -19.6323 C   0  0  0  0  0  0  0  0  0  0  0  0
   21.9298  -11.4086  -18.5338 C   0  0  2  0  0  0  0  0  0  0  0  0
   20.9537  -12.3340  -19.0102 N   0  0  0  0  0  0  0  0  0  0  0  0
   21.3618  -10.5786  -17.4416 C   0  0  0  0  0  0  0  0  0  0  0  0
   20.1881  -10.1574  -17.5259 O   0  0  0  0  0  0  0  0  0  0  0  0
   23.1925  -10.5199  -13.6584 C   0  0  0  0  0  0  0  0  0  0  0  0
   21.7664  -10.0200  -13.8630 C   0  0  1  0  0  0  0  0  0  0  0  0
   21.3745   -9.1893  -12.7064 C   0  0  0  0  0  0  0  0  0  0  0  0
   21.7067   -9.3992  -15.2142 C   0  0  2  0  0  0  0  0  0  0  0  0
   22.1349  -10.2522  -16.2938 N   0  0  0  0  0  0  0  0  0  0  0  0
   22.2731   -8.0205  -15.2763 C   0  0  0  0  0  0  0  0  0  0  0  0
   23.5081   -7.8961  -15.4804 O   0  0  0  0  0  0  0  0  0  0  0  0
   21.9914   -5.2732  -17.7456 C   0  0  0  0  0  0  0  0  0  0  0  0
   21.5012   -4.7669  -16.4176 C   0  0  1  0  0  0  0  0  0  0  0  0
   20.1112   -4.8494  -16.2838 O   0  0  0  0  0  0  0  0  0  0  0  0
   22.1213   -5.5100  -15.2452 C   0  0  2  0  0  0  0  0  0  0  0  0
   21.5282   -6.8278  -15.1208 N   0  0  0  0  0  0  0  0  0  0  0  0
   21.7727   -4.7451  -14.0232 C   0  0  0  0  0  0  0  0  0  0  0  0
   20.9561   -5.2271  -13.1951 O   0  0  0  0  0  0  0  0  0  0  0  0
   22.3228   -3.4946  -13.7531 O   0  0  0  0  0  0  0  0  0  0  0  0
  2  3  1  0
  2  1  1  0
  3  4  1  6
  5  6  2  0
  5  3  1  0
  8  7  1  1
  8 10  1  0
  9  8  1  0
 10 12  1  0
 10 11  1  6
 11  5  1  0
 12 18  1  0
 13 12  2  0
 15 16  1  0
 15 14  1  6
 17 15  1  0
 17 18  1  1
 19 21  1  0
 19 17  1  0
 20 19  2  0
M  END
$$$$
