SVT.pdb
     RDKit          3D

 21 20  0  0  1  0  0  0  0  0999 V2000
   17.3858   -8.5189  -17.8442 O   0  0  0  0  0  0  0  0  0  0  0  0
   17.9655   -9.7326  -18.1144 C   0  0  0  0  0  0  0  0  0  0  0  0
   18.0315  -10.6585  -16.9245 C   0  0  2  0  0  0  0  0  0  0  0  0
   16.7452  -11.0789  -16.4718 N   0  0  0  0  0  0  0  0  0  0  0  0
   18.8052  -10.0708  -15.8019 C   0  0  0  0  0  0  0  0  0  0  0  0
   18.2101   -9.6688  -14.7789 O   0  0  0  0  0  0  0  0  0  0  0  0
   22.9927  -10.6757  -15.6010 C   0  0  0  0  0  0  0  0  0  0  0  0
   22.1533  -10.3237  -14.3775 C   0  0  1  0  0  0  0  0  0  0  0  0
   23.0439   -9.8417  -13.3024 C   0  0  0  0  0  0  0  0  0  0  0  0
   21.0657   -9.4170  -14.8353 C   0  0  2  0  0  0  0  0  0  0  0  0
   20.2208   -9.9565  -15.8705 N   0  0  0  0  0  0  0  0  0  0  0  0
   21.5084   -8.0154  -15.0901 C   0  0  0  0  0  0  0  0  0  0  0  0
   22.2263   -7.7952  -16.0992 O   0  0  0  0  0  0  0  0  0  0  0  0
   19.6213   -4.9623  -16.0867 C   0  0  0  0  0  0  0  0  0  0  0  0
   20.3441   -4.6759  -14.7999 C   0  0  1  0  0  0  0  0  0  0  0  0
   19.5347   -4.8472  -13.6720 O   0  0  0  0  0  0  0  0  0  0  0  0
   21.5775   -5.5458  -14.6178 C   0  0  2  0  0  0  0  0  0  0  0  0
   21.1858   -6.9011  -14.2803 N   0  0  0  0  0  0  0  0  0  0  0  0
   22.3215   -4.9934  -13.4597 C   0  0  0  0  0  0  0  0  0  0  0  0
   22.4498   -5.6810  -12.4129 O   0  0  0  0  0  0  0  0  0  0  0  0
   22.8923   -3.7234  -13.4868 O   0  0  0  0  0  0  0  0  0  0  0  0
  2  3  1  0
  2  1  1  0
  3  4  1  1
  5  6  2  0
  5  3  1  0
  8  7  1  6
  8 10  1  0
  9  8  1  0
 10 12  1  0
 10 11  1  6
 11  5  1  0
 12 18  1  0
 13 12  2  0
 15 16  1  0
 15 14  1  6
 17 15  1  0
 17 18  1  1
 19 21  1  0
 19 17  1  0
 20 19  2  0
M  END
$$$$
