SVT.pdb
     RDKit          3D

 21 20  0  0  1  0  0  0  0  0999 V2000
   27.2326  -18.8808  -21.0049 O   0  0  0  0  0  0  0  0  0  0  0  0
   26.3009  -18.9696  -20.0018 C   0  0  0  0  0  0  0  0  0  0  0  0
   26.8965  -19.0460  -18.6174 C   0  0  2  0  0  0  0  0  0  0  0  0
   27.5555  -20.2853  -18.3603 N   0  0  0  0  0  0  0  0  0  0  0  0
   25.8909  -18.7692  -17.5608 C   0  0  0  0  0  0  0  0  0  0  0  0
   25.5420  -19.6803  -16.7795 O   0  0  0  0  0  0  0  0  0  0  0  0
   25.7967  -15.7056  -15.0552 C   0  0  0  0  0  0  0  0  0  0  0  0
   24.5155  -15.7187  -15.8821 C   0  0  1  0  0  0  0  0  0  0  0  0
   24.5532  -14.6039  -16.8502 C   0  0  0  0  0  0  0  0  0  0  0  0
   24.3512  -17.0972  -16.4184 C   0  0  2  0  0  0  0  0  0  0  0  0
   25.3139  -17.4773  -17.4211 N   0  0  0  0  0  0  0  0  0  0  0  0
   22.9452  -17.4500  -16.7704 C   0  0  0  0  0  0  0  0  0  0  0  0
   22.4076  -16.8490  -17.7358 O   0  0  0  0  0  0  0  0  0  0  0  0
   21.5681  -20.7023  -18.0375 C   0  0  0  0  0  0  0  0  0  0  0  0
   20.7955  -20.3036  -16.8110 C   0  0  1  0  0  0  0  0  0  0  0  0
   21.2482  -20.9423  -15.6518 O   0  0  0  0  0  0  0  0  0  0  0  0
   20.8370  -18.8053  -16.5571 C   0  0  2  0  0  0  0  0  0  0  0  0
   22.1566  -18.4140  -16.0993 N   0  0  0  0  0  0  0  0  0  0  0  0
   19.8821  -18.5330  -15.4553 C   0  0  0  0  0  0  0  0  0  0  0  0
   20.3136  -18.1835  -14.3254 O   0  0  0  0  0  0  0  0  0  0  0  0
   18.5050  -18.6512  -15.6259 O   0  0  0  0  0  0  0  0  0  0  0  0
  2  3  1  0
  2  1  1  0
  3  4  1  1
  5  6  2  0
  5  3  1  0
  8  7  1  6
  8 10  1  0
  9  8  1  0
 10 12  1  0
 10 11  1  6
 11  5  1  0
 12 18  1  0
 13 12  2  0
 15 16  1  0
 15 14  1  6
 17 15  1  0
 17 18  1  1
 19 21  1  0
 19 17  1  0
 20 19  2  0
M  END
$$$$
