SVT.pdb
     RDKit          3D

 21 20  0  0  1  0  0  0  0  0999 V2000
   26.7941  -20.8930   -8.8511 O   0  0  0  0  0  0  0  0  0  0  0  0
   26.7166  -20.9852  -10.2177 C   0  0  0  0  0  0  0  0  0  0  0  0
   25.6096  -20.1591  -10.8257 C   0  0  2  0  0  0  0  0  0  0  0  0
   24.3112  -20.5542  -10.3850 N   0  0  0  0  0  0  0  0  0  0  0  0
   25.6690  -20.1512  -12.3092 C   0  0  0  0  0  0  0  0  0  0  0  0
   24.8708  -20.8522  -12.9679 O   0  0  0  0  0  0  0  0  0  0  0  0
   27.5149  -17.9522  -16.3391 C   0  0  0  0  0  0  0  0  0  0  0  0
   26.9839  -17.8387  -14.9141 C   0  0  1  0  0  0  0  0  0  0  0  0
   25.8622  -16.8782  -14.8911 C   0  0  0  0  0  0  0  0  0  0  0  0
   26.7224  -19.2214  -14.4298 C   0  0  2  0  0  0  0  0  0  0  0  0
   26.6244  -19.3551  -12.9983 N   0  0  0  0  0  0  0  0  0  0  0  0
   27.5738  -20.2633  -15.0741 C   0  0  0  0  0  0  0  0  0  0  0  0
   28.8073  -20.2560  -14.8274 O   0  0  0  0  0  0  0  0  0  0  0  0
   28.0074  -24.6550  -17.3722 C   0  0  0  0  0  0  0  0  0  0  0  0
   27.1634  -23.5514  -16.7977 C   0  0  1  0  0  0  0  0  0  0  0  0
   26.5120  -23.9236  -15.6171 O   0  0  0  0  0  0  0  0  0  0  0  0
   27.9674  -22.2952  -16.5034 C   0  0  2  0  0  0  0  0  0  0  0  0
   27.1038  -21.2690  -15.9511 N   0  0  0  0  0  0  0  0  0  0  0  0
   28.4755  -21.7994  -17.8057 C   0  0  0  0  0  0  0  0  0  0  0  0
   29.6517  -22.0715  -18.1629 O   0  0  0  0  0  0  0  0  0  0  0  0
   27.6886  -21.0326  -18.6614 O   0  0  0  0  0  0  0  0  0  0  0  0
  2  3  1  0
  2  1  1  0
  3  4  1  6
  5  6  2  0
  5  3  1  0
  8  7  1  6
  8 10  1  0
  9  8  1  0
 10 12  1  0
 10 11  1  1
 11  5  1  0
 12 18  1  0
 13 12  2  0
 15 16  1  0
 15 14  1  1
 17 15  1  0
 17 18  1  6
 19 21  1  0
 19 17  1  0
 20 19  2  0
M  END
$$$$
