SVT.pdb
     RDKit          3D

 21 20  0  0  1  0  0  0  0  0999 V2000
   16.5786  -11.4333  -18.4811 O   0  0  0  0  0  0  0  0  0  0  0  0
   17.5651  -10.7732  -17.7932 C   0  0  0  0  0  0  0  0  0  0  0  0
   18.6557  -11.6754  -17.2696 C   0  0  2  0  0  0  0  0  0  0  0  0
   18.1610  -12.9156  -16.7660 N   0  0  0  0  0  0  0  0  0  0  0  0
   19.4938  -11.0021  -16.2456 C   0  0  0  0  0  0  0  0  0  0  0  0
   19.0462  -10.8267  -15.0919 O   0  0  0  0  0  0  0  0  0  0  0  0
   23.6383  -10.7227  -16.8597 C   0  0  0  0  0  0  0  0  0  0  0  0
   23.0232  -10.5907  -15.4706 C   0  0  1  0  0  0  0  0  0  0  0  0
   24.0094   -9.9721  -14.5617 C   0  0  0  0  0  0  0  0  0  0  0  0
   21.7090   -9.9116  -15.6332 C   0  0  2  0  0  0  0  0  0  0  0  0
   20.8056  -10.5503  -16.5565 N   0  0  0  0  0  0  0  0  0  0  0  0
   21.8054   -8.4337  -15.8114 C   0  0  0  0  0  0  0  0  0  0  0  0
   22.2102   -7.9958  -16.9190 O   0  0  0  0  0  0  0  0  0  0  0  0
   19.4949   -5.8425  -16.4444 C   0  0  0  0  0  0  0  0  0  0  0  0
   20.1963   -5.4326  -15.1794 C   0  0  1  0  0  0  0  0  0  0  0  0
   19.4801   -5.7712  -14.0266 O   0  0  0  0  0  0  0  0  0  0  0  0
   21.5824   -6.0447  -15.0566 C   0  0  2  0  0  0  0  0  0  0  0  0
   21.4776   -7.4729  -14.8260 N   0  0  0  0  0  0  0  0  0  0  0  0
   22.2096   -5.4421  -13.8551 C   0  0  0  0  0  0  0  0  0  0  0  0
   22.4045   -6.1476  -12.8308 O   0  0  0  0  0  0  0  0  0  0  0  0
   22.5968   -4.1050  -13.8166 O   0  0  0  0  0  0  0  0  0  0  0  0
  2  3  1  0
  2  1  1  0
  3  4  1  1
  5  6  2  0
  5  3  1  0
  8  7  1  6
  8 10  1  0
  9  8  1  0
 10 12  1  0
 10 11  1  6
 11  5  1  0
 12 18  1  0
 13 12  2  0
 15 16  1  0
 15 14  1  6
 17 15  1  0
 17 18  1  1
 19 21  1  0
 19 17  1  0
 20 19  2  0
M  END
$$$$
