TGW.pdb
     RDKit          3D

 26 27  0  0  1  0  0  0  0  0999 V2000
    8.1644  -12.6255   18.3578 C   0  0  0  0  0  0  0  0  0  0  0  0
    8.5015  -13.5291   19.5103 C   0  0  1  0  0  0  0  0  0  0  0  0
    8.6414  -12.8267   20.7173 O   0  0  0  0  0  0  0  0  0  0  0  0
    7.5364  -14.6895   19.6467 C   0  0  2  0  0  0  0  0  0  0  0  0
    6.2100  -14.1136   19.7697 N   0  0  0  0  0  0  0  0  0  0  0  0
    7.7953  -15.5236   20.8200 C   0  0  0  0  0  0  0  0  0  0  0  0
    7.1101  -15.4002   21.8890 O   0  0  0  0  0  0  0  0  0  0  0  0
    8.8119  -16.5263   20.8755 N   0  0  0  0  0  0  0  0  0  0  0  0
    9.0055  -17.3500   22.0296 C   0  0  0  0  0  0  0  0  0  0  0  0
    9.5596  -16.6432   23.1957 C   0  0  0  0  0  0  0  0  0  0  0  0
   10.1916  -15.5609   23.1305 O   0  0  0  0  0  0  0  0  0  0  0  0
    9.3654  -17.2239   24.4728 N   0  0  0  0  0  0  0  0  0  0  0  0
   10.0024  -16.6818   25.6735 C   0  0  1  0  0  0  0  0  0  0  0  0
    8.9651  -16.6093   26.7309 C   0  0  0  0  0  0  0  0  0  0  0  0
    7.8700  -15.6962   26.3846 C   0  0  0  0  0  0  0  0  0  0  0  0
    6.6603  -16.0964   25.8243 C   0  0  0  0  0  0  0  0  0  0  0  0
    5.9274  -15.0182   25.6082 N   0  0  0  0  0  0  0  0  0  0  0  0
    6.5675  -13.8988   25.9902 C   0  0  0  0  0  0  0  0  0  0  0  0
    6.2327  -12.5743   25.9877 C   0  0  0  0  0  0  0  0  0  0  0  0
    7.1238  -11.6523   26.4796 C   0  0  0  0  0  0  0  0  0  0  0  0
    8.3525  -12.0501   26.9759 C   0  0  0  0  0  0  0  0  0  0  0  0
    8.6727  -13.3878   26.9697 C   0  0  0  0  0  0  0  0  0  0  0  0
    7.7917  -14.3125   26.4811 C   0  0  0  0  0  0  0  0  0  0  0  0
   11.1889  -17.4916   25.9446 C   0  0  0  0  0  0  0  0  0  0  0  0
   12.1112  -17.1324   26.9519 O   0  0  0  0  0  0  0  0  0  0  0  0
   11.4912  -18.5447   25.3314 O   0  0  0  0  0  0  0  0  0  0  0  0
  2  1  1  6
  3  2  1  0
  4  2  1  0
  4  5  1  1
  6  4  1  0
  7  6  2  0
  8  6  1  0
  9  8  1  0
 10  9  1  0
 10 12  1  0
 11 10  2  0
 13 12  1  0
 13 14  1  1
 15 14  1  0
 15 16  2  0
 17 16  1  0
 18 17  1  0
 19 18  2  0
 20 19  1  0
 21 20  2  0
 21 22  1  0
 22 23  2  0
 23 18  1  0
 23 15  1  0
 24 25  1  0
 24 13  1  0
 26 24  2  0
M  END
$$$$
