TGW.pdb
     RDKit          3D

 26 27  0  0  1  0  0  0  0  0999 V2000
    9.6802  -12.8161   19.6589 C   0  0  0  0  0  0  0  0  0  0  0  0
    8.4957  -13.2043   18.8193 C   0  0  1  0  0  0  0  0  0  0  0  0
    8.4946  -12.5665   17.5691 O   0  0  0  0  0  0  0  0  0  0  0  0
    8.3418  -14.7056   18.6818 C   0  0  2  0  0  0  0  0  0  0  0  0
    7.1589  -14.9288   17.8714 N   0  0  0  0  0  0  0  0  0  0  0  0
    8.1678  -15.3899   19.9627 C   0  0  0  0  0  0  0  0  0  0  0  0
    7.1342  -15.1975   20.6854 O   0  0  0  0  0  0  0  0  0  0  0  0
    9.1136  -16.3120   20.5080 N   0  0  0  0  0  0  0  0  0  0  0  0
    8.9018  -16.9658   21.7631 C   0  0  0  0  0  0  0  0  0  0  0  0
    9.5559  -16.3116   22.9081 C   0  0  0  0  0  0  0  0  0  0  0  0
   10.4101  -15.3978   22.8056 O   0  0  0  0  0  0  0  0  0  0  0  0
    9.1960  -16.7427   24.2082 N   0  0  0  0  0  0  0  0  0  0  0  0
    9.8658  -16.2325   25.4050 C   0  0  1  0  0  0  0  0  0  0  0  0
    8.8805  -16.2667   26.5127 C   0  0  0  0  0  0  0  0  0  0  0  0
    7.7060  -15.4279   26.2487 C   0  0  0  0  0  0  0  0  0  0  0  0
    6.5017  -15.9007   25.7353 C   0  0  0  0  0  0  0  0  0  0  0  0
    5.6826  -14.8741   25.5888 N   0  0  0  0  0  0  0  0  0  0  0  0
    6.2584  -13.7214   25.9743 C   0  0  0  0  0  0  0  0  0  0  0  0
    5.8288  -12.4258   26.0295 C   0  0  0  0  0  0  0  0  0  0  0  0
    6.6744  -11.4543   26.5063 C   0  0  0  0  0  0  0  0  0  0  0  0
    7.9522  -11.7738   26.9299 C   0  0  0  0  0  0  0  0  0  0  0  0
    8.3678  -13.0835   26.8663 C   0  0  0  0  0  0  0  0  0  0  0  0
    7.5326  -14.0570   26.3921 C   0  0  0  0  0  0  0  0  0  0  0  0
   11.1015  -16.9949   25.5752 C   0  0  0  0  0  0  0  0  0  0  0  0
   12.1097  -16.5734   26.4696 O   0  0  0  0  0  0  0  0  0  0  0  0
   11.3753  -18.0581   24.9658 O   0  0  0  0  0  0  0  0  0  0  0  0
  2  1  1  6
  3  2  1  0
  4  2  1  0
  4  5  1  6
  6  4  1  0
  7  6  2  0
  8  6  1  0
  9  8  1  0
 10  9  1  0
 10 12  1  0
 11 10  2  0
 13 12  1  0
 13 14  1  1
 15 14  1  0
 15 16  2  0
 17 16  1  0
 18 17  1  0
 19 18  2  0
 20 19  1  0
 21 20  2  0
 21 22  1  0
 22 23  2  0
 23 18  1  0
 23 15  1  0
 24 25  1  0
 24 13  1  0
 26 24  2  0
M  END
$$$$
