TGW.pdb
     RDKit          3D

 26 27  0  0  1  0  0  0  0  0999 V2000
    5.8072  -15.5944   20.4935 C   0  0  0  0  0  0  0  0  0  0  0  0
    7.2918  -15.6525   20.7200 C   0  0  1  0  0  0  0  0  0  0  0  0
    7.8115  -14.4308   21.1751 O   0  0  0  0  0  0  0  0  0  0  0  0
    7.7032  -16.8040   21.6153 C   0  0  2  0  0  0  0  0  0  0  0  0
    7.0116  -16.6159   22.8772 N   0  0  0  0  0  0  0  0  0  0  0  0
    9.1422  -16.8521   21.8727 C   0  0  0  0  0  0  0  0  0  0  0  0
    9.9064  -17.6505   21.2352 O   0  0  0  0  0  0  0  0  0  0  0  0
    9.8069  -16.0317   22.8357 N   0  0  0  0  0  0  0  0  0  0  0  0
   11.1917  -16.2020   23.1536 C   0  0  0  0  0  0  0  0  0  0  0  0
   11.5235  -15.9740   24.5694 C   0  0  0  0  0  0  0  0  0  0  0  0
   12.6367  -15.5608   24.9759 O   0  0  0  0  0  0  0  0  0  0  0  0
   10.5201  -16.2385   25.5331 N   0  0  0  0  0  0  0  0  0  0  0  0
   10.7660  -16.0852   26.9675 C   0  0  1  0  0  0  0  0  0  0  0  0
   10.0639  -14.8557   27.4084 C   0  0  0  0  0  0  0  0  0  0  0  0
    8.7136  -14.7448   26.8452 C   0  0  0  0  0  0  0  0  0  0  0  0
    7.9933  -15.8111   26.3142 C   0  0  0  0  0  0  0  0  0  0  0  0
    6.8400  -15.3486   25.8645 N   0  0  0  0  0  0  0  0  0  0  0  0
    6.7282  -14.0224   26.0582 C   0  0  0  0  0  0  0  0  0  0  0  0
    5.7471  -13.1103   25.7903 C   0  0  0  0  0  0  0  0  0  0  0  0
    5.9341  -11.7956   26.1408 C   0  0  0  0  0  0  0  0  0  0  0  0
    7.1019  -11.3875   26.7603 C   0  0  0  0  0  0  0  0  0  0  0  0
    8.0792  -12.3196   27.0215 C   0  0  0  0  0  0  0  0  0  0  0  0
    7.9015  -13.6305   26.6752 C   0  0  0  0  0  0  0  0  0  0  0  0
   10.3964  -17.3435   27.6132 C   0  0  0  0  0  0  0  0  0  0  0  0
    9.9252  -18.4447   26.8650 O   0  0  0  0  0  0  0  0  0  0  0  0
   10.4600  -17.5589   28.8486 O   0  0  0  0  0  0  0  0  0  0  0  0
  2  1  1  1
  3  2  1  0
  4  2  1  0
  4  5  1  1
  6  4  1  0
  7  6  2  0
  8  6  1  0
  9  8  1  0
 10  9  1  0
 10 12  1  0
 11 10  2  0
 13 12  1  0
 13 14  1  1
 15 14  1  0
 15 16  2  0
 17 16  1  0
 18 17  1  0
 19 18  2  0
 20 19  1  0
 21 20  2  0
 21 22  1  0
 22 23  2  0
 23 18  1  0
 23 15  1  0
 24 25  1  0
 24 13  1  0
 26 24  2  0
M  END
$$$$
