TGW.pdb
     RDKit          3D

 26 27  0  0  1  0  0  0  0  0999 V2000
   10.5630  -13.6333   19.1934 C   0  0  0  0  0  0  0  0  0  0  0  0
    9.1789  -13.0864   18.9845 C   0  0  1  0  0  0  0  0  0  0  0  0
    9.1181  -12.1794   17.9152 O   0  0  0  0  0  0  0  0  0  0  0  0
    8.1322  -14.1747   18.8554 C   0  0  2  0  0  0  0  0  0  0  0  0
    6.8683  -13.5070   18.6049 N   0  0  0  0  0  0  0  0  0  0  0  0
    7.9979  -14.9951   20.0588 C   0  0  0  0  0  0  0  0  0  0  0  0
    7.4584  -14.5369   21.1203 O   0  0  0  0  0  0  0  0  0  0  0  0
    8.4463  -16.3486   20.1541 N   0  0  0  0  0  0  0  0  0  0  0  0
    8.4224  -17.0726   21.3881 C   0  0  0  0  0  0  0  0  0  0  0  0
    9.4177  -16.6250   22.3758 C   0  0  0  0  0  0  0  0  0  0  0  0
   10.5936  -16.2907   22.0915 O   0  0  0  0  0  0  0  0  0  0  0  0
    9.0203  -16.5683   23.7340 N   0  0  0  0  0  0  0  0  0  0  0  0
    9.9371  -16.1387   24.7905 C   0  0  1  0  0  0  0  0  0  0  0  0
    9.6464  -14.7130   25.0766 C   0  0  0  0  0  0  0  0  0  0  0  0
    8.2570  -14.4936   25.4942 C   0  0  0  0  0  0  0  0  0  0  0  0
    7.2830  -15.4872   25.5376 C   0  0  0  0  0  0  0  0  0  0  0  0
    6.1447  -14.9347   25.9187 N   0  0  0  0  0  0  0  0  0  0  0  0
    6.2836  -13.6154   26.1403 C   0  0  0  0  0  0  0  0  0  0  0  0
    5.4279  -12.6340   26.5536 C   0  0  0  0  0  0  0  0  0  0  0  0
    5.8955  -11.3519   26.7076 C   0  0  0  0  0  0  0  0  0  0  0  0
    7.2198  -11.0457   26.4494 C   0  0  0  0  0  0  0  0  0  0  0  0
    8.0667  -12.0465   26.0333 C   0  0  0  0  0  0  0  0  0  0  0  0
    7.6093  -13.3256   25.8766 C   0  0  0  0  0  0  0  0  0  0  0  0
    9.8113  -17.0892   25.8940 C   0  0  0  0  0  0  0  0  0  0  0  0
    8.9052  -18.1708   25.8348 O   0  0  0  0  0  0  0  0  0  0  0  0
   10.4718  -17.0380   26.9607 O   0  0  0  0  0  0  0  0  0  0  0  0
  2  1  1  6
  3  2  1  0
  4  2  1  0
  4  5  1  1
  6  4  1  0
  7  6  2  0
  8  6  1  0
  9  8  1  0
 10  9  1  0
 10 12  1  0
 11 10  2  0
 13 12  1  0
 13 14  1  1
 15 14  1  0
 15 16  2  0
 17 16  1  0
 18 17  1  0
 19 18  2  0
 20 19  1  0
 21 20  2  0
 21 22  1  0
 22 23  2  0
 23 18  1  0
 23 15  1  0
 24 25  1  0
 24 13  1  0
 26 24  2  0
M  END
$$$$
