TGW.pdb
     RDKit          3D

 26 27  0  0  1  0  0  0  0  0999 V2000
    6.7057  -21.3476   19.3493 C   0  0  0  0  0  0  0  0  0  0  0  0
    6.8168  -19.8489   19.3414 C   0  0  1  0  0  0  0  0  0  0  0  0
    5.6189  -19.2259   18.9584 O   0  0  0  0  0  0  0  0  0  0  0  0
    7.3432  -19.2934   20.6495 C   0  0  2  0  0  0  0  0  0  0  0  0
    6.3614  -19.6244   21.6656 N   0  0  0  0  0  0  0  0  0  0  0  0
    7.5267  -17.8425   20.6307 C   0  0  0  0  0  0  0  0  0  0  0  0
    8.4110  -17.2926   19.8937 O   0  0  0  0  0  0  0  0  0  0  0  0
    6.7535  -16.9318   21.4149 N   0  0  0  0  0  0  0  0  0  0  0  0
    6.9598  -15.5168   21.3610 C   0  0  0  0  0  0  0  0  0  0  0  0
    7.9509  -15.0092   22.3236 C   0  0  0  0  0  0  0  0  0  0  0  0
    8.2210  -13.7941   22.4844 O   0  0  0  0  0  0  0  0  0  0  0  0
    8.6428  -15.9550   23.1188 N   0  0  0  0  0  0  0  0  0  0  0  0
    9.7174  -15.5602   24.0303 C   0  0  1  0  0  0  0  0  0  0  0  0
    9.2330  -15.7913   25.4127 C   0  0  0  0  0  0  0  0  0  0  0  0
    7.9709  -15.0970   25.6914 C   0  0  0  0  0  0  0  0  0  0  0  0
    6.7182  -15.7036   25.6684 C   0  0  0  0  0  0  0  0  0  0  0  0
    5.8070  -14.7818   25.9259 N   0  0  0  0  0  0  0  0  0  0  0  0
    6.3655  -13.5747   26.1253 C   0  0  0  0  0  0  0  0  0  0  0  0
    5.8617  -12.3420   26.4303 C   0  0  0  0  0  0  0  0  0  0  0  0
    6.7212  -11.2835   26.5945 C   0  0  0  0  0  0  0  0  0  0  0  0
    8.0873  -11.4527   26.4546 C   0  0  0  0  0  0  0  0  0  0  0  0
    8.5765  -12.7008   26.1465 C   0  0  0  0  0  0  0  0  0  0  0  0
    7.7277  -13.7601   25.9805 C   0  0  0  0  0  0  0  0  0  0  0  0
   10.9286  -16.2635   23.6116 C   0  0  0  0  0  0  0  0  0  0  0  0
   12.2042  -15.8738   24.0757 O   0  0  0  0  0  0  0  0  0  0  0  0
   10.9511  -17.2449   22.8287 O   0  0  0  0  0  0  0  0  0  0  0  0
  2  1  1  1
  3  2  1  0
  4  2  1  0
  4  5  1  1
  6  4  1  0
  7  6  2  0
  8  6  1  0
  9  8  1  0
 10  9  1  0
 10 12  1  0
 11 10  2  0
 13 12  1  0
 13 14  1  1
 15 14  1  0
 15 16  2  0
 17 16  1  0
 18 17  1  0
 19 18  2  0
 20 19  1  0
 21 20  2  0
 21 22  1  0
 22 23  2  0
 23 18  1  0
 23 15  1  0
 24 25  1  0
 24 13  1  0
 26 24  2  0
M  END
$$$$
