TGW.pdb
     RDKit          3D

 26 27  0  0  1  0  0  0  0  0999 V2000
    7.7073  -12.6224   17.9206 C   0  0  0  0  0  0  0  0  0  0  0  0
    7.6121  -13.7840   18.8693 C   0  0  1  0  0  0  0  0  0  0  0  0
    7.4945  -15.0123   18.2005 O   0  0  0  0  0  0  0  0  0  0  0  0
    8.7371  -13.8051   19.8844 C   0  0  2  0  0  0  0  0  0  0  0  0
    9.9494  -14.1250   19.1536 N   0  0  0  0  0  0  0  0  0  0  0  0
    8.5484  -14.8022   20.9377 C   0  0  0  0  0  0  0  0  0  0  0  0
    7.6291  -14.6796   21.8138 O   0  0  0  0  0  0  0  0  0  0  0  0
    9.3544  -15.9739   21.0788 N   0  0  0  0  0  0  0  0  0  0  0  0
    9.1943  -16.8797   22.1749 C   0  0  0  0  0  0  0  0  0  0  0  0
    9.7262  -16.3855   23.4554 C   0  0  0  0  0  0  0  0  0  0  0  0
   10.6364  -15.5275   23.5578 O   0  0  0  0  0  0  0  0  0  0  0  0
    9.1731  -16.9137   24.6474 N   0  0  0  0  0  0  0  0  0  0  0  0
    9.7558  -16.6340   25.9603 C   0  0  1  0  0  0  0  0  0  0  0  0
    8.6366  -16.5186   26.9263 C   0  0  0  0  0  0  0  0  0  0  0  0
    7.6319  -15.5336   26.5100 C   0  0  0  0  0  0  0  0  0  0  0  0
    6.4567  -15.8473   25.8332 C   0  0  0  0  0  0  0  0  0  0  0  0
    5.8099  -14.7223   25.5834 N   0  0  0  0  0  0  0  0  0  0  0  0
    6.4765  -13.6525   26.0525 C   0  0  0  0  0  0  0  0  0  0  0  0
    6.2205  -12.3106   26.0577 C   0  0  0  0  0  0  0  0  0  0  0  0
    7.1152  -11.4553   26.6528 C   0  0  0  0  0  0  0  0  0  0  0  0
    8.2689  -11.9377   27.2450 C   0  0  0  0  0  0  0  0  0  0  0  0
    8.5105  -13.2917   27.2294 C   0  0  0  0  0  0  0  0  0  0  0  0
    7.6253  -14.1503   26.6383 C   0  0  0  0  0  0  0  0  0  0  0  0
   10.7687  -17.6561   26.2177 C   0  0  0  0  0  0  0  0  0  0  0  0
   11.6786  -17.5374   27.2911 O   0  0  0  0  0  0  0  0  0  0  0  0
   10.9216  -18.6990   25.5353 O   0  0  0  0  0  0  0  0  0  0  0  0
  2  1  1  6
  3  2  1  0
  4  2  1  0
  4  5  1  6
  6  4  1  0
  7  6  2  0
  8  6  1  0
  9  8  1  0
 10  9  1  0
 10 12  1  0
 11 10  2  0
 13 12  1  0
 13 14  1  1
 15 14  1  0
 15 16  2  0
 17 16  1  0
 18 17  1  0
 19 18  2  0
 20 19  1  0
 21 20  2  0
 21 22  1  0
 22 23  2  0
 23 18  1  0
 23 15  1  0
 24 25  1  0
 24 13  1  0
 26 24  2  0
M  END
$$$$
