TGW.pdb
     RDKit          3D

 26 27  0  0  1  0  0  0  0  0999 V2000
    6.9012  -12.9525   16.9874 C   0  0  0  0  0  0  0  0  0  0  0  0
    7.4069  -13.9988   17.9403 C   0  0  1  0  0  0  0  0  0  0  0  0
    8.2245  -14.9480   17.3074 O   0  0  0  0  0  0  0  0  0  0  0  0
    8.0813  -13.4036   19.1599 C   0  0  2  0  0  0  0  0  0  0  0  0
    9.2122  -12.6345   18.6747 N   0  0  0  0  0  0  0  0  0  0  0  0
    8.5696  -14.4109   20.1014 C   0  0  0  0  0  0  0  0  0  0  0  0
    9.8092  -14.7018   20.1819 O   0  0  0  0  0  0  0  0  0  0  0  0
    7.7262  -15.1423   20.9936 N   0  0  0  0  0  0  0  0  0  0  0  0
    8.2247  -16.2051   21.8118 C   0  0  0  0  0  0  0  0  0  0  0  0
    9.0373  -15.7621   22.9564 C   0  0  0  0  0  0  0  0  0  0  0  0
    9.7319  -14.7168   22.9666 O   0  0  0  0  0  0  0  0  0  0  0  0
    9.0329  -16.5689   24.1203 N   0  0  0  0  0  0  0  0  0  0  0  0
    9.8511  -16.2442   25.2893 C   0  0  1  0  0  0  0  0  0  0  0  0
    8.9534  -16.2344   26.4695 C   0  0  0  0  0  0  0  0  0  0  0  0
    7.8011  -15.3432   26.2940 C   0  0  0  0  0  0  0  0  0  0  0  0
    6.5418  -15.7602   25.8721 C   0  0  0  0  0  0  0  0  0  0  0  0
    5.7607  -14.6977   25.7873 N   0  0  0  0  0  0  0  0  0  0  0  0
    6.4146  -13.5731   26.1286 C   0  0  0  0  0  0  0  0  0  0  0  0
    6.0487  -12.2598   26.2158 C   0  0  0  0  0  0  0  0  0  0  0  0
    6.9701  -11.3286   26.6280 C   0  0  0  0  0  0  0  0  0  0  0  0
    8.2604  -11.7061   26.9549 C   0  0  0  0  0  0  0  0  0  0  0  0
    8.6112  -13.0328   26.8604 C   0  0  0  0  0  0  0  0  0  0  0  0
    7.7003  -13.9664   26.4500 C   0  0  0  0  0  0  0  0  0  0  0  0
   10.9804  -17.1724   25.3062 C   0  0  0  0  0  0  0  0  0  0  0  0
   10.8418  -18.5089   24.8715 O   0  0  0  0  0  0  0  0  0  0  0  0
   12.1388  -16.8821   25.6939 O   0  0  0  0  0  0  0  0  0  0  0  0
  2  1  1  6
  3  2  1  0
  4  2  1  0
  4  5  1  6
  6  4  1  0
  7  6  2  0
  8  6  1  0
  9  8  1  0
 10  9  1  0
 10 12  1  0
 11 10  2  0
 13 12  1  0
 13 14  1  1
 15 14  1  0
 15 16  2  0
 17 16  1  0
 18 17  1  0
 19 18  2  0
 20 19  1  0
 21 20  2  0
 21 22  1  0
 22 23  2  0
 23 18  1  0
 23 15  1  0
 24 25  1  0
 24 13  1  0
 26 24  2  0
M  END
$$$$
