TGW.pdb
     RDKit          3D

 26 27  0  0  1  0  0  0  0  0999 V2000
    7.5435  -12.5471   17.6793 C   0  0  0  0  0  0  0  0  0  0  0  0
    7.5480  -13.6577   18.6917 C   0  0  1  0  0  0  0  0  0  0  0  0
    7.6146  -14.9258   18.0941 O   0  0  0  0  0  0  0  0  0  0  0  0
    8.6178  -13.4811   19.7505 C   0  0  2  0  0  0  0  0  0  0  0  0
    9.8956  -13.5882   19.0709 N   0  0  0  0  0  0  0  0  0  0  0  0
    8.5620  -14.4931   20.8049 C   0  0  0  0  0  0  0  0  0  0  0  0
    7.6795  -14.4481   21.7251 O   0  0  0  0  0  0  0  0  0  0  0  0
    9.4662  -15.5957   20.8991 N   0  0  0  0  0  0  0  0  0  0  0  0
    9.3456  -16.5933   21.9179 C   0  0  0  0  0  0  0  0  0  0  0  0
    9.8402  -16.1759   23.2400 C   0  0  0  0  0  0  0  0  0  0  0  0
   10.6733  -15.2554   23.4238 O   0  0  0  0  0  0  0  0  0  0  0  0
    9.3418  -16.8583   24.3765 N   0  0  0  0  0  0  0  0  0  0  0  0
    9.8172  -16.5595   25.7278 C   0  0  1  0  0  0  0  0  0  0  0  0
    8.6387  -16.5850   26.6277 C   0  0  0  0  0  0  0  0  0  0  0  0
    7.6309  -15.5821   26.2654 C   0  0  0  0  0  0  0  0  0  0  0  0
    6.4078  -15.8764   25.6695 C   0  0  0  0  0  0  0  0  0  0  0  0
    5.7708  -14.7399   25.4486 N   0  0  0  0  0  0  0  0  0  0  0  0
    6.4894  -13.6804   25.8608 C   0  0  0  0  0  0  0  0  0  0  0  0
    6.2636  -12.3331   25.8665 C   0  0  0  0  0  0  0  0  0  0  0  0
    7.2133  -11.4920   26.3924 C   0  0  0  0  0  0  0  0  0  0  0  0
    8.3921  -11.9938   26.9147 C   0  0  0  0  0  0  0  0  0  0  0  0
    8.6027  -13.3530   26.8997 C   0  0  0  0  0  0  0  0  0  0  0  0
    7.6627  -14.1977   26.3772 C   0  0  0  0  0  0  0  0  0  0  0  0
   10.9126  -17.4818   26.0218 C   0  0  0  0  0  0  0  0  0  0  0  0
   11.7073  -17.3361   27.1800 O   0  0  0  0  0  0  0  0  0  0  0  0
   11.2403  -18.4557   25.3003 O   0  0  0  0  0  0  0  0  0  0  0  0
  2  1  1  6
  3  2  1  0
  4  2  1  0
  4  5  1  6
  6  4  1  0
  7  6  2  0
  8  6  1  0
  9  8  1  0
 10  9  1  0
 10 12  1  0
 11 10  2  0
 13 12  1  0
 13 14  1  1
 15 14  1  0
 15 16  2  0
 17 16  1  0
 18 17  1  0
 19 18  2  0
 20 19  1  0
 21 20  2  0
 21 22  1  0
 22 23  2  0
 23 18  1  0
 23 15  1  0
 24 25  1  0
 24 13  1  0
 26 24  2  0
M  END
$$$$
