TGW.pdb
     RDKit          3D

 26 27  0  0  1  0  0  0  0  0999 V2000
    7.9523  -12.4070   18.0615 C   0  0  0  0  0  0  0  0  0  0  0  0
    7.7200  -13.5504   19.0086 C   0  0  1  0  0  0  0  0  0  0  0  0
    7.2337  -14.6943   18.3568 O   0  0  0  0  0  0  0  0  0  0  0  0
    8.9355  -13.8642   19.8575 C   0  0  2  0  0  0  0  0  0  0  0  0
    9.9234  -14.4467   18.9683 N   0  0  0  0  0  0  0  0  0  0  0  0
    8.6596  -14.8126   20.9363 C   0  0  0  0  0  0  0  0  0  0  0  0
    7.9244  -14.4958   21.9296 O   0  0  0  0  0  0  0  0  0  0  0  0
    9.1740  -16.1453   20.9760 N   0  0  0  0  0  0  0  0  0  0  0  0
    8.9557  -17.0118   22.0937 C   0  0  0  0  0  0  0  0  0  0  0  0
    9.5750  -16.5547   23.3483 C   0  0  0  0  0  0  0  0  0  0  0  0
   10.5017  -15.7106   23.4115 O   0  0  0  0  0  0  0  0  0  0  0  0
    9.0920  -17.1039   24.5610 N   0  0  0  0  0  0  0  0  0  0  0  0
    9.6570  -16.7303   25.8581 C   0  0  1  0  0  0  0  0  0  0  0  0
    8.5228  -16.4948   26.7841 C   0  0  0  0  0  0  0  0  0  0  0  0
    7.5614  -15.5177   26.2609 C   0  0  0  0  0  0  0  0  0  0  0  0
    6.4442  -15.8450   25.4978 C   0  0  0  0  0  0  0  0  0  0  0  0
    5.8265  -14.7249   25.1663 N   0  0  0  0  0  0  0  0  0  0  0  0
    6.4582  -13.6453   25.6607 C   0  0  0  0  0  0  0  0  0  0  0  0
    6.2102  -12.3029   25.6099 C   0  0  0  0  0  0  0  0  0  0  0  0
    7.0577  -11.4353   26.2544 C   0  0  0  0  0  0  0  0  0  0  0  0
    8.1559  -11.9058   26.9520 C   0  0  0  0  0  0  0  0  0  0  0  0
    8.3904  -13.2606   26.9916 C   0  0  0  0  0  0  0  0  0  0  0  0
    7.5521  -14.1315   26.3521 C   0  0  0  0  0  0  0  0  0  0  0  0
   10.6284  -17.7588   26.2264 C   0  0  0  0  0  0  0  0  0  0  0  0
   11.4817  -17.6007   27.3404 O   0  0  0  0  0  0  0  0  0  0  0  0
   10.7915  -18.8412   25.6113 O   0  0  0  0  0  0  0  0  0  0  0  0
  2  1  1  6
  3  2  1  0
  4  2  1  0
  4  5  1  6
  6  4  1  0
  7  6  2  0
  8  6  1  0
  9  8  1  0
 10  9  1  0
 10 12  1  0
 11 10  2  0
 13 12  1  0
 13 14  1  1
 15 14  1  0
 15 16  2  0
 17 16  1  0
 18 17  1  0
 19 18  2  0
 20 19  1  0
 21 20  2  0
 21 22  1  0
 22 23  2  0
 23 18  1  0
 23 15  1  0
 24 25  1  0
 24 13  1  0
 26 24  2  0
M  END
$$$$
