TGW.pdb
     RDKit          3D

 26 27  0  0  1  0  0  0  0  0999 V2000
    5.2335  -16.7384   20.4738 C   0  0  0  0  0  0  0  0  0  0  0  0
    6.4756  -16.1486   21.0801 C   0  0  1  0  0  0  0  0  0  0  0  0
    6.4291  -16.1302   22.4828 O   0  0  0  0  0  0  0  0  0  0  0  0
    7.7440  -16.8031   20.5708 C   0  0  2  0  0  0  0  0  0  0  0  0
    7.6402  -18.2145   20.8917 N   0  0  0  0  0  0  0  0  0  0  0  0
    8.9587  -16.2708   21.1877 C   0  0  0  0  0  0  0  0  0  0  0  0
    9.4285  -15.1314   20.8582 O   0  0  0  0  0  0  0  0  0  0  0  0
    9.7107  -16.9592   22.1891 N   0  0  0  0  0  0  0  0  0  0  0  0
   10.9251  -16.4275   22.7279 C   0  0  0  0  0  0  0  0  0  0  0  0
   10.8466  -16.0502   24.1485 C   0  0  0  0  0  0  0  0  0  0  0  0
   11.5689  -15.1769   24.6879 O   0  0  0  0  0  0  0  0  0  0  0  0
    9.8935  -16.7166   24.9566 N   0  0  0  0  0  0  0  0  0  0  0  0
    9.9472  -16.6645   26.4180 C   0  0  1  0  0  0  0  0  0  0  0  0
    8.5504  -16.7059   26.9144 C   0  0  0  0  0  0  0  0  0  0  0  0
    7.6793  -15.7455   26.2277 C   0  0  0  0  0  0  0  0  0  0  0  0
    6.7474  -16.0875   25.2520 C   0  0  0  0  0  0  0  0  0  0  0  0
    6.1701  -14.9786   24.8240 N   0  0  0  0  0  0  0  0  0  0  0  0
    6.6542  -13.8929   25.4531 C   0  0  0  0  0  0  0  0  0  0  0  0
    6.3758  -12.5576   25.3777 C   0  0  0  0  0  0  0  0  0  0  0  0
    7.0487  -11.6809   26.1930 C   0  0  0  0  0  0  0  0  0  0  0  0
    8.0022  -12.1352   27.0868 C   0  0  0  0  0  0  0  0  0  0  0  0
    8.2699  -13.4830   27.1484 C   0  0  0  0  0  0  0  0  0  0  0  0
    7.6051  -14.3627   26.3397 C   0  0  0  0  0  0  0  0  0  0  0  0
   10.8543  -17.7214   26.8619 C   0  0  0  0  0  0  0  0  0  0  0  0
   11.3420  -17.7652   28.1865 O   0  0  0  0  0  0  0  0  0  0  0  0
   11.2716  -18.6570   26.1359 O   0  0  0  0  0  0  0  0  0  0  0  0
  2  1  1  6
  3  2  1  0
  4  2  1  0
  4  5  1  1
  6  4  1  0
  7  6  2  0
  8  6  1  0
  9  8  1  0
 10  9  1  0
 10 12  1  0
 11 10  2  0
 13 12  1  0
 13 14  1  1
 15 14  1  0
 15 16  2  0
 17 16  1  0
 18 17  1  0
 19 18  2  0
 20 19  1  0
 21 20  2  0
 21 22  1  0
 22 23  2  0
 23 18  1  0
 23 15  1  0
 24 25  1  0
 24 13  1  0
 26 24  2  0
M  END
$$$$
