TGW.pdb
     RDKit          3D

 26 27  0  0  1  0  0  0  0  0999 V2000
    7.3209  -20.2825   19.9321 C   0  0  0  0  0  0  0  0  0  0  0  0
    8.0574  -19.0189   20.2777 C   0  0  1  0  0  0  0  0  0  0  0  0
    7.2249  -18.0624   20.8792 O   0  0  0  0  0  0  0  0  0  0  0  0
    9.3035  -19.2737   21.1016 C   0  0  2  0  0  0  0  0  0  0  0  0
    8.8639  -19.8948   22.3373 N   0  0  0  0  0  0  0  0  0  0  0  0
   10.0419  -18.0540   21.4276 C   0  0  0  0  0  0  0  0  0  0  0  0
   10.6888  -17.4091   20.5369 O   0  0  0  0  0  0  0  0  0  0  0  0
   10.1052  -17.4875   22.7380 N   0  0  0  0  0  0  0  0  0  0  0  0
   10.7315  -16.2261   22.9919 C   0  0  0  0  0  0  0  0  0  0  0  0
   10.7568  -15.8338   24.4104 C   0  0  0  0  0  0  0  0  0  0  0  0
   11.2969  -14.7871   24.8439 O   0  0  0  0  0  0  0  0  0  0  0  0
   10.1301  -16.6945   25.3443 N   0  0  0  0  0  0  0  0  0  0  0  0
   10.1658  -16.4313   26.7833 C   0  0  1  0  0  0  0  0  0  0  0  0
    8.7739  -16.5265   27.2858 C   0  0  0  0  0  0  0  0  0  0  0  0
    7.8171  -15.8096   26.4352 C   0  0  0  0  0  0  0  0  0  0  0  0
    6.9714  -16.4217   25.5145 C   0  0  0  0  0  0  0  0  0  0  0  0
    6.2781  -15.4799   24.8992 N   0  0  0  0  0  0  0  0  0  0  0  0
    6.6010  -14.2537   25.3475 C   0  0  0  0  0  0  0  0  0  0  0  0
    6.1631  -12.9950   25.0471 C   0  0  0  0  0  0  0  0  0  0  0  0
    6.6920  -11.9189   25.7168 C   0  0  0  0  0  0  0  0  0  0  0  0
    7.6603  -12.0964   26.6890 C   0  0  0  0  0  0  0  0  0  0  0  0
    8.0896  -13.3709   26.9776 C   0  0  0  0  0  0  0  0  0  0  0  0
    7.5689  -14.4480   26.3151 C   0  0  0  0  0  0  0  0  0  0  0  0
   11.1593  -17.3294   27.3693 C   0  0  0  0  0  0  0  0  0  0  0  0
   11.5931  -17.1772   28.7045 O   0  0  0  0  0  0  0  0  0  0  0  0
   11.7022  -18.2868   26.7650 O   0  0  0  0  0  0  0  0  0  0  0  0
  2  1  1  1
  3  2  1  0
  4  2  1  0
  4  5  1  1
  6  4  1  0
  7  6  2  0
  8  6  1  0
  9  8  1  0
 10  9  1  0
 10 12  1  0
 11 10  2  0
 13 12  1  0
 13 14  1  1
 15 14  1  0
 15 16  2  0
 17 16  1  0
 18 17  1  0
 19 18  2  0
 20 19  1  0
 21 20  2  0
 21 22  1  0
 22 23  2  0
 23 18  1  0
 23 15  1  0
 24 25  1  0
 24 13  1  0
 26 24  2  0
M  END
$$$$
