TGW.pdb
     RDKit          3D

 26 27  0  0  1  0  0  0  0  0999 V2000
    7.9966  -12.7881   17.3514 C   0  0  0  0  0  0  0  0  0  0  0  0
    8.3962  -14.0348   18.0893 C   0  0  1  0  0  0  0  0  0  0  0  0
    9.6670  -13.9254   18.6748 O   0  0  0  0  0  0  0  0  0  0  0  0
    7.3533  -14.4804   19.0946 C   0  0  2  0  0  0  0  0  0  0  0  0
    7.1884  -13.3864   20.0337 N   0  0  0  0  0  0  0  0  0  0  0  0
    7.7394  -15.6803   19.8366 C   0  0  0  0  0  0  0  0  0  0  0  0
    7.0813  -16.7682   19.7323 O   0  0  0  0  0  0  0  0  0  0  0  0
    8.8588  -15.7429   20.7227 N   0  0  0  0  0  0  0  0  0  0  0  0
    9.1320  -16.8977   21.5224 C   0  0  0  0  0  0  0  0  0  0  0  0
   10.1592  -16.6925   22.5567 C   0  0  0  0  0  0  0  0  0  0  0  0
   11.2758  -16.1593   22.3467 O   0  0  0  0  0  0  0  0  0  0  0  0
    9.8658  -17.1251   23.8729 N   0  0  0  0  0  0  0  0  0  0  0  0
   10.0298  -16.2451   25.0305 C   0  0  1  0  0  0  0  0  0  0  0  0
    9.5424  -14.9007   24.6376 C   0  0  0  0  0  0  0  0  0  0  0  0
    8.1874  -14.6264   25.1291 C   0  0  0  0  0  0  0  0  0  0  0  0
    7.1311  -15.5308   25.0685 C   0  0  0  0  0  0  0  0  0  0  0  0
    6.0546  -14.9438   25.5613 N   0  0  0  0  0  0  0  0  0  0  0  0
    6.3139  -13.6851   25.9578 C   0  0  0  0  0  0  0  0  0  0  0  0
    5.5573  -12.7031   26.5318 C   0  0  0  0  0  0  0  0  0  0  0  0
    6.1392  -11.4992   26.8451 C   0  0  0  0  0  0  0  0  0  0  0  0
    7.4792  -11.2720   26.5861 C   0  0  0  0  0  0  0  0  0  0  0  0
    8.2253  -12.2719   26.0070 C   0  0  0  0  0  0  0  0  0  0  0  0
    7.6537  -13.4734   25.6911 C   0  0  0  0  0  0  0  0  0  0  0  0
    9.3820  -16.8930   26.1696 C   0  0  0  0  0  0  0  0  0  0  0  0
    9.6448  -16.4856   27.4960 O   0  0  0  0  0  0  0  0  0  0  0  0
    8.5604  -17.8385   26.0822 O   0  0  0  0  0  0  0  0  0  0  0  0
  2  1  1  1
  3  2  1  0
  4  2  1  0
  4  5  1  1
  6  4  1  0
  7  6  2  0
  8  6  1  0
  9  8  1  0
 10  9  1  0
 10 12  1  0
 11 10  2  0
 13 12  1  0
 13 14  1  6
 15 14  1  0
 15 16  2  0
 17 16  1  0
 18 17  1  0
 19 18  2  0
 20 19  1  0
 21 20  2  0
 21 22  1  0
 22 23  2  0
 23 18  1  0
 23 15  1  0
 24 25  1  0
 24 13  1  0
 26 24  2  0
M  END
$$$$
