QGV.pdb
     RDKit          3D

 21 20  0  0  1  0  0  0  0  0999 V2000
    8.4484  -19.7504   16.3989 N   0  0  0  0  0  0  0  0  0  0  0  0
    9.2219  -18.6175   16.7684 C   0  0  0  0  0  0  0  0  0  0  0  0
   10.4673  -18.6266   16.6374 O   0  0  0  0  0  0  0  0  0  0  0  0
    8.5549  -17.4249   17.3088 C   0  0  0  0  0  0  0  0  0  0  0  0
    7.9192  -17.6792   18.6562 C   0  0  0  0  0  0  0  0  0  0  0  0
    8.6906  -16.8679   19.6731 C   0  0  2  0  0  0  0  0  0  0  0  0
    9.5646  -17.7867   20.3829 N   0  0  0  0  0  0  0  0  0  0  0  0
    7.8003  -16.2016   20.6570 C   0  0  0  0  0  0  0  0  0  0  0  0
    7.0563  -15.2210   20.3441 O   0  0  0  0  0  0  0  0  0  0  0  0
    7.7502  -16.6444   21.9990 N   0  0  0  0  0  0  0  0  0  0  0  0
    6.8528  -16.0592   22.9764 C   0  0  0  0  0  0  0  0  0  0  0  0
    7.5964  -15.1517   23.8967 C   0  0  0  0  0  0  0  0  0  0  0  0
    8.8411  -15.0016   23.7897 O   0  0  0  0  0  0  0  0  0  0  0  0
    7.5766  -11.8314   27.5694 C   0  0  0  0  0  0  0  0  0  0  0  0
    6.7931  -12.6758   26.6189 C   0  0  1  0  0  0  0  0  0  0  0  0
    5.9951  -11.7871   25.7133 C   0  0  0  0  0  0  0  0  0  0  0  0
    7.6997  -13.6241   25.8624 C   0  0  2  0  0  0  0  0  0  0  0  0
    6.9463  -14.4231   24.9239 N   0  0  0  0  0  0  0  0  0  0  0  0
    8.5216  -14.4468   26.7746 C   0  0  0  0  0  0  0  0  0  0  0  0
    9.7095  -14.0079   27.3412 O   0  0  0  0  0  0  0  0  0  0  0  0
    8.1570  -15.6107   27.0761 O   0  0  0  0  0  0  0  0  0  0  0  0
  1  2  1  0
  2  3  2  0
  4  5  1  0
  4  2  1  0
  6  7  1  1
  6  8  1  0
  6  5  1  0
  8 10  1  0
  8  9  2  0
 10 11  1  0
 11 12  1  0
 12 18  1  0
 12 13  2  0
 15 14  1  1
 15 17  1  0
 16 15  1  0
 17 19  1  0
 17 18  1  1
 19 20  1  0
 21 19  2  0
M  END
$$$$
