QGV.pdb
     RDKit          3D

 21 20  0  0  1  0  0  0  0  0999 V2000
   12.4873  -17.0858   23.8943 N   0  0  0  0  0  0  0  0  0  0  0  0
   12.0411  -17.7723   22.7332 C   0  0  0  0  0  0  0  0  0  0  0  0
   12.5444  -18.8729   22.4114 O   0  0  0  0  0  0  0  0  0  0  0  0
   10.9800  -17.1859   21.9030 C   0  0  0  0  0  0  0  0  0  0  0  0
    9.9375  -18.2015   21.4954 C   0  0  0  0  0  0  0  0  0  0  0  0
    8.8991  -17.4694   20.6750 C   0  0  2  0  0  0  0  0  0  0  0  0
    9.6109  -16.6948   19.6723 N   0  0  0  0  0  0  0  0  0  0  0  0
    8.0789  -16.5444   21.4973 C   0  0  0  0  0  0  0  0  0  0  0  0
    7.2563  -16.9607   22.3708 O   0  0  0  0  0  0  0  0  0  0  0  0
    8.1882  -15.1442   21.3325 N   0  0  0  0  0  0  0  0  0  0  0  0
    7.4029  -14.2073   22.1127 C   0  0  0  0  0  0  0  0  0  0  0  0
    7.9288  -14.1112   23.5047 C   0  0  0  0  0  0  0  0  0  0  0  0
    9.0779  -14.5357   23.7919 O   0  0  0  0  0  0  0  0  0  0  0  0
    7.1952  -10.9454   25.9621 C   0  0  0  0  0  0  0  0  0  0  0  0
    7.0177  -12.2682   26.6321 C   0  0  1  0  0  0  0  0  0  0  0  0
    5.5537  -12.5445   26.7965 C   0  0  0  0  0  0  0  0  0  0  0  0
    7.7407  -13.3614   25.8735 C   0  0  2  0  0  0  0  0  0  0  0  0
    7.1699  -13.5445   24.5591 N   0  0  0  0  0  0  0  0  0  0  0  0
    7.8014  -14.6206   26.6448 C   0  0  0  0  0  0  0  0  0  0  0  0
    8.6464  -14.8156   27.7278 O   0  0  0  0  0  0  0  0  0  0  0  0
    7.0633  -15.5882   26.3327 O   0  0  0  0  0  0  0  0  0  0  0  0
  1  2  1  0
  2  3  2  0
  4  5  1  0
  4  2  1  0
  6  7  1  6
  6  8  1  0
  6  5  1  0
  8 10  1  0
  8  9  2  0
 10 11  1  0
 11 12  1  0
 12 18  1  0
 12 13  2  0
 15 14  1  6
 15 17  1  0
 16 15  1  0
 17 19  1  0
 17 18  1  6
 19 20  1  0
 21 19  2  0
M  END
$$$$
