QGV.pdb
     RDKit          3D

 21 20  0  0  1  0  0  0  0  0999 V2000
   11.2167  -18.2062   17.6809 N   0  0  0  0  0  0  0  0  0  0  0  0
   10.4508  -19.3394   18.0652 C   0  0  0  0  0  0  0  0  0  0  0  0
   10.8085  -20.4924   17.7319 O   0  0  0  0  0  0  0  0  0  0  0  0
    9.2288  -19.1570   18.8604 C   0  0  0  0  0  0  0  0  0  0  0  0
    8.9165  -17.7001   19.1140 C   0  0  0  0  0  0  0  0  0  0  0  0
    9.2517  -17.4180   20.5615 C   0  0  2  0  0  0  0  0  0  0  0  0
    8.8042  -18.5623   21.3376 N   0  0  0  0  0  0  0  0  0  0  0  0
    8.5713  -16.2011   21.0721 C   0  0  0  0  0  0  0  0  0  0  0  0
    8.8042  -15.0449   20.6008 O   0  0  0  0  0  0  0  0  0  0  0  0
    7.6245  -16.2903   22.1186 N   0  0  0  0  0  0  0  0  0  0  0  0
    7.0080  -15.1181   22.7095 C   0  0  0  0  0  0  0  0  0  0  0  0
    7.8023  -14.6375   23.8764 C   0  0  0  0  0  0  0  0  0  0  0  0
    9.0423  -14.8412   23.9418 O   0  0  0  0  0  0  0  0  0  0  0  0
    7.2109  -11.0712   25.6158 C   0  0  0  0  0  0  0  0  0  0  0  0
    7.3474  -12.1639   26.6246 C   0  0  1  0  0  0  0  0  0  0  0  0
    6.0003  -12.4671   27.2076 C   0  0  0  0  0  0  0  0  0  0  0  0
    8.0130  -13.3815   26.0180 C   0  0  2  0  0  0  0  0  0  0  0  0
    7.2074  -13.9368   24.9552 N   0  0  0  0  0  0  0  0  0  0  0  0
    8.3670  -14.3850   27.0437 C   0  0  0  0  0  0  0  0  0  0  0  0
    9.3359  -14.1786   28.0150 O   0  0  0  0  0  0  0  0  0  0  0  0
    7.7805  -15.4958   27.0688 O   0  0  0  0  0  0  0  0  0  0  0  0
  1  2  1  0
  2  3  2  0
  4  5  1  0
  4  2  1  0
  6  7  1  1
  6  8  1  0
  6  5  1  0
  8 10  1  0
  8  9  2  0
 10 11  1  0
 11 12  1  0
 12 18  1  0
 12 13  2  0
 15 14  1  6
 15 17  1  0
 16 15  1  0
 17 19  1  0
 17 18  1  6
 19 20  1  0
 21 19  2  0
M  END
$$$$
