QGV.pdb
     RDKit          3D

 21 20  0  0  1  0  0  0  0  0999 V2000
   10.0094  -11.9403   19.4024 N   0  0  0  0  0  0  0  0  0  0  0  0
    9.5941  -13.0920   18.6816 C   0  0  0  0  0  0  0  0  0  0  0  0
   10.4390  -13.8609   18.1685 O   0  0  0  0  0  0  0  0  0  0  0  0
    8.1612  -13.3833   18.5369 C   0  0  0  0  0  0  0  0  0  0  0  0
    7.5198  -13.7915   19.8432 C   0  0  0  0  0  0  0  0  0  0  0  0
    7.8748  -15.2425   20.0796 C   0  0  2  0  0  0  0  0  0  0  0  0
    6.7633  -16.0421   19.5926 N   0  0  0  0  0  0  0  0  0  0  0  0
    8.0851  -15.5456   21.5178 C   0  0  0  0  0  0  0  0  0  0  0  0
    9.1714  -15.2736   22.1171 O   0  0  0  0  0  0  0  0  0  0  0  0
    7.0649  -16.1578   22.2820 N   0  0  0  0  0  0  0  0  0  0  0  0
    7.2174  -16.4392   23.6964 C   0  0  0  0  0  0  0  0  0  0  0  0
    7.8580  -15.2885   24.3957 C   0  0  0  0  0  0  0  0  0  0  0  0
    9.0208  -14.9149   24.0934 O   0  0  0  0  0  0  0  0  0  0  0  0
    6.5861  -11.7424   25.3871 C   0  0  0  0  0  0  0  0  0  0  0  0
    7.0544  -12.4471   26.6177 C   0  0  1  0  0  0  0  0  0  0  0  0
    5.8677  -12.8146   27.4564 C   0  0  0  0  0  0  0  0  0  0  0  0
    7.9166  -13.6407   26.2639 C   0  0  2  0  0  0  0  0  0  0  0  0
    7.1971  -14.5683   25.4220 N   0  0  0  0  0  0  0  0  0  0  0  0
    8.4818  -14.2885   27.4661 C   0  0  0  0  0  0  0  0  0  0  0  0
    8.2420  -15.6117   27.8076 O   0  0  0  0  0  0  0  0  0  0  0  0
    9.2235  -13.6379   28.2440 O   0  0  0  0  0  0  0  0  0  0  0  0
  1  2  1  0
  2  3  2  0
  4  5  1  0
  4  2  1  0
  6  7  1  1
  6  8  1  0
  6  5  1  0
  8 10  1  0
  8  9  2  0
 10 11  1  0
 11 12  1  0
 12 18  1  0
 12 13  2  0
 15 14  1  6
 15 17  1  0
 16 15  1  0
 17 19  1  0
 17 18  1  1
 19 20  1  0
 21 19  2  0
M  END
$$$$
