QGV.pdb
     RDKit          3D

 21 20  0  0  1  0  0  0  0  0999 V2000
    7.2668  -13.7840   14.7851 N   0  0  0  0  0  0  0  0  0  0  0  0
    8.1107  -14.6040   15.5813 C   0  0  0  0  0  0  0  0  0  0  0  0
    8.2407  -15.8228   15.3245 O   0  0  0  0  0  0  0  0  0  0  0  0
    8.8372  -14.0169   16.7156 C   0  0  0  0  0  0  0  0  0  0  0  0
    8.6538  -14.8075   17.9906 C   0  0  0  0  0  0  0  0  0  0  0  0
    7.8424  -13.9486   18.9347 C   0  0  2  0  0  0  0  0  0  0  0  0
    8.7157  -12.8887   19.4101 N   0  0  0  0  0  0  0  0  0  0  0  0
    7.3413  -14.7132   20.1046 C   0  0  0  0  0  0  0  0  0  0  0  0
    6.4685  -15.6293   19.9936 O   0  0  0  0  0  0  0  0  0  0  0  0
    7.8275  -14.4423   21.4045 N   0  0  0  0  0  0  0  0  0  0  0  0
    7.3776  -15.1782   22.5704 C   0  0  0  0  0  0  0  0  0  0  0  0
    8.0943  -14.7155   23.7934 C   0  0  0  0  0  0  0  0  0  0  0  0
    9.3168  -14.9633   23.9584 O   0  0  0  0  0  0  0  0  0  0  0  0
    7.3761  -11.2688   25.8511 C   0  0  0  0  0  0  0  0  0  0  0  0
    7.4393  -12.4729   26.7322 C   0  0  1  0  0  0  0  0  0  0  0  0
    6.0551  -12.8228   27.1883 C   0  0  0  0  0  0  0  0  0  0  0  0
    8.1352  -13.6212   26.0316 C   0  0  2  0  0  0  0  0  0  0  0  0
    7.4422  -13.9835   24.8169 N   0  0  0  0  0  0  0  0  0  0  0  0
    8.3392  -14.7748   26.9327 C   0  0  0  0  0  0  0  0  0  0  0  0
    9.2425  -14.7739   27.9857 O   0  0  0  0  0  0  0  0  0  0  0  0
    7.6772  -15.8298   26.7674 O   0  0  0  0  0  0  0  0  0  0  0  0
  1  2  1  0
  2  3  2  0
  4  5  1  0
  4  2  1  0
  6  7  1  1
  6  8  1  0
  6  5  1  0
  8 10  1  0
  8  9  2  0
 10 11  1  0
 11 12  1  0
 12 18  1  0
 12 13  2  0
 15 14  1  6
 15 17  1  0
 16 15  1  0
 17 19  1  0
 17 18  1  6
 19 20  1  0
 21 19  2  0
M  END
$$$$
