QGV.pdb
     RDKit          3D

 21 20  0  0  1  0  0  0  0  0999 V2000
    6.9644  -13.2157   18.6431 N   0  0  0  0  0  0  0  0  0  0  0  0
    8.3054  -13.6762   18.7334 C   0  0  0  0  0  0  0  0  0  0  0  0
    9.2402  -12.8740   18.9592 O   0  0  0  0  0  0  0  0  0  0  0  0
    8.5979  -15.1057   18.5603 C   0  0  0  0  0  0  0  0  0  0  0  0
    9.0214  -15.7691   19.8507 C   0  0  0  0  0  0  0  0  0  0  0  0
    7.8895  -16.6768   20.2774 C   0  0  2  0  0  0  0  0  0  0  0  0
    6.6506  -16.0511   19.8465 N   0  0  0  0  0  0  0  0  0  0  0  0
    7.8407  -16.8653   21.7494 C   0  0  0  0  0  0  0  0  0  0  0  0
    8.7855  -17.4167   22.3947 O   0  0  0  0  0  0  0  0  0  0  0  0
    6.7211  -16.4294   22.4951 N   0  0  0  0  0  0  0  0  0  0  0  0
    6.6402  -16.5827   23.9349 C   0  0  0  0  0  0  0  0  0  0  0  0
    7.4928  -15.5696   24.6206 C   0  0  0  0  0  0  0  0  0  0  0  0
    8.7121  -15.4507   24.3338 O   0  0  0  0  0  0  0  0  0  0  0  0
    6.6182  -11.8304   25.3950 C   0  0  0  0  0  0  0  0  0  0  0  0
    7.1095  -12.4921   26.6404 C   0  0  1  0  0  0  0  0  0  0  0  0
    5.9574  -12.6957   27.5773 C   0  0  0  0  0  0  0  0  0  0  0  0
    7.8398  -13.7791   26.3184 C   0  0  2  0  0  0  0  0  0  0  0  0
    6.9783  -14.7021   25.6163 N   0  0  0  0  0  0  0  0  0  0  0  0
    8.4537  -14.3806   27.5208 C   0  0  0  0  0  0  0  0  0  0  0  0
    9.4419  -13.7577   28.2693 O   0  0  0  0  0  0  0  0  0  0  0  0
    8.0867  -15.5150   27.9166 O   0  0  0  0  0  0  0  0  0  0  0  0
  1  2  1  0
  2  3  2  0
  4  5  1  0
  4  2  1  0
  6  7  1  1
  6  8  1  0
  6  5  1  0
  8 10  1  0
  8  9  2  0
 10 11  1  0
 11 12  1  0
 12 18  1  0
 12 13  2  0
 15 14  1  6
 15 17  1  0
 16 15  1  0
 17 19  1  0
 17 18  1  1
 19 20  1  0
 21 19  2  0
M  END
$$$$
