QGV.pdb
     RDKit          3D

 21 20  0  0  1  0  0  0  0  0999 V2000
    8.6543  -12.4460   18.5795 N   0  0  0  0  0  0  0  0  0  0  0  0
    9.5766  -13.5246   18.6453 C   0  0  0  0  0  0  0  0  0  0  0  0
   10.7138  -13.3605   19.1434 O   0  0  0  0  0  0  0  0  0  0  0  0
    9.1928  -14.8440   18.1246 C   0  0  0  0  0  0  0  0  0  0  0  0
    8.7744  -15.7979   19.2197 C   0  0  0  0  0  0  0  0  0  0  0  0
    7.2736  -15.6795   19.3644 C   0  0  2  0  0  0  0  0  0  0  0  0
    6.9203  -14.3014   19.0678 N   0  0  0  0  0  0  0  0  0  0  0  0
    6.8111  -16.0046   20.7374 C   0  0  0  0  0  0  0  0  0  0  0  0
    5.8803  -16.8395   20.9602 O   0  0  0  0  0  0  0  0  0  0  0  0
    7.4019  -15.3846   21.8626 N   0  0  0  0  0  0  0  0  0  0  0  0
    7.0620  -15.7579   23.2221 C   0  0  0  0  0  0  0  0  0  0  0  0
    7.8046  -14.9131   24.2010 C   0  0  0  0  0  0  0  0  0  0  0  0
    9.0306  -14.6744   24.0490 O   0  0  0  0  0  0  0  0  0  0  0  0
    6.6893  -11.5663   25.9284 C   0  0  0  0  0  0  0  0  0  0  0  0
    7.1431  -12.5347   26.9707 C   0  0  1  0  0  0  0  0  0  0  0  0
    5.9539  -13.0202   27.7432 C   0  0  0  0  0  0  0  0  0  0  0  0
    7.9423  -13.6624   26.3516 C   0  0  2  0  0  0  0  0  0  0  0  0
    7.1743  -14.3450   25.3362 N   0  0  0  0  0  0  0  0  0  0  0  0
    8.4762  -14.5862   27.3744 C   0  0  0  0  0  0  0  0  0  0  0  0
    9.5061  -14.2549   28.2429 O   0  0  0  0  0  0  0  0  0  0  0  0
    7.9969  -15.7414   27.4933 O   0  0  0  0  0  0  0  0  0  0  0  0
  1  2  1  0
  2  3  2  0
  4  5  1  0
  4  2  1  0
  6  7  1  1
  6  8  1  0
  6  5  1  0
  8 10  1  0
  8  9  2  0
 10 11  1  0
 11 12  1  0
 12 18  1  0
 12 13  2  0
 15 14  1  6
 15 17  1  0
 16 15  1  0
 17 19  1  0
 17 18  1  6
 19 20  1  0
 21 19  2  0
M  END
$$$$
