QGV.pdb
     RDKit          3D

 21 20  0  0  1  0  0  0  0  0999 V2000
   13.3555  -16.8968   20.5202 N   0  0  0  0  0  0  0  0  0  0  0  0
   12.3830  -17.5541   21.3206 C   0  0  0  0  0  0  0  0  0  0  0  0
   12.4131  -17.4552   22.5686 O   0  0  0  0  0  0  0  0  0  0  0  0
   11.3329  -18.3566   20.6785 C   0  0  0  0  0  0  0  0  0  0  0  0
   10.0771  -18.4408   21.5153 C   0  0  0  0  0  0  0  0  0  0  0  0
    8.9905  -17.7049   20.7635 C   0  0  2  0  0  0  0  0  0  0  0  0
    9.6436  -16.8857   19.7563 N   0  0  0  0  0  0  0  0  0  0  0  0
    8.1893  -16.8224   21.6488 C   0  0  0  0  0  0  0  0  0  0  0  0
    7.3836  -17.2822   22.5163 O   0  0  0  0  0  0  0  0  0  0  0  0
    8.2983  -15.4158   21.5539 N   0  0  0  0  0  0  0  0  0  0  0  0
    7.4531  -14.5185   22.3179 C   0  0  0  0  0  0  0  0  0  0  0  0
    7.9908  -14.3356   23.6967 C   0  0  0  0  0  0  0  0  0  0  0  0
    9.0670  -14.8845   24.0485 O   0  0  0  0  0  0  0  0  0  0  0  0
    7.7614  -10.9560   25.9904 C   0  0  0  0  0  0  0  0  0  0  0  0
    7.2996  -12.1896   26.6940 C   0  0  1  0  0  0  0  0  0  0  0  0
    5.8037  -12.1729   26.7866 C   0  0  0  0  0  0  0  0  0  0  0  0
    7.8327  -13.4332   26.0138 C   0  0  2  0  0  0  0  0  0  0  0  0
    7.3248  -13.5448   24.6660 N   0  0  0  0  0  0  0  0  0  0  0  0
    7.5837  -14.6499   26.8152 C   0  0  0  0  0  0  0  0  0  0  0  0
    8.3184  -14.9883   27.9424 O   0  0  0  0  0  0  0  0  0  0  0  0
    6.6662  -15.4438   26.4890 O   0  0  0  0  0  0  0  0  0  0  0  0
  1  2  1  0
  2  3  2  0
  4  5  1  0
  4  2  1  0
  6  7  1  6
  6  8  1  0
  6  5  1  0
  8 10  1  0
  8  9  2  0
 10 11  1  0
 11 12  1  0
 12 18  1  0
 12 13  2  0
 15 14  1  6
 15 17  1  0
 16 15  1  0
 17 19  1  0
 17 18  1  6
 19 20  1  0
 21 19  2  0
M  END
$$$$
