QGV.pdb
     RDKit          3D

 21 20  0  0  1  0  0  0  0  0999 V2000
    9.4683  -20.4413   18.0644 N   0  0  0  0  0  0  0  0  0  0  0  0
    9.9690  -19.1245   18.2478 C   0  0  0  0  0  0  0  0  0  0  0  0
   11.1808  -18.9334   18.4997 O   0  0  0  0  0  0  0  0  0  0  0  0
    9.0574  -17.9770   18.1410 C   0  0  0  0  0  0  0  0  0  0  0  0
    8.0600  -17.9240   19.2753 C   0  0  0  0  0  0  0  0  0  0  0  0
    8.8111  -17.4740   20.5084 C   0  0  2  0  0  0  0  0  0  0  0  0
    9.1013  -18.6625   21.2929 N   0  0  0  0  0  0  0  0  0  0  0  0
    8.0181  -16.5354   21.3419 C   0  0  0  0  0  0  0  0  0  0  0  0
    7.7408  -15.3564   20.9595 O   0  0  0  0  0  0  0  0  0  0  0  0
    7.5365  -16.9296   22.6116 N   0  0  0  0  0  0  0  0  0  0  0  0
    6.6645  -16.0869   23.4069 C   0  0  0  0  0  0  0  0  0  0  0  0
    7.4628  -15.1887   24.2899 C   0  0  0  0  0  0  0  0  0  0  0  0
    8.7205  -15.2192   24.2748 O   0  0  0  0  0  0  0  0  0  0  0  0
    6.5555  -11.3677   25.1637 C   0  0  0  0  0  0  0  0  0  0  0  0
    6.8950  -12.1514   26.3887 C   0  0  1  0  0  0  0  0  0  0  0  0
    5.6413  -12.4194   27.1652 C   0  0  0  0  0  0  0  0  0  0  0  0
    7.6471  -13.4165   26.0316 C   0  0  2  0  0  0  0  0  0  0  0  0
    6.8519  -14.2685   25.1779 N   0  0  0  0  0  0  0  0  0  0  0  0
    8.1418  -14.1216   27.2327 C   0  0  0  0  0  0  0  0  0  0  0  0
    9.1185  -13.6089   28.0740 O   0  0  0  0  0  0  0  0  0  0  0  0
    7.6766  -15.2475   27.5401 O   0  0  0  0  0  0  0  0  0  0  0  0
  1  2  1  0
  2  3  2  0
  4  5  1  0
  4  2  1  0
  6  7  1  1
  6  8  1  0
  6  5  1  0
  8 10  1  0
  8  9  2  0
 10 11  1  0
 11 12  1  0
 12 18  1  0
 12 13  2  0
 15 14  1  6
 15 17  1  0
 16 15  1  0
 17 19  1  0
 17 18  1  1
 19 20  1  0
 21 19  2  0
M  END
$$$$
