QGV.pdb
     RDKit          3D

 21 20  0  0  1  0  0  0  0  0999 V2000
    8.1499  -12.8089   16.5611 N   0  0  0  0  0  0  0  0  0  0  0  0
    8.4615  -14.1754   16.3283 C   0  0  0  0  0  0  0  0  0  0  0  0
    8.9279  -14.5431   15.2258 O   0  0  0  0  0  0  0  0  0  0  0  0
    8.2346  -15.1654   17.3901 C   0  0  0  0  0  0  0  0  0  0  0  0
    7.6767  -14.5439   18.6499 C   0  0  0  0  0  0  0  0  0  0  0  0
    8.5176  -15.0437   19.8034 C   0  0  2  0  0  0  0  0  0  0  0  0
    8.7530  -16.4605   19.5818 N   0  0  0  0  0  0  0  0  0  0  0  0
    7.8388  -14.8730   21.1128 C   0  0  0  0  0  0  0  0  0  0  0  0
    7.5200  -13.7310   21.5684 O   0  0  0  0  0  0  0  0  0  0  0  0
    7.5188  -15.9958   21.9105 N   0  0  0  0  0  0  0  0  0  0  0  0
    6.9219  -15.8685   23.2261 C   0  0  0  0  0  0  0  0  0  0  0  0
    7.7720  -15.0200   24.1097 C   0  0  0  0  0  0  0  0  0  0  0  0
    8.9895  -14.8353   23.8513 O   0  0  0  0  0  0  0  0  0  0  0  0
    6.8126  -11.5247   25.6246 C   0  0  0  0  0  0  0  0  0  0  0  0
    7.3350  -12.4162   26.7028 C   0  0  1  0  0  0  0  0  0  0  0  0
    6.1976  -12.8503   27.5771 C   0  0  0  0  0  0  0  0  0  0  0  0
    8.1043  -13.5818   26.1171 C   0  0  2  0  0  0  0  0  0  0  0  0
    7.2571  -14.3881   25.2691 N   0  0  0  0  0  0  0  0  0  0  0  0
    8.7804  -14.3777   27.1630 C   0  0  0  0  0  0  0  0  0  0  0  0
    8.5508  -15.7311   27.3639 O   0  0  0  0  0  0  0  0  0  0  0  0
    9.6137  -13.8340   27.9301 O   0  0  0  0  0  0  0  0  0  0  0  0
  1  2  1  0
  2  3  2  0
  4  5  1  0
  4  2  1  0
  6  7  1  6
  6  8  1  0
  6  5  1  0
  8 10  1  0
  8  9  2  0
 10 11  1  0
 11 12  1  0
 12 18  1  0
 12 13  2  0
 15 14  1  6
 15 17  1  0
 16 15  1  0
 17 19  1  0
 17 18  1  1
 19 20  1  0
 21 19  2  0
M  END
$$$$
