QGV.pdb
     RDKit          3D

 21 20  0  0  1  0  0  0  0  0999 V2000
    9.7448  -18.6698   17.6818 N   0  0  0  0  0  0  0  0  0  0  0  0
    8.5528  -19.4338   17.8000 C   0  0  0  0  0  0  0  0  0  0  0  0
    8.4716  -20.5712   17.2822 O   0  0  0  0  0  0  0  0  0  0  0  0
    7.4056  -18.8848   18.5359 C   0  0  0  0  0  0  0  0  0  0  0  0
    7.6040  -17.4359   18.9178 C   0  0  0  0  0  0  0  0  0  0  0  0
    8.3053  -17.4204   20.2576 C   0  0  2  0  0  0  0  0  0  0  0  0
    8.3816  -18.7963   20.7192 N   0  0  0  0  0  0  0  0  0  0  0  0
    7.5722  -16.6187   21.2697 C   0  0  0  0  0  0  0  0  0  0  0  0
    7.2849  -15.3949   21.0881 O   0  0  0  0  0  0  0  0  0  0  0  0
    7.1621  -17.2011   22.4913 N   0  0  0  0  0  0  0  0  0  0  0  0
    6.3832  -16.4739   23.4749 C   0  0  0  0  0  0  0  0  0  0  0  0
    7.2417  -15.5037   24.2133 C   0  0  0  0  0  0  0  0  0  0  0  0
    8.4043  -15.2355   23.8139 O   0  0  0  0  0  0  0  0  0  0  0  0
    7.5564  -11.7005   27.2969 C   0  0  0  0  0  0  0  0  0  0  0  0
    6.7255  -12.7583   26.6482 C   0  0  1  0  0  0  0  0  0  0  0  0
    5.7899  -12.1176   25.6681 C   0  0  0  0  0  0  0  0  0  0  0  0
    7.5988  -13.8228   26.0177 C   0  0  2  0  0  0  0  0  0  0  0  0
    6.7961  -14.8445   25.3862 N   0  0  0  0  0  0  0  0  0  0  0  0
    8.5704  -14.3813   26.9814 C   0  0  0  0  0  0  0  0  0  0  0  0
    9.8129  -13.8167   27.2307 O   0  0  0  0  0  0  0  0  0  0  0  0
    8.2912  -15.4218   27.6279 O   0  0  0  0  0  0  0  0  0  0  0  0
  1  2  1  0
  2  3  2  0
  4  5  1  0
  4  2  1  0
  6  7  1  1
  6  8  1  0
  6  5  1  0
  8 10  1  0
  8  9  2  0
 10 11  1  0
 11 12  1  0
 12 18  1  0
 12 13  2  0
 15 14  1  6
 15 17  1  0
 16 15  1  0
 17 19  1  0
 17 18  1  1
 19 20  1  0
 21 19  2  0
M  END
$$$$
