QGV.pdb
     RDKit          3D

 21 20  0  0  1  0  0  0  0  0999 V2000
   12.7477  -13.7299   19.1704 N   0  0  0  0  0  0  0  0  0  0  0  0
   12.7137  -14.9432   19.9088 C   0  0  0  0  0  0  0  0  0  0  0  0
   13.2926  -15.0312   21.0158 O   0  0  0  0  0  0  0  0  0  0  0  0
   11.9934  -16.1045   19.3690 C   0  0  0  0  0  0  0  0  0  0  0  0
   10.9831  -16.6625   20.3449 C   0  0  0  0  0  0  0  0  0  0  0  0
    9.6106  -16.3211   19.8093 C   0  0  2  0  0  0  0  0  0  0  0  0
    9.7387  -15.0866   19.0532 N   0  0  0  0  0  0  0  0  0  0  0  0
    8.6166  -16.1147   20.8928 C   0  0  0  0  0  0  0  0  0  0  0  0
    8.1083  -17.0816   21.5408 O   0  0  0  0  0  0  0  0  0  0  0  0
    8.1952  -14.8118   21.2457 N   0  0  0  0  0  0  0  0  0  0  0  0
    7.2108  -14.5687   22.2825 C   0  0  0  0  0  0  0  0  0  0  0  0
    7.8782  -14.2591   23.5795 C   0  0  0  0  0  0  0  0  0  0  0  0
    9.1213  -14.3985   23.7159 O   0  0  0  0  0  0  0  0  0  0  0  0
    7.0522  -11.1689   25.9536 C   0  0  0  0  0  0  0  0  0  0  0  0
    7.0998  -12.4413   26.7338 C   0  0  1  0  0  0  0  0  0  0  0  0
    5.7062  -12.8333   27.1221 C   0  0  0  0  0  0  0  0  0  0  0  0
    7.8212  -13.5250   25.9599 C   0  0  2  0  0  0  0  0  0  0  0  0
    7.1546  -13.7987   24.7078 N   0  0  0  0  0  0  0  0  0  0  0  0
    8.0215  -14.7430   26.7728 C   0  0  0  0  0  0  0  0  0  0  0  0
    8.9622  -14.8403   27.7879 O   0  0  0  0  0  0  0  0  0  0  0  0
    7.3211  -15.7645   26.5624 O   0  0  0  0  0  0  0  0  0  0  0  0
  1  2  1  0
  2  3  2  0
  4  5  1  0
  4  2  1  0
  6  7  1  1
  6  8  1  0
  6  5  1  0
  8 10  1  0
  8  9  2  0
 10 11  1  0
 11 12  1  0
 12 18  1  0
 12 13  2  0
 15 14  1  6
 15 17  1  0
 16 15  1  0
 17 19  1  0
 17 18  1  6
 19 20  1  0
 21 19  2  0
M  END
$$$$
