DPV.pdb
     RDKit          3D

 23 23  0  0  1  0  0  0  0  0999 V2000
   23.8096  -22.1549  -13.3877 N   0  0  0  0  0  0  0  0  0  0  0  0
   24.4991  -20.9502  -12.8573 C   0  0  1  0  0  0  0  0  0  0  0  0
   23.3545  -20.0403  -12.4714 C   0  0  0  0  0  0  0  0  0  0  0  0
   22.8926  -19.1861  -13.5636 C   0  0  0  0  0  0  0  0  0  0  0  0
   23.5693  -18.9254  -14.5582 O   0  0  0  0  0  0  0  0  0  0  0  0
   25.2633  -21.3421  -11.6438 C   0  0  0  0  0  0  0  0  0  0  0  0
   24.6792  -22.1669  -10.8817 O   0  0  0  0  0  0  0  0  0  0  0  0
   21.5927  -18.6225  -13.4794 O   0  0  0  0  0  0  0  0  0  0  0  0
   26.5345  -20.8973  -11.2830 N   0  0  0  0  0  0  0  0  0  0  0  0
   27.3421  -19.9028  -11.9336 C   0  0  0  0  0  0  0  0  0  0  0  0
   28.7368  -20.5037  -11.8633 C   0  0  0  0  0  0  0  0  0  0  0  0
   28.6653  -21.6384  -10.8687 C   0  0  0  0  0  0  0  0  0  0  0  0
   27.3328  -21.3864  -10.1883 C   0  0  1  0  0  0  0  0  0  0  0  0
   27.4493  -20.3758   -9.0972 C   0  0  0  0  0  0  0  0  0  0  0  0
   27.3262  -19.1400   -9.2863 O   0  0  0  0  0  0  0  0  0  0  0  0
   27.0677  -19.6975   -4.2362 C   0  0  0  0  0  0  0  0  0  0  0  0
   27.0935  -20.6088   -5.4401 C   0  0  2  0  0  0  0  0  0  0  0  0
   27.9744  -21.8022   -5.1311 C   0  0  0  0  0  0  0  0  0  0  0  0
   27.5838  -19.8809   -6.6719 C   0  0  2  0  0  0  0  0  0  0  0  0
   27.7100  -20.8059   -7.7818 N   0  0  0  0  0  0  0  0  0  0  0  0
   28.9306  -19.3486   -6.3866 C   0  0  0  0  0  0  0  0  0  0  0  0
   29.1292  -18.1840   -5.6770 O   0  0  0  0  0  0  0  0  0  0  0  0
   29.9304  -19.9731   -6.8013 O   0  0  0  0  0  0  0  0  0  0  0  0
  2  1  1  1
  2  3  1  0
  3  4  1  0
  4  5  2  0
  4  8  1  0
  6  9  1  0
  6  2  1  0
  7  6  2  0
  9 13  1  0
 10  9  1  0
 10 11  1  0
 11 12  1  0
 12 13  1  0
 13 14  1  1
 14 15  2  0
 17 16  1  1
 17 18  1  0
 19 17  1  0
 19 21  1  0
 20 14  1  0
 19 20  1  6
 21 22  1  0
 23 21  2  0
M  END
$$$$
