DPV.pdb
     RDKit          3D

 23 23  0  0  1  0  0  0  0  0999 V2000
   26.1438  -22.8793  -17.8033 N   0  0  0  0  0  0  0  0  0  0  0  0
   25.8980  -21.4795  -17.3698 C   0  0  1  0  0  0  0  0  0  0  0  0
   24.3914  -21.3611  -17.4260 C   0  0  0  0  0  0  0  0  0  0  0  0
   23.8537  -21.3789  -18.7848 C   0  0  0  0  0  0  0  0  0  0  0  0
   24.0840  -20.5052  -19.6207 O   0  0  0  0  0  0  0  0  0  0  0  0
   26.3636  -21.3337  -15.9655 C   0  0  0  0  0  0  0  0  0  0  0  0
   26.7172  -22.4096  -15.4001 O   0  0  0  0  0  0  0  0  0  0  0  0
   23.0189  -22.4607  -19.1686 O   0  0  0  0  0  0  0  0  0  0  0  0
   26.4477  -20.1478  -15.2370 N   0  0  0  0  0  0  0  0  0  0  0  0
   26.0840  -18.8229  -15.6576 C   0  0  0  0  0  0  0  0  0  0  0  0
   27.1986  -17.9679  -15.0765 C   0  0  0  0  0  0  0  0  0  0  0  0
   27.9262  -18.8341  -14.0753 C   0  0  0  0  0  0  0  0  0  0  0  0
   26.9697  -19.9991  -13.9028 C   0  0  1  0  0  0  0  0  0  0  0  0
   25.8903  -19.6899  -12.9206 C   0  0  0  0  0  0  0  0  0  0  0  0
   24.7530  -19.2737  -13.2545 O   0  0  0  0  0  0  0  0  0  0  0  0
   24.8954  -21.6006   -8.4477 C   0  0  0  0  0  0  0  0  0  0  0  0
   25.8771  -20.9195   -9.3713 C   0  0  2  0  0  0  0  0  0  0  0  0
   26.2474  -19.5728   -8.7839 C   0  0  0  0  0  0  0  0  0  0  0  0
   25.3065  -20.7624  -10.7632 C   0  0  2  0  0  0  0  0  0  0  0  0
   26.1362  -19.8660  -11.5451 N   0  0  0  0  0  0  0  0  0  0  0  0
   23.9733  -20.1397  -10.6467 C   0  0  0  0  0  0  0  0  0  0  0  0
   22.8139  -20.8825  -10.5908 O   0  0  0  0  0  0  0  0  0  0  0  0
   23.8876  -18.8940  -10.5965 O   0  0  0  0  0  0  0  0  0  0  0  0
  2  1  1  1
  2  3  1  0
  3  4  1  0
  4  5  2  0
  4  8  1  0
  6  9  1  0
  6  2  1  0
  7  6  2  0
  9 13  1  0
 10  9  1  0
 10 11  1  0
 11 12  1  0
 12 13  1  0
 13 14  1  1
 14 15  2  0
 17 16  1  1
 17 18  1  0
 19 17  1  0
 19 21  1  0
 20 14  1  0
 19 20  1  6
 21 22  1  0
 23 21  2  0
M  END
$$$$
