DPV.pdb
     RDKit          3D

 23 23  0  0  1  0  0  0  0  0999 V2000
   16.7244  -12.6356  -16.8530 N   0  0  0  0  0  0  0  0  0  0  0  0
   16.4843  -11.2907  -16.2685 C   0  0  1  0  0  0  0  0  0  0  0  0
   16.2966  -11.5834  -14.7967 C   0  0  0  0  0  0  0  0  0  0  0  0
   15.0876  -12.3499  -14.5025 C   0  0  0  0  0  0  0  0  0  0  0  0
   15.0964  -13.5311  -14.1563 O   0  0  0  0  0  0  0  0  0  0  0  0
   17.7057  -10.4669  -16.4674 C   0  0  0  0  0  0  0  0  0  0  0  0
   18.7591  -11.1185  -16.7283 O   0  0  0  0  0  0  0  0  0  0  0  0
   13.8300  -11.7026  -14.6204 O   0  0  0  0  0  0  0  0  0  0  0  0
   17.7906   -9.0769  -16.3987 N   0  0  0  0  0  0  0  0  0  0  0  0
   16.7511   -8.1419  -16.0673 C   0  0  0  0  0  0  0  0  0  0  0  0
   16.9945   -7.0069  -17.0489 C   0  0  0  0  0  0  0  0  0  0  0  0
   18.3692   -7.2321  -17.6330 C   0  0  0  0  0  0  0  0  0  0  0  0
   18.9497   -8.2753  -16.6965 C   0  0  1  0  0  0  0  0  0  0  0  0
   19.5231   -7.6579  -15.4655 C   0  0  0  0  0  0  0  0  0  0  0  0
   18.8317   -7.3483  -14.4633 O   0  0  0  0  0  0  0  0  0  0  0  0
   23.6481   -8.0658  -15.2541 C   0  0  0  0  0  0  0  0  0  0  0  0
   22.7500   -8.2235  -14.0504 C   0  0  2  0  0  0  0  0  0  0  0  0
   22.2879   -9.6643  -13.9705 C   0  0  0  0  0  0  0  0  0  0  0  0
   21.5687   -7.2812  -14.1168 C   0  0  2  0  0  0  0  0  0  0  0  0
   20.9062   -7.4002  -15.4014 N   0  0  0  0  0  0  0  0  0  0  0  0
   22.0756   -5.8991  -14.0088 C   0  0  0  0  0  0  0  0  0  0  0  0
   22.5296   -5.3701  -12.8201 O   0  0  0  0  0  0  0  0  0  0  0  0
   22.0958   -5.1785  -15.0296 O   0  0  0  0  0  0  0  0  0  0  0  0
  2  1  1  6
  2  3  1  0
  3  4  1  0
  4  5  2  0
  4  8  1  0
  6  9  1  0
  6  2  1  0
  7  6  2  0
  9 13  1  0
 10  9  1  0
 10 11  1  0
 11 12  1  0
 12 13  1  0
 13 14  1  1
 14 15  2  0
 17 16  1  6
 17 18  1  0
 19 17  1  0
 19 21  1  0
 20 14  1  0
 19 20  1  6
 21 22  1  0
 23 21  2  0
M  END
$$$$
