DPV.pdb
     RDKit          3D

 23 23  0  0  1  0  0  0  0  0999 V2000
   21.6261  -21.2416  -13.9980 N   0  0  0  0  0  0  0  0  0  0  0  0
   21.1907  -20.5468  -12.7588 C   0  0  1  0  0  0  0  0  0  0  0  0
   19.8048  -20.0533  -13.1095 C   0  0  0  0  0  0  0  0  0  0  0  0
   19.7981  -19.0002  -14.1227 C   0  0  0  0  0  0  0  0  0  0  0  0
   19.0676  -19.0117  -15.1133 O   0  0  0  0  0  0  0  0  0  0  0  0
   21.1075  -21.5481  -11.6630 C   0  0  0  0  0  0  0  0  0  0  0  0
   20.9134  -22.7418  -12.0369 O   0  0  0  0  0  0  0  0  0  0  0  0
   20.6805  -17.9002  -13.9620 O   0  0  0  0  0  0  0  0  0  0  0  0
   21.2260  -21.2963  -10.2968 N   0  0  0  0  0  0  0  0  0  0  0  0
   21.3399  -20.0246   -9.6377 C   0  0  0  0  0  0  0  0  0  0  0  0
   22.3729  -20.2978   -8.5564 C   0  0  0  0  0  0  0  0  0  0  0  0
   22.5115  -21.7992   -8.4649 C   0  0  0  0  0  0  0  0  0  0  0  0
   21.3059  -22.2819   -9.2495 C   0  0  1  0  0  0  0  0  0  0  0  0
   20.0703  -22.2984   -8.4136 C   0  0  0  0  0  0  0  0  0  0  0  0
   19.3411  -21.2901   -8.2413 O   0  0  0  0  0  0  0  0  0  0  0  0
   18.2807  -25.9472   -8.4539 C   0  0  0  0  0  0  0  0  0  0  0  0
   17.6024  -24.6009   -8.3653 C   0  0  2  0  0  0  0  0  0  0  0  0
   17.5732  -23.9763   -9.7454 C   0  0  0  0  0  0  0  0  0  0  0  0
   18.3032  -23.6946   -7.3778 C   0  0  2  0  0  0  0  0  0  0  0  0
   19.6829  -23.4931   -7.7764 N   0  0  0  0  0  0  0  0  0  0  0  0
   18.3179  -24.3684   -6.0646 C   0  0  0  0  0  0  0  0  0  0  0  0
   19.4461  -24.9783   -5.5603 O   0  0  0  0  0  0  0  0  0  0  0  0
   17.2718  -24.3894   -5.3814 O   0  0  0  0  0  0  0  0  0  0  0  0
  2  1  1  6
  2  3  1  0
  3  4  1  0
  4  5  2  0
  4  8  1  0
  6  9  1  0
  6  2  1  0
  7  6  2  0
  9 13  1  0
 10  9  1  0
 10 11  1  0
 11 12  1  0
 12 13  1  0
 13 14  1  1
 14 15  2  0
 17 16  1  6
 17 18  1  0
 19 17  1  0
 19 21  1  0
 20 14  1  0
 19 20  1  6
 21 22  1  0
 23 21  2  0
M  END
$$$$
