DPV.pdb
     RDKit          3D

 23 23  0  0  1  0  0  0  0  0999 V2000
   28.3558  -22.7635  -16.2525 N   0  0  0  0  0  0  0  0  0  0  0  0
   27.8918  -21.5248  -15.5755 C   0  0  1  0  0  0  0  0  0  0  0  0
   27.5475  -20.6100  -16.7294 C   0  0  0  0  0  0  0  0  0  0  0  0
   27.2101  -19.2493  -16.3165 C   0  0  0  0  0  0  0  0  0  0  0  0
   28.0406  -18.4305  -15.9231 O   0  0  0  0  0  0  0  0  0  0  0  0
   26.6637  -21.8443  -14.8010 C   0  0  0  0  0  0  0  0  0  0  0  0
   25.9002  -22.7036  -15.3311 O   0  0  0  0  0  0  0  0  0  0  0  0
   25.8513  -18.8429  -16.3694 O   0  0  0  0  0  0  0  0  0  0  0  0
   26.2908  -21.2996  -13.5729 N   0  0  0  0  0  0  0  0  0  0  0  0
   26.9859  -20.3116  -12.7951 C   0  0  0  0  0  0  0  0  0  0  0  0
   26.8162  -20.8224  -11.3734 C   0  0  0  0  0  0  0  0  0  0  0  0
   25.7395  -21.8808  -11.4236 C   0  0  0  0  0  0  0  0  0  0  0  0
   25.1319  -21.6568  -12.7957 C   0  0  1  0  0  0  0  0  0  0  0  0
   24.1193  -20.5614  -12.7819 C   0  0  0  0  0  0  0  0  0  0  0  0
   24.4226  -19.3424  -12.7674 O   0  0  0  0  0  0  0  0  0  0  0  0
   21.3289  -20.4361  -16.2496 C   0  0  0  0  0  0  0  0  0  0  0  0
   22.2504  -20.9347  -15.1621 C   0  0  2  0  0  0  0  0  0  0  0  0
   22.2012  -22.4488  -15.1357 C   0  0  0  0  0  0  0  0  0  0  0  0
   21.8748  -20.3592  -13.8147 C   0  0  2  0  0  0  0  0  0  0  0  0
   22.7491  -20.8867  -12.7848 N   0  0  0  0  0  0  0  0  0  0  0  0
   20.5020  -20.7965  -13.4938 C   0  0  0  0  0  0  0  0  0  0  0  0
   19.4265  -19.9355  -13.5262 O   0  0  0  0  0  0  0  0  0  0  0  0
   20.3027  -21.9897  -13.1807 O   0  0  0  0  0  0  0  0  0  0  0  0
  2  1  1  6
  2  3  1  0
  3  4  1  0
  4  5  2  0
  4  8  1  0
  6  9  1  0
  6  2  1  0
  7  6  2  0
  9 13  1  0
 10  9  1  0
 10 11  1  0
 11 12  1  0
 12 13  1  0
 13 14  1  1
 14 15  2  0
 17 16  1  6
 17 18  1  0
 19 17  1  0
 19 21  1  0
 20 14  1  0
 19 20  1  1
 21 22  1  0
 23 21  2  0
M  END
$$$$
