DPV.pdb
     RDKit          3D

 23 23  0  0  1  0  0  0  0  0999 V2000
   16.7502  -12.3170  -16.9879 N   0  0  0  0  0  0  0  0  0  0  0  0
   16.3903  -10.9982  -16.4055 C   0  0  1  0  0  0  0  0  0  0  0  0
   16.1025  -11.3281  -14.9579 C   0  0  0  0  0  0  0  0  0  0  0  0
   14.9866  -12.2549  -14.7800 C   0  0  0  0  0  0  0  0  0  0  0  0
   13.8678  -12.0752  -15.2607 O   0  0  0  0  0  0  0  0  0  0  0  0
   17.5763  -10.1061  -16.4936 C   0  0  0  0  0  0  0  0  0  0  0  0
   18.6654  -10.6838  -16.7807 O   0  0  0  0  0  0  0  0  0  0  0  0
   15.1977  -13.4293  -14.0115 O   0  0  0  0  0  0  0  0  0  0  0  0
   17.5939   -8.7257  -16.2980 N   0  0  0  0  0  0  0  0  0  0  0  0
   16.5065   -7.8738  -15.9028 C   0  0  0  0  0  0  0  0  0  0  0  0
   16.7095   -6.6440  -16.7731 C   0  0  0  0  0  0  0  0  0  0  0  0
   18.1016   -6.7515  -17.3496 C   0  0  0  0  0  0  0  0  0  0  0  0
   18.7176   -7.8477  -16.5006 C   0  0  1  0  0  0  0  0  0  0  0  0
   19.2434   -7.3193  -15.2084 C   0  0  0  0  0  0  0  0  0  0  0  0
   18.5415   -7.2078  -14.1726 O   0  0  0  0  0  0  0  0  0  0  0  0
   23.0296   -8.6268  -12.8067 C   0  0  0  0  0  0  0  0  0  0  0  0
   22.1919   -8.3928  -14.0411 C   0  0  2  0  0  0  0  0  0  0  0  0
   23.1094   -8.2930  -15.2428 C   0  0  0  0  0  0  0  0  0  0  0  0
   21.3447   -7.1473  -13.9045 C   0  0  2  0  0  0  0  0  0  0  0  0
   20.5910   -6.9195  -15.1224 N   0  0  0  0  0  0  0  0  0  0  0  0
   22.2476   -5.9939  -13.7227 C   0  0  0  0  0  0  0  0  0  0  0  0
   22.5468   -5.1220  -14.7471 O   0  0  0  0  0  0  0  0  0  0  0  0
   22.7618   -5.7965  -12.6011 O   0  0  0  0  0  0  0  0  0  0  0  0
  2  1  1  6
  2  3  1  0
  3  4  1  0
  4  5  2  0
  4  8  1  0
  6  9  1  0
  6  2  1  0
  7  6  2  0
  9 13  1  0
 10  9  1  0
 10 11  1  0
 11 12  1  0
 12 13  1  0
 13 14  1  1
 14 15  2  0
 17 16  1  1
 17 18  1  0
 19 17  1  0
 19 21  1  0
 20 14  1  0
 19 20  1  6
 21 22  1  0
 23 21  2  0
M  END
$$$$
