DPV.pdb
     RDKit          3D

 23 23  0  0  1  0  0  0  0  0999 V2000
   19.8565  -22.2964  -14.3151 N   0  0  0  0  0  0  0  0  0  0  0  0
   19.6773  -21.3599  -13.1755 C   0  0  1  0  0  0  0  0  0  0  0  0
   18.2052  -21.0194  -13.2378 C   0  0  0  0  0  0  0  0  0  0  0  0
   17.8772  -20.0278  -14.2601 C   0  0  0  0  0  0  0  0  0  0  0  0
   18.7049  -19.2696  -14.7650 O   0  0  0  0  0  0  0  0  0  0  0  0
   19.9731  -22.0912  -11.9153 C   0  0  0  0  0  0  0  0  0  0  0  0
   20.0303  -23.3511  -12.0237 O   0  0  0  0  0  0  0  0  0  0  0  0
   16.5313  -19.9283  -14.6997 O   0  0  0  0  0  0  0  0  0  0  0  0
   20.1922  -21.5270  -10.6593 N   0  0  0  0  0  0  0  0  0  0  0  0
   20.1313  -20.1400  -10.2890 C   0  0  0  0  0  0  0  0  0  0  0  0
   21.3114  -19.9927   -9.3422 C   0  0  0  0  0  0  0  0  0  0  0  0
   21.7464  -21.3926   -8.9776 C   0  0  0  0  0  0  0  0  0  0  0  0
   20.5768  -22.2291   -9.4619 C   0  0  1  0  0  0  0  0  0  0  0  0
   19.4686  -22.2637   -8.4638 C   0  0  0  0  0  0  0  0  0  0  0  0
   18.5577  -21.3999   -8.4151 O   0  0  0  0  0  0  0  0  0  0  0  0
   16.6965  -25.8690   -7.9963 C   0  0  0  0  0  0  0  0  0  0  0  0
   17.9272  -25.0522   -8.3108 C   0  0  2  0  0  0  0  0  0  0  0  0
   19.1154  -25.9847   -8.4304 C   0  0  0  0  0  0  0  0  0  0  0  0
   18.1734  -23.9975   -7.2550 C   0  0  2  0  0  0  0  0  0  0  0  0
   19.4211  -23.3074   -7.5195 N   0  0  0  0  0  0  0  0  0  0  0  0
   18.3124  -24.6751   -5.9510 C   0  0  0  0  0  0  0  0  0  0  0  0
   19.5312  -25.0942   -5.4631 O   0  0  0  0  0  0  0  0  0  0  0  0
   17.2908  -24.8783   -5.2607 O   0  0  0  0  0  0  0  0  0  0  0  0
  2  1  1  6
  2  3  1  0
  3  4  1  0
  4  5  2  0
  4  8  1  0
  6  9  1  0
  6  2  1  0
  7  6  2  0
  9 13  1  0
 10  9  1  0
 10 11  1  0
 11 12  1  0
 12 13  1  0
 13 14  1  1
 14 15  2  0
 17 16  1  1
 17 18  1  0
 19 17  1  0
 19 21  1  0
 20 14  1  0
 19 20  1  6
 21 22  1  0
 23 21  2  0
M  END
$$$$
