DPV.pdb
     RDKit          3D

 23 23  0  0  1  0  0  0  0  0999 V2000
   17.5661  -12.5968  -17.5464 N   0  0  0  0  0  0  0  0  0  0  0  0
   17.2672  -11.6041  -16.4819 C   0  0  1  0  0  0  0  0  0  0  0  0
   17.6144  -12.3469  -15.2111 C   0  0  0  0  0  0  0  0  0  0  0  0
   16.6341  -13.3665  -14.8433 C   0  0  0  0  0  0  0  0  0  0  0  0
   16.8303  -14.5757  -14.9630 O   0  0  0  0  0  0  0  0  0  0  0  0
   18.1795  -10.4428  -16.6527 C   0  0  0  0  0  0  0  0  0  0  0  0
   19.2591  -10.6906  -17.2653 O   0  0  0  0  0  0  0  0  0  0  0  0
   15.3842  -12.9460  -14.3185 O   0  0  0  0  0  0  0  0  0  0  0  0
   17.9550   -9.1385  -16.2140 N   0  0  0  0  0  0  0  0  0  0  0  0
   16.8459   -8.6407  -15.4481 C   0  0  0  0  0  0  0  0  0  0  0  0
   16.5639   -7.2964  -16.0994 C   0  0  0  0  0  0  0  0  0  0  0  0
   17.7599   -6.9804  -16.9664 C   0  0  0  0  0  0  0  0  0  0  0  0
   18.7832   -7.9913  -16.4836 C   0  0  1  0  0  0  0  0  0  0  0  0
   19.4903   -7.5222  -15.2566 C   0  0  0  0  0  0  0  0  0  0  0  0
   18.9848   -7.5733  -14.1077 O   0  0  0  0  0  0  0  0  0  0  0  0
   23.5722   -7.2884  -15.7889 C   0  0  0  0  0  0  0  0  0  0  0  0
   22.9335   -7.7287  -14.4932 C   0  0  2  0  0  0  0  0  0  0  0  0
   22.6526   -9.2157  -14.5673 C   0  0  0  0  0  0  0  0  0  0  0  0
   21.6655   -6.9535  -14.2125 C   0  0  2  0  0  0  0  0  0  0  0  0
   20.7901   -6.9918  -15.3681 N   0  0  0  0  0  0  0  0  0  0  0  0
   22.0302   -5.5418  -13.9825 C   0  0  0  0  0  0  0  0  0  0  0  0
   22.6996   -5.1271  -12.8516 O   0  0  0  0  0  0  0  0  0  0  0  0
   21.7229   -4.6879  -14.8416 O   0  0  0  0  0  0  0  0  0  0  0  0
  2  1  1  6
  2  3  1  0
  3  4  1  0
  4  5  2  0
  4  8  1  0
  6  9  1  0
  6  2  1  0
  7  6  2  0
  9 13  1  0
 10  9  1  0
 10 11  1  0
 11 12  1  0
 12 13  1  0
 13 14  1  1
 14 15  2  0
 17 16  1  6
 17 18  1  0
 19 17  1  0
 19 21  1  0
 20 14  1  0
 19 20  1  6
 21 22  1  0
 23 21  2  0
M  END
$$$$
