DPV.pdb
     RDKit          3D

 23 23  0  0  1  0  0  0  0  0999 V2000
   20.1643  -12.9361  -18.4199 N   0  0  0  0  0  0  0  0  0  0  0  0
   21.4203  -12.1473  -18.3293 C   0  0  1  0  0  0  0  0  0  0  0  0
   21.4087  -11.3338  -19.6041 C   0  0  0  0  0  0  0  0  0  0  0  0
   21.5534  -12.1406  -20.8140 C   0  0  0  0  0  0  0  0  0  0  0  0
   20.8670  -11.9845  -21.8238 O   0  0  0  0  0  0  0  0  0  0  0  0
   21.3238  -11.2434  -17.1530 C   0  0  0  0  0  0  0  0  0  0  0  0
   20.1460  -10.9590  -16.7867 O   0  0  0  0  0  0  0  0  0  0  0  0
   22.5380  -13.1627  -20.8327 O   0  0  0  0  0  0  0  0  0  0  0  0
   22.3872  -10.6996  -16.4337 N   0  0  0  0  0  0  0  0  0  0  0  0
   23.7915  -10.7933  -16.7232 C   0  0  0  0  0  0  0  0  0  0  0  0
   24.4053  -10.9980  -15.3476 C   0  0  0  0  0  0  0  0  0  0  0  0
   23.3296  -10.6584  -14.3429 C   0  0  0  0  0  0  0  0  0  0  0  0
   22.2959   -9.9562  -15.2034 C   0  0  1  0  0  0  0  0  0  0  0  0
   22.6276   -8.5157  -15.4046 C   0  0  0  0  0  0  0  0  0  0  0  0
   23.5595   -8.1204  -16.1485 O   0  0  0  0  0  0  0  0  0  0  0  0
   19.5292   -5.9173  -14.7079 C   0  0  0  0  0  0  0  0  0  0  0  0
   20.6601   -5.6451  -15.6709 C   0  0  2  0  0  0  0  0  0  0  0  0
   20.3431   -6.3064  -16.9968 C   0  0  0  0  0  0  0  0  0  0  0  0
   21.9809   -6.1392  -15.1239 C   0  0  2  0  0  0  0  0  0  0  0  0
   21.8717   -7.5326  -14.7372 N   0  0  0  0  0  0  0  0  0  0  0  0
   22.2924   -5.3668  -13.9052 C   0  0  0  0  0  0  0  0  0  0  0  0
   22.7997   -4.0863  -13.9523 O   0  0  0  0  0  0  0  0  0  0  0  0
   22.0904   -5.8885  -12.7878 O   0  0  0  0  0  0  0  0  0  0  0  0
  2  1  1  6
  2  3  1  0
  3  4  1  0
  4  5  2  0
  4  8  1  0
  6  9  1  0
  6  2  1  0
  7  6  2  0
  9 13  1  0
 10  9  1  0
 10 11  1  0
 11 12  1  0
 12 13  1  0
 13 14  1  6
 14 15  2  0
 17 16  1  1
 17 18  1  0
 19 17  1  0
 19 21  1  0
 20 14  1  0
 19 20  1  1
 21 22  1  0
 23 21  2  0
M  END
$$$$
