DPV.pdb
     RDKit          3D

 23 23  0  0  1  0  0  0  0  0999 V2000
   25.9551  -20.2693  -18.0120 N   0  0  0  0  0  0  0  0  0  0  0  0
   26.5068  -19.4583  -16.8957 C   0  0  1  0  0  0  0  0  0  0  0  0
   25.5432  -18.2962  -16.8055 C   0  0  0  0  0  0  0  0  0  0  0  0
   25.6701  -17.3444  -17.9072 C   0  0  0  0  0  0  0  0  0  0  0  0
   26.7314  -16.8092  -18.2271 O   0  0  0  0  0  0  0  0  0  0  0  0
   26.4404  -20.2668  -15.6499 C   0  0  0  0  0  0  0  0  0  0  0  0
   25.5497  -21.1660  -15.6374 O   0  0  0  0  0  0  0  0  0  0  0  0
   24.5092  -17.0144  -18.6540 O   0  0  0  0  0  0  0  0  0  0  0  0
   27.2539  -20.1291  -14.5259 N   0  0  0  0  0  0  0  0  0  0  0  0
   28.2818  -19.1529  -14.2913 C   0  0  0  0  0  0  0  0  0  0  0  0
   29.3740  -19.9696  -13.6197 C   0  0  0  0  0  0  0  0  0  0  0  0
   28.7411  -21.2792  -13.2118 C   0  0  0  0  0  0  0  0  0  0  0  0
   27.2611  -20.9829  -13.3659 C   0  0  1  0  0  0  0  0  0  0  0  0
   26.7066  -20.2884  -12.1677 C   0  0  0  0  0  0  0  0  0  0  0  0
   26.9552  -19.0888  -11.8898 O   0  0  0  0  0  0  0  0  0  0  0  0
   23.2629  -22.0101  -10.4792 C   0  0  0  0  0  0  0  0  0  0  0  0
   23.5848  -20.5376  -10.5709 C   0  0  2  0  0  0  0  0  0  0  0  0
   23.1719  -20.0311  -11.9379 C   0  0  0  0  0  0  0  0  0  0  0  0
   25.0536  -20.2778  -10.3204 C   0  0  2  0  0  0  0  0  0  0  0  0
   25.8601  -20.9934  -11.2903 N   0  0  0  0  0  0  0  0  0  0  0  0
   25.3942  -20.8093   -8.9862 C   0  0  0  0  0  0  0  0  0  0  0  0
   24.9699  -20.2074   -7.8213 O   0  0  0  0  0  0  0  0  0  0  0  0
   26.0925  -21.8424   -8.9045 O   0  0  0  0  0  0  0  0  0  0  0  0
  2  1  1  6
  2  3  1  0
  3  4  1  0
  4  5  2  0
  4  8  1  0
  6  9  1  0
  6  2  1  0
  7  6  2  0
  9 13  1  0
 10  9  1  0
 10 11  1  0
 11 12  1  0
 12 13  1  0
 13 14  1  1
 14 15  2  0
 17 16  1  6
 17 18  1  0
 19 17  1  0
 19 21  1  0
 20 14  1  0
 19 20  1  6
 21 22  1  0
 23 21  2  0
M  END
$$$$
