NSN.pdb
     RDKit          3D

 23 22  0  0  1  0  0  0  0  0999 V2000
    7.6590  -12.7412   14.5201 N   0  0  0  0  0  0  0  0  0  0  0  0
    7.5562  -14.1330   14.8373 C   0  0  0  0  0  0  0  0  0  0  0  0
    7.5301  -14.9459   13.8854 O   0  0  0  0  0  0  0  0  0  0  0  0
    7.4834  -14.6025   16.2438 C   0  0  0  0  0  0  0  0  0  0  0  0
    8.8511  -14.5355   16.8968 C   0  0  2  0  0  0  0  0  0  0  0  0
    9.7169  -15.4041   16.1222 N   0  0  0  0  0  0  0  0  0  0  0  0
    8.7209  -15.0045   18.3009 C   0  0  0  0  0  0  0  0  0  0  0  0
    7.9798  -14.3891   19.1320 O   0  0  0  0  0  0  0  0  0  0  0  0
    9.5041  -18.7584   19.5239 O   0  0  0  0  0  0  0  0  0  0  0  0
    8.8093  -17.8911   20.3667 C   0  0  0  0  0  0  0  0  0  0  0  0
    9.3410  -16.4670   20.2021 C   0  0  2  0  0  0  0  0  0  0  0  0
    9.4118  -16.1562   18.7984 N   0  0  0  0  0  0  0  0  0  0  0  0
   10.6445  -16.3230   20.8822 C   0  0  0  0  0  0  0  0  0  0  0  0
   11.7427  -16.1636   20.3070 O   0  0  0  0  0  0  0  0  0  0  0  0
    9.9330  -17.6516   24.7056 N   0  0  0  0  0  0  0  0  0  0  0  0
   10.6055  -16.5240   25.2248 C   0  0  0  0  0  0  0  0  0  0  0  0
   10.2782  -16.1892   26.4150 O   0  0  0  0  0  0  0  0  0  0  0  0
   11.6233  -15.7585   24.4847 C   0  0  0  0  0  0  0  0  0  0  0  0
   11.8589  -16.2400   23.0939 C   0  0  2  0  0  0  0  0  0  0  0  0
   10.6663  -16.3678   22.2997 N   0  0  0  0  0  0  0  0  0  0  0  0
   12.5491  -17.5253   23.1160 C   0  0  0  0  0  0  0  0  0  0  0  0
   13.8944  -17.5486   23.5432 O   0  0  0  0  0  0  0  0  0  0  0  0
   12.0793  -18.6244   22.7966 O   0  0  0  0  0  0  0  0  0  0  0  0
  1  2  1  0
  2  4  1  0
  3  2  2  0
  4  5  1  0
  5  6  1  6
  7  5  1  0
  8  7  2  0
  9 10  1  0
 11 10  1  6
 11 12  1  0
 11 13  1  0
 12  7  1  0
 13 20  1  0
 14 13  2  0
 15 16  1  0
 16 18  1  0
 17 16  2  0
 19 18  1  1
 19 21  1  0
 20 19  1  0
 21 22  1  0
 23 21  2  0
M  END
$$$$
