NSN.pdb
     RDKit          3D

 23 22  0  0  1  0  0  0  0  0999 V2000
   10.7535  -20.6576   15.5850 N   0  0  0  0  0  0  0  0  0  0  0  0
    9.4534  -20.1264   15.8602 C   0  0  0  0  0  0  0  0  0  0  0  0
    8.5471  -20.3448   15.0244 O   0  0  0  0  0  0  0  0  0  0  0  0
    9.1826  -19.3436   17.0923 C   0  0  0  0  0  0  0  0  0  0  0  0
    8.3320  -18.1287   16.7727 C   0  0  2  0  0  0  0  0  0  0  0  0
    8.7912  -17.6346   15.4885 N   0  0  0  0  0  0  0  0  0  0  0  0
    8.5320  -17.1234   17.8485 C   0  0  0  0  0  0  0  0  0  0  0  0
    9.6823  -16.6329   18.0824 O   0  0  0  0  0  0  0  0  0  0  0  0
    5.6058  -16.1127   20.7050 O   0  0  0  0  0  0  0  0  0  0  0  0
    6.4201  -15.0983   20.2020 C   0  0  0  0  0  0  0  0  0  0  0  0
    7.7410  -15.6878   19.7063 C   0  0  2  0  0  0  0  0  0  0  0  0
    7.4618  -16.6542   18.6768 N   0  0  0  0  0  0  0  0  0  0  0  0
    8.5026  -16.2628   20.8339 C   0  0  0  0  0  0  0  0  0  0  0  0
    8.7914  -15.6592   21.8897 O   0  0  0  0  0  0  0  0  0  0  0  0
   11.0198  -21.6518   22.5662 N   0  0  0  0  0  0  0  0  0  0  0  0
   10.2976  -20.4604   22.7953 C   0  0  0  0  0  0  0  0  0  0  0  0
   10.3671  -19.9962   23.9850 O   0  0  0  0  0  0  0  0  0  0  0  0
    9.5088  -19.7640   21.7647 C   0  0  0  0  0  0  0  0  0  0  0  0
    9.7136  -18.2880   21.7314 C   0  0  2  0  0  0  0  0  0  0  0  0
    8.9482  -17.6049   20.7230 N   0  0  0  0  0  0  0  0  0  0  0  0
   11.1267  -17.9799   21.5382 C   0  0  0  0  0  0  0  0  0  0  0  0
   11.5663  -17.6733   20.2323 O   0  0  0  0  0  0  0  0  0  0  0  0
   12.0055  -17.9547   22.4088 O   0  0  0  0  0  0  0  0  0  0  0  0
  1  2  1  0
  2  4  1  0
  3  2  2  0
  4  5  1  0
  5  6  1  6
  7  5  1  0
  8  7  2  0
  9 10  1  0
 11 10  1  1
 11 12  1  0
 11 13  1  0
 12  7  1  0
 13 20  1  0
 14 13  2  0
 15 16  1  0
 16 18  1  0
 17 16  2  0
 19 18  1  6
 19 21  1  0
 20 19  1  0
 21 22  1  0
 23 21  2  0
M  END
$$$$
