NSN.pdb
     RDKit          3D

 23 22  0  0  1  0  0  0  0  0999 V2000
    9.8174  -18.9820   16.3374 N   0  0  0  0  0  0  0  0  0  0  0  0
   11.1834  -18.6119   16.1244 C   0  0  0  0  0  0  0  0  0  0  0  0
   11.8785  -19.3511   15.3908 O   0  0  0  0  0  0  0  0  0  0  0  0
   11.7614  -17.3949   16.7480 C   0  0  0  0  0  0  0  0  0  0  0  0
   10.6771  -16.5830   17.4313 C   0  0  2  0  0  0  0  0  0  0  0  0
   10.3735  -15.4771   16.5430 N   0  0  0  0  0  0  0  0  0  0  0  0
   11.2038  -16.1070   18.7367 C   0  0  0  0  0  0  0  0  0  0  0  0
   12.3177  -15.4970   18.8117 O   0  0  0  0  0  0  0  0  0  0  0  0
   10.6163  -15.5198   23.5215 O   0  0  0  0  0  0  0  0  0  0  0  0
   10.0391  -15.8647   22.2996 C   0  0  0  0  0  0  0  0  0  0  0  0
   11.0995  -15.8446   21.1981 C   0  0  2  0  0  0  0  0  0  0  0  0
   10.5042  -16.3043   19.9709 N   0  0  0  0  0  0  0  0  0  0  0  0
   12.2713  -16.6504   21.5978 C   0  0  0  0  0  0  0  0  0  0  0  0
   12.2995  -17.8986   21.6587 O   0  0  0  0  0  0  0  0  0  0  0  0
   15.1621  -13.8545   21.7427 N   0  0  0  0  0  0  0  0  0  0  0  0
   16.0711  -14.8564   21.3384 C   0  0  0  0  0  0  0  0  0  0  0  0
   17.1087  -14.4387   20.7183 O   0  0  0  0  0  0  0  0  0  0  0  0
   15.8803  -16.2942   21.5951 C   0  0  0  0  0  0  0  0  0  0  0  0
   14.6658  -16.6163   22.3969 C   0  0  2  0  0  0  0  0  0  0  0  0
   13.4652  -15.9668   21.9430 N   0  0  0  0  0  0  0  0  0  0  0  0
   14.8831  -16.2762   23.7990 C   0  0  0  0  0  0  0  0  0  0  0  0
   15.9711  -16.8788   24.4669 O   0  0  0  0  0  0  0  0  0  0  0  0
   14.2077  -15.5005   24.4868 O   0  0  0  0  0  0  0  0  0  0  0  0
  1  2  1  0
  2  4  1  0
  3  2  2  0
  4  5  1  0
  5  6  1  6
  7  5  1  0
  8  7  2  0
  9 10  1  0
 11 10  1  1
 11 12  1  0
 11 13  1  0
 12  7  1  0
 13 20  1  0
 14 13  2  0
 15 16  1  0
 16 18  1  0
 17 16  2  0
 19 18  1  6
 19 21  1  0
 20 19  1  0
 21 22  1  0
 23 21  2  0
M  END
$$$$
