NSN.pdb
     RDKit          3D

 23 22  0  0  1  0  0  0  0  0999 V2000
    8.2739  -14.6266   13.8796 N   0  0  0  0  0  0  0  0  0  0  0  0
    8.0390  -15.4092   15.0547 C   0  0  0  0  0  0  0  0  0  0  0  0
    7.2289  -16.3599   14.9678 O   0  0  0  0  0  0  0  0  0  0  0  0
    8.7292  -15.1095   16.3344 C   0  0  0  0  0  0  0  0  0  0  0  0
    7.9046  -14.1480   17.1694 C   0  0  2  0  0  0  0  0  0  0  0  0
    8.0239  -12.8493   16.5344 N   0  0  0  0  0  0  0  0  0  0  0  0
    8.4581  -14.1352   18.5484 C   0  0  0  0  0  0  0  0  0  0  0  0
    9.6212  -13.6767   18.7843 O   0  0  0  0  0  0  0  0  0  0  0  0
    6.7617  -16.3132   21.6470 O   0  0  0  0  0  0  0  0  0  0  0  0
    7.3500  -15.1035   22.0157 C   0  0  0  0  0  0  0  0  0  0  0  0
    8.3761  -14.6809   20.9637 C   0  0  2  0  0  0  0  0  0  0  0  0
    7.7309  -14.6322   19.6779 N   0  0  0  0  0  0  0  0  0  0  0  0
    9.5373  -15.5938   20.9823 C   0  0  0  0  0  0  0  0  0  0  0  0
   10.0366  -16.1439   19.9771 O   0  0  0  0  0  0  0  0  0  0  0  0
   13.1731  -14.1788   19.6956 N   0  0  0  0  0  0  0  0  0  0  0  0
   12.9292  -15.2665   20.5621 C   0  0  0  0  0  0  0  0  0  0  0  0
   13.1378  -16.4248   20.0616 O   0  0  0  0  0  0  0  0  0  0  0  0
   12.4699  -15.1239   21.9543 C   0  0  0  0  0  0  0  0  0  0  0  0
   11.5358  -16.1952   22.4028 C   0  0  2  0  0  0  0  0  0  0  0  0
   10.1430  -15.8780   22.2331 N   0  0  0  0  0  0  0  0  0  0  0  0
   11.7768  -16.5190   23.8049 C   0  0  0  0  0  0  0  0  0  0  0  0
   13.0024  -17.1326   24.1429 O   0  0  0  0  0  0  0  0  0  0  0  0
   11.0123  -16.3118   24.7554 O   0  0  0  0  0  0  0  0  0  0  0  0
  1  2  1  0
  2  4  1  0
  3  2  2  0
  4  5  1  0
  5  6  1  6
  7  5  1  0
  8  7  2  0
  9 10  1  0
 11 10  1  1
 11 12  1  0
 11 13  1  0
 12  7  1  0
 13 20  1  0
 14 13  2  0
 15 16  1  0
 16 18  1  0
 17 16  2  0
 19 18  1  1
 19 21  1  0
 20 19  1  0
 21 22  1  0
 23 21  2  0
M  END
$$$$
