NSN.pdb
     RDKit          3D

 23 22  0  0  1  0  0  0  0  0999 V2000
    6.7641  -13.0595   18.3435 N   0  0  0  0  0  0  0  0  0  0  0  0
    7.8662  -13.3626   19.2049 C   0  0  0  0  0  0  0  0  0  0  0  0
    9.0086  -13.4052   18.6943 O   0  0  0  0  0  0  0  0  0  0  0  0
    7.6681  -13.6177   20.6539 C   0  0  0  0  0  0  0  0  0  0  0  0
    8.3938  -14.8820   21.0740 C   0  0  2  0  0  0  0  0  0  0  0  0
    7.9220  -15.9354   20.1954 N   0  0  0  0  0  0  0  0  0  0  0  0
    8.0573  -15.1629   22.4939 C   0  0  0  0  0  0  0  0  0  0  0  0
    8.2296  -14.2820   23.3956 O   0  0  0  0  0  0  0  0  0  0  0  0
    7.0229  -18.9850   24.0317 O   0  0  0  0  0  0  0  0  0  0  0  0
    6.3462  -17.8492   24.4758 C   0  0  0  0  0  0  0  0  0  0  0  0
    7.2399  -16.6177   24.3252 C   0  0  2  0  0  0  0  0  0  0  0  0
    7.5303  -16.4216   22.9291 N   0  0  0  0  0  0  0  0  0  0  0  0
    8.4605  -16.7652   25.1440 C   0  0  0  0  0  0  0  0  0  0  0  0
    9.5957  -17.0425   24.7004 O   0  0  0  0  0  0  0  0  0  0  0  0
   10.3776  -14.0997   26.8685 N   0  0  0  0  0  0  0  0  0  0  0  0
    9.9014  -14.4121   28.1604 C   0  0  0  0  0  0  0  0  0  0  0  0
    9.8560  -13.4320   28.9808 O   0  0  0  0  0  0  0  0  0  0  0  0
    9.4721  -15.7580   28.5772 C   0  0  0  0  0  0  0  0  0  0  0  0
    9.4364  -16.7579   27.4724 C   0  0  2  0  0  0  0  0  0  0  0  0
    8.3501  -16.5808   26.5461 N   0  0  0  0  0  0  0  0  0  0  0  0
    9.3732  -18.1095   28.0183 C   0  0  0  0  0  0  0  0  0  0  0  0
   10.5330  -18.6329   28.6296 O   0  0  0  0  0  0  0  0  0  0  0  0
    8.3959  -18.8682   28.0077 O   0  0  0  0  0  0  0  0  0  0  0  0
  1  2  1  0
  2  4  1  0
  3  2  2  0
  4  5  1  0
  5  6  1  6
  7  5  1  0
  8  7  2  0
  9 10  1  0
 11 10  1  6
 11 12  1  0
 11 13  1  0
 12  7  1  0
 13 20  1  0
 14 13  2  0
 15 16  1  0
 16 18  1  0
 17 16  2  0
 19 18  1  1
 19 21  1  0
 20 19  1  0
 21 22  1  0
 23 21  2  0
M  END
$$$$
