NSN.pdb
     RDKit          3D

 23 22  0  0  1  0  0  0  0  0999 V2000
    9.4716  -16.3608   12.3327 N   0  0  0  0  0  0  0  0  0  0  0  0
    8.5722  -15.8142   13.3025 C   0  0  0  0  0  0  0  0  0  0  0  0
    7.3448  -15.9696   13.1099 O   0  0  0  0  0  0  0  0  0  0  0  0
    9.0710  -15.0880   14.4975 C   0  0  0  0  0  0  0  0  0  0  0  0
    9.4832  -16.0678   15.5799 C   0  0  2  0  0  0  0  0  0  0  0  0
    8.2644  -16.7069   16.0385 N   0  0  0  0  0  0  0  0  0  0  0  0
   10.1450  -15.3062   16.6708 C   0  0  0  0  0  0  0  0  0  0  0  0
   11.2762  -14.7523   16.4915 O   0  0  0  0  0  0  0  0  0  0  0  0
    8.7661  -15.3431   20.6493 O   0  0  0  0  0  0  0  0  0  0  0  0
    9.4109  -14.1976   20.1831 C   0  0  0  0  0  0  0  0  0  0  0  0
   10.3414  -14.5582   19.0246 C   0  0  2  0  0  0  0  0  0  0  0  0
    9.5626  -15.1535   17.9704 N   0  0  0  0  0  0  0  0  0  0  0  0
   11.4294  -15.4401   19.4944 C   0  0  0  0  0  0  0  0  0  0  0  0
   11.4297  -16.6876   19.4153 O   0  0  0  0  0  0  0  0  0  0  0  0
   15.3119  -13.1086   18.5892 N   0  0  0  0  0  0  0  0  0  0  0  0
   15.3061  -14.4497   19.0307 C   0  0  0  0  0  0  0  0  0  0  0  0
   15.5851  -15.3226   18.1386 O   0  0  0  0  0  0  0  0  0  0  0  0
   15.0093  -14.8606   20.4136 C   0  0  0  0  0  0  0  0  0  0  0  0
   13.7073  -15.5680   20.5752 C   0  0  2  0  0  0  0  0  0  0  0  0
   12.5695  -14.8371   20.0847 N   0  0  0  0  0  0  0  0  0  0  0  0
   13.4845  -15.8984   21.9788 C   0  0  0  0  0  0  0  0  0  0  0  0
   14.4517  -16.6895   22.6357 O   0  0  0  0  0  0  0  0  0  0  0  0
   12.5223  -15.5558   22.6771 O   0  0  0  0  0  0  0  0  0  0  0  0
  1  2  1  0
  2  4  1  0
  3  2  2  0
  4  5  1  0
  5  6  1  1
  7  5  1  0
  8  7  2  0
  9 10  1  0
 11 10  1  1
 11 12  1  0
 11 13  1  0
 12  7  1  0
 13 20  1  0
 14 13  2  0
 15 16  1  0
 16 18  1  0
 17 16  2  0
 19 18  1  1
 19 21  1  0
 20 19  1  0
 21 22  1  0
 23 21  2  0
M  END
$$$$
