NSN.pdb
     RDKit          3D

 23 22  0  0  1  0  0  0  0  0999 V2000
    7.2269  -13.1308   16.0415 N   0  0  0  0  0  0  0  0  0  0  0  0
    8.2192  -13.9404   16.6805 C   0  0  0  0  0  0  0  0  0  0  0  0
    8.7301  -14.8686   16.0134 O   0  0  0  0  0  0  0  0  0  0  0  0
    8.6327  -13.6927   18.0847 C   0  0  0  0  0  0  0  0  0  0  0  0
    8.8233  -15.0054   18.8209 C   0  0  2  0  0  0  0  0  0  0  0  0
    7.5412  -15.6831   18.7868 N   0  0  0  0  0  0  0  0  0  0  0  0
    9.2444  -14.7022   20.2134 C   0  0  0  0  0  0  0  0  0  0  0  0
   10.3398  -14.1005   20.4512 O   0  0  0  0  0  0  0  0  0  0  0  0
    6.9472  -15.7147   23.5617 O   0  0  0  0  0  0  0  0  0  0  0  0
    7.9304  -14.7336   23.6881 C   0  0  0  0  0  0  0  0  0  0  0  0
    9.0429  -14.9761   22.6675 C   0  0  2  0  0  0  0  0  0  0  0  0
    8.4588  -15.0646   21.3549 N   0  0  0  0  0  0  0  0  0  0  0  0
    9.8168  -16.1818   23.0273 C   0  0  0  0  0  0  0  0  0  0  0  0
    9.6801  -17.3080   22.5026 O   0  0  0  0  0  0  0  0  0  0  0  0
   13.4530  -17.1369   21.9593 N   0  0  0  0  0  0  0  0  0  0  0  0
   13.5288  -16.4226   23.1749 C   0  0  0  0  0  0  0  0  0  0  0  0
   14.0435  -15.2546   23.0944 O   0  0  0  0  0  0  0  0  0  0  0  0
   13.0565  -16.9453   24.4684 C   0  0  0  0  0  0  0  0  0  0  0  0
   11.5841  -17.1656   24.5381 C   0  0  2  0  0  0  0  0  0  0  0  0
   10.7954  -16.0670   24.0477 N   0  0  0  0  0  0  0  0  0  0  0  0
   11.1828  -17.4567   25.9104 C   0  0  0  0  0  0  0  0  0  0  0  0
   10.2401  -16.6019   26.5214 O   0  0  0  0  0  0  0  0  0  0  0  0
   11.5827  -18.3901   26.6174 O   0  0  0  0  0  0  0  0  0  0  0  0
  1  2  1  0
  2  4  1  0
  3  2  2  0
  4  5  1  0
  5  6  1  1
  7  5  1  0
  8  7  2  0
  9 10  1  0
 11 10  1  1
 11 12  1  0
 11 13  1  0
 12  7  1  0
 13 20  1  0
 14 13  2  0
 15 16  1  0
 16 18  1  0
 17 16  2  0
 19 18  1  1
 19 21  1  0
 20 19  1  0
 21 22  1  0
 23 21  2  0
M  END
$$$$
