NSN.pdb
     RDKit          3D

 23 22  0  0  1  0  0  0  0  0999 V2000
    5.8567  -14.7061   17.7953 N   0  0  0  0  0  0  0  0  0  0  0  0
    7.0580  -15.3960   18.1548 C   0  0  0  0  0  0  0  0  0  0  0  0
    7.7009  -15.9595   17.2401 O   0  0  0  0  0  0  0  0  0  0  0  0
    7.5306  -15.4446   19.5613 C   0  0  0  0  0  0  0  0  0  0  0  0
    7.4752  -14.0639   20.1876 C   0  0  2  0  0  0  0  0  0  0  0  0
    8.1019  -13.1604   19.2415 N   0  0  0  0  0  0  0  0  0  0  0  0
    8.2151  -14.1061   21.4756 C   0  0  0  0  0  0  0  0  0  0  0  0
    9.4857  -14.0472   21.5045 O   0  0  0  0  0  0  0  0  0  0  0  0
    6.2785  -14.1231   25.1321 O   0  0  0  0  0  0  0  0  0  0  0  0
    7.5896  -13.6492   25.0896 C   0  0  0  0  0  0  0  0  0  0  0  0
    8.3475  -14.3151   23.9407 C   0  0  2  0  0  0  0  0  0  0  0  0
    7.5561  -14.2167   22.7424 N   0  0  0  0  0  0  0  0  0  0  0  0
    8.6827  -15.7115   24.2870 C   0  0  0  0  0  0  0  0  0  0  0  0
    8.0465  -16.7192   23.9100 O   0  0  0  0  0  0  0  0  0  0  0  0
   12.4976  -16.6932   22.9983 N   0  0  0  0  0  0  0  0  0  0  0  0
   11.8011  -17.6844   23.7234 C   0  0  0  0  0  0  0  0  0  0  0  0
   11.3482  -18.6573   23.0277 O   0  0  0  0  0  0  0  0  0  0  0  0
   11.5903  -17.6439   25.1806 C   0  0  0  0  0  0  0  0  0  0  0  0
   10.2153  -17.2382   25.5885 C   0  0  2  0  0  0  0  0  0  0  0  0
    9.8130  -15.9417   25.1125 N   0  0  0  0  0  0  0  0  0  0  0  0
   10.0930  -17.2641   27.0423 C   0  0  0  0  0  0  0  0  0  0  0  0
   10.3460  -18.4832   27.7076 O   0  0  0  0  0  0  0  0  0  0  0  0
    9.7866  -16.3171   27.7772 O   0  0  0  0  0  0  0  0  0  0  0  0
  1  2  1  0
  2  4  1  0
  3  2  2  0
  4  5  1  0
  5  6  1  6
  7  5  1  0
  8  7  2  0
  9 10  1  0
 11 10  1  1
 11 12  1  0
 11 13  1  0
 12  7  1  0
 13 20  1  0
 14 13  2  0
 15 16  1  0
 16 18  1  0
 17 16  2  0
 19 18  1  1
 19 21  1  0
 20 19  1  0
 21 22  1  0
 23 21  2  0
M  END
$$$$
