NSN.pdb
     RDKit          3D

 23 22  0  0  1  0  0  0  0  0999 V2000
    5.7137  -18.1466   15.8117 N   0  0  0  0  0  0  0  0  0  0  0  0
    6.9233  -17.9850   15.0639 C   0  0  0  0  0  0  0  0  0  0  0  0
    6.9467  -18.4280   13.8931 O   0  0  0  0  0  0  0  0  0  0  0  0
    8.1117  -17.3157   15.6503 C   0  0  0  0  0  0  0  0  0  0  0  0
    8.0216  -15.8132   15.4610 C   0  0  2  0  0  0  0  0  0  0  0  0
    8.5847  -15.5313   14.1542 N   0  0  0  0  0  0  0  0  0  0  0  0
    8.8003  -15.1591   16.5445 C   0  0  0  0  0  0  0  0  0  0  0  0
   10.0650  -15.0451   16.4664 O   0  0  0  0  0  0  0  0  0  0  0  0
    7.1216  -13.9898   20.2042 O   0  0  0  0  0  0  0  0  0  0  0  0
    8.1304  -13.1915   19.6653 C   0  0  0  0  0  0  0  0  0  0  0  0
    9.0143  -14.0247   18.7366 C   0  0  2  0  0  0  0  0  0  0  0  0
    8.1871  -14.6284   17.7250 N   0  0  0  0  0  0  0  0  0  0  0  0
    9.7802  -15.0211   19.5131 C   0  0  0  0  0  0  0  0  0  0  0  0
    9.4718  -16.2256   19.6410 O   0  0  0  0  0  0  0  0  0  0  0  0
   14.3516  -13.7138   19.2948 N   0  0  0  0  0  0  0  0  0  0  0  0
   13.9424  -14.9130   19.9176 C   0  0  0  0  0  0  0  0  0  0  0  0
   14.2849  -15.9886   19.3164 O   0  0  0  0  0  0  0  0  0  0  0  0
   13.1767  -14.9690   21.1746 C   0  0  0  0  0  0  0  0  0  0  0  0
   11.7690  -15.4314   21.0130 C   0  0  2  0  0  0  0  0  0  0  0  0
   10.9607  -14.5905   20.1711 N   0  0  0  0  0  0  0  0  0  0  0  0
   11.1249  -15.5496   22.3168 C   0  0  0  0  0  0  0  0  0  0  0  0
   11.6999  -16.4244   23.2639 O   0  0  0  0  0  0  0  0  0  0  0  0
   10.1083  -14.9561   22.6978 O   0  0  0  0  0  0  0  0  0  0  0  0
  1  2  1  0
  2  4  1  0
  3  2  2  0
  4  5  1  0
  5  6  1  6
  7  5  1  0
  8  7  2  0
  9 10  1  0
 11 10  1  1
 11 12  1  0
 11 13  1  0
 12  7  1  0
 13 20  1  0
 14 13  2  0
 15 16  1  0
 16 18  1  0
 17 16  2  0
 19 18  1  1
 19 21  1  0
 20 19  1  0
 21 22  1  0
 23 21  2  0
M  END
$$$$
