NSN.pdb
     RDKit          3D

 23 22  0  0  1  0  0  0  0  0999 V2000
    9.5318  -14.5405   10.7697 N   0  0  0  0  0  0  0  0  0  0  0  0
    9.9189  -15.2780   11.9336 C   0  0  0  0  0  0  0  0  0  0  0  0
   10.1313  -16.5047   11.8006 O   0  0  0  0  0  0  0  0  0  0  0  0
   10.0659  -14.6169   13.2547 C   0  0  0  0  0  0  0  0  0  0  0  0
    9.1141  -15.2310   14.2639 C   0  0  2  0  0  0  0  0  0  0  0  0
    7.7873  -14.7613   13.9129 N   0  0  0  0  0  0  0  0  0  0  0  0
    9.5145  -14.7746   15.6202 C   0  0  0  0  0  0  0  0  0  0  0  0
    9.4357  -13.5482   15.9496 O   0  0  0  0  0  0  0  0  0  0  0  0
    9.7132  -17.1356   18.9220 O   0  0  0  0  0  0  0  0  0  0  0  0
    9.6969  -15.7441   19.0166 C   0  0  0  0  0  0  0  0  0  0  0  0
   10.4977  -15.1340   17.8657 C   0  0  2  0  0  0  0  0  0  0  0  0
   10.0083  -15.6703   16.6228 N   0  0  0  0  0  0  0  0  0  0  0  0
   11.9420  -15.3761   18.0594 C   0  0  0  0  0  0  0  0  0  0  0  0
   12.6142  -16.2403   17.4562 O   0  0  0  0  0  0  0  0  0  0  0  0
   16.5163  -13.8462   21.8128 N   0  0  0  0  0  0  0  0  0  0  0  0
   16.0225  -13.8208   20.4903 C   0  0  0  0  0  0  0  0  0  0  0  0
   16.9005  -13.9753   19.5733 O   0  0  0  0  0  0  0  0  0  0  0  0
   14.6028  -13.6360   20.1442 C   0  0  0  0  0  0  0  0  0  0  0  0
   14.0093  -14.7653   19.3734 C   0  0  2  0  0  0  0  0  0  0  0  0
   12.6332  -14.5720   19.0015 N   0  0  0  0  0  0  0  0  0  0  0  0
   14.1215  -16.0067   20.1318 C   0  0  0  0  0  0  0  0  0  0  0  0
   15.1739  -16.8897   19.8070 O   0  0  0  0  0  0  0  0  0  0  0  0
   13.3829  -16.3835   21.0501 O   0  0  0  0  0  0  0  0  0  0  0  0
  1  2  1  0
  2  4  1  0
  3  2  2  0
  4  5  1  0
  5  6  1  6
  7  5  1  0
  8  7  2  0
  9 10  1  0
 11 10  1  1
 11 12  1  0
 11 13  1  0
 12  7  1  0
 13 20  1  0
 14 13  2  0
 15 16  1  0
 16 18  1  0
 17 16  2  0
 19 18  1  1
 19 21  1  0
 20 19  1  0
 21 22  1  0
 23 21  2  0
M  END
$$$$
