NSN.pdb
     RDKit          3D

 23 22  0  0  1  0  0  0  0  0999 V2000
   11.5804  -20.0442   16.3826 N   0  0  0  0  0  0  0  0  0  0  0  0
   12.9237  -19.7448   16.7751 C   0  0  0  0  0  0  0  0  0  0  0  0
   13.8504  -20.3337   16.1734 O   0  0  0  0  0  0  0  0  0  0  0  0
   13.2146  -18.7703   17.8567 C   0  0  0  0  0  0  0  0  0  0  0  0
   11.9290  -18.3185   18.5235 C   0  0  2  0  0  0  0  0  0  0  0  0
   11.1932  -17.5661   17.5252 N   0  0  0  0  0  0  0  0  0  0  0  0
   12.2825  -17.4738   19.6938 C   0  0  0  0  0  0  0  0  0  0  0  0
   13.4221  -16.9146   19.7789 O   0  0  0  0  0  0  0  0  0  0  0  0
    9.7793  -17.0296   22.9928 O   0  0  0  0  0  0  0  0  0  0  0  0
   10.5261  -15.9157   22.6097 C   0  0  0  0  0  0  0  0  0  0  0  0
   11.7752  -16.3622   21.8490 C   0  0  2  0  0  0  0  0  0  0  0  0
   11.3797  -17.2430   20.7815 N   0  0  0  0  0  0  0  0  0  0  0  0
   12.7434  -16.9880   22.7727 C   0  0  0  0  0  0  0  0  0  0  0  0
   12.7572  -18.1969   23.0903 O   0  0  0  0  0  0  0  0  0  0  0  0
   16.6685  -16.2517   22.2686 N   0  0  0  0  0  0  0  0  0  0  0  0
   16.7461  -15.5094   23.4671 C   0  0  0  0  0  0  0  0  0  0  0  0
   17.7044  -14.6648   23.5288 O   0  0  0  0  0  0  0  0  0  0  0  0
   15.8081  -15.6612   24.5925 C   0  0  0  0  0  0  0  0  0  0  0  0
   14.6919  -16.6145   24.3339 C   0  0  2  0  0  0  0  0  0  0  0  0
   13.7412  -16.1636   23.3529 N   0  0  0  0  0  0  0  0  0  0  0  0
   13.9832  -16.9088   25.5749 C   0  0  0  0  0  0  0  0  0  0  0  0
   14.4350  -17.9949   26.3553 O   0  0  0  0  0  0  0  0  0  0  0  0
   13.0085  -16.3005   26.0339 O   0  0  0  0  0  0  0  0  0  0  0  0
  1  2  1  0
  2  4  1  0
  3  2  2  0
  4  5  1  0
  5  6  1  6
  7  5  1  0
  8  7  2  0
  9 10  1  0
 11 10  1  1
 11 12  1  0
 11 13  1  0
 12  7  1  0
 13 20  1  0
 14 13  2  0
 15 16  1  0
 16 18  1  0
 17 16  2  0
 19 18  1  1
 19 21  1  0
 20 19  1  0
 21 22  1  0
 23 21  2  0
M  END
$$$$
