NSN.pdb
     RDKit          3D

 23 22  0  0  1  0  0  0  0  0999 V2000
    9.1453  -17.0639   12.4471 N   0  0  0  0  0  0  0  0  0  0  0  0
    8.6027  -17.1779   13.7666 C   0  0  0  0  0  0  0  0  0  0  0  0
    7.5831  -17.8888   13.9165 O   0  0  0  0  0  0  0  0  0  0  0  0
    9.2231  -16.4805   14.9210 C   0  0  0  0  0  0  0  0  0  0  0  0
    8.2208  -15.5528   15.5815 C   0  0  2  0  0  0  0  0  0  0  0  0
    7.9754  -14.4781   14.6386 N   0  0  0  0  0  0  0  0  0  0  0  0
    8.8165  -15.0461   16.8450 C   0  0  0  0  0  0  0  0  0  0  0  0
   10.0437  -14.7160   16.9056 O   0  0  0  0  0  0  0  0  0  0  0  0
    6.8263  -15.0860   20.5367 O   0  0  0  0  0  0  0  0  0  0  0  0
    7.6367  -13.9883   20.2477 C   0  0  0  0  0  0  0  0  0  0  0  0
    8.7070  -14.3841   19.2299 C   0  0  2  0  0  0  0  0  0  0  0  0
    8.0606  -14.9031   18.0532 N   0  0  0  0  0  0  0  0  0  0  0  0
    9.6548  -15.3462   19.8284 C   0  0  0  0  0  0  0  0  0  0  0  0
    9.6664  -16.5767   19.6086 O   0  0  0  0  0  0  0  0  0  0  0  0
   13.9750  -13.5193   19.6112 N   0  0  0  0  0  0  0  0  0  0  0  0
   13.5567  -14.7944   20.0500 C   0  0  0  0  0  0  0  0  0  0  0  0
   13.6967  -15.7406   19.2009 O   0  0  0  0  0  0  0  0  0  0  0  0
   12.9962  -15.0634   21.3852 C   0  0  0  0  0  0  0  0  0  0  0  0
   11.6318  -15.6630   21.3662 C   0  0  2  0  0  0  0  0  0  0  0  0
   10.6340  -14.8483   20.7257 N   0  0  0  0  0  0  0  0  0  0  0  0
   11.1936  -15.9610   22.7257 C   0  0  0  0  0  0  0  0  0  0  0  0
   11.9637  -16.8663   23.4874 O   0  0  0  0  0  0  0  0  0  0  0  0
   10.2010  -15.4995   23.3024 O   0  0  0  0  0  0  0  0  0  0  0  0
  1  2  1  0
  2  4  1  0
  3  2  2  0
  4  5  1  0
  5  6  1  6
  7  5  1  0
  8  7  2  0
  9 10  1  0
 11 10  1  1
 11 12  1  0
 11 13  1  0
 12  7  1  0
 13 20  1  0
 14 13  2  0
 15 16  1  0
 16 18  1  0
 17 16  2  0
 19 18  1  1
 19 21  1  0
 20 19  1  0
 21 22  1  0
 23 21  2  0
M  END
$$$$
