CPC.pdb
     RDKit          3D

 20 20  0  0  1  0  0  0  0  0999 V2000
    6.0449  -17.6767   18.6809 N   0  0  0  0  0  0  0  0  0  0  0  0
    7.3808  -17.7204   18.3017 C   0  0  1  0  0  0  0  0  0  0  0  0
    7.4659  -17.5009   16.7837 C   0  0  0  0  0  0  0  0  0  0  0  0
    6.2013  -18.4883   15.9238 S   0  0  0  0  0  0  0  0  0  0  0  0
    8.3303  -16.7942   18.9143 C   0  0  0  0  0  0  0  0  0  0  0  0
    9.5291  -16.9005   18.4753 O   0  0  0  0  0  0  0  0  0  0  0  0
    8.0778  -15.8300   19.9021 N   0  0  0  0  0  0  0  0  0  0  0  0
    6.8616  -15.4371   20.5648 C   0  0  0  0  0  0  0  0  0  0  0  0
    6.9970  -13.9390   20.6550 C   0  0  0  0  0  0  0  0  0  0  0  0
    8.4414  -13.6129   20.4093 C   0  0  0  0  0  0  0  0  0  0  0  0
    9.1038  -14.9700   20.4949 C   0  0  1  0  0  0  0  0  0  0  0  0
    9.4372  -15.3717   21.8737 C   0  0  0  0  0  0  0  0  0  0  0  0
    8.5466  -15.4200   22.7407 O   0  0  0  0  0  0  0  0  0  0  0  0
   10.7666  -15.7009   22.2074 N   0  0  0  0  0  0  0  0  0  0  0  0
   11.0766  -16.4108   23.4413 C   0  0  1  0  0  0  0  0  0  0  0  0
   11.2512  -17.8731   23.0610 C   0  0  0  0  0  0  0  0  0  0  0  0
    9.6460  -18.6179   22.7563 S   0  0  0  0  0  0  0  0  0  0  0  0
   12.3625  -15.8776   23.9855 C   0  0  0  0  0  0  0  0  0  0  0  0
   13.1087  -15.1291   23.3040 O   0  0  0  0  0  0  0  0  0  0  0  0
   12.7681  -16.1931   25.2561 O   0  0  0  0  0  0  0  0  0  0  0  0
  2  1  1  1
  2  3  1  0
  4  3  1  0
  5  2  1  0
  5  6  2  0
  7  5  1  0
  8  7  1  0
  9  8  1  0
 10  9  1  0
 10 11  1  0
 11  7  1  0
 11 12  1  1
 12 13  2  0
 14 12  1  0
 14 15  1  0
 15 16  1  6
 16 17  1  0
 18 15  1  0
 18 20  1  0
 19 18  2  0
M  END
$$$$
