CPC.pdb
     RDKit          3D

 20 20  0  0  1  0  0  0  0  0999 V2000
    7.7260  -14.3560   21.1550 N   0  0  0  0  0  0  0  0  0  0  0  0
    7.1933  -14.2790   22.4359 C   0  0  1  0  0  0  0  0  0  0  0  0
    6.3772  -15.5526   22.7036 C   0  0  0  0  0  0  0  0  0  0  0  0
    6.9960  -16.9325   21.6904 S   0  0  0  0  0  0  0  0  0  0  0  0
    8.0907  -14.1073   23.5760 C   0  0  0  0  0  0  0  0  0  0  0  0
    9.3360  -14.1592   23.2798 O   0  0  0  0  0  0  0  0  0  0  0  0
    7.7455  -13.8981   24.9200 N   0  0  0  0  0  0  0  0  0  0  0  0
    6.4726  -13.9111   25.5926 C   0  0  0  0  0  0  0  0  0  0  0  0
    6.5921  -12.7620   26.5600 C   0  0  0  0  0  0  0  0  0  0  0  0
    8.0511  -12.4256   26.6644 C   0  0  0  0  0  0  0  0  0  0  0  0
    8.7097  -13.6037   25.9818 C   0  0  1  0  0  0  0  0  0  0  0  0
    8.9194  -14.7558   26.8774 C   0  0  0  0  0  0  0  0  0  0  0  0
    7.9793  -15.5322   27.1237 O   0  0  0  0  0  0  0  0  0  0  0  0
   10.1868  -14.9758   27.4539 N   0  0  0  0  0  0  0  0  0  0  0  0
   10.5990  -16.3087   27.8737 C   0  0  1  0  0  0  0  0  0  0  0  0
   12.0244  -16.4919   27.3759 C   0  0  0  0  0  0  0  0  0  0  0  0
   12.0836  -16.2482   25.5978 S   0  0  0  0  0  0  0  0  0  0  0  0
   10.5788  -16.3634   29.3672 C   0  0  0  0  0  0  0  0  0  0  0  0
   10.2580  -15.3647   30.0608 O   0  0  0  0  0  0  0  0  0  0  0  0
   10.9130  -17.5162   30.0290 O   0  0  0  0  0  0  0  0  0  0  0  0
  2  1  1  6
  2  3  1  0
  4  3  1  0
  5  2  1  0
  5  6  2  0
  7  5  1  0
  8  7  1  0
  9  8  1  0
 10  9  1  0
 10 11  1  0
 11  7  1  0
 11 12  1  1
 12 13  2  0
 14 12  1  0
 14 15  1  0
 15 16  1  1
 16 17  1  0
 18 15  1  0
 18 20  1  0
 19 18  2  0
M  END
$$$$
