CPC.pdb
     RDKit          3D

 20 20  0  0  1  0  0  0  0  0999 V2000
    6.0385  -18.3601   18.4009 N   0  0  0  0  0  0  0  0  0  0  0  0
    6.1791  -17.4223   19.4163 C   0  0  1  0  0  0  0  0  0  0  0  0
    5.9289  -18.1180   20.7628 C   0  0  0  0  0  0  0  0  0  0  0  0
    6.0456  -16.9226   22.1307 S   0  0  0  0  0  0  0  0  0  0  0  0
    7.4375  -16.6918   19.5479 C   0  0  0  0  0  0  0  0  0  0  0  0
    8.4750  -17.3629   19.2094 O   0  0  0  0  0  0  0  0  0  0  0  0
    7.6262  -15.3741   19.9919 N   0  0  0  0  0  0  0  0  0  0  0  0
    6.7056  -14.4055   20.5277 C   0  0  0  0  0  0  0  0  0  0  0  0
    7.1636  -13.1187   19.8911 C   0  0  0  0  0  0  0  0  0  0  0  0
    8.5462  -13.3597   19.3590 C   0  0  0  0  0  0  0  0  0  0  0  0
    8.9165  -14.6821   19.9929 C   0  0  1  0  0  0  0  0  0  0  0  0
    9.4721  -14.5437   21.3515 C   0  0  0  0  0  0  0  0  0  0  0  0
    9.3083  -13.4868   21.9865 O   0  0  0  0  0  0  0  0  0  0  0  0
   10.1889  -15.6112   21.9292 N   0  0  0  0  0  0  0  0  0  0  0  0
   10.4743  -15.6371   23.3577 C   0  0  1  0  0  0  0  0  0  0  0  0
    9.1267  -15.6491   24.0628 C   0  0  0  0  0  0  0  0  0  0  0  0
    9.3712  -15.7224   25.8403 S   0  0  0  0  0  0  0  0  0  0  0  0
   11.2150  -16.8970   23.6710 C   0  0  0  0  0  0  0  0  0  0  0  0
   10.9706  -17.9741   23.0698 O   0  0  0  0  0  0  0  0  0  0  0  0
   12.1916  -16.9129   24.6325 O   0  0  0  0  0  0  0  0  0  0  0  0
  2  1  1  6
  2  3  1  0
  4  3  1  0
  5  2  1  0
  5  6  2  0
  7  5  1  0
  8  7  1  0
  9  8  1  0
 10  9  1  0
 10 11  1  0
 11  7  1  0
 11 12  1  1
 12 13  2  0
 14 12  1  0
 14 15  1  0
 15 16  1  1
 16 17  1  0
 18 15  1  0
 18 20  1  0
 19 18  2  0
M  END
$$$$
