CPC.pdb
     RDKit          3D

 20 20  0  0  1  0  0  0  0  0999 V2000
    5.9052  -17.3886   19.2164 N   0  0  0  0  0  0  0  0  0  0  0  0
    7.2487  -17.5979   18.9312 C   0  0  1  0  0  0  0  0  0  0  0  0
    7.3960  -17.8424   17.4218 C   0  0  0  0  0  0  0  0  0  0  0  0
    6.3484  -19.2348   16.8951 S   0  0  0  0  0  0  0  0  0  0  0  0
    8.2254  -16.5717   19.2882 C   0  0  0  0  0  0  0  0  0  0  0  0
    9.4369  -16.8738   19.0015 O   0  0  0  0  0  0  0  0  0  0  0  0
    7.9863  -15.3282   19.8930 N   0  0  0  0  0  0  0  0  0  0  0  0
    6.7639  -14.6735   20.2801 C   0  0  0  0  0  0  0  0  0  0  0  0
    7.0194  -13.2364   19.9056 C   0  0  0  0  0  0  0  0  0  0  0  0
    8.5001  -13.0907   19.7073 C   0  0  0  0  0  0  0  0  0  0  0  0
    9.0370  -14.3842   20.2786 C   0  0  1  0  0  0  0  0  0  0  0  0
    9.2362  -14.3402   21.7387 C   0  0  0  0  0  0  0  0  0  0  0  0
    8.3976  -13.7774   22.4648 O   0  0  0  0  0  0  0  0  0  0  0  0
   10.3784  -14.9368   22.3101 N   0  0  0  0  0  0  0  0  0  0  0  0
   10.3392  -15.4968   23.6545 C   0  0  1  0  0  0  0  0  0  0  0  0
    9.2363  -16.5441   23.6494 C   0  0  0  0  0  0  0  0  0  0  0  0
    9.0979  -17.2892   25.2774 S   0  0  0  0  0  0  0  0  0  0  0  0
   11.6526  -16.1535   23.9337 C   0  0  0  0  0  0  0  0  0  0  0  0
   12.3583  -16.6378   23.0124 O   0  0  0  0  0  0  0  0  0  0  0  0
   12.1288  -16.2469   25.2154 O   0  0  0  0  0  0  0  0  0  0  0  0
  2  1  1  6
  2  3  1  0
  4  3  1  0
  5  2  1  0
  5  6  2  0
  7  5  1  0
  8  7  1  0
  9  8  1  0
 10  9  1  0
 10 11  1  0
 11  7  1  0
 11 12  1  1
 12 13  2  0
 14 12  1  0
 14 15  1  0
 15 16  1  6
 16 17  1  0
 18 15  1  0
 18 20  1  0
 19 18  2  0
M  END
$$$$
