CPC.pdb
     RDKit          3D

 20 20  0  0  1  0  0  0  0  0999 V2000
   10.8887  -17.5614   19.6566 N   0  0  0  0  0  0  0  0  0  0  0  0
    9.6348  -17.2071   20.1390 C   0  0  1  0  0  0  0  0  0  0  0  0
    8.9840  -18.4485   20.7677 C   0  0  0  0  0  0  0  0  0  0  0  0
    7.4268  -18.8536   19.9163 S   0  0  0  0  0  0  0  0  0  0  0  0
    9.5225  -16.1309   21.1207 C   0  0  0  0  0  0  0  0  0  0  0  0
   10.5219  -16.0364   21.9167 O   0  0  0  0  0  0  0  0  0  0  0  0
    8.4695  -15.2172   21.2806 N   0  0  0  0  0  0  0  0  0  0  0  0
    7.2333  -15.0491   20.5620 C   0  0  0  0  0  0  0  0  0  0  0  0
    7.0962  -13.5509   20.4754 C   0  0  0  0  0  0  0  0  0  0  0  0
    8.0367  -12.9645   21.4875 C   0  0  0  0  0  0  0  0  0  0  0  0
    8.4338  -14.1728   22.3061 C   0  0  1  0  0  0  0  0  0  0  0  0
    7.4801  -14.4864   23.3858 C   0  0  0  0  0  0  0  0  0  0  0  0
    6.8775  -15.5745   23.3877 O   0  0  0  0  0  0  0  0  0  0  0  0
    7.2525  -13.5509   24.4155 N   0  0  0  0  0  0  0  0  0  0  0  0
    8.0115  -13.6036   25.6580 C   0  0  1  0  0  0  0  0  0  0  0  0
    7.3753  -12.5847   26.5910 C   0  0  0  0  0  0  0  0  0  0  0  0
    5.8226  -12.0099   25.8957 S   0  0  0  0  0  0  0  0  0  0  0  0
    7.8725  -14.9727   26.2415 C   0  0  0  0  0  0  0  0  0  0  0  0
    7.0718  -15.8165   25.7636 O   0  0  0  0  0  0  0  0  0  0  0  0
    8.6220  -15.3500   27.3251 O   0  0  0  0  0  0  0  0  0  0  0  0
  2  1  1  1
  2  3  1  0
  4  3  1  0
  5  2  1  0
  5  6  2  0
  7  5  1  0
  8  7  1  0
  9  8  1  0
 10  9  1  0
 10 11  1  0
 11  7  1  0
 11 12  1  1
 12 13  2  0
 14 12  1  0
 14 15  1  0
 15 16  1  1
 16 17  1  0
 18 15  1  0
 18 20  1  0
 19 18  2  0
M  END
$$$$
