CPC.pdb
     RDKit          3D

 20 20  0  0  1  0  0  0  0  0999 V2000
    5.2200  -18.5600   19.5923 N   0  0  0  0  0  0  0  0  0  0  0  0
    5.3921  -17.2401   19.9906 C   0  0  1  0  0  0  0  0  0  0  0  0
    4.5421  -16.9932   21.2461 C   0  0  0  0  0  0  0  0  0  0  0  0
    5.2686  -17.8382   22.6855 S   0  0  0  0  0  0  0  0  0  0  0  0
    6.7360  -16.7513   20.2899 C   0  0  0  0  0  0  0  0  0  0  0  0
    7.6500  -17.6465   20.2234 O   0  0  0  0  0  0  0  0  0  0  0  0
    7.1215  -15.4461   20.6321 N   0  0  0  0  0  0  0  0  0  0  0  0
    6.3482  -14.2703   20.9359 C   0  0  0  0  0  0  0  0  0  0  0  0
    7.1249  -13.1725   20.2558 C   0  0  0  0  0  0  0  0  0  0  0  0
    8.4893  -13.7211   19.9551 C   0  0  0  0  0  0  0  0  0  0  0  0
    8.5117  -15.0038   20.7564 C   0  0  1  0  0  0  0  0  0  0  0  0
    8.9091  -14.8077   22.1625 C   0  0  0  0  0  0  0  0  0  0  0  0
    8.0987  -14.3333   22.9782 O   0  0  0  0  0  0  0  0  0  0  0  0
   10.2087  -15.1587   22.5806 N   0  0  0  0  0  0  0  0  0  0  0  0
   10.4458  -15.7149   23.9062 C   0  0  1  0  0  0  0  0  0  0  0  0
    9.5959  -16.9728   24.0002 C   0  0  0  0  0  0  0  0  0  0  0  0
    9.5951  -17.5811   25.6897 S   0  0  0  0  0  0  0  0  0  0  0  0
   11.8915  -16.0776   24.0172 C   0  0  0  0  0  0  0  0  0  0  0  0
   12.5443  -15.8755   25.0729 O   0  0  0  0  0  0  0  0  0  0  0  0
   12.5526  -16.6465   22.9599 O   0  0  0  0  0  0  0  0  0  0  0  0
  2  1  1  1
  2  3  1  0
  4  3  1  0
  5  2  1  0
  5  6  2  0
  7  5  1  0
  8  7  1  0
  9  8  1  0
 10  9  1  0
 10 11  1  0
 11  7  1  0
 11 12  1  1
 12 13  2  0
 14 12  1  0
 14 15  1  0
 15 16  1  6
 16 17  1  0
 18 15  1  0
 18 20  1  0
 19 18  2  0
M  END
$$$$
