CPC.pdb
     RDKit          3D

 20 20  0  0  1  0  0  0  0  0999 V2000
    7.1392  -18.0043   17.0178 N   0  0  0  0  0  0  0  0  0  0  0  0
    6.8790  -17.3106   18.1931 C   0  0  1  0  0  0  0  0  0  0  0  0
    6.2874  -18.2898   19.2184 C   0  0  0  0  0  0  0  0  0  0  0  0
    5.9235  -17.4336   20.7830 S   0  0  0  0  0  0  0  0  0  0  0  0
    7.9679  -16.6054   18.8650 C   0  0  0  0  0  0  0  0  0  0  0  0
    9.1154  -17.1601   18.7349 O   0  0  0  0  0  0  0  0  0  0  0  0
    7.8942  -15.4216   19.6150 N   0  0  0  0  0  0  0  0  0  0  0  0
    6.7685  -14.6553   20.0823 C   0  0  0  0  0  0  0  0  0  0  0  0
    7.2237  -13.2330   19.8812 C   0  0  0  0  0  0  0  0  0  0  0  0
    8.7127  -13.2702   19.6958 C   0  0  0  0  0  0  0  0  0  0  0  0
    9.0597  -14.6840   20.1064 C   0  0  1  0  0  0  0  0  0  0  0  0
    9.2446  -14.8416   21.5605 C   0  0  0  0  0  0  0  0  0  0  0  0
    8.2693  -14.7448   22.3264 O   0  0  0  0  0  0  0  0  0  0  0  0
   10.5285  -15.1021   22.0811 N   0  0  0  0  0  0  0  0  0  0  0  0
   10.7058  -15.9561   23.2482 C   0  0  1  0  0  0  0  0  0  0  0  0
   10.1695  -17.3257   22.8611 C   0  0  0  0  0  0  0  0  0  0  0  0
   10.4037  -18.4765   24.2196 S   0  0  0  0  0  0  0  0  0  0  0  0
   12.1671  -16.0559   23.5457 C   0  0  0  0  0  0  0  0  0  0  0  0
   13.0342  -15.9540   22.6407 O   0  0  0  0  0  0  0  0  0  0  0  0
   12.6069  -16.2636   24.8271 O   0  0  0  0  0  0  0  0  0  0  0  0
  2  1  1  6
  2  3  1  0
  4  3  1  0
  5  2  1  0
  5  6  2  0
  7  5  1  0
  8  7  1  0
  9  8  1  0
 10  9  1  0
 10 11  1  0
 11  7  1  0
 11 12  1  1
 12 13  2  0
 14 12  1  0
 14 15  1  0
 15 16  1  6
 16 17  1  0
 18 15  1  0
 18 20  1  0
 19 18  2  0
M  END
$$$$
