CPC.pdb
     RDKit          3D

 20 20  0  0  1  0  0  0  0  0999 V2000
    8.7540  -27.7734   32.7297 N   0  0  0  0  0  0  0  0  0  0  0  0
    9.3497  -26.6142   33.2112 C   0  0  1  0  0  0  0  0  0  0  0  0
    8.8574  -26.3708   34.6458 C   0  0  0  0  0  0  0  0  0  0  0  0
    9.2193  -24.6638   35.1642 S   0  0  0  0  0  0  0  0  0  0  0  0
   10.8071  -26.5182   33.2448 C   0  0  0  0  0  0  0  0  0  0  0  0
   11.3973  -27.5857   33.6366 O   0  0  0  0  0  0  0  0  0  0  0  0
   11.6059  -25.4157   32.9046 N   0  0  0  0  0  0  0  0  0  0  0  0
   11.2691  -24.0484   32.6047 C   0  0  0  0  0  0  0  0  0  0  0  0
   12.2012  -23.7142   31.4689 C   0  0  0  0  0  0  0  0  0  0  0  0
   13.2765  -24.7614   31.4604 C   0  0  0  0  0  0  0  0  0  0  0  0
   13.0644  -25.4610   32.7845 C   0  0  1  0  0  0  0  0  0  0  0  0
   13.7361  -24.7917   33.9134 C   0  0  0  0  0  0  0  0  0  0  0  0
   13.2669  -23.7393   34.3818 O   0  0  0  0  0  0  0  0  0  0  0  0
   14.9107  -25.3466   34.4607 N   0  0  0  0  0  0  0  0  0  0  0  0
   15.5215  -24.7804   35.6561 C   0  0  1  0  0  0  0  0  0  0  0  0
   15.0808  -25.6578   36.8178 C   0  0  0  0  0  0  0  0  0  0  0  0
   15.2810  -24.7659   38.3634 S   0  0  0  0  0  0  0  0  0  0  0  0
   17.0072  -24.8521   35.5095 C   0  0  0  0  0  0  0  0  0  0  0  0
   17.7764  -24.1709   36.2345 O   0  0  0  0  0  0  0  0  0  0  0  0
   17.5782  -25.6713   34.5707 O   0  0  0  0  0  0  0  0  0  0  0  0
  2  1  1  1
  2  3  1  0
  4  3  1  0
  5  2  1  0
  5  6  2  0
  7  5  1  0
  8  7  1  0
  9  8  1  0
 10  9  1  0
 10 11  1  0
 11  7  1  0
 11 12  1  1
 12 13  2  0
 14 12  1  0
 14 15  1  0
 15 16  1  1
 16 17  1  0
 18 15  1  0
 18 20  1  0
 19 18  2  0
M  END
$$$$
