CPC.pdb
     RDKit          3D

 20 20  0  0  1  0  0  0  0  0999 V2000
    5.1463  -17.5358   24.9679 N   0  0  0  0  0  0  0  0  0  0  0  0
    5.8608  -16.3474   24.8820 C   0  0  1  0  0  0  0  0  0  0  0  0
    5.6610  -15.5611   26.1865 C   0  0  0  0  0  0  0  0  0  0  0  0
    6.5774  -13.9892   26.1315 S   0  0  0  0  0  0  0  0  0  0  0  0
    7.3001  -16.3928   24.6348 C   0  0  0  0  0  0  0  0  0  0  0  0
    7.8501  -17.5131   24.9243 O   0  0  0  0  0  0  0  0  0  0  0  0
    8.1200  -15.3721   24.1297 N   0  0  0  0  0  0  0  0  0  0  0  0
    7.8638  -13.9780   23.8773 C   0  0  0  0  0  0  0  0  0  0  0  0
    8.5878  -13.7332   22.5785 C   0  0  0  0  0  0  0  0  0  0  0  0
    9.5365  -14.8795   22.3817 C   0  0  0  0  0  0  0  0  0  0  0  0
    9.5171  -15.5581   23.7333 C   0  0  1  0  0  0  0  0  0  0  0  0
   10.4540  -14.9593   24.7014 C   0  0  0  0  0  0  0  0  0  0  0  0
   11.6316  -14.7338   24.3705 O   0  0  0  0  0  0  0  0  0  0  0  0
   10.0128  -14.6429   26.0023 N   0  0  0  0  0  0  0  0  0  0  0  0
   10.8712  -14.8603   27.1593 C   0  0  1  0  0  0  0  0  0  0  0  0
   10.3186  -13.9835   28.2724 C   0  0  0  0  0  0  0  0  0  0  0  0
    9.3562  -12.6411   27.5679 S   0  0  0  0  0  0  0  0  0  0  0  0
   10.7747  -16.2974   27.5587 C   0  0  0  0  0  0  0  0  0  0  0  0
    9.9679  -17.0852   27.0020 O   0  0  0  0  0  0  0  0  0  0  0  0
   11.5715  -16.8014   28.5534 O   0  0  0  0  0  0  0  0  0  0  0  0
  2  1  1  1
  2  3  1  0
  4  3  1  0
  5  2  1  0
  5  6  2  0
  7  5  1  0
  8  7  1  0
  9  8  1  0
 10  9  1  0
 10 11  1  0
 11  7  1  0
 11 12  1  1
 12 13  2  0
 14 12  1  0
 14 15  1  0
 15 16  1  1
 16 17  1  0
 18 15  1  0
 18 20  1  0
 19 18  2  0
M  END
$$$$
