CPC.pdb
     RDKit          3D

 20 20  0  0  1  0  0  0  0  0999 V2000
    7.9819  -13.9373   20.8142 N   0  0  0  0  0  0  0  0  0  0  0  0
    7.3643  -13.7726   22.0478 C   0  0  1  0  0  0  0  0  0  0  0  0
    6.2387  -14.8103   22.1737 C   0  0  0  0  0  0  0  0  0  0  0  0
    6.9306  -16.4822   22.3727 S   0  0  0  0  0  0  0  0  0  0  0  0
    8.1629  -13.8685   23.2675 C   0  0  0  0  0  0  0  0  0  0  0  0
    9.4012  -14.1297   23.0682 O   0  0  0  0  0  0  0  0  0  0  0  0
    7.7323  -13.7102   24.5937 N   0  0  0  0  0  0  0  0  0  0  0  0
    6.4241  -13.4915   25.1537 C   0  0  0  0  0  0  0  0  0  0  0  0
    6.6912  -12.4950   26.2520 C   0  0  0  0  0  0  0  0  0  0  0  0
    8.1690  -12.5149   26.5134 C   0  0  0  0  0  0  0  0  0  0  0  0
    8.6200  -13.7450   25.7576 C   0  0  1  0  0  0  0  0  0  0  0  0
    8.4744  -14.9920   26.5306 C   0  0  0  0  0  0  0  0  0  0  0  0
    7.3930  -15.6065   26.5233 O   0  0  0  0  0  0  0  0  0  0  0  0
    9.5629  -15.4862   27.2776 N   0  0  0  0  0  0  0  0  0  0  0  0
    9.8941  -16.9050   27.2719 C   0  0  1  0  0  0  0  0  0  0  0  0
   11.0670  -17.0663   26.3171 C   0  0  0  0  0  0  0  0  0  0  0  0
   11.6273  -18.7724   26.3250 S   0  0  0  0  0  0  0  0  0  0  0  0
   10.3128  -17.3003   28.6512 C   0  0  0  0  0  0  0  0  0  0  0  0
   10.9427  -16.5123   29.4019 O   0  0  0  0  0  0  0  0  0  0  0  0
   10.0184  -18.5461   29.1409 O   0  0  0  0  0  0  0  0  0  0  0  0
  2  1  1  6
  2  3  1  0
  4  3  1  0
  5  2  1  0
  5  6  2  0
  7  5  1  0
  8  7  1  0
  9  8  1  0
 10  9  1  0
 10 11  1  0
 11  7  1  0
 11 12  1  1
 12 13  2  0
 14 12  1  0
 14 15  1  0
 15 16  1  6
 16 17  1  0
 18 15  1  0
 18 20  1  0
 19 18  2  0
M  END
$$$$
