CPC.pdb
     RDKit          3D

 20 20  0  0  1  0  0  0  0  0999 V2000
    8.2937  -18.6289   19.8681 N   0  0  0  0  0  0  0  0  0  0  0  0
    7.7055  -17.7002   20.7177 C   0  0  1  0  0  0  0  0  0  0  0  0
    7.2794  -18.4180   22.0072 C   0  0  0  0  0  0  0  0  0  0  0  0
    6.2202  -17.3377   23.0194 S   0  0  0  0  0  0  0  0  0  0  0  0
    8.4642  -16.5198   21.1246 C   0  0  0  0  0  0  0  0  0  0  0  0
    9.7091  -16.7389   21.3332 O   0  0  0  0  0  0  0  0  0  0  0  0
    7.9902  -15.2115   21.3061 N   0  0  0  0  0  0  0  0  0  0  0  0
    6.6570  -14.6682   21.2936 C   0  0  0  0  0  0  0  0  0  0  0  0
    6.8353  -13.3574   20.5719 C   0  0  0  0  0  0  0  0  0  0  0  0
    8.3043  -13.0496   20.5765 C   0  0  0  0  0  0  0  0  0  0  0  0
    8.8474  -14.0539   21.5686 C   0  0  1  0  0  0  0  0  0  0  0  0
    8.7561  -13.6007   22.9685 C   0  0  0  0  0  0  0  0  0  0  0  0
    8.9892  -12.4129   23.2549 O   0  0  0  0  0  0  0  0  0  0  0  0
    8.4043  -14.5157   23.9815 N   0  0  0  0  0  0  0  0  0  0  0  0
    8.0457  -14.0556   25.3166 C   0  0  1  0  0  0  0  0  0  0  0  0
    6.7883  -13.2152   25.1557 C   0  0  0  0  0  0  0  0  0  0  0  0
    6.1334  -12.7854   26.7716 S   0  0  0  0  0  0  0  0  0  0  0  0
    7.7458  -15.2488   26.1653 C   0  0  0  0  0  0  0  0  0  0  0  0
    7.4482  -16.3612   25.6599 O   0  0  0  0  0  0  0  0  0  0  0  0
    7.7874  -15.1623   27.5324 O   0  0  0  0  0  0  0  0  0  0  0  0
  2  1  1  6
  2  3  1  0
  4  3  1  0
  5  2  1  0
  5  6  2  0
  7  5  1  0
  8  7  1  0
  9  8  1  0
 10  9  1  0
 10 11  1  0
 11  7  1  0
 11 12  1  1
 12 13  2  0
 14 12  1  0
 14 15  1  0
 15 16  1  6
 16 17  1  0
 18 15  1  0
 18 20  1  0
 19 18  2  0
M  END
$$$$
