CPC.pdb
     RDKit          3D

 20 20  0  0  1  0  0  0  0  0999 V2000
    5.7571  -18.8499   19.3261 N   0  0  0  0  0  0  0  0  0  0  0  0
    5.8405  -17.7698   20.1960 C   0  0  1  0  0  0  0  0  0  0  0  0
    5.5031  -18.2561   21.6136 C   0  0  0  0  0  0  0  0  0  0  0  0
    3.7913  -17.8162   22.0491 S   0  0  0  0  0  0  0  0  0  0  0  0
    7.0929  -17.0239   20.2944 C   0  0  0  0  0  0  0  0  0  0  0  0
    8.1394  -17.7121   20.0249 O   0  0  0  0  0  0  0  0  0  0  0  0
    7.2676  -15.6756   20.6420 N   0  0  0  0  0  0  0  0  0  0  0  0
    6.3227  -14.6547   21.0133 C   0  0  0  0  0  0  0  0  0  0  0  0
    6.8575  -13.4317   20.3140 C   0  0  0  0  0  0  0  0  0  0  0  0
    8.2759  -13.7326   19.9259 C   0  0  0  0  0  0  0  0  0  0  0  0
    8.5658  -15.0008   20.6974 C   0  0  1  0  0  0  0  0  0  0  0  0
    9.0055  -14.7546   22.0829 C   0  0  0  0  0  0  0  0  0  0  0  0
    8.8050  -13.6469   22.6122 O   0  0  0  0  0  0  0  0  0  0  0  0
    9.6532  -15.7764   22.8064 N   0  0  0  0  0  0  0  0  0  0  0  0
    9.7896  -15.6994   24.2549 C   0  0  1  0  0  0  0  0  0  0  0  0
    8.3963  -15.9104   24.8272 C   0  0  0  0  0  0  0  0  0  0  0  0
    7.4827  -14.3650   24.7890 S   0  0  0  0  0  0  0  0  0  0  0  0
   10.6894  -16.8041   24.7064 C   0  0  0  0  0  0  0  0  0  0  0  0
   11.0905  -17.6950   23.9147 O   0  0  0  0  0  0  0  0  0  0  0  0
   11.1067  -16.8771   26.0098 O   0  0  0  0  0  0  0  0  0  0  0  0
  2  1  1  6
  2  3  1  0
  4  3  1  0
  5  2  1  0
  5  6  2  0
  7  5  1  0
  8  7  1  0
  9  8  1  0
 10  9  1  0
 10 11  1  0
 11  7  1  0
 11 12  1  1
 12 13  2  0
 14 12  1  0
 14 15  1  0
 15 16  1  1
 16 17  1  0
 18 15  1  0
 18 20  1  0
 19 18  2  0
M  END
$$$$
