CPC.pdb
     RDKit          3D

 20 20  0  0  1  0  0  0  0  0999 V2000
    8.1431  -18.1499   17.1882 N   0  0  0  0  0  0  0  0  0  0  0  0
    7.5809  -17.1735   18.0012 C   0  0  1  0  0  0  0  0  0  0  0  0
    6.5524  -17.8405   18.9269 C   0  0  0  0  0  0  0  0  0  0  0  0
    7.3793  -18.9652   20.0951 S   0  0  0  0  0  0  0  0  0  0  0  0
    8.4486  -16.3625   18.8520 C   0  0  0  0  0  0  0  0  0  0  0  0
    9.6842  -16.6993   18.8189 O   0  0  0  0  0  0  0  0  0  0  0  0
    8.0851  -15.2869   19.6767 N   0  0  0  0  0  0  0  0  0  0  0  0
    6.7991  -14.7368   20.0178 C   0  0  0  0  0  0  0  0  0  0  0  0
    7.0568  -13.2521   20.0131 C   0  0  0  0  0  0  0  0  0  0  0  0
    8.5449  -13.0644   20.0691 C   0  0  0  0  0  0  0  0  0  0  0  0
    9.0387  -14.4527   20.4106 C   0  0  1  0  0  0  0  0  0  0  0  0
    9.0281  -14.7376   21.8570 C   0  0  0  0  0  0  0  0  0  0  0  0
    7.9671  -14.6524   22.5006 O   0  0  0  0  0  0  0  0  0  0  0  0
   10.2222  -15.1064   22.5090 N   0  0  0  0  0  0  0  0  0  0  0  0
   10.1984  -15.9450   23.7002 C   0  0  1  0  0  0  0  0  0  0  0  0
    9.7115  -17.3137   23.2497 C   0  0  0  0  0  0  0  0  0  0  0  0
    9.7417  -18.4560   24.6350 S   0  0  0  0  0  0  0  0  0  0  0  0
   11.5918  -16.0579   24.2291 C   0  0  0  0  0  0  0  0  0  0  0  0
   12.5945  -15.9503   23.4779 O   0  0  0  0  0  0  0  0  0  0  0  0
   11.8172  -16.2844   25.5619 O   0  0  0  0  0  0  0  0  0  0  0  0
  2  1  1  1
  2  3  1  0
  4  3  1  0
  5  2  1  0
  5  6  2  0
  7  5  1  0
  8  7  1  0
  9  8  1  0
 10  9  1  0
 10 11  1  0
 11  7  1  0
 11 12  1  1
 12 13  2  0
 14 12  1  0
 14 15  1  0
 15 16  1  6
 16 17  1  0
 18 15  1  0
 18 20  1  0
 19 18  2  0
M  END
$$$$
