MRG.pdb
     RDKit          3D

 24 23  0  0  1  0  0  0  0  0999 V2000
   32.2277  -20.3290  -10.7844 C   0  0  0  0  0  0  0  0  0  0  0  0
   32.3123  -21.9534  -10.0087 S   0  0  0  0  0  0  0  0  0  0  0  0
   30.6651  -22.6359   -9.6744 C   0  0  0  0  0  0  0  0  0  0  0  0
   29.6503  -22.0668  -10.6511 C   0  0  0  0  0  0  0  0  0  0  0  0
   28.3255  -22.6936  -10.3143 C   0  0  2  0  0  0  0  0  0  0  0  0
   28.4705  -24.1274  -10.3951 N   0  0  0  0  0  0  0  0  0  0  0  0
   27.3155  -22.1838  -11.2792 C   0  0  0  0  0  0  0  0  0  0  0  0
   27.1945  -22.7106  -12.4081 O   0  0  0  0  0  0  0  0  0  0  0  0
   19.9023  -22.0998   -9.4863 N   0  0  0  0  0  0  0  0  0  0  0  0
   20.1322  -20.9165  -10.2729 C   0  0  0  0  0  0  0  0  0  0  0  0
   19.2840  -20.6283  -11.1916 N   0  0  0  0  0  0  0  0  0  0  0  0
   21.2573  -20.0957  -10.0400 N   0  0  0  0  0  0  0  0  0  0  0  0
   22.4104  -20.6617   -9.3046 C   0  0  0  0  0  0  0  0  0  0  0  0
   23.4218  -21.1528  -10.2757 C   0  0  0  0  0  0  0  0  0  0  0  0
   24.3633  -20.2067  -10.8711 C   0  0  0  0  0  0  0  0  0  0  0  0
   25.4259  -20.5697  -11.8252 C   0  0  2  0  0  0  0  0  0  0  0  0
   26.5052  -21.1017  -10.8931 N   0  0  0  0  0  0  0  0  0  0  0  0
   26.1148  -19.5412  -12.5874 C   0  0  0  0  0  0  0  0  0  0  0  0
   27.0762  -18.8687  -12.0453 O   0  0  0  0  0  0  0  0  0  0  0  0
   18.4277  -21.1764  -11.3855 N   0  0  0  0  0  0  0  0  0  0  0  0
   25.8758  -19.1478  -13.9329 C   0  0  0  0  0  0  0  0  0  0  0  0
   26.6383  -18.1145  -14.5970 C   0  0  0  0  0  0  0  0  0  0  0  0
   27.5926  -18.6613  -15.5763 O   0  0  0  0  0  0  0  0  0  0  0  0
   28.1433  -17.8897  -16.5794 O   0  0  0  0  0  0  0  0  0  0  0  0
  2  1  1  0
  3  2  1  0
  4  3  1  0
  5  4  1  0
  5  6  1  6
  7  5  1  0
  7  8  2  0
 10  9  1  0
 11 10  2  0
 12 10  1  0
 13 14  1  0
 13 12  1  0
 14 15  1  0
 16 15  1  1
 16 17  1  0
 17  7  1  0
 18 16  1  0
 19 18  2  0
 20 18  1  0
 21 20  1  0
 22 21  1  0
 22 23  1  0
 24 22  2  0
M  END
$$$$
