MRG.pdb
     RDKit          3D

 24 23  0  0  1  0  0  0  0  0999 V2000
   27.8407  -16.7020  -14.9918 C   0  0  0  0  0  0  0  0  0  0  0  0
   26.7024  -15.7280  -15.9934 S   0  0  0  0  0  0  0  0  0  0  0  0
   25.2662  -16.6973  -16.5306 C   0  0  0  0  0  0  0  0  0  0  0  0
   24.6111  -17.3741  -15.3387 C   0  0  0  0  0  0  0  0  0  0  0  0
   23.5026  -18.2324  -15.8827 C   0  0  2  0  0  0  0  0  0  0  0  0
   22.3896  -17.3758  -16.2155 N   0  0  0  0  0  0  0  0  0  0  0  0
   23.1407  -19.2319  -14.8430 C   0  0  0  0  0  0  0  0  0  0  0  0
   22.1638  -19.0340  -14.0859 O   0  0  0  0  0  0  0  0  0  0  0  0
   18.6602  -23.4782  -11.8147 N   0  0  0  0  0  0  0  0  0  0  0  0
   18.6099  -24.0844  -13.1193 C   0  0  0  0  0  0  0  0  0  0  0  0
   17.6537  -24.9032  -13.3678 N   0  0  0  0  0  0  0  0  0  0  0  0
   19.5833  -23.7861  -14.0977 N   0  0  0  0  0  0  0  0  0  0  0  0
   20.9100  -23.3012  -13.6561 C   0  0  0  0  0  0  0  0  0  0  0  0
   21.7613  -23.0411  -14.8457 C   0  0  0  0  0  0  0  0  0  0  0  0
   23.1358  -22.5815  -14.6574 C   0  0  0  0  0  0  0  0  0  0  0  0
   23.5390  -21.4941  -13.7484 C   0  0  2  0  0  0  0  0  0  0  0  0
   23.9192  -20.3974  -14.7330 N   0  0  0  0  0  0  0  0  0  0  0  0
   24.7249  -21.6289  -12.9185 C   0  0  0  0  0  0  0  0  0  0  0  0
   25.8899  -21.3512  -13.4045 O   0  0  0  0  0  0  0  0  0  0  0  0
   17.5506  -25.4250  -14.2558 N   0  0  0  0  0  0  0  0  0  0  0  0
   24.7938  -22.0397  -11.5588 C   0  0  0  0  0  0  0  0  0  0  0  0
   25.9927  -21.9164  -10.7602 C   0  0  0  0  0  0  0  0  0  0  0  0
   25.9534  -20.7492   -9.8633 O   0  0  0  0  0  0  0  0  0  0  0  0
   26.8960  -20.5460   -8.8759 O   0  0  0  0  0  0  0  0  0  0  0  0
  2  1  1  0
  3  2  1  0
  4  3  1  0
  5  4  1  0
  5  6  1  1
  7  5  1  0
  7  8  2  0
 10  9  1  0
 11 10  2  0
 12 10  1  0
 13 14  1  0
 13 12  1  0
 14 15  1  0
 16 15  1  6
 16 17  1  0
 17  7  1  0
 18 16  1  0
 19 18  2  0
 20 18  1  0
 21 20  1  0
 22 21  1  0
 22 23  1  0
 24 22  2  0
M  END
$$$$
