MRG.pdb
     RDKit          3D

 24 23  0  0  1  0  0  0  0  0999 V2000
   20.3462  -17.3040  -13.1004 C   0  0  0  0  0  0  0  0  0  0  0  0
   19.5364  -18.7337  -13.8408 S   0  0  0  0  0  0  0  0  0  0  0  0
   20.6965  -19.7629  -14.7818 C   0  0  0  0  0  0  0  0  0  0  0  0
   22.0756  -19.1259  -14.7951 C   0  0  0  0  0  0  0  0  0  0  0  0
   22.9285  -19.9572  -15.7131 C   0  0  2  0  0  0  0  0  0  0  0  0
   22.5866  -21.3453  -15.5138 N   0  0  0  0  0  0  0  0  0  0  0  0
   24.3542  -19.6860  -15.3895 C   0  0  0  0  0  0  0  0  0  0  0  0
   24.8105  -18.5228  -15.4607 O   0  0  0  0  0  0  0  0  0  0  0  0
   25.6583  -20.0800   -8.4976 N   0  0  0  0  0  0  0  0  0  0  0  0
   24.4014  -20.5418   -9.0257 C   0  0  0  0  0  0  0  0  0  0  0  0
   23.3292  -20.2238   -8.3966 N   0  0  0  0  0  0  0  0  0  0  0  0
   24.3492  -21.3209  -10.2022 N   0  0  0  0  0  0  0  0  0  0  0  0
   25.6022  -21.5605  -10.9526 C   0  0  0  0  0  0  0  0  0  0  0  0
   25.4952  -20.9453  -12.3007 C   0  0  0  0  0  0  0  0  0  0  0  0
   26.6307  -21.0244  -13.2174 C   0  0  0  0  0  0  0  0  0  0  0  0
   26.6224  -20.5327  -14.6064 C   0  0  2  0  0  0  0  0  0  0  0  0
   25.1712  -20.7633  -15.0038 N   0  0  0  0  0  0  0  0  0  0  0  0
   27.3703  -21.2302  -15.6396 C   0  0  0  0  0  0  0  0  0  0  0  0
   28.1595  -22.2033  -15.3220 O   0  0  0  0  0  0  0  0  0  0  0  0
   22.3770  -20.5014   -8.6927 N   0  0  0  0  0  0  0  0  0  0  0  0
   27.3522  -20.9884  -17.0408 C   0  0  0  0  0  0  0  0  0  0  0  0
   28.5468  -20.7078  -17.8055 C   0  0  0  0  0  0  0  0  0  0  0  0
   28.2591  -20.4663  -19.2294 O   0  0  0  0  0  0  0  0  0  0  0  0
   29.2585  -20.2659  -20.1599 O   0  0  0  0  0  0  0  0  0  0  0  0
  2  1  1  0
  3  2  1  0
  4  3  1  0
  5  4  1  0
  5  6  1  1
  7  5  1  0
  7  8  2  0
 10  9  1  0
 11 10  2  0
 12 10  1  0
 13 14  1  0
 13 12  1  0
 14 15  1  0
 16 15  1  1
 16 17  1  0
 17  7  1  0
 18 16  1  0
 19 18  2  0
 20 18  1  0
 21 20  1  0
 22 21  1  0
 22 23  1  0
 24 22  2  0
M  END
$$$$
