MRG.pdb
     RDKit          3D

 24 23  0  0  1  0  0  0  0  0999 V2000
   16.4485  -16.4817  -15.1239 C   0  0  0  0  0  0  0  0  0  0  0  0
   16.1043  -17.2059  -16.7378 S   0  0  0  0  0  0  0  0  0  0  0  0
   17.5877  -17.2879  -17.7788 C   0  0  0  0  0  0  0  0  0  0  0  0
   18.8368  -17.3235  -16.9149 C   0  0  0  0  0  0  0  0  0  0  0  0
   20.0129  -17.2912  -17.8515 C   0  0  2  0  0  0  0  0  0  0  0  0
   19.9899  -18.4951  -18.6474 N   0  0  0  0  0  0  0  0  0  0  0  0
   21.2508  -17.1913  -17.0340 C   0  0  0  0  0  0  0  0  0  0  0  0
   21.4409  -16.2035  -16.2892 O   0  0  0  0  0  0  0  0  0  0  0  0
   25.3231  -22.3669  -13.3424 N   0  0  0  0  0  0  0  0  0  0  0  0
   24.8853  -21.6792  -12.1561 C   0  0  0  0  0  0  0  0  0  0  0  0
   24.7146  -22.3684  -11.0872 N   0  0  0  0  0  0  0  0  0  0  0  0
   24.6515  -20.2867  -12.1673 N   0  0  0  0  0  0  0  0  0  0  0  0
   23.6937  -19.7344  -13.1513 C   0  0  0  0  0  0  0  0  0  0  0  0
   24.1362  -20.0909  -14.5241 C   0  0  0  0  0  0  0  0  0  0  0  0
   23.3652  -19.6174  -15.6718 C   0  0  0  0  0  0  0  0  0  0  0  0
   23.4137  -18.2447  -16.2054 C   0  0  2  0  0  0  0  0  0  0  0  0
   22.1963  -18.2283  -17.1188 N   0  0  0  0  0  0  0  0  0  0  0  0
   24.4985  -17.8322  -17.0809 C   0  0  0  0  0  0  0  0  0  0  0  0
   24.6328  -18.3764  -18.2455 O   0  0  0  0  0  0  0  0  0  0  0  0
   24.5082  -21.9603  -10.1587 N   0  0  0  0  0  0  0  0  0  0  0  0
   25.4926  -16.8467  -16.8303 C   0  0  0  0  0  0  0  0  0  0  0  0
   26.8797  -17.0176  -17.2004 C   0  0  0  0  0  0  0  0  0  0  0  0
   27.0760  -17.0204  -18.6599 O   0  0  0  0  0  0  0  0  0  0  0  0
   27.7436  -16.0062  -19.3160 O   0  0  0  0  0  0  0  0  0  0  0  0
  2  1  1  0
  3  2  1  0
  4  3  1  0
  5  4  1  0
  5  6  1  1
  7  5  1  0
  7  8  2  0
 10  9  1  0
 11 10  2  0
 12 10  1  0
 13 14  1  0
 13 12  1  0
 14 15  1  0
 16 15  1  6
 16 17  1  0
 17  7  1  0
 18 16  1  0
 19 18  2  0
 20 18  1  0
 21 20  1  0
 22 21  1  0
 22 23  1  0
 24 22  2  0
M  END
$$$$
