MRG.pdb
     RDKit          3D

 24 23  0  0  1  0  0  0  0  0999 V2000
   21.4999  -26.6177  -12.1800 C   0  0  0  0  0  0  0  0  0  0  0  0
   19.9111  -26.3901  -12.9996 S   0  0  0  0  0  0  0  0  0  0  0  0
   19.9765  -25.0921  -14.2651 C   0  0  0  0  0  0  0  0  0  0  0  0
   20.4821  -23.7927  -13.6621 C   0  0  0  0  0  0  0  0  0  0  0  0
   21.4656  -23.2138  -14.6414 C   0  0  2  0  0  0  0  0  0  0  0  0
   22.6451  -24.0457  -14.6423 N   0  0  0  0  0  0  0  0  0  0  0  0
   21.7705  -21.8209  -14.2200 C   0  0  0  0  0  0  0  0  0  0  0  0
   22.0623  -21.5680  -13.0294 O   0  0  0  0  0  0  0  0  0  0  0  0
   27.4789  -20.7340  -15.5877 N   0  0  0  0  0  0  0  0  0  0  0  0
   26.6900  -21.7996  -16.1481 C   0  0  0  0  0  0  0  0  0  0  0  0
   27.1349  -22.9988  -16.0443 N   0  0  0  0  0  0  0  0  0  0  0  0
   25.4618  -21.5339  -16.7922 N   0  0  0  0  0  0  0  0  0  0  0  0
   25.0729  -20.1256  -17.0284 C   0  0  0  0  0  0  0  0  0  0  0  0
   24.4775  -19.5636  -15.7886 C   0  0  0  0  0  0  0  0  0  0  0  0
   23.1095  -19.0501  -15.8186 C   0  0  0  0  0  0  0  0  0  0  0  0
   22.0733  -19.3667  -14.8200 C   0  0  2  0  0  0  0  0  0  0  0  0
   21.7228  -20.8017  -15.1873 N   0  0  0  0  0  0  0  0  0  0  0  0
   20.7886  -18.6870  -14.8502 C   0  0  0  0  0  0  0  0  0  0  0  0
   19.9285  -18.9694  -15.7726 O   0  0  0  0  0  0  0  0  0  0  0  0
   26.6636  -23.8304  -16.4413 N   0  0  0  0  0  0  0  0  0  0  0  0
   20.3051  -17.6991  -13.9488 C   0  0  0  0  0  0  0  0  0  0  0  0
   19.0482  -17.0100  -14.1381 C   0  0  0  0  0  0  0  0  0  0  0  0
   17.8888  -17.9076  -14.0022 O   0  0  0  0  0  0  0  0  0  0  0  0
   17.6752  -18.6703  -12.8719 O   0  0  0  0  0  0  0  0  0  0  0  0
  2  1  1  0
  3  2  1  0
  4  3  1  0
  5  4  1  0
  5  6  1  1
  7  5  1  0
  7  8  2  0
 10  9  1  0
 11 10  2  0
 12 10  1  0
 13 14  1  0
 13 12  1  0
 14 15  1  0
 16 15  1  6
 16 17  1  0
 17  7  1  0
 18 16  1  0
 19 18  2  0
 20 18  1  0
 21 20  1  0
 22 21  1  0
 22 23  1  0
 24 22  2  0
M  END
$$$$
