MRG.pdb
     RDKit          3D

 24 23  0  0  1  0  0  0  0  0999 V2000
   25.5090    0.4509    3.7949 C   0  0  0  0  0  0  0  0  0  0  0  0
   26.1275    0.7553    2.1298 S   0  0  0  0  0  0  0  0  0  0  0  0
   25.0565    0.0254    0.8606 C   0  0  0  0  0  0  0  0  0  0  0  0
   25.5862    0.3485   -0.5260 C   0  0  0  0  0  0  0  0  0  0  0  0
   24.6968   -0.3642   -1.5070 C   0  0  2  0  0  0  0  0  0  0  0  0
   24.8334   -1.7849   -1.2914 N   0  0  0  0  0  0  0  0  0  0  0  0
   25.1137    0.0304   -2.8786 C   0  0  0  0  0  0  0  0  0  0  0  0
   25.9029   -0.6877   -3.5328 O   0  0  0  0  0  0  0  0  0  0  0  0
   19.7262    4.2142   -8.2606 N   0  0  0  0  0  0  0  0  0  0  0  0
   20.9861    4.3493   -8.9433 C   0  0  0  0  0  0  0  0  0  0  0  0
   20.9894    4.9055  -10.0997 N   0  0  0  0  0  0  0  0  0  0  0  0
   22.1841    3.8848   -8.3576 N   0  0  0  0  0  0  0  0  0  0  0  0
   22.1161    3.2002   -7.0472 C   0  0  0  0  0  0  0  0  0  0  0  0
   23.4800    2.7717   -6.6431 C   0  0  0  0  0  0  0  0  0  0  0  0
   23.6762    2.1366   -5.3415 C   0  0  0  0  0  0  0  0  0  0  0  0
   24.9723    1.6585   -4.8289 C   0  0  2  0  0  0  0  0  0  0  0  0
   24.6017    1.2235   -3.4182 N   0  0  0  0  0  0  0  0  0  0  0  0
   26.0698    2.5883   -4.6183 C   0  0  0  0  0  0  0  0  0  0  0  0
   26.0021    3.4656   -3.6716 O   0  0  0  0  0  0  0  0  0  0  0  0
   21.8419    5.0734  -10.6621 N   0  0  0  0  0  0  0  0  0  0  0  0
   27.2903    2.6730   -5.3432 C   0  0  0  0  0  0  0  0  0  0  0  0
   28.2818    3.6959   -5.0964 C   0  0  0  0  0  0  0  0  0  0  0  0
   27.9724    4.9578   -5.7895 O   0  0  0  0  0  0  0  0  0  0  0  0
   26.7717    5.1683   -6.4367 O   0  0  0  0  0  0  0  0  0  0  0  0
  2  1  1  0
  3  2  1  0
  4  3  1  0
  5  4  1  0
  5  6  1  6
  7  5  1  0
  7  8  2  0
 10  9  1  0
 11 10  2  0
 12 10  1  0
 13 14  1  0
 13 12  1  0
 14 15  1  0
 16 15  1  1
 16 17  1  0
 17  7  1  0
 18 16  1  0
 19 18  2  0
 20 18  1  0
 21 20  1  0
 22 21  1  0
 22 23  1  0
 24 22  2  0
M  END
$$$$
