MRG.pdb
     RDKit          3D

 24 23  0  0  1  0  0  0  0  0999 V2000
   23.1126   -7.6051  -14.1243 C   0  0  0  0  0  0  0  0  0  0  0  0
   23.3010   -9.3863  -14.3231 S   0  0  0  0  0  0  0  0  0  0  0  0
   21.7550  -10.2764  -13.9941 C   0  0  0  0  0  0  0  0  0  0  0  0
   20.6381   -9.2955  -13.6810 C   0  0  0  0  0  0  0  0  0  0  0  0
   19.4130  -10.1144  -13.3813 C   0  0  2  0  0  0  0  0  0  0  0  0
   19.0695  -10.8640  -14.5660 N   0  0  0  0  0  0  0  0  0  0  0  0
   18.3243   -9.1852  -12.9787 C   0  0  0  0  0  0  0  0  0  0  0  0
   17.5938   -8.6516  -13.8437 O   0  0  0  0  0  0  0  0  0  0  0  0
   11.6147   -9.2396   -8.1214 N   0  0  0  0  0  0  0  0  0  0  0  0
   12.1332   -7.9303   -7.8231 C   0  0  0  0  0  0  0  0  0  0  0  0
   11.3104   -7.0337   -7.4161 N   0  0  0  0  0  0  0  0  0  0  0  0
   13.5072   -7.6409   -7.9726 N   0  0  0  0  0  0  0  0  0  0  0  0
   14.2801   -8.3724   -9.0012 C   0  0  0  0  0  0  0  0  0  0  0  0
   15.7121   -7.9873   -8.9089 C   0  0  0  0  0  0  0  0  0  0  0  0
   16.6729   -8.5683   -9.8444 C   0  0  0  0  0  0  0  0  0  0  0  0
   17.0394   -7.9782  -11.1439 C   0  0  2  0  0  0  0  0  0  0  0  0
   18.1378   -8.9232  -11.6101 N   0  0  0  0  0  0  0  0  0  0  0  0
   17.6700   -6.6699  -11.2075 C   0  0  0  0  0  0  0  0  0  0  0  0
   18.8609   -6.5017  -10.7342 O   0  0  0  0  0  0  0  0  0  0  0  0
   11.5816   -6.0676   -7.1622 N   0  0  0  0  0  0  0  0  0  0  0  0
   17.1367   -5.4724  -11.7586 C   0  0  0  0  0  0  0  0  0  0  0  0
   17.8117   -4.1970  -11.6688 C   0  0  0  0  0  0  0  0  0  0  0  0
   17.0298   -3.1033  -12.2697 O   0  0  0  0  0  0  0  0  0  0  0  0
   17.3907   -1.7781  -12.1343 O   0  0  0  0  0  0  0  0  0  0  0  0
  2  1  1  0
  3  2  1  0
  4  3  1  0
  5  4  1  0
  5  6  1  6
  7  5  1  0
  7  8  2  0
 10  9  1  0
 11 10  2  0
 12 10  1  0
 13 14  1  0
 13 12  1  0
 14 15  1  0
 16 15  1  1
 16 17  1  0
 17  7  1  0
 18 16  1  0
 19 18  2  0
 20 18  1  0
 21 20  1  0
 22 21  1  0
 22 23  1  0
 24 22  2  0
M  END
$$$$
