MRG.pdb
     RDKit          3D

 24 23  0  0  1  0  0  0  0  0999 V2000
   25.5846  -17.6424  -18.9586 C   0  0  0  0  0  0  0  0  0  0  0  0
   25.4671  -18.5068  -17.3816 S   0  0  0  0  0  0  0  0  0  0  0  0
   24.7751  -20.1733  -17.5674 C   0  0  0  0  0  0  0  0  0  0  0  0
   24.8335  -20.9191  -16.2453 C   0  0  0  0  0  0  0  0  0  0  0  0
   26.2703  -21.3067  -16.0291 C   0  0  2  0  0  0  0  0  0  0  0  0
   26.5827  -22.3986  -16.9199 N   0  0  0  0  0  0  0  0  0  0  0  0
   26.4345  -21.6916  -14.6023 C   0  0  0  0  0  0  0  0  0  0  0  0
   26.0548  -22.8145  -14.2006 O   0  0  0  0  0  0  0  0  0  0  0  0
   31.7074  -23.0309   -8.6199 N   0  0  0  0  0  0  0  0  0  0  0  0
   31.8015  -22.7157  -10.0213 C   0  0  0  0  0  0  0  0  0  0  0  0
   32.6829  -23.3326  -10.7208 N   0  0  0  0  0  0  0  0  0  0  0  0
   30.9483  -21.7568  -10.6098 N   0  0  0  0  0  0  0  0  0  0  0  0
   29.7483  -21.3187   -9.8624 C   0  0  0  0  0  0  0  0  0  0  0  0
   29.0452  -20.2616  -10.6341 C   0  0  0  0  0  0  0  0  0  0  0  0
   28.5307  -20.5687  -11.9671 C   0  0  0  0  0  0  0  0  0  0  0  0
   27.1833  -21.0969  -12.2443 C   0  0  2  0  0  0  0  0  0  0  0  0
   27.0235  -20.7673  -13.7217 N   0  0  0  0  0  0  0  0  0  0  0  0
   26.0130  -20.4878  -11.6339 C   0  0  0  0  0  0  0  0  0  0  0  0
   25.9279  -19.2016  -11.5391 O   0  0  0  0  0  0  0  0  0  0  0  0
   32.8249  -23.1887  -11.7359 N   0  0  0  0  0  0  0  0  0  0  0  0
   24.8696  -21.1428  -11.0993 C   0  0  0  0  0  0  0  0  0  0  0  0
   23.7887  -20.4340  -10.4516 C   0  0  0  0  0  0  0  0  0  0  0  0
   22.4848  -20.6983  -11.0829 O   0  0  0  0  0  0  0  0  0  0  0  0
   21.3031  -20.2034  -10.5695 O   0  0  0  0  0  0  0  0  0  0  0  0
  2  1  1  0
  3  2  1  0
  4  3  1  0
  5  4  1  0
  5  6  1  6
  7  5  1  0
  7  8  2  0
 10  9  1  0
 11 10  2  0
 12 10  1  0
 13 14  1  0
 13 12  1  0
 14 15  1  0
 16 15  1  1
 16 17  1  0
 17  7  1  0
 18 16  1  0
 19 18  2  0
 20 18  1  0
 21 20  1  0
 22 21  1  0
 22 23  1  0
 24 22  2  0
M  END
$$$$
