MRG.pdb
     RDKit          3D

 24 23  0  0  1  0  0  0  0  0999 V2000
   26.6511  -18.3766   -6.9691 C   0  0  0  0  0  0  0  0  0  0  0  0
   26.9464  -20.1506   -6.8531 S   0  0  0  0  0  0  0  0  0  0  0  0
   27.3350  -20.8840   -8.4661 C   0  0  0  0  0  0  0  0  0  0  0  0
   26.1662  -20.7087   -9.4205 C   0  0  0  0  0  0  0  0  0  0  0  0
   26.5916  -21.2931  -10.7392 C   0  0  2  0  0  0  0  0  0  0  0  0
   27.9107  -20.7959  -11.0493 N   0  0  0  0  0  0  0  0  0  0  0  0
   25.5930  -20.8917  -11.7651 C   0  0  0  0  0  0  0  0  0  0  0  0
   25.6893  -19.7871  -12.3458 O   0  0  0  0  0  0  0  0  0  0  0  0
   26.5955  -25.8027  -15.8113 N   0  0  0  0  0  0  0  0  0  0  0  0
   26.2952  -24.8967  -16.8887 C   0  0  0  0  0  0  0  0  0  0  0  0
   26.3877  -25.3365  -18.0907 N   0  0  0  0  0  0  0  0  0  0  0  0
   25.9088  -23.5632  -16.6312 N   0  0  0  0  0  0  0  0  0  0  0  0
   25.5511  -23.1813  -15.2467 C   0  0  0  0  0  0  0  0  0  0  0  0
   24.0841  -23.3231  -15.0592 C   0  0  0  0  0  0  0  0  0  0  0  0
   23.4738  -22.8722  -13.8101 C   0  0  0  0  0  0  0  0  0  0  0  0
   23.6211  -21.5191  -13.2458 C   0  0  2  0  0  0  0  0  0  0  0  0
   24.5445  -21.7793  -12.0641 N   0  0  0  0  0  0  0  0  0  0  0  0
   22.4834  -20.8440  -12.6431 C   0  0  0  0  0  0  0  0  0  0  0  0
   22.4467  -20.6529  -11.3654 O   0  0  0  0  0  0  0  0  0  0  0  0
   26.1331  -24.7894  -18.9315 N   0  0  0  0  0  0  0  0  0  0  0  0
   21.3345  -20.3212  -13.2979 C   0  0  0  0  0  0  0  0  0  0  0  0
   20.3096  -19.5706  -12.6075 C   0  0  0  0  0  0  0  0  0  0  0  0
   19.9002  -18.3653  -13.3479 O   0  0  0  0  0  0  0  0  0  0  0  0
   18.8250  -17.5916  -12.9603 O   0  0  0  0  0  0  0  0  0  0  0  0
  2  1  1  0
  3  2  1  0
  4  3  1  0
  5  4  1  0
  5  6  1  6
  7  5  1  0
  7  8  2  0
 10  9  1  0
 11 10  2  0
 12 10  1  0
 13 14  1  0
 13 12  1  0
 14 15  1  0
 16 15  1  1
 16 17  1  0
 17  7  1  0
 18 16  1  0
 19 18  2  0
 20 18  1  0
 21 20  1  0
 22 21  1  0
 22 23  1  0
 24 22  2  0
M  END
$$$$
