MRG.pdb
     RDKit          3D

 24 23  0  0  1  0  0  0  0  0999 V2000
   29.5395  -22.0258   -7.9204 C   0  0  0  0  0  0  0  0  0  0  0  0
   30.8335  -22.0351   -9.1746 S   0  0  0  0  0  0  0  0  0  0  0  0
   30.1560  -21.9290  -10.8540 C   0  0  0  0  0  0  0  0  0  0  0  0
   28.8571  -21.1413  -10.8499 C   0  0  0  0  0  0  0  0  0  0  0  0
   28.3282  -21.1696  -12.2573 C   0  0  2  0  0  0  0  0  0  0  0  0
   29.3275  -20.5968  -13.1272 N   0  0  0  0  0  0  0  0  0  0  0  0
   27.0582  -20.3969  -12.2884 C   0  0  0  0  0  0  0  0  0  0  0  0
   27.0752  -19.1466  -12.2354 O   0  0  0  0  0  0  0  0  0  0  0  0
   23.5887  -19.2303  -17.7052 N   0  0  0  0  0  0  0  0  0  0  0  0
   23.1155  -17.9367  -17.2873 C   0  0  0  0  0  0  0  0  0  0  0  0
   22.2198  -17.3613  -18.0037 N   0  0  0  0  0  0  0  0  0  0  0  0
   23.6210  -17.3189  -16.1225 N   0  0  0  0  0  0  0  0  0  0  0  0
   24.4699  -18.1140  -15.2072 C   0  0  0  0  0  0  0  0  0  0  0  0
   23.9155  -19.4873  -15.0883 C   0  0  0  0  0  0  0  0  0  0  0  0
   24.5685  -20.4503  -14.2039 C   0  0  0  0  0  0  0  0  0  0  0  0
   24.5528  -20.3814  -12.7321 C   0  0  2  0  0  0  0  0  0  0  0  0
   25.8456  -21.1027  -12.3783 N   0  0  0  0  0  0  0  0  0  0  0  0
   23.5450  -21.1019  -11.9713 C   0  0  0  0  0  0  0  0  0  0  0  0
   23.3629  -22.3655  -12.1725 O   0  0  0  0  0  0  0  0  0  0  0  0
   21.8000  -16.4416  -17.7820 N   0  0  0  0  0  0  0  0  0  0  0  0
   22.6804  -20.5876  -10.9663 C   0  0  0  0  0  0  0  0  0  0  0  0
   21.2552  -20.4366  -11.1573 C   0  0  0  0  0  0  0  0  0  0  0  0
   20.6435  -21.6203  -11.7844 O   0  0  0  0  0  0  0  0  0  0  0  0
   19.3969  -22.0867  -11.4193 O   0  0  0  0  0  0  0  0  0  0  0  0
  2  1  1  0
  3  2  1  0
  4  3  1  0
  5  4  1  0
  5  6  1  6
  7  5  1  0
  7  8  2  0
 10  9  1  0
 11 10  2  0
 12 10  1  0
 13 14  1  0
 13 12  1  0
 14 15  1  0
 16 15  1  6
 16 17  1  0
 17  7  1  0
 18 16  1  0
 19 18  2  0
 20 18  1  0
 21 20  1  0
 22 21  1  0
 22 23  1  0
 24 22  2  0
M  END
$$$$
