MRG.pdb
     RDKit          3D

 24 23  0  0  1  0  0  0  0  0999 V2000
   29.3012  -20.9618   -3.5235 C   0  0  0  0  0  0  0  0  0  0  0  0
   29.0017  -19.1980   -3.7403 S   0  0  0  0  0  0  0  0  0  0  0  0
   28.6836  -18.7685   -5.4738 C   0  0  0  0  0  0  0  0  0  0  0  0
   27.9813  -19.9150   -6.1809 C   0  0  0  0  0  0  0  0  0  0  0  0
   27.7620  -19.4782   -7.6030 C   0  0  2  0  0  0  0  0  0  0  0  0
   27.0072  -18.2480   -7.5866 N   0  0  0  0  0  0  0  0  0  0  0  0
   27.0353  -20.5644   -8.3122 C   0  0  0  0  0  0  0  0  0  0  0  0
   27.4860  -21.7321   -8.3153 O   0  0  0  0  0  0  0  0  0  0  0  0
   19.2753  -22.8607   -8.0613 N   0  0  0  0  0  0  0  0  0  0  0  0
   19.9200  -22.5953   -9.3206 C   0  0  0  0  0  0  0  0  0  0  0  0
   19.2095  -22.6572  -10.3873 N   0  0  0  0  0  0  0  0  0  0  0  0
   21.2939  -22.2748   -9.3809 N   0  0  0  0  0  0  0  0  0  0  0  0
   22.0470  -22.1322   -8.1148 C   0  0  0  0  0  0  0  0  0  0  0  0
   23.1881  -21.2035   -8.3214 C   0  0  0  0  0  0  0  0  0  0  0  0
   23.7759  -21.0745   -9.6533 C   0  0  0  0  0  0  0  0  0  0  0  0
   25.2098  -21.2294   -9.9553 C   0  0  2  0  0  0  0  0  0  0  0  0
   25.8365  -20.2480   -8.9751 N   0  0  0  0  0  0  0  0  0  0  0  0
   25.7418  -20.8087  -11.2411 C   0  0  0  0  0  0  0  0  0  0  0  0
   25.7113  -19.5610  -11.5772 O   0  0  0  0  0  0  0  0  0  0  0  0
   18.1970  -22.8717  -10.4002 N   0  0  0  0  0  0  0  0  0  0  0  0
   26.3378  -21.6212  -12.2445 C   0  0  0  0  0  0  0  0  0  0  0  0
   26.9694  -21.0756  -13.4252 C   0  0  0  0  0  0  0  0  0  0  0  0
   26.0266  -20.9184  -14.5454 O   0  0  0  0  0  0  0  0  0  0  0  0
   26.4203  -20.4409  -15.7790 O   0  0  0  0  0  0  0  0  0  0  0  0
  2  1  1  0
  3  2  1  0
  4  3  1  0
  5  4  1  0
  5  6  1  1
  7  5  1  0
  7  8  2  0
 10  9  1  0
 11 10  2  0
 12 10  1  0
 13 14  1  0
 13 12  1  0
 14 15  1  0
 16 15  1  6
 16 17  1  0
 17  7  1  0
 18 16  1  0
 19 18  2  0
 20 18  1  0
 21 20  1  0
 22 21  1  0
 22 23  1  0
 24 22  2  0
M  END
$$$$
