PTV.pdb
     RDKit          3D

 22 22  0  0  1  0  0  0  0  0999 V2000
   27.5923  -19.6198  -15.4614 N   0  0  0  0  0  0  0  0  0  0  0  0
   28.7375  -19.3147  -16.3109 C   0  0  0  0  0  0  0  0  0  0  0  0
   29.7100  -20.4658  -16.1181 C   0  0  0  0  0  0  0  0  0  0  0  0
   28.9444  -21.4667  -15.2745 C   0  0  0  0  0  0  0  0  0  0  0  0
   27.5025  -21.0515  -15.5976 C   0  0  1  0  0  0  0  0  0  0  0  0
   26.5864  -21.6637  -14.6097 C   0  0  0  0  0  0  0  0  0  0  0  0
   26.4187  -22.9104  -14.5518 O   0  0  0  0  0  0  0  0  0  0  0  0
   26.0466  -19.7969  -11.0505 C   0  0  0  0  0  0  0  0  0  0  0  0
   25.6340  -21.2145  -11.3250 C   0  0  1  0  0  0  0  0  0  0  0  0
   24.7929  -21.6923  -10.3456 O   0  0  0  0  0  0  0  0  0  0  0  0
   25.0142  -21.2910  -12.7033 C   0  0  2  0  0  0  0  0  0  0  0  0
   25.8994  -20.7887  -13.7243 N   0  0  0  0  0  0  0  0  0  0  0  0
   23.7456  -20.5234  -12.7175 C   0  0  0  0  0  0  0  0  0  0  0  0
   23.7114  -19.2986  -12.4455 O   0  0  0  0  0  0  0  0  0  0  0  0
   20.3553  -21.9312  -14.8598 C   0  0  0  0  0  0  0  0  0  0  0  0
   20.7580  -20.4988  -14.5972 C   0  0  2  0  0  0  0  0  0  0  0  0
   21.7811  -20.0981  -15.6200 C   0  0  0  0  0  0  0  0  0  0  0  0
   21.3070  -20.4332  -13.1789 C   0  0  2  0  0  0  0  0  0  0  0  0
   22.5275  -21.1699  -13.0440 N   0  0  0  0  0  0  0  0  0  0  0  0
   20.2706  -20.8583  -12.2236 C   0  0  0  0  0  0  0  0  0  0  0  0
   20.3869  -21.9043  -11.5492 O   0  0  0  0  0  0  0  0  0  0  0  0
   19.1361  -20.0876  -12.0614 O   0  0  0  0  0  0  0  0  0  0  0  0
  1  5  1  0
  2  1  1  0
  3  4  1  0
  3  2  1  0
  4  5  1  0
  5  6  1  1
  6  7  2  0
  9  8  1  1
  9 11  1  0
 10  9  1  0
 11 13  1  0
 12  6  1  0
 11 12  1  6
 13 14  2  0
 13 19  1  0
 16 18  1  0
 16 15  1  6
 17 16  1  0
 18 20  1  0
 18 19  1  6
 20 22  1  0
 21 20  2  0
M  END
$$$$
