PTV.pdb
     RDKit          3D

 22 22  0  0  1  0  0  0  0  0999 V2000
   27.3456  -20.9076  -18.6829 N   0  0  0  0  0  0  0  0  0  0  0  0
   27.7706  -21.1108  -20.0629 C   0  0  0  0  0  0  0  0  0  0  0  0
   29.0639  -20.3281  -20.2136 C   0  0  0  0  0  0  0  0  0  0  0  0
   29.3855  -19.8601  -18.8075 C   0  0  0  0  0  0  0  0  0  0  0  0
   28.6080  -20.8991  -17.9881 C   0  0  1  0  0  0  0  0  0  0  0  0
   28.4886  -20.4272  -16.5906 C   0  0  0  0  0  0  0  0  0  0  0  0
   29.5045  -20.2330  -15.8723 O   0  0  0  0  0  0  0  0  0  0  0  0
   27.4162  -17.3322  -15.4352 C   0  0  0  0  0  0  0  0  0  0  0  0
   26.3960  -18.2495  -14.8246 C   0  0  1  0  0  0  0  0  0  0  0  0
   25.1992  -18.1934  -15.5026 O   0  0  0  0  0  0  0  0  0  0  0  0
   26.9614  -19.6520  -14.7706 C   0  0  2  0  0  0  0  0  0  0  0  0
   27.1787  -20.1998  -16.0864 N   0  0  0  0  0  0  0  0  0  0  0  0
   26.0382  -20.5276  -14.0092 C   0  0  0  0  0  0  0  0  0  0  0  0
   25.2990  -21.3649  -14.5815 O   0  0  0  0  0  0  0  0  0  0  0  0
   25.2771  -19.9401   -9.7755 C   0  0  0  0  0  0  0  0  0  0  0  0
   25.4539  -21.3166  -10.3729 C   0  0  2  0  0  0  0  0  0  0  0  0
   26.8866  -21.7295  -10.1985 C   0  0  0  0  0  0  0  0  0  0  0  0
   25.0552  -21.2306  -11.8396 C   0  0  2  0  0  0  0  0  0  0  0  0
   25.9725  -20.4332  -12.5966 N   0  0  0  0  0  0  0  0  0  0  0  0
   23.6627  -20.7658  -11.9505 C   0  0  0  0  0  0  0  0  0  0  0  0
   22.7068  -21.4412  -11.5117 O   0  0  0  0  0  0  0  0  0  0  0  0
   23.3953  -19.5526  -12.5538 O   0  0  0  0  0  0  0  0  0  0  0  0
  1  5  1  0
  2  1  1  0
  3  4  1  0
  3  2  1  0
  4  5  1  0
  5  6  1  1
  6  7  2  0
  9  8  1  6
  9 11  1  0
 10  9  1  0
 11 13  1  0
 12  6  1  0
 11 12  1  6
 13 14  2  0
 13 19  1  0
 16 18  1  0
 16 15  1  6
 17 16  1  0
 18 20  1  0
 18 19  1  6
 20 22  1  0
 21 20  2  0
M  END
$$$$
