PTV.pdb
     RDKit          3D

 22 22  0  0  1  0  0  0  0  0999 V2000
   16.5994  -10.9926  -16.8497 N   0  0  0  0  0  0  0  0  0  0  0  0
   15.5872  -12.0184  -17.0720 C   0  0  0  0  0  0  0  0  0  0  0  0
   16.3220  -13.3454  -16.9867 C   0  0  0  0  0  0  0  0  0  0  0  0
   17.7197  -12.9720  -16.5324 C   0  0  0  0  0  0  0  0  0  0  0  0
   17.4380  -11.6210  -15.8607 C   0  0  1  0  0  0  0  0  0  0  0  0
   18.7158  -10.9036  -15.6550 C   0  0  0  0  0  0  0  0  0  0  0  0
   19.6222  -11.3717  -14.9166 O   0  0  0  0  0  0  0  0  0  0  0  0
   19.5678   -7.8643  -18.4076 C   0  0  0  0  0  0  0  0  0  0  0  0
   20.6441   -8.5879  -17.6505 C   0  0  1  0  0  0  0  0  0  0  0  0
   21.8075   -7.8534  -17.6047 O   0  0  0  0  0  0  0  0  0  0  0  0
   20.1293   -8.9369  -16.2711 C   0  0  2  0  0  0  0  0  0  0  0  0
   18.8836   -9.6605  -16.3246 N   0  0  0  0  0  0  0  0  0  0  0  0
   19.9540   -7.6946  -15.4807 C   0  0  0  0  0  0  0  0  0  0  0  0
   18.9581   -6.9470  -15.6369 O   0  0  0  0  0  0  0  0  0  0  0  0
   22.1564   -7.0580  -11.9107 C   0  0  0  0  0  0  0  0  0  0  0  0
   20.7861   -6.4994  -12.2159 C   0  0  2  0  0  0  0  0  0  0  0  0
   19.7600   -7.5314  -11.8481 C   0  0  0  0  0  0  0  0  0  0  0  0
   20.7533   -6.1596  -13.6995 C   0  0  2  0  0  0  0  0  0  0  0  0
   20.9248   -7.3223  -14.5176 N   0  0  0  0  0  0  0  0  0  0  0  0
   21.7361   -5.1027  -13.9900 C   0  0  0  0  0  0  0  0  0  0  0  0
   22.7379   -5.3149  -14.7069 O   0  0  0  0  0  0  0  0  0  0  0  0
   21.5551   -3.8398  -13.4610 O   0  0  0  0  0  0  0  0  0  0  0  0
  1  5  1  0
  2  1  1  0
  3  4  1  0
  3  2  1  0
  4  5  1  0
  5  6  1  6
  6  7  2  0
  9  8  1  1
  9 11  1  0
 10  9  1  0
 11 13  1  0
 12  6  1  0
 11 12  1  6
 13 14  2  0
 13 19  1  0
 16 18  1  0
 16 15  1  6
 17 16  1  0
 18 20  1  0
 18 19  1  6
 20 22  1  0
 21 20  2  0
M  END
$$$$
