PTV.pdb
     RDKit          3D

 22 22  0  0  1  0  0  0  0  0999 V2000
   24.8273  -20.1339   -9.0505 N   0  0  0  0  0  0  0  0  0  0  0  0
   25.3008  -20.1466   -7.6715 C   0  0  0  0  0  0  0  0  0  0  0  0
   26.5993  -20.9351   -7.6905 C   0  0  0  0  0  0  0  0  0  0  0  0
   26.8711  -21.1750   -9.1630 C   0  0  0  0  0  0  0  0  0  0  0  0
   26.0642  -20.0254   -9.7817 C   0  0  1  0  0  0  0  0  0  0  0  0
   25.8956  -20.2734  -11.2308 C   0  0  0  0  0  0  0  0  0  0  0  0
   26.8846  -20.3312  -12.0082 O   0  0  0  0  0  0  0  0  0  0  0  0
   24.8709  -23.0940  -12.9963 C   0  0  0  0  0  0  0  0  0  0  0  0
   23.7866  -22.1113  -13.3336 C   0  0  1  0  0  0  0  0  0  0  0  0
   22.6369  -22.3664  -12.6207 O   0  0  0  0  0  0  0  0  0  0  0  0
   24.3039  -20.7073  -13.1079 C   0  0  2  0  0  0  0  0  0  0  0  0
   24.5700  -20.4450  -11.7155 N   0  0  0  0  0  0  0  0  0  0  0  0
   23.3160  -19.7285  -13.6227 C   0  0  0  0  0  0  0  0  0  0  0  0
   22.5434  -19.1040  -12.8559 O   0  0  0  0  0  0  0  0  0  0  0  0
   21.4820  -17.1861  -17.3972 C   0  0  0  0  0  0  0  0  0  0  0  0
   22.5550  -18.1586  -16.9661 C   0  0  2  0  0  0  0  0  0  0  0  0
   22.5683  -19.3090  -17.9304 C   0  0  0  0  0  0  0  0  0  0  0  0
   22.2243  -18.6015  -15.5477 C   0  0  2  0  0  0  0  0  0  0  0  0
   23.2248  -19.4761  -15.0143 N   0  0  0  0  0  0  0  0  0  0  0  0
   20.8728  -19.1841  -15.5104 C   0  0  0  0  0  0  0  0  0  0  0  0
   20.6794  -20.4081  -15.6741 O   0  0  0  0  0  0  0  0  0  0  0  0
   19.7833  -18.3646  -15.2892 O   0  0  0  0  0  0  0  0  0  0  0  0
  1  5  1  0
  2  1  1  0
  3  4  1  0
  3  2  1  0
  4  5  1  0
  5  6  1  6
  6  7  2  0
  9  8  1  1
  9 11  1  0
 10  9  1  0
 11 13  1  0
 12  6  1  0
 11 12  1  1
 13 14  2  0
 13 19  1  0
 16 18  1  0
 16 15  1  6
 17 16  1  0
 18 20  1  0
 18 19  1  6
 20 22  1  0
 21 20  2  0
M  END
$$$$
