PTV.pdb
     RDKit          3D

 22 22  0  0  1  0  0  0  0  0999 V2000
   23.8755  -18.5317  -16.6474 N   0  0  0  0  0  0  0  0  0  0  0  0
   23.2393  -18.0817  -17.8799 C   0  0  0  0  0  0  0  0  0  0  0  0
   22.9808  -19.3398  -18.6914 C   0  0  0  0  0  0  0  0  0  0  0  0
   23.3439  -20.4735  -17.7522 C   0  0  0  0  0  0  0  0  0  0  0  0
   23.1823  -19.7701  -16.3977 C   0  0  1  0  0  0  0  0  0  0  0  0
   23.8287  -20.5852  -15.3453 C   0  0  0  0  0  0  0  0  0  0  0  0
   23.3904  -21.7234  -15.0321 O   0  0  0  0  0  0  0  0  0  0  0  0
   27.8053  -19.5595  -14.0322 C   0  0  0  0  0  0  0  0  0  0  0  0
   27.1602  -20.9155  -14.0457 C   0  0  1  0  0  0  0  0  0  0  0  0
   27.8144  -21.7923  -13.2100 O   0  0  0  0  0  0  0  0  0  0  0  0
   25.6956  -20.7700  -13.6943 C   0  0  2  0  0  0  0  0  0  0  0  0
   24.9680  -20.0337  -14.6977 N   0  0  0  0  0  0  0  0  0  0  0  0
   25.5679  -20.0904  -12.3825 C   0  0  0  0  0  0  0  0  0  0  0  0
   25.4403  -18.8451  -12.2932 O   0  0  0  0  0  0  0  0  0  0  0  0
   23.6140  -20.1468   -8.2714 C   0  0  0  0  0  0  0  0  0  0  0  0
   24.5914  -21.0707   -8.9597 C   0  0  2  0  0  0  0  0  0  0  0  0
   25.4282  -21.7435   -7.9106 C   0  0  0  0  0  0  0  0  0  0  0  0
   25.4294  -20.2228   -9.9065 C   0  0  2  0  0  0  0  0  0  0  0  0
   25.5878  -20.8480  -11.1850 N   0  0  0  0  0  0  0  0  0  0  0  0
   26.7128  -19.8854   -9.2689 C   0  0  0  0  0  0  0  0  0  0  0  0
   27.7787  -20.4499   -9.5968 O   0  0  0  0  0  0  0  0  0  0  0  0
   26.7501  -18.9208   -8.2812 O   0  0  0  0  0  0  0  0  0  0  0  0
  1  5  1  0
  2  1  1  0
  3  4  1  0
  3  2  1  0
  4  5  1  0
  5  6  1  1
  6  7  2  0
  9  8  1  1
  9 11  1  0
 10  9  1  0
 11 13  1  0
 12  6  1  0
 11 12  1  6
 13 14  2  0
 13 19  1  0
 16 18  1  0
 16 15  1  1
 17 16  1  0
 18 20  1  0
 18 19  1  6
 20 22  1  0
 21 20  2  0
M  END
$$$$
