PTV.pdb
     RDKit          3D

 22 22  0  0  1  0  0  0  0  0999 V2000
   17.1369  -14.2757  -16.4585 N   0  0  0  0  0  0  0  0  0  0  0  0
   16.4947  -15.5771  -16.6005 C   0  0  0  0  0  0  0  0  0  0  0  0
   16.8504  -16.0603  -17.9963 C   0  0  0  0  0  0  0  0  0  0  0  0
   17.8505  -15.0394  -18.5034 C   0  0  0  0  0  0  0  0  0  0  0  0
   18.3718  -14.4814  -17.1720 C   0  0  1  0  0  0  0  0  0  0  0  0
   19.1028  -13.2199  -17.4254 C   0  0  0  0  0  0  0  0  0  0  0  0
   20.2245  -13.2127  -17.9978 O   0  0  0  0  0  0  0  0  0  0  0  0
   17.9332  -10.0855  -19.2938 C   0  0  0  0  0  0  0  0  0  0  0  0
   18.1380   -9.7387  -17.8471 C   0  0  1  0  0  0  0  0  0  0  0  0
   16.9416   -9.6855  -17.1682 O   0  0  0  0  0  0  0  0  0  0  0  0
   19.1042  -10.7283  -17.2333 C   0  0  2  0  0  0  0  0  0  0  0  0
   18.4896  -12.0108  -16.9971 N   0  0  0  0  0  0  0  0  0  0  0  0
   19.6282  -10.1809  -15.9586 C   0  0  0  0  0  0  0  0  0  0  0  0
   18.9922  -10.2893  -14.8821 O   0  0  0  0  0  0  0  0  0  0  0  0
   23.6519   -9.1132  -15.5409 C   0  0  0  0  0  0  0  0  0  0  0  0
   22.7449   -9.3519  -14.3563 C   0  0  2  0  0  0  0  0  0  0  0  0
   22.7672  -10.8168  -14.0289 C   0  0  0  0  0  0  0  0  0  0  0  0
   21.3536   -8.8710  -14.7443 C   0  0  2  0  0  0  0  0  0  0  0  0
   20.8783   -9.5139  -15.9323 N   0  0  0  0  0  0  0  0  0  0  0  0
   21.3441   -7.4021  -14.8428 C   0  0  0  0  0  0  0  0  0  0  0  0
   21.2376   -6.8172  -15.9424 O   0  0  0  0  0  0  0  0  0  0  0  0
   21.4553   -6.6415  -13.6954 O   0  0  0  0  0  0  0  0  0  0  0  0
  1  5  1  0
  2  1  1  0
  3  4  1  0
  3  2  1  0
  4  5  1  0
  5  6  1  6
  6  7  2  0
  9  8  1  6
  9 11  1  0
 10  9  1  0
 11 13  1  0
 12  6  1  0
 11 12  1  1
 13 14  2  0
 13 19  1  0
 16 18  1  0
 16 15  1  6
 17 16  1  0
 18 20  1  0
 18 19  1  6
 20 22  1  0
 21 20  2  0
M  END
$$$$
