PTV.pdb
     RDKit          3D

 22 22  0  0  1  0  0  0  0  0999 V2000
   20.1329  -12.2150  -16.1831 N   0  0  0  0  0  0  0  0  0  0  0  0
   20.1167  -13.6130  -16.5971 C   0  0  0  0  0  0  0  0  0  0  0  0
   18.9639  -13.7371  -17.5790 C   0  0  0  0  0  0  0  0  0  0  0  0
   18.4987  -12.3099  -17.7938 C   0  0  0  0  0  0  0  0  0  0  0  0
   19.7719  -11.5451  -17.4068 C   0  0  1  0  0  0  0  0  0  0  0  0
   19.4393  -10.1180  -17.2010 C   0  0  0  0  0  0  0  0  0  0  0  0
   19.0113   -9.3994  -18.1424 O   0  0  0  0  0  0  0  0  0  0  0  0
   16.8588   -8.7234  -15.0704 C   0  0  0  0  0  0  0  0  0  0  0  0
   18.1490   -8.2176  -14.4919 C   0  0  1  0  0  0  0  0  0  0  0  0
   18.5144   -8.9339  -13.3746 O   0  0  0  0  0  0  0  0  0  0  0  0
   19.2154   -8.2420  -15.5652 C   0  0  2  0  0  0  0  0  0  0  0  0
   19.6214   -9.5853  -15.8953 N   0  0  0  0  0  0  0  0  0  0  0  0
   20.3907   -7.4601  -15.1112 C   0  0  0  0  0  0  0  0  0  0  0  0
   21.4236   -8.0176  -14.6670 O   0  0  0  0  0  0  0  0  0  0  0  0
   22.7478   -3.1705  -14.9553 C   0  0  0  0  0  0  0  0  0  0  0  0
   21.5204   -3.9015  -15.4473 C   0  0  2  0  0  0  0  0  0  0  0  0
   20.3104   -3.0816  -15.1051 C   0  0  0  0  0  0  0  0  0  0  0  0
   21.5009   -5.2649  -14.7704 C   0  0  2  0  0  0  0  0  0  0  0  0
   20.3687   -6.0444  -15.1717 N   0  0  0  0  0  0  0  0  0  0  0  0
   21.5949   -5.0974  -13.3107 C   0  0  0  0  0  0  0  0  0  0  0  0
   20.6066   -5.2656  -12.5643 O   0  0  0  0  0  0  0  0  0  0  0  0
   22.8031   -4.7452  -12.7417 O   0  0  0  0  0  0  0  0  0  0  0  0
  1  5  1  0
  2  1  1  0
  3  4  1  0
  3  2  1  0
  4  5  1  0
  5  6  1  1
  6  7  2  0
  9  8  1  6
  9 11  1  0
 10  9  1  0
 11 13  1  0
 12  6  1  0
 11 12  1  1
 13 14  2  0
 13 19  1  0
 16 18  1  0
 16 15  1  1
 17 16  1  0
 18 20  1  0
 18 19  1  1
 20 22  1  0
 21 20  2  0
M  END
$$$$
