PTV.pdb
     RDKit          3D

 22 22  0  0  1  0  0  0  0  0999 V2000
   24.3137  -20.5817   -9.6635 N   0  0  0  0  0  0  0  0  0  0  0  0
   24.8796  -20.6760   -8.3229 C   0  0  0  0  0  0  0  0  0  0  0  0
   26.3021  -21.1748   -8.5120 C   0  0  0  0  0  0  0  0  0  0  0  0
   26.5078  -21.1620  -10.0144 C   0  0  0  0  0  0  0  0  0  0  0  0
   25.4491  -20.1303  -10.4273 C   0  0  1  0  0  0  0  0  0  0  0  0
   25.2273  -20.2179  -11.8878 C   0  0  0  0  0  0  0  0  0  0  0  0
   26.1518  -19.9811  -12.7094 O   0  0  0  0  0  0  0  0  0  0  0  0
   24.6349  -22.9888  -13.8495 C   0  0  0  0  0  0  0  0  0  0  0  0
   23.3776  -22.2024  -14.0859 C   0  0  1  0  0  0  0  0  0  0  0  0
   22.3135  -22.7351  -13.3939 O   0  0  0  0  0  0  0  0  0  0  0  0
   23.6270  -20.7527  -13.7312 C   0  0  2  0  0  0  0  0  0  0  0  0
   23.9261  -20.5809  -12.3314 N   0  0  0  0  0  0  0  0  0  0  0  0
   22.4375  -19.9444  -14.0926 C   0  0  0  0  0  0  0  0  0  0  0  0
   21.5778  -19.6160  -13.2394 O   0  0  0  0  0  0  0  0  0  0  0  0
   19.8405  -17.9664  -17.7614 C   0  0  0  0  0  0  0  0  0  0  0  0
   21.2296  -18.1721  -17.2039 C   0  0  2  0  0  0  0  0  0  0  0  0
   21.9909  -19.0627  -18.1425 C   0  0  0  0  0  0  0  0  0  0  0  0
   21.0779  -18.7905  -15.8211 C   0  0  2  0  0  0  0  0  0  0  0  0
   22.2465  -19.5207  -15.4314 N   0  0  0  0  0  0  0  0  0  0  0  0
   19.8502  -19.6014  -15.7703 C   0  0  0  0  0  0  0  0  0  0  0  0
   19.8582  -20.8240  -16.0303 O   0  0  0  0  0  0  0  0  0  0  0  0
   18.6530  -19.0045  -15.4273 O   0  0  0  0  0  0  0  0  0  0  0  0
  1  5  1  0
  2  1  1  0
  3  4  1  0
  3  2  1  0
  4  5  1  0
  5  6  1  6
  6  7  2  0
  9  8  1  1
  9 11  1  0
 10  9  1  0
 11 13  1  0
 12  6  1  0
 11 12  1  1
 13 14  2  0
 13 19  1  0
 16 18  1  0
 16 15  1  6
 17 16  1  0
 18 20  1  0
 18 19  1  6
 20 22  1  0
 21 20  2  0
M  END
$$$$
