PTV.pdb
     RDKit          3D

 22 22  0  0  1  0  0  0  0  0999 V2000
   17.6700  -15.0973  -18.2007 N   0  0  0  0  0  0  0  0  0  0  0  0
   16.5275  -15.8704  -17.7280 C   0  0  0  0  0  0  0  0  0  0  0  0
   16.4235  -15.5811  -16.2401 C   0  0  0  0  0  0  0  0  0  0  0  0
   17.4459  -14.4878  -15.9979 C   0  0  0  0  0  0  0  0  0  0  0  0
   17.5564  -13.8977  -17.4105 C   0  0  1  0  0  0  0  0  0  0  0  0
   18.7630  -13.0447  -17.4890 C   0  0  0  0  0  0  0  0  0  0  0  0
   19.9136  -13.5416  -17.6116 O   0  0  0  0  0  0  0  0  0  0  0  0
   19.5154  -10.4125  -19.9998 C   0  0  0  0  0  0  0  0  0  0  0  0
   19.4366   -9.7139  -18.6728 C   0  0  1  0  0  0  0  0  0  0  0  0
   18.2396   -9.0505  -18.5238 O   0  0  0  0  0  0  0  0  0  0  0  0
   19.6778  -10.7204  -17.5689 C   0  0  2  0  0  0  0  0  0  0  0  0
   18.5749  -11.6370  -17.4207 N   0  0  0  0  0  0  0  0  0  0  0  0
   19.9107  -10.0052  -16.2910 C   0  0  0  0  0  0  0  0  0  0  0  0
   18.9871   -9.8141  -15.4630 O   0  0  0  0  0  0  0  0  0  0  0  0
   23.8658   -9.1075  -15.1082 C   0  0  0  0  0  0  0  0  0  0  0  0
   22.7625   -9.3225  -14.0986 C   0  0  2  0  0  0  0  0  0  0  0  0
   22.7209  -10.7806  -13.7441 C   0  0  0  0  0  0  0  0  0  0  0  0
   21.4638   -8.8488  -14.7360 C   0  0  2  0  0  0  0  0  0  0  0  0
   21.2029   -9.5160  -15.9759 N   0  0  0  0  0  0  0  0  0  0  0  0
   21.4783   -7.3822  -14.8647 C   0  0  0  0  0  0  0  0  0  0  0  0
   21.5750   -6.8204  -15.9770 O   0  0  0  0  0  0  0  0  0  0  0  0
   21.3830   -6.5979  -13.7319 O   0  0  0  0  0  0  0  0  0  0  0  0
  1  5  1  0
  2  1  1  0
  3  4  1  0
  3  2  1  0
  4  5  1  0
  5  6  1  1
  6  7  2  0
  9  8  1  6
  9 11  1  0
 10  9  1  0
 11 13  1  0
 12  6  1  0
 11 12  1  1
 13 14  2  0
 13 19  1  0
 16 18  1  0
 16 15  1  6
 17 16  1  0
 18 20  1  0
 18 19  1  6
 20 22  1  0
 21 20  2  0
M  END
$$$$
