PTV.pdb
     RDKit          3D

 22 22  0  0  1  0  0  0  0  0999 V2000
   17.1230  -11.5005  -18.1211 N   0  0  0  0  0  0  0  0  0  0  0  0
   16.1735  -12.5408  -18.4986 C   0  0  0  0  0  0  0  0  0  0  0  0
   16.9376  -13.8501  -18.3976 C   0  0  0  0  0  0  0  0  0  0  0  0
   18.2667  -13.4624  -17.7790 C   0  0  0  0  0  0  0  0  0  0  0  0
   17.8722  -12.1549  -17.0786 C   0  0  1  0  0  0  0  0  0  0  0  0
   19.0973  -11.4144  -16.7036 C   0  0  0  0  0  0  0  0  0  0  0  0
   20.0048  -11.9496  -16.0137 O   0  0  0  0  0  0  0  0  0  0  0  0
   21.2149   -9.2105  -19.2109 C   0  0  0  0  0  0  0  0  0  0  0  0
   20.7383   -8.3776  -18.0558 C   0  0  1  0  0  0  0  0  0  0  0  0
   19.6819   -7.5728  -18.4180 O   0  0  0  0  0  0  0  0  0  0  0  0
   20.3968   -9.2886  -16.8969 C   0  0  2  0  0  0  0  0  0  0  0  0
   19.2128  -10.0703  -17.1527 N   0  0  0  0  0  0  0  0  0  0  0  0
   20.2066   -8.4771  -15.6705 C   0  0  0  0  0  0  0  0  0  0  0  0
   19.0763   -8.0532  -15.3274 O   0  0  0  0  0  0  0  0  0  0  0  0
   22.8886   -8.6923  -12.5696 C   0  0  0  0  0  0  0  0  0  0  0  0
   21.4955   -8.1303  -12.4075 C   0  0  2  0  0  0  0  0  0  0  0  0
   20.5467   -9.2713  -12.1808 C   0  0  0  0  0  0  0  0  0  0  0  0
   21.1679   -7.3536  -13.6751 C   0  0  2  0  0  0  0  0  0  0  0  0
   21.3171   -8.1599  -14.8491 N   0  0  0  0  0  0  0  0  0  0  0  0
   21.9660   -6.1174  -13.7218 C   0  0  0  0  0  0  0  0  0  0  0  0
   21.8445   -5.2229  -12.8571 O   0  0  0  0  0  0  0  0  0  0  0  0
   22.8756   -5.9318  -14.7443 O   0  0  0  0  0  0  0  0  0  0  0  0
  1  5  1  0
  2  1  1  0
  3  4  1  0
  3  2  1  0
  4  5  1  0
  5  6  1  6
  6  7  2  0
  9  8  1  6
  9 11  1  0
 10  9  1  0
 11 13  1  0
 12  6  1  0
 11 12  1  6
 13 14  2  0
 13 19  1  0
 16 18  1  0
 16 15  1  6
 17 16  1  0
 18 20  1  0
 18 19  1  6
 20 22  1  0
 21 20  2  0
M  END
$$$$
