PTV.pdb
     RDKit          3D

 22 22  0  0  1  0  0  0  0  0999 V2000
   33.8070  -25.9575  -15.7206 N   0  0  0  0  0  0  0  0  0  0  0  0
   35.0487  -25.8099  -16.4706 C   0  0  0  0  0  0  0  0  0  0  0  0
   34.6495  -25.8429  -17.9362 C   0  0  0  0  0  0  0  0  0  0  0  0
   33.1333  -25.8319  -17.9125 C   0  0  0  0  0  0  0  0  0  0  0  0
   32.8851  -25.2054  -16.5335 C   0  0  1  0  0  0  0  0  0  0  0  0
   31.4732  -25.4224  -16.1469 C   0  0  0  0  0  0  0  0  0  0  0  0
   31.1660  -25.9534  -15.0471 O   0  0  0  0  0  0  0  0  0  0  0  0
   28.6741  -22.9040  -15.8169 C   0  0  0  0  0  0  0  0  0  0  0  0
   28.3250  -23.8305  -16.9461 C   0  0  1  0  0  0  0  0  0  0  0  0
   28.5784  -23.2511  -18.1688 O   0  0  0  0  0  0  0  0  0  0  0  0
   29.0682  -25.1357  -16.7627 C   0  0  2  0  0  0  0  0  0  0  0  0
   30.4716  -25.0076  -17.0669 N   0  0  0  0  0  0  0  0  0  0  0  0
   28.4605  -26.1756  -17.6277 C   0  0  0  0  0  0  0  0  0  0  0  0
   28.7414  -26.2673  -18.8474 O   0  0  0  0  0  0  0  0  0  0  0  0
   25.8285  -29.1055  -15.9450 C   0  0  0  0  0  0  0  0  0  0  0  0
   26.7782  -29.4292  -17.0747 C   0  0  2  0  0  0  0  0  0  0  0  0
   28.0625  -29.9355  -16.4851 C   0  0  0  0  0  0  0  0  0  0  0  0
   26.9793  -28.1529  -17.8798 C   0  0  2  0  0  0  0  0  0  0  0  0
   27.5355  -27.1009  -17.0832 N   0  0  0  0  0  0  0  0  0  0  0  0
   25.7161  -27.7723  -18.5334 C   0  0  0  0  0  0  0  0  0  0  0  0
   25.0108  -26.8334  -18.1052 O   0  0  0  0  0  0  0  0  0  0  0  0
   25.2909  -28.4652  -19.6498 O   0  0  0  0  0  0  0  0  0  0  0  0
  1  5  1  0
  2  1  1  0
  3  4  1  0
  3  2  1  0
  4  5  1  0
  5  6  1  1
  6  7  2  0
  9  8  1  1
  9 11  1  0
 10  9  1  0
 11 13  1  0
 12  6  1  0
 11 12  1  6
 13 14  2  0
 13 19  1  0
 16 18  1  0
 16 15  1  1
 17 16  1  0
 18 20  1  0
 18 19  1  1
 20 22  1  0
 21 20  2  0
M  END
$$$$
