PTV.pdb
     RDKit          3D

 22 22  0  0  1  0  0  0  0  0999 V2000
   15.0987  -21.9949    0.8699 N   0  0  0  0  0  0  0  0  0  0  0  0
   14.2665  -23.1821    0.7143 C   0  0  0  0  0  0  0  0  0  0  0  0
   14.6473  -24.1035    1.8608 C   0  0  0  0  0  0  0  0  0  0  0  0
   15.5794  -23.2699    2.7185 C   0  0  0  0  0  0  0  0  0  0  0  0
   15.1444  -21.8577    2.3036 C   0  0  1  0  0  0  0  0  0  0  0  0
   16.1630  -20.8826    2.7526 C   0  0  0  0  0  0  0  0  0  0  0  0
   17.2688  -20.7665    2.1612 O   0  0  0  0  0  0  0  0  0  0  0  0
   15.4777  -17.2540    3.0909 C   0  0  0  0  0  0  0  0  0  0  0  0
   15.9531  -17.6951    4.4454 C   0  0  1  0  0  0  0  0  0  0  0  0
   14.9105  -17.7855    5.3397 O   0  0  0  0  0  0  0  0  0  0  0  0
   16.7052  -19.0005    4.3046 C   0  0  2  0  0  0  0  0  0  0  0  0
   15.8462  -20.0780    3.8812 N   0  0  0  0  0  0  0  0  0  0  0  0
   17.3418  -19.3455    5.5987 C   0  0  0  0  0  0  0  0  0  0  0  0
   16.7855  -20.1078    6.4262 O   0  0  0  0  0  0  0  0  0  0  0  0
   21.3104  -18.0463    6.4156 C   0  0  0  0  0  0  0  0  0  0  0  0
   20.7569  -19.3289    6.9914 C   0  0  2  0  0  0  0  0  0  0  0  0
   21.0797  -20.4510    6.0479 C   0  0  0  0  0  0  0  0  0  0  0  0
   19.2567  -19.1389    7.1664 C   0  0  2  0  0  0  0  0  0  0  0  0
   18.6119  -18.8116    5.9305 N   0  0  0  0  0  0  0  0  0  0  0  0
   19.0005  -18.1508    8.2274 C   0  0  0  0  0  0  0  0  0  0  0  0
   18.6570  -16.9780    7.9650 O   0  0  0  0  0  0  0  0  0  0  0  0
   19.1407  -18.5202    9.5508 O   0  0  0  0  0  0  0  0  0  0  0  0
  1  5  1  0
  2  1  1  0
  3  4  1  0
  3  2  1  0
  4  5  1  0
  5  6  1  6
  6  7  2  0
  9  8  1  6
  9 11  1  0
 10  9  1  0
 11 13  1  0
 12  6  1  0
 11 12  1  1
 13 14  2  0
 13 19  1  0
 16 18  1  0
 16 15  1  6
 17 16  1  0
 18 20  1  0
 18 19  1  6
 20 22  1  0
 21 20  2  0
M  END
$$$$
