PTV.pdb
     RDKit          3D

 22 22  0  0  1  0  0  0  0  0999 V2000
   27.2109  -20.8355  -16.5823 N   0  0  0  0  0  0  0  0  0  0  0  0
   27.9190  -21.8169  -17.3958 C   0  0  0  0  0  0  0  0  0  0  0  0
   28.9709  -22.4242  -16.4831 C   0  0  0  0  0  0  0  0  0  0  0  0
   28.6598  -21.8472  -15.1157 C   0  0  0  0  0  0  0  0  0  0  0  0
   27.1784  -21.4904  -15.2992 C   0  0  1  0  0  0  0  0  0  0  0  0
   26.7561  -20.5865  -14.2063 C   0  0  0  0  0  0  0  0  0  0  0  0
   26.9223  -19.3405  -14.2813 O   0  0  0  0  0  0  0  0  0  0  0  0
   24.0144  -19.2600  -13.5387 C   0  0  0  0  0  0  0  0  0  0  0  0
   24.1238  -20.0561  -12.2701 C   0  0  1  0  0  0  0  0  0  0  0  0
   23.3391  -21.1862  -12.3161 O   0  0  0  0  0  0  0  0  0  0  0  0
   25.5798  -20.3768  -12.0114 C   0  0  2  0  0  0  0  0  0  0  0  0
   26.1532  -21.1790  -13.0630 N   0  0  0  0  0  0  0  0  0  0  0  0
   25.7065  -21.0848  -10.7147 C   0  0  0  0  0  0  0  0  0  0  0  0
   25.6302  -22.3349  -10.6343 O   0  0  0  0  0  0  0  0  0  0  0  0
   26.5101  -18.9028   -7.1044 C   0  0  0  0  0  0  0  0  0  0  0  0
   27.0201  -20.3061   -7.3351 C   0  0  2  0  0  0  0  0  0  0  0  0
   28.3902  -20.2196   -7.9424 C   0  0  0  0  0  0  0  0  0  0  0  0
   26.0277  -21.0057   -8.2534 C   0  0  2  0  0  0  0  0  0  0  0  0
   25.9198  -20.3500   -9.5218 N   0  0  0  0  0  0  0  0  0  0  0  0
   24.7322  -21.1497   -7.5689 C   0  0  0  0  0  0  0  0  0  0  0  0
   23.7013  -20.5784   -7.9852 O   0  0  0  0  0  0  0  0  0  0  0  0
   24.6436  -21.9347   -6.4361 O   0  0  0  0  0  0  0  0  0  0  0  0
  1  5  1  0
  2  1  1  0
  3  4  1  0
  3  2  1  0
  4  5  1  0
  5  6  1  1
  6  7  2  0
  9  8  1  6
  9 11  1  0
 10  9  1  0
 11 13  1  0
 12  6  1  0
 11 12  1  6
 13 14  2  0
 13 19  1  0
 16 18  1  0
 16 15  1  6
 17 16  1  0
 18 20  1  0
 18 19  1  6
 20 22  1  0
 21 20  2  0
M  END
$$$$
