PTV.pdb
     RDKit          3D

 22 22  0  0  1  0  0  0  0  0999 V2000
   26.8544  -15.6291  -15.6101 N   0  0  0  0  0  0  0  0  0  0  0  0
   26.8566  -14.3531  -16.3159 C   0  0  0  0  0  0  0  0  0  0  0  0
   25.7120  -14.4329  -17.3118 C   0  0  0  0  0  0  0  0  0  0  0  0
   25.0051  -15.7297  -16.9681 C   0  0  0  0  0  0  0  0  0  0  0  0
   25.4432  -15.9021  -15.5073 C   0  0  1  0  0  0  0  0  0  0  0  0
   25.1590  -17.2881  -15.0738 C   0  0  0  0  0  0  0  0  0  0  0  0
   23.9879  -17.7512  -15.0752 O   0  0  0  0  0  0  0  0  0  0  0  0
   26.7032  -21.8014  -14.7418 C   0  0  0  0  0  0  0  0  0  0  0  0
   26.7512  -20.4002  -15.2800 C   0  0  1  0  0  0  0  0  0  0  0  0
   26.1764  -20.3208  -16.5283 O   0  0  0  0  0  0  0  0  0  0  0  0
   26.0979  -19.4657  -14.2853 C   0  0  2  0  0  0  0  0  0  0  0  0
   26.2615  -18.0816  -14.6537 N   0  0  0  0  0  0  0  0  0  0  0  0
   26.6735  -19.6976  -12.9385 C   0  0  0  0  0  0  0  0  0  0  0  0
   27.8242  -19.2995  -12.6343 O   0  0  0  0  0  0  0  0  0  0  0  0
   26.2099  -20.4117   -8.2311 C   0  0  0  0  0  0  0  0  0  0  0  0
   25.4830  -20.2648   -9.5475 C   0  0  2  0  0  0  0  0  0  0  0  0
   24.2779  -21.1598   -9.5269 C   0  0  0  0  0  0  0  0  0  0  0  0
   26.4605  -20.6424  -10.6517 C   0  0  2  0  0  0  0  0  0  0  0  0
   25.9217  -20.3848  -11.9532 N   0  0  0  0  0  0  0  0  0  0  0  0
   26.8954  -22.0379  -10.4758 C   0  0  0  0  0  0  0  0  0  0  0  0
   26.4329  -22.9643  -11.1759 O   0  0  0  0  0  0  0  0  0  0  0  0
   27.8391  -22.3414   -9.5142 O   0  0  0  0  0  0  0  0  0  0  0  0
  1  5  1  0
  2  1  1  0
  3  4  1  0
  3  2  1  0
  4  5  1  0
  5  6  1  6
  6  7  2  0
  9  8  1  1
  9 11  1  0
 10  9  1  0
 11 13  1  0
 12  6  1  0
 11 12  1  6
 13 14  2  0
 13 19  1  0
 16 18  1  0
 16 15  1  1
 17 16  1  0
 18 20  1  0
 18 19  1  6
 20 22  1  0
 21 20  2  0
M  END
$$$$
