SMD.pdb
     RDKit          3D

 23 22  0  0  1  0  0  0  0  0999 V2000
    8.1834  -15.7129   18.9615 O   0  0  0  0  0  0  0  0  0  0  0  0
    7.0746  -14.8695   18.9503 C   0  0  0  0  0  0  0  0  0  0  0  0
    7.4184  -13.4987   19.4970 C   0  0  2  0  0  0  0  0  0  0  0  0
    8.3259  -12.8774   18.5550 N   0  0  0  0  0  0  0  0  0  0  0  0
    8.0433  -13.6294   20.8396 C   0  0  0  0  0  0  0  0  0  0  0  0
    9.3010  -13.7232   21.0001 O   0  0  0  0  0  0  0  0  0  0  0  0
    7.0891  -12.1349   28.4178 C   0  0  0  0  0  0  0  0  0  0  0  0
    6.2255  -12.3996   26.8449 S   0  0  0  0  0  0  0  0  0  0  0  0
    7.4056  -13.1769   25.6828 C   0  0  0  0  0  0  0  0  0  0  0  0
    6.7692  -13.2109   24.2927 C   0  0  0  0  0  0  0  0  0  0  0  0
    7.7940  -13.7899   23.3338 C   0  0  2  0  0  0  0  0  0  0  0  0
    7.2422  -13.6538   22.0019 N   0  0  0  0  0  0  0  0  0  0  0  0
    8.1467  -15.1742   23.6626 C   0  0  0  0  0  0  0  0  0  0  0  0
    7.6644  -16.1029   22.9723 O   0  0  0  0  0  0  0  0  0  0  0  0
    9.0154  -15.4616   24.7388 N   0  0  0  0  0  0  0  0  0  0  0  0
    9.8931  -16.6068   24.6631 C   0  0  1  0  0  0  0  0  0  0  0  0
   11.0001  -16.3389   23.6709 C   0  0  0  0  0  0  0  0  0  0  0  0
   11.8724  -17.5038   23.5546 C   0  0  0  0  0  0  0  0  0  0  0  0
   12.0543  -18.2728   24.5340 O   0  0  0  0  0  0  0  0  0  0  0  0
   10.4134  -16.8678   26.0269 C   0  0  0  0  0  0  0  0  0  0  0  0
   10.1068  -16.0783   27.1385 O   0  0  0  0  0  0  0  0  0  0  0  0
   12.5395  -17.8106   22.3514 O   0  0  0  0  0  0  0  0  0  0  0  0
   11.1875  -17.8557   26.2447 O   0  0  0  0  0  0  0  0  0  0  0  0
  2  1  1  0
  3  2  1  0
  3  4  1  6
  5  6  2  0
  5  3  1  0
  7  8  1  0
  9  8  1  0
  9 10  1  0
 11 10  1  1
 11 13  1  0
 11 12  1  0
 12  5  1  0
 13 15  1  0
 14 13  2  0
 15 16  1  0
 16 20  1  0
 16 17  1  6
 18 17  1  0
 18 19  2  0
 20 23  2  0
 20 21  1  0
 22 18  1  0
M  END
$$$$
