SMD.pdb
     RDKit          3D

 23 22  0  0  1  0  0  0  0  0999 V2000
    7.8323  -18.3276   20.4615 O   0  0  0  0  0  0  0  0  0  0  0  0
    6.7022  -17.5415   20.2465 C   0  0  0  0  0  0  0  0  0  0  0  0
    7.0746  -16.0907   20.0175 C   0  0  2  0  0  0  0  0  0  0  0  0
    7.8301  -16.0323   18.7834 N   0  0  0  0  0  0  0  0  0  0  0  0
    7.8759  -15.5849   21.1630 C   0  0  0  0  0  0  0  0  0  0  0  0
    9.1327  -15.4078   21.0905 O   0  0  0  0  0  0  0  0  0  0  0  0
    7.3193  -11.7102   27.9639 C   0  0  0  0  0  0  0  0  0  0  0  0
    6.4234  -12.6446   26.6935 S   0  0  0  0  0  0  0  0  0  0  0  0
    7.6598  -13.3713   25.5575 C   0  0  0  0  0  0  0  0  0  0  0  0
    6.9204  -14.0755   24.4192 C   0  0  0  0  0  0  0  0  0  0  0  0
    7.9649  -14.7016   23.5126 C   0  0  2  0  0  0  0  0  0  0  0  0
    7.2524  -15.2795   22.3923 N   0  0  0  0  0  0  0  0  0  0  0  0
    8.8021  -15.6777   24.2164 C   0  0  0  0  0  0  0  0  0  0  0  0
    8.3095  -16.7889   24.5237 O   0  0  0  0  0  0  0  0  0  0  0  0
   10.1423  -15.3755   24.5450 N   0  0  0  0  0  0  0  0  0  0  0  0
   10.9744  -16.3868   25.1553 C   0  0  1  0  0  0  0  0  0  0  0  0
   12.4229  -15.9623   25.0963 C   0  0  0  0  0  0  0  0  0  0  0  0
   13.1786  -16.8517   24.2191 C   0  0  0  0  0  0  0  0  0  0  0  0
   14.0314  -16.3923   23.4158 O   0  0  0  0  0  0  0  0  0  0  0  0
   10.5027  -16.5794   26.5480 C   0  0  0  0  0  0  0  0  0  0  0  0
    9.9515  -15.5596   27.3285 O   0  0  0  0  0  0  0  0  0  0  0  0
   12.9845  -18.2477   24.2371 O   0  0  0  0  0  0  0  0  0  0  0  0
   10.5858  -17.7216   27.1058 O   0  0  0  0  0  0  0  0  0  0  0  0
  2  1  1  0
  3  2  1  0
  3  4  1  6
  5  6  2  0
  5  3  1  0
  7  8  1  0
  9  8  1  0
  9 10  1  0
 11 10  1  1
 11 13  1  0
 11 12  1  0
 12  5  1  0
 13 15  1  0
 14 13  2  0
 15 16  1  0
 16 20  1  0
 16 17  1  1
 18 17  1  0
 18 19  2  0
 20 23  2  0
 20 21  1  0
 22 18  1  0
M  END
$$$$
