SMD.pdb
     RDKit          3D

 23 22  0  0  1  0  0  0  0  0999 V2000
    7.9826  -17.8454   20.7037 O   0  0  0  0  0  0  0  0  0  0  0  0
    7.1376  -16.8201   20.2844 C   0  0  0  0  0  0  0  0  0  0  0  0
    7.8561  -15.4861   20.2650 C   0  0  2  0  0  0  0  0  0  0  0  0
    8.8896  -15.5712   19.2541 N   0  0  0  0  0  0  0  0  0  0  0  0
    8.4359  -15.2019   21.6041 C   0  0  0  0  0  0  0  0  0  0  0  0
    9.6710  -15.3605   21.8601 O   0  0  0  0  0  0  0  0  0  0  0  0
    6.5529  -10.6719   26.4850 C   0  0  0  0  0  0  0  0  0  0  0  0
    6.3264  -12.3940   27.0072 S   0  0  0  0  0  0  0  0  0  0  0  0
    7.5669  -13.4126   26.1289 C   0  0  0  0  0  0  0  0  0  0  0  0
    7.0274  -13.7441   24.7370 C   0  0  0  0  0  0  0  0  0  0  0  0
    8.1098  -14.5084   23.9962 C   0  0  2  0  0  0  0  0  0  0  0  0
    7.6150  -14.7372   22.6546 N   0  0  0  0  0  0  0  0  0  0  0  0
    8.4857  -15.7488   24.6810 C   0  0  0  0  0  0  0  0  0  0  0  0
    7.7403  -16.7510   24.5723 O   0  0  0  0  0  0  0  0  0  0  0  0
    9.6674  -15.8183   25.4518 N   0  0  0  0  0  0  0  0  0  0  0  0
   10.1237  -17.0964   25.9475 C   0  0  1  0  0  0  0  0  0  0  0  0
   11.3900  -17.5015   25.2304 C   0  0  0  0  0  0  0  0  0  0  0  0
   11.9446  -18.7150   25.8230 C   0  0  0  0  0  0  0  0  0  0  0  0
   11.2040  -19.5333   26.4276 O   0  0  0  0  0  0  0  0  0  0  0  0
   10.3248  -16.9674   27.4110 C   0  0  0  0  0  0  0  0  0  0  0  0
   10.4286  -18.0577   28.2790 O   0  0  0  0  0  0  0  0  0  0  0  0
   13.3194  -19.0155   25.7420 O   0  0  0  0  0  0  0  0  0  0  0  0
   10.4127  -15.8174   27.9519 O   0  0  0  0  0  0  0  0  0  0  0  0
  2  1  1  0
  3  2  1  0
  3  4  1  6
  5  6  2  0
  5  3  1  0
  7  8  1  0
  9  8  1  0
  9 10  1  0
 11 10  1  1
 11 13  1  0
 11 12  1  0
 12  5  1  0
 13 15  1  0
 14 13  2  0
 15 16  1  0
 16 20  1  0
 16 17  1  6
 18 17  1  0
 18 19  2  0
 20 23  2  0
 20 21  1  0
 22 18  1  0
M  END
$$$$
