SMD.pdb
     RDKit          3D

 23 22  0  0  1  0  0  0  0  0999 V2000
    7.3439  -17.5731   20.5629 O   0  0  0  0  0  0  0  0  0  0  0  0
    6.4133  -16.6369   20.1171 C   0  0  0  0  0  0  0  0  0  0  0  0
    7.0260  -15.2547   20.0164 C   0  0  2  0  0  0  0  0  0  0  0  0
    7.7914  -15.2141   18.7877 N   0  0  0  0  0  0  0  0  0  0  0  0
    7.8907  -14.9950   21.1974 C   0  0  0  0  0  0  0  0  0  0  0  0
    9.1530  -15.1424   21.1639 O   0  0  0  0  0  0  0  0  0  0  0  0
    6.0214  -12.7358   27.6793 C   0  0  0  0  0  0  0  0  0  0  0  0
    7.0716  -11.6920   26.6319 S   0  0  0  0  0  0  0  0  0  0  0  0
    8.0971  -12.7946   25.5926 C   0  0  0  0  0  0  0  0  0  0  0  0
    7.2347  -13.3241   24.4463 C   0  0  0  0  0  0  0  0  0  0  0  0
    8.1234  -14.1802   23.5620 C   0  0  2  0  0  0  0  0  0  0  0  0
    7.3245  -14.5678   22.4181 N   0  0  0  0  0  0  0  0  0  0  0  0
    8.6824  -15.3303   24.2788 C   0  0  0  0  0  0  0  0  0  0  0  0
    7.9331  -16.2981   24.5501 O   0  0  0  0  0  0  0  0  0  0  0  0
   10.0426  -15.3520   24.6596 N   0  0  0  0  0  0  0  0  0  0  0  0
   10.5843  -16.5225   25.3108 C   0  0  1  0  0  0  0  0  0  0  0  0
   12.0913  -16.4307   25.3586 C   0  0  0  0  0  0  0  0  0  0  0  0
   12.6458  -16.4544   24.0082 C   0  0  0  0  0  0  0  0  0  0  0  0
   12.0434  -17.0455   23.0747 O   0  0  0  0  0  0  0  0  0  0  0  0
    9.9842  -16.6044   26.6644 C   0  0  0  0  0  0  0  0  0  0  0  0
    9.8203  -15.5026   27.5083 O   0  0  0  0  0  0  0  0  0  0  0  0
   13.8669  -15.8218   23.6994 O   0  0  0  0  0  0  0  0  0  0  0  0
    9.5821  -17.7214   27.1260 O   0  0  0  0  0  0  0  0  0  0  0  0
  2  1  1  0
  3  2  1  0
  3  4  1  6
  5  6  2  0
  5  3  1  0
  7  8  1  0
  9  8  1  0
  9 10  1  0
 11 10  1  1
 11 13  1  0
 11 12  1  0
 12  5  1  0
 13 15  1  0
 14 13  2  0
 15 16  1  0
 16 20  1  0
 16 17  1  1
 18 17  1  0
 18 19  2  0
 20 23  2  0
 20 21  1  0
 22 18  1  0
M  END
$$$$
