SMD.pdb
     RDKit          3D

 23 22  0  0  1  0  0  0  0  0999 V2000
    6.7763  -16.2398   18.3530 O   0  0  0  0  0  0  0  0  0  0  0  0
    7.5336  -15.9834   19.4939 C   0  0  0  0  0  0  0  0  0  0  0  0
    7.4409  -14.5270   19.9020 C   0  0  2  0  0  0  0  0  0  0  0  0
    8.0692  -13.7483   18.8550 N   0  0  0  0  0  0  0  0  0  0  0  0
    8.1214  -14.3209   21.2076 C   0  0  0  0  0  0  0  0  0  0  0  0
    9.3664  -14.0799   21.2970 O   0  0  0  0  0  0  0  0  0  0  0  0
    6.7335  -10.8554   26.9373 C   0  0  0  0  0  0  0  0  0  0  0  0
    6.4462  -12.6367   27.1220 S   0  0  0  0  0  0  0  0  0  0  0  0
    7.6178  -13.5094   26.0206 C   0  0  0  0  0  0  0  0  0  0  0  0
    6.9884  -13.6219   24.6315 C   0  0  0  0  0  0  0  0  0  0  0  0
    8.0111  -14.2713   23.7164 C   0  0  2  0  0  0  0  0  0  0  0  0
    7.3902  -14.3880   22.4134 N   0  0  0  0  0  0  0  0  0  0  0  0
    8.4872  -15.5571   24.2348 C   0  0  0  0  0  0  0  0  0  0  0  0
    7.7334  -16.5563   24.1627 O   0  0  0  0  0  0  0  0  0  0  0  0
    9.7735  -15.6732   24.8069 N   0  0  0  0  0  0  0  0  0  0  0  0
   10.2455  -16.9652   25.2492 C   0  0  1  0  0  0  0  0  0  0  0  0
   11.6977  -17.1371   24.8705 C   0  0  0  0  0  0  0  0  0  0  0  0
   11.8105  -17.7688   23.5592 C   0  0  0  0  0  0  0  0  0  0  0  0
   10.7917  -18.2110   22.9674 O   0  0  0  0  0  0  0  0  0  0  0  0
   10.0349  -17.0452   26.7149 C   0  0  0  0  0  0  0  0  0  0  0  0
    9.6865  -15.9497   27.5096 O   0  0  0  0  0  0  0  0  0  0  0  0
   13.0539  -17.9073   22.9099 O   0  0  0  0  0  0  0  0  0  0  0  0
   10.1691  -18.1543   27.3270 O   0  0  0  0  0  0  0  0  0  0  0  0
  2  1  1  0
  3  2  1  0
  3  4  1  6
  5  6  2  0
  5  3  1  0
  7  8  1  0
  9  8  1  0
  9 10  1  0
 11 10  1  1
 11 13  1  0
 11 12  1  0
 12  5  1  0
 13 15  1  0
 14 13  2  0
 15 16  1  0
 16 20  1  0
 16 17  1  1
 18 17  1  0
 18 19  2  0
 20 23  2  0
 20 21  1  0
 22 18  1  0
M  END
$$$$
