SMD.pdb
     RDKit          3D

 23 22  0  0  1  0  0  0  0  0999 V2000
    6.2780  -17.3261   19.0407 O   0  0  0  0  0  0  0  0  0  0  0  0
    7.0657  -16.8758   20.0980 C   0  0  0  0  0  0  0  0  0  0  0  0
    7.1109  -15.3620   20.1467 C   0  0  2  0  0  0  0  0  0  0  0  0
    7.7081  -14.9114   18.9068 N   0  0  0  0  0  0  0  0  0  0  0  0
    7.9064  -14.9150   21.3204 C   0  0  0  0  0  0  0  0  0  0  0  0
    9.1724  -14.8052   21.2842 O   0  0  0  0  0  0  0  0  0  0  0  0
    6.5077  -10.9015   26.8089 C   0  0  0  0  0  0  0  0  0  0  0  0
    6.5821  -12.6660   27.2221 S   0  0  0  0  0  0  0  0  0  0  0  0
    7.7371  -13.4666   26.0506 C   0  0  0  0  0  0  0  0  0  0  0  0
    6.9946  -13.7336   24.7407 C   0  0  0  0  0  0  0  0  0  0  0  0
    7.9937  -14.3190   23.7589 C   0  0  2  0  0  0  0  0  0  0  0  0
    7.2665  -14.5920   22.5368 N   0  0  0  0  0  0  0  0  0  0  0  0
    8.6715  -15.5044   24.2922 C   0  0  0  0  0  0  0  0  0  0  0  0
    8.0654  -16.6018   24.2893 O   0  0  0  0  0  0  0  0  0  0  0  0
    9.9859  -15.4162   24.8019 N   0  0  0  0  0  0  0  0  0  0  0  0
   10.7511  -16.6224   25.0192 C   0  0  1  0  0  0  0  0  0  0  0  0
   12.1475  -16.4491   24.4698 C   0  0  0  0  0  0  0  0  0  0  0  0
   12.9534  -17.6350   24.7447 C   0  0  0  0  0  0  0  0  0  0  0  0
   12.4532  -18.7869   24.6637 O   0  0  0  0  0  0  0  0  0  0  0  0
   10.7519  -16.9002   26.4758 C   0  0  0  0  0  0  0  0  0  0  0  0
   11.1536  -18.1172   27.0333 O   0  0  0  0  0  0  0  0  0  0  0  0
   14.3117  -17.5375   25.1085 O   0  0  0  0  0  0  0  0  0  0  0  0
   10.3723  -16.0093   27.3034 O   0  0  0  0  0  0  0  0  0  0  0  0
  2  1  1  0
  3  2  1  0
  3  4  1  6
  5  6  2  0
  5  3  1  0
  7  8  1  0
  9  8  1  0
  9 10  1  0
 11 10  1  1
 11 13  1  0
 11 12  1  0
 12  5  1  0
 13 15  1  0
 14 13  2  0
 15 16  1  0
 16 20  1  0
 16 17  1  1
 18 17  1  0
 18 19  2  0
 20 23  2  0
 20 21  1  0
 22 18  1  0
M  END
$$$$
