SMD.pdb
     RDKit          3D

 23 22  0  0  1  0  0  0  0  0999 V2000
    8.0329  -17.2169   20.2098 O   0  0  0  0  0  0  0  0  0  0  0  0
    7.0143  -16.2701   20.1245 C   0  0  0  0  0  0  0  0  0  0  0  0
    7.5367  -14.8723   20.3877 C   0  0  2  0  0  0  0  0  0  0  0  0
    8.5359  -14.5915   19.3777 N   0  0  0  0  0  0  0  0  0  0  0  0
    8.1170  -14.7958   21.7542 C   0  0  0  0  0  0  0  0  0  0  0  0
    9.3700  -14.7345   21.9605 O   0  0  0  0  0  0  0  0  0  0  0  0
    7.3646  -10.7403   26.8495 C   0  0  0  0  0  0  0  0  0  0  0  0
    7.7093  -12.4831   26.4842 S   0  0  0  0  0  0  0  0  0  0  0  0
    6.3913  -13.0925   25.3711 C   0  0  0  0  0  0  0  0  0  0  0  0
    6.5885  -14.5941   25.1594 C   0  0  0  0  0  0  0  0  0  0  0  0
    7.7861  -14.7743   24.2440 C   0  0  2  0  0  0  0  0  0  0  0  0
    7.2766  -14.7888   22.8886 N   0  0  0  0  0  0  0  0  0  0  0  0
    8.5628  -15.9740   24.5706 C   0  0  0  0  0  0  0  0  0  0  0  0
    8.0468  -17.1006   24.3800 O   0  0  0  0  0  0  0  0  0  0  0  0
    9.8714  -15.8670   25.0915 N   0  0  0  0  0  0  0  0  0  0  0  0
   10.6665  -17.0590   25.2780 C   0  0  1  0  0  0  0  0  0  0  0  0
   12.0803  -16.8103   24.8078 C   0  0  0  0  0  0  0  0  0  0  0  0
   12.8798  -18.0254   24.9338 C   0  0  0  0  0  0  0  0  0  0  0  0
   12.3665  -19.0931   25.3584 O   0  0  0  0  0  0  0  0  0  0  0  0
   10.6087  -17.4199   26.7151 C   0  0  0  0  0  0  0  0  0  0  0  0
    9.8666  -16.7112   27.6638 O   0  0  0  0  0  0  0  0  0  0  0  0
   14.2460  -18.0504   24.5880 O   0  0  0  0  0  0  0  0  0  0  0  0
   11.2568  -18.4244   27.1552 O   0  0  0  0  0  0  0  0  0  0  0  0
  2  1  1  0
  3  2  1  0
  3  4  1  6
  5  6  2  0
  5  3  1  0
  7  8  1  0
  9  8  1  0
  9 10  1  0
 11 10  1  1
 11 13  1  0
 11 12  1  0
 12  5  1  0
 13 15  1  0
 14 13  2  0
 15 16  1  0
 16 20  1  0
 16 17  1  1
 18 17  1  0
 18 19  2  0
 20 23  2  0
 20 21  1  0
 22 18  1  0
M  END
$$$$
