SMD.pdb
     RDKit          3D

 23 22  0  0  1  0  0  0  0  0999 V2000
    7.0705  -17.7096   18.5984 O   0  0  0  0  0  0  0  0  0  0  0  0
    7.4965  -17.2581   19.8457 C   0  0  0  0  0  0  0  0  0  0  0  0
    7.8769  -15.7920   19.8014 C   0  0  2  0  0  0  0  0  0  0  0  0
    8.8251  -15.6283   18.7191 N   0  0  0  0  0  0  0  0  0  0  0  0
    8.4690  -15.3813   21.1017 C   0  0  0  0  0  0  0  0  0  0  0  0
    9.6886  -15.5916   21.3924 O   0  0  0  0  0  0  0  0  0  0  0  0
    7.1209  -11.6624   27.8860 C   0  0  0  0  0  0  0  0  0  0  0  0
    6.3842  -12.2234   26.3264 S   0  0  0  0  0  0  0  0  0  0  0  0
    7.5674  -13.3688   25.5291 C   0  0  0  0  0  0  0  0  0  0  0  0
    7.0539  -13.7014   24.1277 C   0  0  0  0  0  0  0  0  0  0  0  0
    8.1024  -14.5639   23.4483 C   0  0  2  0  0  0  0  0  0  0  0  0
    7.6781  -14.7313   22.0740 N   0  0  0  0  0  0  0  0  0  0  0  0
    8.3069  -15.8411   24.1380 C   0  0  0  0  0  0  0  0  0  0  0  0
    7.7630  -16.8726   23.6775 O   0  0  0  0  0  0  0  0  0  0  0  0
    9.1030  -15.9132   25.3027 N   0  0  0  0  0  0  0  0  0  0  0  0
    9.8781  -17.1037   25.5666 C   0  0  1  0  0  0  0  0  0  0  0  0
   10.8378  -17.3531   24.4270 C   0  0  0  0  0  0  0  0  0  0  0  0
   11.4077  -18.6936   24.5255 C   0  0  0  0  0  0  0  0  0  0  0  0
   12.3268  -19.0616   23.7486 O   0  0  0  0  0  0  0  0  0  0  0  0
   10.5798  -16.9085   26.8582 C   0  0  0  0  0  0  0  0  0  0  0  0
   11.6403  -16.0162   27.0379 O   0  0  0  0  0  0  0  0  0  0  0  0
   10.9551  -19.6204   25.4862 O   0  0  0  0  0  0  0  0  0  0  0  0
   10.2312  -17.5706   27.8891 O   0  0  0  0  0  0  0  0  0  0  0  0
  2  1  1  0
  3  2  1  0
  3  4  1  6
  5  6  2  0
  5  3  1  0
  7  8  1  0
  9  8  1  0
  9 10  1  0
 11 10  1  1
 11 13  1  0
 11 12  1  0
 12  5  1  0
 13 15  1  0
 14 13  2  0
 15 16  1  0
 16 20  1  0
 16 17  1  6
 18 17  1  0
 18 19  2  0
 20 23  2  0
 20 21  1  0
 22 18  1  0
M  END
$$$$
