SMD.pdb
     RDKit          3D

 23 22  0  0  1  0  0  0  0  0999 V2000
    8.0496  -18.2385   21.0748 O   0  0  0  0  0  0  0  0  0  0  0  0
    7.0605  -17.4769   20.4562 C   0  0  0  0  0  0  0  0  0  0  0  0
    7.5587  -16.0829   20.1328 C   0  0  2  0  0  0  0  0  0  0  0  0
    8.4688  -16.2026   19.0127 N   0  0  0  0  0  0  0  0  0  0  0  0
    8.2391  -15.4989   21.3186 C   0  0  0  0  0  0  0  0  0  0  0  0
    9.5042  -15.4919   21.4441 O   0  0  0  0  0  0  0  0  0  0  0  0
    7.0708  -11.3933   27.9183 C   0  0  0  0  0  0  0  0  0  0  0  0
    6.2766  -12.3717   26.6138 S   0  0  0  0  0  0  0  0  0  0  0  0
    7.5967  -13.1811   25.6393 C   0  0  0  0  0  0  0  0  0  0  0  0
    6.9578  -13.8744   24.4354 C   0  0  0  0  0  0  0  0  0  0  0  0
    8.0771  -14.4837   23.6103 C   0  0  2  0  0  0  0  0  0  0  0  0
    7.4852  -14.9220   22.3636 N   0  0  0  0  0  0  0  0  0  0  0  0
    8.7693  -15.5637   24.3198 C   0  0  0  0  0  0  0  0  0  0  0  0
    8.3384  -16.7357   24.2085 O   0  0  0  0  0  0  0  0  0  0  0  0
    9.9037  -15.2928   25.1169 N   0  0  0  0  0  0  0  0  0  0  0  0
   10.6847  -16.3878   25.6447 C   0  0  1  0  0  0  0  0  0  0  0  0
    9.8538  -17.6492   25.6595 C   0  0  0  0  0  0  0  0  0  0  0  0
    9.8536  -18.2430   26.9932 C   0  0  0  0  0  0  0  0  0  0  0  0
    9.5325  -17.5620   28.0016 O   0  0  0  0  0  0  0  0  0  0  0  0
   11.8972  -16.5248   24.8021 C   0  0  0  0  0  0  0  0  0  0  0  0
   11.8958  -16.3839   23.4117 O   0  0  0  0  0  0  0  0  0  0  0  0
   10.2098  -19.5906   27.2024 O   0  0  0  0  0  0  0  0  0  0  0  0
   13.0258  -16.7862   25.3320 O   0  0  0  0  0  0  0  0  0  0  0  0
  2  1  1  0
  3  2  1  0
  3  4  1  6
  5  6  2  0
  5  3  1  0
  7  8  1  0
  9  8  1  0
  9 10  1  0
 11 10  1  1
 11 13  1  0
 11 12  1  0
 12  5  1  0
 13 15  1  0
 14 13  2  0
 15 16  1  0
 16 20  1  0
 16 17  1  6
 18 17  1  0
 18 19  2  0
 20 23  2  0
 20 21  1  0
 22 18  1  0
M  END
$$$$
