SMD.pdb
     RDKit          3D

 23 22  0  0  1  0  0  0  0  0999 V2000
    7.3505  -16.9276   20.2687 O   0  0  0  0  0  0  0  0  0  0  0  0
    6.5327  -15.8253   20.0289 C   0  0  0  0  0  0  0  0  0  0  0  0
    7.2882  -14.5258   20.2202 C   0  0  2  0  0  0  0  0  0  0  0  0
    8.2915  -14.4565   19.1782 N   0  0  0  0  0  0  0  0  0  0  0  0
    7.9112  -14.4942   21.5696 C   0  0  0  0  0  0  0  0  0  0  0  0
    9.1080  -14.8697   21.7770 O   0  0  0  0  0  0  0  0  0  0  0  0
    7.7989  -12.0045   28.6533 C   0  0  0  0  0  0  0  0  0  0  0  0
    7.0370  -11.9998   27.0073 S   0  0  0  0  0  0  0  0  0  0  0  0
    7.0393  -13.7203   26.3849 C   0  0  0  0  0  0  0  0  0  0  0  0
    6.5124  -13.7195   24.9494 C   0  0  0  0  0  0  0  0  0  0  0  0
    7.6347  -14.2041   24.0492 C   0  0  2  0  0  0  0  0  0  0  0  0
    7.1773  -14.0366   22.6855 N   0  0  0  0  0  0  0  0  0  0  0  0
    8.0342  -15.5825   24.3479 C   0  0  0  0  0  0  0  0  0  0  0  0
    7.6556  -16.5023   23.5846 O   0  0  0  0  0  0  0  0  0  0  0  0
    8.8327  -15.8744   25.4760 N   0  0  0  0  0  0  0  0  0  0  0  0
    9.7781  -16.9655   25.4200 C   0  0  1  0  0  0  0  0  0  0  0  0
   10.7890  -16.7118   24.3266 C   0  0  0  0  0  0  0  0  0  0  0  0
   11.8231  -17.7423   24.3402 C   0  0  0  0  0  0  0  0  0  0  0  0
   11.5242  -18.9568   24.2012 O   0  0  0  0  0  0  0  0  0  0  0  0
   10.4132  -17.0816   26.7550 C   0  0  0  0  0  0  0  0  0  0  0  0
   11.1374  -18.2006   27.1750 O   0  0  0  0  0  0  0  0  0  0  0  0
   13.1851  -17.4205   24.5082 O   0  0  0  0  0  0  0  0  0  0  0  0
   10.3187  -16.1328   27.5998 O   0  0  0  0  0  0  0  0  0  0  0  0
  2  1  1  0
  3  2  1  0
  3  4  1  6
  5  6  2  0
  5  3  1  0
  7  8  1  0
  9  8  1  0
  9 10  1  0
 11 10  1  1
 11 13  1  0
 11 12  1  0
 12  5  1  0
 13 15  1  0
 14 13  2  0
 15 16  1  0
 16 20  1  0
 16 17  1  6
 18 17  1  0
 18 19  2  0
 20 23  2  0
 20 21  1  0
 22 18  1  0
M  END
$$$$
