SMD.pdb
     RDKit          3D

 23 22  0  0  1  0  0  0  0  0999 V2000
    9.5099  -18.9047   21.1440 O   0  0  0  0  0  0  0  0  0  0  0  0
    8.6633  -17.8286   20.8862 C   0  0  0  0  0  0  0  0  0  0  0  0
    9.4236  -16.5178   20.8783 C   0  0  2  0  0  0  0  0  0  0  0  0
   10.4355  -16.6161   19.8470 N   0  0  0  0  0  0  0  0  0  0  0  0
   10.0360  -16.2778   22.2115 C   0  0  0  0  0  0  0  0  0  0  0  0
   11.2780  -16.4383   22.4302 O   0  0  0  0  0  0  0  0  0  0  0  0
    9.1814  -12.7842   29.1545 C   0  0  0  0  0  0  0  0  0  0  0  0
    8.3614  -13.2460   27.6040 S   0  0  0  0  0  0  0  0  0  0  0  0
    9.4595  -14.4086   26.7152 C   0  0  0  0  0  0  0  0  0  0  0  0
    8.8449  -14.7100   25.3478 C   0  0  0  0  0  0  0  0  0  0  0  0
    9.7642  -15.6876   24.6378 C   0  0  2  0  0  0  0  0  0  0  0  0
    9.2401  -15.8553   23.2984 N   0  0  0  0  0  0  0  0  0  0  0  0
    9.8932  -16.9572   25.3591 C   0  0  0  0  0  0  0  0  0  0  0  0
    9.2400  -17.9501   24.9602 O   0  0  0  0  0  0  0  0  0  0  0  0
   10.7386  -17.0646   26.4857 N   0  0  0  0  0  0  0  0  0  0  0  0
   11.1043  -18.3709   26.9833 C   0  0  1  0  0  0  0  0  0  0  0  0
   12.3619  -18.8474   26.2953 C   0  0  0  0  0  0  0  0  0  0  0  0
   12.0587  -19.9492   25.3868 C   0  0  0  0  0  0  0  0  0  0  0  0
   10.8828  -20.3814   25.2680 O   0  0  0  0  0  0  0  0  0  0  0  0
   11.2753  -18.2627   28.4523 C   0  0  0  0  0  0  0  0  0  0  0  0
   11.8552  -17.1609   29.0869 O   0  0  0  0  0  0  0  0  0  0  0  0
   13.0623  -20.5671   24.6136 O   0  0  0  0  0  0  0  0  0  0  0  0
   10.8874  -19.2035   29.2186 O   0  0  0  0  0  0  0  0  0  0  0  0
  2  1  1  0
  3  2  1  0
  3  4  1  6
  5  6  2  0
  5  3  1  0
  7  8  1  0
  9  8  1  0
  9 10  1  0
 11 10  1  1
 11 13  1  0
 11 12  1  0
 12  5  1  0
 13 15  1  0
 14 13  2  0
 15 16  1  0
 16 20  1  0
 16 17  1  6
 18 17  1  0
 18 19  2  0
 20 23  2  0
 20 21  1  0
 22 18  1  0
M  END
$$$$
