SMD.pdb
     RDKit          3D

 23 22  0  0  1  0  0  0  0  0999 V2000
    7.9928  -16.5441   20.0047 O   0  0  0  0  0  0  0  0  0  0  0  0
    6.8310  -15.7877   20.1444 C   0  0  0  0  0  0  0  0  0  0  0  0
    7.1427  -14.3766   20.5999 C   0  0  2  0  0  0  0  0  0  0  0  0
    7.9318  -13.7545   19.5570 N   0  0  0  0  0  0  0  0  0  0  0  0
    7.8848  -14.4107   21.8877 C   0  0  0  0  0  0  0  0  0  0  0  0
    9.1472  -14.2752   21.9510 O   0  0  0  0  0  0  0  0  0  0  0  0
    6.7347  -10.5682   26.8713 C   0  0  0  0  0  0  0  0  0  0  0  0
    7.3509  -12.2701   26.7535 S   0  0  0  0  0  0  0  0  0  0  0  0
    6.3216  -13.1539   25.5259 C   0  0  0  0  0  0  0  0  0  0  0  0
    6.7923  -14.6069   25.4517 C   0  0  0  0  0  0  0  0  0  0  0  0
    7.8689  -14.6858   24.3843 C   0  0  2  0  0  0  0  0  0  0  0  0
    7.1954  -14.5985   23.1054 N   0  0  0  0  0  0  0  0  0  0  0  0
    8.6925  -15.8919   24.5101 C   0  0  0  0  0  0  0  0  0  0  0  0
    8.2450  -16.9795   24.0757 O   0  0  0  0  0  0  0  0  0  0  0  0
    9.9700  -15.8344   25.1102 N   0  0  0  0  0  0  0  0  0  0  0  0
   10.7712  -17.0332   25.2027 C   0  0  1  0  0  0  0  0  0  0  0  0
   12.2082  -16.7164   24.8616 C   0  0  0  0  0  0  0  0  0  0  0  0
   13.0386  -17.9096   24.9970 C   0  0  0  0  0  0  0  0  0  0  0  0
   13.4639  -18.2739   26.1240 O   0  0  0  0  0  0  0  0  0  0  0  0
   10.6261  -17.5681   26.5781 C   0  0  0  0  0  0  0  0  0  0  0  0
   11.1100  -18.8160   26.9803 O   0  0  0  0  0  0  0  0  0  0  0  0
   13.3934  -18.6937   23.8808 O   0  0  0  0  0  0  0  0  0  0  0  0
   10.0333  -16.8871   27.4768 O   0  0  0  0  0  0  0  0  0  0  0  0
  2  1  1  0
  3  2  1  0
  3  4  1  6
  5  6  2  0
  5  3  1  0
  7  8  1  0
  9  8  1  0
  9 10  1  0
 11 10  1  1
 11 13  1  0
 11 12  1  0
 12  5  1  0
 13 15  1  0
 14 13  2  0
 15 16  1  0
 16 20  1  0
 16 17  1  1
 18 17  1  0
 18 19  2  0
 20 23  2  0
 20 21  1  0
 22 18  1  0
M  END
$$$$
