SMD.pdb
     RDKit          3D

 23 22  0  0  1  0  0  0  0  0999 V2000
    7.1498  -18.1257   21.0482 O   0  0  0  0  0  0  0  0  0  0  0  0
    7.9573  -17.6703   20.0081 C   0  0  0  0  0  0  0  0  0  0  0  0
    8.1202  -16.1645   20.0547 C   0  0  2  0  0  0  0  0  0  0  0  0
    9.0011  -15.7954   18.9661 N   0  0  0  0  0  0  0  0  0  0  0  0
    8.6863  -15.7552   21.3670 C   0  0  0  0  0  0  0  0  0  0  0  0
    9.9244  -15.8572   21.6372 O   0  0  0  0  0  0  0  0  0  0  0  0
    7.2818  -11.5202   27.7853 C   0  0  0  0  0  0  0  0  0  0  0  0
    6.4917  -12.4807   26.4651 S   0  0  0  0  0  0  0  0  0  0  0  0
    7.7827  -13.5029   25.6677 C   0  0  0  0  0  0  0  0  0  0  0  0
    7.2555  -13.9857   24.3159 C   0  0  0  0  0  0  0  0  0  0  0  0
    8.3394  -14.8367   23.6789 C   0  0  2  0  0  0  0  0  0  0  0  0
    7.8485  -15.2295   22.3744 N   0  0  0  0  0  0  0  0  0  0  0  0
    8.7116  -15.9831   24.5133 C   0  0  0  0  0  0  0  0  0  0  0  0
    7.9542  -16.9817   24.5442 O   0  0  0  0  0  0  0  0  0  0  0  0
    9.9031  -15.9672   25.2719 N   0  0  0  0  0  0  0  0  0  0  0  0
   10.4523  -17.2085   25.7668 C   0  0  1  0  0  0  0  0  0  0  0  0
   11.8554  -17.3944   25.2389 C   0  0  0  0  0  0  0  0  0  0  0  0
   12.4668  -18.5832   25.8258 C   0  0  0  0  0  0  0  0  0  0  0  0
   13.4183  -18.4815   26.6431 O   0  0  0  0  0  0  0  0  0  0  0  0
   10.4123  -17.1610   27.2484 C   0  0  0  0  0  0  0  0  0  0  0  0
   10.1616  -15.9975   27.9808 O   0  0  0  0  0  0  0  0  0  0  0  0
   12.0194  -19.8803   25.5030 O   0  0  0  0  0  0  0  0  0  0  0  0
   10.6128  -18.2157   27.9340 O   0  0  0  0  0  0  0  0  0  0  0  0
  2  1  1  0
  3  2  1  0
  3  4  1  6
  5  6  2  0
  5  3  1  0
  7  8  1  0
  9  8  1  0
  9 10  1  0
 11 10  1  1
 11 13  1  0
 11 12  1  0
 12  5  1  0
 13 15  1  0
 14 13  2  0
 15 16  1  0
 16 20  1  0
 16 17  1  1
 18 17  1  0
 18 19  2  0
 20 23  2  0
 20 21  1  0
 22 18  1  0
M  END
$$$$
