SMD.pdb
     RDKit          3D

 23 22  0  0  1  0  0  0  0  0999 V2000
    7.7016  -17.4062   20.7585 O   0  0  0  0  0  0  0  0  0  0  0  0
    6.8733  -16.3597   20.3589 C   0  0  0  0  0  0  0  0  0  0  0  0
    7.5744  -15.0222   20.4841 C   0  0  2  0  0  0  0  0  0  0  0  0
    8.5903  -14.9733   19.4531 N   0  0  0  0  0  0  0  0  0  0  0  0
    8.1748  -14.8881   21.8375 C   0  0  0  0  0  0  0  0  0  0  0  0
    9.4207  -15.0287   22.0477 O   0  0  0  0  0  0  0  0  0  0  0  0
    7.7724  -11.8507   27.5166 C   0  0  0  0  0  0  0  0  0  0  0  0
    6.2744  -11.6903   26.5065 S   0  0  0  0  0  0  0  0  0  0  0  0
    6.5797  -12.5389   24.9146 C   0  0  0  0  0  0  0  0  0  0  0  0
    6.7441  -14.0351   25.1841 C   0  0  0  0  0  0  0  0  0  0  0  0
    7.8767  -14.5369   24.3066 C   0  0  2  0  0  0  0  0  0  0  0  0
    7.3625  -14.5943   22.9542 N   0  0  0  0  0  0  0  0  0  0  0  0
    8.4105  -15.8228   24.7652 C   0  0  0  0  0  0  0  0  0  0  0  0
    7.7463  -16.8649   24.5537 O   0  0  0  0  0  0  0  0  0  0  0  0
    9.6524  -15.8915   25.4348 N   0  0  0  0  0  0  0  0  0  0  0  0
   10.2603  -17.1783   25.6841 C   0  0  1  0  0  0  0  0  0  0  0  0
   11.5913  -17.2621   24.9747 C   0  0  0  0  0  0  0  0  0  0  0  0
   12.2575  -18.5224   25.2897 C   0  0  0  0  0  0  0  0  0  0  0  0
   11.6859  -19.3949   25.9937 O   0  0  0  0  0  0  0  0  0  0  0  0
   10.3963  -17.3365   27.1522 C   0  0  0  0  0  0  0  0  0  0  0  0
   10.5254  -18.5729   27.7907 O   0  0  0  0  0  0  0  0  0  0  0  0
   13.5559  -18.8092   24.8220 O   0  0  0  0  0  0  0  0  0  0  0  0
   10.3998  -16.3156   27.9142 O   0  0  0  0  0  0  0  0  0  0  0  0
  2  1  1  0
  3  2  1  0
  3  4  1  6
  5  6  2  0
  5  3  1  0
  7  8  1  0
  9  8  1  0
  9 10  1  0
 11 10  1  1
 11 13  1  0
 11 12  1  0
 12  5  1  0
 13 15  1  0
 14 13  2  0
 15 16  1  0
 16 20  1  0
 16 17  1  6
 18 17  1  0
 18 19  2  0
 20 23  2  0
 20 21  1  0
 22 18  1  0
M  END
$$$$
