SMD.pdb
     RDKit          3D

 23 22  0  0  1  0  0  0  0  0999 V2000
    7.5723  -17.6538   20.4035 O   0  0  0  0  0  0  0  0  0  0  0  0
    7.0391  -16.4787   19.8780 C   0  0  0  0  0  0  0  0  0  0  0  0
    8.0465  -15.3477   19.9219 C   0  0  2  0  0  0  0  0  0  0  0  0
    9.1294  -15.7040   19.0288 N   0  0  0  0  0  0  0  0  0  0  0  0
    8.5367  -15.1577   21.3125 C   0  0  0  0  0  0  0  0  0  0  0  0
    9.7037  -15.5056   21.6776 O   0  0  0  0  0  0  0  0  0  0  0  0
    7.1464  -11.5386   28.1316 C   0  0  0  0  0  0  0  0  0  0  0  0
    6.4536  -11.9963   26.5191 S   0  0  0  0  0  0  0  0  0  0  0  0
    7.5931  -13.1980   25.7414 C   0  0  0  0  0  0  0  0  0  0  0  0
    7.1031  -13.4852   24.3217 C   0  0  0  0  0  0  0  0  0  0  0  0
    8.0966  -14.4354   23.6776 C   0  0  2  0  0  0  0  0  0  0  0  0
    7.7035  -14.5726   22.2906 N   0  0  0  0  0  0  0  0  0  0  0  0
    8.1713  -15.7223   24.3756 C   0  0  0  0  0  0  0  0  0  0  0  0
    7.5218  -16.6952   23.9245 O   0  0  0  0  0  0  0  0  0  0  0  0
    8.9610  -15.8685   25.5377 N   0  0  0  0  0  0  0  0  0  0  0  0
    9.7109  -17.0861   25.7442 C   0  0  1  0  0  0  0  0  0  0  0  0
   10.6629  -17.3030   24.5916 C   0  0  0  0  0  0  0  0  0  0  0  0
   11.5176  -18.4585   24.8479 C   0  0  0  0  0  0  0  0  0  0  0  0
   11.3355  -19.1825   25.8610 O   0  0  0  0  0  0  0  0  0  0  0  0
   10.4191  -16.9656   27.0415 C   0  0  0  0  0  0  0  0  0  0  0  0
   11.0263  -15.7886   27.4875 O   0  0  0  0  0  0  0  0  0  0  0  0
   12.5713  -18.8059   23.9784 O   0  0  0  0  0  0  0  0  0  0  0  0
   10.5048  -17.9657   27.8258 O   0  0  0  0  0  0  0  0  0  0  0  0
  2  1  1  0
  3  2  1  0
  3  4  1  6
  5  6  2  0
  5  3  1  0
  7  8  1  0
  9  8  1  0
  9 10  1  0
 11 10  1  1
 11 13  1  0
 11 12  1  0
 12  5  1  0
 13 15  1  0
 14 13  2  0
 15 16  1  0
 16 20  1  0
 16 17  1  6
 18 17  1  0
 18 19  2  0
 20 23  2  0
 20 21  1  0
 22 18  1  0
M  END
$$$$
