SMD.pdb
     RDKit          3D

 23 22  0  0  1  0  0  0  0  0999 V2000
    8.0175  -16.0112   18.5758 O   0  0  0  0  0  0  0  0  0  0  0  0
    8.5362  -15.3771   19.7027 C   0  0  0  0  0  0  0  0  0  0  0  0
    8.6535  -16.3358   20.8703 C   0  0  2  0  0  0  0  0  0  0  0  0
    7.3275  -16.8560   21.1319 N   0  0  0  0  0  0  0  0  0  0  0  0
    9.1964  -15.6255   22.0581 C   0  0  0  0  0  0  0  0  0  0  0  0
   10.3423  -15.0749   22.0585 O   0  0  0  0  0  0  0  0  0  0  0  0
    6.2877  -11.3549   25.7996 C   0  0  0  0  0  0  0  0  0  0  0  0
    6.8607  -12.5274   27.0592 S   0  0  0  0  0  0  0  0  0  0  0  0
    8.2443  -13.4864   26.3425 C   0  0  0  0  0  0  0  0  0  0  0  0
    7.7384  -14.2139   25.0963 C   0  0  0  0  0  0  0  0  0  0  0  0
    8.9311  -14.8913   24.4455 C   0  0  2  0  0  0  0  0  0  0  0  0
    8.4401  -15.5392   23.2472 N   0  0  0  0  0  0  0  0  0  0  0  0
    9.6102  -15.8197   25.3542 C   0  0  0  0  0  0  0  0  0  0  0  0
    9.0838  -16.9334   25.5876 O   0  0  0  0  0  0  0  0  0  0  0  0
   10.8377  -15.4695   25.9591 N   0  0  0  0  0  0  0  0  0  0  0  0
   11.5569  -16.4513   26.7380 C   0  0  1  0  0  0  0  0  0  0  0  0
   13.0405  -16.1773   26.6635 C   0  0  0  0  0  0  0  0  0  0  0  0
   13.4845  -16.1529   25.2729 C   0  0  0  0  0  0  0  0  0  0  0  0
   13.2026  -17.0970   24.4900 O   0  0  0  0  0  0  0  0  0  0  0  0
   11.0441  -16.3885   28.1280 C   0  0  0  0  0  0  0  0  0  0  0  0
   11.4235  -17.2792   29.1358 O   0  0  0  0  0  0  0  0  0  0  0  0
   14.2397  -15.0805   24.7568 O   0  0  0  0  0  0  0  0  0  0  0  0
   10.2082  -15.4895   28.4680 O   0  0  0  0  0  0  0  0  0  0  0  0
  2  1  1  0
  3  2  1  0
  3  4  1  1
  5  6  2  0
  5  3  1  0
  7  8  1  0
  9  8  1  0
  9 10  1  0
 11 10  1  1
 11 13  1  0
 11 12  1  0
 12  5  1  0
 13 15  1  0
 14 13  2  0
 15 16  1  0
 16 20  1  0
 16 17  1  1
 18 17  1  0
 18 19  2  0
 20 23  2  0
 20 21  1  0
 22 18  1  0
M  END
$$$$
