SIE.pdb
     RDKit          3D

 24 23  0  0  1  0  0  0  0  0999 V2000
   14.2427  -12.4985  -16.2217 O   0  0  0  0  0  0  0  0  0  0  0  0
   15.0614  -11.6516  -15.4761 C   0  0  0  0  0  0  0  0  0  0  0  0
   16.4148  -12.3224  -15.3064 C   0  0  2  0  0  0  0  0  0  0  0  0
   16.3537  -13.4510  -14.4298 N   0  0  0  0  0  0  0  0  0  0  0  0
   17.3354  -11.3088  -14.7257 C   0  0  0  0  0  0  0  0  0  0  0  0
   17.3051  -10.9818  -13.5171 O   0  0  0  0  0  0  0  0  0  0  0  0
   22.3276   -9.8377  -13.6861 C   0  0  0  0  0  0  0  0  0  0  0  0
   21.7310   -9.2978  -15.0093 C   0  0  0  0  0  0  0  0  0  0  0  0
   20.6528  -10.2522  -15.4126 C   0  0  2  0  0  0  0  0  0  0  0  0
   20.8354  -10.5488  -16.8871 C   0  0  0  0  0  0  0  0  0  0  0  0
   19.2814   -9.7449  -15.0938 C   0  0  2  0  0  0  0  0  0  0  0  0
   18.2728  -10.6979  -15.5685 N   0  0  0  0  0  0  0  0  0  0  0  0
   18.9477   -8.4239  -15.6490 C   0  0  0  0  0  0  0  0  0  0  0  0
   18.1113   -8.3584  -16.6072 O   0  0  0  0  0  0  0  0  0  0  0  0
   19.4837   -7.2154  -15.1951 N   0  0  0  0  0  0  0  0  0  0  0  0
   18.9782   -5.9075  -15.6096 C   0  0  1  0  0  0  0  0  0  0  0  0
   17.5270   -5.7656  -15.2070 C   0  0  0  0  0  0  0  0  0  0  0  0
   16.9979   -4.3790  -15.5373 C   0  0  0  0  0  0  0  0  0  0  0  0
   15.9920   -4.0091  -14.5133 C   0  0  0  0  0  0  0  0  0  0  0  0
   15.6315   -4.7546  -13.5797 O   0  0  0  0  0  0  0  0  0  0  0  0
   19.7931   -4.8111  -15.0814 C   0  0  0  0  0  0  0  0  0  0  0  0
   20.7627   -4.9566  -14.1040 O   0  0  0  0  0  0  0  0  0  0  0  0
   15.4018   -2.7479  -14.5861 O   0  0  0  0  0  0  0  0  0  0  0  0
   19.6082   -3.6605  -15.5379 O   0  0  0  0  0  0  0  0  0  0  0  0
  2  3  1  0
  2  1  1  0
  3  4  1  1
  5  3  1  0
  5  6  2  0
  7  8  1  0
  8  9  1  0
  9 11  1  0
  9 10  1  6
 11 12  1  6
 11 13  1  0
 12  5  1  0
 13 15  1  0
 14 13  2  0
 15 16  1  0
 16 21  1  0
 17 18  1  0
 16 17  1  1
 19 23  1  0
 19 18  1  0
 20 19  2  0
 21 24  2  0
 21 22  1  0
M  END
$$$$
