SIE.pdb
     RDKit          3D

 24 23  0  0  1  0  0  0  0  0999 V2000
   27.6793  -13.2775  -15.7669 O   0  0  0  0  0  0  0  0  0  0  0  0
   26.5460  -12.5662  -16.1581 C   0  0  0  0  0  0  0  0  0  0  0  0
   25.5767  -13.5351  -16.8154 C   0  0  2  0  0  0  0  0  0  0  0  0
   26.1026  -14.0911  -18.0237 N   0  0  0  0  0  0  0  0  0  0  0  0
   24.3416  -12.7699  -17.1333 C   0  0  0  0  0  0  0  0  0  0  0  0
   24.1555  -12.2168  -18.2416 O   0  0  0  0  0  0  0  0  0  0  0  0
   19.7390  -14.8801  -16.8156 C   0  0  0  0  0  0  0  0  0  0  0  0
   20.8098  -13.8560  -17.2662 C   0  0  0  0  0  0  0  0  0  0  0  0
   20.9297  -12.8510  -16.1655 C   0  0  2  0  0  0  0  0  0  0  0  0
   19.6109  -12.1099  -16.0800 C   0  0  0  0  0  0  0  0  0  0  0  0
   22.0956  -11.9303  -16.3465 C   0  0  2  0  0  0  0  0  0  0  0  0
   23.3490  -12.6662  -16.1503 N   0  0  0  0  0  0  0  0  0  0  0  0
   22.1210  -10.7556  -15.4611 C   0  0  0  0  0  0  0  0  0  0  0  0
   22.2713  -10.9382  -14.2096 O   0  0  0  0  0  0  0  0  0  0  0  0
   21.9953   -9.4332  -15.8956 N   0  0  0  0  0  0  0  0  0  0  0  0
   21.9645   -8.2891  -14.9857 C   0  0  1  0  0  0  0  0  0  0  0  0
   22.2293   -7.0132  -15.7540 C   0  0  0  0  0  0  0  0  0  0  0  0
   22.2810   -5.8118  -14.8237 C   0  0  0  0  0  0  0  0  0  0  0  0
   22.5385   -4.6020  -15.6406 C   0  0  0  0  0  0  0  0  0  0  0  0
   22.6778   -4.6070  -16.8807 O   0  0  0  0  0  0  0  0  0  0  0  0
   20.7074   -8.2159  -14.2376 C   0  0  0  0  0  0  0  0  0  0  0  0
   20.6110   -7.8694  -12.9007 O   0  0  0  0  0  0  0  0  0  0  0  0
   22.6336   -3.3706  -14.9934 O   0  0  0  0  0  0  0  0  0  0  0  0
   19.6424   -8.4828  -14.8384 O   0  0  0  0  0  0  0  0  0  0  0  0
  2  3  1  0
  2  1  1  0
  3  4  1  6
  5  3  1  0
  5  6  2  0
  7  8  1  0
  8  9  1  0
  9 11  1  0
  9 10  1  6
 11 12  1  1
 11 13  1  0
 12  5  1  0
 13 15  1  0
 14 13  2  0
 15 16  1  0
 16 21  1  0
 17 18  1  0
 16 17  1  6
 19 23  1  0
 19 18  1  0
 20 19  2  0
 21 24  2  0
 21 22  1  0
M  END
$$$$
