SIE.pdb
     RDKit          3D

 24 23  0  0  1  0  0  0  0  0999 V2000
   20.4170   -9.6065  -20.9949 O   0  0  0  0  0  0  0  0  0  0  0  0
   20.7717   -9.4681  -19.6539 C   0  0  0  0  0  0  0  0  0  0  0  0
   21.5028  -10.7282  -19.2202 C   0  0  2  0  0  0  0  0  0  0  0  0
   20.6428  -11.8707  -19.1920 N   0  0  0  0  0  0  0  0  0  0  0  0
   22.0237  -10.4816  -17.8490 C   0  0  0  0  0  0  0  0  0  0  0  0
   21.3282  -10.6508  -16.8212 O   0  0  0  0  0  0  0  0  0  0  0  0
   26.6695  -12.3888  -16.3843 C   0  0  0  0  0  0  0  0  0  0  0  0
   25.2152  -11.8662  -16.2823 C   0  0  0  0  0  0  0  0  0  0  0  0
   25.2957  -10.3731  -16.3001 C   0  0  2  0  0  0  0  0  0  0  0  0
   26.0509   -9.9430  -15.0591 C   0  0  0  0  0  0  0  0  0  0  0  0
   23.9525   -9.7222  -16.4099 C   0  0  2  0  0  0  0  0  0  0  0  0
   23.3461  -10.0424  -17.7063 N   0  0  0  0  0  0  0  0  0  0  0  0
   23.9413   -8.2589  -16.2579 C   0  0  0  0  0  0  0  0  0  0  0  0
   24.5607   -7.5516  -17.1170 O   0  0  0  0  0  0  0  0  0  0  0  0
   23.2887   -7.5743  -15.2288 N   0  0  0  0  0  0  0  0  0  0  0  0
   23.2771   -6.1165  -15.1161 C   0  0  1  0  0  0  0  0  0  0  0  0
   22.6374   -5.5104  -16.3457 C   0  0  0  0  0  0  0  0  0  0  0  0
   21.1667   -5.8839  -16.4411 C   0  0  0  0  0  0  0  0  0  0  0  0
   20.5851   -5.1868  -17.6129 C   0  0  0  0  0  0  0  0  0  0  0  0
   20.0669   -4.0523  -17.5707 O   0  0  0  0  0  0  0  0  0  0  0  0
   22.6176   -5.6656  -13.8885 C   0  0  0  0  0  0  0  0  0  0  0  0
   22.6287   -4.3602  -13.4279 O   0  0  0  0  0  0  0  0  0  0  0  0
   20.6121   -5.8296  -18.8499 O   0  0  0  0  0  0  0  0  0  0  0  0
   21.9994   -6.5100  -13.2020 O   0  0  0  0  0  0  0  0  0  0  0  0
  2  3  1  0
  2  1  1  0
  3  4  1  1
  5  3  1  0
  5  6  2  0
  7  8  1  0
  8  9  1  0
  9 11  1  0
  9 10  1  1
 11 12  1  6
 11 13  1  0
 12  5  1  0
 13 15  1  0
 14 13  2  0
 15 16  1  0
 16 21  1  0
 17 18  1  0
 16 17  1  6
 19 23  1  0
 19 18  1  0
 20 19  2  0
 21 24  2  0
 21 22  1  0
M  END
$$$$
