SIE.pdb
     RDKit          3D

 24 23  0  0  1  0  0  0  0  0999 V2000
   21.3411  -14.6520  -20.0426 O   0  0  0  0  0  0  0  0  0  0  0  0
   21.7267  -13.7936  -19.0141 C   0  0  0  0  0  0  0  0  0  0  0  0
   22.9479  -14.3856  -18.3297 C   0  0  2  0  0  0  0  0  0  0  0  0
   22.7198  -15.7229  -17.8767 N   0  0  0  0  0  0  0  0  0  0  0  0
   23.2526  -13.5235  -17.1565 C   0  0  0  0  0  0  0  0  0  0  0  0
   22.6293  -13.6106  -16.0737 O   0  0  0  0  0  0  0  0  0  0  0  0
   28.3105  -12.2709  -15.8947 C   0  0  0  0  0  0  0  0  0  0  0  0
   26.8041  -12.5908  -15.7305 C   0  0  0  0  0  0  0  0  0  0  0  0
   26.0587  -11.3654  -16.1533 C   0  0  2  0  0  0  0  0  0  0  0  0
   26.4293  -10.2532  -15.1934 C   0  0  0  0  0  0  0  0  0  0  0  0
   24.5806  -11.5860  -16.2343 C   0  0  2  0  0  0  0  0  0  0  0  0
   24.2791  -12.5773  -17.2721 N   0  0  0  0  0  0  0  0  0  0  0  0
   23.7735  -10.3872  -16.5101 C   0  0  0  0  0  0  0  0  0  0  0  0
   23.8851   -9.8251  -17.6475 O   0  0  0  0  0  0  0  0  0  0  0  0
   22.8761   -9.8113  -15.6066 N   0  0  0  0  0  0  0  0  0  0  0  0
   22.0626   -8.6378  -15.9213 C   0  0  1  0  0  0  0  0  0  0  0  0
   20.6478   -9.0643  -16.2453 C   0  0  0  0  0  0  0  0  0  0  0  0
   19.7953   -7.8744  -16.6561 C   0  0  0  0  0  0  0  0  0  0  0  0
   18.4314   -8.3648  -16.9668 C   0  0  0  0  0  0  0  0  0  0  0  0
   17.5803   -8.6691  -16.1064 O   0  0  0  0  0  0  0  0  0  0  0  0
   22.0923   -7.6442  -14.8457 C   0  0  0  0  0  0  0  0  0  0  0  0
   21.9335   -6.2818  -15.0337 O   0  0  0  0  0  0  0  0  0  0  0  0
   18.0619   -8.4996  -18.3045 O   0  0  0  0  0  0  0  0  0  0  0  0
   22.2729   -8.0434  -13.6733 O   0  0  0  0  0  0  0  0  0  0  0  0
  2  3  1  0
  2  1  1  0
  3  4  1  1
  5  3  1  0
  5  6  2  0
  7  8  1  0
  8  9  1  0
  9 11  1  0
  9 10  1  1
 11 12  1  6
 11 13  1  0
 12  5  1  0
 13 15  1  0
 14 13  2  0
 15 16  1  0
 16 21  1  0
 17 18  1  0
 16 17  1  1
 19 23  1  0
 19 18  1  0
 20 19  2  0
 21 24  2  0
 21 22  1  0
M  END
$$$$
