SIE.pdb
     RDKit          3D

 24 23  0  0  1  0  0  0  0  0999 V2000
   20.3276  -11.8176  -20.8268 O   0  0  0  0  0  0  0  0  0  0  0  0
   20.7553  -11.3367  -19.5902 C   0  0  0  0  0  0  0  0  0  0  0  0
   21.7268  -12.3431  -18.9958 C   0  0  2  0  0  0  0  0  0  0  0  0
   21.1193  -13.6197  -18.7794 N   0  0  0  0  0  0  0  0  0  0  0  0
   22.1787  -11.7954  -17.6889 C   0  0  0  0  0  0  0  0  0  0  0  0
   21.6552  -12.1258  -16.6001 O   0  0  0  0  0  0  0  0  0  0  0  0
   27.2788  -10.6792  -14.9895 C   0  0  0  0  0  0  0  0  0  0  0  0
   25.8402  -10.1103  -15.0620 C   0  0  0  0  0  0  0  0  0  0  0  0
   25.2084  -10.7008  -16.2819 C   0  0  2  0  0  0  0  0  0  0  0  0
   26.0693  -10.3215  -17.4695 C   0  0  0  0  0  0  0  0  0  0  0  0
   23.7801  -10.2874  -16.4521 C   0  0  2  0  0  0  0  0  0  0  0  0
   23.2329  -10.8730  -17.6803 N   0  0  0  0  0  0  0  0  0  0  0  0
   23.5400   -8.8367  -16.5003 C   0  0  0  0  0  0  0  0  0  0  0  0
   23.6155   -8.2430  -17.6246 O   0  0  0  0  0  0  0  0  0  0  0  0
   23.2260   -8.0482  -15.3898 N   0  0  0  0  0  0  0  0  0  0  0  0
   22.6970   -6.6892  -15.4944 C   0  0  1  0  0  0  0  0  0  0  0  0
   21.3858   -6.7040  -16.2486 C   0  0  0  0  0  0  0  0  0  0  0  0
   20.8576   -5.2942  -16.4609 C   0  0  0  0  0  0  0  0  0  0  0  0
   19.5515   -5.3867  -17.1557 C   0  0  0  0  0  0  0  0  0  0  0  0
   19.0258   -6.4562  -17.5260 O   0  0  0  0  0  0  0  0  0  0  0  0
   22.5566   -6.0519  -14.1831 C   0  0  0  0  0  0  0  0  0  0  0  0
   22.6776   -4.6915  -13.9568 O   0  0  0  0  0  0  0  0  0  0  0  0
   18.8537   -4.2087  -17.4193 O   0  0  0  0  0  0  0  0  0  0  0  0
   22.3105   -6.7775  -13.1935 O   0  0  0  0  0  0  0  0  0  0  0  0
  2  3  1  0
  2  1  1  0
  3  4  1  1
  5  3  1  0
  5  6  2  0
  7  8  1  0
  8  9  1  0
  9 11  1  0
  9 10  1  6
 11 12  1  6
 11 13  1  0
 12  5  1  0
 13 15  1  0
 14 13  2  0
 15 16  1  0
 16 21  1  0
 17 18  1  0
 16 17  1  1
 19 23  1  0
 19 18  1  0
 20 19  2  0
 21 24  2  0
 21 22  1  0
M  END
$$$$
