SIE.pdb
     RDKit          3D

 24 23  0  0  1  0  0  0  0  0999 V2000
   20.1775  -11.6820  -20.2923 O   0  0  0  0  0  0  0  0  0  0  0  0
   21.1341  -11.0359  -19.5107 C   0  0  0  0  0  0  0  0  0  0  0  0
   21.8148  -12.0737  -18.6332 C   0  0  2  0  0  0  0  0  0  0  0  0
   20.9249  -13.1252  -18.2483 N   0  0  0  0  0  0  0  0  0  0  0  0
   22.2887  -11.3703  -17.4114 C   0  0  0  0  0  0  0  0  0  0  0  0
   21.5724  -11.2255  -16.3941 O   0  0  0  0  0  0  0  0  0  0  0  0
   27.4821  -12.0294  -16.1681 C   0  0  0  0  0  0  0  0  0  0  0  0
   25.9476  -11.8840  -16.0178 C   0  0  0  0  0  0  0  0  0  0  0  0
   25.6391  -10.4292  -16.1742 C   0  0  2  0  0  0  0  0  0  0  0  0
   26.3104   -9.6960  -15.0308 C   0  0  0  0  0  0  0  0  0  0  0  0
   24.1700  -10.1538  -16.2499 C   0  0  2  0  0  0  0  0  0  0  0  0
   23.5893  -10.8503  -17.4025 N   0  0  0  0  0  0  0  0  0  0  0  0
   23.7937   -8.7348  -16.3462 C   0  0  0  0  0  0  0  0  0  0  0  0
   23.8536   -8.1637  -17.4830 O   0  0  0  0  0  0  0  0  0  0  0  0
   23.3644   -7.9542  -15.2693 N   0  0  0  0  0  0  0  0  0  0  0  0
   22.8121   -6.6091  -15.4230 C   0  0  1  0  0  0  0  0  0  0  0  0
   21.6177   -6.6461  -16.3505 C   0  0  0  0  0  0  0  0  0  0  0  0
   21.0252   -5.2587  -16.5396 C   0  0  0  0  0  0  0  0  0  0  0  0
   19.7212   -5.4003  -17.2301 C   0  0  0  0  0  0  0  0  0  0  0  0
   18.9200   -4.4625  -17.4197 O   0  0  0  0  0  0  0  0  0  0  0  0
   22.4735   -6.0034  -14.1332 C   0  0  0  0  0  0  0  0  0  0  0  0
   22.4955   -4.6431  -13.8771 O   0  0  0  0  0  0  0  0  0  0  0  0
   19.3529   -6.6589  -17.7040 O   0  0  0  0  0  0  0  0  0  0  0  0
   22.1403   -6.7582  -13.1920 O   0  0  0  0  0  0  0  0  0  0  0  0
  2  3  1  0
  2  1  1  0
  3  4  1  1
  5  3  1  0
  5  6  2  0
  7  8  1  0
  8  9  1  0
  9 11  1  0
  9 10  1  1
 11 12  1  6
 11 13  1  0
 12  5  1  0
 13 15  1  0
 14 13  2  0
 15 16  1  0
 16 21  1  0
 17 18  1  0
 16 17  1  6
 19 23  1  0
 19 18  1  0
 20 19  2  0
 21 24  2  0
 21 22  1  0
M  END
$$$$
