SIE.pdb
     RDKit          3D

 24 23  0  0  1  0  0  0  0  0999 V2000
   44.3010   -9.3807   -3.9799 O   0  0  0  0  0  0  0  0  0  0  0  0
   43.5017   -8.9493   -5.0376 C   0  0  0  0  0  0  0  0  0  0  0  0
   43.1364  -10.1574   -5.8845 C   0  0  2  0  0  0  0  0  0  0  0  0
   44.2831  -10.7620   -6.4887 N   0  0  0  0  0  0  0  0  0  0  0  0
   42.2213   -9.6800   -6.9555 C   0  0  0  0  0  0  0  0  0  0  0  0
   42.6173   -9.4116   -8.1130 O   0  0  0  0  0  0  0  0  0  0  0  0
   37.3658  -11.3519   -6.0644 C   0  0  0  0  0  0  0  0  0  0  0  0
   38.3864  -11.0186   -7.1806 C   0  0  0  0  0  0  0  0  0  0  0  0
   38.5035   -9.5284   -7.2212 C   0  0  2  0  0  0  0  0  0  0  0  0
   37.4160   -9.0112   -8.1407 C   0  0  0  0  0  0  0  0  0  0  0  0
   39.8676   -9.0657   -7.6272 C   0  0  2  0  0  0  0  0  0  0  0  0
   40.8623   -9.5258   -6.6526 N   0  0  0  0  0  0  0  0  0  0  0  0
   40.0262   -7.6109   -7.7783 C   0  0  0  0  0  0  0  0  0  0  0  0
   39.9468   -6.8775   -6.7400 O   0  0  0  0  0  0  0  0  0  0  0  0
   40.2656   -6.9620   -8.9928 N   0  0  0  0  0  0  0  0  0  0  0  0
   40.5013   -5.5230   -9.1009 C   0  0  1  0  0  0  0  0  0  0  0  0
   41.4945   -5.2460  -10.2078 C   0  0  0  0  0  0  0  0  0  0  0  0
   41.7919   -3.7592  -10.3203 C   0  0  0  0  0  0  0  0  0  0  0  0
   42.6296   -3.5424  -11.5238 C   0  0  0  0  0  0  0  0  0  0  0  0
   43.8004   -3.9553  -11.6498 O   0  0  0  0  0  0  0  0  0  0  0  0
   39.2568   -4.7754   -9.2947 C   0  0  0  0  0  0  0  0  0  0  0  0
   39.0174   -3.5091   -8.7893 O   0  0  0  0  0  0  0  0  0  0  0  0
   42.0859   -2.8316  -12.5932 O   0  0  0  0  0  0  0  0  0  0  0  0
   38.3414   -5.3088   -9.9610 O   0  0  0  0  0  0  0  0  0  0  0  0
  2  3  1  0
  2  1  1  0
  3  4  1  6
  5  3  1  0
  5  6  2  0
  7  8  1  0
  8  9  1  0
  9 11  1  0
  9 10  1  6
 11 12  1  1
 11 13  1  0
 12  5  1  0
 13 15  1  0
 14 13  2  0
 15 16  1  0
 16 21  1  0
 17 18  1  0
 16 17  1  6
 19 23  1  0
 19 18  1  0
 20 19  2  0
 21 24  2  0
 21 22  1  0
M  END
$$$$
