SIE.pdb
     RDKit          3D

 24 23  0  0  1  0  0  0  0  0999 V2000
   20.0674  -10.5093  -18.5145 O   0  0  0  0  0  0  0  0  0  0  0  0
   21.0459  -11.4496  -18.8337 C   0  0  0  0  0  0  0  0  0  0  0  0
   21.3752  -12.2417  -17.5789 C   0  0  2  0  0  0  0  0  0  0  0  0
   20.2073  -12.7939  -16.9650 N   0  0  0  0  0  0  0  0  0  0  0  0
   22.0234  -11.3017  -16.6258 C   0  0  0  0  0  0  0  0  0  0  0  0
   21.4691  -10.9217  -15.5689 O   0  0  0  0  0  0  0  0  0  0  0  0
   27.2750  -11.9342  -15.7829 C   0  0  0  0  0  0  0  0  0  0  0  0
   25.7729  -11.6483  -15.5375 C   0  0  0  0  0  0  0  0  0  0  0  0
   25.5073  -10.2754  -16.0672 C   0  0  2  0  0  0  0  0  0  0  0  0
   26.3541   -9.3069  -15.2670 C   0  0  0  0  0  0  0  0  0  0  0  0
   24.0539   -9.9189  -16.0489 C   0  0  2  0  0  0  0  0  0  0  0  0
   23.3057  -10.8248  -16.9266 N   0  0  0  0  0  0  0  0  0  0  0  0
   23.7330   -8.5397  -16.4482 C   0  0  0  0  0  0  0  0  0  0  0  0
   23.7265   -8.2495  -17.6883 O   0  0  0  0  0  0  0  0  0  0  0  0
   23.4253   -7.5081  -15.5567 N   0  0  0  0  0  0  0  0  0  0  0  0
   22.9422   -6.1959  -15.9840 C   0  0  1  0  0  0  0  0  0  0  0  0
   21.6176   -6.3431  -16.6995 C   0  0  0  0  0  0  0  0  0  0  0  0
   21.0869   -4.9939  -17.1573 C   0  0  0  0  0  0  0  0  0  0  0  0
   19.7565   -5.2032  -17.7763 C   0  0  0  0  0  0  0  0  0  0  0  0
   18.6878   -4.7516  -17.3168 O   0  0  0  0  0  0  0  0  0  0  0  0
   22.8483   -5.2543  -14.8660 C   0  0  0  0  0  0  0  0  0  0  0  0
   22.8303   -3.8768  -15.0020 O   0  0  0  0  0  0  0  0  0  0  0  0
   19.6796   -5.9524  -18.9498 O   0  0  0  0  0  0  0  0  0  0  0  0
   22.7793   -5.7162  -13.7048 O   0  0  0  0  0  0  0  0  0  0  0  0
  2  3  1  0
  2  1  1  0
  3  4  1  1
  5  3  1  0
  5  6  2  0
  7  8  1  0
  8  9  1  0
  9 11  1  0
  9 10  1  1
 11 12  1  6
 11 13  1  0
 12  5  1  0
 13 15  1  0
 14 13  2  0
 15 16  1  0
 16 21  1  0
 17 18  1  0
 16 17  1  1
 19 23  1  0
 19 18  1  0
 20 19  2  0
 21 24  2  0
 21 22  1  0
M  END
$$$$
