SIE.pdb
     RDKit          3D

 24 23  0  0  1  0  0  0  0  0999 V2000
   15.8077   -9.9351  -17.0822 O   0  0  0  0  0  0  0  0  0  0  0  0
   16.4394   -9.0987  -16.1631 C   0  0  0  0  0  0  0  0  0  0  0  0
   16.8901   -9.9412  -14.9809 C   0  0  2  0  0  0  0  0  0  0  0  0
   15.7917  -10.3698  -14.1713 N   0  0  0  0  0  0  0  0  0  0  0  0
   17.7942   -9.0932  -14.1590 C   0  0  0  0  0  0  0  0  0  0  0  0
   17.3705   -8.3076  -13.2802 O   0  0  0  0  0  0  0  0  0  0  0  0
   21.9939   -8.6974  -11.0317 C   0  0  0  0  0  0  0  0  0  0  0  0
   22.4060   -8.5974  -12.5212 C   0  0  0  0  0  0  0  0  0  0  0  0
   21.3468   -9.3036  -13.3057 C   0  0  2  0  0  0  0  0  0  0  0  0
   21.9956   -9.8421  -14.5646 C   0  0  0  0  0  0  0  0  0  0  0  0
   20.1640   -8.4337  -13.5956 C   0  0  2  0  0  0  0  0  0  0  0  0
   19.1747   -9.1799  -14.3800 N   0  0  0  0  0  0  0  0  0  0  0  0
   20.4558   -7.1830  -14.3133 C   0  0  0  0  0  0  0  0  0  0  0  0
   20.6581   -7.2337  -15.5697 O   0  0  0  0  0  0  0  0  0  0  0  0
   20.5247   -5.9227  -13.7130 N   0  0  0  0  0  0  0  0  0  0  0  0
   20.9241   -4.7130  -14.4306 C   0  0  1  0  0  0  0  0  0  0  0  0
   19.8023   -3.6988  -14.3936 C   0  0  0  0  0  0  0  0  0  0  0  0
   20.1993   -2.4136  -15.1024 C   0  0  0  0  0  0  0  0  0  0  0  0
   19.0416   -1.4885  -15.0707 C   0  0  0  0  0  0  0  0  0  0  0  0
   18.9848   -0.4111  -15.6978 O   0  0  0  0  0  0  0  0  0  0  0  0
   22.1734   -4.1529  -13.9104 C   0  0  0  0  0  0  0  0  0  0  0  0
   23.0657   -3.4025  -14.6569 O   0  0  0  0  0  0  0  0  0  0  0  0
   17.9367   -1.8325  -14.2930 O   0  0  0  0  0  0  0  0  0  0  0  0
   22.4634   -4.3609  -12.7108 O   0  0  0  0  0  0  0  0  0  0  0  0
  2  3  1  0
  2  1  1  0
  3  4  1  1
  5  3  1  0
  5  6  2  0
  7  8  1  0
  8  9  1  0
  9 11  1  0
  9 10  1  6
 11 12  1  6
 11 13  1  0
 12  5  1  0
 13 15  1  0
 14 13  2  0
 15 16  1  0
 16 21  1  0
 17 18  1  0
 16 17  1  1
 19 23  1  0
 19 18  1  0
 20 19  2  0
 21 24  2  0
 21 22  1  0
M  END
$$$$
