SIE.pdb
     RDKit          3D

 24 23  0  0  1  0  0  0  0  0999 V2000
   20.5971  -12.0357  -19.3397 O   0  0  0  0  0  0  0  0  0  0  0  0
   21.8328  -12.4886  -19.7993 C   0  0  0  0  0  0  0  0  0  0  0  0
   22.4461  -13.3747  -18.7274 C   0  0  2  0  0  0  0  0  0  0  0  0
   21.5724  -14.4384  -18.3388 N   0  0  0  0  0  0  0  0  0  0  0  0
   22.7117  -12.5115  -17.5457 C   0  0  0  0  0  0  0  0  0  0  0  0
   22.0148  -12.5558  -16.5059 O   0  0  0  0  0  0  0  0  0  0  0  0
   27.7278  -11.7384  -15.9223 C   0  0  0  0  0  0  0  0  0  0  0  0
   26.1900  -11.9211  -15.9051 C   0  0  0  0  0  0  0  0  0  0  0  0
   25.6000  -10.6168  -16.3370 C   0  0  2  0  0  0  0  0  0  0  0  0
   26.0160   -9.5708  -15.3228 C   0  0  0  0  0  0  0  0  0  0  0  0
   24.1159  -10.6841  -16.5175 C   0  0  2  0  0  0  0  0  0  0  0  0
   23.7857  -11.6140  -17.6024 N   0  0  0  0  0  0  0  0  0  0  0  0
   23.4522   -9.4032  -16.8062 C   0  0  0  0  0  0  0  0  0  0  0  0
   23.7044   -8.8208  -17.9104 O   0  0  0  0  0  0  0  0  0  0  0  0
   22.5483   -8.7685  -15.9497 N   0  0  0  0  0  0  0  0  0  0  0  0
   21.9015   -7.4959  -16.2659 C   0  0  1  0  0  0  0  0  0  0  0  0
   20.4484   -7.7300  -16.6151 C   0  0  0  0  0  0  0  0  0  0  0  0
   19.7260   -6.4168  -16.8710 C   0  0  0  0  0  0  0  0  0  0  0  0
   18.3120   -6.7198  -17.1967 C   0  0  0  0  0  0  0  0  0  0  0  0
   17.8214   -7.8672  -17.2013 O   0  0  0  0  0  0  0  0  0  0  0  0
   22.0443   -6.5225  -15.1808 C   0  0  0  0  0  0  0  0  0  0  0  0
   22.1223   -5.1525  -15.3632 O   0  0  0  0  0  0  0  0  0  0  0  0
   17.4631   -5.6623  -17.5211 O   0  0  0  0  0  0  0  0  0  0  0  0
   22.1006   -6.9479  -14.0051 O   0  0  0  0  0  0  0  0  0  0  0  0
  2  3  1  0
  2  1  1  0
  3  4  1  1
  5  3  1  0
  5  6  2  0
  7  8  1  0
  8  9  1  0
  9 11  1  0
  9 10  1  1
 11 12  1  6
 11 13  1  0
 12  5  1  0
 13 15  1  0
 14 13  2  0
 15 16  1  0
 16 21  1  0
 17 18  1  0
 16 17  1  1
 19 23  1  0
 19 18  1  0
 20 19  2  0
 21 24  2  0
 21 22  1  0
M  END
$$$$
