NYC.pdb
     RDKit          3D

 27 27  0  0  1  0  0  0  0  0999 V2000
   28.2255  -19.7814  -17.2719 N   0  0  0  0  0  0  0  0  0  0  0  0
   27.8351  -18.5679  -16.6639 C   0  0  0  0  0  0  0  0  0  0  0  0
   28.1034  -17.4864  -17.2280 O   0  0  0  0  0  0  0  0  0  0  0  0
   27.1196  -18.5749  -15.3793 C   0  0  0  0  0  0  0  0  0  0  0  0
   26.9635  -19.9641  -14.8100 C   0  0  2  0  0  0  0  0  0  0  0  0
   26.0931  -20.7915  -15.5903 N   0  0  0  0  0  0  0  0  0  0  0  0
   26.4219  -19.8475  -13.4326 C   0  0  0  0  0  0  0  0  0  0  0  0
   26.2545  -18.6939  -12.9464 O   0  0  0  0  0  0  0  0  0  0  0  0
   20.0054  -19.1923  -13.7877 O   0  0  0  0  0  0  0  0  0  0  0  0
   21.0780  -19.7933  -13.1444 C   0  0  0  0  0  0  0  0  0  0  0  0
   21.3489  -19.4334  -11.8406 C   0  0  0  0  0  0  0  0  0  0  0  0
   22.4247  -20.0556  -11.2388 C   0  0  0  0  0  0  0  0  0  0  0  0
   23.1960  -20.9921  -11.9010 C   0  0  0  0  0  0  0  0  0  0  0  0
   24.3339  -21.6084  -11.1869 C   0  0  0  0  0  0  0  0  0  0  0  0
   25.6036  -20.8345  -11.3239 C   0  0  2  0  0  0  0  0  0  0  0  0
   26.0994  -20.9893  -12.6777 N   0  0  0  0  0  0  0  0  0  0  0  0
   26.6755  -21.2328  -10.3934 C   0  0  0  0  0  0  0  0  0  0  0  0
   27.0366  -22.4315  -10.3617 O   0  0  0  0  0  0  0  0  0  0  0  0
   22.8928  -21.3217  -13.1974 C   0  0  0  0  0  0  0  0  0  0  0  0
   21.8137  -20.7191  -13.8490 C   0  0  0  0  0  0  0  0  0  0  0  0
   27.3172  -20.3108   -9.5294 N   0  0  0  0  0  0  0  0  0  0  0  0
   27.8323  -20.7892   -8.2644 C   0  0  1  0  0  0  0  0  0  0  0  0
   29.2829  -20.3267   -8.1104 C   0  0  0  0  0  0  0  0  0  0  0  0
   30.1830  -20.9870   -9.5520 S   0  0  0  0  0  0  0  0  0  0  0  0
   27.0337  -20.1731   -7.1616 C   0  0  0  0  0  0  0  0  0  0  0  0
   27.3085  -20.4780   -5.8344 O   0  0  0  0  0  0  0  0  0  0  0  0
   26.1022  -19.3695   -7.4378 O   0  0  0  0  0  0  0  0  0  0  0  0
  2  3  2  0
  2  1  1  0
  4  2  1  0
  5  7  1  0
  5  4  1  0
  5  6  1  6
  7  8  2  0
  9 10  1  0
 10 20  2  0
 10 11  1  0
 11 12  2  0
 12 13  1  0
 13 14  1  0
 15 14  1  6
 16 15  1  0
 16  7  1  0
 17 15  1  0
 18 17  2  0
 19 13  2  0
 20 19  1  0
 21 17  1  0
 22 25  1  0
 22 21  1  0
 22 23  1  1
 24 23  1  0
 25 26  1  0
 27 25  2  0
M  END
$$$$
