NYC.pdb
     RDKit          3D

 27 27  0  0  1  0  0  0  0  0999 V2000
   28.0842  -21.3307  -10.1748 N   0  0  0  0  0  0  0  0  0  0  0  0
   26.7986  -20.8176   -9.8945 C   0  0  0  0  0  0  0  0  0  0  0  0
   26.4970  -20.5313   -8.7169 O   0  0  0  0  0  0  0  0  0  0  0  0
   25.8228  -20.6214  -10.9770 C   0  0  0  0  0  0  0  0  0  0  0  0
   26.3415  -21.0850  -12.3165 C   0  0  2  0  0  0  0  0  0  0  0  0
   27.5417  -20.4115  -12.7127 N   0  0  0  0  0  0  0  0  0  0  0  0
   25.2880  -20.8459  -13.3348 C   0  0  0  0  0  0  0  0  0  0  0  0
   25.2654  -19.7313  -13.9285 O   0  0  0  0  0  0  0  0  0  0  0  0
   19.3265  -22.2360  -19.5215 O   0  0  0  0  0  0  0  0  0  0  0  0
   20.3264  -22.3417  -18.5651 C   0  0  0  0  0  0  0  0  0  0  0  0
   20.1583  -23.2430  -17.5344 C   0  0  0  0  0  0  0  0  0  0  0  0
   21.1771  -23.3158  -16.6052 C   0  0  0  0  0  0  0  0  0  0  0  0
   22.3105  -22.5299  -16.6952 C   0  0  0  0  0  0  0  0  0  0  0  0
   23.3530  -22.6651  -15.6562 C   0  0  0  0  0  0  0  0  0  0  0  0
   23.3258  -21.5637  -14.6481 C   0  0  2  0  0  0  0  0  0  0  0  0
   24.3320  -21.8314  -13.6390 N   0  0  0  0  0  0  0  0  0  0  0  0
   22.0309  -21.3778  -13.9683 C   0  0  0  0  0  0  0  0  0  0  0  0
   21.7149  -22.1588  -13.0417 O   0  0  0  0  0  0  0  0  0  0  0  0
   22.4384  -21.6460  -17.7360 C   0  0  0  0  0  0  0  0  0  0  0  0
   21.4342  -21.5362  -18.7013 C   0  0  0  0  0  0  0  0  0  0  0  0
   21.1249  -20.3470  -14.3217 N   0  0  0  0  0  0  0  0  0  0  0  0
   19.8765  -20.2429  -13.5973 C   0  0  1  0  0  0  0  0  0  0  0  0
   19.7338  -18.8198  -13.0528 C   0  0  0  0  0  0  0  0  0  0  0  0
   18.1746  -18.7907  -12.1082 S   0  0  0  0  0  0  0  0  0  0  0  0
   18.7512  -20.4856  -14.5505 C   0  0  0  0  0  0  0  0  0  0  0  0
   17.6138  -21.1705  -14.1417 O   0  0  0  0  0  0  0  0  0  0  0  0
   18.8346  -20.0650  -15.7362 O   0  0  0  0  0  0  0  0  0  0  0  0
  2  3  2  0
  2  1  1  0
  4  2  1  0
  5  7  1  0
  5  4  1  0
  5  6  1  6
  7  8  2  0
  9 10  1  0
 10 20  2  0
 10 11  1  0
 11 12  2  0
 12 13  1  0
 13 14  1  0
 15 14  1  6
 16 15  1  0
 16  7  1  0
 17 15  1  0
 18 17  2  0
 19 13  2  0
 20 19  1  0
 21 17  1  0
 22 25  1  0
 22 21  1  0
 22 23  1  6
 24 23  1  0
 25 26  1  0
 27 25  2  0
M  END
$$$$
