NYC.pdb
     RDKit          3D

 27 27  0  0  1  0  0  0  0  0999 V2000
   12.8086  -13.9729  -11.6245 N   0  0  0  0  0  0  0  0  0  0  0  0
   13.6414  -13.6604  -12.7215 C   0  0  0  0  0  0  0  0  0  0  0  0
   13.4068  -14.1758  -13.8347 O   0  0  0  0  0  0  0  0  0  0  0  0
   14.7744  -12.7374  -12.5574 C   0  0  0  0  0  0  0  0  0  0  0  0
   14.3752  -11.2923  -12.7320 C   0  0  2  0  0  0  0  0  0  0  0  0
   14.0409  -10.9662  -14.0859 N   0  0  0  0  0  0  0  0  0  0  0  0
   15.5050  -10.4375  -12.2881 C   0  0  0  0  0  0  0  0  0  0  0  0
   15.9912  -10.6304  -11.1385 O   0  0  0  0  0  0  0  0  0  0  0  0
   22.0151   -4.6032  -12.3272 O   0  0  0  0  0  0  0  0  0  0  0  0
   21.0271   -5.5135  -12.6748 C   0  0  0  0  0  0  0  0  0  0  0  0
   21.2101   -6.8407  -12.3458 C   0  0  0  0  0  0  0  0  0  0  0  0
   20.2028   -7.7120  -12.7102 C   0  0  0  0  0  0  0  0  0  0  0  0
   19.0661   -7.2853  -13.3708 C   0  0  0  0  0  0  0  0  0  0  0  0
   18.0366   -8.2830  -13.7301 C   0  0  0  0  0  0  0  0  0  0  0  0
   17.0775   -8.5648  -12.6208 C   0  0  2  0  0  0  0  0  0  0  0  0
   16.0294   -9.4331  -13.1210 N   0  0  0  0  0  0  0  0  0  0  0  0
   16.4436   -7.3714  -12.0315 C   0  0  0  0  0  0  0  0  0  0  0  0
   15.4792   -6.8400  -12.6281 O   0  0  0  0  0  0  0  0  0  0  0  0
   18.9233   -5.9566  -13.6795 C   0  0  0  0  0  0  0  0  0  0  0  0
   19.9154   -5.0365  -13.3315 C   0  0  0  0  0  0  0  0  0  0  0  0
   16.8826   -6.7981  -10.8121 N   0  0  0  0  0  0  0  0  0  0  0  0
   16.1515   -5.6717  -10.2728 C   0  0  1  0  0  0  0  0  0  0  0  0
   16.2919   -5.6702   -8.7489 C   0  0  0  0  0  0  0  0  0  0  0  0
   15.4290   -7.1632   -8.1573 S   0  0  0  0  0  0  0  0  0  0  0  0
   16.7660   -4.4123  -10.7925 C   0  0  0  0  0  0  0  0  0  0  0  0
   17.9169   -4.4556  -11.5694 O   0  0  0  0  0  0  0  0  0  0  0  0
   16.2354   -3.3006  -10.5237 O   0  0  0  0  0  0  0  0  0  0  0  0
  2  3  2  0
  2  1  1  0
  4  2  1  0
  5  7  1  0
  5  4  1  0
  5  6  1  6
  7  8  2  0
  9 10  1  0
 10 20  2  0
 10 11  1  0
 11 12  2  0
 12 13  1  0
 13 14  1  0
 15 14  1  6
 16 15  1  0
 16  7  1  0
 17 15  1  0
 18 17  2  0
 19 13  2  0
 20 19  1  0
 21 17  1  0
 22 25  1  0
 22 21  1  0
 22 23  1  1
 24 23  1  0
 25 26  1  0
 27 25  2  0
M  END
$$$$
