NYC.pdb
     RDKit          3D

 27 27  0  0  1  0  0  0  0  0999 V2000
   15.9920  -10.5712    9.2273 N   0  0  0  0  0  0  0  0  0  0  0  0
   15.1252  -11.5151    9.8210 C   0  0  0  0  0  0  0  0  0  0  0  0
   14.3994  -11.1647   10.7750 O   0  0  0  0  0  0  0  0  0  0  0  0
   15.0760  -12.8977    9.3226 C   0  0  0  0  0  0  0  0  0  0  0  0
   14.9588  -12.9684    7.8193 C   0  0  2  0  0  0  0  0  0  0  0  0
   13.6414  -12.6630    7.3482 N   0  0  0  0  0  0  0  0  0  0  0  0
   15.3276  -14.3393    7.3850 C   0  0  0  0  0  0  0  0  0  0  0  0
   14.5197  -15.2824    7.6152 O   0  0  0  0  0  0  0  0  0  0  0  0
   16.0780  -20.8616    2.3764 O   0  0  0  0  0  0  0  0  0  0  0  0
   16.3249  -19.6367    2.9799 C   0  0  0  0  0  0  0  0  0  0  0  0
   15.2489  -18.8585    3.3537 C   0  0  0  0  0  0  0  0  0  0  0  0
   15.5398  -17.6479    3.9506 C   0  0  0  0  0  0  0  0  0  0  0  0
   16.8393  -17.2291    4.1666 C   0  0  0  0  0  0  0  0  0  0  0  0
   17.0654  -15.9166    4.8073 C   0  0  0  0  0  0  0  0  0  0  0  0
   16.8520  -15.9384    6.2851 C   0  0  2  0  0  0  0  0  0  0  0  0
   16.5467  -14.5929    6.7313 N   0  0  0  0  0  0  0  0  0  0  0  0
   17.9978  -16.4338    7.0694 C   0  0  0  0  0  0  0  0  0  0  0  0
   18.9905  -15.6875    7.2305 O   0  0  0  0  0  0  0  0  0  0  0  0
   17.8809  -18.0332    3.7797 C   0  0  0  0  0  0  0  0  0  0  0  0
   17.6370  -19.2672    3.1717 C   0  0  0  0  0  0  0  0  0  0  0  0
   18.0224  -17.7258    7.6513 N   0  0  0  0  0  0  0  0  0  0  0  0
   19.2499  -18.1873    8.2632 C   0  0  1  0  0  0  0  0  0  0  0  0
   19.0751  -18.1982    9.7835 C   0  0  0  0  0  0  0  0  0  0  0  0
   20.5921  -18.9460   10.4643 S   0  0  0  0  0  0  0  0  0  0  0  0
   19.5044  -19.5916    7.8194 C   0  0  0  0  0  0  0  0  0  0  0  0
   18.5503  -20.2848    7.0852 O   0  0  0  0  0  0  0  0  0  0  0  0
   20.5946  -20.1524    8.1138 O   0  0  0  0  0  0  0  0  0  0  0  0
  2  3  2  0
  2  1  1  0
  4  2  1  0
  5  7  1  0
  5  4  1  0
  5  6  1  1
  7  8  2  0
  9 10  1  0
 10 20  2  0
 10 11  1  0
 11 12  2  0
 12 13  1  0
 13 14  1  0
 15 14  1  6
 16 15  1  0
 16  7  1  0
 17 15  1  0
 18 17  2  0
 19 13  2  0
 20 19  1  0
 21 17  1  0
 22 25  1  0
 22 21  1  0
 22 23  1  1
 24 23  1  0
 25 26  1  0
 27 25  2  0
M  END
$$$$
