NYC.pdb
     RDKit          3D

 27 27  0  0  1  0  0  0  0  0999 V2000
   12.9885  -14.2848  -13.6796 N   0  0  0  0  0  0  0  0  0  0  0  0
   13.3095  -12.9798  -14.1138 C   0  0  0  0  0  0  0  0  0  0  0  0
   12.6281  -12.4498  -15.0163 O   0  0  0  0  0  0  0  0  0  0  0  0
   14.4347  -12.2499  -13.5107 C   0  0  0  0  0  0  0  0  0  0  0  0
   15.4488  -11.7992  -14.5339 C   0  0  2  0  0  0  0  0  0  0  0  0
   16.1806  -12.8872  -15.1098 N   0  0  0  0  0  0  0  0  0  0  0  0
   16.3973  -10.8671  -13.8740 C   0  0  0  0  0  0  0  0  0  0  0  0
   17.3649  -11.3525  -13.2233 O   0  0  0  0  0  0  0  0  0  0  0  0
   21.8009   -4.4016  -12.2164 O   0  0  0  0  0  0  0  0  0  0  0  0
   20.8846   -5.3022  -12.7406 C   0  0  0  0  0  0  0  0  0  0  0  0
   21.1376   -6.6516  -12.6062 C   0  0  0  0  0  0  0  0  0  0  0  0
   20.2002   -7.5123  -13.1420 C   0  0  0  0  0  0  0  0  0  0  0  0
   19.0638   -7.0543  -13.7818 C   0  0  0  0  0  0  0  0  0  0  0  0
   18.1119   -8.0417  -14.3326 C   0  0  0  0  0  0  0  0  0  0  0  0
   17.1795   -8.5963  -13.3065 C   0  0  2  0  0  0  0  0  0  0  0  0
   16.2312   -9.4736  -13.9650 N   0  0  0  0  0  0  0  0  0  0  0  0
   16.4205   -7.5854  -12.5480 C   0  0  0  0  0  0  0  0  0  0  0  0
   15.4722   -6.9913  -13.1102 O   0  0  0  0  0  0  0  0  0  0  0  0
   18.8500   -5.7042  -13.8942 C   0  0  0  0  0  0  0  0  0  0  0  0
   19.7699   -4.7937  -13.3679 C   0  0  0  0  0  0  0  0  0  0  0  0
   16.7212   -7.2567  -11.2026 N   0  0  0  0  0  0  0  0  0  0  0  0
   15.8823   -6.2954  -10.5198 C   0  0  1  0  0  0  0  0  0  0  0  0
   15.8574   -6.6281   -9.0263 C   0  0  0  0  0  0  0  0  0  0  0  0
   14.9458   -8.1993   -8.8705 S   0  0  0  0  0  0  0  0  0  0  0  0
   16.4874   -4.9380  -10.6785 C   0  0  0  0  0  0  0  0  0  0  0  0
   15.8487   -3.8152  -10.1675 O   0  0  0  0  0  0  0  0  0  0  0  0
   17.5873   -4.8105  -11.2815 O   0  0  0  0  0  0  0  0  0  0  0  0
  2  3  2  0
  2  1  1  0
  4  2  1  0
  5  7  1  0
  5  4  1  0
  5  6  1  1
  7  8  2  0
  9 10  1  0
 10 20  2  0
 10 11  1  0
 11 12  2  0
 12 13  1  0
 13 14  1  0
 15 14  1  6
 16 15  1  0
 16  7  1  0
 17 15  1  0
 18 17  2  0
 19 13  2  0
 20 19  1  0
 21 17  1  0
 22 25  1  0
 22 21  1  0
 22 23  1  1
 24 23  1  0
 25 26  1  0
 27 25  2  0
M  END
$$$$
