NYC.pdb
     RDKit          3D

 27 27  0  0  1  0  0  0  0  0999 V2000
   28.3059  -22.1656  -15.9194 N   0  0  0  0  0  0  0  0  0  0  0  0
   27.0567  -22.8244  -15.9101 C   0  0  0  0  0  0  0  0  0  0  0  0
   26.9665  -23.9728  -16.3926 O   0  0  0  0  0  0  0  0  0  0  0  0
   25.8721  -22.1667  -15.3385 C   0  0  0  0  0  0  0  0  0  0  0  0
   24.8279  -21.8455  -16.3801 C   0  0  2  0  0  0  0  0  0  0  0  0
   25.2759  -20.8810  -17.3392 N   0  0  0  0  0  0  0  0  0  0  0  0
   23.6222  -21.3236  -15.6887 C   0  0  0  0  0  0  0  0  0  0  0  0
   23.7423  -20.3020  -14.9560 O   0  0  0  0  0  0  0  0  0  0  0  0
   22.7201  -15.6009  -17.1771 O   0  0  0  0  0  0  0  0  0  0  0  0
   22.1489  -16.8384  -16.9172 C   0  0  0  0  0  0  0  0  0  0  0  0
   21.4868  -17.0192  -15.7205 C   0  0  0  0  0  0  0  0  0  0  0  0
   20.9335  -18.2654  -15.5027 C   0  0  0  0  0  0  0  0  0  0  0  0
   21.0330  -19.2852  -16.4304 C   0  0  0  0  0  0  0  0  0  0  0  0
   20.4170  -20.5920  -16.1182 C   0  0  0  0  0  0  0  0  0  0  0  0
   21.2149  -21.4028  -15.1509 C   0  0  2  0  0  0  0  0  0  0  0  0
   22.3698  -21.9453  -15.8397 N   0  0  0  0  0  0  0  0  0  0  0  0
   20.4835  -22.5213  -14.5285 C   0  0  0  0  0  0  0  0  0  0  0  0
   20.2565  -23.5494  -15.2066 O   0  0  0  0  0  0  0  0  0  0  0  0
   21.7002  -19.0640  -17.6081 C   0  0  0  0  0  0  0  0  0  0  0  0
   22.2769  -17.8196  -17.8741 C   0  0  0  0  0  0  0  0  0  0  0  0
   20.0246  -22.4810  -13.1883 N   0  0  0  0  0  0  0  0  0  0  0  0
   19.2538  -23.5977  -12.6856 C   0  0  1  0  0  0  0  0  0  0  0  0
   19.3312  -23.6086  -11.1572 C   0  0  0  0  0  0  0  0  0  0  0  0
   18.6274  -25.2036  -10.6237 S   0  0  0  0  0  0  0  0  0  0  0  0
   17.8235  -23.4014  -13.0722 C   0  0  0  0  0  0  0  0  0  0  0  0
   17.0221  -24.4900  -13.3928 O   0  0  0  0  0  0  0  0  0  0  0  0
   17.3395  -22.2377  -13.1077 O   0  0  0  0  0  0  0  0  0  0  0  0
  2  3  2  0
  2  1  1  0
  4  2  1  0
  5  7  1  0
  5  4  1  0
  5  6  1  6
  7  8  2  0
  9 10  1  0
 10 20  2  0
 10 11  1  0
 11 12  2  0
 12 13  1  0
 13 14  1  0
 15 14  1  6
 16 15  1  0
 16  7  1  0
 17 15  1  0
 18 17  2  0
 19 13  2  0
 20 19  1  0
 21 17  1  0
 22 25  1  0
 22 21  1  0
 22 23  1  1
 24 23  1  0
 25 26  1  0
 27 25  2  0
M  END
$$$$
