NYC.pdb
     RDKit          3D

 27 27  0  0  1  0  0  0  0  0999 V2000
   23.5912  -27.1253  -15.8030 N   0  0  0  0  0  0  0  0  0  0  0  0
   23.2202  -26.6032  -14.5442 C   0  0  0  0  0  0  0  0  0  0  0  0
   22.8143  -27.3802  -13.6546 O   0  0  0  0  0  0  0  0  0  0  0  0
   23.3100  -25.1592  -14.2810 C   0  0  0  0  0  0  0  0  0  0  0  0
   23.9162  -24.3962  -15.4338 C   0  0  2  0  0  0  0  0  0  0  0  0
   25.3470  -24.4547  -15.4497 N   0  0  0  0  0  0  0  0  0  0  0  0
   23.4860  -22.9787  -15.3348 C   0  0  0  0  0  0  0  0  0  0  0  0
   22.2491  -22.7253  -15.2994 O   0  0  0  0  0  0  0  0  0  0  0  0
   24.7779  -21.3631   -8.8471 O   0  0  0  0  0  0  0  0  0  0  0  0
   24.8185  -20.9879  -10.1824 C   0  0  0  0  0  0  0  0  0  0  0  0
   25.9418  -21.3002  -10.9197 C   0  0  0  0  0  0  0  0  0  0  0  0
   25.9402  -20.9085  -12.2438 C   0  0  0  0  0  0  0  0  0  0  0  0
   24.8724  -20.2377  -12.8098 C   0  0  0  0  0  0  0  0  0  0  0  0
   24.9518  -19.8489  -14.2335 C   0  0  0  0  0  0  0  0  0  0  0  0
   23.9696  -20.5705  -15.0964 C   0  0  2  0  0  0  0  0  0  0  0  0
   24.4262  -21.9344  -15.2811 N   0  0  0  0  0  0  0  0  0  0  0  0
   23.7574  -19.9726  -16.4272 C   0  0  0  0  0  0  0  0  0  0  0  0
   24.6902  -20.0046  -17.2621 O   0  0  0  0  0  0  0  0  0  0  0  0
   23.7742  -19.9463  -12.0416 C   0  0  0  0  0  0  0  0  0  0  0  0
   23.7290  -20.3221  -10.6967 C   0  0  0  0  0  0  0  0  0  0  0  0
   22.5356  -19.3604  -16.8022 N   0  0  0  0  0  0  0  0  0  0  0  0
   22.4464  -18.7299  -18.1017 C   0  0  1  0  0  0  0  0  0  0  0  0
   21.7929  -19.7042  -19.0843 C   0  0  0  0  0  0  0  0  0  0  0  0
   20.3761  -20.4404  -18.2040 S   0  0  0  0  0  0  0  0  0  0  0  0
   21.5635  -17.5293  -17.9888 C   0  0  0  0  0  0  0  0  0  0  0  0
   21.4069  -16.6633  -19.0637 O   0  0  0  0  0  0  0  0  0  0  0  0
   20.9551  -17.3000  -16.9085 O   0  0  0  0  0  0  0  0  0  0  0  0
  2  3  2  0
  2  1  1  0
  4  2  1  0
  5  7  1  0
  5  4  1  0
  5  6  1  1
  7  8  2  0
  9 10  1  0
 10 20  2  0
 10 11  1  0
 11 12  2  0
 12 13  1  0
 13 14  1  0
 15 14  1  6
 16 15  1  0
 16  7  1  0
 17 15  1  0
 18 17  2  0
 19 13  2  0
 20 19  1  0
 21 17  1  0
 22 25  1  0
 22 21  1  0
 22 23  1  6
 24 23  1  0
 25 26  1  0
 27 25  2  0
M  END
$$$$
