NYC.pdb
     RDKit          3D

 27 27  0  0  1  0  0  0  0  0999 V2000
   21.0604  -14.4034  -20.5525 N   0  0  0  0  0  0  0  0  0  0  0  0
   22.1957  -13.5818  -20.3773 C   0  0  0  0  0  0  0  0  0  0  0  0
   23.0686  -13.5451  -21.2697 O   0  0  0  0  0  0  0  0  0  0  0  0
   22.3509  -12.7764  -19.1568 C   0  0  0  0  0  0  0  0  0  0  0  0
   23.7621  -12.8004  -18.6217 C   0  0  2  0  0  0  0  0  0  0  0  0
   24.1290  -14.0721  -18.0748 N   0  0  0  0  0  0  0  0  0  0  0  0
   23.8806  -11.7622  -17.5670 C   0  0  0  0  0  0  0  0  0  0  0  0
   23.5118  -12.0500  -16.3938 O   0  0  0  0  0  0  0  0  0  0  0  0
   29.8529  -13.0477  -16.5254 O   0  0  0  0  0  0  0  0  0  0  0  0
   28.8924  -12.0492  -16.6011 C   0  0  0  0  0  0  0  0  0  0  0  0
   28.5138  -11.5935  -17.8470 C   0  0  0  0  0  0  0  0  0  0  0  0
   27.5555  -10.5998  -17.8763 C   0  0  0  0  0  0  0  0  0  0  0  0
   26.9987  -10.0823  -16.7220 C   0  0  0  0  0  0  0  0  0  0  0  0
   25.9820   -9.0161  -16.8398 C   0  0  0  0  0  0  0  0  0  0  0  0
   24.5810   -9.5297  -16.7823 C   0  0  2  0  0  0  0  0  0  0  0  0
   24.3906  -10.4842  -17.8571 N   0  0  0  0  0  0  0  0  0  0  0  0
   23.5366   -8.4954  -16.8957 C   0  0  0  0  0  0  0  0  0  0  0  0
   23.3155   -7.9770  -18.0140 O   0  0  0  0  0  0  0  0  0  0  0  0
   27.4032  -10.5632  -15.5028 C   0  0  0  0  0  0  0  0  0  0  0  0
   28.3701  -11.5685  -15.4218 C   0  0  0  0  0  0  0  0  0  0  0  0
   22.7690   -8.0616  -15.7862 N   0  0  0  0  0  0  0  0  0  0  0  0
   21.6839   -7.1319  -16.0150 C   0  0  1  0  0  0  0  0  0  0  0  0
   20.5308   -7.4691  -15.0670 C   0  0  0  0  0  0  0  0  0  0  0  0
   19.9622   -9.1379  -15.5313 S   0  0  0  0  0  0  0  0  0  0  0  0
   22.1606   -5.7538  -15.6873 C   0  0  0  0  0  0  0  0  0  0  0  0
   23.4672   -5.5391  -15.2672 O   0  0  0  0  0  0  0  0  0  0  0  0
   21.3702   -4.7772  -15.7931 O   0  0  0  0  0  0  0  0  0  0  0  0
  2  3  2  0
  2  1  1  0
  4  2  1  0
  5  7  1  0
  5  4  1  0
  5  6  1  1
  7  8  2  0
  9 10  1  0
 10 20  2  0
 10 11  1  0
 11 12  2  0
 12 13  1  0
 13 14  1  0
 15 14  1  6
 16 15  1  0
 16  7  1  0
 17 15  1  0
 18 17  2  0
 19 13  2  0
 20 19  1  0
 21 17  1  0
 22 25  1  0
 22 21  1  0
 22 23  1  1
 24 23  1  0
 25 26  1  0
 27 25  2  0
M  END
$$$$
