NYC.pdb
     RDKit          3D

 27 27  0  0  1  0  0  0  0  0999 V2000
   20.7261  -11.3167  -16.8046 N   0  0  0  0  0  0  0  0  0  0  0  0
   20.0237  -11.3266  -15.5794 C   0  0  0  0  0  0  0  0  0  0  0  0
   19.2622  -12.2813  -15.3178 O   0  0  0  0  0  0  0  0  0  0  0  0
   20.1856  -10.2246  -14.6192 C   0  0  0  0  0  0  0  0  0  0  0  0
   21.0973   -9.1369  -15.1330 C   0  0  2  0  0  0  0  0  0  0  0  0
   22.4836   -9.4865  -15.0500 N   0  0  0  0  0  0  0  0  0  0  0  0
   20.8546   -7.9076  -14.3367 C   0  0  0  0  0  0  0  0  0  0  0  0
   21.5268   -7.7301  -13.2822 O   0  0  0  0  0  0  0  0  0  0  0  0
   24.3504   -3.1447  -17.4886 O   0  0  0  0  0  0  0  0  0  0  0  0
   23.1704   -3.5029  -16.8524 C   0  0  0  0  0  0  0  0  0  0  0  0
   22.3918   -4.4912  -17.4181 C   0  0  0  0  0  0  0  0  0  0  0  0
   21.2266   -4.8165  -16.7524 C   0  0  0  0  0  0  0  0  0  0  0  0
   20.8516   -4.1893  -15.5791 C   0  0  0  0  0  0  0  0  0  0  0  0
   19.5859   -4.5925  -14.9312 C   0  0  0  0  0  0  0  0  0  0  0  0
   19.7489   -5.7307  -13.9783 C   0  0  2  0  0  0  0  0  0  0  0  0
   19.9002   -6.9561  -14.7385 N   0  0  0  0  0  0  0  0  0  0  0  0
   18.6328   -5.9114  -13.0322 C   0  0  0  0  0  0  0  0  0  0  0  0
   17.5967   -6.4973  -13.4215 O   0  0  0  0  0  0  0  0  0  0  0  0
   21.6545   -3.2113  -15.0499 C   0  0  0  0  0  0  0  0  0  0  0  0
   22.8435   -2.8474  -15.6870 C   0  0  0  0  0  0  0  0  0  0  0  0
   18.6843   -5.4474  -11.6942 N   0  0  0  0  0  0  0  0  0  0  0  0
   17.5712   -5.7380  -10.8163 C   0  0  1  0  0  0  0  0  0  0  0  0
   18.0768   -5.7958   -9.3731 C   0  0  0  0  0  0  0  0  0  0  0  0
   16.6743   -6.3809   -8.3659 S   0  0  0  0  0  0  0  0  0  0  0  0
   16.5839   -4.6202  -10.9133 C   0  0  0  0  0  0  0  0  0  0  0  0
   15.2234   -4.8646  -10.7746 O   0  0  0  0  0  0  0  0  0  0  0  0
   16.9890   -3.4447  -11.1228 O   0  0  0  0  0  0  0  0  0  0  0  0
  2  3  2  0
  2  1  1  0
  4  2  1  0
  5  7  1  0
  5  4  1  0
  5  6  1  1
  7  8  2  0
  9 10  1  0
 10 20  2  0
 10 11  1  0
 11 12  2  0
 12 13  1  0
 13 14  1  0
 15 14  1  6
 16 15  1  0
 16  7  1  0
 17 15  1  0
 18 17  2  0
 19 13  2  0
 20 19  1  0
 21 17  1  0
 22 25  1  0
 22 21  1  0
 22 23  1  1
 24 23  1  0
 25 26  1  0
 27 25  2  0
M  END
$$$$
