NYC.pdb
     RDKit          3D

 27 27  0  0  1  0  0  0  0  0999 V2000
   19.4525  -21.6199  -13.1545 N   0  0  0  0  0  0  0  0  0  0  0  0
   20.0345  -20.8127  -12.1524 C   0  0  0  0  0  0  0  0  0  0  0  0
   19.3352  -20.4314  -11.1904 O   0  0  0  0  0  0  0  0  0  0  0  0
   21.4500  -20.4235  -12.2383 C   0  0  0  0  0  0  0  0  0  0  0  0
   22.1445  -21.0230  -13.4369 C   0  0  2  0  0  0  0  0  0  0  0  0
   22.1241  -22.4549  -13.4342 N   0  0  0  0  0  0  0  0  0  0  0  0
   23.5532  -20.5543  -13.4446 C   0  0  0  0  0  0  0  0  0  0  0  0
   23.7749  -19.3123  -13.5039 O   0  0  0  0  0  0  0  0  0  0  0  0
   25.1932  -19.6241   -7.3173 O   0  0  0  0  0  0  0  0  0  0  0  0
   25.5825  -20.1080   -8.5582 C   0  0  0  0  0  0  0  0  0  0  0  0
   26.4773  -19.3670   -9.3021 C   0  0  0  0  0  0  0  0  0  0  0  0
   26.8376  -19.8851  -10.5303 C   0  0  0  0  0  0  0  0  0  0  0  0
   26.3328  -21.0837  -10.9983 C   0  0  0  0  0  0  0  0  0  0  0  0
   26.7654  -21.5665  -12.3265 C   0  0  0  0  0  0  0  0  0  0  0  0
   25.9857  -20.9706  -13.4521 C   0  0  2  0  0  0  0  0  0  0  0  0
   24.6239  -21.4643  -13.3876 N   0  0  0  0  0  0  0  0  0  0  0  0
   26.5170  -21.2614  -14.7962 C   0  0  0  0  0  0  0  0  0  0  0  0
   26.3742  -22.4123  -15.2687 O   0  0  0  0  0  0  0  0  0  0  0  0
   25.4450  -21.7896  -10.2271 C   0  0  0  0  0  0  0  0  0  0  0  0
   25.0502  -21.3062   -8.9771 C   0  0  0  0  0  0  0  0  0  0  0  0
   27.1857  -20.2876  -15.5792 N   0  0  0  0  0  0  0  0  0  0  0  0
   27.5124  -20.6072  -16.9523 C   0  0  1  0  0  0  0  0  0  0  0  0
   26.2153  -20.8079  -17.7391 C   0  0  0  0  0  0  0  0  0  0  0  0
   26.7083  -21.0638  -19.4756 S   0  0  0  0  0  0  0  0  0  0  0  0
   28.2388  -19.4466  -17.5513 C   0  0  0  0  0  0  0  0  0  0  0  0
   29.2021  -19.6455  -18.5323 O   0  0  0  0  0  0  0  0  0  0  0  0
   27.9751  -18.2763  -17.1633 O   0  0  0  0  0  0  0  0  0  0  0  0
  2  3  2  0
  2  1  1  0
  4  2  1  0
  5  7  1  0
  5  4  1  0
  5  6  1  1
  7  8  2  0
  9 10  1  0
 10 20  2  0
 10 11  1  0
 11 12  2  0
 12 13  1  0
 13 14  1  0
 15 14  1  1
 16 15  1  0
 16  7  1  0
 17 15  1  0
 18 17  2  0
 19 13  2  0
 20 19  1  0
 21 17  1  0
 22 25  1  0
 22 21  1  0
 22 23  1  6
 24 23  1  0
 25 26  1  0
 27 25  2  0
M  END
$$$$
