NYC.pdb
     RDKit          3D

 27 27  0  0  1  0  0  0  0  0999 V2000
   20.5387  -14.1083  -18.3925 N   0  0  0  0  0  0  0  0  0  0  0  0
   19.9108  -13.6340  -17.2197 C   0  0  0  0  0  0  0  0  0  0  0  0
   18.8652  -14.1869  -16.8186 O   0  0  0  0  0  0  0  0  0  0  0  0
   20.4806  -12.5005  -16.4762 C   0  0  0  0  0  0  0  0  0  0  0  0
   21.7536  -11.9800  -17.0983 C   0  0  2  0  0  0  0  0  0  0  0  0
   22.8534  -12.8863  -16.9578 N   0  0  0  0  0  0  0  0  0  0  0  0
   22.0979  -10.6895  -16.4500 C   0  0  0  0  0  0  0  0  0  0  0  0
   22.0865  -10.6267  -15.1886 O   0  0  0  0  0  0  0  0  0  0  0  0
   28.1492  -11.4308  -15.7475 O   0  0  0  0  0  0  0  0  0  0  0  0
   27.1310  -10.5347  -16.0404 C   0  0  0  0  0  0  0  0  0  0  0  0
   26.7533  -10.3755  -17.3576 C   0  0  0  0  0  0  0  0  0  0  0  0
   25.7367   -9.4742  -17.6041 C   0  0  0  0  0  0  0  0  0  0  0  0
   25.1233   -8.7636  -16.5895 C   0  0  0  0  0  0  0  0  0  0  0  0
   24.0459   -7.8139  -16.9383 C   0  0  0  0  0  0  0  0  0  0  0  0
   22.6875   -8.2951  -16.5469 C   0  0  2  0  0  0  0  0  0  0  0  0
   22.4306   -9.5566  -17.2140 N   0  0  0  0  0  0  0  0  0  0  0  0
   21.5856   -7.3709  -16.8710 C   0  0  0  0  0  0  0  0  0  0  0  0
   21.1807   -7.3011  -18.0540 O   0  0  0  0  0  0  0  0  0  0  0  0
   25.5291   -8.9513  -15.2929 C   0  0  0  0  0  0  0  0  0  0  0  0
   26.5538   -9.8526  -14.9933 C   0  0  0  0  0  0  0  0  0  0  0  0
   20.9626   -6.5545  -15.8944 N   0  0  0  0  0  0  0  0  0  0  0  0
   19.8958   -5.6690  -16.3091 C   0  0  1  0  0  0  0  0  0  0  0  0
   18.7311   -5.7973  -15.3249 C   0  0  0  0  0  0  0  0  0  0  0  0
   17.5323   -4.5026  -15.7840 S   0  0  0  0  0  0  0  0  0  0  0  0
   20.3951   -4.2616  -16.2499 C   0  0  0  0  0  0  0  0  0  0  0  0
   19.9986   -3.3302  -17.2014 O   0  0  0  0  0  0  0  0  0  0  0  0
   21.1831   -3.9161  -15.3283 O   0  0  0  0  0  0  0  0  0  0  0  0
  2  3  2  0
  2  1  1  0
  4  2  1  0
  5  7  1  0
  5  4  1  0
  5  6  1  1
  7  8  2  0
  9 10  1  0
 10 20  2  0
 10 11  1  0
 11 12  2  0
 12 13  1  0
 13 14  1  0
 15 14  1  6
 16 15  1  0
 16  7  1  0
 17 15  1  0
 18 17  2  0
 19 13  2  0
 20 19  1  0
 21 17  1  0
 22 25  1  0
 22 21  1  0
 22 23  1  1
 24 23  1  0
 25 26  1  0
 27 25  2  0
M  END
$$$$
