NYC.pdb
     RDKit          3D

 27 27  0  0  1  0  0  0  0  0999 V2000
   21.3657  -26.0053  -14.7850 N   0  0  0  0  0  0  0  0  0  0  0  0
   22.0828  -25.6754  -15.9562 C   0  0  0  0  0  0  0  0  0  0  0  0
   21.9473  -26.3825  -16.9767 O   0  0  0  0  0  0  0  0  0  0  0  0
   22.9809  -24.5112  -15.9765 C   0  0  0  0  0  0  0  0  0  0  0  0
   24.3602  -24.8516  -16.4866 C   0  0  2  0  0  0  0  0  0  0  0  0
   25.0117  -25.8574  -15.7025 N   0  0  0  0  0  0  0  0  0  0  0  0
   25.1817  -23.6150  -16.4758 C   0  0  0  0  0  0  0  0  0  0  0  0
   24.8090  -22.6376  -17.1835 O   0  0  0  0  0  0  0  0  0  0  0  0
   21.7754  -20.2815  -12.6847 O   0  0  0  0  0  0  0  0  0  0  0  0
   23.0594  -20.6454  -13.0644 C   0  0  0  0  0  0  0  0  0  0  0  0
   23.6069  -21.7892  -12.5212 C   0  0  0  0  0  0  0  0  0  0  0  0
   24.8862  -22.1143  -12.9264 C   0  0  0  0  0  0  0  0  0  0  0  0
   25.5897  -21.3395  -13.8294 C   0  0  0  0  0  0  0  0  0  0  0  0
   26.9570  -21.7542  -14.2075 C   0  0  0  0  0  0  0  0  0  0  0  0
   27.0525  -22.2583  -15.6099 C   0  0  2  0  0  0  0  0  0  0  0  0
   26.3502  -23.5237  -15.6986 N   0  0  0  0  0  0  0  0  0  0  0  0
   28.4269  -22.4597  -16.1037 C   0  0  0  0  0  0  0  0  0  0  0  0
   29.1599  -23.2986  -15.5316 O   0  0  0  0  0  0  0  0  0  0  0  0
   25.0087  -20.2095  -14.3459 C   0  0  0  0  0  0  0  0  0  0  0  0
   23.7161  -19.8392  -13.9664 C   0  0  0  0  0  0  0  0  0  0  0  0
   28.9552  -21.7399  -17.2042 N   0  0  0  0  0  0  0  0  0  0  0  0
   30.1603  -22.2294  -17.8386 C   0  0  1  0  0  0  0  0  0  0  0  0
   29.9051  -23.6417  -18.3697 C   0  0  0  0  0  0  0  0  0  0  0  0
   31.4669  -24.1865  -19.1366 S   0  0  0  0  0  0  0  0  0  0  0  0
   30.4755  -21.3495  -19.0048 C   0  0  0  0  0  0  0  0  0  0  0  0
   31.7923  -21.0395  -19.3209 O   0  0  0  0  0  0  0  0  0  0  0  0
   29.5383  -20.8842  -19.7082 O   0  0  0  0  0  0  0  0  0  0  0  0
  2  3  2  0
  2  1  1  0
  4  2  1  0
  5  7  1  0
  5  4  1  0
  5  6  1  1
  7  8  2  0
  9 10  1  0
 10 20  2  0
 10 11  1  0
 11 12  2  0
 12 13  1  0
 13 14  1  0
 15 14  1  1
 16 15  1  0
 16  7  1  0
 17 15  1  0
 18 17  2  0
 19 13  2  0
 20 19  1  0
 21 17  1  0
 22 25  1  0
 22 21  1  0
 22 23  1  6
 24 23  1  0
 25 26  1  0
 27 25  2  0
M  END
$$$$
