NYC.pdb
     RDKit          3D

 27 27  0  0  1  0  0  0  0  0999 V2000
   27.6209  -12.4065  -15.6179 N   0  0  0  0  0  0  0  0  0  0  0  0
   27.8442  -11.0709  -16.0190 C   0  0  0  0  0  0  0  0  0  0  0  0
   29.0110  -10.6261  -16.0445 O   0  0  0  0  0  0  0  0  0  0  0  0
   26.7156  -10.2101  -16.4034 C   0  0  0  0  0  0  0  0  0  0  0  0
   25.3784  -10.8772  -16.1900 C   0  0  2  0  0  0  0  0  0  0  0  0
   25.1796  -12.0116  -17.0411 N   0  0  0  0  0  0  0  0  0  0  0  0
   24.3106   -9.8788  -16.4487 C   0  0  0  0  0  0  0  0  0  0  0  0
   23.9302   -9.6979  -17.6395 O   0  0  0  0  0  0  0  0  0  0  0  0
   19.0870  -13.1766  -17.5632 O   0  0  0  0  0  0  0  0  0  0  0  0
   19.6610  -12.0830  -16.9308 C   0  0  0  0  0  0  0  0  0  0  0  0
   20.1612  -12.2480  -15.6558 C   0  0  0  0  0  0  0  0  0  0  0  0
   20.7235  -11.1345  -15.0639 C   0  0  0  0  0  0  0  0  0  0  0  0
   20.7864   -9.9132  -15.7082 C   0  0  0  0  0  0  0  0  0  0  0  0
   21.4002   -8.7686  -15.0027 C   0  0  0  0  0  0  0  0  0  0  0  0
   22.6253   -8.2483  -15.6796 C   0  0  2  0  0  0  0  0  0  0  0  0
   23.7290   -9.1458  -15.3989 N   0  0  0  0  0  0  0  0  0  0  0  0
   23.0253   -6.8877  -15.2768 C   0  0  0  0  0  0  0  0  0  0  0  0
   23.3950   -6.6887  -14.0970 O   0  0  0  0  0  0  0  0  0  0  0  0
   20.2772   -9.7916  -16.9759 C   0  0  0  0  0  0  0  0  0  0  0  0
   19.6983  -10.8900  -17.6165 C   0  0  0  0  0  0  0  0  0  0  0  0
   23.0086   -5.7907  -16.1738 N   0  0  0  0  0  0  0  0  0  0  0  0
   23.3958   -4.4863  -15.6810 C   0  0  1  0  0  0  0  0  0  0  0  0
   23.7592   -3.5927  -16.8690 C   0  0  0  0  0  0  0  0  0  0  0  0
   25.1979   -4.3739  -17.6716 S   0  0  0  0  0  0  0  0  0  0  0  0
   22.2237   -3.8728  -14.9857 C   0  0  0  0  0  0  0  0  0  0  0  0
   22.3871   -2.7552  -14.1768 O   0  0  0  0  0  0  0  0  0  0  0  0
   21.0762   -4.3737  -15.1343 O   0  0  0  0  0  0  0  0  0  0  0  0
  2  3  2  0
  2  1  1  0
  4  2  1  0
  5  7  1  0
  5  4  1  0
  5  6  1  6
  7  8  2  0
  9 10  1  0
 10 20  2  0
 10 11  1  0
 11 12  2  0
 12 13  1  0
 13 14  1  0
 15 14  1  1
 16 15  1  0
 16  7  1  0
 17 15  1  0
 18 17  2  0
 19 13  2  0
 20 19  1  0
 21 17  1  0
 22 25  1  0
 22 21  1  0
 22 23  1  6
 24 23  1  0
 25 26  1  0
 27 25  2  0
M  END
$$$$
