FDW.pdb
     RDKit          3D

 34 36  0  0  1  0  0  0  0  0999 V2000
   22.3539  -20.4776  -17.7642 N   0  0  0  0  0  0  0  0  0  0  0  0
   23.2097  -19.5378  -17.0460 C   0  0  1  0  0  0  0  0  0  0  0  0
   22.3108  -18.6390  -16.2664 C   0  0  0  0  0  0  0  0  0  0  0  0
   21.5242  -17.6872  -17.0366 C   0  0  0  0  0  0  0  0  0  0  0  0
   22.1381  -16.6362  -17.6683 C   0  0  0  0  0  0  0  0  0  0  0  0
   21.4530  -15.6953  -18.4205 C   0  0  0  0  0  0  0  0  0  0  0  0
   20.0845  -15.8623  -18.5123 C   0  0  0  0  0  0  0  0  0  0  0  0
   19.4501  -16.9122  -17.8842 C   0  0  0  0  0  0  0  0  0  0  0  0
   20.1648  -17.8227  -17.1485 C   0  0  0  0  0  0  0  0  0  0  0  0
   24.1960  -20.2871  -16.2773 C   0  0  0  0  0  0  0  0  0  0  0  0
   23.8408  -21.2278  -15.4897 O   0  0  0  0  0  0  0  0  0  0  0  0
   25.6076  -20.0615  -16.3194 N   0  0  0  0  0  0  0  0  0  0  0  0
   26.5283  -20.7388  -15.4287 C   0  0  1  0  0  0  0  0  0  0  0  0
   27.8989  -20.6542  -16.1000 C   0  0  0  0  0  0  0  0  0  0  0  0
   28.0066  -21.5366  -17.2672 C   0  0  0  0  0  0  0  0  0  0  0  0
   27.2846  -22.5853  -17.2386 O   0  0  0  0  0  0  0  0  0  0  0  0
   26.5702  -20.1738  -14.0868 C   0  0  0  0  0  0  0  0  0  0  0  0
   26.6891  -18.9504  -13.9073 O   0  0  0  0  0  0  0  0  0  0  0  0
   28.7897  -21.3619  -18.3740 O   0  0  0  0  0  0  0  0  0  0  0  0
   26.4740  -21.0347  -12.9702 N   0  0  0  0  0  0  0  0  0  0  0  0
   26.7815  -20.6687  -11.6264 C   0  0  1  0  0  0  0  0  0  0  0  0
   25.8106  -19.6393  -11.0976 C   0  0  0  0  0  0  0  0  0  0  0  0
   24.4422  -20.1189  -10.8911 C   0  0  0  0  0  0  0  0  0  0  0  0
   23.9064  -20.4987   -9.6626 C   0  0  0  0  0  0  0  0  0  0  0  0
   22.6296  -20.9061   -9.8349 N   0  0  0  0  0  0  0  0  0  0  0  0
   22.3042  -20.8081  -11.1329 C   0  0  0  0  0  0  0  0  0  0  0  0
   21.1344  -21.0875  -11.8209 C   0  0  0  0  0  0  0  0  0  0  0  0
   21.0368  -20.8924  -13.1806 C   0  0  0  0  0  0  0  0  0  0  0  0
   22.1575  -20.4043  -13.8368 C   0  0  0  0  0  0  0  0  0  0  0  0
   23.3239  -20.1242  -13.1623 C   0  0  0  0  0  0  0  0  0  0  0  0
   23.4237  -20.3209  -11.7907 C   0  0  0  0  0  0  0  0  0  0  0  0
   26.6870  -21.8668  -10.7638 C   0  0  0  0  0  0  0  0  0  0  0  0
   26.2924  -23.1144  -11.2830 O   0  0  0  0  0  0  0  0  0  0  0  0
   26.9623  -21.7839   -9.5373 O   0  0  0  0  0  0  0  0  0  0  0  0
  2  1  1  1
  3  2  1  0
  4  3  1  0
  5  4  2  0
  6  5  1  0
  7  8  1  0
  7  6  2  0
  8  9  2  0
  9  4  1  0
 10 12  1  0
 10  2  1  0
 11 10  2  0
 13 12  1  0
 13 14  1  6
 14 15  1  0
 15 19  1  0
 16 15  2  0
 17 13  1  0
 18 17  2  0
 20 17  1  0
 21 32  1  0
 21 20  1  0
 21 22  1  1
 23 31  1  0
 23 22  1  0
 24 23  2  0
 25 24  1  0
 25 26  1  0
 26 27  1  0
 26 31  2  0
 27 28  2  0
 28 29  1  0
 30 29  2  0
 31 30  1  0
 32 33  1  0
 34 32  2  0
M  END
$$$$
