FDW.pdb
     RDKit          3D

 34 36  0  0  1  0  0  0  0  0999 V2000
   22.8072   -3.9749  -19.8787 N   0  0  0  0  0  0  0  0  0  0  0  0
   22.6773   -3.9094  -18.4260 C   0  0  1  0  0  0  0  0  0  0  0  0
   22.1451   -2.5557  -18.0972 C   0  0  0  0  0  0  0  0  0  0  0  0
   23.0223   -1.4305  -18.3837 C   0  0  0  0  0  0  0  0  0  0  0  0
   24.1154   -1.1886  -17.5916 C   0  0  0  0  0  0  0  0  0  0  0  0
   24.9944   -0.1392  -17.8075 C   0  0  0  0  0  0  0  0  0  0  0  0
   24.7183    0.6797  -18.8855 C   0  0  0  0  0  0  0  0  0  0  0  0
   23.6246    0.4524  -19.6926 C   0  0  0  0  0  0  0  0  0  0  0  0
   22.7782   -0.5980  -19.4450 C   0  0  0  0  0  0  0  0  0  0  0  0
   21.8821   -5.0426  -17.9696 C   0  0  0  0  0  0  0  0  0  0  0  0
   20.7564   -5.3164  -18.5075 O   0  0  0  0  0  0  0  0  0  0  0  0
   22.2588   -5.9337  -16.9163 N   0  0  0  0  0  0  0  0  0  0  0  0
   21.4229   -7.0425  -16.5021 C   0  0  1  0  0  0  0  0  0  0  0  0
   22.3685   -8.0703  -15.8810 C   0  0  0  0  0  0  0  0  0  0  0  0
   21.6792   -9.3088  -15.5020 C   0  0  0  0  0  0  0  0  0  0  0  0
   21.3704   -9.4177  -14.2713 O   0  0  0  0  0  0  0  0  0  0  0  0
   20.3727   -6.6683  -15.5648 C   0  0  0  0  0  0  0  0  0  0  0  0
   20.6271   -6.0092  -14.5431 O   0  0  0  0  0  0  0  0  0  0  0  0
   21.3341  -10.3522  -16.3149 O   0  0  0  0  0  0  0  0  0  0  0  0
   19.0407   -7.0633  -15.8242 N   0  0  0  0  0  0  0  0  0  0  0  0
   17.9091   -6.6873  -15.0417 C   0  0  1  0  0  0  0  0  0  0  0  0
   16.6354   -6.7359  -15.8523 C   0  0  0  0  0  0  0  0  0  0  0  0
   16.3385   -8.0290  -16.4730 C   0  0  0  0  0  0  0  0  0  0  0  0
   16.1071   -9.2137  -15.7777 C   0  0  0  0  0  0  0  0  0  0  0  0
   15.8844  -10.2154  -16.6567 N   0  0  0  0  0  0  0  0  0  0  0  0
   15.9604   -9.7336  -17.9066 C   0  0  0  0  0  0  0  0  0  0  0  0
   15.8053  -10.3353  -19.1452 C   0  0  0  0  0  0  0  0  0  0  0  0
   15.9228   -9.6154  -20.3132 C   0  0  0  0  0  0  0  0  0  0  0  0
   16.2030   -8.2612  -20.2021 C   0  0  0  0  0  0  0  0  0  0  0  0
   16.3592   -7.6546  -18.9767 C   0  0  0  0  0  0  0  0  0  0  0  0
   16.2414   -8.3798  -17.7976 C   0  0  0  0  0  0  0  0  0  0  0  0
   17.7648   -7.6323  -13.9127 C   0  0  0  0  0  0  0  0  0  0  0  0
   17.0187   -7.2969  -12.7670 O   0  0  0  0  0  0  0  0  0  0  0  0
   18.3153   -8.7643  -13.9636 O   0  0  0  0  0  0  0  0  0  0  0  0
  2  1  1  6
  3  2  1  0
  4  3  1  0
  5  4  2  0
  6  5  1  0
  7  8  1  0
  7  6  2  0
  8  9  2  0
  9  4  1  0
 10 12  1  0
 10  2  1  0
 11 10  2  0
 13 12  1  0
 13 14  1  1
 14 15  1  0
 15 19  1  0
 16 15  2  0
 17 13  1  0
 18 17  2  0
 20 17  1  0
 21 32  1  0
 21 20  1  0
 21 22  1  6
 23 31  1  0
 23 22  1  0
 24 23  2  0
 25 24  1  0
 25 26  1  0
 26 27  1  0
 26 31  2  0
 27 28  2  0
 28 29  1  0
 30 29  2  0
 31 30  1  0
 32 33  1  0
 34 32  2  0
M  END
$$$$
