FDW.pdb
     RDKit          3D

 34 36  0  0  1  0  0  0  0  0999 V2000
   29.0851  -21.2116  -14.9641 N   0  0  0  0  0  0  0  0  0  0  0  0
   28.0989  -21.6786  -13.9941 C   0  0  1  0  0  0  0  0  0  0  0  0
   28.1873  -20.7725  -12.8130 C   0  0  0  0  0  0  0  0  0  0  0  0
   29.3584  -20.9318  -11.9638 C   0  0  0  0  0  0  0  0  0  0  0  0
   29.4805  -22.0337  -11.1565 C   0  0  0  0  0  0  0  0  0  0  0  0
   30.5683  -22.2519  -10.3262 C   0  0  0  0  0  0  0  0  0  0  0  0
   31.5562  -21.2860  -10.3437 C   0  0  0  0  0  0  0  0  0  0  0  0
   31.4509  -20.1721  -11.1482 C   0  0  0  0  0  0  0  0  0  0  0  0
   30.3572  -19.9932  -11.9562 C   0  0  0  0  0  0  0  0  0  0  0  0
   26.7973  -21.7635  -14.6450 C   0  0  0  0  0  0  0  0  0  0  0  0
   26.3576  -20.8049  -15.3655 O   0  0  0  0  0  0  0  0  0  0  0  0
   25.9092  -22.8807  -14.5529 N   0  0  0  0  0  0  0  0  0  0  0  0
   24.5420  -22.8261  -15.0298 C   0  0  1  0  0  0  0  0  0  0  0  0
   24.2791  -24.1736  -15.7018 C   0  0  0  0  0  0  0  0  0  0  0  0
   25.3256  -24.5331  -16.6652 C   0  0  0  0  0  0  0  0  0  0  0  0
   25.3696  -23.8288  -17.7253 O   0  0  0  0  0  0  0  0  0  0  0  0
   23.5641  -22.5676  -13.9817 C   0  0  0  0  0  0  0  0  0  0  0  0
   23.4800  -23.3036  -12.9846 O   0  0  0  0  0  0  0  0  0  0  0  0
   26.2519  -25.5323  -16.5546 O   0  0  0  0  0  0  0  0  0  0  0  0
   22.6961  -21.4590  -14.1034 N   0  0  0  0  0  0  0  0  0  0  0  0
   21.5098  -21.2611  -13.3367 C   0  0  1  0  0  0  0  0  0  0  0  0
   21.7811  -20.4356  -12.1011 C   0  0  0  0  0  0  0  0  0  0  0  0
   23.1962  -20.2040  -11.8024 C   0  0  0  0  0  0  0  0  0  0  0  0
   24.1264  -19.6837  -12.6993 C   0  0  0  0  0  0  0  0  0  0  0  0
   25.3383  -19.6207  -12.1050 N   0  0  0  0  0  0  0  0  0  0  0  0
   25.2403  -20.0803  -10.8483 C   0  0  0  0  0  0  0  0  0  0  0  0
   26.1741  -20.2171   -9.8337 C   0  0  0  0  0  0  0  0  0  0  0  0
   25.8248  -20.7157   -8.5985 C   0  0  0  0  0  0  0  0  0  0  0  0
   24.4989  -21.0768   -8.4084 C   0  0  0  0  0  0  0  0  0  0  0  0
   23.5643  -20.9452   -9.4099 C   0  0  0  0  0  0  0  0  0  0  0  0
   23.9154  -20.4427  -10.6565 C   0  0  0  0  0  0  0  0  0  0  0  0
   20.5169  -20.5351  -14.1586 C   0  0  0  0  0  0  0  0  0  0  0  0
   20.8491  -20.0238  -15.4275 O   0  0  0  0  0  0  0  0  0  0  0  0
   19.3459  -20.3632  -13.7269 O   0  0  0  0  0  0  0  0  0  0  0  0
  2  1  1  6
  3  2  1  0
  4  3  1  0
  5  4  2  0
  6  5  1  0
  7  8  1  0
  7  6  2  0
  8  9  2  0
  9  4  1  0
 10 12  1  0
 10  2  1  0
 11 10  2  0
 13 12  1  0
 13 14  1  1
 14 15  1  0
 15 19  1  0
 16 15  2  0
 17 13  1  0
 18 17  2  0
 20 17  1  0
 21 32  1  0
 21 20  1  0
 21 22  1  1
 23 31  1  0
 23 22  1  0
 24 23  2  0
 25 24  1  0
 25 26  1  0
 26 27  1  0
 26 31  2  0
 27 28  2  0
 28 29  1  0
 30 29  2  0
 31 30  1  0
 32 33  1  0
 34 32  2  0
M  END
$$$$
