FDW.pdb
     RDKit          3D

 34 36  0  0  1  0  0  0  0  0999 V2000
   28.4940  -21.5099  -10.9007 N   0  0  0  0  0  0  0  0  0  0  0  0
   27.1473  -21.1606  -10.4582 C   0  0  1  0  0  0  0  0  0  0  0  0
   27.2704  -19.9382   -9.6130 C   0  0  0  0  0  0  0  0  0  0  0  0
   27.7950  -20.1327   -8.2696 C   0  0  0  0  0  0  0  0  0  0  0  0
   29.1449  -20.0594   -8.0388 C   0  0  0  0  0  0  0  0  0  0  0  0
   29.7131  -20.2304   -6.7865 C   0  0  0  0  0  0  0  0  0  0  0  0
   28.8397  -20.4855   -5.7467 C   0  0  0  0  0  0  0  0  0  0  0  0
   27.4803  -20.5629   -5.9594 C   0  0  0  0  0  0  0  0  0  0  0  0
   26.9572  -20.3875   -7.2151 C   0  0  0  0  0  0  0  0  0  0  0  0
   26.2784  -21.0532  -11.6237 C   0  0  0  0  0  0  0  0  0  0  0  0
   26.6434  -20.4009  -12.6594 O   0  0  0  0  0  0  0  0  0  0  0  0
   24.9791  -21.6412  -11.7310 N   0  0  0  0  0  0  0  0  0  0  0  0
   24.1100  -21.4005  -12.8652 C   0  0  1  0  0  0  0  0  0  0  0  0
   23.8328  -22.7727  -13.4788 C   0  0  0  0  0  0  0  0  0  0  0  0
   24.9596  -23.2673  -14.2777 C   0  0  0  0  0  0  0  0  0  0  0  0
   25.3447  -24.4534  -14.0195 O   0  0  0  0  0  0  0  0  0  0  0  0
   22.8670  -20.7242  -12.5197 C   0  0  0  0  0  0  0  0  0  0  0  0
   22.2248  -21.0379  -11.5037 O   0  0  0  0  0  0  0  0  0  0  0  0
   25.6388  -22.6029  -15.2606 O   0  0  0  0  0  0  0  0  0  0  0  0
   22.3846  -19.6929  -13.3568 N   0  0  0  0  0  0  0  0  0  0  0  0
   21.1298  -19.0329  -13.2012 C   0  0  1  0  0  0  0  0  0  0  0  0
   20.8915  -18.0304  -14.3058 C   0  0  0  0  0  0  0  0  0  0  0  0
   20.9214  -18.5779  -15.6639 C   0  0  0  0  0  0  0  0  0  0  0  0
   19.8144  -19.0727  -16.3496 C   0  0  0  0  0  0  0  0  0  0  0  0
   20.1996  -19.5153  -17.5668 N   0  0  0  0  0  0  0  0  0  0  0  0
   21.5208  -19.3296  -17.7084 C   0  0  0  0  0  0  0  0  0  0  0  0
   22.3903  -19.6003  -18.7528 C   0  0  0  0  0  0  0  0  0  0  0  0
   23.7323  -19.3042  -18.6653 C   0  0  0  0  0  0  0  0  0  0  0  0
   24.1816  -18.7230  -17.4885 C   0  0  0  0  0  0  0  0  0  0  0  0
   23.3260  -18.4506  -16.4455 C   0  0  0  0  0  0  0  0  0  0  0  0
   21.9720  -18.7492  -16.5324 C   0  0  0  0  0  0  0  0  0  0  0  0
   20.0441  -20.0362  -13.2571 C   0  0  0  0  0  0  0  0  0  0  0  0
   20.2301  -21.2833  -13.8831 O   0  0  0  0  0  0  0  0  0  0  0  0
   18.9246  -19.7832  -12.7378 O   0  0  0  0  0  0  0  0  0  0  0  0
  2  1  1  6
  3  2  1  0
  4  3  1  0
  5  4  2  0
  6  5  1  0
  7  8  1  0
  7  6  2  0
  8  9  2  0
  9  4  1  0
 10 12  1  0
 10  2  1  0
 11 10  2  0
 13 12  1  0
 13 14  1  1
 14 15  1  0
 15 19  1  0
 16 15  2  0
 17 13  1  0
 18 17  2  0
 20 17  1  0
 21 32  1  0
 21 20  1  0
 21 22  1  6
 23 31  1  0
 23 22  1  0
 24 23  2  0
 25 24  1  0
 25 26  1  0
 26 27  1  0
 26 31  2  0
 27 28  2  0
 28 29  1  0
 30 29  2  0
 31 30  1  0
 32 33  1  0
 34 32  2  0
M  END
$$$$
