FDW.pdb
     RDKit          3D

 34 36  0  0  1  0  0  0  0  0999 V2000
   29.3335  -21.8579   -9.2411 N   0  0  0  0  0  0  0  0  0  0  0  0
   28.0241  -21.2173   -9.1595 C   0  0  1  0  0  0  0  0  0  0  0  0
   28.2275  -19.8929   -8.5050 C   0  0  0  0  0  0  0  0  0  0  0  0
   28.1779  -19.8775   -7.0507 C   0  0  0  0  0  0  0  0  0  0  0  0
   29.3174  -20.0941   -6.3190 C   0  0  0  0  0  0  0  0  0  0  0  0
   29.3445  -20.0900   -4.9336 C   0  0  0  0  0  0  0  0  0  0  0  0
   28.1411  -19.8518   -4.2977 C   0  0  0  0  0  0  0  0  0  0  0  0
   26.9857  -19.6322   -5.0160 C   0  0  0  0  0  0  0  0  0  0  0  0
   27.0012  -19.6444   -6.3874 C   0  0  0  0  0  0  0  0  0  0  0  0
   27.4242  -21.1942  -10.4878 C   0  0  0  0  0  0  0  0  0  0  0  0
   28.1505  -21.1643  -11.5380 O   0  0  0  0  0  0  0  0  0  0  0  0
   26.0182  -21.2027  -10.7495 N   0  0  0  0  0  0  0  0  0  0  0  0
   25.4758  -21.4712  -12.0661 C   0  0  1  0  0  0  0  0  0  0  0  0
   25.3180  -22.9891  -12.1522 C   0  0  0  0  0  0  0  0  0  0  0  0
   24.9089  -23.4350  -13.4888 C   0  0  0  0  0  0  0  0  0  0  0  0
   23.6759  -23.7235  -13.6243 O   0  0  0  0  0  0  0  0  0  0  0  0
   24.2096  -20.8005  -12.3278 C   0  0  0  0  0  0  0  0  0  0  0  0
   23.2845  -20.8267  -11.4992 O   0  0  0  0  0  0  0  0  0  0  0  0
   25.6965  -23.5757  -14.5972 O   0  0  0  0  0  0  0  0  0  0  0  0
   24.0322  -20.1084  -13.5471 N   0  0  0  0  0  0  0  0  0  0  0  0
   22.8310  -19.4518  -13.9474 C   0  0  1  0  0  0  0  0  0  0  0  0
   22.9237  -18.9470  -15.3682 C   0  0  0  0  0  0  0  0  0  0  0  0
   21.7691  -18.1755  -15.8339 C   0  0  0  0  0  0  0  0  0  0  0  0
   21.4986  -16.8543  -15.4849 C   0  0  0  0  0  0  0  0  0  0  0  0
   20.3484  -16.4594  -16.0740 N   0  0  0  0  0  0  0  0  0  0  0  0
   19.8511  -17.4728  -16.7992 C   0  0  0  0  0  0  0  0  0  0  0  0
   18.7171  -17.5816  -17.5879 C   0  0  0  0  0  0  0  0  0  0  0  0
   18.4167  -18.7472  -18.2570 C   0  0  0  0  0  0  0  0  0  0  0  0
   19.2952  -19.8109  -18.1107 C   0  0  0  0  0  0  0  0  0  0  0  0
   20.4237  -19.7127  -17.3293 C   0  0  0  0  0  0  0  0  0  0  0  0
   20.7277  -18.5376  -16.6535 C   0  0  0  0  0  0  0  0  0  0  0  0
   21.7077  -20.4121  -13.8795 C   0  0  0  0  0  0  0  0  0  0  0  0
   21.8152  -21.7054  -14.4250 O   0  0  0  0  0  0  0  0  0  0  0  0
   20.6266  -20.0795  -13.3248 O   0  0  0  0  0  0  0  0  0  0  0  0
  2  1  1  6
  3  2  1  0
  4  3  1  0
  5  4  2  0
  6  5  1  0
  7  8  1  0
  7  6  2  0
  8  9  2  0
  9  4  1  0
 10 12  1  0
 10  2  1  0
 11 10  2  0
 13 12  1  0
 13 14  1  1
 14 15  1  0
 15 19  1  0
 16 15  2  0
 17 13  1  0
 18 17  2  0
 20 17  1  0
 21 32  1  0
 21 20  1  0
 21 22  1  6
 23 31  1  0
 23 22  1  0
 24 23  2  0
 25 24  1  0
 25 26  1  0
 26 27  1  0
 26 31  2  0
 27 28  2  0
 28 29  1  0
 30 29  2  0
 31 30  1  0
 32 33  1  0
 34 32  2  0
M  END
$$$$
