FDW.pdb
     RDKit          3D

 34 36  0  0  1  0  0  0  0  0999 V2000
   28.6675  -21.0712  -10.5756 N   0  0  0  0  0  0  0  0  0  0  0  0
   27.2968  -21.2238  -10.0969 C   0  0  1  0  0  0  0  0  0  0  0  0
   27.1271  -20.2802   -8.9547 C   0  0  0  0  0  0  0  0  0  0  0  0
   28.0589  -20.4332   -7.8474 C   0  0  0  0  0  0  0  0  0  0  0  0
   28.9902  -21.4398   -7.8634 C   0  0  0  0  0  0  0  0  0  0  0  0
   29.9095  -21.6422   -6.8465 C   0  0  0  0  0  0  0  0  0  0  0  0
   29.8498  -20.7631   -5.7823 C   0  0  0  0  0  0  0  0  0  0  0  0
   28.9209  -19.7456   -5.7485 C   0  0  0  0  0  0  0  0  0  0  0  0
   28.0277  -19.5790   -6.7758 C   0  0  0  0  0  0  0  0  0  0  0  0
   26.3811  -21.0499  -11.2177 C   0  0  0  0  0  0  0  0  0  0  0  0
   26.5109  -20.0713  -12.0283 O   0  0  0  0  0  0  0  0  0  0  0  0
   25.2856  -21.9181  -11.5200 N   0  0  0  0  0  0  0  0  0  0  0  0
   24.3933  -21.6811  -12.6369 C   0  0  1  0  0  0  0  0  0  0  0  0
   24.1311  -23.0515  -13.2612 C   0  0  0  0  0  0  0  0  0  0  0  0
   25.1746  -23.4411  -14.2162 C   0  0  0  0  0  0  0  0  0  0  0  0
   25.7953  -22.4834  -14.7813 O   0  0  0  0  0  0  0  0  0  0  0  0
   23.1441  -21.0318  -12.2633 C   0  0  0  0  0  0  0  0  0  0  0  0
   22.5154  -21.3809  -11.2505 O   0  0  0  0  0  0  0  0  0  0  0  0
   25.5526  -24.7073  -14.5662 O   0  0  0  0  0  0  0  0  0  0  0  0
   22.6399  -19.9860  -13.0692 N   0  0  0  0  0  0  0  0  0  0  0  0
   21.4249  -19.2797  -12.8264 C   0  0  1  0  0  0  0  0  0  0  0  0
   21.4469  -17.9078  -13.4583 C   0  0  0  0  0  0  0  0  0  0  0  0
   20.2266  -17.1177  -13.2797 C   0  0  0  0  0  0  0  0  0  0  0  0
   19.7586  -16.6371  -12.0588 C   0  0  0  0  0  0  0  0  0  0  0  0
   18.6012  -15.9671  -12.2526 N   0  0  0  0  0  0  0  0  0  0  0  0
   18.2897  -15.9884  -13.5575 C   0  0  0  0  0  0  0  0  0  0  0  0
   17.2286  -15.4505  -14.2681 C   0  0  0  0  0  0  0  0  0  0  0  0
   17.1295  -15.5997  -15.6335 C   0  0  0  0  0  0  0  0  0  0  0  0
   18.1351  -16.3110  -16.2719 C   0  0  0  0  0  0  0  0  0  0  0  0
   19.1926  -16.8493  -15.5749 C   0  0  0  0  0  0  0  0  0  0  0  0
   19.2936  -16.6998  -14.1974 C   0  0  0  0  0  0  0  0  0  0  0  0
   20.2988  -20.0341  -13.4190 C   0  0  0  0  0  0  0  0  0  0  0  0
   19.0333  -20.0660  -12.8032 O   0  0  0  0  0  0  0  0  0  0  0  0
   20.4609  -20.6658  -14.4968 O   0  0  0  0  0  0  0  0  0  0  0  0
  2  1  1  6
  3  2  1  0
  4  3  1  0
  5  4  2  0
  6  5  1  0
  7  8  1  0
  7  6  2  0
  8  9  2  0
  9  4  1  0
 10 12  1  0
 10  2  1  0
 11 10  2  0
 13 12  1  0
 13 14  1  1
 14 15  1  0
 15 19  1  0
 16 15  2  0
 17 13  1  0
 18 17  2  0
 20 17  1  0
 21 32  1  0
 21 20  1  0
 21 22  1  6
 23 31  1  0
 23 22  1  0
 24 23  2  0
 25 24  1  0
 25 26  1  0
 26 27  1  0
 26 31  2  0
 27 28  2  0
 28 29  1  0
 30 29  2  0
 31 30  1  0
 32 33  1  0
 34 32  2  0
M  END
$$$$
