FDW.pdb
     RDKit          3D

 34 36  0  0  1  0  0  0  0  0999 V2000
   23.5485  -14.9440  -16.3490 N   0  0  0  0  0  0  0  0  0  0  0  0
   23.7933  -16.3482  -16.6648 C   0  0  1  0  0  0  0  0  0  0  0  0
   24.8771  -16.8166  -15.7539 C   0  0  0  0  0  0  0  0  0  0  0  0
   26.1932  -16.2315  -15.9627 C   0  0  0  0  0  0  0  0  0  0  0  0
   26.7127  -15.3560  -15.0439 C   0  0  0  0  0  0  0  0  0  0  0  0
   27.9589  -14.7647  -15.1762 C   0  0  0  0  0  0  0  0  0  0  0  0
   28.6806  -15.1019  -16.3052 C   0  0  0  0  0  0  0  0  0  0  0  0
   28.1750  -15.9798  -17.2395 C   0  0  0  0  0  0  0  0  0  0  0  0
   26.9362  -16.5439  -17.0714 C   0  0  0  0  0  0  0  0  0  0  0  0
   22.5326  -17.0767  -16.5941 C   0  0  0  0  0  0  0  0  0  0  0  0
   21.6828  -16.8342  -15.6719 O   0  0  0  0  0  0  0  0  0  0  0  0
   22.1264  -18.0974  -17.5098 N   0  0  0  0  0  0  0  0  0  0  0  0
   20.8590  -18.7892  -17.3879 C   0  0  1  0  0  0  0  0  0  0  0  0
   20.1889  -18.6794  -18.7573 C   0  0  0  0  0  0  0  0  0  0  0  0
   18.8854  -19.3516  -18.7988 C   0  0  0  0  0  0  0  0  0  0  0  0
   18.6177  -19.9773  -19.8751 O   0  0  0  0  0  0  0  0  0  0  0  0
   20.9868  -20.1820  -16.9811 C   0  0  0  0  0  0  0  0  0  0  0  0
   21.6832  -20.9803  -17.6297 O   0  0  0  0  0  0  0  0  0  0  0  0
   17.9319  -19.3810  -17.8196 O   0  0  0  0  0  0  0  0  0  0  0  0
   20.3051  -20.6312  -15.8275 N   0  0  0  0  0  0  0  0  0  0  0  0
   20.3738  -21.9548  -15.3006 C   0  0  1  0  0  0  0  0  0  0  0  0
   21.0909  -21.9844  -13.9714 C   0  0  0  0  0  0  0  0  0  0  0  0
   20.2970  -21.5418  -12.8229 C   0  0  0  0  0  0  0  0  0  0  0  0
   19.6751  -22.3889  -11.9085 C   0  0  0  0  0  0  0  0  0  0  0  0
   19.0130  -21.6516  -10.9899 N   0  0  0  0  0  0  0  0  0  0  0  0
   19.1764  -20.3487  -11.2656 C   0  0  0  0  0  0  0  0  0  0  0  0
   18.7184  -19.2017  -10.6374 C   0  0  0  0  0  0  0  0  0  0  0  0
   19.0336  -17.9481  -11.1123 C   0  0  0  0  0  0  0  0  0  0  0  0
   19.8292  -17.8774  -12.2466 C   0  0  0  0  0  0  0  0  0  0  0  0
   20.2886  -19.0108  -12.8778 C   0  0  0  0  0  0  0  0  0  0  0  0
   19.9710  -20.2760  -12.4000 C   0  0  0  0  0  0  0  0  0  0  0  0
   19.0011  -22.4634  -15.0869 C   0  0  0  0  0  0  0  0  0  0  0  0
   18.7536  -23.8296  -14.8548 O   0  0  0  0  0  0  0  0  0  0  0  0
   18.0237  -21.6689  -15.1104 O   0  0  0  0  0  0  0  0  0  0  0  0
  2  1  1  1
  3  2  1  0
  4  3  1  0
  5  4  2  0
  6  5  1  0
  7  8  1  0
  7  6  2  0
  8  9  2  0
  9  4  1  0
 10 12  1  0
 10  2  1  0
 11 10  2  0
 13 12  1  0
 13 14  1  6
 14 15  1  0
 15 19  1  0
 16 15  2  0
 17 13  1  0
 18 17  2  0
 20 17  1  0
 21 32  1  0
 21 20  1  0
 21 22  1  1
 23 31  1  0
 23 22  1  0
 24 23  2  0
 25 24  1  0
 25 26  1  0
 26 27  1  0
 26 31  2  0
 27 28  2  0
 28 29  1  0
 30 29  2  0
 31 30  1  0
 32 33  1  0
 34 32  2  0
M  END
$$$$
