FDW.pdb
     RDKit          3D

 34 36  0  0  1  0  0  0  0  0999 V2000
   32.3581  -22.5158  -11.4752 N   0  0  0  0  0  0  0  0  0  0  0  0
   31.3847  -22.0550  -10.4894 C   0  0  1  0  0  0  0  0  0  0  0  0
   32.1484  -21.3490   -9.4208 C   0  0  0  0  0  0  0  0  0  0  0  0
   31.5957  -21.4228   -8.0766 C   0  0  0  0  0  0  0  0  0  0  0  0
   32.0625  -22.3582   -7.1891 C   0  0  0  0  0  0  0  0  0  0  0  0
   31.5856  -22.4831   -5.8940 C   0  0  0  0  0  0  0  0  0  0  0  0
   30.5903  -21.6009   -5.5196 C   0  0  0  0  0  0  0  0  0  0  0  0
   30.1085  -20.6542   -6.3977 C   0  0  0  0  0  0  0  0  0  0  0  0
   30.6075  -20.5633   -7.6719 C   0  0  0  0  0  0  0  0  0  0  0  0
   30.3556  -21.2764  -11.1675 C   0  0  0  0  0  0  0  0  0  0  0  0
   30.6134  -20.1214  -11.6481 O   0  0  0  0  0  0  0  0  0  0  0  0
   29.0041  -21.7019  -11.3613 N   0  0  0  0  0  0  0  0  0  0  0  0
   28.0586  -20.9441  -12.1559 C   0  0  1  0  0  0  0  0  0  0  0  0
   28.7037  -20.7820  -13.5322 C   0  0  0  0  0  0  0  0  0  0  0  0
   27.8212  -20.1042  -14.4884 C   0  0  0  0  0  0  0  0  0  0  0  0
   26.9774  -19.2932  -13.9863 O   0  0  0  0  0  0  0  0  0  0  0  0
   26.7484  -21.5708  -12.2659 C   0  0  0  0  0  0  0  0  0  0  0  0
   26.6204  -22.7182  -12.7242 O   0  0  0  0  0  0  0  0  0  0  0  0
   27.8019  -20.2447  -15.8480 O   0  0  0  0  0  0  0  0  0  0  0  0
   25.6031  -20.8588  -11.8431 N   0  0  0  0  0  0  0  0  0  0  0  0
   25.0193  -20.9455  -10.5447 C   0  0  1  0  0  0  0  0  0  0  0  0
   25.9553  -20.4210   -9.4813 C   0  0  0  0  0  0  0  0  0  0  0  0
   25.4479  -20.4970   -8.1094 C   0  0  0  0  0  0  0  0  0  0  0  0
   24.3018  -21.1861   -7.7194 C   0  0  0  0  0  0  0  0  0  0  0  0
   24.1148  -21.0327   -6.3899 N   0  0  0  0  0  0  0  0  0  0  0  0
   25.0969  -20.2677   -5.8894 C   0  0  0  0  0  0  0  0  0  0  0  0
   25.3669  -19.8262   -4.6041 C   0  0  0  0  0  0  0  0  0  0  0  0
   26.4649  -19.0415   -4.3300 C   0  0  0  0  0  0  0  0  0  0  0  0
   27.2924  -18.7092   -5.3928 C   0  0  0  0  0  0  0  0  0  0  0  0
   27.0323  -19.1424   -6.6729 C   0  0  0  0  0  0  0  0  0  0  0  0
   25.9248  -19.9337   -6.9507 C   0  0  0  0  0  0  0  0  0  0  0  0
   23.7887  -20.1252  -10.5106 C   0  0  0  0  0  0  0  0  0  0  0  0
   22.6830  -20.4949   -9.7217 O   0  0  0  0  0  0  0  0  0  0  0  0
   23.7144  -19.0711  -11.1966 O   0  0  0  0  0  0  0  0  0  0  0  0
  2  1  1  6
  3  2  1  0
  4  3  1  0
  5  4  2  0
  6  5  1  0
  7  8  1  0
  7  6  2  0
  8  9  2  0
  9  4  1  0
 10 12  1  0
 10  2  1  0
 11 10  2  0
 13 12  1  0
 13 14  1  6
 14 15  1  0
 15 19  1  0
 16 15  2  0
 17 13  1  0
 18 17  2  0
 20 17  1  0
 21 32  1  0
 21 20  1  0
 21 22  1  1
 23 31  1  0
 23 22  1  0
 24 23  2  0
 25 24  1  0
 25 26  1  0
 26 27  1  0
 26 31  2  0
 27 28  2  0
 28 29  1  0
 30 29  2  0
 31 30  1  0
 32 33  1  0
 34 32  2  0
M  END
$$$$
