FDW.pdb
     RDKit          3D

 34 36  0  0  1  0  0  0  0  0999 V2000
   24.5019  -13.4010  -18.9778 N   0  0  0  0  0  0  0  0  0  0  0  0
   23.5586  -13.1349  -17.8957 C   0  0  1  0  0  0  0  0  0  0  0  0
   24.2611  -13.4505  -16.6186 C   0  0  0  0  0  0  0  0  0  0  0  0
   25.5016  -12.7314  -16.3699 C   0  0  0  0  0  0  0  0  0  0  0  0
   26.7064  -13.3024  -16.6911 C   0  0  0  0  0  0  0  0  0  0  0  0
   27.9247  -12.6750  -16.4857 C   0  0  0  0  0  0  0  0  0  0  0  0
   27.8773  -11.4121  -15.9272 C   0  0  0  0  0  0  0  0  0  0  0  0
   26.6762  -10.8222  -15.5977 C   0  0  0  0  0  0  0  0  0  0  0  0
   25.4913  -11.4771  -15.8172 C   0  0  0  0  0  0  0  0  0  0  0  0
   23.0510  -11.7754  -18.0329 C   0  0  0  0  0  0  0  0  0  0  0  0
   23.6138  -10.9382  -18.8165 O   0  0  0  0  0  0  0  0  0  0  0  0
   21.9165  -11.2527  -17.3365 N   0  0  0  0  0  0  0  0  0  0  0  0
   21.4932   -9.8731  -17.4684 C   0  0  1  0  0  0  0  0  0  0  0  0
   20.3135   -9.8884  -18.4402 C   0  0  0  0  0  0  0  0  0  0  0  0
   19.8108   -8.5414  -18.7326 C   0  0  0  0  0  0  0  0  0  0  0  0
   18.6246   -8.2945  -18.3403 O   0  0  0  0  0  0  0  0  0  0  0  0
   21.1196   -9.2500  -16.2060 C   0  0  0  0  0  0  0  0  0  0  0  0
   20.4638   -9.8695  -15.3520 O   0  0  0  0  0  0  0  0  0  0  0  0
   20.4670   -7.5287  -19.3749 O   0  0  0  0  0  0  0  0  0  0  0  0
   21.5109   -7.9163  -15.9501 N   0  0  0  0  0  0  0  0  0  0  0  0
   21.2867   -7.2188  -14.7264 C   0  0  1  0  0  0  0  0  0  0  0  0
   22.5878   -6.8195  -14.0710 C   0  0  0  0  0  0  0  0  0  0  0  0
   23.5563   -6.1636  -14.9526 C   0  0  0  0  0  0  0  0  0  0  0  0
   23.6359   -4.7898  -15.1690 C   0  0  0  0  0  0  0  0  0  0  0  0
   24.6259   -4.5297  -16.0512 N   0  0  0  0  0  0  0  0  0  0  0  0
   25.2020   -5.6827  -16.4238 C   0  0  0  0  0  0  0  0  0  0  0  0
   26.2495   -5.9612  -17.2870 C   0  0  0  0  0  0  0  0  0  0  0  0
   26.6769   -7.2521  -17.5047 C   0  0  0  0  0  0  0  0  0  0  0  0
   26.0169   -8.2655  -16.8250 C   0  0  0  0  0  0  0  0  0  0  0  0
   24.9752   -7.9990  -15.9661 C   0  0  0  0  0  0  0  0  0  0  0  0
   24.5428   -6.6972  -15.7459 C   0  0  0  0  0  0  0  0  0  0  0  0
   20.5215   -5.9838  -15.0056 C   0  0  0  0  0  0  0  0  0  0  0  0
   20.3600   -5.5028  -16.3187 O   0  0  0  0  0  0  0  0  0  0  0  0
   19.9980   -5.3389  -14.0585 O   0  0  0  0  0  0  0  0  0  0  0  0
  2  1  1  6
  3  2  1  0
  4  3  1  0
  5  4  2  0
  6  5  1  0
  7  8  1  0
  7  6  2  0
  8  9  2  0
  9  4  1  0
 10 12  1  0
 10  2  1  0
 11 10  2  0
 13 12  1  0
 13 14  1  6
 14 15  1  0
 15 19  1  0
 16 15  2  0
 17 13  1  0
 18 17  2  0
 20 17  1  0
 21 32  1  0
 21 20  1  0
 21 22  1  6
 23 31  1  0
 23 22  1  0
 24 23  2  0
 25 24  1  0
 25 26  1  0
 26 27  1  0
 26 31  2  0
 27 28  2  0
 28 29  1  0
 30 29  2  0
 31 30  1  0
 32 33  1  0
 34 32  2  0
M  END
$$$$
