FDW.pdb
     RDKit          3D

 34 36  0  0  1  0  0  0  0  0999 V2000
   15.3120  -25.0198   -6.0183 N   0  0  0  0  0  0  0  0  0  0  0  0
   16.2254  -26.0207   -5.4747 C   0  0  1  0  0  0  0  0  0  0  0  0
   17.6087  -25.4989   -5.6695 C   0  0  0  0  0  0  0  0  0  0  0  0
   18.0797  -25.4164   -7.0440 C   0  0  0  0  0  0  0  0  0  0  0  0
   17.7913  -24.3141   -7.8072 C   0  0  0  0  0  0  0  0  0  0  0  0
   18.2098  -24.1669   -9.1200 C   0  0  0  0  0  0  0  0  0  0  0  0
   18.9522  -25.2062   -9.6469 C   0  0  0  0  0  0  0  0  0  0  0  0
   19.2518  -26.3218   -8.8953 C   0  0  0  0  0  0  0  0  0  0  0  0
   18.8185  -26.4291   -7.5985 C   0  0  0  0  0  0  0  0  0  0  0  0
   15.8373  -26.3208   -4.1021 C   0  0  0  0  0  0  0  0  0  0  0  0
   15.0614  -25.5420   -3.4518 O   0  0  0  0  0  0  0  0  0  0  0  0
   16.2634  -27.4701   -3.3653 N   0  0  0  0  0  0  0  0  0  0  0  0
   15.6468  -27.8617   -2.1139 C   0  0  1  0  0  0  0  0  0  0  0  0
   14.1623  -28.0569   -2.4217 C   0  0  0  0  0  0  0  0  0  0  0  0
   13.3610  -28.2623   -1.2100 C   0  0  0  0  0  0  0  0  0  0  0  0
   13.3868  -27.3141   -0.3602 O   0  0  0  0  0  0  0  0  0  0  0  0
   16.2196  -29.0661   -1.5283 C   0  0  0  0  0  0  0  0  0  0  0  0
   16.4150  -30.0841   -2.2128 O   0  0  0  0  0  0  0  0  0  0  0  0
   12.5958  -29.3494   -0.8918 O   0  0  0  0  0  0  0  0  0  0  0  0
   16.5583  -29.0748   -0.1562 N   0  0  0  0  0  0  0  0  0  0  0  0
   17.7812  -28.5816    0.3873 C   0  0  1  0  0  0  0  0  0  0  0  0
   17.9708  -27.1146    0.0810 C   0  0  0  0  0  0  0  0  0  0  0  0
   19.2251  -26.5323    0.5637 C   0  0  0  0  0  0  0  0  0  0  0  0
   20.4381  -26.5707   -0.1201 C   0  0  0  0  0  0  0  0  0  0  0  0
   21.3902  -25.9577    0.6172 N   0  0  0  0  0  0  0  0  0  0  0  0
   20.8483  -25.5161    1.7624 C   0  0  0  0  0  0  0  0  0  0  0  0
   21.3843  -24.8277    2.8389 C   0  0  0  0  0  0  0  0  0  0  0  0
   20.6095  -24.4677    3.9189 C   0  0  0  0  0  0  0  0  0  0  0  0
   19.2684  -24.8216    3.8879 C   0  0  0  0  0  0  0  0  0  0  0  0
   18.7270  -25.5056    2.8236 C   0  0  0  0  0  0  0  0  0  0  0  0
   19.5075  -25.8697    1.7335 C   0  0  0  0  0  0  0  0  0  0  0  0
   17.7562  -28.7385    1.8581 C   0  0  0  0  0  0  0  0  0  0  0  0
   16.5785  -29.1062    2.5360 O   0  0  0  0  0  0  0  0  0  0  0  0
   18.8030  -28.5423    2.5310 O   0  0  0  0  0  0  0  0  0  0  0  0
  2  1  1  1
  3  2  1  0
  4  3  1  0
  5  4  2  0
  6  5  1  0
  7  8  1  0
  7  6  2  0
  8  9  2  0
  9  4  1  0
 10 12  1  0
 10  2  1  0
 11 10  2  0
 13 12  1  0
 13 14  1  6
 14 15  1  0
 15 19  1  0
 16 15  2  0
 17 13  1  0
 18 17  2  0
 20 17  1  0
 21 32  1  0
 21 20  1  0
 21 22  1  1
 23 31  1  0
 23 22  1  0
 24 23  2  0
 25 24  1  0
 25 26  1  0
 26 27  1  0
 26 31  2  0
 27 28  2  0
 28 29  1  0
 30 29  2  0
 31 30  1  0
 32 33  1  0
 34 32  2  0
M  END
$$$$
