FDW.pdb
     RDKit          3D

 34 36  0  0  1  0  0  0  0  0999 V2000
   12.5615  -18.0237    2.7831 N   0  0  0  0  0  0  0  0  0  0  0  0
   13.7975  -18.7340    3.0980 C   0  0  1  0  0  0  0  0  0  0  0  0
   14.7287  -18.5154    1.9539 C   0  0  0  0  0  0  0  0  0  0  0  0
   15.4024  -19.6966    1.4355 C   0  0  0  0  0  0  0  0  0  0  0  0
   14.6878  -20.6673    0.7815 C   0  0  0  0  0  0  0  0  0  0  0  0
   15.2635  -21.8146    0.2596 C   0  0  0  0  0  0  0  0  0  0  0  0
   16.6284  -21.9470    0.4289 C   0  0  0  0  0  0  0  0  0  0  0  0
   17.3632  -20.9822    1.0834 C   0  0  0  0  0  0  0  0  0  0  0  0
   16.7550  -19.8602    1.5858 C   0  0  0  0  0  0  0  0  0  0  0  0
   14.2723  -18.3020    4.4067 C   0  0  0  0  0  0  0  0  0  0  0  0
   14.1357  -17.0913    4.7901 O   0  0  0  0  0  0  0  0  0  0  0  0
   14.9143  -19.1492    5.3635 N   0  0  0  0  0  0  0  0  0  0  0  0
   15.4763  -18.6389    6.5978 C   0  0  1  0  0  0  0  0  0  0  0  0
   15.8393  -19.8674    7.4318 C   0  0  0  0  0  0  0  0  0  0  0  0
   16.1954  -19.5220    8.8125 C   0  0  0  0  0  0  0  0  0  0  0  0
   17.3623  -19.8675    9.1877 O   0  0  0  0  0  0  0  0  0  0  0  0
   16.6366  -17.7800    6.4040 C   0  0  0  0  0  0  0  0  0  0  0  0
   17.5409  -18.0896    5.6108 O   0  0  0  0  0  0  0  0  0  0  0  0
   15.4210  -18.8766    9.7358 O   0  0  0  0  0  0  0  0  0  0  0  0
   16.7334  -16.5730    7.1328 N   0  0  0  0  0  0  0  0  0  0  0  0
   17.8511  -15.6874    7.1035 C   0  0  1  0  0  0  0  0  0  0  0  0
   17.4438  -14.2717    7.4377 C   0  0  0  0  0  0  0  0  0  0  0  0
   18.2318  -13.2239    6.7844 C   0  0  0  0  0  0  0  0  0  0  0  0
   17.8582  -12.5513    5.6232 C   0  0  0  0  0  0  0  0  0  0  0  0
   18.8216  -11.6657    5.2862 N   0  0  0  0  0  0  0  0  0  0  0  0
   19.8167  -11.7302    6.1838 C   0  0  0  0  0  0  0  0  0  0  0  0
   21.0118  -11.0380    6.2972 C   0  0  0  0  0  0  0  0  0  0  0  0
   21.8852  -11.2780    7.3344 C   0  0  0  0  0  0  0  0  0  0  0  0
   21.5219  -12.2417    8.2639 C   0  0  0  0  0  0  0  0  0  0  0  0
   20.3375  -12.9347    8.1597 C   0  0  0  0  0  0  0  0  0  0  0  0
   19.4557  -12.6938    7.1136 C   0  0  0  0  0  0  0  0  0  0  0  0
   18.8423  -16.1242    8.1109 C   0  0  0  0  0  0  0  0  0  0  0  0
   20.2256  -16.0205    7.8710 O   0  0  0  0  0  0  0  0  0  0  0  0
   18.4552  -16.6008    9.2110 O   0  0  0  0  0  0  0  0  0  0  0  0
  2  1  1  6
  3  2  1  0
  4  3  1  0
  5  4  2  0
  6  5  1  0
  7  8  1  0
  7  6  2  0
  8  9  2  0
  9  4  1  0
 10 12  1  0
 10  2  1  0
 11 10  2  0
 13 12  1  0
 13 14  1  1
 14 15  1  0
 15 19  1  0
 16 15  2  0
 17 13  1  0
 18 17  2  0
 20 17  1  0
 21 32  1  0
 21 20  1  0
 21 22  1  1
 23 31  1  0
 23 22  1  0
 24 23  2  0
 25 24  1  0
 25 26  1  0
 26 27  1  0
 26 31  2  0
 27 28  2  0
 28 29  1  0
 30 29  2  0
 31 30  1  0
 32 33  1  0
 34 32  2  0
M  END
$$$$
