FDW.pdb
     RDKit          3D

 34 36  0  0  1  0  0  0  0  0999 V2000
   19.9943  -21.5280  -12.3506 N   0  0  0  0  0  0  0  0  0  0  0  0
   20.9972  -20.4677  -12.3895 C   0  0  1  0  0  0  0  0  0  0  0  0
   20.6306  -19.4828  -11.3315 C   0  0  0  0  0  0  0  0  0  0  0  0
   19.4084  -18.7242  -11.5517 C   0  0  0  0  0  0  0  0  0  0  0  0
   18.3175  -18.9240  -10.7451 C   0  0  0  0  0  0  0  0  0  0  0  0
   17.1242  -18.2355  -10.8946 C   0  0  0  0  0  0  0  0  0  0  0  0
   17.0745  -17.3108  -11.9200 C   0  0  0  0  0  0  0  0  0  0  0  0
   18.1605  -17.0963  -12.7408 C   0  0  0  0  0  0  0  0  0  0  0  0
   19.3243  -17.7990  -12.5596 C   0  0  0  0  0  0  0  0  0  0  0  0
   22.3227  -21.0647  -12.2825 C   0  0  0  0  0  0  0  0  0  0  0  0
   22.6369  -21.7961  -11.2836 O   0  0  0  0  0  0  0  0  0  0  0  0
   23.3707  -20.9049  -13.2425 N   0  0  0  0  0  0  0  0  0  0  0  0
   24.7375  -21.3031  -12.9724 C   0  0  1  0  0  0  0  0  0  0  0  0
   25.4651  -21.2395  -14.3151 C   0  0  0  0  0  0  0  0  0  0  0  0
   26.8577  -21.6915  -14.2198 C   0  0  0  0  0  0  0  0  0  0  0  0
   27.2365  -22.0829  -13.0686 O   0  0  0  0  0  0  0  0  0  0  0  0
   25.4055  -20.4738  -11.9786 C   0  0  0  0  0  0  0  0  0  0  0  0
   25.4839  -19.2418  -12.1165 O   0  0  0  0  0  0  0  0  0  0  0  0
   27.7883  -21.7388  -15.2200 O   0  0  0  0  0  0  0  0  0  0  0  0
   25.9741  -21.0838  -10.8376 N   0  0  0  0  0  0  0  0  0  0  0  0
   26.7180  -20.4009   -9.8303 C   0  0  1  0  0  0  0  0  0  0  0  0
   26.1216  -20.6180   -8.4596 C   0  0  0  0  0  0  0  0  0  0  0  0
   26.7332  -19.8381   -7.3812 C   0  0  0  0  0  0  0  0  0  0  0  0
   26.6325  -18.4560   -7.2396 C   0  0  0  0  0  0  0  0  0  0  0  0
   27.3297  -18.0630   -6.1508 N   0  0  0  0  0  0  0  0  0  0  0  0
   27.8861  -19.1365   -5.5693 C   0  0  0  0  0  0  0  0  0  0  0  0
   28.6775  -19.2758   -4.4405 C   0  0  0  0  0  0  0  0  0  0  0  0
   29.1292  -20.5095   -4.0278 C   0  0  0  0  0  0  0  0  0  0  0  0
   28.7605  -21.6103   -4.7874 C   0  0  0  0  0  0  0  0  0  0  0  0
   27.9752  -21.4821   -5.9102 C   0  0  0  0  0  0  0  0  0  0  0  0
   27.5192  -20.2381   -6.3278 C   0  0  0  0  0  0  0  0  0  0  0  0
   28.1017  -20.9239   -9.8111 C   0  0  0  0  0  0  0  0  0  0  0  0
   29.1927  -20.0982   -9.4800 O   0  0  0  0  0  0  0  0  0  0  0  0
   28.3234  -22.1311  -10.0947 O   0  0  0  0  0  0  0  0  0  0  0  0
  2  1  1  1
  3  2  1  0
  4  3  1  0
  5  4  2  0
  6  5  1  0
  7  8  1  0
  7  6  2  0
  8  9  2  0
  9  4  1  0
 10 12  1  0
 10  2  1  0
 11 10  2  0
 13 12  1  0
 13 14  1  6
 14 15  1  0
 15 19  1  0
 16 15  2  0
 17 13  1  0
 18 17  2  0
 20 17  1  0
 21 32  1  0
 21 20  1  0
 21 22  1  1
 23 31  1  0
 23 22  1  0
 24 23  2  0
 25 24  1  0
 25 26  1  0
 26 27  1  0
 26 31  2  0
 27 28  2  0
 28 29  1  0
 30 29  2  0
 31 30  1  0
 32 33  1  0
 34 32  2  0
M  END
$$$$
