FDW.pdb
     RDKit          3D

 34 36  0  0  1  0  0  0  0  0999 V2000
   28.3166  -20.1595  -15.4124 N   0  0  0  0  0  0  0  0  0  0  0  0
   27.5924  -20.7773  -14.3055 C   0  0  1  0  0  0  0  0  0  0  0  0
   27.7105  -19.8551  -13.1395 C   0  0  0  0  0  0  0  0  0  0  0  0
   27.0420  -20.2728  -11.9162 C   0  0  0  0  0  0  0  0  0  0  0  0
   25.7530  -19.8780  -11.6650 C   0  0  0  0  0  0  0  0  0  0  0  0
   25.0546  -20.2406  -10.5244 C   0  0  0  0  0  0  0  0  0  0  0  0
   25.7285  -21.0405   -9.6215 C   0  0  0  0  0  0  0  0  0  0  0  0
   27.0240  -21.4471   -9.8567 C   0  0  0  0  0  0  0  0  0  0  0  0
   27.6807  -21.0662  -10.9989 C   0  0  0  0  0  0  0  0  0  0  0  0
   26.2382  -21.0932  -14.7426 C   0  0  0  0  0  0  0  0  0  0  0  0
   25.6108  -20.3266  -15.5490 O   0  0  0  0  0  0  0  0  0  0  0  0
   25.4961  -22.2458  -14.3350 N   0  0  0  0  0  0  0  0  0  0  0  0
   24.1263  -22.4729  -14.7495 C   0  0  1  0  0  0  0  0  0  0  0  0
   23.9093  -23.9838  -14.6679 C   0  0  0  0  0  0  0  0  0  0  0  0
   24.6939  -24.7174  -15.6673 C   0  0  0  0  0  0  0  0  0  0  0  0
   24.7639  -24.1814  -16.8205 O   0  0  0  0  0  0  0  0  0  0  0  0
   23.1431  -21.7617  -13.9438 C   0  0  0  0  0  0  0  0  0  0  0  0
   23.0066  -22.0042  -12.7332 O   0  0  0  0  0  0  0  0  0  0  0  0
   25.3529  -25.9036  -15.5020 O   0  0  0  0  0  0  0  0  0  0  0  0
   22.3307  -20.7783  -14.5523 N   0  0  0  0  0  0  0  0  0  0  0  0
   21.4050  -19.9408  -13.8624 C   0  0  1  0  0  0  0  0  0  0  0  0
   21.2966  -18.5822  -14.5138 C   0  0  0  0  0  0  0  0  0  0  0  0
   21.0198  -18.5990  -15.9520 C   0  0  0  0  0  0  0  0  0  0  0  0
   19.7522  -18.5054  -16.5220 C   0  0  0  0  0  0  0  0  0  0  0  0
   19.8575  -18.5724  -17.8675 N   0  0  0  0  0  0  0  0  0  0  0  0
   21.1492  -18.7063  -18.2050 C   0  0  0  0  0  0  0  0  0  0  0  0
   21.7825  -18.8092  -19.4331 C   0  0  0  0  0  0  0  0  0  0  0  0
   23.1510  -18.9310  -19.5276 C   0  0  0  0  0  0  0  0  0  0  0  0
   23.8730  -18.9469  -18.3431 C   0  0  0  0  0  0  0  0  0  0  0  0
   23.2531  -18.8458  -17.1186 C   0  0  0  0  0  0  0  0  0  0  0  0
   21.8727  -18.7232  -17.0219 C   0  0  0  0  0  0  0  0  0  0  0  0
   20.0657  -20.5682  -13.8956 C   0  0  0  0  0  0  0  0  0  0  0  0
   19.0250  -20.1188  -13.0608 O   0  0  0  0  0  0  0  0  0  0  0  0
   19.8371  -21.5253  -14.6822 O   0  0  0  0  0  0  0  0  0  0  0  0
  2  1  1  6
  3  2  1  0
  4  3  1  0
  5  4  2  0
  6  5  1  0
  7  8  1  0
  7  6  2  0
  8  9  2  0
  9  4  1  0
 10 12  1  0
 10  2  1  0
 11 10  2  0
 13 12  1  0
 13 14  1  1
 14 15  1  0
 15 19  1  0
 16 15  2  0
 17 13  1  0
 18 17  2  0
 20 17  1  0
 21 32  1  0
 21 20  1  0
 21 22  1  6
 23 31  1  0
 23 22  1  0
 24 23  2  0
 25 24  1  0
 25 26  1  0
 26 27  1  0
 26 31  2  0
 27 28  2  0
 28 29  1  0
 30 29  2  0
 31 30  1  0
 32 33  1  0
 34 32  2  0
M  END
$$$$
