FDW.pdb
     RDKit          3D

 34 36  0  0  1  0  0  0  0  0999 V2000
   27.5502  -17.8387  -18.3427 N   0  0  0  0  0  0  0  0  0  0  0  0
   28.1914  -18.7353  -17.3853 C   0  0  1  0  0  0  0  0  0  0  0  0
   29.1180  -17.9042  -16.5640 C   0  0  0  0  0  0  0  0  0  0  0  0
   30.2711  -17.3482  -17.2559 C   0  0  0  0  0  0  0  0  0  0  0  0
   31.3033  -18.1640  -17.6425 C   0  0  0  0  0  0  0  0  0  0  0  0
   32.4288  -17.7042  -18.3074 C   0  0  0  0  0  0  0  0  0  0  0  0
   32.4722  -16.3492  -18.5742 C   0  0  0  0  0  0  0  0  0  0  0  0
   31.4445  -15.5137  -18.1934 C   0  0  0  0  0  0  0  0  0  0  0  0
   30.3469  -16.0086  -17.5367 C   0  0  0  0  0  0  0  0  0  0  0  0
   27.1615  -19.4645  -16.6556 C   0  0  0  0  0  0  0  0  0  0  0  0
   26.1369  -18.8637  -16.1859 O   0  0  0  0  0  0  0  0  0  0  0  0
   27.1839  -20.8709  -16.3973 N   0  0  0  0  0  0  0  0  0  0  0  0
   26.1571  -21.5330  -15.6183 C   0  0  1  0  0  0  0  0  0  0  0  0
   25.9050  -22.8723  -16.3105 C   0  0  0  0  0  0  0  0  0  0  0  0
   24.8462  -23.6501  -15.6572 C   0  0  0  0  0  0  0  0  0  0  0  0
   24.8988  -24.9112  -15.8272 O   0  0  0  0  0  0  0  0  0  0  0  0
   26.5152  -21.7290  -14.2201 C   0  0  0  0  0  0  0  0  0  0  0  0
   27.6171  -22.2038  -13.8987 O   0  0  0  0  0  0  0  0  0  0  0  0
   23.8163  -23.1773  -14.8928 O   0  0  0  0  0  0  0  0  0  0  0  0
   25.5908  -21.3721  -13.2125 N   0  0  0  0  0  0  0  0  0  0  0  0
   25.7186  -21.7030  -11.8310 C   0  0  1  0  0  0  0  0  0  0  0  0
   26.9754  -21.1137  -11.2352 C   0  0  0  0  0  0  0  0  0  0  0  0
   26.8197  -20.5273   -9.9021 C   0  0  0  0  0  0  0  0  0  0  0  0
   25.6459  -19.9592   -9.4122 C   0  0  0  0  0  0  0  0  0  0  0  0
   25.8571  -19.4990   -8.1594 N   0  0  0  0  0  0  0  0  0  0  0  0
   27.1280  -19.7438   -7.8056 C   0  0  0  0  0  0  0  0  0  0  0  0
   27.8350  -19.4836   -6.6427 C   0  0  0  0  0  0  0  0  0  0  0  0
   29.1567  -19.8466   -6.5092 C   0  0  0  0  0  0  0  0  0  0  0  0
   29.7547  -20.4842   -7.5865 C   0  0  0  0  0  0  0  0  0  0  0  0
   29.0611  -20.7465   -8.7457 C   0  0  0  0  0  0  0  0  0  0  0  0
   27.7278  -20.3806   -8.8818 C   0  0  0  0  0  0  0  0  0  0  0  0
   24.5632  -21.1499  -11.0911 C   0  0  0  0  0  0  0  0  0  0  0  0
   24.1430  -21.7046   -9.8673 O   0  0  0  0  0  0  0  0  0  0  0  0
   23.9326  -20.1622  -11.5535 O   0  0  0  0  0  0  0  0  0  0  0  0
  2  1  1  6
  3  2  1  0
  4  3  1  0
  5  4  2  0
  6  5  1  0
  7  8  1  0
  7  6  2  0
  8  9  2  0
  9  4  1  0
 10 12  1  0
 10  2  1  0
 11 10  2  0
 13 12  1  0
 13 14  1  6
 14 15  1  0
 15 19  1  0
 16 15  2  0
 17 13  1  0
 18 17  2  0
 20 17  1  0
 21 32  1  0
 21 20  1  0
 21 22  1  1
 23 31  1  0
 23 22  1  0
 24 23  2  0
 25 24  1  0
 25 26  1  0
 26 27  1  0
 26 31  2  0
 27 28  2  0
 28 29  1  0
 30 29  2  0
 31 30  1  0
 32 33  1  0
 34 32  2  0
M  END
$$$$
