FDW.pdb
     RDKit          3D

 34 36  0  0  1  0  0  0  0  0999 V2000
   22.4195  -17.0258  -19.1402 N   0  0  0  0  0  0  0  0  0  0  0  0
   22.0569  -17.6593  -17.8758 C   0  0  1  0  0  0  0  0  0  0  0  0
   20.7916  -18.4119  -18.1132 C   0  0  0  0  0  0  0  0  0  0  0  0
   19.6416  -17.6247  -18.5324 C   0  0  0  0  0  0  0  0  0  0  0  0
   18.8703  -16.9795  -17.6000 C   0  0  0  0  0  0  0  0  0  0  0  0
   17.7647  -16.2108  -17.9272 C   0  0  0  0  0  0  0  0  0  0  0  0
   17.4599  -16.1166  -19.2716 C   0  0  0  0  0  0  0  0  0  0  0  0
   18.2232  -16.7579  -20.2229 C   0  0  0  0  0  0  0  0  0  0  0  0
   19.3105  -17.5098  -19.8576 C   0  0  0  0  0  0  0  0  0  0  0  0
   23.1902  -18.4398  -17.3947 C   0  0  0  0  0  0  0  0  0  0  0  0
   24.1654  -18.7298  -18.1668 O   0  0  0  0  0  0  0  0  0  0  0  0
   23.3287  -18.9438  -16.0634 N   0  0  0  0  0  0  0  0  0  0  0  0
   24.6168  -19.2819  -15.4921 C   0  0  1  0  0  0  0  0  0  0  0  0
   25.4623  -18.0120  -15.5852 C   0  0  0  0  0  0  0  0  0  0  0  0
   26.8331  -18.2149  -15.1033 C   0  0  0  0  0  0  0  0  0  0  0  0
   27.4646  -19.1920  -15.6214 O   0  0  0  0  0  0  0  0  0  0  0  0
   24.5429  -19.7585  -14.1177 C   0  0  0  0  0  0  0  0  0  0  0  0
   23.9349  -19.1158  -13.2457 O   0  0  0  0  0  0  0  0  0  0  0  0
   27.5042  -17.4793  -14.1667 O   0  0  0  0  0  0  0  0  0  0  0  0
   25.1752  -20.9742  -13.7720 N   0  0  0  0  0  0  0  0  0  0  0  0
   25.8494  -21.2239  -12.5402 C   0  0  1  0  0  0  0  0  0  0  0  0
   26.9373  -20.2064  -12.2890 C   0  0  0  0  0  0  0  0  0  0  0  0
   27.8379  -20.5161  -11.1762 C   0  0  0  0  0  0  0  0  0  0  0  0
   29.0042  -21.2709  -11.2797 C   0  0  0  0  0  0  0  0  0  0  0  0
   29.5810  -21.3775  -10.0624 N   0  0  0  0  0  0  0  0  0  0  0  0
   28.8371  -20.7196   -9.1601 C   0  0  0  0  0  0  0  0  0  0  0  0
   28.9909  -20.5199   -7.7976 C   0  0  0  0  0  0  0  0  0  0  0  0
   28.0805  -19.7839   -7.0723 C   0  0  0  0  0  0  0  0  0  0  0  0
   27.0008  -19.2488   -7.7598 C   0  0  0  0  0  0  0  0  0  0  0  0
   26.8392  -19.4420   -9.1128 C   0  0  0  0  0  0  0  0  0  0  0  0
   27.7566  -20.1845   -9.8455 C   0  0  0  0  0  0  0  0  0  0  0  0
   24.8777  -21.1329  -11.4285 C   0  0  0  0  0  0  0  0  0  0  0  0
   24.2346  -19.9206  -11.1146 O   0  0  0  0  0  0  0  0  0  0  0  0
   24.6101  -22.1533  -10.7399 O   0  0  0  0  0  0  0  0  0  0  0  0
  2  1  1  6
  3  2  1  0
  4  3  1  0
  5  4  2  0
  6  5  1  0
  7  8  1  0
  7  6  2  0
  8  9  2  0
  9  4  1  0
 10 12  1  0
 10  2  1  0
 11 10  2  0
 13 12  1  0
 13 14  1  1
 14 15  1  0
 15 19  1  0
 16 15  2  0
 17 13  1  0
 18 17  2  0
 20 17  1  0
 21 32  1  0
 21 20  1  0
 21 22  1  1
 23 31  1  0
 23 22  1  0
 24 23  2  0
 25 24  1  0
 25 26  1  0
 26 27  1  0
 26 31  2  0
 27 28  2  0
 28 29  1  0
 30 29  2  0
 31 30  1  0
 32 33  1  0
 34 32  2  0
M  END
$$$$
