FDW.pdb
     RDKit          3D

 34 36  0  0  1  0  0  0  0  0999 V2000
   22.2016  -33.7145   -7.3535 N   0  0  0  0  0  0  0  0  0  0  0  0
   23.2875  -33.9692   -6.4115 C   0  0  1  0  0  0  0  0  0  0  0  0
   24.1926  -32.7850   -6.4602 C   0  0  0  0  0  0  0  0  0  0  0  0
   25.0048  -32.6425   -7.6592 C   0  0  0  0  0  0  0  0  0  0  0  0
   26.0475  -33.5021   -7.8925 C   0  0  0  0  0  0  0  0  0  0  0  0
   26.8592  -33.4275   -9.0132 C   0  0  0  0  0  0  0  0  0  0  0  0
   26.5681  -32.4218   -9.9149 C   0  0  0  0  0  0  0  0  0  0  0  0
   25.5244  -31.5486   -9.6975 C   0  0  0  0  0  0  0  0  0  0  0  0
   24.7441  -31.6562   -8.5748 C   0  0  0  0  0  0  0  0  0  0  0  0
   22.7189  -34.2925   -5.1088 C   0  0  0  0  0  0  0  0  0  0  0  0
   21.6455  -33.7328   -4.7016 O   0  0  0  0  0  0  0  0  0  0  0  0
   23.2757  -35.2312   -4.1846 N   0  0  0  0  0  0  0  0  0  0  0  0
   22.6554  -35.5243   -2.9083 C   0  0  1  0  0  0  0  0  0  0  0  0
   23.2468  -36.8578   -2.4518 C   0  0  0  0  0  0  0  0  0  0  0  0
   22.5862  -38.0079   -3.0793 C   0  0  0  0  0  0  0  0  0  0  0  0
   21.4592  -37.7717   -3.6233 O   0  0  0  0  0  0  0  0  0  0  0  0
   22.8637  -34.4912   -1.9028 C   0  0  0  0  0  0  0  0  0  0  0  0
   24.0004  -34.0573   -1.6522 O   0  0  0  0  0  0  0  0  0  0  0  0
   23.0403  -39.2956   -3.1446 O   0  0  0  0  0  0  0  0  0  0  0  0
   21.7514  -33.9745   -1.2007 N   0  0  0  0  0  0  0  0  0  0  0  0
   21.8096  -32.9306   -0.2306 C   0  0  1  0  0  0  0  0  0  0  0  0
   20.5279  -32.1316   -0.2003 C   0  0  0  0  0  0  0  0  0  0  0  0
   20.3373  -31.2130   -1.3250 C   0  0  0  0  0  0  0  0  0  0  0  0
   20.6151  -31.5132   -2.6566 C   0  0  0  0  0  0  0  0  0  0  0  0
   20.3434  -30.4368   -3.4270 N   0  0  0  0  0  0  0  0  0  0  0  0
   19.8960  -29.4378   -2.6510 C   0  0  0  0  0  0  0  0  0  0  0  0
   19.4798  -28.1490   -2.9440 C   0  0  0  0  0  0  0  0  0  0  0  0
   19.0448  -27.2929   -1.9570 C   0  0  0  0  0  0  0  0  0  0  0  0
   19.0392  -27.7714   -0.6548 C   0  0  0  0  0  0  0  0  0  0  0  0
   19.4511  -29.0496   -0.3537 C   0  0  0  0  0  0  0  0  0  0  0  0
   19.8905  -29.9141   -1.3485 C   0  0  0  0  0  0  0  0  0  0  0  0
   22.0057  -33.5248    1.1098 C   0  0  0  0  0  0  0  0  0  0  0  0
   22.0402  -34.9199    1.2952 O   0  0  0  0  0  0  0  0  0  0  0  0
   22.1462  -32.7793    2.1156 O   0  0  0  0  0  0  0  0  0  0  0  0
  2  1  1  6
  3  2  1  0
  4  3  1  0
  5  4  2  0
  6  5  1  0
  7  8  1  0
  7  6  2  0
  8  9  2  0
  9  4  1  0
 10 12  1  0
 10  2  1  0
 11 10  2  0
 13 12  1  0
 13 14  1  1
 14 15  1  0
 15 19  1  0
 16 15  2  0
 17 13  1  0
 18 17  2  0
 20 17  1  0
 21 32  1  0
 21 20  1  0
 21 22  1  1
 23 31  1  0
 23 22  1  0
 24 23  2  0
 25 24  1  0
 25 26  1  0
 26 27  1  0
 26 31  2  0
 27 28  2  0
 28 29  1  0
 30 29  2  0
 31 30  1  0
 32 33  1  0
 34 32  2  0
M  END
$$$$
