FDW.pdb
     RDKit          3D

 34 36  0  0  1  0  0  0  0  0999 V2000
   24.8762  -19.2684  -20.5503 N   0  0  0  0  0  0  0  0  0  0  0  0
   23.8773  -18.3936  -19.9433 C   0  0  1  0  0  0  0  0  0  0  0  0
   23.0120  -17.8888  -21.0479 C   0  0  0  0  0  0  0  0  0  0  0  0
   23.6680  -17.0764  -22.0616 C   0  0  0  0  0  0  0  0  0  0  0  0
   24.1769  -15.8453  -21.7361 C   0  0  0  0  0  0  0  0  0  0  0  0
   24.8164  -15.0209  -22.6480 C   0  0  0  0  0  0  0  0  0  0  0  0
   24.9248  -15.5023  -23.9386 C   0  0  0  0  0  0  0  0  0  0  0  0
   24.4195  -16.7369  -24.2844 C   0  0  0  0  0  0  0  0  0  0  0  0
   23.7930  -17.5231  -23.3515 C   0  0  0  0  0  0  0  0  0  0  0  0
   23.2005  -19.1173  -18.8741 C   0  0  0  0  0  0  0  0  0  0  0  0
   23.0060  -20.3772  -18.9522 O   0  0  0  0  0  0  0  0  0  0  0  0
   22.7026  -18.5223  -17.6727 N   0  0  0  0  0  0  0  0  0  0  0  0
   22.0969  -19.3036  -16.6133 C   0  0  1  0  0  0  0  0  0  0  0  0
   23.0239  -19.1621  -15.4063 C   0  0  0  0  0  0  0  0  0  0  0  0
   22.6514  -20.0578  -14.3056 C   0  0  0  0  0  0  0  0  0  0  0  0
   21.7491  -20.9167  -14.5701 O   0  0  0  0  0  0  0  0  0  0  0  0
   20.7409  -18.8893  -16.2795 C   0  0  0  0  0  0  0  0  0  0  0  0
   20.5261  -17.8477  -15.6376 O   0  0  0  0  0  0  0  0  0  0  0  0
   23.1593  -20.0738  -13.0365 O   0  0  0  0  0  0  0  0  0  0  0  0
   19.6514  -19.6882  -16.6942 N   0  0  0  0  0  0  0  0  0  0  0  0
   18.7592  -20.3732  -15.8173 C   0  0  1  0  0  0  0  0  0  0  0  0
   19.4205  -20.6979  -14.4985 C   0  0  0  0  0  0  0  0  0  0  0  0
   19.4565  -19.5996  -13.5302 C   0  0  0  0  0  0  0  0  0  0  0  0
   19.0922  -18.2829  -13.8029 C   0  0  0  0  0  0  0  0  0  0  0  0
   19.2641  -17.5295  -12.6944 N   0  0  0  0  0  0  0  0  0  0  0  0
   19.7282  -18.3023  -11.7006 C   0  0  0  0  0  0  0  0  0  0  0  0
   20.0560  -18.0242  -10.3834 C   0  0  0  0  0  0  0  0  0  0  0  0
   20.5123  -19.0073   -9.5338 C   0  0  0  0  0  0  0  0  0  0  0  0
   20.6315  -20.2900  -10.0487 C   0  0  0  0  0  0  0  0  0  0  0  0
   20.3088  -20.5760  -11.3556 C   0  0  0  0  0  0  0  0  0  0  0  0
   19.8488  -19.5851  -12.2137 C   0  0  0  0  0  0  0  0  0  0  0  0
   17.5928  -19.5069  -15.5388 C   0  0  0  0  0  0  0  0  0  0  0  0
   16.4017  -20.0315  -15.0024 O   0  0  0  0  0  0  0  0  0  0  0  0
   17.6522  -18.2721  -15.7816 O   0  0  0  0  0  0  0  0  0  0  0  0
  2  1  1  6
  3  2  1  0
  4  3  1  0
  5  4  2  0
  6  5  1  0
  7  8  1  0
  7  6  2  0
  8  9  2  0
  9  4  1  0
 10 12  1  0
 10  2  1  0
 11 10  2  0
 13 12  1  0
 13 14  1  1
 14 15  1  0
 15 19  1  0
 16 15  2  0
 17 13  1  0
 18 17  2  0
 20 17  1  0
 21 32  1  0
 21 20  1  0
 21 22  1  1
 23 31  1  0
 23 22  1  0
 24 23  2  0
 25 24  1  0
 25 26  1  0
 26 27  1  0
 26 31  2  0
 27 28  2  0
 28 29  1  0
 30 29  2  0
 31 30  1  0
 32 33  1  0
 34 32  2  0
M  END
$$$$
