IVR.pdb
     RDKit          3D

 27 26  0  0  1  0  0  0  0  0999 V2000
   28.5566  -19.4162   -4.5317 C   0  0  0  0  0  0  0  0  0  0  0  0
   28.0363  -18.8635   -5.8244 C   0  0  0  0  0  0  0  0  0  0  0  0
   27.4997  -19.9329   -6.7570 C   0  0  2  0  0  0  0  0  0  0  0  0
   28.5611  -20.9735   -7.0666 C   0  0  0  0  0  0  0  0  0  0  0  0
   27.0137  -19.3857   -8.0515 C   0  0  2  0  0  0  0  0  0  0  0  0
   26.3460  -18.1388   -7.8610 N   0  0  0  0  0  0  0  0  0  0  0  0
   26.2486  -20.3421   -8.8763 C   0  0  0  0  0  0  0  0  0  0  0  0
   26.8556  -21.3594   -9.3003 O   0  0  0  0  0  0  0  0  0  0  0  0
   22.6464  -21.4700   -8.1109 C   0  0  0  0  0  0  0  0  0  0  0  0
   22.7185  -21.2206   -9.6048 C   0  0  1  0  0  0  0  0  0  0  0  0
   21.9289  -19.9979   -9.9481 C   0  0  0  0  0  0  0  0  0  0  0  0
   24.1620  -21.1042  -10.0629 C   0  0  2  0  0  0  0  0  0  0  0  0
   24.8907  -20.1878   -9.2165 N   0  0  0  0  0  0  0  0  0  0  0  0
   24.1230  -20.6280  -11.4785 C   0  0  0  0  0  0  0  0  0  0  0  0
   24.0969  -19.3871  -11.6887 O   0  0  0  0  0  0  0  0  0  0  0  0
   26.5633  -23.3253  -17.0820 N   0  0  0  0  0  0  0  0  0  0  0  0
   27.0073  -24.5153  -16.4487 C   0  0  0  0  0  0  0  0  0  0  0  0
   28.1691  -24.9794  -16.7407 N   0  0  0  0  0  0  0  0  0  0  0  0
   26.1997  -25.1984  -15.5086 N   0  0  0  0  0  0  0  0  0  0  0  0
   24.9135  -24.6792  -15.1022 C   0  0  0  0  0  0  0  0  0  0  0  0
   25.0442  -23.3881  -14.3432 C   0  0  0  0  0  0  0  0  0  0  0  0
   24.0951  -22.3298  -14.7797 C   0  0  0  0  0  0  0  0  0  0  0  0
   24.1425  -21.0537  -13.9765 C   0  0  2  0  0  0  0  0  0  0  0  0
   24.1145  -21.4795  -12.5876 N   0  0  0  0  0  0  0  0  0  0  0  0
   22.9921  -20.1444  -14.2776 C   0  0  0  0  0  0  0  0  0  0  0  0
   21.8918  -20.3884  -13.7012 O   0  0  0  0  0  0  0  0  0  0  0  0
   23.1264  -19.0768  -15.1529 O   0  0  0  0  0  0  0  0  0  0  0  0
  2  1  1  0
  2  3  1  0
  3  4  1  6
  3  5  1  0
  5  7  1  0
  5  6  1  1
  7  8  2  0
  7 13  1  0
 10  9  1  1
 10 12  1  0
 10 11  1  0
 12 14  1  0
 12 13  1  1
 14 24  1  0
 15 14  2  0
 17 19  1  0
 17 16  1  0
 18 17  2  0
 20 19  1  0
 21 20  1  0
 22 21  1  0
 23 25  1  0
 23 22  1  6
 24 23  1  0
 25 27  1  0
 26 25  2  0
M  END
$$$$
