IVR.pdb
     RDKit          3D

 27 26  0  0  1  0  0  0  0  0999 V2000
   18.4171  -11.5757  -15.6162 C   0  0  0  0  0  0  0  0  0  0  0  0
   17.8032  -11.7702  -14.2624 C   0  0  0  0  0  0  0  0  0  0  0  0
   16.9822  -10.5800  -13.8036 C   0  0  2  0  0  0  0  0  0  0  0  0
   17.8396   -9.3317  -13.6940 C   0  0  0  0  0  0  0  0  0  0  0  0
   16.3303  -10.7964  -12.4846 C   0  0  2  0  0  0  0  0  0  0  0  0
   15.6502  -12.0507  -12.4502 N   0  0  0  0  0  0  0  0  0  0  0  0
   15.5046   -9.6668  -12.0127 C   0  0  0  0  0  0  0  0  0  0  0  0
   14.7030   -9.1501  -12.8333 O   0  0  0  0  0  0  0  0  0  0  0  0
   12.9594   -9.5514   -9.5102 C   0  0  0  0  0  0  0  0  0  0  0  0
   13.8701   -8.4065   -9.1110 C   0  0  1  0  0  0  0  0  0  0  0  0
   14.6596   -8.7918   -7.9009 C   0  0  0  0  0  0  0  0  0  0  0  0
   14.7716   -8.0069  -10.2663 C   0  0  2  0  0  0  0  0  0  0  0  0
   15.5581   -9.1347  -10.7099 N   0  0  0  0  0  0  0  0  0  0  0  0
   15.6390   -6.8979   -9.7663 C   0  0  0  0  0  0  0  0  0  0  0  0
   16.8836   -7.0843   -9.7332 O   0  0  0  0  0  0  0  0  0  0  0  0
   15.0418   -0.6414  -13.8669 N   0  0  0  0  0  0  0  0  0  0  0  0
   16.4514   -0.5051  -13.7739 C   0  0  0  0  0  0  0  0  0  0  0  0
   16.9881    0.6247  -14.0674 N   0  0  0  0  0  0  0  0  0  0  0  0
   17.2736   -1.5833  -13.3685 N   0  0  0  0  0  0  0  0  0  0  0  0
   16.7093   -2.8536  -12.9727 C   0  0  0  0  0  0  0  0  0  0  0  0
   16.5402   -2.9523  -11.4821 C   0  0  0  0  0  0  0  0  0  0  0  0
   15.9818   -4.2508  -11.0202 C   0  0  0  0  0  0  0  0  0  0  0  0
   15.8094   -4.3809   -9.5271 C   0  0  2  0  0  0  0  0  0  0  0  0
   15.1510   -5.6615   -9.3324 N   0  0  0  0  0  0  0  0  0  0  0  0
   14.9929   -3.2690   -8.9458 C   0  0  0  0  0  0  0  0  0  0  0  0
   13.7392   -3.3191   -9.1137 O   0  0  0  0  0  0  0  0  0  0  0  0
   15.5862   -2.2257   -8.2506 O   0  0  0  0  0  0  0  0  0  0  0  0
  2  1  1  0
  2  3  1  0
  3  4  1  1
  3  5  1  0
  5  7  1  0
  5  6  1  6
  7  8  2  0
  7 13  1  0
 10  9  1  6
 10 12  1  0
 10 11  1  0
 12 14  1  0
 12 13  1  1
 14 24  1  0
 15 14  2  0
 17 19  1  0
 17 16  1  0
 18 17  2  0
 20 19  1  0
 21 20  1  0
 22 21  1  0
 23 25  1  0
 23 22  1  6
 24 23  1  0
 25 27  1  0
 26 25  2  0
M  END
$$$$
