IVR.pdb
     RDKit          3D

 27 26  0  0  1  0  0  0  0  0999 V2000
   11.4106  -14.4055  -15.0898 C   0  0  0  0  0  0  0  0  0  0  0  0
   12.5352  -14.0561  -14.1622 C   0  0  0  0  0  0  0  0  0  0  0  0
   12.8354  -12.5696  -14.1227 C   0  0  2  0  0  0  0  0  0  0  0  0
   13.2555  -12.0583  -15.4892 C   0  0  0  0  0  0  0  0  0  0  0  0
   13.9126  -12.2189  -13.1593 C   0  0  2  0  0  0  0  0  0  0  0  0
   13.6214  -12.7293  -11.8587 N   0  0  0  0  0  0  0  0  0  0  0  0
   14.2986  -10.7937  -13.1587 C   0  0  0  0  0  0  0  0  0  0  0  0
   14.1447  -10.1493  -14.2282 O   0  0  0  0  0  0  0  0  0  0  0  0
   13.5491   -8.2688  -10.2352 C   0  0  0  0  0  0  0  0  0  0  0  0
   14.9883   -8.1004  -10.6819 C   0  0  1  0  0  0  0  0  0  0  0  0
   15.9041   -8.6906   -9.6576 C   0  0  0  0  0  0  0  0  0  0  0  0
   15.2036   -8.7203  -12.0518 C   0  0  2  0  0  0  0  0  0  0  0  0
   14.8255  -10.1147  -12.0430 N   0  0  0  0  0  0  0  0  0  0  0  0
   16.6521   -8.5483  -12.3747 C   0  0  0  0  0  0  0  0  0  0  0  0
   17.4065   -9.5516  -12.2790 O   0  0  0  0  0  0  0  0  0  0  0  0
   23.5545  -10.3466  -14.1980 N   0  0  0  0  0  0  0  0  0  0  0  0
   23.2704   -9.7978  -15.4757 C   0  0  0  0  0  0  0  0  0  0  0  0
   24.0827  -10.0243  -16.4449 N   0  0  0  0  0  0  0  0  0  0  0  0
   22.1175   -9.0088  -15.7020 N   0  0  0  0  0  0  0  0  0  0  0  0
   20.9798   -9.0648  -14.8125 C   0  0  0  0  0  0  0  0  0  0  0  0
   19.8656   -8.1649  -15.2695 C   0  0  0  0  0  0  0  0  0  0  0  0
   18.6453   -8.2331  -14.4225 C   0  0  0  0  0  0  0  0  0  0  0  0
   18.5506   -7.1799  -13.3466 C   0  0  2  0  0  0  0  0  0  0  0  0
   17.2224   -7.3374  -12.7788 N   0  0  0  0  0  0  0  0  0  0  0  0
   18.7394   -5.7950  -13.8826 C   0  0  0  0  0  0  0  0  0  0  0  0
   17.7023   -5.1641  -14.2415 O   0  0  0  0  0  0  0  0  0  0  0  0
   20.0002   -5.2255  -13.9817 O   0  0  0  0  0  0  0  0  0  0  0  0
  2  1  1  0
  2  3  1  0
  3  4  1  6
  3  5  1  0
  5  7  1  0
  5  6  1  1
  7  8  2  0
  7 13  1  0
 10  9  1  1
 10 12  1  0
 10 11  1  0
 12 14  1  0
 12 13  1  1
 14 24  1  0
 15 14  2  0
 17 19  1  0
 17 16  1  0
 18 17  2  0
 20 19  1  0
 21 20  1  0
 22 21  1  0
 23 25  1  0
 23 22  1  6
 24 23  1  0
 25 27  1  0
 26 25  2  0
M  END
$$$$
