IVR.pdb
     RDKit          3D

 27 26  0  0  1  0  0  0  0  0999 V2000
   27.0137  -20.1956   -3.2694 C   0  0  0  0  0  0  0  0  0  0  0  0
   27.9454  -19.9606   -4.4201 C   0  0  0  0  0  0  0  0  0  0  0  0
   27.2366  -19.9106   -5.7604 C   0  0  2  0  0  0  0  0  0  0  0  0
   26.4328  -21.1756   -6.0033 C   0  0  0  0  0  0  0  0  0  0  0  0
   28.1696  -19.7422   -6.9061 C   0  0  2  0  0  0  0  0  0  0  0  0
   29.1137  -18.7035   -6.6483 N   0  0  0  0  0  0  0  0  0  0  0  0
   27.5128  -19.6258   -8.2235 C   0  0  0  0  0  0  0  0  0  0  0  0
   26.7670  -18.6309   -8.4153 O   0  0  0  0  0  0  0  0  0  0  0  0
   29.4545  -19.8176  -11.4880 C   0  0  0  0  0  0  0  0  0  0  0  0
   28.2365  -20.7087  -11.6360 C   0  0  1  0  0  0  0  0  0  0  0  0
   28.6464  -22.1421  -11.5201 C   0  0  0  0  0  0  0  0  0  0  0  0
   27.1741  -20.3437  -10.6136 C   0  0  2  0  0  0  0  0  0  0  0  0
   27.6675  -20.5532   -9.2720 N   0  0  0  0  0  0  0  0  0  0  0  0
   25.9900  -21.2079  -10.9022 C   0  0  0  0  0  0  0  0  0  0  0  0
   25.9293  -22.3380  -10.3508 O   0  0  0  0  0  0  0  0  0  0  0  0
   18.9542  -22.9237  -14.1029 N   0  0  0  0  0  0  0  0  0  0  0  0
   18.4877  -22.0191  -13.1138 C   0  0  0  0  0  0  0  0  0  0  0  0
   17.4148  -22.3034  -12.4667 N   0  0  0  0  0  0  0  0  0  0  0  0
   19.1756  -20.8156  -12.8288 N   0  0  0  0  0  0  0  0  0  0  0  0
   20.4211  -20.4864  -13.4841 C   0  0  0  0  0  0  0  0  0  0  0  0
   21.5220  -21.4382  -13.1069 C   0  0  0  0  0  0  0  0  0  0  0  0
   22.7333  -20.7756  -12.5547 C   0  0  0  0  0  0  0  0  0  0  0  0
   23.8616  -21.7058  -12.1842 C   0  0  2  0  0  0  0  0  0  0  0  0
   24.9416  -20.8363  -11.7494 N   0  0  0  0  0  0  0  0  0  0  0  0
   24.2976  -22.5628  -13.3316 C   0  0  0  0  0  0  0  0  0  0  0  0
   25.1387  -22.0696  -14.1388 O   0  0  0  0  0  0  0  0  0  0  0  0
   23.8002  -23.8461  -13.5031 O   0  0  0  0  0  0  0  0  0  0  0  0
  2  1  1  0
  2  3  1  0
  3  4  1  6
  3  5  1  0
  5  7  1  0
  5  6  1  1
  7  8  2  0
  7 13  1  0
 10  9  1  1
 10 12  1  0
 10 11  1  0
 12 14  1  0
 12 13  1  1
 14 24  1  0
 15 14  2  0
 17 19  1  0
 17 16  1  0
 18 17  2  0
 20 19  1  0
 21 20  1  0
 22 21  1  0
 23 25  1  0
 23 22  1  6
 24 23  1  0
 25 27  1  0
 26 25  2  0
M  END
$$$$
