IVR.pdb
     RDKit          3D

 27 26  0  0  1  0  0  0  0  0999 V2000
   25.4213  -26.4223  -16.9222 C   0  0  0  0  0  0  0  0  0  0  0  0
   25.5194  -24.9269  -16.8826 C   0  0  0  0  0  0  0  0  0  0  0  0
   24.8156  -24.3148  -15.6863 C   0  0  2  0  0  0  0  0  0  0  0  0
   23.3760  -24.7887  -15.5952 C   0  0  0  0  0  0  0  0  0  0  0  0
   24.7996  -22.8281  -15.7185 C   0  0  2  0  0  0  0  0  0  0  0  0
   26.1231  -22.3048  -15.8247 N   0  0  0  0  0  0  0  0  0  0  0  0
   24.0022  -22.1972  -14.6478 C   0  0  0  0  0  0  0  0  0  0  0  0
   24.3944  -22.3526  -13.4625 O   0  0  0  0  0  0  0  0  0  0  0  0
   22.4080  -18.5705  -14.4847 C   0  0  0  0  0  0  0  0  0  0  0  0
   21.3485  -19.6219  -14.2178 C   0  0  1  0  0  0  0  0  0  0  0  0
   20.4794  -19.7763  -15.4249 C   0  0  0  0  0  0  0  0  0  0  0  0
   21.9865  -20.9394  -13.8125 C   0  0  2  0  0  0  0  0  0  0  0  0
   22.8371  -21.4375  -14.8687 N   0  0  0  0  0  0  0  0  0  0  0  0
   20.8661  -21.8839  -13.5211 C   0  0  0  0  0  0  0  0  0  0  0  0
   20.3496  -22.5097  -14.4836 O   0  0  0  0  0  0  0  0  0  0  0  0
   18.4905  -25.3378   -5.6503 N   0  0  0  0  0  0  0  0  0  0  0  0
   17.5087  -25.7928   -6.5685 C   0  0  0  0  0  0  0  0  0  0  0  0
   16.5592  -26.5458   -6.1419 N   0  0  0  0  0  0  0  0  0  0  0  0
   17.5552  -25.4374   -7.9375 N   0  0  0  0  0  0  0  0  0  0  0  0
   18.6502  -24.6646   -8.4785 C   0  0  0  0  0  0  0  0  0  0  0  0
   18.4233  -24.3029   -9.9199 C   0  0  0  0  0  0  0  0  0  0  0  0
   19.4824  -23.4358  -10.5011 C   0  0  0  0  0  0  0  0  0  0  0  0
   19.2431  -22.9961  -11.9242 C   0  0  2  0  0  0  0  0  0  0  0  0
   20.3552  -22.1161  -12.2405 N   0  0  0  0  0  0  0  0  0  0  0  0
   17.9369  -22.2841  -12.0917 C   0  0  0  0  0  0  0  0  0  0  0  0
   17.9147  -21.0435  -11.8410 O   0  0  0  0  0  0  0  0  0  0  0  0
   16.7966  -22.9567  -12.5055 O   0  0  0  0  0  0  0  0  0  0  0  0
  2  1  1  0
  2  3  1  0
  3  4  1  6
  3  5  1  0
  5  7  1  0
  5  6  1  1
  7  8  2  0
  7 13  1  0
 10  9  1  6
 10 12  1  0
 10 11  1  0
 12 14  1  0
 12 13  1  6
 14 24  1  0
 15 14  2  0
 17 19  1  0
 17 16  1  0
 18 17  2  0
 20 19  1  0
 21 20  1  0
 22 21  1  0
 23 25  1  0
 23 22  1  1
 24 23  1  0
 25 27  1  0
 26 25  2  0
M  END
$$$$
