IVR.pdb
     RDKit          3D

 27 26  0  0  1  0  0  0  0  0999 V2000
   30.1969  -20.3181  -17.8632 C   0  0  0  0  0  0  0  0  0  0  0  0
   29.1478  -19.5772  -17.0900 C   0  0  0  0  0  0  0  0  0  0  0  0
   28.5152  -20.4119  -15.9926 C   0  0  2  0  0  0  0  0  0  0  0  0
   27.9526  -21.7092  -16.5454 C   0  0  0  0  0  0  0  0  0  0  0  0
   27.4123  -19.7065  -15.2873 C   0  0  2  0  0  0  0  0  0  0  0  0
   27.8567  -18.4539  -14.7672 N   0  0  0  0  0  0  0  0  0  0  0  0
   26.6873  -20.5295  -14.2987 C   0  0  0  0  0  0  0  0  0  0  0  0
   26.2734  -21.6571  -14.6729 O   0  0  0  0  0  0  0  0  0  0  0  0
   24.6531  -20.9579   -9.7472 C   0  0  0  0  0  0  0  0  0  0  0  0
   25.6856  -20.3255  -10.6601 C   0  0  1  0  0  0  0  0  0  0  0  0
   27.0576  -20.6024  -10.1336 C   0  0  0  0  0  0  0  0  0  0  0  0
   25.5203  -20.8217  -12.0861 C   0  0  2  0  0  0  0  0  0  0  0  0
   26.4313  -20.1337  -12.9717 N   0  0  0  0  0  0  0  0  0  0  0  0
   24.0966  -20.5701  -12.4628 C   0  0  0  0  0  0  0  0  0  0  0  0
   23.7105  -19.3764  -12.5673 O   0  0  0  0  0  0  0  0  0  0  0  0
   22.3883  -27.1430  -15.6776 N   0  0  0  0  0  0  0  0  0  0  0  0
   21.1238  -27.0781  -15.0364 C   0  0  0  0  0  0  0  0  0  0  0  0
   20.6156  -28.1543  -14.5524 N   0  0  0  0  0  0  0  0  0  0  0  0
   20.4143  -25.8591  -14.9216 N   0  0  0  0  0  0  0  0  0  0  0  0
   21.0197  -24.5980  -15.2851 C   0  0  0  0  0  0  0  0  0  0  0  0
   21.1505  -23.6774  -14.1038 C   0  0  0  0  0  0  0  0  0  0  0  0
   21.7607  -22.3603  -14.4266 C   0  0  0  0  0  0  0  0  0  0  0  0
   21.8403  -21.3898  -13.2743 C   0  0  2  0  0  0  0  0  0  0  0  0
   23.1643  -21.5829  -12.7077 N   0  0  0  0  0  0  0  0  0  0  0  0
   20.7805  -21.6339  -12.2456 C   0  0  0  0  0  0  0  0  0  0  0  0
   19.6607  -21.0698  -12.4195 O   0  0  0  0  0  0  0  0  0  0  0  0
   21.0159  -22.4459  -11.1461 O   0  0  0  0  0  0  0  0  0  0  0  0
  2  1  1  0
  2  3  1  0
  3  4  1  6
  3  5  1  0
  5  7  1  0
  5  6  1  1
  7  8  2  0
  7 13  1  0
 10  9  1  1
 10 12  1  0
 10 11  1  0
 12 14  1  0
 12 13  1  6
 14 24  1  0
 15 14  2  0
 17 19  1  0
 17 16  1  0
 18 17  2  0
 20 19  1  0
 21 20  1  0
 22 21  1  0
 23 25  1  0
 23 22  1  6
 24 23  1  0
 25 27  1  0
 26 25  2  0
M  END
$$$$
