IVR.pdb
     RDKit          3D

 27 26  0  0  1  0  0  0  0  0999 V2000
   15.7095  -29.4106   -6.0914 C   0  0  0  0  0  0  0  0  0  0  0  0
   16.5483  -28.2730   -5.5920 C   0  0  0  0  0  0  0  0  0  0  0  0
   16.4431  -27.0305   -6.4559 C   0  0  2  0  0  0  0  0  0  0  0  0
   16.9369  -27.2996   -7.8663 C   0  0  0  0  0  0  0  0  0  0  0  0
   17.2180  -25.8807   -5.9186 C   0  0  2  0  0  0  0  0  0  0  0  0
   16.7405  -25.5005   -4.6285 N   0  0  0  0  0  0  0  0  0  0  0  0
   17.3610  -24.7445   -6.8508 C   0  0  0  0  0  0  0  0  0  0  0  0
   16.3932  -23.9464   -6.9473 O   0  0  0  0  0  0  0  0  0  0  0  0
   20.4298  -22.2826   -7.0876 C   0  0  0  0  0  0  0  0  0  0  0  0
   20.0957  -22.8466   -8.4550 C   0  0  1  0  0  0  0  0  0  0  0  0
   21.0712  -23.9244   -8.8053 C   0  0  0  0  0  0  0  0  0  0  0  0
   18.6633  -23.3504   -8.4950 C   0  0  2  0  0  0  0  0  0  0  0  0
   18.5054  -24.5000   -7.6343 N   0  0  0  0  0  0  0  0  0  0  0  0
   18.3704  -23.6898   -9.9202 C   0  0  0  0  0  0  0  0  0  0  0  0
   18.5845  -24.8684  -10.3076 O   0  0  0  0  0  0  0  0  0  0  0  0
   12.4850  -23.0461  -15.6659 N   0  0  0  0  0  0  0  0  0  0  0  0
   13.6080  -22.8146  -16.5022 C   0  0  0  0  0  0  0  0  0  0  0  0
   13.4671  -22.9148  -17.7753 N   0  0  0  0  0  0  0  0  0  0  0  0
   14.8737  -22.4793  -15.9650 N   0  0  0  0  0  0  0  0  0  0  0  0
   15.0769  -22.3499  -14.5399 C   0  0  0  0  0  0  0  0  0  0  0  0
   16.4834  -21.9347  -14.2094 C   0  0  0  0  0  0  0  0  0  0  0  0
   16.7840  -21.9178  -12.7531 C   0  0  0  0  0  0  0  0  0  0  0  0
   17.6648  -23.0415  -12.2661 C   0  0  2  0  0  0  0  0  0  0  0  0
   17.8708  -22.7755  -10.8526 N   0  0  0  0  0  0  0  0  0  0  0  0
   18.9724  -23.1003  -12.9926 C   0  0  0  0  0  0  0  0  0  0  0  0
   19.8917  -22.3245  -12.5986 O   0  0  0  0  0  0  0  0  0  0  0  0
   19.1690  -23.9704  -14.0547 O   0  0  0  0  0  0  0  0  0  0  0  0
  2  1  1  0
  2  3  1  0
  3  4  1  6
  3  5  1  0
  5  7  1  0
  5  6  1  1
  7  8  2  0
  7 13  1  0
 10  9  1  1
 10 12  1  0
 10 11  1  0
 12 14  1  0
 12 13  1  1
 14 24  1  0
 15 14  2  0
 17 19  1  0
 17 16  1  0
 18 17  2  0
 20 19  1  0
 21 20  1  0
 22 21  1  0
 23 25  1  0
 23 22  1  6
 24 23  1  0
 25 27  1  0
 26 25  2  0
M  END
$$$$
