IVR.pdb
     RDKit          3D

 27 26  0  0  1  0  0  0  0  0999 V2000
   14.3691  -25.1795   -2.3481 C   0  0  0  0  0  0  0  0  0  0  0  0
   15.5152  -26.1147   -2.5915 C   0  0  0  0  0  0  0  0  0  0  0  0
   16.5264  -25.5727   -3.5841 C   0  0  2  0  0  0  0  0  0  0  0  0
   15.8663  -25.2299   -4.9077 C   0  0  0  0  0  0  0  0  0  0  0  0
   17.6335  -26.5249   -3.8655 C   0  0  2  0  0  0  0  0  0  0  0  0
   18.5342  -26.6025   -2.7612 N   0  0  0  0  0  0  0  0  0  0  0  0
   18.3093  -26.3180   -5.1620 C   0  0  0  0  0  0  0  0  0  0  0  0
   19.2409  -25.4734   -5.2037 O   0  0  0  0  0  0  0  0  0  0  0  0
   17.5471  -28.8713   -8.4886 C   0  0  0  0  0  0  0  0  0  0  0  0
   18.8727  -28.1608   -8.2954 C   0  0  1  0  0  0  0  0  0  0  0  0
   19.5541  -28.0017   -9.6171 C   0  0  0  0  0  0  0  0  0  0  0  0
   18.6721  -26.8243   -7.6023 C   0  0  2  0  0  0  0  0  0  0  0  0
   17.9783  -27.0024   -6.3475 N   0  0  0  0  0  0  0  0  0  0  0  0
   17.8886  -25.9690   -8.5440 C   0  0  0  0  0  0  0  0  0  0  0  0
   16.6324  -26.0464   -8.5135 O   0  0  0  0  0  0  0  0  0  0  0  0
   18.6206  -22.6050  -15.4548 N   0  0  0  0  0  0  0  0  0  0  0  0
   18.4786  -21.2407  -15.0908 C   0  0  0  0  0  0  0  0  0  0  0  0
   18.0335  -20.4073  -15.9614 N   0  0  0  0  0  0  0  0  0  0  0  0
   18.8173  -20.7816  -13.7956 N   0  0  0  0  0  0  0  0  0  0  0  0
   19.3619  -21.6747  -12.7983 C   0  0  0  0  0  0  0  0  0  0  0  0
   18.2944  -22.5161  -12.1560 C   0  0  0  0  0  0  0  0  0  0  0  0
   18.7995  -23.4350  -11.1016 C   0  0  0  0  0  0  0  0  0  0  0  0
   17.7382  -24.2206  -10.3721 C   0  0  2  0  0  0  0  0  0  0  0  0
   18.4674  -25.0846   -9.4593 N   0  0  0  0  0  0  0  0  0  0  0  0
   16.8834  -25.0269  -11.2995 C   0  0  0  0  0  0  0  0  0  0  0  0
   17.3769  -26.0966  -11.7627 O   0  0  0  0  0  0  0  0  0  0  0  0
   15.6017  -24.6185  -11.6375 O   0  0  0  0  0  0  0  0  0  0  0  0
  2  1  1  0
  2  3  1  0
  3  4  1  6
  3  5  1  0
  5  7  1  0
  5  6  1  1
  7  8  2  0
  7 13  1  0
 10  9  1  6
 10 12  1  0
 10 11  1  0
 12 14  1  0
 12 13  1  1
 14 24  1  0
 15 14  2  0
 17 19  1  0
 17 16  1  0
 18 17  2  0
 20 19  1  0
 21 20  1  0
 22 21  1  0
 23 25  1  0
 23 22  1  6
 24 23  1  0
 25 27  1  0
 26 25  2  0
M  END
$$$$
