IVR.pdb
     RDKit          3D

 27 26  0  0  1  0  0  0  0  0999 V2000
   28.4636  -17.4899  -17.4151 C   0  0  0  0  0  0  0  0  0  0  0  0
   28.8953  -18.5133  -16.4083 C   0  0  0  0  0  0  0  0  0  0  0  0
   27.7400  -19.3172  -15.8424 C   0  0  2  0  0  0  0  0  0  0  0  0
   26.7404  -18.4186  -15.1361 C   0  0  0  0  0  0  0  0  0  0  0  0
   28.1746  -20.3575  -14.8728 C   0  0  2  0  0  0  0  0  0  0  0  0
   29.0401  -21.3066  -15.4950 N   0  0  0  0  0  0  0  0  0  0  0  0
   27.0785  -20.9782  -14.1023 C   0  0  0  0  0  0  0  0  0  0  0  0
   26.2845  -21.7305  -14.7240 O   0  0  0  0  0  0  0  0  0  0  0  0
   26.0906  -19.4794  -10.3311 C   0  0  0  0  0  0  0  0  0  0  0  0
   25.8369  -20.9620  -10.5233 C   0  0  1  0  0  0  0  0  0  0  0  0
   24.6064  -21.3619   -9.7735 C   0  0  0  0  0  0  0  0  0  0  0  0
   25.7314  -21.3039  -11.9995 C   0  0  2  0  0  0  0  0  0  0  0  0
   26.8671  -20.7817  -12.7239 N   0  0  0  0  0  0  0  0  0  0  0  0
   24.4510  -20.7064  -12.4850 C   0  0  0  0  0  0  0  0  0  0  0  0
   24.3622  -19.4518  -12.5385 O   0  0  0  0  0  0  0  0  0  0  0  0
   22.7515  -26.6495  -14.7685 N   0  0  0  0  0  0  0  0  0  0  0  0
   22.1893  -26.0623  -15.9318 C   0  0  0  0  0  0  0  0  0  0  0  0
   21.4249  -26.7734  -16.6806 N   0  0  0  0  0  0  0  0  0  0  0  0
   22.4537  -24.7171  -16.2830 N   0  0  0  0  0  0  0  0  0  0  0  0
   22.9766  -23.7757  -15.3190 C   0  0  0  0  0  0  0  0  0  0  0  0
   21.8882  -23.1771  -14.4722 C   0  0  0  0  0  0  0  0  0  0  0  0
   21.7582  -21.7018  -14.6062 C   0  0  0  0  0  0  0  0  0  0  0  0
   22.0825  -20.9129  -13.3619 C   0  0  2  0  0  0  0  0  0  0  0  0
   23.3423  -21.4582  -12.8856 N   0  0  0  0  0  0  0  0  0  0  0  0
   21.0203  -21.0338  -12.3140 C   0  0  0  0  0  0  0  0  0  0  0  0
   21.2916  -21.7238  -11.2880 O   0  0  0  0  0  0  0  0  0  0  0  0
   19.7881  -20.4143  -12.4611 O   0  0  0  0  0  0  0  0  0  0  0  0
  2  1  1  0
  2  3  1  0
  3  4  1  1
  3  5  1  0
  5  7  1  0
  5  6  1  6
  7  8  2  0
  7 13  1  0
 10  9  1  6
 10 12  1  0
 10 11  1  0
 12 14  1  0
 12 13  1  6
 14 24  1  0
 15 14  2  0
 17 19  1  0
 17 16  1  0
 18 17  2  0
 20 19  1  0
 21 20  1  0
 22 21  1  0
 23 25  1  0
 23 22  1  6
 24 23  1  0
 25 27  1  0
 26 25  2  0
M  END
$$$$
