IVR.pdb
     RDKit          3D

 27 26  0  0  1  0  0  0  0  0999 V2000
   22.7455  -25.1274  -21.8005 C   0  0  0  0  0  0  0  0  0  0  0  0
   23.5555  -23.9658  -21.3087 C   0  0  0  0  0  0  0  0  0  0  0  0
   23.3274  -23.6590  -19.8407 C   0  0  2  0  0  0  0  0  0  0  0  0
   21.8676  -23.3439  -19.5665 C   0  0  0  0  0  0  0  0  0  0  0  0
   24.1358  -22.5097  -19.3539 C   0  0  2  0  0  0  0  0  0  0  0  0
   25.5281  -22.7350  -19.5723 N   0  0  0  0  0  0  0  0  0  0  0  0
   23.8196  -22.0721  -17.9795 C   0  0  0  0  0  0  0  0  0  0  0  0
   24.2268  -22.7927  -17.0319 O   0  0  0  0  0  0  0  0  0  0  0  0
   23.8394  -18.3222  -16.4160 C   0  0  0  0  0  0  0  0  0  0  0  0
   22.5179  -19.0373  -16.2122 C   0  0  1  0  0  0  0  0  0  0  0  0
   21.5129  -18.5241  -17.1935 C   0  0  0  0  0  0  0  0  0  0  0  0
   22.6959  -20.5416  -16.3250 C   0  0  2  0  0  0  0  0  0  0  0  0
   23.0949  -20.9064  -17.6648 N   0  0  0  0  0  0  0  0  0  0  0  0
   21.3836  -21.1548  -15.9589 C   0  0  0  0  0  0  0  0  0  0  0  0
   20.4930  -21.2286  -16.8456 O   0  0  0  0  0  0  0  0  0  0  0  0
   19.1294  -25.1113   -8.2257 N   0  0  0  0  0  0  0  0  0  0  0  0
   17.9509  -25.1095   -9.0165 C   0  0  0  0  0  0  0  0  0  0  0  0
   16.8926  -25.6751   -8.5575 N   0  0  0  0  0  0  0  0  0  0  0  0
   17.9186  -24.5023  -10.2944 N   0  0  0  0  0  0  0  0  0  0  0  0
   19.0817  -23.8449  -10.8457 C   0  0  0  0  0  0  0  0  0  0  0  0
   18.8467  -23.3783  -12.2553 C   0  0  0  0  0  0  0  0  0  0  0  0
   20.0132  -22.6887  -12.8678 C   0  0  0  0  0  0  0  0  0  0  0  0
   19.7972  -22.1876  -14.2743 C   0  0  2  0  0  0  0  0  0  0  0  0
   21.0839  -21.6540  -14.6877 N   0  0  0  0  0  0  0  0  0  0  0  0
   18.7353  -21.1351  -14.3505 C   0  0  0  0  0  0  0  0  0  0  0  0
   17.6168  -21.4720  -14.8381 O   0  0  0  0  0  0  0  0  0  0  0  0
   18.9676  -19.8425  -13.9045 O   0  0  0  0  0  0  0  0  0  0  0  0
  2  1  1  0
  2  3  1  0
  3  4  1  6
  3  5  1  0
  5  7  1  0
  5  6  1  1
  7  8  2  0
  7 13  1  0
 10  9  1  6
 10 12  1  0
 10 11  1  0
 12 14  1  0
 12 13  1  6
 14 24  1  0
 15 14  2  0
 17 19  1  0
 17 16  1  0
 18 17  2  0
 20 19  1  0
 21 20  1  0
 22 21  1  0
 23 25  1  0
 23 22  1  1
 24 23  1  0
 25 27  1  0
 26 25  2  0
M  END
$$$$
