FEE.pdb
     RDKit          3D

 30 30  0  0  1  0  0  0  0  0999 V2000
   24.4873   -9.5569  -17.1285 N   0  0  0  0  0  0  0  0  0  0  0  0
   24.3152   -9.9380  -15.7424 C   0  0  1  0  0  0  0  0  0  0  0  0
   25.6415   -9.6723  -15.0587 C   0  0  0  0  0  0  0  0  0  0  0  0
   26.7584  -10.3765  -15.6965 C   0  0  0  0  0  0  0  0  0  0  0  0
   26.9476  -11.7109  -15.4032 C   0  0  0  0  0  0  0  0  0  0  0  0
   27.9569  -12.4651  -15.9401 C   0  0  0  0  0  0  0  0  0  0  0  0
   28.8218  -11.8591  -16.8135 C   0  0  0  0  0  0  0  0  0  0  0  0
   28.6579  -10.5145  -17.1299 C   0  0  0  0  0  0  0  0  0  0  0  0
   27.6344   -9.7734  -16.5777 C   0  0  0  0  0  0  0  0  0  0  0  0
   23.3208   -9.0357  -15.1267 C   0  0  0  0  0  0  0  0  0  0  0  0
   23.0233   -9.2084  -13.9256 O   0  0  0  0  0  0  0  0  0  0  0  0
   22.7187   -7.9956  -15.8866 N   0  0  0  0  0  0  0  0  0  0  0  0
   21.6000   -7.2799  -15.3607 C   0  0  1  0  0  0  0  0  0  0  0  0
   21.9021   -5.7997  -15.4021 C   0  0  0  0  0  0  0  0  0  0  0  0
   21.6059   -5.1298  -14.0784 C   0  0  0  0  0  0  0  0  0  0  0  0
   21.6933   -3.6577  -14.2129 C   0  0  0  0  0  0  0  0  0  0  0  0
   22.8270   -3.1377  -14.3630 O   0  0  0  0  0  0  0  0  0  0  0  0
   20.3506   -7.5760  -16.1071 C   0  0  0  0  0  0  0  0  0  0  0  0
   20.3445   -7.5568  -17.3626 O   0  0  0  0  0  0  0  0  0  0  0  0
   20.5948   -2.8237  -14.1823 O   0  0  0  0  0  0  0  0  0  0  0  0
   19.1534   -7.8825  -15.4418 N   0  0  0  0  0  0  0  0  0  0  0  0
   17.9065   -8.2284  -16.1453 C   0  0  1  0  0  0  0  0  0  0  0  0
   17.5218   -9.6155  -15.8610 C   0  0  0  0  0  0  0  0  0  0  0  0
   16.2168  -10.0620  -16.3891 C   0  0  0  0  0  0  0  0  0  0  0  0
   15.9495  -11.4924  -16.1260 C   0  0  0  0  0  0  0  0  0  0  0  0
   16.7339  -12.2160  -15.4298 O   0  0  0  0  0  0  0  0  0  0  0  0
   16.9133   -7.1994  -16.0307 C   0  0  0  0  0  0  0  0  0  0  0  0
   16.1118   -6.8029  -16.9164 O   0  0  0  0  0  0  0  0  0  0  0  0
   14.8090  -12.1574  -16.6187 O   0  0  0  0  0  0  0  0  0  0  0  0
   16.8051   -6.5385  -14.7817 O   0  0  0  0  0  0  0  0  0  0  0  0
  2 10  1  0
  2  1  1  6
  3  2  1  0
  3  4  1  0
  4  5  2  0
  4  9  1  0
  5  6  1  0
  6  7  2  0
  8  7  1  0
  9  8  2  0
 10 11  2  0
 12 10  1  0
 12 13  1  0
 13 14  1  6
 14 15  1  0
 16 15  1  0
 16 20  1  0
 17 16  2  0
 18 13  1  0
 18 19  2  0
 21 18  1  0
 22 21  1  0
 22 27  1  0
 22 23  1  1
 24 23  1  0
 25 24  1  0
 26 25  2  0
 27 30  1  0
 28 27  2  0
 29 25  1  0
M  END
$$$$
