FEE.pdb
     RDKit          3D

 30 30  0  0  1  0  0  0  0  0999 V2000
   25.0178  -20.7033   -7.6128 N   0  0  0  0  0  0  0  0  0  0  0  0
   26.1000  -20.1698   -8.4130 C   0  0  1  0  0  0  0  0  0  0  0  0
   27.3520  -20.9090   -7.9853 C   0  0  0  0  0  0  0  0  0  0  0  0
   27.9370  -20.3669   -6.7547 C   0  0  0  0  0  0  0  0  0  0  0  0
   28.0161  -18.9974   -6.6123 C   0  0  0  0  0  0  0  0  0  0  0  0
   28.5432  -18.3835   -5.5071 C   0  0  0  0  0  0  0  0  0  0  0  0
   29.0153  -19.1744   -4.4924 C   0  0  0  0  0  0  0  0  0  0  0  0
   28.9499  -20.5592   -4.6055 C   0  0  0  0  0  0  0  0  0  0  0  0
   28.4151  -21.1568   -5.7275 C   0  0  0  0  0  0  0  0  0  0  0  0
   25.8533  -20.5158   -9.8278 C   0  0  0  0  0  0  0  0  0  0  0  0
   24.6730  -20.6773  -10.2041 O   0  0  0  0  0  0  0  0  0  0  0  0
   26.9368  -20.6603  -10.7372 N   0  0  0  0  0  0  0  0  0  0  0  0
   26.7308  -20.4522  -12.1354 C   0  0  1  0  0  0  0  0  0  0  0  0
   28.0567  -20.5771  -12.8497 C   0  0  0  0  0  0  0  0  0  0  0  0
   28.4535  -19.2831  -13.5255 C   0  0  0  0  0  0  0  0  0  0  0  0
   27.7302  -19.1268  -14.8082 C   0  0  0  0  0  0  0  0  0  0  0  0
   28.0721  -19.8475  -15.7787 O   0  0  0  0  0  0  0  0  0  0  0  0
   25.7448  -21.4088  -12.6997 C   0  0  0  0  0  0  0  0  0  0  0  0
   25.7391  -22.6067  -12.3235 O   0  0  0  0  0  0  0  0  0  0  0  0
   26.6985  -18.2304  -14.9963 O   0  0  0  0  0  0  0  0  0  0  0  0
   24.8008  -21.0094  -13.6585 N   0  0  0  0  0  0  0  0  0  0  0  0
   23.3980  -21.4582  -13.6438 C   0  0  1  0  0  0  0  0  0  0  0  0
   22.8319  -21.3363  -12.2957 C   0  0  0  0  0  0  0  0  0  0  0  0
   21.4618  -21.8535  -12.1039 C   0  0  0  0  0  0  0  0  0  0  0  0
   20.4204  -20.8498  -12.4117 C   0  0  0  0  0  0  0  0  0  0  0  0
   20.1928  -19.8495  -11.6559 O   0  0  0  0  0  0  0  0  0  0  0  0
   22.6504  -20.9446  -14.7554 C   0  0  0  0  0  0  0  0  0  0  0  0
   22.5884  -19.7528  -15.1549 O   0  0  0  0  0  0  0  0  0  0  0  0
   19.6098  -20.9214  -13.5621 O   0  0  0  0  0  0  0  0  0  0  0  0
   21.8844  -21.8714  -15.5056 O   0  0  0  0  0  0  0  0  0  0  0  0
  2 10  1  0
  2  1  1  1
  3  2  1  0
  3  4  1  0
  4  5  2  0
  4  9  1  0
  5  6  1  0
  6  7  2  0
  8  7  1  0
  9  8  2  0
 10 11  2  0
 12 10  1  0
 12 13  1  0
 13 14  1  6
 14 15  1  0
 16 15  1  0
 16 20  1  0
 17 16  2  0
 18 13  1  0
 18 19  2  0
 21 18  1  0
 22 21  1  0
 22 27  1  0
 22 23  1  1
 24 23  1  0
 25 24  1  0
 26 25  2  0
 27 30  1  0
 28 27  2  0
 29 25  1  0
M  END
$$$$
