FEE.pdb
     RDKit          3D

 30 30  0  0  1  0  0  0  0  0999 V2000
   26.8864  -22.2766  -13.8241 N   0  0  0  0  0  0  0  0  0  0  0  0
   26.3354  -21.5253  -12.7158 C   0  0  1  0  0  0  0  0  0  0  0  0
   27.1712  -20.2667  -12.5959 C   0  0  0  0  0  0  0  0  0  0  0  0
   28.3630  -20.4556  -11.7626 C   0  0  0  0  0  0  0  0  0  0  0  0
   28.1909  -20.7271  -10.4214 C   0  0  0  0  0  0  0  0  0  0  0  0
   29.2313  -20.9206   -9.5518 C   0  0  0  0  0  0  0  0  0  0  0  0
   30.5079  -20.8394  -10.0436 C   0  0  0  0  0  0  0  0  0  0  0  0
   30.7150  -20.5670  -11.3919 C   0  0  0  0  0  0  0  0  0  0  0  0
   29.6527  -20.3755  -12.2502 C   0  0  0  0  0  0  0  0  0  0  0  0
   24.9642  -21.1041  -13.0688 C   0  0  0  0  0  0  0  0  0  0  0  0
   24.6202  -21.1419  -14.2693 O   0  0  0  0  0  0  0  0  0  0  0  0
   24.0597  -20.6670  -12.0626 N   0  0  0  0  0  0  0  0  0  0  0  0
   22.6537  -20.6651  -12.3154 C   0  0  1  0  0  0  0  0  0  0  0  0
   21.9241  -20.3807  -11.0228 C   0  0  0  0  0  0  0  0  0  0  0  0
   20.4329  -20.5945  -11.1621 C   0  0  0  0  0  0  0  0  0  0  0  0
   19.7035  -19.3308  -10.9092 C   0  0  0  0  0  0  0  0  0  0  0  0
   20.3346  -18.3663  -10.4094 O   0  0  0  0  0  0  0  0  0  0  0  0
   22.2775  -19.6718  -13.3535 C   0  0  0  0  0  0  0  0  0  0  0  0
   22.6772  -18.4847  -13.2671 O   0  0  0  0  0  0  0  0  0  0  0  0
   18.3651  -19.1541  -11.1932 O   0  0  0  0  0  0  0  0  0  0  0  0
   21.4743  -20.0241  -14.4492 N   0  0  0  0  0  0  0  0  0  0  0  0
   21.0632  -19.0645  -15.4883 C   0  0  1  0  0  0  0  0  0  0  0  0
   21.4821  -19.5304  -16.8151 C   0  0  0  0  0  0  0  0  0  0  0  0
   21.1842  -18.6388  -17.9542 C   0  0  0  0  0  0  0  0  0  0  0  0
   21.5401  -19.2358  -19.2595 C   0  0  0  0  0  0  0  0  0  0  0  0
   22.0915  -20.3802  -19.3583 O   0  0  0  0  0  0  0  0  0  0  0  0
   19.7129  -18.6138  -15.3096 C   0  0  0  0  0  0  0  0  0  0  0  0
   19.2583  -17.4553  -15.4969 O   0  0  0  0  0  0  0  0  0  0  0  0
   21.2914  -18.5886  -20.4862 O   0  0  0  0  0  0  0  0  0  0  0  0
   18.7627  -19.5694  -14.8710 O   0  0  0  0  0  0  0  0  0  0  0  0
  2 10  1  0
  2  1  1  6
  3  2  1  0
  3  4  1  0
  4  5  2  0
  4  9  1  0
  5  6  1  0
  6  7  2  0
  8  7  1  0
  9  8  2  0
 10 11  2  0
 12 10  1  0
 12 13  1  0
 13 14  1  1
 14 15  1  0
 16 15  1  0
 16 20  1  0
 17 16  2  0
 18 13  1  0
 18 19  2  0
 21 18  1  0
 22 21  1  0
 22 27  1  0
 22 23  1  6
 24 23  1  0
 25 24  1  0
 26 25  2  0
 27 30  1  0
 28 27  2  0
 29 25  1  0
M  END
$$$$
