FEE.pdb
     RDKit          3D

 30 30  0  0  1  0  0  0  0  0999 V2000
   23.8507  -35.7567  -11.5423 N   0  0  0  0  0  0  0  0  0  0  0  0
   24.9048  -34.9229  -11.0039 C   0  0  1  0  0  0  0  0  0  0  0  0
   24.3990  -33.4961  -11.0753 C   0  0  0  0  0  0  0  0  0  0  0  0
   24.3964  -32.9640  -12.4418 C   0  0  0  0  0  0  0  0  0  0  0  0
   23.2058  -32.5063  -12.9667 C   0  0  0  0  0  0  0  0  0  0  0  0
   23.0877  -31.9902  -14.2299 C   0  0  0  0  0  0  0  0  0  0  0  0
   24.2129  -31.9270  -15.0097 C   0  0  0  0  0  0  0  0  0  0  0  0
   25.4290  -32.3805  -14.5094 C   0  0  0  0  0  0  0  0  0  0  0  0
   25.5256  -32.8966  -13.2342 C   0  0  0  0  0  0  0  0  0  0  0  0
   25.0794  -35.2507   -9.5741 C   0  0  0  0  0  0  0  0  0  0  0  0
   24.0730  -35.5818   -8.9119 O   0  0  0  0  0  0  0  0  0  0  0  0
   26.3649  -35.1903   -8.9694 N   0  0  0  0  0  0  0  0  0  0  0  0
   26.5330  -35.5762   -7.6044 C   0  0  1  0  0  0  0  0  0  0  0  0
   27.8326  -36.3351   -7.4664 C   0  0  0  0  0  0  0  0  0  0  0  0
   27.9720  -36.9639   -6.0975 C   0  0  0  0  0  0  0  0  0  0  0  0
   29.2748  -37.6576   -5.9774 C   0  0  0  0  0  0  0  0  0  0  0  0
   29.7899  -37.7683   -4.8370 O   0  0  0  0  0  0  0  0  0  0  0  0
   26.5157  -34.4057   -6.6903 C   0  0  0  0  0  0  0  0  0  0  0  0
   27.0939  -33.3400   -7.0165 O   0  0  0  0  0  0  0  0  0  0  0  0
   29.9558  -38.1903   -7.0524 O   0  0  0  0  0  0  0  0  0  0  0  0
   25.8612  -34.4531   -5.4497 N   0  0  0  0  0  0  0  0  0  0  0  0
   25.8614  -33.3314   -4.4951 C   0  0  1  0  0  0  0  0  0  0  0  0
   24.5066  -33.0857   -3.9880 C   0  0  0  0  0  0  0  0  0  0  0  0
   23.3934  -33.6676   -4.7649 C   0  0  0  0  0  0  0  0  0  0  0  0
   22.0691  -33.3873   -4.1695 C   0  0  0  0  0  0  0  0  0  0  0  0
   21.1653  -32.7390   -4.7912 O   0  0  0  0  0  0  0  0  0  0  0  0
   26.9447  -33.4140   -3.5581 C   0  0  0  0  0  0  0  0  0  0  0  0
   27.6987  -34.3978   -3.3400 O   0  0  0  0  0  0  0  0  0  0  0  0
   21.7076  -33.8199   -2.8781 O   0  0  0  0  0  0  0  0  0  0  0  0
   27.2148  -32.2636   -2.7758 O   0  0  0  0  0  0  0  0  0  0  0  0
  2 10  1  0
  2  1  1  1
  3  2  1  0
  3  4  1  0
  4  5  2  0
  4  9  1  0
  5  6  1  0
  6  7  2  0
  8  7  1  0
  9  8  2  0
 10 11  2  0
 12 10  1  0
 12 13  1  0
 13 14  1  6
 14 15  1  0
 16 15  1  0
 16 20  1  0
 17 16  2  0
 18 13  1  0
 18 19  2  0
 21 18  1  0
 22 21  1  0
 22 27  1  0
 22 23  1  1
 24 23  1  0
 25 24  1  0
 26 25  2  0
 27 30  1  0
 28 27  2  0
 29 25  1  0
M  END
$$$$
