FEE.pdb
     RDKit          3D

 30 30  0  0  1  0  0  0  0  0999 V2000
   28.1206  -19.0062  -15.6084 N   0  0  0  0  0  0  0  0  0  0  0  0
   27.8776  -20.1504  -14.7552 C   0  0  1  0  0  0  0  0  0  0  0  0
   27.5041  -19.5968  -13.3947 C   0  0  0  0  0  0  0  0  0  0  0  0
   28.3237  -20.1522  -12.3129 C   0  0  0  0  0  0  0  0  0  0  0  0
   29.6262  -19.7170  -12.1853 C   0  0  0  0  0  0  0  0  0  0  0  0
   30.4800  -20.1676  -11.2137 C   0  0  0  0  0  0  0  0  0  0  0  0
   30.0121  -21.0992  -10.3241 C   0  0  0  0  0  0  0  0  0  0  0  0
   28.7031  -21.5584  -10.4260 C   0  0  0  0  0  0  0  0  0  0  0  0
   27.8601  -21.0911  -11.4123 C   0  0  0  0  0  0  0  0  0  0  0  0
   26.6976  -20.8766  -15.2674 C   0  0  0  0  0  0  0  0  0  0  0  0
   25.8129  -20.2282  -15.8656 O   0  0  0  0  0  0  0  0  0  0  0  0
   26.5755  -22.2811  -15.0824 N   0  0  0  0  0  0  0  0  0  0  0  0
   25.4214  -22.9696  -15.5668 C   0  0  1  0  0  0  0  0  0  0  0  0
   25.7230  -24.4492  -15.6268 C   0  0  0  0  0  0  0  0  0  0  0  0
   24.5789  -25.2304  -16.2346 C   0  0  0  0  0  0  0  0  0  0  0  0
   24.9454  -26.6581  -16.3766 C   0  0  0  0  0  0  0  0  0  0  0  0
   24.4992  -27.4762  -15.5341 O   0  0  0  0  0  0  0  0  0  0  0  0
   24.2279  -22.7168  -14.7198 C   0  0  0  0  0  0  0  0  0  0  0  0
   24.3278  -22.7234  -13.4682 O   0  0  0  0  0  0  0  0  0  0  0  0
   25.7524  -27.1404  -17.3863 O   0  0  0  0  0  0  0  0  0  0  0  0
   22.9675  -22.4660  -15.2840 N   0  0  0  0  0  0  0  0  0  0  0  0
   21.7658  -22.1862  -14.4795 C   0  0  1  0  0  0  0  0  0  0  0  0
   21.2031  -20.8776  -14.8311 C   0  0  0  0  0  0  0  0  0  0  0  0
   19.9318  -20.5064  -14.1773 C   0  0  0  0  0  0  0  0  0  0  0  0
   19.3563  -19.2528  -14.7101 C   0  0  0  0  0  0  0  0  0  0  0  0
   18.2930  -18.7350  -14.2360 O   0  0  0  0  0  0  0  0  0  0  0  0
   20.8867  -23.3174  -14.4024 C   0  0  0  0  0  0  0  0  0  0  0  0
   20.4762  -24.0376  -15.3494 O   0  0  0  0  0  0  0  0  0  0  0  0
   19.9421  -18.5373  -15.7735 O   0  0  0  0  0  0  0  0  0  0  0  0
   20.4128  -23.6844  -13.1182 O   0  0  0  0  0  0  0  0  0  0  0  0
  2 10  1  0
  2  1  1  6
  3  2  1  0
  3  4  1  0
  4  5  2  0
  4  9  1  0
  5  6  1  0
  6  7  2  0
  8  7  1  0
  9  8  2  0
 10 11  2  0
 12 10  1  0
 12 13  1  0
 13 14  1  1
 14 15  1  0
 16 15  1  0
 16 20  1  0
 17 16  2  0
 18 13  1  0
 18 19  2  0
 21 18  1  0
 22 21  1  0
 22 27  1  0
 22 23  1  6
 24 23  1  0
 25 24  1  0
 26 25  2  0
 27 30  1  0
 28 27  2  0
 29 25  1  0
M  END
$$$$
