FEE.pdb
     RDKit          3D

 30 30  0  0  1  0  0  0  0  0999 V2000
   26.7386  -30.3240  -17.3106 N   0  0  0  0  0  0  0  0  0  0  0  0
   27.1311  -31.3700  -16.3897 C   0  0  1  0  0  0  0  0  0  0  0  0
   28.2514  -30.7969  -15.5451 C   0  0  0  0  0  0  0  0  0  0  0  0
   29.5620  -30.9053  -16.1939 C   0  0  0  0  0  0  0  0  0  0  0  0
   30.0415  -29.8172  -16.8928 C   0  0  0  0  0  0  0  0  0  0  0  0
   31.2504  -29.8077  -17.5365 C   0  0  0  0  0  0  0  0  0  0  0  0
   32.0206  -30.9398  -17.4812 C   0  0  0  0  0  0  0  0  0  0  0  0
   31.5653  -32.0542  -16.7843 C   0  0  0  0  0  0  0  0  0  0  0  0
   30.3445  -32.0423  -16.1429 C   0  0  0  0  0  0  0  0  0  0  0  0
   25.9994  -31.6454  -15.4811 C   0  0  0  0  0  0  0  0  0  0  0  0
   25.0110  -30.8818  -15.5127 O   0  0  0  0  0  0  0  0  0  0  0  0
   26.0377  -32.7551  -14.5929 N   0  0  0  0  0  0  0  0  0  0  0  0
   24.9432  -33.0031  -13.7091 C   0  0  1  0  0  0  0  0  0  0  0  0
   24.0050  -33.9948  -14.3574 C   0  0  0  0  0  0  0  0  0  0  0  0
   22.7571  -34.2097  -13.5296 C   0  0  0  0  0  0  0  0  0  0  0  0
   21.8317  -35.1366  -14.2204 C   0  0  0  0  0  0  0  0  0  0  0  0
   22.1870  -35.6249  -15.3220 O   0  0  0  0  0  0  0  0  0  0  0  0
   25.3992  -33.5065  -12.3883 C   0  0  0  0  0  0  0  0  0  0  0  0
   26.3379  -34.3374  -12.3181 O   0  0  0  0  0  0  0  0  0  0  0  0
   20.5972  -35.4944  -13.7191 O   0  0  0  0  0  0  0  0  0  0  0  0
   24.8033  -33.0751  -11.1930 N   0  0  0  0  0  0  0  0  0  0  0  0
   25.2426  -33.5315   -9.8633 C   0  0  1  0  0  0  0  0  0  0  0  0
   25.0244  -32.4830   -8.8603 C   0  0  0  0  0  0  0  0  0  0  0  0
   25.9902  -32.4229   -7.7446 C   0  0  0  0  0  0  0  0  0  0  0  0
   25.3483  -32.5687   -6.4204 C   0  0  0  0  0  0  0  0  0  0  0  0
   24.0892  -32.7100   -6.2847 O   0  0  0  0  0  0  0  0  0  0  0  0
   24.8037  -34.8662   -9.5732 C   0  0  0  0  0  0  0  0  0  0  0  0
   23.6344  -35.3250   -9.6528 O   0  0  0  0  0  0  0  0  0  0  0  0
   26.0790  -32.5685   -5.2155 O   0  0  0  0  0  0  0  0  0  0  0  0
   25.7861  -35.7935   -9.1449 O   0  0  0  0  0  0  0  0  0  0  0  0
  2 10  1  0
  2  1  1  6
  3  2  1  0
  3  4  1  0
  4  5  2  0
  4  9  1  0
  5  6  1  0
  6  7  2  0
  8  7  1  0
  9  8  2  0
 10 11  2  0
 12 10  1  0
 12 13  1  0
 13 14  1  6
 14 15  1  0
 16 15  1  0
 16 20  1  0
 17 16  2  0
 18 13  1  0
 18 19  2  0
 21 18  1  0
 22 21  1  0
 22 27  1  0
 22 23  1  1
 24 23  1  0
 25 24  1  0
 26 25  2  0
 27 30  1  0
 28 27  2  0
 29 25  1  0
M  END
$$$$
