FEE.pdb
     RDKit          3D

 30 30  0  0  1  0  0  0  0  0999 V2000
   25.2687  -21.2584  -10.7233 N   0  0  0  0  0  0  0  0  0  0  0  0
   25.4210  -20.5800  -11.9932 C   0  0  1  0  0  0  0  0  0  0  0  0
   26.5417  -21.2909  -12.7252 C   0  0  0  0  0  0  0  0  0  0  0  0
   27.8694  -20.9203  -12.2249 C   0  0  0  0  0  0  0  0  0  0  0  0
   28.4848  -19.8064  -12.7566 C   0  0  0  0  0  0  0  0  0  0  0  0
   29.7225  -19.3697  -12.3648 C   0  0  0  0  0  0  0  0  0  0  0  0
   30.3803  -20.0789  -11.3940 C   0  0  0  0  0  0  0  0  0  0  0  0
   29.7864  -21.2070  -10.8376 C   0  0  0  0  0  0  0  0  0  0  0  0
   28.5390  -21.6293  -11.2469 C   0  0  0  0  0  0  0  0  0  0  0  0
   24.1897  -20.7808  -12.7842 C   0  0  0  0  0  0  0  0  0  0  0  0
   23.5942  -21.8752  -12.6913 O   0  0  0  0  0  0  0  0  0  0  0  0
   23.6965  -19.7498  -13.6300 N   0  0  0  0  0  0  0  0  0  0  0  0
   22.4994  -19.9522  -14.3827 C   0  0  1  0  0  0  0  0  0  0  0  0
   21.7791  -18.6309  -14.5219 C   0  0  0  0  0  0  0  0  0  0  0  0
   20.4945  -18.7729  -15.3084 C   0  0  0  0  0  0  0  0  0  0  0  0
   19.8029  -17.4674  -15.4090 C   0  0  0  0  0  0  0  0  0  0  0  0
   19.7538  -16.9021  -16.5299 O   0  0  0  0  0  0  0  0  0  0  0  0
   22.7763  -20.5362  -15.7199 C   0  0  0  0  0  0  0  0  0  0  0  0
   23.8176  -20.2184  -16.3453 O   0  0  0  0  0  0  0  0  0  0  0  0
   19.2079  -16.8361  -14.3363 O   0  0  0  0  0  0  0  0  0  0  0  0
   21.8946  -21.4495  -16.3186 N   0  0  0  0  0  0  0  0  0  0  0  0
   22.1747  -22.1173  -17.6012 C   0  0  1  0  0  0  0  0  0  0  0  0
   21.7027  -23.5062  -17.5731 C   0  0  0  0  0  0  0  0  0  0  0  0
   21.8552  -24.2825  -18.8203 C   0  0  0  0  0  0  0  0  0  0  0  0
   21.3119  -25.6537  -18.7137 C   0  0  0  0  0  0  0  0  0  0  0  0
   20.8478  -26.1205  -17.6227 O   0  0  0  0  0  0  0  0  0  0  0  0
   21.8366  -21.2960  -18.7279 C   0  0  0  0  0  0  0  0  0  0  0  0
   22.4725  -21.1721  -19.8069 O   0  0  0  0  0  0  0  0  0  0  0  0
   21.2617  -26.5403  -19.8078 O   0  0  0  0  0  0  0  0  0  0  0  0
   20.6510  -20.5251  -18.6362 O   0  0  0  0  0  0  0  0  0  0  0  0
  2 10  1  0
  2  1  1  1
  3  2  1  0
  3  4  1  0
  4  5  2  0
  4  9  1  0
  5  6  1  0
  6  7  2  0
  8  7  1  0
  9  8  2  0
 10 11  2  0
 12 10  1  0
 12 13  1  0
 13 14  1  6
 14 15  1  0
 16 15  1  0
 16 20  1  0
 17 16  2  0
 18 13  1  0
 18 19  2  0
 21 18  1  0
 22 21  1  0
 22 27  1  0
 22 23  1  6
 24 23  1  0
 25 24  1  0
 26 25  2  0
 27 30  1  0
 28 27  2  0
 29 25  1  0
M  END
$$$$
