FEE.pdb
     RDKit          3D

 30 30  0  0  1  0  0  0  0  0999 V2000
   23.3629  -11.7966  -16.0707 N   0  0  0  0  0  0  0  0  0  0  0  0
   23.9515  -10.4973  -15.8228 C   0  0  1  0  0  0  0  0  0  0  0  0
   25.1464  -10.3862  -16.7483 C   0  0  0  0  0  0  0  0  0  0  0  0
   26.2280  -11.3093  -16.3900 C   0  0  0  0  0  0  0  0  0  0  0  0
   27.0331  -10.9931  -15.3156 C   0  0  0  0  0  0  0  0  0  0  0  0
   28.0709  -11.7809  -14.8936 C   0  0  0  0  0  0  0  0  0  0  0  0
   28.3193  -12.9428  -15.5767 C   0  0  0  0  0  0  0  0  0  0  0  0
   27.5253  -13.2901  -16.6647 C   0  0  0  0  0  0  0  0  0  0  0  0
   26.4849  -12.4820  -17.0729 C   0  0  0  0  0  0  0  0  0  0  0  0
   22.9857   -9.4576  -16.2336 C   0  0  0  0  0  0  0  0  0  0  0  0
   22.1502   -9.7378  -17.1192 O   0  0  0  0  0  0  0  0  0  0  0  0
   23.0095   -8.1694  -15.6323 N   0  0  0  0  0  0  0  0  0  0  0  0
   22.0460   -7.1848  -16.0102 C   0  0  1  0  0  0  0  0  0  0  0  0
   22.0302   -6.0899  -14.9687 C   0  0  0  0  0  0  0  0  0  0  0  0
   21.0323   -5.0055  -15.3105 C   0  0  0  0  0  0  0  0  0  0  0  0
   20.9748   -3.9961  -14.2285 C   0  0  0  0  0  0  0  0  0  0  0  0
   21.7497   -4.1261  -13.2482 O   0  0  0  0  0  0  0  0  0  0  0  0
   22.3281   -6.6191  -17.3542 C   0  0  0  0  0  0  0  0  0  0  0  0
   23.4358   -6.8263  -17.9077 O   0  0  0  0  0  0  0  0  0  0  0  0
   20.1145   -2.9177  -14.2380 O   0  0  0  0  0  0  0  0  0  0  0  0
   21.3780   -5.8455  -18.0389 N   0  0  0  0  0  0  0  0  0  0  0  0
   21.4800   -5.5282  -19.4736 C   0  0  1  0  0  0  0  0  0  0  0  0
   21.8159   -6.7303  -20.2448 C   0  0  0  0  0  0  0  0  0  0  0  0
   21.8620   -6.5830  -21.7137 C   0  0  0  0  0  0  0  0  0  0  0  0
   22.2516   -7.8311  -22.4044 C   0  0  0  0  0  0  0  0  0  0  0  0
   23.4438   -8.2801  -22.3805 O   0  0  0  0  0  0  0  0  0  0  0  0
   20.4013   -4.6972  -19.9254 C   0  0  0  0  0  0  0  0  0  0  0  0
   20.4218   -3.8495  -20.8555 O   0  0  0  0  0  0  0  0  0  0  0  0
   21.3358   -8.6166  -23.1324 O   0  0  0  0  0  0  0  0  0  0  0  0
   19.1572   -4.8304  -19.2599 O   0  0  0  0  0  0  0  0  0  0  0  0
  2 10  1  0
  2  1  1  6
  3  2  1  0
  3  4  1  0
  4  5  2  0
  4  9  1  0
  5  6  1  0
  6  7  2  0
  8  7  1  0
  9  8  2  0
 10 11  2  0
 12 10  1  0
 12 13  1  0
 13 14  1  1
 14 15  1  0
 16 15  1  0
 16 20  1  0
 17 16  2  0
 18 13  1  0
 18 19  2  0
 21 18  1  0
 22 21  1  0
 22 27  1  0
 22 23  1  6
 24 23  1  0
 25 24  1  0
 26 25  2  0
 27 30  1  0
 28 27  2  0
 29 25  1  0
M  END
$$$$
