FEE.pdb
     RDKit          3D

 30 30  0  0  1  0  0  0  0  0999 V2000
   28.1149  -10.5301  -20.2543 N   0  0  0  0  0  0  0  0  0  0  0  0
   27.3944  -10.6614  -19.0054 C   0  0  1  0  0  0  0  0  0  0  0  0
   28.1044   -9.7692  -18.0070 C   0  0  0  0  0  0  0  0  0  0  0  0
   29.4462  -10.2542  -17.6683 C   0  0  0  0  0  0  0  0  0  0  0  0
   30.5177   -9.4053  -17.8519 C   0  0  0  0  0  0  0  0  0  0  0  0
   31.8120   -9.7531  -17.5698 C   0  0  0  0  0  0  0  0  0  0  0  0
   32.0510  -11.0105  -17.0798 C   0  0  0  0  0  0  0  0  0  0  0  0
   30.9917  -11.8903  -16.8833 C   0  0  0  0  0  0  0  0  0  0  0  0
   29.6956  -11.5195  -17.1741 C   0  0  0  0  0  0  0  0  0  0  0  0
   26.0346  -10.1135  -19.1873 C   0  0  0  0  0  0  0  0  0  0  0  0
   25.8577   -9.2374  -20.0603 O   0  0  0  0  0  0  0  0  0  0  0  0
   24.9548  -10.5754  -18.3859 N   0  0  0  0  0  0  0  0  0  0  0  0
   23.6243  -10.1275  -18.6498 C   0  0  1  0  0  0  0  0  0  0  0  0
   22.7464  -11.3289  -18.9139 C   0  0  0  0  0  0  0  0  0  0  0  0
   21.3213  -10.9251  -19.2216 C   0  0  0  0  0  0  0  0  0  0  0  0
   20.4851  -12.1231  -19.4635 C   0  0  0  0  0  0  0  0  0  0  0  0
   20.9472  -13.2479  -19.1480 O   0  0  0  0  0  0  0  0  0  0  0  0
   23.0774   -9.3210  -17.5289 C   0  0  0  0  0  0  0  0  0  0  0  0
   23.6858   -9.2686  -16.4319 O   0  0  0  0  0  0  0  0  0  0  0  0
   19.2229  -12.0715  -20.0179 O   0  0  0  0  0  0  0  0  0  0  0  0
   21.8793   -8.6016  -17.6589 N   0  0  0  0  0  0  0  0  0  0  0  0
   21.3640   -7.6992  -16.6150 C   0  0  1  0  0  0  0  0  0  0  0  0
   22.4471   -6.8774  -16.0634 C   0  0  0  0  0  0  0  0  0  0  0  0
   22.1613   -5.4395  -15.8839 C   0  0  0  0  0  0  0  0  0  0  0  0
   22.6356   -4.9172  -14.5843 C   0  0  0  0  0  0  0  0  0  0  0  0
   23.2328   -5.6515  -13.7312 O   0  0  0  0  0  0  0  0  0  0  0  0
   20.1410   -7.0583  -17.0045 C   0  0  0  0  0  0  0  0  0  0  0  0
   19.7603   -6.7725  -18.1696 O   0  0  0  0  0  0  0  0  0  0  0  0
   22.4685   -3.5728  -14.1969 O   0  0  0  0  0  0  0  0  0  0  0  0
   19.2411   -6.6957  -15.9715 O   0  0  0  0  0  0  0  0  0  0  0  0
  2 10  1  0
  2  1  1  6
  3  2  1  0
  3  4  1  0
  4  5  2  0
  4  9  1  0
  5  6  1  0
  6  7  2  0
  8  7  1  0
  9  8  2  0
 10 11  2  0
 12 10  1  0
 12 13  1  0
 13 14  1  1
 14 15  1  0
 16 15  1  0
 16 20  1  0
 17 16  2  0
 18 13  1  0
 18 19  2  0
 21 18  1  0
 22 21  1  0
 22 27  1  0
 22 23  1  6
 24 23  1  0
 25 24  1  0
 26 25  2  0
 27 30  1  0
 28 27  2  0
 29 25  1  0
M  END
$$$$
