FEE.pdb
     RDKit          3D

 30 30  0  0  1  0  0  0  0  0999 V2000
   24.2669  -19.4717  -18.2610 N   0  0  0  0  0  0  0  0  0  0  0  0
   24.0075  -20.0620  -16.9647 C   0  0  1  0  0  0  0  0  0  0  0  0
   24.6253  -19.1315  -15.9404 C   0  0  0  0  0  0  0  0  0  0  0  0
   26.0683  -18.9552  -16.1331 C   0  0  0  0  0  0  0  0  0  0  0  0
   26.8868  -20.0590  -16.0158 C   0  0  0  0  0  0  0  0  0  0  0  0
   28.2463  -20.0099  -16.1749 C   0  0  0  0  0  0  0  0  0  0  0  0
   28.8193  -18.7994  -16.4655 C   0  0  0  0  0  0  0  0  0  0  0  0
   28.0211  -17.6671  -16.5905 C   0  0  0  0  0  0  0  0  0  0  0  0
   26.6537  -17.7391  -16.4263 C   0  0  0  0  0  0  0  0  0  0  0  0
   22.5490  -20.0591  -16.7303 C   0  0  0  0  0  0  0  0  0  0  0  0
   21.9636  -18.9595  -16.6340 O   0  0  0  0  0  0  0  0  0  0  0  0
   21.8314  -21.2815  -16.6178 N   0  0  0  0  0  0  0  0  0  0  0  0
   20.4176  -21.2659  -16.4146 C   0  0  1  0  0  0  0  0  0  0  0  0
   19.7454  -21.9227  -17.5981 C   0  0  0  0  0  0  0  0  0  0  0  0
   19.6448  -20.9822  -18.7788 C   0  0  0  0  0  0  0  0  0  0  0  0
   18.5742  -19.9839  -18.5549 C   0  0  0  0  0  0  0  0  0  0  0  0
   17.3887  -20.3895  -18.4631 O   0  0  0  0  0  0  0  0  0  0  0  0
   20.0304  -21.9476  -15.1532 C   0  0  0  0  0  0  0  0  0  0  0  0
   20.9127  -22.3636  -14.3627 O   0  0  0  0  0  0  0  0  0  0  0  0
   18.8079  -18.6291  -18.4412 O   0  0  0  0  0  0  0  0  0  0  0  0
   18.6841  -22.1456  -14.8094 N   0  0  0  0  0  0  0  0  0  0  0  0
   18.2437  -22.5025  -13.4500 C   0  0  1  0  0  0  0  0  0  0  0  0
   18.8343  -21.5933  -12.4614 C   0  0  0  0  0  0  0  0  0  0  0  0
   18.4518  -21.8097  -11.0513 C   0  0  0  0  0  0  0  0  0  0  0  0
   19.1124  -20.8650  -10.1252 C   0  0  0  0  0  0  0  0  0  0  0  0
   20.2145  -21.1360   -9.5460 O   0  0  0  0  0  0  0  0  0  0  0  0
   16.8357  -22.7707  -13.3866 C   0  0  0  0  0  0  0  0  0  0  0  0
   15.8953  -22.0404  -13.7942 O   0  0  0  0  0  0  0  0  0  0  0  0
   18.5775  -19.5974   -9.8205 O   0  0  0  0  0  0  0  0  0  0  0  0
   16.4347  -23.9967  -12.7996 O   0  0  0  0  0  0  0  0  0  0  0  0
  2 10  1  0
  2  1  1  6
  3  2  1  0
  3  4  1  0
  4  5  2  0
  4  9  1  0
  5  6  1  0
  6  7  2  0
  8  7  1  0
  9  8  2  0
 10 11  2  0
 12 10  1  0
 12 13  1  0
 13 14  1  6
 14 15  1  0
 16 15  1  0
 16 20  1  0
 17 16  2  0
 18 13  1  0
 18 19  2  0
 21 18  1  0
 22 21  1  0
 22 27  1  0
 22 23  1  1
 24 23  1  0
 25 24  1  0
 26 25  2  0
 27 30  1  0
 28 27  2  0
 29 25  1  0
M  END
$$$$
