FEE.pdb
     RDKit          3D

 30 30  0  0  1  0  0  0  0  0999 V2000
   18.3103  -12.7946  -15.2336 N   0  0  0  0  0  0  0  0  0  0  0  0
   18.5889  -11.8167  -16.2643 C   0  0  1  0  0  0  0  0  0  0  0  0
   17.2974  -11.0572  -16.4925 C   0  0  0  0  0  0  0  0  0  0  0  0
   16.2970  -11.8465  -17.2182 C   0  0  0  0  0  0  0  0  0  0  0  0
   16.4113  -11.9525  -18.5886 C   0  0  0  0  0  0  0  0  0  0  0  0
   15.5348  -12.6624  -19.3656 C   0  0  0  0  0  0  0  0  0  0  0  0
   14.4915  -13.2991  -18.7457 C   0  0  0  0  0  0  0  0  0  0  0  0
   14.3485  -13.2117  -17.3648 C   0  0  0  0  0  0  0  0  0  0  0  0
   15.2428  -12.4912  -16.6013 C   0  0  0  0  0  0  0  0  0  0  0  0
   19.5748  -10.8494  -15.7403 C   0  0  0  0  0  0  0  0  0  0  0  0
   19.5142  -10.5321  -14.5334 O   0  0  0  0  0  0  0  0  0  0  0  0
   20.5684  -10.2949  -16.5929 N   0  0  0  0  0  0  0  0  0  0  0  0
   21.5451   -9.3963  -16.0646 C   0  0  1  0  0  0  0  0  0  0  0  0
   22.8661   -9.6481  -16.7541 C   0  0  0  0  0  0  0  0  0  0  0  0
   23.9888   -8.8556  -16.1213 C   0  0  0  0  0  0  0  0  0  0  0  0
   25.2566   -9.0806  -16.8527 C   0  0  0  0  0  0  0  0  0  0  0  0
   26.0034  -10.0193  -16.4794 O   0  0  0  0  0  0  0  0  0  0  0  0
   21.1380   -7.9770  -16.2245 C   0  0  0  0  0  0  0  0  0  0  0  0
   20.3882   -7.6373  -17.1727 O   0  0  0  0  0  0  0  0  0  0  0  0
   25.6637   -8.3136  -17.9247 O   0  0  0  0  0  0  0  0  0  0  0  0
   21.5725   -6.9840  -15.3329 N   0  0  0  0  0  0  0  0  0  0  0  0
   21.0307   -5.6143  -15.3260 C   0  0  1  0  0  0  0  0  0  0  0  0
   19.5651   -5.6393  -15.3899 C   0  0  0  0  0  0  0  0  0  0  0  0
   18.8729   -4.3458  -15.2195 C   0  0  0  0  0  0  0  0  0  0  0  0
   17.4002   -4.4789  -15.2109 C   0  0  0  0  0  0  0  0  0  0  0  0
   16.8109   -5.5045  -14.7373 O   0  0  0  0  0  0  0  0  0  0  0  0
   21.6647   -4.7830  -14.3436 C   0  0  0  0  0  0  0  0  0  0  0  0
   21.8140   -3.5337  -14.3748 O   0  0  0  0  0  0  0  0  0  0  0  0
   16.5424   -3.4827  -15.7183 O   0  0  0  0  0  0  0  0  0  0  0  0
   22.1921   -5.4235  -13.1946 O   0  0  0  0  0  0  0  0  0  0  0  0
  2 10  1  0
  2  1  1  1
  3  2  1  0
  3  4  1  0
  4  5  2  0
  4  9  1  0
  5  6  1  0
  6  7  2  0
  8  7  1  0
  9  8  2  0
 10 11  2  0
 12 10  1  0
 12 13  1  0
 13 14  1  6
 14 15  1  0
 16 15  1  0
 16 20  1  0
 17 16  2  0
 18 13  1  0
 18 19  2  0
 21 18  1  0
 22 21  1  0
 22 27  1  0
 22 23  1  1
 24 23  1  0
 25 24  1  0
 26 25  2  0
 27 30  1  0
 28 27  2  0
 29 25  1  0
M  END
$$$$
