FEE.pdb
     RDKit          3D

 30 30  0  0  1  0  0  0  0  0999 V2000
   25.4392  -21.6042   -8.4503 N   0  0  0  0  0  0  0  0  0  0  0  0
   25.5730  -20.5280   -9.4095 C   0  0  1  0  0  0  0  0  0  0  0  0
   27.0560  -20.2359   -9.5194 C   0  0  0  0  0  0  0  0  0  0  0  0
   27.6388  -19.7805   -8.2531 C   0  0  0  0  0  0  0  0  0  0  0  0
   27.0933  -18.6723   -7.6394 C   0  0  0  0  0  0  0  0  0  0  0  0
   27.5574  -18.1604   -6.4568 C   0  0  0  0  0  0  0  0  0  0  0  0
   28.6190  -18.7843   -5.8552 C   0  0  0  0  0  0  0  0  0  0  0  0
   29.1916  -19.9044   -6.4489 C   0  0  0  0  0  0  0  0  0  0  0  0
   28.7084  -20.4034   -7.6403 C   0  0  0  0  0  0  0  0  0  0  0  0
   25.1277  -21.0173  -10.7303 C   0  0  0  0  0  0  0  0  0  0  0  0
   25.4698  -22.1650  -11.0863 O   0  0  0  0  0  0  0  0  0  0  0  0
   24.3280  -20.1983  -11.5738 N   0  0  0  0  0  0  0  0  0  0  0  0
   23.8163  -20.7191  -12.8015 C   0  0  1  0  0  0  0  0  0  0  0  0
   22.3368  -20.9835  -12.6426 C   0  0  0  0  0  0  0  0  0  0  0  0
   21.7331  -20.1452  -11.5374 C   0  0  0  0  0  0  0  0  0  0  0  0
   20.2703  -20.3632  -11.4635 C   0  0  0  0  0  0  0  0  0  0  0  0
   19.7334  -21.1104  -12.3189 O   0  0  0  0  0  0  0  0  0  0  0  0
   24.0597  -19.7970  -13.9401 C   0  0  0  0  0  0  0  0  0  0  0  0
   24.5688  -18.6668  -13.7407 O   0  0  0  0  0  0  0  0  0  0  0  0
   19.4623  -19.7891  -10.5039 O   0  0  0  0  0  0  0  0  0  0  0  0
   23.7327  -20.1551  -15.2572 N   0  0  0  0  0  0  0  0  0  0  0  0
   24.2629  -19.4528  -16.4383 C   0  0  1  0  0  0  0  0  0  0  0  0
   25.7284  -19.3980  -16.3908 C   0  0  0  0  0  0  0  0  0  0  0  0
   26.4477  -20.6530  -16.6892 C   0  0  0  0  0  0  0  0  0  0  0  0
   27.6688  -20.8234  -15.8728 C   0  0  0  0  0  0  0  0  0  0  0  0
   28.6025  -19.9566  -15.8531 O   0  0  0  0  0  0  0  0  0  0  0  0
   23.6270  -19.8743  -17.6534 C   0  0  0  0  0  0  0  0  0  0  0  0
   22.7753  -20.7895  -17.7975 O   0  0  0  0  0  0  0  0  0  0  0  0
   27.8869  -21.9496  -15.0544 O   0  0  0  0  0  0  0  0  0  0  0  0
   23.9857  -19.1932  -18.8433 O   0  0  0  0  0  0  0  0  0  0  0  0
  2 10  1  0
  2  1  1  1
  3  2  1  0
  3  4  1  0
  4  5  2  0
  4  9  1  0
  5  6  1  0
  6  7  2  0
  8  7  1  0
  9  8  2  0
 10 11  2  0
 12 10  1  0
 12 13  1  0
 13 14  1  1
 14 15  1  0
 16 15  1  0
 16 20  1  0
 17 16  2  0
 18 13  1  0
 18 19  2  0
 21 18  1  0
 22 21  1  0
 22 27  1  0
 22 23  1  6
 24 23  1  0
 25 24  1  0
 26 25  2  0
 27 30  1  0
 28 27  2  0
 29 25  1  0
M  END
$$$$
