QYG.pdb
     RDKit          3D

 26 26  0  0  1  0  0  0  0  0999 V2000
   23.7275  -19.8790  -16.3375 N   0  0  0  0  0  0  0  0  0  0  0  0
   23.6907  -20.3388  -17.7115 C   0  0  0  0  0  0  0  0  0  0  0  0
   23.1033  -19.6057  -18.5285 O   0  0  0  0  0  0  0  0  0  0  0  0
   24.3327  -21.6176  -18.0768 C   0  0  0  0  0  0  0  0  0  0  0  0
   25.0382  -22.3212  -16.9860 C   0  0  0  0  0  0  0  0  0  0  0  0
   26.2455  -21.6836  -16.4122 C   0  0  2  0  0  0  0  0  0  0  0  0
   27.4859  -21.9215  -17.0667 N   0  0  0  0  0  0  0  0  0  0  0  0
   26.3559  -21.9073  -14.9314 C   0  0  0  0  0  0  0  0  0  0  0  0
   26.5727  -23.0647  -14.4875 O   0  0  0  0  0  0  0  0  0  0  0  0
   27.8227  -20.5581   -6.3445 O   0  0  0  0  0  0  0  0  0  0  0  0
   27.7197  -20.4381   -7.7304 C   0  0  0  0  0  0  0  0  0  0  0  0
   26.6266  -19.7892   -8.2510 C   0  0  0  0  0  0  0  0  0  0  0  0
   26.4785  -19.6437   -9.6312 C   0  0  0  0  0  0  0  0  0  0  0  0
   27.4144  -20.1414  -10.5090 C   0  0  0  0  0  0  0  0  0  0  0  0
   27.2751  -20.0084  -11.9742 C   0  0  0  0  0  0  0  0  0  0  0  0
   26.4455  -21.1115  -12.5836 C   0  0  2  0  0  0  0  0  0  0  0  0
   26.2215  -20.8398  -14.0109 N   0  0  0  0  0  0  0  0  0  0  0  0
   25.1259  -21.2456  -11.9199 C   0  0  0  0  0  0  0  0  0  0  0  0
   25.0102  -21.4970  -10.6961 O   0  0  0  0  0  0  0  0  0  0  0  0
   28.5193  -20.7981   -9.9608 C   0  0  0  0  0  0  0  0  0  0  0  0
   28.6552  -20.9357   -8.5961 C   0  0  0  0  0  0  0  0  0  0  0  0
   23.8989  -21.0907  -12.6624 N   0  0  0  0  0  0  0  0  0  0  0  0
   22.6116  -21.0377  -12.0079 C   0  0  0  0  0  0  0  0  0  0  0  0
   21.5088  -20.7960  -12.9648 C   0  0  0  0  0  0  0  0  0  0  0  0
   21.4814  -19.6615  -13.7568 O   0  0  0  0  0  0  0  0  0  0  0  0
   20.5684  -21.6190  -13.0802 O   0  0  0  0  0  0  0  0  0  0  0  0
  1  2  1  0
  2  3  2  0
  4  2  1  0
  5  4  1  0
  6  5  1  0
  6  8  1  0
  6  7  1  6
  8  9  2  0
 10 11  1  0
 11 12  2  0
 12 13  1  0
 14 13  2  0
 14 15  1  0
 16 15  1  1
 16 18  1  0
 17  8  1  0
 17 16  1  0
 18 22  1  0
 19 18  2  0
 20 14  1  0
 21 11  1  0
 21 20  2  0
 22 23  1  0
 24 25  1  0
 24 23  1  0
 26 24  2  0
M  END
$$$$
