QYG.pdb
     RDKit          3D

 26 26  0  0  1  0  0  0  0  0999 V2000
   27.5511  -17.1587  -14.8557 N   0  0  0  0  0  0  0  0  0  0  0  0
   28.0391  -17.7151  -16.1018 C   0  0  0  0  0  0  0  0  0  0  0  0
   28.9434  -17.0823  -16.6778 O   0  0  0  0  0  0  0  0  0  0  0  0
   27.4639  -18.9721  -16.6216 C   0  0  0  0  0  0  0  0  0  0  0  0
   26.5091  -19.6627  -15.7306 C   0  0  0  0  0  0  0  0  0  0  0  0
   27.0487  -20.6295  -14.7469 C   0  0  2  0  0  0  0  0  0  0  0  0
   27.8089  -21.7212  -15.2505 N   0  0  0  0  0  0  0  0  0  0  0  0
   26.0026  -21.0930  -13.7744 C   0  0  0  0  0  0  0  0  0  0  0  0
   25.4173  -22.1914  -13.9607 O   0  0  0  0  0  0  0  0  0  0  0  0
   30.0324  -21.6264   -8.3526 O   0  0  0  0  0  0  0  0  0  0  0  0
   28.7569  -21.2920   -8.8074 C   0  0  0  0  0  0  0  0  0  0  0  0
   28.3844  -21.6972  -10.0660 C   0  0  0  0  0  0  0  0  0  0  0  0
   27.1187  -21.3872  -10.5658 C   0  0  0  0  0  0  0  0  0  0  0  0
   26.2095  -20.6710   -9.8210 C   0  0  0  0  0  0  0  0  0  0  0  0
   24.8674  -20.3223  -10.3317 C   0  0  0  0  0  0  0  0  0  0  0  0
   24.6230  -20.8374  -11.7287 C   0  0  2  0  0  0  0  0  0  0  0  0
   25.6530  -20.3197  -12.6409 N   0  0  0  0  0  0  0  0  0  0  0  0
   23.2933  -20.4318  -12.2456 C   0  0  0  0  0  0  0  0  0  0  0  0
   23.0997  -19.3311  -12.8160 O   0  0  0  0  0  0  0  0  0  0  0  0
   26.6063  -20.2677   -8.5433 C   0  0  0  0  0  0  0  0  0  0  0  0
   27.8589  -20.5798   -8.0599 C   0  0  0  0  0  0  0  0  0  0  0  0
   22.1466  -21.2970  -12.1136 N   0  0  0  0  0  0  0  0  0  0  0  0
   20.8398  -20.9121  -12.5959 C   0  0  0  0  0  0  0  0  0  0  0  0
   19.8234  -21.9591  -12.3488 C   0  0  0  0  0  0  0  0  0  0  0  0
   20.1826  -23.2143  -11.8901 O   0  0  0  0  0  0  0  0  0  0  0  0
   18.6060  -21.7308  -12.5509 O   0  0  0  0  0  0  0  0  0  0  0  0
  1  2  1  0
  2  3  2  0
  4  2  1  0
  5  4  1  0
  6  5  1  0
  6  8  1  0
  6  7  1  6
  8  9  2  0
 10 11  1  0
 11 12  2  0
 12 13  1  0
 14 13  2  0
 14 15  1  0
 16 15  1  1
 16 18  1  0
 17  8  1  0
 17 16  1  0
 18 22  1  0
 19 18  2  0
 20 14  1  0
 21 11  1  0
 21 20  2  0
 22 23  1  0
 24 25  1  0
 24 23  1  0
 26 24  2  0
M  END
$$$$
