QYG.pdb
     RDKit          3D

 26 26  0  0  1  0  0  0  0  0999 V2000
   28.9249  -20.8983  -20.6989 N   0  0  0  0  0  0  0  0  0  0  0  0
   28.9022  -20.1444  -19.4612 C   0  0  0  0  0  0  0  0  0  0  0  0
   28.8400  -18.9054  -19.5650 O   0  0  0  0  0  0  0  0  0  0  0  0
   28.9502  -20.8537  -18.1667 C   0  0  0  0  0  0  0  0  0  0  0  0
   28.0719  -20.3208  -17.1050 C   0  0  0  0  0  0  0  0  0  0  0  0
   26.7283  -20.9230  -16.9451 C   0  0  2  0  0  0  0  0  0  0  0  0
   25.8597  -20.8951  -18.0712 N   0  0  0  0  0  0  0  0  0  0  0  0
   26.0333  -20.4386  -15.7052 C   0  0  0  0  0  0  0  0  0  0  0  0
   25.7099  -19.2268  -15.6017 O   0  0  0  0  0  0  0  0  0  0  0  0
   20.0859  -19.0438  -17.3182 O   0  0  0  0  0  0  0  0  0  0  0  0
   20.9347  -19.5994  -16.3609 C   0  0  0  0  0  0  0  0  0  0  0  0
   21.6232  -20.7437  -16.6828 C   0  0  0  0  0  0  0  0  0  0  0  0
   22.4845  -21.3374  -15.7588 C   0  0  0  0  0  0  0  0  0  0  0  0
   22.6710  -20.8010  -14.5052 C   0  0  0  0  0  0  0  0  0  0  0  0
   23.5698  -21.4163  -13.5065 C   0  0  0  0  0  0  0  0  0  0  0  0
   24.9475  -20.8010  -13.5046 C   0  0  2  0  0  0  0  0  0  0  0  0
   25.7285  -21.3176  -14.6378 N   0  0  0  0  0  0  0  0  0  0  0  0
   25.6864  -21.0974  -12.2531 C   0  0  0  0  0  0  0  0  0  0  0  0
   26.7581  -21.7497  -12.2423 O   0  0  0  0  0  0  0  0  0  0  0  0
   21.9624  -19.6370  -14.1961 C   0  0  0  0  0  0  0  0  0  0  0  0
   21.1145  -19.0593  -15.1166 C   0  0  0  0  0  0  0  0  0  0  0  0
   25.1987  -20.6425  -10.9740 N   0  0  0  0  0  0  0  0  0  0  0  0
   25.9154  -20.9035   -9.7466 C   0  0  0  0  0  0  0  0  0  0  0  0
   25.0783  -20.6633   -8.5499 C   0  0  0  0  0  0  0  0  0  0  0  0
   25.5767  -20.8598   -7.2740 O   0  0  0  0  0  0  0  0  0  0  0  0
   23.8910  -20.2738   -8.6660 O   0  0  0  0  0  0  0  0  0  0  0  0
  1  2  1  0
  2  3  2  0
  4  2  1  0
  5  4  1  0
  6  5  1  0
  6  8  1  0
  6  7  1  6
  8  9  2  0
 10 11  1  0
 11 12  2  0
 12 13  1  0
 14 13  2  0
 14 15  1  0
 16 15  1  1
 16 18  1  0
 17  8  1  0
 17 16  1  0
 18 22  1  0
 19 18  2  0
 20 14  1  0
 21 11  1  0
 21 20  2  0
 22 23  1  0
 24 25  1  0
 24 23  1  0
 26 24  2  0
M  END
$$$$
