QYG.pdb
     RDKit          3D

 26 26  0  0  1  0  0  0  0  0999 V2000
   22.2019  -19.4778  -17.0803 N   0  0  0  0  0  0  0  0  0  0  0  0
   23.0376  -18.5379  -17.8007 C   0  0  0  0  0  0  0  0  0  0  0  0
   22.5031  -17.4671  -18.1438 O   0  0  0  0  0  0  0  0  0  0  0  0
   24.4461  -18.8760  -18.0884 C   0  0  0  0  0  0  0  0  0  0  0  0
   24.9009  -20.2013  -17.6202 C   0  0  0  0  0  0  0  0  0  0  0  0
   26.0588  -20.2546  -16.6982 C   0  0  2  0  0  0  0  0  0  0  0  0
   27.2428  -20.8869  -17.1693 N   0  0  0  0  0  0  0  0  0  0  0  0
   25.6761  -20.7549  -15.3350 C   0  0  0  0  0  0  0  0  0  0  0  0
   25.7716  -21.9811  -15.0685 O   0  0  0  0  0  0  0  0  0  0  0  0
   30.9139  -21.4611  -11.1868 O   0  0  0  0  0  0  0  0  0  0  0  0
   29.5900  -21.0522  -11.3467 C   0  0  0  0  0  0  0  0  0  0  0  0
   29.3236  -20.0260  -12.2203 C   0  0  0  0  0  0  0  0  0  0  0  0
   28.0150  -19.5811  -12.4146 C   0  0  0  0  0  0  0  0  0  0  0  0
   26.9571  -20.1504  -11.7432 C   0  0  0  0  0  0  0  0  0  0  0  0
   25.5645  -19.6906  -11.9247 C   0  0  0  0  0  0  0  0  0  0  0  0
   24.8427  -20.4354  -13.0206 C   0  0  2  0  0  0  0  0  0  0  0  0
   25.2057  -19.8750  -14.3303 N   0  0  0  0  0  0  0  0  0  0  0  0
   23.3694  -20.3553  -12.8693 C   0  0  0  0  0  0  0  0  0  0  0  0
   22.7097  -19.3488  -13.2243 O   0  0  0  0  0  0  0  0  0  0  0  0
   27.2477  -21.1928  -10.8591 C   0  0  0  0  0  0  0  0  0  0  0  0
   28.5439  -21.6241  -10.6752 C   0  0  0  0  0  0  0  0  0  0  0  0
   22.6183  -21.4468  -12.2989 N   0  0  0  0  0  0  0  0  0  0  0  0
   21.2085  -21.3314  -12.0029 C   0  0  0  0  0  0  0  0  0  0  0  0
   20.3634  -21.7052  -13.1589 C   0  0  0  0  0  0  0  0  0  0  0  0
   18.9823  -21.6721  -13.0790 O   0  0  0  0  0  0  0  0  0  0  0  0
   20.8832  -22.0626  -14.2439 O   0  0  0  0  0  0  0  0  0  0  0  0
  1  2  1  0
  2  3  2  0
  4  2  1  0
  5  4  1  0
  6  5  1  0
  6  8  1  0
  6  7  1  6
  8  9  2  0
 10 11  1  0
 11 12  2  0
 12 13  1  0
 14 13  2  0
 14 15  1  0
 16 15  1  1
 16 18  1  0
 17  8  1  0
 17 16  1  0
 18 22  1  0
 19 18  2  0
 20 14  1  0
 21 11  1  0
 21 20  2  0
 22 23  1  0
 24 25  1  0
 24 23  1  0
 26 24  2  0
M  END
$$$$
