QYG.pdb
     RDKit          3D

 26 26  0  0  1  0  0  0  0  0999 V2000
   24.7716  -14.3525  -19.2124 N   0  0  0  0  0  0  0  0  0  0  0  0
   23.4068  -14.6455  -19.6026 C   0  0  0  0  0  0  0  0  0  0  0  0
   23.2519  -15.5309  -20.4640 O   0  0  0  0  0  0  0  0  0  0  0  0
   22.2891  -13.9068  -18.9811 C   0  0  0  0  0  0  0  0  0  0  0  0
   22.6591  -12.9491  -17.9189 C   0  0  0  0  0  0  0  0  0  0  0  0
   22.1329  -11.5678  -18.0123 C   0  0  2  0  0  0  0  0  0  0  0  0
   22.1891  -10.9300  -19.2826 N   0  0  0  0  0  0  0  0  0  0  0  0
   22.6743  -10.6798  -16.9291 C   0  0  0  0  0  0  0  0  0  0  0  0
   22.6282  -11.0565  -15.7293 O   0  0  0  0  0  0  0  0  0  0  0  0
   28.5328  -12.9752  -16.6312 O   0  0  0  0  0  0  0  0  0  0  0  0
   27.7322  -11.8330  -16.6190 C   0  0  0  0  0  0  0  0  0  0  0  0
   27.4534  -11.2429  -15.4102 C   0  0  0  0  0  0  0  0  0  0  0  0
   26.6572  -10.0984  -15.3461 C   0  0  0  0  0  0  0  0  0  0  0  0
   26.1290   -9.5280  -16.4818 C   0  0  0  0  0  0  0  0  0  0  0  0
   25.2755   -8.3225  -16.4388 C   0  0  0  0  0  0  0  0  0  0  0  0
   23.8339   -8.6394  -16.1258 C   0  0  2  0  0  0  0  0  0  0  0  0
   23.2418   -9.4165  -17.2242 N   0  0  0  0  0  0  0  0  0  0  0  0
   23.0247   -7.4116  -15.9318 C   0  0  0  0  0  0  0  0  0  0  0  0
   23.2973   -6.5571  -15.0544 O   0  0  0  0  0  0  0  0  0  0  0  0
   26.4236  -10.1423  -17.7019 C   0  0  0  0  0  0  0  0  0  0  0  0
   27.2113  -11.2722  -17.7532 C   0  0  0  0  0  0  0  0  0  0  0  0
   21.8715   -7.1411  -16.7551 N   0  0  0  0  0  0  0  0  0  0  0  0
   21.0762   -5.9463  -16.5868 C   0  0  0  0  0  0  0  0  0  0  0  0
   19.9659   -5.8732  -17.5626 C   0  0  0  0  0  0  0  0  0  0  0  0
   19.7906   -6.8519  -18.5252 O   0  0  0  0  0  0  0  0  0  0  0  0
   19.1538   -4.9167  -17.5390 O   0  0  0  0  0  0  0  0  0  0  0  0
  1  2  1  0
  2  3  2  0
  4  2  1  0
  5  4  1  0
  6  5  1  0
  6  8  1  0
  6  7  1  6
  8  9  2  0
 10 11  1  0
 11 12  2  0
 12 13  1  0
 14 13  2  0
 14 15  1  0
 16 15  1  6
 16 18  1  0
 17  8  1  0
 17 16  1  0
 18 22  1  0
 19 18  2  0
 20 14  1  0
 21 11  1  0
 21 20  2  0
 22 23  1  0
 24 25  1  0
 24 23  1  0
 26 24  2  0
M  END
$$$$
