QYG.pdb
     RDKit          3D

 26 26  0  0  1  0  0  0  0  0999 V2000
   22.5564  -19.0003  -13.1547 N   0  0  0  0  0  0  0  0  0  0  0  0
   22.5818  -19.9091  -14.2835 C   0  0  0  0  0  0  0  0  0  0  0  0
   22.0725  -19.4966  -15.3420 O   0  0  0  0  0  0  0  0  0  0  0  0
   23.1932  -21.2456  -14.1386 C   0  0  0  0  0  0  0  0  0  0  0  0
   23.8598  -21.5145  -12.8479 C   0  0  0  0  0  0  0  0  0  0  0  0
   25.2043  -20.9349  -12.6243 C   0  0  2  0  0  0  0  0  0  0  0  0
   26.2190  -21.2499  -13.5702 N   0  0  0  0  0  0  0  0  0  0  0  0
   25.6845  -21.1420  -11.2166 C   0  0  0  0  0  0  0  0  0  0  0  0
   25.9785  -22.2993  -10.8192 O   0  0  0  0  0  0  0  0  0  0  0  0
   29.3504  -20.1626   -3.3058 O   0  0  0  0  0  0  0  0  0  0  0  0
   28.7843  -19.9111   -4.5555 C   0  0  0  0  0  0  0  0  0  0  0  0
   29.3823  -20.4556   -5.6659 C   0  0  0  0  0  0  0  0  0  0  0  0
   28.8534  -20.2326   -6.9381 C   0  0  0  0  0  0  0  0  0  0  0  0
   27.7251  -19.4662   -7.1212 C   0  0  0  0  0  0  0  0  0  0  0  0
   27.1518  -19.2079   -8.4585 C   0  0  0  0  0  0  0  0  0  0  0  0
   26.2784  -20.3372   -8.9466 C   0  0  2  0  0  0  0  0  0  0  0  0
   25.8172  -20.0587  -10.3144 N   0  0  0  0  0  0  0  0  0  0  0  0
   25.0889  -20.5329   -8.0824 C   0  0  0  0  0  0  0  0  0  0  0  0
   23.9804  -20.0007   -8.3319 O   0  0  0  0  0  0  0  0  0  0  0  0
   27.1307  -18.9209   -5.9801 C   0  0  0  0  0  0  0  0  0  0  0  0
   27.6617  -19.1480   -4.7285 C   0  0  0  0  0  0  0  0  0  0  0  0
   25.1544  -21.3555   -6.8992 N   0  0  0  0  0  0  0  0  0  0  0  0
   24.2019  -22.4135   -6.6509 C   0  0  0  0  0  0  0  0  0  0  0  0
   22.8886  -21.8903   -6.2131 C   0  0  0  0  0  0  0  0  0  0  0  0
   22.6084  -21.6839   -4.8737 O   0  0  0  0  0  0  0  0  0  0  0  0
   21.9943  -21.6206   -7.0513 O   0  0  0  0  0  0  0  0  0  0  0  0
  1  2  1  0
  2  3  2  0
  4  2  1  0
  5  4  1  0
  6  5  1  0
  6  8  1  0
  6  7  1  6
  8  9  2  0
 10 11  1  0
 11 12  2  0
 12 13  1  0
 14 13  2  0
 14 15  1  0
 16 15  1  1
 16 18  1  0
 17  8  1  0
 17 16  1  0
 18 22  1  0
 19 18  2  0
 20 14  1  0
 21 11  1  0
 21 20  2  0
 22 23  1  0
 24 25  1  0
 24 23  1  0
 26 24  2  0
M  END
$$$$
