QYG.pdb
     RDKit          3D

 26 26  0  0  1  0  0  0  0  0999 V2000
   21.7342   -8.8359  -19.6985 N   0  0  0  0  0  0  0  0  0  0  0  0
   21.3162   -9.9893  -20.4704 C   0  0  0  0  0  0  0  0  0  0  0  0
   21.9054  -10.1797  -21.5505 O   0  0  0  0  0  0  0  0  0  0  0  0
   20.2431  -10.8664  -19.9604 C   0  0  0  0  0  0  0  0  0  0  0  0
   19.6652  -10.4878  -18.6545 C   0  0  0  0  0  0  0  0  0  0  0  0
   20.4088  -10.8612  -17.4292 C   0  0  2  0  0  0  0  0  0  0  0  0
   20.5077  -12.2461  -17.1195 N   0  0  0  0  0  0  0  0  0  0  0  0
   19.9719  -10.0627  -16.2349 C   0  0  0  0  0  0  0  0  0  0  0  0
   18.9911  -10.4495  -15.5478 O   0  0  0  0  0  0  0  0  0  0  0  0
   24.3394   -3.4227  -15.8686 O   0  0  0  0  0  0  0  0  0  0  0  0
   23.5730   -4.4605  -15.3382 C   0  0  0  0  0  0  0  0  0  0  0  0
   23.8340   -5.7439  -15.7525 C   0  0  0  0  0  0  0  0  0  0  0  0
   23.0944   -6.8159  -15.2506 C   0  0  0  0  0  0  0  0  0  0  0  0
   22.0874   -6.6246  -14.3322 C   0  0  0  0  0  0  0  0  0  0  0  0
   21.2843   -7.7420  -13.7936 C   0  0  0  0  0  0  0  0  0  0  0  0
   20.1373   -8.1239  -14.6964 C   0  0  2  0  0  0  0  0  0  0  0  0
   20.6409   -8.8735  -15.8564 N   0  0  0  0  0  0  0  0  0  0  0  0
   19.4003   -6.9356  -15.1910 C   0  0  0  0  0  0  0  0  0  0  0  0
   19.7461   -6.3098  -16.2221 O   0  0  0  0  0  0  0  0  0  0  0  0
   21.8367   -5.3123  -13.9226 C   0  0  0  0  0  0  0  0  0  0  0  0
   22.5737   -4.2613  -14.4249 C   0  0  0  0  0  0  0  0  0  0  0  0
   18.2362   -6.4390  -14.4987 N   0  0  0  0  0  0  0  0  0  0  0  0
   17.5321   -5.2565  -14.9395 C   0  0  0  0  0  0  0  0  0  0  0  0
   16.3919   -4.9246  -14.0563 C   0  0  0  0  0  0  0  0  0  0  0  0
   15.7996   -3.6743  -14.0879 O   0  0  0  0  0  0  0  0  0  0  0  0
   15.9338   -5.7743  -13.2542 O   0  0  0  0  0  0  0  0  0  0  0  0
  1  2  1  0
  2  3  2  0
  4  2  1  0
  5  4  1  0
  6  5  1  0
  6  8  1  0
  6  7  1  1
  8  9  2  0
 10 11  1  0
 11 12  2  0
 12 13  1  0
 14 13  2  0
 14 15  1  0
 16 15  1  1
 16 18  1  0
 17  8  1  0
 17 16  1  0
 18 22  1  0
 19 18  2  0
 20 14  1  0
 21 11  1  0
 21 20  2  0
 22 23  1  0
 24 25  1  0
 24 23  1  0
 26 24  2  0
M  END
$$$$
