QYG.pdb
     RDKit          3D

 26 26  0  0  1  0  0  0  0  0999 V2000
   24.7549  -26.9309  -17.2528 N   0  0  0  0  0  0  0  0  0  0  0  0
   24.8573  -25.9387  -18.3044 C   0  0  0  0  0  0  0  0  0  0  0  0
   24.9874  -26.3692  -19.4653 O   0  0  0  0  0  0  0  0  0  0  0  0
   24.8029  -24.5017  -17.9680 C   0  0  0  0  0  0  0  0  0  0  0  0
   24.6757  -24.1787  -16.5321 C   0  0  0  0  0  0  0  0  0  0  0  0
   25.6841  -23.2770  -15.9290 C   0  0  2  0  0  0  0  0  0  0  0  0
   27.0476  -23.6750  -16.0051 N   0  0  0  0  0  0  0  0  0  0  0  0
   25.3119  -22.8612  -14.5349 C   0  0  0  0  0  0  0  0  0  0  0  0
   24.4974  -23.5540  -13.8713 O   0  0  0  0  0  0  0  0  0  0  0  0
   25.5854  -19.8618   -6.3285 O   0  0  0  0  0  0  0  0  0  0  0  0
   25.8330  -20.1074   -7.6790 C   0  0  0  0  0  0  0  0  0  0  0  0
   26.4570  -19.1314   -8.4174 C   0  0  0  0  0  0  0  0  0  0  0  0
   26.7264  -19.3299   -9.7724 C   0  0  0  0  0  0  0  0  0  0  0  0
   26.3787  -20.4998  -10.4086 C   0  0  0  0  0  0  0  0  0  0  0  0
   26.6446  -20.7296  -11.8439 C   0  0  0  0  0  0  0  0  0  0  0  0
   25.4814  -21.3744  -12.5565 C   0  0  2  0  0  0  0  0  0  0  0  0
   25.8586  -21.6984  -13.9399 N   0  0  0  0  0  0  0  0  0  0  0  0
   24.2915  -20.4895  -12.5908 C   0  0  0  0  0  0  0  0  0  0  0  0
   24.3716  -19.2628  -12.8422 O   0  0  0  0  0  0  0  0  0  0  0  0
   25.7451  -21.4808   -9.6412 C   0  0  0  0  0  0  0  0  0  0  0  0
   25.4841  -21.2738   -8.3036 C   0  0  0  0  0  0  0  0  0  0  0  0
   22.9700  -21.0071  -12.3329 N   0  0  0  0  0  0  0  0  0  0  0  0
   21.8206  -20.1398  -12.2099 C   0  0  0  0  0  0  0  0  0  0  0  0
   20.5663  -20.9004  -12.0138 C   0  0  0  0  0  0  0  0  0  0  0  0
   19.3625  -20.2549  -11.7920 O   0  0  0  0  0  0  0  0  0  0  0  0
   20.5661  -22.1551  -12.0443 O   0  0  0  0  0  0  0  0  0  0  0  0
  1  2  1  0
  2  3  2  0
  4  2  1  0
  5  4  1  0
  6  5  1  0
  6  8  1  0
  6  7  1  1
  8  9  2  0
 10 11  1  0
 11 12  2  0
 12 13  1  0
 14 13  2  0
 14 15  1  0
 16 15  1  6
 16 18  1  0
 17  8  1  0
 17 16  1  0
 18 22  1  0
 19 18  2  0
 20 14  1  0
 21 11  1  0
 21 20  2  0
 22 23  1  0
 24 25  1  0
 24 23  1  0
 26 24  2  0
M  END
$$$$
