QYG.pdb
     RDKit          3D

 26 26  0  0  1  0  0  0  0  0999 V2000
   17.0410   -9.0133  -15.6059 N   0  0  0  0  0  0  0  0  0  0  0  0
   17.6860  -10.1943  -16.1442 C   0  0  0  0  0  0  0  0  0  0  0  0
   17.0167  -10.8816  -16.9376 O   0  0  0  0  0  0  0  0  0  0  0  0
   19.0689  -10.5242  -15.7444 C   0  0  0  0  0  0  0  0  0  0  0  0
   19.6800   -9.6334  -14.7366 C   0  0  0  0  0  0  0  0  0  0  0  0
   20.9173   -8.9083  -15.1067 C   0  0  2  0  0  0  0  0  0  0  0  0
   22.0893   -9.6833  -15.3286 N   0  0  0  0  0  0  0  0  0  0  0  0
   21.1917   -7.7502  -14.1910 C   0  0  0  0  0  0  0  0  0  0  0  0
   22.0865   -7.8460  -13.3113 O   0  0  0  0  0  0  0  0  0  0  0  0
   25.1737   -5.3445  -18.1278 O   0  0  0  0  0  0  0  0  0  0  0  0
   24.2257   -5.0592  -17.1451 C   0  0  0  0  0  0  0  0  0  0  0  0
   22.9034   -5.3105  -17.4196 C   0  0  0  0  0  0  0  0  0  0  0  0
   21.9177   -5.0419  -16.4688 C   0  0  0  0  0  0  0  0  0  0  0  0
   22.2347   -4.5205  -15.2352 C   0  0  0  0  0  0  0  0  0  0  0  0
   21.2084   -4.2187  -14.2157 C   0  0  0  0  0  0  0  0  0  0  0  0
   20.8235   -5.4282  -13.3999 C   0  0  2  0  0  0  0  0  0  0  0  0
   20.4634   -6.5400  -14.2916 N   0  0  0  0  0  0  0  0  0  0  0  0
   19.6716   -5.1523  -12.5071 C   0  0  0  0  0  0  0  0  0  0  0  0
   18.5763   -4.7161  -12.9364 O   0  0  0  0  0  0  0  0  0  0  0  0
   23.5848   -4.2717  -14.9742 C   0  0  0  0  0  0  0  0  0  0  0  0
   24.5498   -4.5411  -15.9209 C   0  0  0  0  0  0  0  0  0  0  0  0
   19.7605   -5.3762  -11.0849 N   0  0  0  0  0  0  0  0  0  0  0  0
   18.6326   -5.1648  -10.2065 C   0  0  0  0  0  0  0  0  0  0  0  0
   18.0919   -6.4366   -9.6770 C   0  0  0  0  0  0  0  0  0  0  0  0
   17.1149   -6.4486   -8.6970 O   0  0  0  0  0  0  0  0  0  0  0  0
   18.5095   -7.5391  -10.1073 O   0  0  0  0  0  0  0  0  0  0  0  0
  1  2  1  0
  2  3  2  0
  4  2  1  0
  5  4  1  0
  6  5  1  0
  6  8  1  0
  6  7  1  1
  8  9  2  0
 10 11  1  0
 11 12  2  0
 12 13  1  0
 14 13  2  0
 14 15  1  0
 16 15  1  6
 16 18  1  0
 17  8  1  0
 17 16  1  0
 18 22  1  0
 19 18  2  0
 20 14  1  0
 21 11  1  0
 21 20  2  0
 22 23  1  0
 24 25  1  0
 24 23  1  0
 26 24  2  0
M  END
$$$$
