QYG.pdb
     RDKit          3D

 26 26  0  0  1  0  0  0  0  0999 V2000
   27.6834  -19.5741  -20.1485 N   0  0  0  0  0  0  0  0  0  0  0  0
   26.2819  -19.8909  -19.9582 C   0  0  0  0  0  0  0  0  0  0  0  0
   25.5468  -18.9599  -19.5804 O   0  0  0  0  0  0  0  0  0  0  0  0
   25.7963  -21.2620  -20.2137 C   0  0  0  0  0  0  0  0  0  0  0  0
   25.3719  -22.0292  -19.0247 C   0  0  0  0  0  0  0  0  0  0  0  0
   26.3841  -22.3139  -17.9817 C   0  0  2  0  0  0  0  0  0  0  0  0
   27.2947  -23.3791  -18.2260 N   0  0  0  0  0  0  0  0  0  0  0  0
   25.7750  -22.4172  -16.6130 C   0  0  0  0  0  0  0  0  0  0  0  0
   25.4063  -23.5377  -16.1746 O   0  0  0  0  0  0  0  0  0  0  0  0
   23.6078  -21.0196   -8.2060 O   0  0  0  0  0  0  0  0  0  0  0  0
   24.0583  -20.8580   -9.5162 C   0  0  0  0  0  0  0  0  0  0  0  0
   25.2781  -21.3891   -9.8584 C   0  0  0  0  0  0  0  0  0  0  0  0
   25.7720  -21.2537  -11.1568 C   0  0  0  0  0  0  0  0  0  0  0  0
   25.0598  -20.5890  -12.1290 C   0  0  0  0  0  0  0  0  0  0  0  0
   25.5657  -20.4242  -13.5076 C   0  0  0  0  0  0  0  0  0  0  0  0
   25.0074  -21.4524  -14.4604 C   0  0  2  0  0  0  0  0  0  0  0  0
   25.6024  -21.2757  -15.7931 N   0  0  0  0  0  0  0  0  0  0  0  0
   23.5334  -21.3486  -14.5884 C   0  0  0  0  0  0  0  0  0  0  0  0
   22.9797  -20.4950  -15.3226 O   0  0  0  0  0  0  0  0  0  0  0  0
   23.8213  -20.0559  -11.7621 C   0  0  0  0  0  0  0  0  0  0  0  0
   23.3434  -20.1959  -10.4768 C   0  0  0  0  0  0  0  0  0  0  0  0
   22.6579  -22.2371  -13.8639 N   0  0  0  0  0  0  0  0  0  0  0  0
   21.2257  -22.2225  -14.0560 C   0  0  0  0  0  0  0  0  0  0  0  0
   20.5560  -21.2321  -13.1837 C   0  0  0  0  0  0  0  0  0  0  0  0
   19.1803  -21.2210  -13.0345 O   0  0  0  0  0  0  0  0  0  0  0  0
   21.2244  -20.3750  -12.5562 O   0  0  0  0  0  0  0  0  0  0  0  0
  1  2  1  0
  2  3  2  0
  4  2  1  0
  5  4  1  0
  6  5  1  0
  6  8  1  0
  6  7  1  6
  8  9  2  0
 10 11  1  0
 11 12  2  0
 12 13  1  0
 14 13  2  0
 14 15  1  0
 16 15  1  1
 16 18  1  0
 17  8  1  0
 17 16  1  0
 18 22  1  0
 19 18  2  0
 20 14  1  0
 21 11  1  0
 21 20  2  0
 22 23  1  0
 24 25  1  0
 24 23  1  0
 26 24  2  0
M  END
$$$$
