QYG.pdb
     RDKit          3D

 26 26  0  0  1  0  0  0  0  0999 V2000
   23.8250  -24.8193  -18.9678 N   0  0  0  0  0  0  0  0  0  0  0  0
   24.6518  -23.8564  -19.6680 C   0  0  0  0  0  0  0  0  0  0  0  0
   24.8595  -24.0749  -20.8759 O   0  0  0  0  0  0  0  0  0  0  0  0
   25.1963  -22.6900  -18.9440 C   0  0  0  0  0  0  0  0  0  0  0  0
   24.8130  -22.5757  -17.5219 C   0  0  0  0  0  0  0  0  0  0  0  0
   25.7574  -23.0883  -16.5026 C   0  0  2  0  0  0  0  0  0  0  0  0
   26.1583  -24.4492  -16.6065 N   0  0  0  0  0  0  0  0  0  0  0  0
   25.3226  -22.7506  -15.1055 C   0  0  0  0  0  0  0  0  0  0  0  0
   24.3212  -23.3255  -14.6052 O   0  0  0  0  0  0  0  0  0  0  0  0
   25.3240  -20.3627   -6.6575 O   0  0  0  0  0  0  0  0  0  0  0  0
   25.6214  -20.5068   -8.0127 C   0  0  0  0  0  0  0  0  0  0  0  0
   26.7160  -19.8465   -8.5158 C   0  0  0  0  0  0  0  0  0  0  0  0
   27.0545  -19.9593   -9.8651 C   0  0  0  0  0  0  0  0  0  0  0  0
   26.3094  -20.7288  -10.7292 C   0  0  0  0  0  0  0  0  0  0  0  0
   26.6420  -20.8561  -12.1634 C   0  0  0  0  0  0  0  0  0  0  0  0
   25.5509  -21.5314  -12.9573 C   0  0  2  0  0  0  0  0  0  0  0  0
   26.0165  -21.7927  -14.3270 N   0  0  0  0  0  0  0  0  0  0  0  0
   24.3230  -20.7026  -13.0304 C   0  0  0  0  0  0  0  0  0  0  0  0
   24.2537  -19.6618  -13.7276 O   0  0  0  0  0  0  0  0  0  0  0  0
   25.2000  -21.3929  -10.1993 C   0  0  0  0  0  0  0  0  0  0  0  0
   24.8752  -21.2743   -8.8650 C   0  0  0  0  0  0  0  0  0  0  0  0
   23.1367  -21.0613  -12.2923 N   0  0  0  0  0  0  0  0  0  0  0  0
   21.9679  -20.2118  -12.2655 C   0  0  0  0  0  0  0  0  0  0  0  0
   20.9499  -20.6322  -13.2540 C   0  0  0  0  0  0  0  0  0  0  0  0
   19.7268  -21.1404  -12.8530 O   0  0  0  0  0  0  0  0  0  0  0  0
   21.1742  -20.5369  -14.4851 O   0  0  0  0  0  0  0  0  0  0  0  0
  1  2  1  0
  2  3  2  0
  4  2  1  0
  5  4  1  0
  6  5  1  0
  6  8  1  0
  6  7  1  1
  8  9  2  0
 10 11  1  0
 11 12  2  0
 12 13  1  0
 14 13  2  0
 14 15  1  0
 16 15  1  1
 16 18  1  0
 17  8  1  0
 17 16  1  0
 18 22  1  0
 19 18  2  0
 20 14  1  0
 21 11  1  0
 21 20  2  0
 22 23  1  0
 24 25  1  0
 24 23  1  0
 26 24  2  0
M  END
$$$$
