QYG.pdb
     RDKit          3D

 26 26  0  0  1  0  0  0  0  0999 V2000
   19.3848  -13.7027  -15.8045 N   0  0  0  0  0  0  0  0  0  0  0  0
   18.7648  -13.8742  -17.1033 C   0  0  0  0  0  0  0  0  0  0  0  0
   18.9757  -14.9559  -17.6825 O   0  0  0  0  0  0  0  0  0  0  0  0
   17.9322  -12.7938  -17.6696 C   0  0  0  0  0  0  0  0  0  0  0  0
   17.8178  -11.5696  -16.8507 C   0  0  0  0  0  0  0  0  0  0  0  0
   18.5754  -10.3714  -17.2797 C   0  0  2  0  0  0  0  0  0  0  0  0
   19.8470  -10.5813  -17.8817 N   0  0  0  0  0  0  0  0  0  0  0  0
   18.6452   -9.3282  -16.2018 C   0  0  0  0  0  0  0  0  0  0  0  0
   17.6006   -8.9950  -15.5843 O   0  0  0  0  0  0  0  0  0  0  0  0
   19.8589   -5.1562   -8.8972 O   0  0  0  0  0  0  0  0  0  0  0  0
   20.0470   -5.9167  -10.0512 C   0  0  0  0  0  0  0  0  0  0  0  0
   21.0665   -5.5698  -10.9040 C   0  0  0  0  0  0  0  0  0  0  0  0
   21.2947   -6.2999  -12.0714 C   0  0  0  0  0  0  0  0  0  0  0  0
   20.5126   -7.3823  -12.4044 C   0  0  0  0  0  0  0  0  0  0  0  0
   20.7284   -8.1650  -13.6392 C   0  0  0  0  0  0  0  0  0  0  0  0
   19.8640   -7.6978  -14.7842 C   0  0  2  0  0  0  0  0  0  0  0  0
   19.8679   -8.7026  -15.8573 N   0  0  0  0  0  0  0  0  0  0  0  0
   20.3368   -6.4096  -15.3475 C   0  0  0  0  0  0  0  0  0  0  0  0
   21.3928   -6.3153  -16.0185 O   0  0  0  0  0  0  0  0  0  0  0  0
   19.4807   -7.7201  -11.5247 C   0  0  0  0  0  0  0  0  0  0  0  0
   19.2647   -6.9918  -10.3746 C   0  0  0  0  0  0  0  0  0  0  0  0
   19.5931   -5.1902  -15.1459 N   0  0  0  0  0  0  0  0  0  0  0  0
   20.0588   -3.9191  -15.6517 C   0  0  0  0  0  0  0  0  0  0  0  0
   19.1046   -2.8234  -15.3703 C   0  0  0  0  0  0  0  0  0  0  0  0
   19.1937   -2.0741  -14.2102 O   0  0  0  0  0  0  0  0  0  0  0  0
   18.1879   -2.5474  -16.1819 O   0  0  0  0  0  0  0  0  0  0  0  0
  1  2  1  0
  2  3  2  0
  4  2  1  0
  5  4  1  0
  6  5  1  0
  6  8  1  0
  6  7  1  1
  8  9  2  0
 10 11  1  0
 11 12  2  0
 12 13  1  0
 14 13  2  0
 14 15  1  0
 16 15  1  1
 16 18  1  0
 17  8  1  0
 17 16  1  0
 18 22  1  0
 19 18  2  0
 20 14  1  0
 21 11  1  0
 21 20  2  0
 22 23  1  0
 24 25  1  0
 24 23  1  0
 26 24  2  0
M  END
$$$$
