RTI.pdb
     RDKit          3D

 27 26  0  0  1  0  0  0  0  0999 V2000
    8.9607  -14.1419   14.6477 N   0  0  0  0  0  0  0  0  0  0  0  0
    7.6947  -14.7197   14.9513 C   0  0  0  0  0  0  0  0  0  0  0  0
    7.3307  -15.7273   14.2398 N   0  0  0  0  0  0  0  0  0  0  0  0
    6.8625  -14.2157   15.9918 N   0  0  0  0  0  0  0  0  0  0  0  0
    7.2917  -13.1640   16.8547 C   0  0  0  0  0  0  0  0  0  0  0  0
    8.5253  -13.5024   17.6750 C   0  0  0  0  0  0  0  0  0  0  0  0
    8.1057  -13.9905   19.0396 C   0  0  0  0  0  0  0  0  0  0  0  0
    9.2477  -14.2232   19.9724 C   0  0  2  0  0  0  0  0  0  0  0  0
   10.2170  -15.1379   19.4516 N   0  0  0  0  0  0  0  0  0  0  0  0
    8.7180  -14.6627   21.2982 C   0  0  0  0  0  0  0  0  0  0  0  0
    7.8120  -13.9893   21.8830 O   0  0  0  0  0  0  0  0  0  0  0  0
    6.4650  -16.2435   14.4982 C   0  0  0  0  0  0  0  0  0  0  0  0
    7.9859  -18.5374   22.3627 C   0  0  2  0  0  0  0  0  0  0  0  0
    8.7778  -17.7827   23.4152 O   0  0  0  0  0  0  0  0  0  0  0  0
   10.0878  -18.2003   23.4447 C   0  0  2  0  0  0  0  0  0  0  0  0
    8.6323  -16.2917   23.1977 N   0  0  0  0  0  0  0  0  0  0  0  0
    9.1827  -15.8276   21.9654 C   0  0  0  0  0  0  0  0  0  0  0  0
    9.2095  -15.6183   24.3897 O   0  0  0  0  0  0  0  0  0  0  0  0
   10.3904  -15.1988   24.3232 C   0  0  0  0  0  0  0  0  0  0  0  0
    6.5561  -11.7590   26.2456 C   0  0  0  0  0  0  0  0  0  0  0  0
    7.7796  -12.5922   26.0637 C   0  0  2  0  0  0  0  0  0  0  0  0
    8.1283  -13.5880   27.0895 C   0  0  0  0  0  0  0  0  0  0  0  0
    8.6387  -12.7460   28.2991 C   0  0  2  0  0  0  0  0  0  0  0  0
    9.1017  -14.6329   26.7398 N   0  0  0  0  0  0  0  0  0  0  0  0
    8.5099  -15.4218   25.5903 C   0  0  0  0  0  0  0  0  0  0  0  0
    9.3881  -15.6521   27.7251 O   0  0  0  0  0  0  0  0  0  0  0  0
    8.6328  -16.6856   27.7982 O   0  0  0  0  0  0  0  0  0  0  0  0
  2  1  1  0
  2  3  2  0
  4  2  1  0
  5  4  1  0
  5  6  1  0
  7  6  1  0
  7  8  1  0
  8  9  1  6
 10  8  1  0
 10 11  2  0
 13 12  1  1
 13 14  1  0
 13 15  1  0
 15 16  1  1
 16 10  1  0
 17 15  1  0
 18 17  2  0
 19 20  1  0
 20 21  1  0
 21 23  1  0
 21 22  1  1
 23 24  1  6
 23 25  1  0
 24 17  1  0
 25 27  1  0
 26 25  2  0
M  END
$$$$
