RTI.pdb
     RDKit          3D

 27 26  0  0  1  0  0  0  0  0999 V2000
   15.5268  -14.2519   16.6487 N   0  0  0  0  0  0  0  0  0  0  0  0
   15.8609  -13.8822   17.9830 C   0  0  0  0  0  0  0  0  0  0  0  0
   16.8746  -13.1051   18.1336 N   0  0  0  0  0  0  0  0  0  0  0  0
   15.1152  -14.3433   19.1056 N   0  0  0  0  0  0  0  0  0  0  0  0
   14.0088  -15.2317   18.9595 C   0  0  0  0  0  0  0  0  0  0  0  0
   12.7941  -14.6022   18.2980 C   0  0  0  0  0  0  0  0  0  0  0  0
   11.6813  -14.4698   19.3082 C   0  0  0  0  0  0  0  0  0  0  0  0
   10.5095  -15.3523   19.0313 C   0  0  2  0  0  0  0  0  0  0  0  0
   10.0103  -15.2158   17.6972 N   0  0  0  0  0  0  0  0  0  0  0  0
    9.4508  -15.0995   20.0543 C   0  0  0  0  0  0  0  0  0  0  0  0
    8.6257  -14.1444   19.9020 O   0  0  0  0  0  0  0  0  0  0  0  0
   17.2975  -13.0015   19.0786 C   0  0  0  0  0  0  0  0  0  0  0  0
    6.6387  -17.1904   21.0474 C   0  0  2  0  0  0  0  0  0  0  0  0
    7.3527  -16.8888   22.3527 O   0  0  0  0  0  0  0  0  0  0  0  0
    8.0073  -18.0007   22.8286 C   0  0  2  0  0  0  0  0  0  0  0  0
    8.2621  -15.6915   22.1770 N   0  0  0  0  0  0  0  0  0  0  0  0
    9.3074  -15.8900   21.2259 C   0  0  0  0  0  0  0  0  0  0  0  0
    8.7587  -15.3187   23.5267 O   0  0  0  0  0  0  0  0  0  0  0  0
    9.9926  -15.3832   23.7461 C   0  0  0  0  0  0  0  0  0  0  0  0
    6.0179  -11.4996   26.2370 C   0  0  0  0  0  0  0  0  0  0  0  0
    7.1699  -12.3281   25.7781 C   0  0  2  0  0  0  0  0  0  0  0  0
    7.5132  -13.5523   26.5192 C   0  0  0  0  0  0  0  0  0  0  0  0
    8.0207  -13.0458   27.9042 C   0  0  2  0  0  0  0  0  0  0  0  0
    8.4860  -14.4771   25.9191 N   0  0  0  0  0  0  0  0  0  0  0  0
    7.9269  -14.8963   24.5752 C   0  0  0  0  0  0  0  0  0  0  0  0
    8.7239  -15.7390   26.5843 O   0  0  0  0  0  0  0  0  0  0  0  0
    7.9128  -16.7133   26.3928 O   0  0  0  0  0  0  0  0  0  0  0  0
  2  1  1  0
  2  3  2  0
  4  2  1  0
  5  4  1  0
  5  6  1  0
  7  6  1  0
  7  8  1  0
  8  9  1  6
 10  8  1  0
 10 11  2  0
 13 12  1  1
 13 14  1  0
 13 15  1  0
 15 16  1  1
 16 10  1  0
 17 15  1  0
 18 17  2  0
 19 20  1  0
 20 21  1  0
 21 23  1  0
 21 22  1  6
 23 24  1  6
 23 25  1  0
 24 17  1  0
 25 27  1  0
 26 25  2  0
M  END
$$$$
