RTI.pdb
     RDKit          3D

 27 26  0  0  1  0  0  0  0  0999 V2000
   10.4573  -19.1403   15.2245 N   0  0  0  0  0  0  0  0  0  0  0  0
    9.1300  -19.6106   15.0108 C   0  0  0  0  0  0  0  0  0  0  0  0
    8.5869  -19.3229   13.8809 N   0  0  0  0  0  0  0  0  0  0  0  0
    8.4270  -20.3658   15.9929 N   0  0  0  0  0  0  0  0  0  0  0  0
    8.0667  -19.8069   17.2549 C   0  0  0  0  0  0  0  0  0  0  0  0
    8.0589  -18.2874   17.2782 C   0  0  0  0  0  0  0  0  0  0  0  0
    7.4864  -17.8057   18.5884 C   0  0  0  0  0  0  0  0  0  0  0  0
    8.5215  -17.4843   19.6149 C   0  0  2  0  0  0  0  0  0  0  0  0
    9.3825  -18.5897   19.9054 N   0  0  0  0  0  0  0  0  0  0  0  0
    7.8508  -16.9588   20.8419 C   0  0  0  0  0  0  0  0  0  0  0  0
    6.9643  -16.0521   20.7508 O   0  0  0  0  0  0  0  0  0  0  0  0
    7.5941  -19.5859   13.7145 C   0  0  0  0  0  0  0  0  0  0  0  0
    5.9814  -18.9589   23.4702 C   0  0  2  0  0  0  0  0  0  0  0  0
    6.9865  -18.0985   24.2144 O   0  0  0  0  0  0  0  0  0  0  0  0
    8.0086  -18.8617   24.7285 C   0  0  2  0  0  0  0  0  0  0  0  0
    7.4711  -16.9802   23.3167 N   0  0  0  0  0  0  0  0  0  0  0  0
    8.1556  -17.4287   22.1474 C   0  0  0  0  0  0  0  0  0  0  0  0
    8.2842  -16.0655   24.1590 O   0  0  0  0  0  0  0  0  0  0  0  0
    9.4898  -15.8916   23.8570 C   0  0  0  0  0  0  0  0  0  0  0  0
    6.0249  -11.5777   26.1669 C   0  0  0  0  0  0  0  0  0  0  0  0
    7.1076  -12.4805   25.6799 C   0  0  2  0  0  0  0  0  0  0  0  0
    7.7565  -13.3992   26.6289 C   0  0  0  0  0  0  0  0  0  0  0  0
    8.5330  -12.4686   27.6104 C   0  0  2  0  0  0  0  0  0  0  0  0
    8.6454  -14.4391   26.0905 N   0  0  0  0  0  0  0  0  0  0  0  0
    7.7823  -15.3808   25.2766 C   0  0  0  0  0  0  0  0  0  0  0  0
    9.3030  -15.3229   27.0275 O   0  0  0  0  0  0  0  0  0  0  0  0
   10.4563  -15.0047   27.4884 O   0  0  0  0  0  0  0  0  0  0  0  0
  2  1  1  0
  2  3  2  0
  4  2  1  0
  5  4  1  0
  5  6  1  0
  7  6  1  0
  7  8  1  0
  8  9  1  1
 10  8  1  0
 10 11  2  0
 13 12  1  1
 13 14  1  0
 13 15  1  0
 15 16  1  1
 16 10  1  0
 17 15  1  0
 18 17  2  0
 19 20  1  0
 20 21  1  0
 21 23  1  0
 21 22  1  1
 23 24  1  6
 23 25  1  0
 24 17  1  0
 25 27  1  0
 26 25  2  0
M  END
$$$$
