RTI.pdb
     RDKit          3D

 27 26  0  0  1  0  0  0  0  0999 V2000
    7.1473  -14.3302   16.8134 N   0  0  0  0  0  0  0  0  0  0  0  0
    8.2578  -13.4569   16.6323 C   0  0  0  0  0  0  0  0  0  0  0  0
    8.6494  -13.2585   15.4234 N   0  0  0  0  0  0  0  0  0  0  0  0
    8.9116  -12.8260   17.7294 N   0  0  0  0  0  0  0  0  0  0  0  0
    8.6585  -13.2133   19.0788 C   0  0  0  0  0  0  0  0  0  0  0  0
    7.4614  -14.1348   19.2430 C   0  0  0  0  0  0  0  0  0  0  0  0
    7.4813  -14.7473   20.6217 C   0  0  0  0  0  0  0  0  0  0  0  0
    8.1792  -16.0654   20.6841 C   0  0  2  0  0  0  0  0  0  0  0  0
    7.5292  -17.0788   19.9108 N   0  0  0  0  0  0  0  0  0  0  0  0
    8.3415  -16.4687   22.1132 C   0  0  0  0  0  0  0  0  0  0  0  0
    7.3213  -16.7145   22.8309 O   0  0  0  0  0  0  0  0  0  0  0  0
    9.5057  -12.6921   15.2549 C   0  0  0  0  0  0  0  0  0  0  0  0
   10.8610  -18.7842   25.5502 C   0  0  2  0  0  0  0  0  0  0  0  0
   10.8671  -18.1756   24.1595 O   0  0  0  0  0  0  0  0  0  0  0  0
   10.7757  -19.1485   23.1917 C   0  0  1  0  0  0  0  0  0  0  0  0
    9.7826  -17.1250   24.0528 N   0  0  0  0  0  0  0  0  0  0  0  0
    9.6110  -16.5981   22.7376 C   0  0  0  0  0  0  0  0  0  0  0  0
   10.0827  -16.0831   25.0686 O   0  0  0  0  0  0  0  0  0  0  0  0
   11.0254  -15.2859   24.8436 C   0  0  0  0  0  0  0  0  0  0  0  0
    6.6472  -12.6482   26.4281 C   0  0  0  0  0  0  0  0  0  0  0  0
    7.9761  -13.3153   26.3138 C   0  0  2  0  0  0  0  0  0  0  0  0
    8.5141  -14.0457   27.4726 C   0  0  0  0  0  0  0  0  0  0  0  0
    8.7631  -12.9465   28.5507 C   0  0  2  0  0  0  0  0  0  0  0  0
    9.7212  -14.8623   27.2788 N   0  0  0  0  0  0  0  0  0  0  0  0
    9.3713  -15.9361   26.2694 C   0  0  0  0  0  0  0  0  0  0  0  0
   10.2174  -15.6200   28.4063 O   0  0  0  0  0  0  0  0  0  0  0  0
    9.7043  -16.7654   28.6686 O   0  0  0  0  0  0  0  0  0  0  0  0
  2  1  1  0
  2  3  2  0
  4  2  1  0
  5  4  1  0
  5  6  1  0
  7  6  1  0
  7  8  1  0
  8  9  1  6
 10  8  1  0
 10 11  2  0
 13 12  1  6
 13 14  1  0
 13 15  1  0
 15 16  1  6
 16 10  1  0
 17 15  1  0
 18 17  2  0
 19 20  1  0
 20 21  1  0
 21 23  1  0
 21 22  1  1
 23 24  1  6
 23 25  1  0
 24 17  1  0
 25 27  1  0
 26 25  2  0
M  END
$$$$
