RTI.pdb
     RDKit          3D

 27 26  0  0  1  0  0  0  0  0999 V2000
   13.5209  -21.3786   20.9650 N   0  0  0  0  0  0  0  0  0  0  0  0
   14.9218  -21.2061   20.7739 C   0  0  0  0  0  0  0  0  0  0  0  0
   15.5842  -22.2337   20.3746 N   0  0  0  0  0  0  0  0  0  0  0  0
   15.5701  -19.9597   21.0088 N   0  0  0  0  0  0  0  0  0  0  0  0
   14.8362  -18.7432   21.1371 C   0  0  0  0  0  0  0  0  0  0  0  0
   13.3312  -18.9355   21.2219 C   0  0  0  0  0  0  0  0  0  0  0  0
   12.6544  -17.5897   21.3065 C   0  0  0  0  0  0  0  0  0  0  0  0
   11.5922  -17.3851   20.2777 C   0  0  2  0  0  0  0  0  0  0  0  0
   12.1148  -16.9855   19.0069 N   0  0  0  0  0  0  0  0  0  0  0  0
   10.5833  -16.4146   20.7989 C   0  0  0  0  0  0  0  0  0  0  0  0
   10.7054  -15.1716   20.5616 O   0  0  0  0  0  0  0  0  0  0  0  0
   16.6169  -22.1615   20.2707 C   0  0  0  0  0  0  0  0  0  0  0  0
    6.1151  -15.2454   22.3631 C   0  0  2  0  0  0  0  0  0  0  0  0
    7.0596  -16.3436   21.9088 O   0  0  0  0  0  0  0  0  0  0  0  0
    6.7662  -16.7524   20.6288 C   0  0  1  0  0  0  0  0  0  0  0  0
    8.4941  -15.8900   22.0754 N   0  0  0  0  0  0  0  0  0  0  0  0
    9.4582  -16.8127   21.5695 C   0  0  0  0  0  0  0  0  0  0  0  0
    8.6862  -15.5690   23.5133 O   0  0  0  0  0  0  0  0  0  0  0  0
    9.6429  -16.1074   24.1212 C   0  0  0  0  0  0  0  0  0  0  0  0
    6.4013  -10.9315   25.6977 C   0  0  0  0  0  0  0  0  0  0  0  0
    7.4209  -12.0056   25.5218 C   0  0  2  0  0  0  0  0  0  0  0  0
    7.1630  -13.3391   26.0882 C   0  0  0  0  0  0  0  0  0  0  0  0
    7.1766  -13.1210   27.6325 C   0  0  2  0  0  0  0  0  0  0  0  0
    8.0646  -14.4384   25.7136 N   0  0  0  0  0  0  0  0  0  0  0  0
    7.8585  -14.6952   24.2352 C   0  0  0  0  0  0  0  0  0  0  0  0
    7.8363  -15.7370   26.3079 O   0  0  0  0  0  0  0  0  0  0  0  0
    6.8557  -16.4530   25.8962 O   0  0  0  0  0  0  0  0  0  0  0  0
  2  1  1  0
  2  3  2  0
  4  2  1  0
  5  4  1  0
  5  6  1  0
  7  6  1  0
  7  8  1  0
  8  9  1  6
 10  8  1  0
 10 11  2  0
 13 12  1  1
 13 14  1  0
 13 15  1  0
 15 16  1  1
 16 10  1  0
 17 15  1  0
 18 17  2  0
 19 20  1  0
 20 21  1  0
 21 23  1  0
 21 22  1  6
 23 24  1  1
 23 25  1  0
 24 17  1  0
 25 27  1  0
 26 25  2  0
M  END
$$$$
