RTI.pdb
     RDKit          3D

 27 26  0  0  1  0  0  0  0  0999 V2000
    7.1166  -13.2999   15.2569 N   0  0  0  0  0  0  0  0  0  0  0  0
    8.1028  -14.3273   15.2361 C   0  0  0  0  0  0  0  0  0  0  0  0
    7.9932  -15.2187   14.3155 N   0  0  0  0  0  0  0  0  0  0  0  0
    9.1656  -14.3759   16.1833 N   0  0  0  0  0  0  0  0  0  0  0  0
    8.9634  -14.0493   17.5572 C   0  0  0  0  0  0  0  0  0  0  0  0
    7.5647  -14.3560   18.0659 C   0  0  0  0  0  0  0  0  0  0  0  0
    7.5095  -14.1318   19.5569 C   0  0  0  0  0  0  0  0  0  0  0  0
    8.5525  -14.8822   20.3168 C   0  0  2  0  0  0  0  0  0  0  0  0
    8.9522  -16.0940   19.6691 N   0  0  0  0  0  0  0  0  0  0  0  0
    8.0678  -15.1244   21.7088 C   0  0  0  0  0  0  0  0  0  0  0  0
    7.5211  -14.1867   22.3707 O   0  0  0  0  0  0  0  0  0  0  0  0
    8.6936  -15.9868   14.2682 C   0  0  0  0  0  0  0  0  0  0  0  0
    6.6324  -18.7848   23.1514 C   0  0  2  0  0  0  0  0  0  0  0  0
    7.6332  -18.0865   24.0545 O   0  0  0  0  0  0  0  0  0  0  0  0
    8.8507  -18.7259   24.0337 C   0  0  2  0  0  0  0  0  0  0  0  0
    7.7233  -16.6210   23.6864 N   0  0  0  0  0  0  0  0  0  0  0  0
    8.1860  -16.3827   22.3575 C   0  0  0  0  0  0  0  0  0  0  0  0
    8.5549  -15.9604   24.7254 O   0  0  0  0  0  0  0  0  0  0  0  0
    9.7271  -15.6264   24.4266 C   0  0  0  0  0  0  0  0  0  0  0  0
    6.6014  -11.7859   26.8385 C   0  0  0  0  0  0  0  0  0  0  0  0
    7.6601  -12.7688   26.4680 C   0  0  2  0  0  0  0  0  0  0  0  0
    8.0951  -13.7632   27.4618 C   0  0  0  0  0  0  0  0  0  0  0  0
    8.8355  -12.9317   28.5539 C   0  0  2  0  0  0  0  0  0  0  0  0
    8.9352  -14.8798   27.0044 N   0  0  0  0  0  0  0  0  0  0  0  0
    8.1056  -15.6856   26.0263 C   0  0  0  0  0  0  0  0  0  0  0  0
    9.3442  -15.8663   27.9795 O   0  0  0  0  0  0  0  0  0  0  0  0
    8.5808  -16.8684   28.2182 O   0  0  0  0  0  0  0  0  0  0  0  0
  2  1  1  0
  2  3  2  0
  4  2  1  0
  5  4  1  0
  5  6  1  0
  7  6  1  0
  7  8  1  0
  8  9  1  6
 10  8  1  0
 10 11  2  0
 13 12  1  1
 13 14  1  0
 13 15  1  0
 15 16  1  1
 16 10  1  0
 17 15  1  0
 18 17  2  0
 19 20  1  0
 20 21  1  0
 21 23  1  0
 21 22  1  1
 23 24  1  6
 23 25  1  0
 24 17  1  0
 25 27  1  0
 26 25  2  0
M  END
$$$$
