RTI.pdb
     RDKit          3D

 27 26  0  0  1  0  0  0  0  0999 V2000
   11.3164  -19.9637   15.5232 N   0  0  0  0  0  0  0  0  0  0  0  0
   12.5608  -19.6730   16.1522 C   0  0  0  0  0  0  0  0  0  0  0  0
   13.3732  -18.9120   15.5079 N   0  0  0  0  0  0  0  0  0  0  0  0
   12.9008  -20.1930   17.4340 N   0  0  0  0  0  0  0  0  0  0  0  0
   11.9317  -20.3263   18.4723 C   0  0  0  0  0  0  0  0  0  0  0  0
   11.0571  -19.0982   18.6625 C   0  0  0  0  0  0  0  0  0  0  0  0
   11.7155  -18.1563   19.6401 C   0  0  0  0  0  0  0  0  0  0  0  0
   11.1121  -18.1880   21.0051 C   0  0  2  0  0  0  0  0  0  0  0  0
   10.0655  -19.1557   21.1309 N   0  0  0  0  0  0  0  0  0  0  0  0
   10.6525  -16.8147   21.3716 C   0  0  0  0  0  0  0  0  0  0  0  0
   11.4617  -15.8350   21.3325 O   0  0  0  0  0  0  0  0  0  0  0  0
   14.2806  -18.6534   15.9466 C   0  0  0  0  0  0  0  0  0  0  0  0
    8.2344  -14.1449   20.1079 C   0  0  2  0  0  0  0  0  0  0  0  0
    7.7440  -14.6600   21.4491 O   0  0  0  0  0  0  0  0  0  0  0  0
    6.6987  -15.5395   21.2908 C   0  0  2  0  0  0  0  0  0  0  0  0
    8.9015  -15.2444   22.2302 N   0  0  0  0  0  0  0  0  0  0  0  0
    9.3202  -16.5303   21.7743 C   0  0  0  0  0  0  0  0  0  0  0  0
    8.5133  -15.2270   23.6643 O   0  0  0  0  0  0  0  0  0  0  0  0
    8.7419  -16.2491   24.3556 C   0  0  0  0  0  0  0  0  0  0  0  0
    7.3972  -10.3291   26.1595 C   0  0  0  0  0  0  0  0  0  0  0  0
    7.9168  -11.7270   26.1549 C   0  0  2  0  0  0  0  0  0  0  0  0
    6.9635  -12.8463   26.0894 C   0  0  0  0  0  0  0  0  0  0  0  0
    6.2809  -12.8655   27.4916 C   0  0  2  0  0  0  0  0  0  0  0  0
    7.4810  -14.1795   25.7482 N   0  0  0  0  0  0  0  0  0  0  0  0
    7.9044  -14.1310   24.2948 C   0  0  0  0  0  0  0  0  0  0  0  0
    6.5618  -15.2954   25.7858 O   0  0  0  0  0  0  0  0  0  0  0  0
    5.8566  -15.5640   24.7492 O   0  0  0  0  0  0  0  0  0  0  0  0
  2  1  1  0
  2  3  2  0
  4  2  1  0
  5  4  1  0
  5  6  1  0
  7  6  1  0
  7  8  1  0
  8  9  1  6
 10  8  1  0
 10 11  2  0
 13 12  1  1
 13 14  1  0
 13 15  1  0
 15 16  1  1
 16 10  1  0
 17 15  1  0
 18 17  2  0
 19 20  1  0
 20 21  1  0
 21 23  1  0
 21 22  1  6
 23 24  1  1
 23 25  1  0
 24 17  1  0
 25 27  1  0
 26 25  2  0
M  END
$$$$
