RTI.pdb
     RDKit          3D

 27 26  0  0  1  0  0  0  0  0999 V2000
    8.4846  -12.0140   19.7867 N   0  0  0  0  0  0  0  0  0  0  0  0
    8.6021  -12.8475   18.6377 C   0  0  0  0  0  0  0  0  0  0  0  0
    9.5857  -12.6075   17.8445 N   0  0  0  0  0  0  0  0  0  0  0  0
    7.6817  -13.9009   18.3693 N   0  0  0  0  0  0  0  0  0  0  0  0
    6.9941  -14.5833   19.4164 C   0  0  0  0  0  0  0  0  0  0  0  0
    7.7207  -14.5594   20.7508 C   0  0  0  0  0  0  0  0  0  0  0  0
    7.4121  -15.8225   21.5162 C   0  0  0  0  0  0  0  0  0  0  0  0
    8.3036  -16.9686   21.1696 C   0  0  2  0  0  0  0  0  0  0  0  0
    7.7359  -17.8409   20.1877 N   0  0  0  0  0  0  0  0  0  0  0  0
    8.6753  -17.6978   22.4192 C   0  0  0  0  0  0  0  0  0  0  0  0
    8.1273  -18.8100   22.7008 O   0  0  0  0  0  0  0  0  0  0  0  0
    9.7159  -13.2063   17.0036 C   0  0  0  0  0  0  0  0  0  0  0  0
   11.3600  -19.8954   25.3577 C   0  0  1  0  0  0  0  0  0  0  0  0
   10.8599  -19.2098   24.0990 O   0  0  0  0  0  0  0  0  0  0  0  0
   10.1344  -20.0773   23.3163 C   0  0  1  0  0  0  0  0  0  0  0  0
   10.0950  -17.9559   24.4654 N   0  0  0  0  0  0  0  0  0  0  0  0
    9.6369  -17.2051   23.3415 C   0  0  0  0  0  0  0  0  0  0  0  0
   10.9590  -17.1704   25.3841 O   0  0  0  0  0  0  0  0  0  0  0  0
   11.7218  -16.3051   24.8901 C   0  0  0  0  0  0  0  0  0  0  0  0
    8.8720  -13.1343   28.2853 C   0  0  0  0  0  0  0  0  0  0  0  0
   10.1094  -13.9667   28.2684 C   0  0  2  0  0  0  0  0  0  0  0  0
   10.1364  -15.1954   27.4589 C   0  0  0  0  0  0  0  0  0  0  0  0
    8.7328  -15.8403   27.6741 C   0  0  2  0  0  0  0  0  0  0  0  0
   11.2010  -16.1752   27.7201 N   0  0  0  0  0  0  0  0  0  0  0  0
   10.9724  -17.3385   26.7774 C   0  0  0  0  0  0  0  0  0  0  0  0
   11.2382  -16.8079   29.0200 O   0  0  0  0  0  0  0  0  0  0  0  0
   10.4451  -17.7846   29.2667 O   0  0  0  0  0  0  0  0  0  0  0  0
  2  1  1  0
  2  3  2  0
  4  2  1  0
  5  4  1  0
  5  6  1  0
  7  6  1  0
  7  8  1  0
  8  9  1  6
 10  8  1  0
 10 11  2  0
 13 12  1  6
 13 14  1  0
 13 15  1  0
 15 16  1  6
 16 10  1  0
 17 15  1  0
 18 17  2  0
 19 20  1  0
 20 21  1  0
 21 23  1  0
 21 22  1  6
 23 24  1  1
 23 25  1  0
 24 17  1  0
 25 27  1  0
 26 25  2  0
M  END
$$$$
