RTI.pdb
     RDKit          3D

 27 26  0  0  1  0  0  0  0  0999 V2000
   14.6448  -19.1843   17.2411 N   0  0  0  0  0  0  0  0  0  0  0  0
   15.0096  -19.3719   18.6050 C   0  0  0  0  0  0  0  0  0  0  0  0
   15.7297  -20.4023   18.8770 N   0  0  0  0  0  0  0  0  0  0  0  0
   14.6040  -18.4679   19.6285 N   0  0  0  0  0  0  0  0  0  0  0  0
   13.8572  -17.2880   19.3365 C   0  0  0  0  0  0  0  0  0  0  0  0
   12.4041  -17.5496   18.9769 C   0  0  0  0  0  0  0  0  0  0  0  0
   11.6226  -17.8615   20.2292 C   0  0  0  0  0  0  0  0  0  0  0  0
   10.2042  -18.2491   19.9720 C   0  0  2  0  0  0  0  0  0  0  0  0
    9.8298  -18.1182   18.5971 N   0  0  0  0  0  0  0  0  0  0  0  0
    9.3085  -17.4642   20.8737 C   0  0  0  0  0  0  0  0  0  0  0  0
    8.6156  -16.5032   20.4128 O   0  0  0  0  0  0  0  0  0  0  0  0
   15.9642  -20.6086   19.8696 C   0  0  0  0  0  0  0  0  0  0  0  0
    6.3929  -18.7622   22.7981 C   0  0  2  0  0  0  0  0  0  0  0  0
    7.2865  -18.0648   23.8078 O   0  0  0  0  0  0  0  0  0  0  0  0
    7.9515  -18.9759   24.5946 C   0  0  2  0  0  0  0  0  0  0  0  0
    8.2137  -17.1028   23.0963 N   0  0  0  0  0  0  0  0  0  0  0  0
    9.1816  -17.7381   22.2619 C   0  0  0  0  0  0  0  0  0  0  0  0
    8.8168  -16.2287   24.1354 O   0  0  0  0  0  0  0  0  0  0  0  0
   10.0583  -16.2814   24.3107 C   0  0  0  0  0  0  0  0  0  0  0  0
    6.1834  -11.5956   25.6201 C   0  0  0  0  0  0  0  0  0  0  0  0
    7.3342  -12.5018   25.3403 C   0  0  2  0  0  0  0  0  0  0  0  0
    7.7685  -13.4511   26.3776 C   0  0  0  0  0  0  0  0  0  0  0  0
    8.3430  -12.5545   27.5171 C   0  0  2  0  0  0  0  0  0  0  0  0
    8.7352  -14.4937   26.0033 N   0  0  0  0  0  0  0  0  0  0  0  0
    8.0781  -15.3433   24.9354 C   0  0  0  0  0  0  0  0  0  0  0  0
    9.1128  -15.4627   27.0083 O   0  0  0  0  0  0  0  0  0  0  0  0
    8.3232  -16.4388   27.2684 O   0  0  0  0  0  0  0  0  0  0  0  0
  2  1  1  0
  2  3  2  0
  4  2  1  0
  5  4  1  0
  5  6  1  0
  7  6  1  0
  7  8  1  0
  8  9  1  6
 10  8  1  0
 10 11  2  0
 13 12  1  1
 13 14  1  0
 13 15  1  0
 15 16  1  1
 16 10  1  0
 17 15  1  0
 18 17  2  0
 19 20  1  0
 20 21  1  0
 21 23  1  0
 21 22  1  1
 23 24  1  6
 23 25  1  0
 24 17  1  0
 25 27  1  0
 26 25  2  0
M  END
$$$$
