RTI.pdb
     RDKit          3D

 27 26  0  0  1  0  0  0  0  0999 V2000
    7.5448  -13.1484   14.8828 N   0  0  0  0  0  0  0  0  0  0  0  0
    8.2396  -14.3462   15.2164 C   0  0  0  0  0  0  0  0  0  0  0  0
    7.9844  -15.3839   14.5007 N   0  0  0  0  0  0  0  0  0  0  0  0
    9.1759  -14.4048   16.2882 N   0  0  0  0  0  0  0  0  0  0  0  0
    8.8396  -13.9704   17.6047 C   0  0  0  0  0  0  0  0  0  0  0  0
    7.4987  -14.4847   18.1014 C   0  0  0  0  0  0  0  0  0  0  0  0
    7.3298  -14.1288   19.5578 C   0  0  0  0  0  0  0  0  0  0  0  0
    8.5527  -14.3657   20.3804 C   0  0  2  0  0  0  0  0  0  0  0  0
    9.4630  -15.2890   19.7751 N   0  0  0  0  0  0  0  0  0  0  0  0
    8.1470  -14.7965   21.7520 C   0  0  0  0  0  0  0  0  0  0  0  0
    7.2281  -14.1762   22.3743 O   0  0  0  0  0  0  0  0  0  0  0  0
    8.4577  -16.2829   14.7253 C   0  0  0  0  0  0  0  0  0  0  0  0
    6.6862  -18.0100   23.0623 C   0  0  2  0  0  0  0  0  0  0  0  0
    7.9745  -17.7701   23.8286 O   0  0  0  0  0  0  0  0  0  0  0  0
    8.9674  -18.6246   23.4099 C   0  0  2  0  0  0  0  0  0  0  0  0
    8.3652  -16.3107   23.7341 N   0  0  0  0  0  0  0  0  0  0  0  0
    8.7475  -15.8949   22.4235 C   0  0  0  0  0  0  0  0  0  0  0  0
    9.4172  -16.0734   24.7561 O   0  0  0  0  0  0  0  0  0  0  0  0
   10.6165  -16.0703   24.3868 C   0  0  0  0  0  0  0  0  0  0  0  0
    8.7544  -12.0204   27.9295 C   0  0  0  0  0  0  0  0  0  0  0  0
    9.4766  -13.1033   27.2014 C   0  0  2  0  0  0  0  0  0  0  0  0
    9.7645  -14.3674   27.8978 C   0  0  0  0  0  0  0  0  0  0  0  0
   10.8068  -13.9856   28.9934 C   0  0  2  0  0  0  0  0  0  0  0  0
   10.2461  -15.5049   27.1004 N   0  0  0  0  0  0  0  0  0  0  0  0
    9.1486  -15.8507   26.1155 C   0  0  0  0  0  0  0  0  0  0  0  0
   10.4848  -16.7588   27.7803 O   0  0  0  0  0  0  0  0  0  0  0  0
   11.6866  -17.0961   28.0732 O   0  0  0  0  0  0  0  0  0  0  0  0
  2  1  1  0
  2  3  2  0
  4  2  1  0
  5  4  1  0
  5  6  1  0
  7  6  1  0
  7  8  1  0
  8  9  1  6
 10  8  1  0
 10 11  2  0
 13 12  1  1
 13 14  1  0
 13 15  1  0
 15 16  1  1
 16 10  1  0
 17 15  1  0
 18 17  2  0
 19 20  1  0
 20 21  1  0
 21 23  1  0
 21 22  1  1
 23 24  1  6
 23 25  1  0
 24 17  1  0
 25 27  1  0
 26 25  2  0
M  END
$$$$
