RTI.pdb
     RDKit          3D

 27 26  0  0  1  0  0  0  0  0999 V2000
   15.9538  -17.3961   20.8632 N   0  0  0  0  0  0  0  0  0  0  0  0
   15.9844  -18.5144   19.9816 C   0  0  0  0  0  0  0  0  0  0  0  0
   17.0597  -18.6847   19.2969 N   0  0  0  0  0  0  0  0  0  0  0  0
   14.8837  -19.4098   19.8561 N   0  0  0  0  0  0  0  0  0  0  0  0
   13.6526  -19.1883   20.5418 C   0  0  0  0  0  0  0  0  0  0  0  0
   12.5425  -18.6437   19.6584 C   0  0  0  0  0  0  0  0  0  0  0  0
   11.2901  -18.4576   20.4787 C   0  0  0  0  0  0  0  0  0  0  0  0
   10.1432  -17.8952   19.7062 C   0  0  2  0  0  0  0  0  0  0  0  0
   10.4631  -17.6449   18.3341 N   0  0  0  0  0  0  0  0  0  0  0  0
    9.6388  -16.6703   20.3964 C   0  0  0  0  0  0  0  0  0  0  0  0
    9.9753  -15.5159   19.9835 O   0  0  0  0  0  0  0  0  0  0  0  0
   17.1258  -19.4983   18.6517 C   0  0  0  0  0  0  0  0  0  0  0  0
    6.3512  -15.0964   20.5241 C   0  0  2  0  0  0  0  0  0  0  0  0
    6.6951  -15.4687   21.9551 O   0  0  0  0  0  0  0  0  0  0  0  0
    6.0390  -16.6140   22.3413 C   0  0  2  0  0  0  0  0  0  0  0  0
    8.1975  -15.5593   22.1163 N   0  0  0  0  0  0  0  0  0  0  0  0
    8.7766  -16.7217   21.5243 C   0  0  0  0  0  0  0  0  0  0  0  0
    8.4894  -15.4315   23.5674 O   0  0  0  0  0  0  0  0  0  0  0  0
    9.2012  -16.3102   24.1115 C   0  0  0  0  0  0  0  0  0  0  0  0
    5.8979  -11.4354   26.8204 C   0  0  0  0  0  0  0  0  0  0  0  0
    6.4368  -12.6604   26.1622 C   0  0  2  0  0  0  0  0  0  0  0  0
    7.8626  -12.9899   26.3176 C   0  0  0  0  0  0  0  0  0  0  0  0
    8.6155  -11.8458   25.5716 C   0  0  1  0  0  0  0  0  0  0  0  0
    8.3260  -14.3045   25.8498 N   0  0  0  0  0  0  0  0  0  0  0  0
    8.0152  -14.3819   24.3694 C   0  0  0  0  0  0  0  0  0  0  0  0
    7.6791  -15.4826   26.3836 O   0  0  0  0  0  0  0  0  0  0  0  0
    6.7158  -16.0210   25.7309 O   0  0  0  0  0  0  0  0  0  0  0  0
  2  1  1  0
  2  3  2  0
  4  2  1  0
  5  4  1  0
  5  6  1  0
  7  6  1  0
  7  8  1  0
  8  9  1  6
 10  8  1  0
 10 11  2  0
 13 12  1  1
 13 14  1  0
 13 15  1  0
 15 16  1  1
 16 10  1  0
 17 15  1  0
 18 17  2  0
 19 20  1  0
 20 21  1  0
 21 23  1  0
 21 22  1  1
 23 24  1  6
 23 25  1  0
 24 17  1  0
 25 27  1  0
 26 25  2  0
M  END
$$$$
