RTI.pdb
     RDKit          3D

 27 26  0  0  1  0  0  0  0  0999 V2000
   10.0270  -13.3955   19.6489 N   0  0  0  0  0  0  0  0  0  0  0  0
    8.8755  -12.8232   19.0363 C   0  0  0  0  0  0  0  0  0  0  0  0
    9.0798  -11.8957   18.1690 N   0  0  0  0  0  0  0  0  0  0  0  0
    7.5553  -13.2497   19.3590 N   0  0  0  0  0  0  0  0  0  0  0  0
    7.3107  -14.4513   20.0879 C   0  0  0  0  0  0  0  0  0  0  0  0
    7.8710  -15.6998   19.4271 C   0  0  0  0  0  0  0  0  0  0  0  0
    6.9208  -16.8525   19.6386 C   0  0  0  0  0  0  0  0  0  0  0  0
    7.4559  -17.9151   20.5403 C   0  0  2  0  0  0  0  0  0  0  0  0
    7.1123  -19.2365   20.1119 N   0  0  0  0  0  0  0  0  0  0  0  0
    7.0068  -17.6450   21.9392 C   0  0  0  0  0  0  0  0  0  0  0  0
    5.7825  -17.4072   22.1859 O   0  0  0  0  0  0  0  0  0  0  0  0
    8.2663  -11.3711   17.7873 C   0  0  0  0  0  0  0  0  0  0  0  0
    6.5359  -19.6434   24.7206 C   0  0  2  0  0  0  0  0  0  0  0  0
    7.4720  -18.5890   25.2832 O   0  0  0  0  0  0  0  0  0  0  0  0
    8.7279  -19.1056   25.5007 C   0  0  2  0  0  0  0  0  0  0  0  0
    7.4758  -17.3717   24.3835 N   0  0  0  0  0  0  0  0  0  0  0  0
    7.8970  -17.6384   23.0462 C   0  0  0  0  0  0  0  0  0  0  0  0
    8.2926  -16.3313   25.0602 O   0  0  0  0  0  0  0  0  0  0  0  0
    9.4386  -16.0879   24.6106 C   0  0  0  0  0  0  0  0  0  0  0  0
    6.1618  -11.6918   26.1897 C   0  0  0  0  0  0  0  0  0  0  0  0
    7.2642  -12.6673   25.9506 C   0  0  2  0  0  0  0  0  0  0  0  0
    7.8482  -13.3845   27.0952 C   0  0  0  0  0  0  0  0  0  0  0  0
    8.6206  -12.2900   27.8940 C   0  0  2  0  0  0  0  0  0  0  0  0
    8.7201  -14.5361   26.8211 N   0  0  0  0  0  0  0  0  0  0  0  0
    7.8569  -15.6008   26.1766 C   0  0  0  0  0  0  0  0  0  0  0  0
    9.3080  -15.2268   27.9475 O   0  0  0  0  0  0  0  0  0  0  0  0
    8.6473  -16.1605   28.5268 O   0  0  0  0  0  0  0  0  0  0  0  0
  2  1  1  0
  2  3  2  0
  4  2  1  0
  5  4  1  0
  5  6  1  0
  7  6  1  0
  7  8  1  0
  8  9  1  6
 10  8  1  0
 10 11  2  0
 13 12  1  1
 13 14  1  0
 13 15  1  0
 15 16  1  1
 16 10  1  0
 17 15  1  0
 18 17  2  0
 19 20  1  0
 20 21  1  0
 21 23  1  0
 21 22  1  1
 23 24  1  6
 23 25  1  0
 24 17  1  0
 25 27  1  0
 26 25  2  0
M  END
$$$$
