RTI.pdb
     RDKit          3D

 27 26  0  0  1  0  0  0  0  0999 V2000
    9.0462  -15.4140   17.3139 N   0  0  0  0  0  0  0  0  0  0  0  0
    8.4176  -14.3225   16.6489 C   0  0  0  0  0  0  0  0  0  0  0  0
    8.4617  -14.3226   15.3635 N   0  0  0  0  0  0  0  0  0  0  0  0
    7.7666  -13.2751   17.3619 N   0  0  0  0  0  0  0  0  0  0  0  0
    7.0525  -13.5205   18.5721 C   0  0  0  0  0  0  0  0  0  0  0  0
    7.8776  -13.3082   19.8304 C   0  0  0  0  0  0  0  0  0  0  0  0
    7.1527  -13.8979   21.0148 C   0  0  0  0  0  0  0  0  0  0  0  0
    7.1291  -15.3905   21.0232 C   0  0  2  0  0  0  0  0  0  0  0  0
    5.8991  -15.9326   20.5325 N   0  0  0  0  0  0  0  0  0  0  0  0
    7.4481  -15.8797   22.3981 C   0  0  0  0  0  0  0  0  0  0  0  0
    6.5658  -15.8449   23.3128 O   0  0  0  0  0  0  0  0  0  0  0  0
    8.1543  -13.4738   14.8461 C   0  0  0  0  0  0  0  0  0  0  0  0
    8.8609  -19.3293   23.0747 C   0  0  2  0  0  0  0  0  0  0  0  0
    9.6996  -18.3600   23.8882 O   0  0  0  0  0  0  0  0  0  0  0  0
   10.9682  -18.2453   23.3695 C   0  0  2  0  0  0  0  0  0  0  0  0
    8.9818  -17.0325   24.0067 N   0  0  0  0  0  0  0  0  0  0  0  0
    8.7214  -16.3986   22.7549 C   0  0  0  0  0  0  0  0  0  0  0  0
    9.7744  -16.1895   24.9387 O   0  0  0  0  0  0  0  0  0  0  0  0
   10.6011  -15.3799   24.4528 C   0  0  0  0  0  0  0  0  0  0  0  0
    7.4065  -12.9563   27.8140 C   0  0  0  0  0  0  0  0  0  0  0  0
    8.6237  -13.5480   27.1876 C   0  0  2  0  0  0  0  0  0  0  0  0
    9.4419  -14.4938   27.9632 C   0  0  0  0  0  0  0  0  0  0  0  0
   10.1430  -13.6147   29.0440 C   0  0  2  0  0  0  0  0  0  0  0  0
   10.4287  -15.3112   27.2422 N   0  0  0  0  0  0  0  0  0  0  0  0
    9.6527  -16.2441   26.3358 C   0  0  0  0  0  0  0  0  0  0  0  0
   11.2562  -16.2136   28.0119 O   0  0  0  0  0  0  0  0  0  0  0  0
   12.3671  -15.7917   28.4934 O   0  0  0  0  0  0  0  0  0  0  0  0
  2  1  1  0
  2  3  2  0
  4  2  1  0
  5  4  1  0
  5  6  1  0
  7  6  1  0
  7  8  1  0
  8  9  1  1
 10  8  1  0
 10 11  2  0
 13 12  1  1
 13 14  1  0
 13 15  1  0
 15 16  1  1
 16 10  1  0
 17 15  1  0
 18 17  2  0
 19 20  1  0
 20 21  1  0
 21 23  1  0
 21 22  1  1
 23 24  1  6
 23 25  1  0
 24 17  1  0
 25 27  1  0
 26 25  2  0
M  END
$$$$
