RTI.pdb
     RDKit          3D

 27 26  0  0  1  0  0  0  0  0999 V2000
    7.5016  -12.8551   14.7532 N   0  0  0  0  0  0  0  0  0  0  0  0
    8.4652  -13.8492   14.4186 C   0  0  0  0  0  0  0  0  0  0  0  0
    8.9790  -13.7866   13.2411 N   0  0  0  0  0  0  0  0  0  0  0  0
    8.8511  -14.8686   15.3355 N   0  0  0  0  0  0  0  0  0  0  0  0
    8.2750  -14.9663   16.6369 C   0  0  0  0  0  0  0  0  0  0  0  0
    8.5943  -13.7896   17.5439 C   0  0  0  0  0  0  0  0  0  0  0  0
    7.9430  -13.9978   18.8888 C   0  0  0  0  0  0  0  0  0  0  0  0
    8.7839  -14.7695   19.8511 C   0  0  2  0  0  0  0  0  0  0  0  0
    9.2769  -15.9960   19.3033 N   0  0  0  0  0  0  0  0  0  0  0  0
    8.0131  -14.9886   21.1118 C   0  0  0  0  0  0  0  0  0  0  0  0
    7.3253  -14.0458   21.6160 O   0  0  0  0  0  0  0  0  0  0  0  0
    9.7664  -14.4217   12.9978 C   0  0  0  0  0  0  0  0  0  0  0  0
    6.3108  -17.9680   24.6956 C   0  0  2  0  0  0  0  0  0  0  0  0
    7.1492  -17.8725   23.4337 O   0  0  0  0  0  0  0  0  0  0  0  0
    6.6089  -18.6295   22.4205 C   0  0  1  0  0  0  0  0  0  0  0  0
    7.3439  -16.4202   23.0539 N   0  0  0  0  0  0  0  0  0  0  0  0
    8.0033  -16.2299   21.8026 C   0  0  0  0  0  0  0  0  0  0  0  0
    8.0380  -15.7611   24.1902 O   0  0  0  0  0  0  0  0  0  0  0  0
    9.1930  -16.1502   24.4891 C   0  0  0  0  0  0  0  0  0  0  0  0
    5.4907  -11.8838   27.7224 C   0  0  0  0  0  0  0  0  0  0  0  0
    6.2291  -13.0548   27.1677 C   0  0  2  0  0  0  0  0  0  0  0  0
    7.4770  -12.8278   26.4214 C   0  0  0  0  0  0  0  0  0  0  0  0
    7.0438  -12.0049   25.1694 C   0  0  1  0  0  0  0  0  0  0  0  0
    8.2690  -14.0000   26.0208 N   0  0  0  0  0  0  0  0  0  0  0  0
    7.4771  -14.7244   24.9520 C   0  0  0  0  0  0  0  0  0  0  0  0
    8.5067  -15.0294   27.0084 O   0  0  0  0  0  0  0  0  0  0  0  0
    9.2928  -14.7873   27.9919 O   0  0  0  0  0  0  0  0  0  0  0  0
  2  1  1  0
  2  3  2  0
  4  2  1  0
  5  4  1  0
  5  6  1  0
  7  6  1  0
  7  8  1  0
  8  9  1  6
 10  8  1  0
 10 11  2  0
 13 12  1  1
 13 14  1  0
 13 15  1  0
 15 16  1  1
 16 10  1  0
 17 15  1  0
 18 17  2  0
 19 20  1  0
 20 21  1  0
 21 23  1  0
 21 22  1  1
 23 24  1  6
 23 25  1  0
 24 17  1  0
 25 27  1  0
 26 25  2  0
M  END
$$$$
