ARE.pdb
     RDKit          3D

 26 25  0  0  1  0  0  0  0  0999 V2000
    7.4344  -11.6038   26.9497 C   0  0  0  0  0  0  0  0  0  0  0  0
    6.4937  -12.5596   26.2856 C   0  0  2  0  0  0  0  0  0  0  0  0
    5.4503  -13.0217   27.1767 N   0  0  0  0  0  0  0  0  0  0  0  0
    7.1760  -13.6789   25.6078 C   0  0  0  0  0  0  0  0  0  0  0  0
    7.5378  -14.6565   26.3115 O   0  0  0  0  0  0  0  0  0  0  0  0
    8.3340  -12.3017   18.4781 N   0  0  0  0  0  0  0  0  0  0  0  0
    8.4703  -13.7195   18.4089 C   0  0  0  0  0  0  0  0  0  0  0  0
    9.3915  -14.2314   17.6542 N   0  0  0  0  0  0  0  0  0  0  0  0
    7.5919  -14.5231   19.1693 N   0  0  0  0  0  0  0  0  0  0  0  0
    6.6728  -13.9403   20.1101 C   0  0  0  0  0  0  0  0  0  0  0  0
    6.7206  -14.6624   21.4076 C   0  0  0  0  0  0  0  0  0  0  0  0
    8.0254  -14.7205   22.0827 C   0  0  0  0  0  0  0  0  0  0  0  0
    8.0530  -14.8863   23.5576 C   0  0  2  0  0  0  0  0  0  0  0  0
    7.4444  -13.7134   24.2175 N   0  0  0  0  0  0  0  0  0  0  0  0
    9.4636  -15.0325   24.0087 C   0  0  0  0  0  0  0  0  0  0  0  0
   10.2091  -14.0287   24.0965 O   0  0  0  0  0  0  0  0  0  0  0  0
    9.5002  -15.2622   17.6478 N   0  0  0  0  0  0  0  0  0  0  0  0
   10.0170  -16.2966   24.3540 C   0  0  2  0  0  0  0  0  0  0  0  0
   11.4460  -16.3765   24.7061 C   0  0  0  0  0  0  0  0  0  0  0  0
   11.6121  -17.4161   25.7995 C   0  0  0  0  0  0  0  0  0  0  0  0
   10.3839  -17.6147   26.6334 C   0  0  0  0  0  0  0  0  0  0  0  0
   10.6139  -18.7624   27.5807 O   0  0  0  0  0  0  0  0  0  0  0  0
   11.6330  -19.4818   27.4768 C   0  0  0  0  0  0  0  0  0  0  0  0
   12.2668  -16.6119   23.5203 O   0  0  0  0  0  0  0  0  0  0  0  0
   11.7932  -16.8343   22.2455 O   0  0  0  0  0  0  0  0  0  0  0  0
    9.6767  -19.0002   28.5624 O   0  0  0  0  0  0  0  0  0  0  0  0
  2  1  1  1
  2  3  1  0
  4  5  2  0
  4  2  1  0
  6  7  1  0
  7  8  2  0
  7  9  1  0
  9 10  1  0
 10 11  1  0
 13 12  1  6
 12 11  1  0
 13 14  1  0
 14  4  1  0
 15 17  1  0
 15 13  1  0
 16 15  2  0
 18 19  1  6
 18 17  1  0
 19 20  1  0
 20 21  1  0
 21 22  2  0
 23 18  1  0
 24 23  1  0
 25 21  1  0
 26 23  2  0
M  END
$$$$
