ARE.pdb
     RDKit          3D

 26 25  0  0  1  0  0  0  0  0999 V2000
    6.7735  -13.0266   19.5876 C   0  0  0  0  0  0  0  0  0  0  0  0
    8.2150  -13.2899   19.2838 C   0  0  2  0  0  0  0  0  0  0  0  0
    8.4317  -13.6680   17.9032 N   0  0  0  0  0  0  0  0  0  0  0  0
    8.8487  -14.2372   20.2212 C   0  0  0  0  0  0  0  0  0  0  0  0
    8.7218  -14.0155   21.4528 O   0  0  0  0  0  0  0  0  0  0  0  0
   10.2398  -22.9682   19.8424 N   0  0  0  0  0  0  0  0  0  0  0  0
   10.6187  -22.5906   21.1643 C   0  0  0  0  0  0  0  0  0  0  0  0
   10.9220  -23.5120   22.0241 N   0  0  0  0  0  0  0  0  0  0  0  0
   10.6510  -21.2174   21.4944 N   0  0  0  0  0  0  0  0  0  0  0  0
   10.0903  -20.2254   20.6164 C   0  0  0  0  0  0  0  0  0  0  0  0
   10.3570  -18.8573   21.1309 C   0  0  0  0  0  0  0  0  0  0  0  0
    9.8839  -17.7375   20.3039 C   0  0  0  0  0  0  0  0  0  0  0  0
   10.1310  -16.3528   20.7784 C   0  0  2  0  0  0  0  0  0  0  0  0
    9.5873  -15.3751   19.8139 N   0  0  0  0  0  0  0  0  0  0  0  0
   11.5961  -16.1393   20.9281 C   0  0  0  0  0  0  0  0  0  0  0  0
   12.4040  -16.7311   20.1744 O   0  0  0  0  0  0  0  0  0  0  0  0
   11.2864  -23.2162   22.9483 N   0  0  0  0  0  0  0  0  0  0  0  0
   12.1335  -15.2689   21.9167 C   0  0  2  0  0  0  0  0  0  0  0  0
   12.9923  -15.8343   22.9726 C   0  0  0  0  0  0  0  0  0  0  0  0
   12.1252  -16.6647   23.9013 C   0  0  0  0  0  0  0  0  0  0  0  0
   12.8996  -17.3988   24.9524 C   0  0  0  0  0  0  0  0  0  0  0  0
   11.9489  -18.2324   25.7702 O   0  0  0  0  0  0  0  0  0  0  0  0
   12.0908  -18.3317   27.0100 C   0  0  0  0  0  0  0  0  0  0  0  0
   14.1247  -16.5571   22.3978 O   0  0  0  0  0  0  0  0  0  0  0  0
   14.0416  -17.6662   21.5843 O   0  0  0  0  0  0  0  0  0  0  0  0
   10.9214  -18.8817   25.1213 O   0  0  0  0  0  0  0  0  0  0  0  0
  2  1  1  1
  2  3  1  0
  4  5  2  0
  4  2  1  0
  6  7  1  0
  7  8  2  0
  7  9  1  0
  9 10  1  0
 10 11  1  0
 13 12  1  6
 12 11  1  0
 13 14  1  0
 14  4  1  0
 15 17  1  0
 15 13  1  0
 16 15  2  0
 18 19  1  1
 18 17  1  0
 19 20  1  0
 20 21  1  0
 21 22  2  0
 23 18  1  0
 24 23  1  0
 25 21  1  0
 26 23  2  0
M  END
$$$$
