ARE.pdb
     RDKit          3D

 26 25  0  0  1  0  0  0  0  0999 V2000
   11.7835  -19.9607   18.6477 C   0  0  0  0  0  0  0  0  0  0  0  0
   11.4156  -18.5173   18.5032 C   0  0  2  0  0  0  0  0  0  0  0  0
   12.1536  -17.8590   17.4458 N   0  0  0  0  0  0  0  0  0  0  0  0
   11.4798  -17.7655   19.7715 C   0  0  0  0  0  0  0  0  0  0  0  0
   12.5772  -17.2355   20.0830 O   0  0  0  0  0  0  0  0  0  0  0  0
    6.4236  -12.8104   19.1909 N   0  0  0  0  0  0  0  0  0  0  0  0
    7.6565  -13.4214   18.8162 C   0  0  0  0  0  0  0  0  0  0  0  0
    8.2091  -13.0947   17.6901 N   0  0  0  0  0  0  0  0  0  0  0  0
    8.2376  -14.3674   19.6897 N   0  0  0  0  0  0  0  0  0  0  0  0
    7.6596  -14.6487   20.9766 C   0  0  0  0  0  0  0  0  0  0  0  0
    8.7208  -14.8928   21.9873 C   0  0  0  0  0  0  0  0  0  0  0  0
    9.0860  -16.2953   22.2350 C   0  0  0  0  0  0  0  0  0  0  0  0
   10.4461  -16.7511   21.8530 C   0  0  2  0  0  0  0  0  0  0  0  0
   10.3816  -17.6086   20.6520 N   0  0  0  0  0  0  0  0  0  0  0  0
   11.0405  -17.5203   22.9799 C   0  0  0  0  0  0  0  0  0  0  0  0
   10.5803  -18.6428   23.2946 O   0  0  0  0  0  0  0  0  0  0  0  0
    9.0904  -13.5704   17.4227 N   0  0  0  0  0  0  0  0  0  0  0  0
   12.1383  -17.0225   23.7354 C   0  0  1  0  0  0  0  0  0  0  0  0
   12.7043  -17.8616   24.8068 C   0  0  0  0  0  0  0  0  0  0  0  0
   14.1424  -17.4351   25.0393 C   0  0  0  0  0  0  0  0  0  0  0  0
   14.9618  -17.3717   23.7871 C   0  0  0  0  0  0  0  0  0  0  0  0
   16.3206  -16.8129   24.1173 O   0  0  0  0  0  0  0  0  0  0  0  0
   16.6164  -16.5066   25.2945 C   0  0  0  0  0  0  0  0  0  0  0  0
   11.8639  -17.8255   26.0016 O   0  0  0  0  0  0  0  0  0  0  0  0
   10.7477  -17.0366   26.1763 O   0  0  0  0  0  0  0  0  0  0  0  0
   17.2279  -16.6475   23.0937 O   0  0  0  0  0  0  0  0  0  0  0  0
  2  1  1  1
  2  3  1  0
  4  5  2  0
  4  2  1  0
  6  7  1  0
  7  8  2  0
  7  9  1  0
  9 10  1  0
 10 11  1  0
 13 12  1  1
 12 11  1  0
 13 14  1  0
 14  4  1  0
 15 17  1  0
 15 13  1  0
 16 15  2  0
 18 19  1  6
 18 17  1  0
 19 20  1  0
 20 21  1  0
 21 22  2  0
 23 18  1  0
 24 23  1  0
 25 21  1  0
 26 23  2  0
M  END
$$$$
