ARE.pdb
     RDKit          3D

 26 25  0  0  1  0  0  0  0  0999 V2000
    6.2167  -18.6017   25.9110 C   0  0  0  0  0  0  0  0  0  0  0  0
    7.5429  -17.9225   26.0502 C   0  0  2  0  0  0  0  0  0  0  0  0
    7.4876  -16.7692   26.9236 N   0  0  0  0  0  0  0  0  0  0  0  0
    8.1782  -17.6049   24.7566 C   0  0  0  0  0  0  0  0  0  0  0  0
    8.6836  -18.5538   24.1038 O   0  0  0  0  0  0  0  0  0  0  0  0
    8.4002  -12.1809   18.8442 N   0  0  0  0  0  0  0  0  0  0  0  0
    8.2049  -13.5839   18.6793 C   0  0  0  0  0  0  0  0  0  0  0  0
    8.1090  -14.0741   17.4832 N   0  0  0  0  0  0  0  0  0  0  0  0
    8.1223  -14.3971   19.8315 N   0  0  0  0  0  0  0  0  0  0  0  0
    6.9322  -14.4285   20.6390 C   0  0  0  0  0  0  0  0  0  0  0  0
    7.2638  -14.2178   22.0719 C   0  0  0  0  0  0  0  0  0  0  0  0
    8.6137  -14.6112   22.5015 C   0  0  0  0  0  0  0  0  0  0  0  0
    8.8494  -16.0241   22.8909 C   0  0  2  0  0  0  0  0  0  0  0  0
    8.2500  -16.2991   24.2125 N   0  0  0  0  0  0  0  0  0  0  0  0
   10.3144  -16.2796   22.9482 C   0  0  0  0  0  0  0  0  0  0  0  0
   11.0330  -15.6704   23.7749 O   0  0  0  0  0  0  0  0  0  0  0  0
    7.9300  -15.0903   17.3850 N   0  0  0  0  0  0  0  0  0  0  0  0
   10.9513  -17.2106   22.0814 C   0  0  2  0  0  0  0  0  0  0  0  0
   12.4237  -17.2710   22.0591 C   0  0  0  0  0  0  0  0  0  0  0  0
   12.8567  -18.6056   22.6383 C   0  0  0  0  0  0  0  0  0  0  0  0
   12.5055  -18.7772   24.0842 C   0  0  0  0  0  0  0  0  0  0  0  0
   13.0036  -20.1181   24.5546 O   0  0  0  0  0  0  0  0  0  0  0  0
   12.8960  -21.1308   23.8266 C   0  0  0  0  0  0  0  0  0  0  0  0
   12.9404  -16.9987   20.7197 O   0  0  0  0  0  0  0  0  0  0  0  0
   12.1784  -16.7982   19.5892 O   0  0  0  0  0  0  0  0  0  0  0  0
   13.5796  -20.2023   25.8035 O   0  0  0  0  0  0  0  0  0  0  0  0
  2  1  1  6
  2  3  1  0
  4  5  2  0
  4  2  1  0
  6  7  1  0
  7  8  2  0
  7  9  1  0
  9 10  1  0
 10 11  1  0
 13 12  1  1
 12 11  1  0
 13 14  1  0
 14  4  1  0
 15 17  1  0
 15 13  1  0
 16 15  2  0
 18 19  1  1
 18 17  1  0
 19 20  1  0
 20 21  1  0
 21 22  2  0
 23 18  1  0
 24 23  1  0
 25 21  1  0
 26 23  2  0
M  END
$$$$
