ARE.pdb
     RDKit          3D

 26 25  0  0  1  0  0  0  0  0999 V2000
   13.9654  -21.2072   18.8493 C   0  0  0  0  0  0  0  0  0  0  0  0
   12.7706  -20.3863   18.4778 C   0  0  2  0  0  0  0  0  0  0  0  0
   12.7742  -19.9998   17.0825 N   0  0  0  0  0  0  0  0  0  0  0  0
   12.5521  -19.2310   19.3696 C   0  0  0  0  0  0  0  0  0  0  0  0
   13.5448  -18.5107   19.6486 O   0  0  0  0  0  0  0  0  0  0  0  0
    8.1087  -12.9718   21.9904 N   0  0  0  0  0  0  0  0  0  0  0  0
    7.7139  -13.3225   20.6657 C   0  0  0  0  0  0  0  0  0  0  0  0
    7.5398  -12.3853   19.7874 N   0  0  0  0  0  0  0  0  0  0  0  0
    7.5249  -14.6872   20.3533 N   0  0  0  0  0  0  0  0  0  0  0  0
    7.7748  -15.7171   21.3260 C   0  0  0  0  0  0  0  0  0  0  0  0
    9.2212  -16.0531   21.3758 C   0  0  0  0  0  0  0  0  0  0  0  0
    9.6377  -17.2802   20.6812 C   0  0  0  0  0  0  0  0  0  0  0  0
   11.0772  -17.6427   20.6858 C   0  0  2  0  0  0  0  0  0  0  0  0
   11.2948  -18.8902   19.9256 N   0  0  0  0  0  0  0  0  0  0  0  0
   11.5310  -17.8326   22.0904 C   0  0  0  0  0  0  0  0  0  0  0  0
   11.1005  -18.7920   22.7722 O   0  0  0  0  0  0  0  0  0  0  0  0
    7.2568  -12.6609   18.8291 N   0  0  0  0  0  0  0  0  0  0  0  0
   12.4575  -16.9479   22.7088 C   0  0  2  0  0  0  0  0  0  0  0  0
   12.8526  -17.1939   24.1073 C   0  0  0  0  0  0  0  0  0  0  0  0
   14.2271  -16.5895   24.3297 C   0  0  0  0  0  0  0  0  0  0  0  0
   15.2935  -17.1822   23.4608 C   0  0  0  0  0  0  0  0  0  0  0  0
   16.5966  -16.4789   23.7340 O   0  0  0  0  0  0  0  0  0  0  0  0
   16.6192  -15.3990   24.3667 C   0  0  0  0  0  0  0  0  0  0  0  0
   11.8277  -16.7186   25.0340 O   0  0  0  0  0  0  0  0  0  0  0  0
   10.6613  -16.0748   24.6820 O   0  0  0  0  0  0  0  0  0  0  0  0
   17.7608  -17.0524   23.2713 O   0  0  0  0  0  0  0  0  0  0  0  0
  2  1  1  1
  2  3  1  0
  4  5  2  0
  4  2  1  0
  6  7  1  0
  7  8  2  0
  7  9  1  0
  9 10  1  0
 10 11  1  0
 13 12  1  1
 12 11  1  0
 13 14  1  0
 14  4  1  0
 15 17  1  0
 15 13  1  0
 16 15  2  0
 18 19  1  6
 18 17  1  0
 19 20  1  0
 20 21  1  0
 21 22  2  0
 23 18  1  0
 24 23  1  0
 25 21  1  0
 26 23  2  0
M  END
$$$$
