ARE.pdb
     RDKit          3D

 26 25  0  0  1  0  0  0  0  0999 V2000
    9.9906  -18.1662   14.7531 C   0  0  0  0  0  0  0  0  0  0  0  0
   10.3943  -16.7380   14.5613 C   0  0  2  0  0  0  0  0  0  0  0  0
   11.4859  -16.5906   13.6217 N   0  0  0  0  0  0  0  0  0  0  0  0
   10.6566  -16.0272   15.8277 C   0  0  0  0  0  0  0  0  0  0  0  0
   11.8439  -15.9859   16.2409 O   0  0  0  0  0  0  0  0  0  0  0  0
    7.1773  -14.8289   21.3396 N   0  0  0  0  0  0  0  0  0  0  0  0
    7.2019  -13.6169   22.0908 C   0  0  0  0  0  0  0  0  0  0  0  0
    6.9322  -13.6514   23.3582 N   0  0  0  0  0  0  0  0  0  0  0  0
    7.5211  -12.4127   21.4249 N   0  0  0  0  0  0  0  0  0  0  0  0
    7.7234  -12.3781   20.0011 C   0  0  0  0  0  0  0  0  0  0  0  0
    8.8910  -13.2123   19.6159 C   0  0  0  0  0  0  0  0  0  0  0  0
    8.7631  -13.9948   18.3778 C   0  0  0  0  0  0  0  0  0  0  0  0
    9.9302  -14.7883   17.9176 C   0  0  2  0  0  0  0  0  0  0  0  0
    9.6522  -15.3928   16.5990 N   0  0  0  0  0  0  0  0  0  0  0  0
   10.2130  -15.8639   18.9064 C   0  0  0  0  0  0  0  0  0  0  0  0
   10.1295  -17.0695   18.5740 O   0  0  0  0  0  0  0  0  0  0  0  0
    6.9187  -12.7553   23.8789 N   0  0  0  0  0  0  0  0  0  0  0  0
   10.5841  -15.5746   20.2489 C   0  0  1  0  0  0  0  0  0  0  0  0
   11.2243  -16.6301   21.0542 C   0  0  0  0  0  0  0  0  0  0  0  0
   12.4074  -17.1752   20.2750 C   0  0  0  0  0  0  0  0  0  0  0  0
   13.2011  -18.2010   21.0242 C   0  0  0  0  0  0  0  0  0  0  0  0
   14.3369  -18.6734   20.1558 O   0  0  0  0  0  0  0  0  0  0  0  0
   14.1153  -19.3539   19.1287 C   0  0  0  0  0  0  0  0  0  0  0  0
   11.5558  -16.1425   22.3912 O   0  0  0  0  0  0  0  0  0  0  0  0
   11.8131  -16.9288   23.4932 O   0  0  0  0  0  0  0  0  0  0  0  0
   15.6231  -18.3388   20.5191 O   0  0  0  0  0  0  0  0  0  0  0  0
  2  1  1  1
  2  3  1  0
  4  5  2  0
  4  2  1  0
  6  7  1  0
  7  8  2  0
  7  9  1  0
  9 10  1  0
 10 11  1  0
 13 12  1  1
 12 11  1  0
 13 14  1  0
 14  4  1  0
 15 17  1  0
 15 13  1  0
 16 15  2  0
 18 19  1  1
 18 17  1  0
 19 20  1  0
 20 21  1  0
 21 22  2  0
 23 18  1  0
 24 23  1  0
 25 21  1  0
 26 23  2  0
M  END
$$$$
