ARE.pdb
     RDKit          3D

 26 25  0  0  1  0  0  0  0  0999 V2000
    7.5927  -12.4616   19.2065 C   0  0  0  0  0  0  0  0  0  0  0  0
    8.4499  -13.5600   19.7527 C   0  0  2  0  0  0  0  0  0  0  0  0
    8.5551  -14.6850   18.8475 N   0  0  0  0  0  0  0  0  0  0  0  0
    8.0670  -13.9813   21.1142 C   0  0  0  0  0  0  0  0  0  0  0  0
    8.0747  -13.1095   22.0208 O   0  0  0  0  0  0  0  0  0  0  0  0
    6.2132  -21.1306   24.9674 N   0  0  0  0  0  0  0  0  0  0  0  0
    7.0460  -21.0979   23.8102 C   0  0  0  0  0  0  0  0  0  0  0  0
    8.2548  -21.5595   23.8863 N   0  0  0  0  0  0  0  0  0  0  0  0
    6.5227  -20.5607   22.6131 N   0  0  0  0  0  0  0  0  0  0  0  0
    5.8519  -19.2882   22.5966 C   0  0  0  0  0  0  0  0  0  0  0  0
    6.8247  -18.1791   22.7724 C   0  0  0  0  0  0  0  0  0  0  0  0
    6.2819  -16.8132   22.7354 C   0  0  0  0  0  0  0  0  0  0  0  0
    7.2290  -15.6725   22.8077 C   0  0  2  0  0  0  0  0  0  0  0  0
    7.6935  -15.3044   21.4548 N   0  0  0  0  0  0  0  0  0  0  0  0
    8.3973  -16.0570   23.6455 C   0  0  0  0  0  0  0  0  0  0  0  0
    9.4107  -16.5758   23.1215 O   0  0  0  0  0  0  0  0  0  0  0  0
    8.8387  -21.5421   23.0301 N   0  0  0  0  0  0  0  0  0  0  0  0
    8.4136  -15.8553   25.0536 C   0  0  2  0  0  0  0  0  0  0  0  0
    9.5953  -16.2871   25.8214 C   0  0  0  0  0  0  0  0  0  0  0  0
    9.3344  -16.0187   27.2924 C   0  0  0  0  0  0  0  0  0  0  0  0
    9.0476  -14.5813   27.6009 C   0  0  0  0  0  0  0  0  0  0  0  0
    9.9223  -14.1406   28.7446 O   0  0  0  0  0  0  0  0  0  0  0  0
   10.7568  -14.9252   29.2496 C   0  0  0  0  0  0  0  0  0  0  0  0
    9.9442  -17.6722   25.5137 O   0  0  0  0  0  0  0  0  0  0  0  0
    9.1029  -18.6078   24.9518 O   0  0  0  0  0  0  0  0  0  0  0  0
    9.7816  -12.8551   29.2201 O   0  0  0  0  0  0  0  0  0  0  0  0
  2  1  1  6
  2  3  1  0
  4  5  2  0
  4  2  1  0
  6  7  1  0
  7  8  2  0
  7  9  1  0
  9 10  1  0
 10 11  1  0
 13 12  1  6
 12 11  1  0
 13 14  1  0
 14  4  1  0
 15 17  1  0
 15 13  1  0
 16 15  2  0
 18 19  1  1
 18 17  1  0
 19 20  1  0
 20 21  1  0
 21 22  2  0
 23 18  1  0
 24 23  1  0
 25 21  1  0
 26 23  2  0
M  END
$$$$
