ARE.pdb
     RDKit          3D

 26 25  0  0  1  0  0  0  0  0999 V2000
   12.3399  -22.3946   18.4042 C   0  0  0  0  0  0  0  0  0  0  0  0
   11.6894  -21.1758   17.8290 C   0  0  2  0  0  0  0  0  0  0  0  0
   12.2023  -20.8386   16.5178 N   0  0  0  0  0  0  0  0  0  0  0  0
   11.7043  -20.0165   18.7421 C   0  0  0  0  0  0  0  0  0  0  0  0
   12.7977  -19.4182   18.9110 O   0  0  0  0  0  0  0  0  0  0  0  0
    6.6480  -13.9567   17.8799 N   0  0  0  0  0  0  0  0  0  0  0  0
    7.2321  -13.4301   19.0696 C   0  0  0  0  0  0  0  0  0  0  0  0
    6.9449  -12.2200   19.4345 N   0  0  0  0  0  0  0  0  0  0  0  0
    8.1091  -14.2495   19.8146 N   0  0  0  0  0  0  0  0  0  0  0  0
    8.1482  -15.6739   19.6172 C   0  0  0  0  0  0  0  0  0  0  0  0
    9.1449  -16.3027   20.5219 C   0  0  0  0  0  0  0  0  0  0  0  0
    9.2591  -17.7672   20.4619 C   0  0  0  0  0  0  0  0  0  0  0  0
   10.6101  -18.3674   20.3275 C   0  0  2  0  0  0  0  0  0  0  0  0
   10.5631  -19.5431   19.4347 N   0  0  0  0  0  0  0  0  0  0  0  0
   11.0979  -18.7839   21.6704 C   0  0  0  0  0  0  0  0  0  0  0  0
   11.0969  -19.9935   21.9989 O   0  0  0  0  0  0  0  0  0  0  0  0
    7.4102  -11.8416   20.2799 N   0  0  0  0  0  0  0  0  0  0  0  0
   11.5782  -17.8427   22.6228 C   0  0  2  0  0  0  0  0  0  0  0  0
   12.2191  -18.3388   23.8538 C   0  0  0  0  0  0  0  0  0  0  0  0
   13.6922  -17.9761   23.8061 C   0  0  0  0  0  0  0  0  0  0  0  0
   14.5679  -19.0787   23.2955 C   0  0  0  0  0  0  0  0  0  0  0  0
   15.9751  -18.5621   23.1529 O   0  0  0  0  0  0  0  0  0  0  0  0
   16.2437  -17.3644   23.3986 C   0  0  0  0  0  0  0  0  0  0  0  0
   11.5176  -17.8575   25.0419 O   0  0  0  0  0  0  0  0  0  0  0  0
   11.6510  -18.3658   26.3158 O   0  0  0  0  0  0  0  0  0  0  0  0
   16.9573  -19.4386   22.7461 O   0  0  0  0  0  0  0  0  0  0  0  0
  2  1  1  1
  2  3  1  0
  4  5  2  0
  4  2  1  0
  6  7  1  0
  7  8  2  0
  7  9  1  0
  9 10  1  0
 10 11  1  0
 13 12  1  1
 12 11  1  0
 13 14  1  0
 14  4  1  0
 15 17  1  0
 15 13  1  0
 16 15  2  0
 18 19  1  6
 18 17  1  0
 19 20  1  0
 20 21  1  0
 21 22  2  0
 23 18  1  0
 24 23  1  0
 25 21  1  0
 26 23  2  0
M  END
$$$$
