ARE.pdb
     RDKit          3D

 26 25  0  0  1  0  0  0  0  0999 V2000
    7.6781  -16.7486   26.8795 C   0  0  0  0  0  0  0  0  0  0  0  0
    7.0416  -17.4486   25.7200 C   0  0  2  0  0  0  0  0  0  0  0  0
    6.8715  -18.8674   25.9530 N   0  0  0  0  0  0  0  0  0  0  0  0
    7.7091  -17.1771   24.4322 C   0  0  0  0  0  0  0  0  0  0  0  0
    8.4599  -18.0701   23.9622 O   0  0  0  0  0  0  0  0  0  0  0  0
    8.1418  -15.4284   17.4825 N   0  0  0  0  0  0  0  0  0  0  0  0
    8.0059  -14.0418   17.1781 C   0  0  0  0  0  0  0  0  0  0  0  0
    8.0000  -13.6628   15.9386 N   0  0  0  0  0  0  0  0  0  0  0  0
    7.8815  -13.1226   18.2436 N   0  0  0  0  0  0  0  0  0  0  0  0
    7.1954  -13.4757   19.4577 C   0  0  0  0  0  0  0  0  0  0  0  0
    8.0019  -14.4334   20.2576 C   0  0  0  0  0  0  0  0  0  0  0  0
    7.5292  -14.7165   21.6207 C   0  0  0  0  0  0  0  0  0  0  0  0
    8.2614  -15.7232   22.4293 C   0  0  2  0  0  0  0  0  0  0  0  0
    7.5525  -15.9745   23.7006 N   0  0  0  0  0  0  0  0  0  0  0  0
    9.6317  -15.2191   22.7172 C   0  0  0  0  0  0  0  0  0  0  0  0
    9.9385  -14.8386   23.8713 O   0  0  0  0  0  0  0  0  0  0  0  0
    7.9860  -12.6457   15.7392 N   0  0  0  0  0  0  0  0  0  0  0  0
   10.6353  -15.1488   21.7115 C   0  0  2  0  0  0  0  0  0  0  0  0
   12.0388  -15.3965   22.0872 C   0  0  0  0  0  0  0  0  0  0  0  0
   12.1333  -16.7831   22.6975 C   0  0  0  0  0  0  0  0  0  0  0  0
   12.6461  -16.7881   24.1048 C   0  0  0  0  0  0  0  0  0  0  0  0
   13.1190  -18.1754   24.4500 O   0  0  0  0  0  0  0  0  0  0  0  0
   13.0192  -19.1088   23.6219 C   0  0  0  0  0  0  0  0  0  0  0  0
   12.9332  -15.1745   20.9532 O   0  0  0  0  0  0  0  0  0  0  0  0
   14.2193  -14.6854   21.0269 O   0  0  0  0  0  0  0  0  0  0  0  0
   13.6632  -18.3912   25.6973 O   0  0  0  0  0  0  0  0  0  0  0  0
  2  1  1  1
  2  3  1  0
  4  5  2  0
  4  2  1  0
  6  7  1  0
  7  8  2  0
  7  9  1  0
  9 10  1  0
 10 11  1  0
 13 12  1  6
 12 11  1  0
 13 14  1  0
 14  4  1  0
 15 17  1  0
 15 13  1  0
 16 15  2  0
 18 19  1  1
 18 17  1  0
 19 20  1  0
 20 21  1  0
 21 22  2  0
 23 18  1  0
 24 23  1  0
 25 21  1  0
 26 23  2  0
M  END
$$$$
