ARE.pdb
     RDKit          3D

 26 25  0  0  1  0  0  0  0  0999 V2000
    8.2352  -12.2470   20.1064 C   0  0  0  0  0  0  0  0  0  0  0  0
    8.1075  -13.4418   19.2143 C   0  0  2  0  0  0  0  0  0  0  0  0
    6.7850  -14.0292   19.2584 N   0  0  0  0  0  0  0  0  0  0  0  0
    9.1656  -14.4484   19.4267 C   0  0  0  0  0  0  0  0  0  0  0  0
    8.9131  -15.4095   20.1977 O   0  0  0  0  0  0  0  0  0  0  0  0
   13.0093  -16.3626   12.1450 N   0  0  0  0  0  0  0  0  0  0  0  0
   12.3378  -16.3616   13.4031 C   0  0  0  0  0  0  0  0  0  0  0  0
   11.2816  -17.0969   13.5582 N   0  0  0  0  0  0  0  0  0  0  0  0
   12.8491  -15.5550   14.4440 N   0  0  0  0  0  0  0  0  0  0  0  0
   13.2007  -16.1178   15.7204 C   0  0  0  0  0  0  0  0  0  0  0  0
   12.1142  -15.8969   16.7093 C   0  0  0  0  0  0  0  0  0  0  0  0
   12.5162  -15.3864   18.0282 C   0  0  0  0  0  0  0  0  0  0  0  0
   11.5084  -15.3683   19.1179 C   0  0  2  0  0  0  0  0  0  0  0  0
   10.4416  -14.3929   18.8144 N   0  0  0  0  0  0  0  0  0  0  0  0
   12.1736  -14.9940   20.3955 C   0  0  0  0  0  0  0  0  0  0  0  0
   11.8405  -13.9490   21.0020 O   0  0  0  0  0  0  0  0  0  0  0  0
   10.7865  -17.0543   14.4678 N   0  0  0  0  0  0  0  0  0  0  0  0
   13.1989  -15.7930   20.9734 C   0  0  2  0  0  0  0  0  0  0  0  0
   13.2687  -15.9102   22.4409 C   0  0  0  0  0  0  0  0  0  0  0  0
   11.8926  -16.2898   22.9568 C   0  0  0  0  0  0  0  0  0  0  0  0
   11.8553  -16.5625   24.4291 C   0  0  0  0  0  0  0  0  0  0  0  0
   10.4389  -16.8729   24.8351 O   0  0  0  0  0  0  0  0  0  0  0  0
    9.5142  -16.8556   23.9915 C   0  0  0  0  0  0  0  0  0  0  0  0
   14.3368  -16.8219   22.8448 O   0  0  0  0  0  0  0  0  0  0  0  0
   15.0797  -16.7281   24.0017 O   0  0  0  0  0  0  0  0  0  0  0  0
   10.1867  -17.1757   26.1554 O   0  0  0  0  0  0  0  0  0  0  0  0
  2  1  1  1
  2  3  1  0
  4  5  2  0
  4  2  1  0
  6  7  1  0
  7  8  2  0
  7  9  1  0
  9 10  1  0
 10 11  1  0
 13 12  1  6
 12 11  1  0
 13 14  1  0
 14  4  1  0
 15 17  1  0
 15 13  1  0
 16 15  2  0
 18 19  1  6
 18 17  1  0
 19 20  1  0
 20 21  1  0
 21 22  2  0
 23 18  1  0
 24 23  1  0
 25 21  1  0
 26 23  2  0
M  END
$$$$
