ARE.pdb
     RDKit          3D

 26 25  0  0  1  0  0  0  0  0999 V2000
   10.1077  -13.0577   19.4647 C   0  0  0  0  0  0  0  0  0  0  0  0
    8.6296  -13.2696   19.3648 C   0  0  2  0  0  0  0  0  0  0  0  0
    7.9213  -12.0687   18.9747 N   0  0  0  0  0  0  0  0  0  0  0  0
    8.0431  -13.8894   20.5688 C   0  0  0  0  0  0  0  0  0  0  0  0
    7.6456  -13.1259   21.4860 O   0  0  0  0  0  0  0  0  0  0  0  0
    3.2431  -19.4305   20.7144 N   0  0  0  0  0  0  0  0  0  0  0  0
    3.0847  -19.3312   22.1282 C   0  0  0  0  0  0  0  0  0  0  0  0
    1.9026  -19.1313   22.6208 N   0  0  0  0  0  0  0  0  0  0  0  0
    4.2278  -19.4549   22.9489 N   0  0  0  0  0  0  0  0  0  0  0  0
    5.5526  -19.2897   22.4133 C   0  0  0  0  0  0  0  0  0  0  0  0
    6.0983  -17.9531   22.7640 C   0  0  0  0  0  0  0  0  0  0  0  0
    6.6169  -17.1402   21.6541 C   0  0  0  0  0  0  0  0  0  0  0  0
    7.3240  -15.8746   21.9732 C   0  0  2  0  0  0  0  0  0  0  0  0
    7.9036  -15.2875   20.7481 N   0  0  0  0  0  0  0  0  0  0  0  0
    8.4104  -16.1527   22.9516 C   0  0  0  0  0  0  0  0  0  0  0  0
    9.4734  -16.7030   22.5801 O   0  0  0  0  0  0  0  0  0  0  0  0
    1.7877  -19.1815   23.6497 N   0  0  0  0  0  0  0  0  0  0  0  0
    8.2908  -15.8113   24.3274 C   0  0  2  0  0  0  0  0  0  0  0  0
    9.4189  -16.0952   25.2324 C   0  0  0  0  0  0  0  0  0  0  0  0
    9.2810  -15.2136   26.4603 C   0  0  0  0  0  0  0  0  0  0  0  0
   10.3464  -15.4413   27.4881 C   0  0  0  0  0  0  0  0  0  0  0  0
   10.1374  -14.4847   28.6321 O   0  0  0  0  0  0  0  0  0  0  0  0
    9.2462  -13.6073   28.5764 C   0  0  0  0  0  0  0  0  0  0  0  0
    9.5122  -17.5241   25.5233 O   0  0  0  0  0  0  0  0  0  0  0  0
   10.6800  -18.2359   25.6923 O   0  0  0  0  0  0  0  0  0  0  0  0
   10.9497  -14.5990   29.7391 O   0  0  0  0  0  0  0  0  0  0  0  0
  2  1  1  1
  2  3  1  0
  4  5  2  0
  4  2  1  0
  6  7  1  0
  7  8  2  0
  7  9  1  0
  9 10  1  0
 10 11  1  0
 13 12  1  6
 12 11  1  0
 13 14  1  0
 14  4  1  0
 15 17  1  0
 15 13  1  0
 16 15  2  0
 18 19  1  6
 18 17  1  0
 19 20  1  0
 20 21  1  0
 21 22  2  0
 23 18  1  0
 24 23  1  0
 25 21  1  0
 26 23  2  0
M  END
$$$$
