ARE.pdb
     RDKit          3D

 26 25  0  0  1  0  0  0  0  0999 V2000
    7.0212  -12.8333   20.4293 C   0  0  0  0  0  0  0  0  0  0  0  0
    8.3044  -13.1247   19.7165 C   0  0  2  0  0  0  0  0  0  0  0  0
    8.3032  -12.6436   18.3510 N   0  0  0  0  0  0  0  0  0  0  0  0
    8.7151  -14.5395   19.8025 C   0  0  0  0  0  0  0  0  0  0  0  0
    8.7063  -15.0839   20.9364 O   0  0  0  0  0  0  0  0  0  0  0  0
    8.0287  -20.3350   14.3063 N   0  0  0  0  0  0  0  0  0  0  0  0
    8.9896  -21.1883   14.9245 C   0  0  0  0  0  0  0  0  0  0  0  0
    9.3932  -22.2479   14.2962 N   0  0  0  0  0  0  0  0  0  0  0  0
    9.4721  -20.8485   16.2080 N   0  0  0  0  0  0  0  0  0  0  0  0
    8.8716  -19.7899   16.9749 C   0  0  0  0  0  0  0  0  0  0  0  0
    9.8984  -18.8076   17.4086 C   0  0  0  0  0  0  0  0  0  0  0  0
    9.4725  -17.4031   17.4960 C   0  0  0  0  0  0  0  0  0  0  0  0
    9.5459  -16.7214   18.8125 C   0  0  2  0  0  0  0  0  0  0  0  0
    9.1163  -15.3138   18.6864 N   0  0  0  0  0  0  0  0  0  0  0  0
   10.9468  -16.7692   19.3126 C   0  0  0  0  0  0  0  0  0  0  0  0
   11.8241  -16.0256   18.8145 O   0  0  0  0  0  0  0  0  0  0  0  0
   10.1278  -22.8286   14.7406 N   0  0  0  0  0  0  0  0  0  0  0  0
   11.3432  -17.6464   20.3599 C   0  0  2  0  0  0  0  0  0  0  0  0
   12.7335  -17.5923   20.8465 C   0  0  0  0  0  0  0  0  0  0  0  0
   12.7213  -17.0751   22.2734 C   0  0  0  0  0  0  0  0  0  0  0  0
   14.0769  -16.7038   22.7912 C   0  0  0  0  0  0  0  0  0  0  0  0
   13.9473  -16.2387   24.2174 O   0  0  0  0  0  0  0  0  0  0  0  0
   14.9581  -15.8976   24.8724 C   0  0  0  0  0  0  0  0  0  0  0  0
   13.3995  -18.8820   20.6781 O   0  0  0  0  0  0  0  0  0  0  0  0
   14.7571  -19.1029   20.7605 O   0  0  0  0  0  0  0  0  0  0  0  0
   12.6912  -16.1981   24.7823 O   0  0  0  0  0  0  0  0  0  0  0  0
  2  1  1  6
  2  3  1  0
  4  5  2  0
  4  2  1  0
  6  7  1  0
  7  8  2  0
  7  9  1  0
  9 10  1  0
 10 11  1  0
 13 12  1  6
 12 11  1  0
 13 14  1  0
 14  4  1  0
 15 17  1  0
 15 13  1  0
 16 15  2  0
 18 19  1  1
 18 17  1  0
 19 20  1  0
 20 21  1  0
 21 22  2  0
 23 18  1  0
 24 23  1  0
 25 21  1  0
 26 23  2  0
M  END
$$$$
