DMW.pdb
     RDKit          3D

 31 32  0  0  1  0  0  0  0  0999 V2000
   23.8559  -18.3234  -16.8926 N   0  0  0  0  0  0  0  0  0  0  0  0
   24.6457  -19.1550  -16.0407 C   0  0  1  0  0  0  0  0  0  0  0  0
   26.1171  -18.7772  -16.1780 C   0  0  0  0  0  0  0  0  0  0  0  0
   26.6891  -19.1696  -17.4846 C   0  0  0  0  0  0  0  0  0  0  0  0
   26.0139  -19.6972  -18.4014 O   0  0  0  0  0  0  0  0  0  0  0  0
   24.2988  -19.0910  -14.6032 C   0  0  0  0  0  0  0  0  0  0  0  0
   24.2750  -17.9236  -14.0925 O   0  0  0  0  0  0  0  0  0  0  0  0
   28.0349  -18.9585  -17.7422 O   0  0  0  0  0  0  0  0  0  0  0  0
   19.7316  -22.8626  -12.6188 C   0  0  0  0  0  0  0  0  0  0  0  0
   19.6385  -21.1061  -12.4220 S   0  0  0  0  0  0  0  0  0  0  0  0
   21.1509  -20.1854  -12.5699 C   0  0  0  0  0  0  0  0  0  0  0  0
   22.3885  -20.9306  -12.1838 C   0  0  0  0  0  0  0  0  0  0  0  0
   23.6248  -20.1197  -12.3830 C   0  0  2  0  0  0  0  0  0  0  0  0
   24.0005  -20.2055  -13.7819 N   0  0  0  0  0  0  0  0  0  0  0  0
   24.7017  -20.7878  -11.5325 C   0  0  0  0  0  0  0  0  0  0  0  0
   25.1091  -21.9197  -11.8486 O   0  0  0  0  0  0  0  0  0  0  0  0
   25.2302  -20.1323  -10.4072 N   0  0  0  0  0  0  0  0  0  0  0  0
   26.2137  -20.7526   -9.4912 C   0  0  1  0  0  0  0  0  0  0  0  0
   26.8352  -19.5850   -8.6924 C   0  0  0  0  0  0  0  0  0  0  0  0
   27.8784  -20.0775   -7.7859 C   0  0  0  0  0  0  0  0  0  0  0  0
   28.7641  -21.1168   -7.9489 C   0  0  0  0  0  0  0  0  0  0  0  0
   29.5586  -21.1880   -6.8676 N   0  0  0  0  0  0  0  0  0  0  0  0
   29.2149  -20.2254   -6.0070 C   0  0  0  0  0  0  0  0  0  0  0  0
   29.7776  -19.9322   -4.7706 C   0  0  0  0  0  0  0  0  0  0  0  0
   29.2447  -18.8727   -4.0723 C   0  0  0  0  0  0  0  0  0  0  0  0
   28.1939  -18.1546   -4.6120 C   0  0  0  0  0  0  0  0  0  0  0  0
   27.6483  -18.4599   -5.8406 C   0  0  0  0  0  0  0  0  0  0  0  0
   28.1744  -19.5172   -6.5466 C   0  0  0  0  0  0  0  0  0  0  0  0
   25.4189  -21.5162   -8.5174 C   0  0  0  0  0  0  0  0  0  0  0  0
   24.0692  -21.4226   -8.3754 O   0  0  0  0  0  0  0  0  0  0  0  0
   26.0056  -22.3374   -7.7321 O   0  0  0  0  0  0  0  0  0  0  0  0
  2  1  1  6
  2  6  1  0
  2  3  1  0
  3  4  1  0
  4  8  1  0
  5  4  2  0
  6  7  2  0
  9 10  1  0
 11 10  1  0
 11 12  1  0
 13 14  1  0
 13 12  1  6
 14  6  1  0
 15 13  1  0
 16 15  2  0
 17 15  1  0
 18 17  1  0
 18 19  1  1
 19 20  1  0
 20 21  2  0
 21 22  1  0
 23 24  2  0
 23 22  1  0
 25 24  1  0
 26 25  2  0
 27 26  1  0
 27 28  2  0
 28 20  1  0
 28 23  1  0
 29 18  1  0
 29 30  1  0
 31 29  2  0
M  END
$$$$
