DMW.pdb
     RDKit          3D

 31 32  0  0  1  0  0  0  0  0999 V2000
   23.4593  -18.2950  -14.9855 N   0  0  0  0  0  0  0  0  0  0  0  0
   22.6781  -18.7228  -13.8684 C   0  0  1  0  0  0  0  0  0  0  0  0
   21.2712  -19.0821  -14.3354 C   0  0  0  0  0  0  0  0  0  0  0  0
   20.6258  -17.9916  -15.0987 C   0  0  0  0  0  0  0  0  0  0  0  0
   21.2231  -16.9415  -15.4382 O   0  0  0  0  0  0  0  0  0  0  0  0
   23.2181  -19.8890  -13.1341 C   0  0  0  0  0  0  0  0  0  0  0  0
   22.4146  -20.4476  -12.3176 O   0  0  0  0  0  0  0  0  0  0  0  0
   19.2956  -18.1025  -15.4734 O   0  0  0  0  0  0  0  0  0  0  0  0
   23.4932  -25.5051  -15.3754 C   0  0  0  0  0  0  0  0  0  0  0  0
   24.4228  -24.6482  -14.1368 S   0  0  0  0  0  0  0  0  0  0  0  0
   25.0282  -23.0280  -14.5437 C   0  0  0  0  0  0  0  0  0  0  0  0
   25.8582  -22.3756  -13.4847 C   0  0  0  0  0  0  0  0  0  0  0  0
   25.0385  -21.5566  -12.5452 C   0  0  2  0  0  0  0  0  0  0  0  0
   24.5275  -20.4103  -13.2733 N   0  0  0  0  0  0  0  0  0  0  0  0
   26.0022  -21.0751  -11.4640 C   0  0  0  0  0  0  0  0  0  0  0  0
   27.1978  -20.8926  -11.7544 O   0  0  0  0  0  0  0  0  0  0  0  0
   25.5456  -20.8372  -10.1563 N   0  0  0  0  0  0  0  0  0  0  0  0
   26.3314  -21.1698   -8.9467 C   0  0  1  0  0  0  0  0  0  0  0  0
   27.1252  -19.8904   -8.5991 C   0  0  0  0  0  0  0  0  0  0  0  0
   28.2894  -20.2154   -7.7677 C   0  0  0  0  0  0  0  0  0  0  0  0
   29.3802  -21.0025   -8.0536 C   0  0  0  0  0  0  0  0  0  0  0  0
   30.2143  -20.9936   -7.0001 N   0  0  0  0  0  0  0  0  0  0  0  0
   29.6972  -20.2237   -6.0383 C   0  0  0  0  0  0  0  0  0  0  0  0
   30.2295  -19.9300   -4.7886 C   0  0  0  0  0  0  0  0  0  0  0  0
   29.4995  -19.0940   -3.9746 C   0  0  0  0  0  0  0  0  0  0  0  0
   28.2919  -18.5878   -4.4178 C   0  0  0  0  0  0  0  0  0  0  0  0
   27.7794  -18.8899   -5.6613 C   0  0  0  0  0  0  0  0  0  0  0  0
   28.5018  -19.7247   -6.4826 C   0  0  0  0  0  0  0  0  0  0  0  0
   25.3455  -21.3264   -7.8666 C   0  0  0  0  0  0  0  0  0  0  0  0
   24.0381  -20.9603   -7.9517 O   0  0  0  0  0  0  0  0  0  0  0  0
   25.7080  -21.8411   -6.7535 O   0  0  0  0  0  0  0  0  0  0  0  0
  2  1  1  6
  2  6  1  0
  2  3  1  0
  3  4  1  0
  4  8  1  0
  5  4  2  0
  6  7  2  0
  9 10  1  0
 11 10  1  0
 11 12  1  0
 13 14  1  0
 13 12  1  6
 14  6  1  0
 15 13  1  0
 16 15  2  0
 17 15  1  0
 18 17  1  0
 18 19  1  1
 19 20  1  0
 20 21  2  0
 21 22  1  0
 23 24  2  0
 23 22  1  0
 25 24  1  0
 26 25  2  0
 27 26  1  0
 27 28  2  0
 28 20  1  0
 28 23  1  0
 29 18  1  0
 29 30  1  0
 31 29  2  0
M  END
$$$$
