DMW.pdb
     RDKit          3D

 31 32  0  0  1  0  0  0  0  0999 V2000
   27.5666  -17.8725  -16.5545 N   0  0  0  0  0  0  0  0  0  0  0  0
   27.1263  -19.1376  -17.0513 C   0  0  1  0  0  0  0  0  0  0  0  0
   28.3213  -19.9228  -17.5822 C   0  0  0  0  0  0  0  0  0  0  0  0
   29.1511  -19.1367  -18.5212 C   0  0  0  0  0  0  0  0  0  0  0  0
   30.3982  -19.2518  -18.6003 O   0  0  0  0  0  0  0  0  0  0  0  0
   26.4310  -19.9929  -16.0634 C   0  0  0  0  0  0  0  0  0  0  0  0
   25.9225  -21.0669  -16.5241 O   0  0  0  0  0  0  0  0  0  0  0  0
   28.5536  -18.2178  -19.3701 O   0  0  0  0  0  0  0  0  0  0  0  0
   24.6919  -21.2581   -8.3494 C   0  0  0  0  0  0  0  0  0  0  0  0
   25.5794  -20.4322   -9.6389 S   0  0  0  0  0  0  0  0  0  0  0  0
   25.1710  -20.8581  -11.3149 C   0  0  0  0  0  0  0  0  0  0  0  0
   25.9423  -20.1219  -12.3633 C   0  0  0  0  0  0  0  0  0  0  0  0
   25.5404  -20.5156  -13.7450 C   0  0  2  0  0  0  0  0  0  0  0  0
   26.2969  -19.7071  -14.6828 N   0  0  0  0  0  0  0  0  0  0  0  0
   24.0592  -20.1662  -13.8626 C   0  0  0  0  0  0  0  0  0  0  0  0
   23.6742  -19.0335  -13.5225 O   0  0  0  0  0  0  0  0  0  0  0  0
   23.1406  -21.1106  -14.3519 N   0  0  0  0  0  0  0  0  0  0  0  0
   21.6919  -20.8404  -14.4912 C   0  0  1  0  0  0  0  0  0  0  0  0
   21.2097  -21.7357  -15.6547 C   0  0  0  0  0  0  0  0  0  0  0  0
   19.7889  -21.4991  -15.9333 C   0  0  0  0  0  0  0  0  0  0  0  0
   19.1205  -20.3158  -16.1428 C   0  0  0  0  0  0  0  0  0  0  0  0
   17.8266  -20.5819  -16.3891 N   0  0  0  0  0  0  0  0  0  0  0  0
   17.6351  -21.9035  -16.3456 C   0  0  0  0  0  0  0  0  0  0  0  0
   16.4568  -22.6118  -16.5494 C   0  0  0  0  0  0  0  0  0  0  0  0
   16.5237  -23.9834  -16.4586 C   0  0  0  0  0  0  0  0  0  0  0  0
   17.7310  -24.5940  -16.1748 C   0  0  0  0  0  0  0  0  0  0  0  0
   18.8903  -23.8750  -15.9758 C   0  0  0  0  0  0  0  0  0  0  0  0
   18.8338  -22.5030  -16.0648 C   0  0  0  0  0  0  0  0  0  0  0  0
   21.0685  -21.3982  -13.2815 C   0  0  0  0  0  0  0  0  0  0  0  0
   19.9027  -20.9569  -12.7367 O   0  0  0  0  0  0  0  0  0  0  0  0
   21.6349  -22.3696  -12.6725 O   0  0  0  0  0  0  0  0  0  0  0  0
  2  1  1  1
  2  6  1  0
  2  3  1  0
  3  4  1  0
  4  8  1  0
  5  4  2  0
  6  7  2  0
  9 10  1  0
 11 10  1  0
 11 12  1  0
 13 14  1  0
 13 12  1  1
 14  6  1  0
 15 13  1  0
 16 15  2  0
 17 15  1  0
 18 17  1  0
 18 19  1  6
 19 20  1  0
 20 21  2  0
 21 22  1  0
 23 24  2  0
 23 22  1  0
 25 24  1  0
 26 25  2  0
 27 26  1  0
 27 28  2  0
 28 20  1  0
 28 23  1  0
 29 18  1  0
 29 30  1  0
 31 29  2  0
M  END
$$$$
