DMW.pdb
     RDKit          3D

 31 32  0  0  1  0  0  0  0  0999 V2000
   27.1254  -20.6017  -17.7957 N   0  0  0  0  0  0  0  0  0  0  0  0
   26.0238  -19.9699  -18.4504 C   0  0  1  0  0  0  0  0  0  0  0  0
   24.7144  -20.4933  -17.8688 C   0  0  0  0  0  0  0  0  0  0  0  0
   23.8491  -21.1276  -18.8872 C   0  0  0  0  0  0  0  0  0  0  0  0
   24.1519  -21.1943  -20.1032 O   0  0  0  0  0  0  0  0  0  0  0  0
   25.9986  -18.4931  -18.3536 C   0  0  0  0  0  0  0  0  0  0  0  0
   25.7750  -18.0198  -17.1916 O   0  0  0  0  0  0  0  0  0  0  0  0
   22.6362  -21.6859  -18.5140 O   0  0  0  0  0  0  0  0  0  0  0  0
   31.5953  -15.4269  -18.8545 C   0  0  0  0  0  0  0  0  0  0  0  0
   30.1192  -15.2029  -19.8049 S   0  0  0  0  0  0  0  0  0  0  0  0
   28.5898  -15.7434  -19.0797 C   0  0  0  0  0  0  0  0  0  0  0  0
   27.3857  -15.5977  -19.9542 C   0  0  0  0  0  0  0  0  0  0  0  0
   26.1538  -16.1518  -19.3209 C   0  0  2  0  0  0  0  0  0  0  0  0
   26.2002  -17.5978  -19.4322 N   0  0  0  0  0  0  0  0  0  0  0  0
   24.9863  -15.6222  -20.1493 C   0  0  0  0  0  0  0  0  0  0  0  0
   24.7317  -16.1505  -21.2462 O   0  0  0  0  0  0  0  0  0  0  0  0
   24.2054  -14.5528  -19.6787 N   0  0  0  0  0  0  0  0  0  0  0  0
   23.0811  -13.9676  -20.4435 C   0  0  1  0  0  0  0  0  0  0  0  0
   21.8776  -14.9061  -20.2012 C   0  0  0  0  0  0  0  0  0  0  0  0
   21.7407  -15.2114  -18.7728 C   0  0  0  0  0  0  0  0  0  0  0  0
   21.6811  -14.3597  -17.6948 C   0  0  0  0  0  0  0  0  0  0  0  0
   21.5266  -15.0837  -16.5733 N   0  0  0  0  0  0  0  0  0  0  0  0
   21.4841  -16.3807  -16.8915 C   0  0  0  0  0  0  0  0  0  0  0  0
   21.3277  -17.4720  -16.0453 C   0  0  0  0  0  0  0  0  0  0  0  0
   21.3062  -18.7198  -16.6254 C   0  0  0  0  0  0  0  0  0  0  0  0
   21.4377  -18.8413  -17.9962 C   0  0  0  0  0  0  0  0  0  0  0  0
   21.5918  -17.7471  -18.8204 C   0  0  0  0  0  0  0  0  0  0  0  0
   21.6142  -16.4951  -18.2499 C   0  0  0  0  0  0  0  0  0  0  0  0
   22.7460  -12.7125  -19.7540 C   0  0  0  0  0  0  0  0  0  0  0  0
   23.3211  -12.2865  -18.5971 O   0  0  0  0  0  0  0  0  0  0  0  0
   21.8551  -11.9406  -20.2498 O   0  0  0  0  0  0  0  0  0  0  0  0
  2  1  1  1
  2  6  1  0
  2  3  1  0
  3  4  1  0
  4  8  1  0
  5  4  2  0
  6  7  2  0
  9 10  1  0
 11 10  1  0
 11 12  1  0
 13 14  1  0
 13 12  1  6
 14  6  1  0
 15 13  1  0
 16 15  2  0
 17 15  1  0
 18 17  1  0
 18 19  1  1
 19 20  1  0
 20 21  2  0
 21 22  1  0
 23 24  2  0
 23 22  1  0
 25 24  1  0
 26 25  2  0
 27 26  1  0
 27 28  2  0
 28 20  1  0
 28 23  1  0
 29 18  1  0
 29 30  1  0
 31 29  2  0
M  END
$$$$
