DMW.pdb
     RDKit          3D

 31 32  0  0  1  0  0  0  0  0999 V2000
   26.3966  -19.7818  -17.9912 N   0  0  0  0  0  0  0  0  0  0  0  0
   27.1743  -19.5697  -16.8116 C   0  0  1  0  0  0  0  0  0  0  0  0
   28.1768  -18.4461  -17.0549 C   0  0  0  0  0  0  0  0  0  0  0  0
   29.1947  -18.7970  -18.0692 C   0  0  0  0  0  0  0  0  0  0  0  0
   30.1881  -18.0747  -18.3264 O   0  0  0  0  0  0  0  0  0  0  0  0
   26.3970  -19.2225  -15.6008 C   0  0  0  0  0  0  0  0  0  0  0  0
   26.1118  -17.9880  -15.4630 O   0  0  0  0  0  0  0  0  0  0  0  0
   29.0758  -19.9753  -18.7901 O   0  0  0  0  0  0  0  0  0  0  0  0
   20.8707  -17.2511  -15.7018 C   0  0  0  0  0  0  0  0  0  0  0  0
   21.6289  -18.5126  -14.7187 S   0  0  0  0  0  0  0  0  0  0  0  0
   23.0101  -19.3794  -15.4243 C   0  0  0  0  0  0  0  0  0  0  0  0
   23.5994  -20.4470  -14.5587 C   0  0  0  0  0  0  0  0  0  0  0  0
   24.7825  -19.9646  -13.7886 C   0  0  2  0  0  0  0  0  0  0  0  0
   25.9619  -20.1416  -14.6150 N   0  0  0  0  0  0  0  0  0  0  0  0
   24.8838  -20.8759  -12.5683 C   0  0  0  0  0  0  0  0  0  0  0  0
   24.8427  -22.1089  -12.7267 O   0  0  0  0  0  0  0  0  0  0  0  0
   25.0250  -20.3304  -11.2808 N   0  0  0  0  0  0  0  0  0  0  0  0
   25.0150  -21.1462  -10.0456 C   0  0  1  0  0  0  0  0  0  0  0  0
   25.6379  -20.2527   -8.9496 C   0  0  0  0  0  0  0  0  0  0  0  0
   27.0876  -20.4644   -8.8734 C   0  0  0  0  0  0  0  0  0  0  0  0
   27.9256  -21.1226   -9.7427 C   0  0  0  0  0  0  0  0  0  0  0  0
   29.1851  -21.0426   -9.2811 N   0  0  0  0  0  0  0  0  0  0  0  0
   29.1896  -20.3516   -8.1376 C   0  0  0  0  0  0  0  0  0  0  0  0
   30.2733  -20.0252   -7.3311 C   0  0  0  0  0  0  0  0  0  0  0  0
   30.0145  -19.2890   -6.1974 C   0  0  0  0  0  0  0  0  0  0  0  0
   28.7173  -18.9091   -5.9076 C   0  0  0  0  0  0  0  0  0  0  0  0
   27.6543  -19.2419   -6.7197 C   0  0  0  0  0  0  0  0  0  0  0  0
   27.9028  -19.9776   -7.8557 C   0  0  0  0  0  0  0  0  0  0  0  0
   23.5979  -21.2885   -9.6785 C   0  0  0  0  0  0  0  0  0  0  0  0
   23.1284  -22.1186   -8.7084 O   0  0  0  0  0  0  0  0  0  0  0  0
   22.7159  -20.5968  -10.2940 O   0  0  0  0  0  0  0  0  0  0  0  0
  2  1  1  6
  2  6  1  0
  2  3  1  0
  3  4  1  0
  4  8  1  0
  5  4  2  0
  6  7  2  0
  9 10  1  0
 11 10  1  0
 11 12  1  0
 13 14  1  0
 13 12  1  6
 14  6  1  0
 15 13  1  0
 16 15  2  0
 17 15  1  0
 18 17  1  0
 18 19  1  1
 19 20  1  0
 20 21  2  0
 21 22  1  0
 23 24  2  0
 23 22  1  0
 25 24  1  0
 26 25  2  0
 27 26  1  0
 27 28  2  0
 28 20  1  0
 28 23  1  0
 29 18  1  0
 29 30  1  0
 31 29  2  0
M  END
$$$$
