DMW.pdb
     RDKit          3D

 31 32  0  0  1  0  0  0  0  0999 V2000
   20.5662  -21.4469  -13.8811 N   0  0  0  0  0  0  0  0  0  0  0  0
   21.5280  -20.5141  -13.3851 C   0  0  1  0  0  0  0  0  0  0  0  0
   20.9180  -19.7093  -12.2420 C   0  0  0  0  0  0  0  0  0  0  0  0
   19.8631  -18.7776  -12.6973 C   0  0  0  0  0  0  0  0  0  0  0  0
   19.1930  -18.0608  -11.9151 O   0  0  0  0  0  0  0  0  0  0  0  0
   22.7870  -21.1140  -12.8891 C   0  0  0  0  0  0  0  0  0  0  0  0
   22.6556  -22.0115  -11.9939 O   0  0  0  0  0  0  0  0  0  0  0  0
   19.5746  -18.6661  -14.0487 O   0  0  0  0  0  0  0  0  0  0  0  0
   28.5370  -22.5050  -16.2645 C   0  0  0  0  0  0  0  0  0  0  0  0
   28.9351  -21.8724  -14.6602 S   0  0  0  0  0  0  0  0  0  0  0  0
   27.6492  -21.8850  -13.4341 C   0  0  0  0  0  0  0  0  0  0  0  0
   26.3353  -21.3323  -13.8859 C   0  0  0  0  0  0  0  0  0  0  0  0
   25.3136  -21.3366  -12.7989 C   0  0  2  0  0  0  0  0  0  0  0  0
   24.0881  -20.7684  -13.3288 N   0  0  0  0  0  0  0  0  0  0  0  0
   25.8619  -20.4189  -11.7095 C   0  0  0  0  0  0  0  0  0  0  0  0
   25.8425  -19.1879  -11.8866 O   0  0  0  0  0  0  0  0  0  0  0  0
   26.3800  -20.9561  -10.5186 N   0  0  0  0  0  0  0  0  0  0  0  0
   27.1775  -20.1701   -9.5504 C   0  0  1  0  0  0  0  0  0  0  0  0
   26.6551  -20.5740   -8.1534 C   0  0  0  0  0  0  0  0  0  0  0  0
   27.2360  -19.7136   -7.1167 C   0  0  0  0  0  0  0  0  0  0  0  0
   27.1224  -18.3548   -6.9383 C   0  0  0  0  0  0  0  0  0  0  0  0
   27.8047  -17.9997   -5.8364 N   0  0  0  0  0  0  0  0  0  0  0  0
   28.3581  -19.0882   -5.2940 C   0  0  0  0  0  0  0  0  0  0  0  0
   29.1375  -19.1794   -4.1469 C   0  0  0  0  0  0  0  0  0  0  0  0
   29.5850  -20.4305   -3.7884 C   0  0  0  0  0  0  0  0  0  0  0  0
   29.2517  -21.5261   -4.5627 C   0  0  0  0  0  0  0  0  0  0  0  0
   28.4770  -21.4167   -5.6977 C   0  0  0  0  0  0  0  0  0  0  0  0
   28.0245  -20.1700   -6.0644 C   0  0  0  0  0  0  0  0  0  0  0  0
   28.5423  -20.7119   -9.6316 C   0  0  0  0  0  0  0  0  0  0  0  0
   28.8508  -21.9816  -10.0102 O   0  0  0  0  0  0  0  0  0  0  0  0
   29.5353  -19.9634   -9.3332 O   0  0  0  0  0  0  0  0  0  0  0  0
  2  1  1  1
  2  6  1  0
  2  3  1  0
  3  4  1  0
  4  8  1  0
  5  4  2  0
  6  7  2  0
  9 10  1  0
 11 10  1  0
 11 12  1  0
 13 14  1  0
 13 12  1  6
 14  6  1  0
 15 13  1  0
 16 15  2  0
 17 15  1  0
 18 17  1  0
 18 19  1  1
 19 20  1  0
 20 21  2  0
 21 22  1  0
 23 24  2  0
 23 22  1  0
 25 24  1  0
 26 25  2  0
 27 26  1  0
 27 28  2  0
 28 20  1  0
 28 23  1  0
 29 18  1  0
 29 30  1  0
 31 29  2  0
M  END
$$$$
