DMW.pdb
     RDKit          3D

 31 32  0  0  1  0  0  0  0  0999 V2000
   28.8229  -21.9914  -18.5673 N   0  0  0  0  0  0  0  0  0  0  0  0
   29.1321  -22.5857  -17.3054 C   0  0  1  0  0  0  0  0  0  0  0  0
   30.6370  -22.8117  -17.2014 C   0  0  0  0  0  0  0  0  0  0  0  0
   31.1479  -23.7449  -18.2291 C   0  0  0  0  0  0  0  0  0  0  0  0
   30.4214  -24.2615  -19.1124 O   0  0  0  0  0  0  0  0  0  0  0  0
   28.7139  -21.8010  -16.1222 C   0  0  0  0  0  0  0  0  0  0  0  0
   28.9935  -22.3167  -14.9908 O   0  0  0  0  0  0  0  0  0  0  0  0
   32.4912  -24.0876  -18.2462 O   0  0  0  0  0  0  0  0  0  0  0  0
   26.7719  -15.2424  -16.0919 C   0  0  0  0  0  0  0  0  0  0  0  0
   25.9460  -16.0679  -14.7619 S   0  0  0  0  0  0  0  0  0  0  0  0
   26.5297  -17.6857  -14.3155 C   0  0  0  0  0  0  0  0  0  0  0  0
   27.1083  -18.4846  -15.4393 C   0  0  0  0  0  0  0  0  0  0  0  0
   27.6122  -19.8148  -14.9896 C   0  0  2  0  0  0  0  0  0  0  0  0
   28.0444  -20.5536  -16.1612 N   0  0  0  0  0  0  0  0  0  0  0  0
   26.4138  -20.5233  -14.3637 C   0  0  0  0  0  0  0  0  0  0  0  0
   25.4940  -20.9240  -15.0989 O   0  0  0  0  0  0  0  0  0  0  0  0
   26.3500  -20.7242  -12.9742 N   0  0  0  0  0  0  0  0  0  0  0  0
   25.2907  -21.5205  -12.3148 C   0  0  1  0  0  0  0  0  0  0  0  0
   25.9789  -22.2286  -11.1262 C   0  0  0  0  0  0  0  0  0  0  0  0
   26.2393  -21.2778  -10.0396 C   0  0  0  0  0  0  0  0  0  0  0  0
   25.3742  -20.4292   -9.3895 C   0  0  0  0  0  0  0  0  0  0  0  0
   26.0493  -19.7593   -8.4403 N   0  0  0  0  0  0  0  0  0  0  0  0
   27.3276  -20.1480   -8.4548 C   0  0  0  0  0  0  0  0  0  0  0  0
   28.3688  -19.7203   -7.6398 C   0  0  0  0  0  0  0  0  0  0  0  0
   29.6054  -20.2867   -7.8497 C   0  0  0  0  0  0  0  0  0  0  0  0
   29.7648  -21.2383   -8.8397 C   0  0  0  0  0  0  0  0  0  0  0  0
   28.7200  -21.6508   -9.6388 C   0  0  0  0  0  0  0  0  0  0  0  0
   27.4796  -21.0906   -9.4365 C   0  0  0  0  0  0  0  0  0  0  0  0
   24.3768  -20.5386  -11.7118 C   0  0  0  0  0  0  0  0  0  0  0  0
   23.1169  -20.8158  -11.2800 O   0  0  0  0  0  0  0  0  0  0  0  0
   24.7612  -19.3277  -11.5663 O   0  0  0  0  0  0  0  0  0  0  0  0
  2  1  1  6
  2  6  1  0
  2  3  1  0
  3  4  1  0
  4  8  1  0
  5  4  2  0
  6  7  2  0
  9 10  1  0
 11 10  1  0
 11 12  1  0
 13 14  1  0
 13 12  1  6
 14  6  1  0
 15 13  1  0
 16 15  2  0
 17 15  1  0
 18 17  1  0
 18 19  1  1
 19 20  1  0
 20 21  2  0
 21 22  1  0
 23 24  2  0
 23 22  1  0
 25 24  1  0
 26 25  2  0
 27 26  1  0
 27 28  2  0
 28 20  1  0
 28 23  1  0
 29 18  1  0
 29 30  1  0
 31 29  2  0
M  END
$$$$
