DMW.pdb
     RDKit          3D

 31 32  0  0  1  0  0  0  0  0999 V2000
   32.5673    5.0242   -9.3387 N   0  0  0  0  0  0  0  0  0  0  0  0
   32.4014    4.5487   -8.0017 C   0  0  1  0  0  0  0  0  0  0  0  0
   31.6385    3.2280   -8.0193 C   0  0  0  0  0  0  0  0  0  0  0  0
   30.2921    3.3529   -8.6189 C   0  0  0  0  0  0  0  0  0  0  0  0
   29.4140    4.1363   -8.1830 O   0  0  0  0  0  0  0  0  0  0  0  0
   33.6589    4.3301   -7.2523 C   0  0  0  0  0  0  0  0  0  0  0  0
   34.5689    3.6913   -7.8753 O   0  0  0  0  0  0  0  0  0  0  0  0
   29.9498    2.5805   -9.7182 O   0  0  0  0  0  0  0  0  0  0  0  0
   38.6685    7.0659   -1.7834 C   0  0  0  0  0  0  0  0  0  0  0  0
   37.1457    7.1114   -2.6841 S   0  0  0  0  0  0  0  0  0  0  0  0
   36.7295    5.6854   -3.6591 C   0  0  0  0  0  0  0  0  0  0  0  0
   35.4292    5.7745   -4.3921 C   0  0  0  0  0  0  0  0  0  0  0  0
   35.1590    4.5621   -5.2182 C   0  0  2  0  0  0  0  0  0  0  0  0
   33.9116    4.7695   -5.9299 N   0  0  0  0  0  0  0  0  0  0  0  0
   34.9863    3.4140   -4.2274 C   0  0  0  0  0  0  0  0  0  0  0  0
   34.0428    3.4482   -3.4176 O   0  0  0  0  0  0  0  0  0  0  0  0
   35.8795    2.3290   -4.2306 N   0  0  0  0  0  0  0  0  0  0  0  0
   35.7610    1.1745   -3.3117 C   0  0  1  0  0  0  0  0  0  0  0  0
   35.3824   -0.0308   -4.2015 C   0  0  0  0  0  0  0  0  0  0  0  0
   35.2563   -1.2490   -3.3939 C   0  0  0  0  0  0  0  0  0  0  0  0
   34.4683   -1.4957   -2.2942 C   0  0  0  0  0  0  0  0  0  0  0  0
   34.6595   -2.7643   -1.8947 N   0  0  0  0  0  0  0  0  0  0  0  0
   35.5486   -3.3489   -2.7028 C   0  0  0  0  0  0  0  0  0  0  0  0
   36.0288   -4.6523   -2.6581 C   0  0  0  0  0  0  0  0  0  0  0  0
   36.9427   -5.0192   -3.6195 C   0  0  0  0  0  0  0  0  0  0  0  0
   37.3412   -4.1010   -4.5730 C   0  0  0  0  0  0  0  0  0  0  0  0
   36.8538   -2.8118   -4.6020 C   0  0  0  0  0  0  0  0  0  0  0  0
   35.9394   -2.4354   -3.6451 C   0  0  0  0  0  0  0  0  0  0  0  0
   37.1278    0.9024   -2.8419 C   0  0  0  0  0  0  0  0  0  0  0  0
   37.4379    0.3508   -1.6376 O   0  0  0  0  0  0  0  0  0  0  0  0
   38.1209    1.1913   -3.5939 O   0  0  0  0  0  0  0  0  0  0  0  0
  2  1  1  6
  2  6  1  0
  2  3  1  0
  3  4  1  0
  4  8  1  0
  5  4  2  0
  6  7  2  0
  9 10  1  0
 11 10  1  0
 11 12  1  0
 13 14  1  0
 13 12  1  1
 14  6  1  0
 15 13  1  0
 16 15  2  0
 17 15  1  0
 18 17  1  0
 18 19  1  6
 19 20  1  0
 20 21  2  0
 21 22  1  0
 23 24  2  0
 23 22  1  0
 25 24  1  0
 26 25  2  0
 27 26  1  0
 27 28  2  0
 28 20  1  0
 28 23  1  0
 29 18  1  0
 29 30  1  0
 31 29  2  0
M  END
$$$$
