DMW.pdb
     RDKit          3D

 31 32  0  0  1  0  0  0  0  0999 V2000
   24.7251  -23.7907  -21.1543 N   0  0  0  0  0  0  0  0  0  0  0  0
   24.2477  -22.4853  -20.8237 C   0  0  1  0  0  0  0  0  0  0  0  0
   24.3493  -21.5786  -22.0460 C   0  0  0  0  0  0  0  0  0  0  0  0
   25.1232  -20.3459  -21.7813 C   0  0  0  0  0  0  0  0  0  0  0  0
   25.7510  -20.1428  -20.7139 O   0  0  0  0  0  0  0  0  0  0  0  0
   22.8497  -22.4315  -20.3406 C   0  0  0  0  0  0  0  0  0  0  0  0
   22.0046  -21.9279  -21.1509 O   0  0  0  0  0  0  0  0  0  0  0  0
   25.1786  -19.3447  -22.7387 O   0  0  0  0  0  0  0  0  0  0  0  0
   16.3759  -24.3817  -19.1899 C   0  0  0  0  0  0  0  0  0  0  0  0
   18.1116  -24.1288  -19.4263 S   0  0  0  0  0  0  0  0  0  0  0  0
   19.1820  -24.4647  -18.0484 C   0  0  0  0  0  0  0  0  0  0  0  0
   20.6431  -24.3109  -18.3269 C   0  0  0  0  0  0  0  0  0  0  0  0
   21.0137  -22.9031  -18.6528 C   0  0  2  0  0  0  0  0  0  0  0  0
   22.4012  -22.8881  -19.0772 N   0  0  0  0  0  0  0  0  0  0  0  0
   20.8804  -22.1250  -17.3465 C   0  0  0  0  0  0  0  0  0  0  0  0
   21.5679  -22.4624  -16.3664 O   0  0  0  0  0  0  0  0  0  0  0  0
   19.9944  -21.0382  -17.2511 N   0  0  0  0  0  0  0  0  0  0  0  0
   19.8472  -20.2127  -16.0312 C   0  0  1  0  0  0  0  0  0  0  0  0
   19.8184  -18.7469  -16.5195 C   0  0  0  0  0  0  0  0  0  0  0  0
   21.1778  -18.2669  -16.7917 C   0  0  0  0  0  0  0  0  0  0  0  0
   22.3286  -18.4253  -16.0558 C   0  0  0  0  0  0  0  0  0  0  0  0
   23.3475  -17.8374  -16.7053 N   0  0  0  0  0  0  0  0  0  0  0  0
   22.8921  -17.3018  -17.8415 C   0  0  0  0  0  0  0  0  0  0  0  0
   23.6030  -16.6102  -18.8150 C   0  0  0  0  0  0  0  0  0  0  0  0
   22.8985  -16.1623  -19.9092 C   0  0  0  0  0  0  0  0  0  0  0  0
   21.5415  -16.4101  -19.9996 C   0  0  0  0  0  0  0  0  0  0  0  0
   20.8526  -17.0984  -19.0239 C   0  0  0  0  0  0  0  0  0  0  0  0
   21.5482  -17.5505  -17.9261 C   0  0  0  0  0  0  0  0  0  0  0  0
   18.4918  -20.4870  -15.5305 C   0  0  0  0  0  0  0  0  0  0  0  0
   18.0488  -20.1751  -14.2827 O   0  0  0  0  0  0  0  0  0  0  0  0
   17.6416  -21.0578  -16.2964 O   0  0  0  0  0  0  0  0  0  0  0  0
  2  1  1  6
  2  6  1  0
  2  3  1  0
  3  4  1  0
  4  8  1  0
  5  4  2  0
  6  7  2  0
  9 10  1  0
 11 10  1  0
 11 12  1  0
 13 14  1  0
 13 12  1  1
 14  6  1  0
 15 13  1  0
 16 15  2  0
 17 15  1  0
 18 17  1  0
 18 19  1  6
 19 20  1  0
 20 21  2  0
 21 22  1  0
 23 24  2  0
 23 22  1  0
 25 24  1  0
 26 25  2  0
 27 26  1  0
 27 28  2  0
 28 20  1  0
 28 23  1  0
 29 18  1  0
 29 30  1  0
 31 29  2  0
M  END
$$$$
