DMW.pdb
     RDKit          3D

 31 32  0  0  1  0  0  0  0  0999 V2000
   28.1436  -16.3817  -18.2454 N   0  0  0  0  0  0  0  0  0  0  0  0
   28.5254  -17.5754  -17.5594 C   0  0  1  0  0  0  0  0  0  0  0  0
   30.0349  -17.5792  -17.3406 C   0  0  0  0  0  0  0  0  0  0  0  0
   30.7944  -17.7744  -18.5949 C   0  0  0  0  0  0  0  0  0  0  0  0
   30.2506  -17.8654  -19.7222 O   0  0  0  0  0  0  0  0  0  0  0  0
   27.8810  -17.7762  -16.2421 C   0  0  0  0  0  0  0  0  0  0  0  0
   28.2365  -16.9663  -15.3245 O   0  0  0  0  0  0  0  0  0  0  0  0
   32.1773  -17.8658  -18.5594 O   0  0  0  0  0  0  0  0  0  0  0  0
   21.6106  -16.1095  -15.8043 C   0  0  0  0  0  0  0  0  0  0  0  0
   22.4211  -17.6708  -15.6093 S   0  0  0  0  0  0  0  0  0  0  0  0
   24.1628  -17.6497  -15.2584 C   0  0  0  0  0  0  0  0  0  0  0  0
   24.7659  -18.9839  -14.9552 C   0  0  0  0  0  0  0  0  0  0  0  0
   26.2283  -18.8953  -14.6744 C   0  0  2  0  0  0  0  0  0  0  0  0
   26.9251  -18.7769  -15.9416 N   0  0  0  0  0  0  0  0  0  0  0  0
   26.6062  -20.2194  -14.0160 C   0  0  0  0  0  0  0  0  0  0  0  0
   26.7906  -21.2212  -14.7298 O   0  0  0  0  0  0  0  0  0  0  0  0
   26.7476  -20.3071  -12.6204 N   0  0  0  0  0  0  0  0  0  0  0  0
   26.9665  -21.5833  -11.9031 C   0  0  1  0  0  0  0  0  0  0  0  0
   27.9319  -21.2506  -10.7434 C   0  0  0  0  0  0  0  0  0  0  0  0
   27.2108  -20.6052   -9.6407 C   0  0  0  0  0  0  0  0  0  0  0  0
   25.9286  -20.1097   -9.6011 C   0  0  0  0  0  0  0  0  0  0  0  0
   25.6829  -19.6300   -8.3702 N   0  0  0  0  0  0  0  0  0  0  0  0
   26.7679  -19.7994   -7.6092 C   0  0  0  0  0  0  0  0  0  0  0  0
   26.9477  -19.4567   -6.2744 C   0  0  0  0  0  0  0  0  0  0  0  0
   28.1683  -19.7478   -5.7091 C   0  0  0  0  0  0  0  0  0  0  0  0
   29.1490  -20.3561   -6.4702 C   0  0  0  0  0  0  0  0  0  0  0  0
   28.9527  -20.6892   -7.7934 C   0  0  0  0  0  0  0  0  0  0  0  0
   27.7356  -20.4025   -8.3675 C   0  0  0  0  0  0  0  0  0  0  0  0
   25.6806  -21.9026  -11.2649 C   0  0  0  0  0  0  0  0  0  0  0  0
   24.6203  -21.0535  -11.1907 O   0  0  0  0  0  0  0  0  0  0  0  0
   25.5110  -23.0526  -10.7319 O   0  0  0  0  0  0  0  0  0  0  0  0
  2  1  1  1
  2  6  1  0
  2  3  1  0
  3  4  1  0
  4  8  1  0
  5  4  2  0
  6  7  2  0
  9 10  1  0
 11 10  1  0
 11 12  1  0
 13 14  1  0
 13 12  1  6
 14  6  1  0
 15 13  1  0
 16 15  2  0
 17 15  1  0
 18 17  1  0
 18 19  1  1
 19 20  1  0
 20 21  2  0
 21 22  1  0
 23 24  2  0
 23 22  1  0
 25 24  1  0
 26 25  2  0
 27 26  1  0
 27 28  2  0
 28 20  1  0
 28 23  1  0
 29 18  1  0
 29 30  1  0
 31 29  2  0
M  END
$$$$
