DMW.pdb
     RDKit          3D

 31 32  0  0  1  0  0  0  0  0999 V2000
   28.3024  -21.6830  -15.0103 N   0  0  0  0  0  0  0  0  0  0  0  0
   27.3328  -20.6760  -14.7155 C   0  0  1  0  0  0  0  0  0  0  0  0
   26.6918  -20.1880  -16.0107 C   0  0  0  0  0  0  0  0  0  0  0  0
   27.6677  -19.5699  -16.9347 C   0  0  0  0  0  0  0  0  0  0  0  0
   28.7268  -20.1367  -17.2977 O   0  0  0  0  0  0  0  0  0  0  0  0
   26.2431  -21.0999  -13.8079 C   0  0  0  0  0  0  0  0  0  0  0  0
   25.4092  -21.9304  -14.2969 O   0  0  0  0  0  0  0  0  0  0  0  0
   27.4317  -18.3020  -17.4434 O   0  0  0  0  0  0  0  0  0  0  0  0
   27.2647  -19.2295   -7.5540 C   0  0  0  0  0  0  0  0  0  0  0  0
   26.8831  -20.9099   -7.9580 S   0  0  0  0  0  0  0  0  0  0  0  0
   26.5326  -21.2824   -9.6597 C   0  0  0  0  0  0  0  0  0  0  0  0
   25.3102  -20.6244  -10.2152 C   0  0  0  0  0  0  0  0  0  0  0  0
   24.9951  -21.0872  -11.5980 C   0  0  2  0  0  0  0  0  0  0  0  0
   26.0698  -20.6584  -12.4735 N   0  0  0  0  0  0  0  0  0  0  0  0
   23.7083  -20.3681  -11.9940 C   0  0  0  0  0  0  0  0  0  0  0  0
   23.4974  -19.2205  -11.5631 O   0  0  0  0  0  0  0  0  0  0  0  0
   22.7735  -20.9921  -12.8377 N   0  0  0  0  0  0  0  0  0  0  0  0
   21.5702  -20.3098  -13.3648 C   0  0  1  0  0  0  0  0  0  0  0  0
   21.7705  -20.2318  -14.8950 C   0  0  0  0  0  0  0  0  0  0  0  0
   20.6205  -19.5820  -15.5335 C   0  0  0  0  0  0  0  0  0  0  0  0
   19.8950  -18.4861  -15.1288 C   0  0  0  0  0  0  0  0  0  0  0  0
   18.9435  -18.2298  -16.0422 N   0  0  0  0  0  0  0  0  0  0  0  0
   19.0297  -19.1271  -17.0284 C   0  0  0  0  0  0  0  0  0  0  0  0
   18.2496  -19.2275  -18.1742 C   0  0  0  0  0  0  0  0  0  0  0  0
   18.5479  -20.2455  -19.0510 C   0  0  0  0  0  0  0  0  0  0  0  0
   19.5878  -21.1115  -18.7684 C   0  0  0  0  0  0  0  0  0  0  0  0
   20.3514  -20.9964  -17.6265 C   0  0  0  0  0  0  0  0  0  0  0  0
   20.0611  -19.9817  -16.7437 C   0  0  0  0  0  0  0  0  0  0  0  0
   20.4607  -21.2535  -13.1610 C   0  0  0  0  0  0  0  0  0  0  0  0
   19.1634  -20.8937  -12.9654 O   0  0  0  0  0  0  0  0  0  0  0  0
   20.6955  -22.5105  -13.1629 O   0  0  0  0  0  0  0  0  0  0  0  0
  2  1  1  6
  2  6  1  0
  2  3  1  0
  3  4  1  0
  4  8  1  0
  5  4  2  0
  6  7  2  0
  9 10  1  0
 11 10  1  0
 11 12  1  0
 13 14  1  0
 13 12  1  1
 14  6  1  0
 15 13  1  0
 16 15  2  0
 17 15  1  0
 18 17  1  0
 18 19  1  6
 19 20  1  0
 20 21  2  0
 21 22  1  0
 23 24  2  0
 23 22  1  0
 25 24  1  0
 26 25  2  0
 27 26  1  0
 27 28  2  0
 28 20  1  0
 28 23  1  0
 29 18  1  0
 29 30  1  0
 31 29  2  0
M  END
$$$$
