DMW.pdb
     RDKit          3D

 31 32  0  0  1  0  0  0  0  0999 V2000
   15.3578  -21.0586    1.8998 N   0  0  0  0  0  0  0  0  0  0  0  0
   14.8253  -20.1884    2.9001 C   0  0  1  0  0  0  0  0  0  0  0  0
   13.4514  -20.6886    3.3347 C   0  0  0  0  0  0  0  0  0  0  0  0
   12.6211  -21.1411    2.1972 C   0  0  0  0  0  0  0  0  0  0  0  0
   13.0181  -21.1285    1.0068 O   0  0  0  0  0  0  0  0  0  0  0  0
   15.6564  -20.0471    4.1167 C   0  0  0  0  0  0  0  0  0  0  0  0
   15.1989  -19.2612    5.0096 O   0  0  0  0  0  0  0  0  0  0  0  0
   11.3352  -21.6081    2.4218 O   0  0  0  0  0  0  0  0  0  0  0  0
   20.7167  -24.0949    2.5984 C   0  0  0  0  0  0  0  0  0  0  0  0
   20.2887  -23.4392    4.1857 S   0  0  0  0  0  0  0  0  0  0  0  0
   19.0397  -22.1765    4.2391 C   0  0  0  0  0  0  0  0  0  0  0  0
   18.6080  -21.7678    5.6111 C   0  0  0  0  0  0  0  0  0  0  0  0
   17.6406  -20.6324    5.5871 C   0  0  2  0  0  0  0  0  0  0  0  0
   16.8882  -20.7064    4.3486 N   0  0  0  0  0  0  0  0  0  0  0  0
   18.4889  -19.3635    5.5835 C   0  0  0  0  0  0  0  0  0  0  0  0
   19.0390  -19.0044    4.5273 O   0  0  0  0  0  0  0  0  0  0  0  0
   18.6452  -18.6070    6.7576 N   0  0  0  0  0  0  0  0  0  0  0  0
   19.4748  -17.3833    6.8329 C   0  0  1  0  0  0  0  0  0  0  0  0
   18.5626  -16.2969    7.4454 C   0  0  0  0  0  0  0  0  0  0  0  0
   18.5114  -15.1160    6.5764 C   0  0  0  0  0  0  0  0  0  0  0  0
   17.5697  -14.7536    5.6421 C   0  0  0  0  0  0  0  0  0  0  0  0
   17.9203  -13.5741    5.1024 N   0  0  0  0  0  0  0  0  0  0  0  0
   19.0621  -13.1596    5.6589 C   0  0  0  0  0  0  0  0  0  0  0  0
   19.7727  -11.9929    5.4035 C   0  0  0  0  0  0  0  0  0  0  0  0
   20.9278  -11.7896    6.1237 C   0  0  0  0  0  0  0  0  0  0  0  0
   21.3310  -12.7299    7.0533 C   0  0  0  0  0  0  0  0  0  0  0  0
   20.6130  -13.8819    7.2936 C   0  0  0  0  0  0  0  0  0  0  0  0
   19.4565  -14.0942    6.5788 C   0  0  0  0  0  0  0  0  0  0  0  0
   20.4957  -17.6613    7.8545 C   0  0  0  0  0  0  0  0  0  0  0  0
   21.6347  -16.9381    8.0287 O   0  0  0  0  0  0  0  0  0  0  0  0
   20.3334  -18.6454    8.6548 O   0  0  0  0  0  0  0  0  0  0  0  0
  2  1  1  6
  2  6  1  0
  2  3  1  0
  3  4  1  0
  4  8  1  0
  5  4  2  0
  6  7  2  0
  9 10  1  0
 11 10  1  0
 11 12  1  0
 13 14  1  0
 13 12  1  6
 14  6  1  0
 15 13  1  0
 16 15  2  0
 17 15  1  0
 18 17  1  0
 18 19  1  1
 19 20  1  0
 20 21  2  0
 21 22  1  0
 23 24  2  0
 23 22  1  0
 25 24  1  0
 26 25  2  0
 27 26  1  0
 27 28  2  0
 28 20  1  0
 28 23  1  0
 29 18  1  0
 29 30  1  0
 31 29  2  0
M  END
$$$$
