DMW.pdb
     RDKit          3D

 31 32  0  0  1  0  0  0  0  0999 V2000
   27.5264  -23.0374  -17.1040 N   0  0  0  0  0  0  0  0  0  0  0  0
   27.6136  -21.8823  -16.2677 C   0  0  1  0  0  0  0  0  0  0  0  0
   27.1557  -20.6523  -17.0448 C   0  0  0  0  0  0  0  0  0  0  0  0
   28.0567  -20.3177  -18.1693 C   0  0  0  0  0  0  0  0  0  0  0  0
   29.2925  -20.5346  -18.1495 O   0  0  0  0  0  0  0  0  0  0  0  0
   26.8173  -21.9474  -15.0217 C   0  0  0  0  0  0  0  0  0  0  0  0
   25.8059  -22.7223  -15.0528 O   0  0  0  0  0  0  0  0  0  0  0  0
   27.5433  -19.7341  -19.3173 O   0  0  0  0  0  0  0  0  0  0  0  0
   23.7009  -21.0823   -8.7514 C   0  0  0  0  0  0  0  0  0  0  0  0
   24.5778  -21.0437  -10.2883 S   0  0  0  0  0  0  0  0  0  0  0  0
   26.3256  -20.7303  -10.2248 C   0  0  0  0  0  0  0  0  0  0  0  0
   26.9864  -20.5450  -11.5533 C   0  0  0  0  0  0  0  0  0  0  0  0
   26.2489  -21.2297  -12.6546 C   0  0  2  0  0  0  0  0  0  0  0  0
   27.0949  -21.2287  -13.8334 N   0  0  0  0  0  0  0  0  0  0  0  0
   25.0139  -20.3738  -12.9229 C   0  0  0  0  0  0  0  0  0  0  0  0
   25.1088  -19.1352  -12.8603 O   0  0  0  0  0  0  0  0  0  0  0  0
   23.7842  -20.9759  -13.2399 N   0  0  0  0  0  0  0  0  0  0  0  0
   22.5948  -20.2137  -13.6822 C   0  0  1  0  0  0  0  0  0  0  0  0
   22.5000  -20.4355  -15.2084 C   0  0  0  0  0  0  0  0  0  0  0  0
   21.3496  -19.7145  -15.7642 C   0  0  0  0  0  0  0  0  0  0  0  0
   20.7739  -18.5335  -15.3581 C   0  0  0  0  0  0  0  0  0  0  0  0
   19.7544  -18.2378  -16.1819 N   0  0  0  0  0  0  0  0  0  0  0  0
   19.6509  -19.1922  -17.1112 C   0  0  0  0  0  0  0  0  0  0  0  0
   18.7436  -19.2803  -18.1603 C   0  0  0  0  0  0  0  0  0  0  0  0
   18.8513  -20.3689  -18.9953 C   0  0  0  0  0  0  0  0  0  0  0  0
   19.8343  -21.3138  -18.7671 C   0  0  0  0  0  0  0  0  0  0  0  0
   20.7262  -21.2098  -17.7212 C   0  0  0  0  0  0  0  0  0  0  0  0
   20.6268  -20.1248  -16.8808 C   0  0  0  0  0  0  0  0  0  0  0  0
   21.4386  -20.9197  -13.1097 C   0  0  0  0  0  0  0  0  0  0  0  0
   20.2813  -20.3214  -12.7183 O   0  0  0  0  0  0  0  0  0  0  0  0
   21.4892  -22.1882  -12.9553 O   0  0  0  0  0  0  0  0  0  0  0  0
  2  1  1  6
  2  6  1  0
  2  3  1  0
  3  4  1  0
  4  8  1  0
  5  4  2  0
  6  7  2  0
  9 10  1  0
 11 10  1  0
 11 12  1  0
 13 14  1  0
 13 12  1  1
 14  6  1  0
 15 13  1  0
 16 15  2  0
 17 15  1  0
 18 17  1  0
 18 19  1  6
 19 20  1  0
 20 21  2  0
 21 22  1  0
 23 24  2  0
 23 22  1  0
 25 24  1  0
 26 25  2  0
 27 26  1  0
 27 28  2  0
 28 20  1  0
 28 23  1  0
 29 18  1  0
 29 30  1  0
 31 29  2  0
M  END
$$$$
