DMW.pdb
     RDKit          3D

 31 32  0  0  1  0  0  0  0  0999 V2000
   28.3698  -17.8809  -18.9313 N   0  0  0  0  0  0  0  0  0  0  0  0
   29.0150  -18.7854  -18.0330 C   0  0  1  0  0  0  0  0  0  0  0  0
   30.5227  -18.5576  -18.0728 C   0  0  0  0  0  0  0  0  0  0  0  0
   31.1154  -18.8787  -19.3895 C   0  0  0  0  0  0  0  0  0  0  0  0
   32.3496  -18.8498  -19.6146 O   0  0  0  0  0  0  0  0  0  0  0  0
   28.5833  -18.6830  -16.6209 C   0  0  0  0  0  0  0  0  0  0  0  0
   29.4330  -18.1733  -15.8195 O   0  0  0  0  0  0  0  0  0  0  0  0
   30.2953  -19.2329  -20.4497 O   0  0  0  0  0  0  0  0  0  0  0  0
   22.8962  -16.3374  -15.0566 C   0  0  0  0  0  0  0  0  0  0  0  0
   24.4885  -15.5675  -15.1222 S   0  0  0  0  0  0  0  0  0  0  0  0
   25.9117  -16.6313  -15.1234 C   0  0  0  0  0  0  0  0  0  0  0  0
   25.6339  -18.0643  -14.7985 C   0  0  0  0  0  0  0  0  0  0  0  0
   26.8772  -18.8874  -14.7530 C   0  0  2  0  0  0  0  0  0  0  0  0
   27.3278  -19.1005  -16.1156 N   0  0  0  0  0  0  0  0  0  0  0  0
   26.4675  -20.2261  -14.1450 C   0  0  0  0  0  0  0  0  0  0  0  0
   26.0612  -21.1331  -14.8928 O   0  0  0  0  0  0  0  0  0  0  0  0
   26.5505  -20.4344  -12.7576 N   0  0  0  0  0  0  0  0  0  0  0  0
   26.1852  -21.7108  -12.1029 C   0  0  1  0  0  0  0  0  0  0  0  0
   27.1749  -21.8760  -10.9278 C   0  0  0  0  0  0  0  0  0  0  0  0
   26.9180  -20.8699   -9.8914 C   0  0  0  0  0  0  0  0  0  0  0  0
   25.8327  -20.0429   -9.7204 C   0  0  0  0  0  0  0  0  0  0  0  0
   26.0180  -19.3007   -8.6157 N   0  0  0  0  0  0  0  0  0  0  0  0
   27.1918  -19.6215   -8.0640 C   0  0  0  0  0  0  0  0  0  0  0  0
   27.7728  -19.1069   -6.9112 C   0  0  0  0  0  0  0  0  0  0  0  0
   28.9978  -19.6151   -6.5434 C   0  0  0  0  0  0  0  0  0  0  0  0
   29.5931  -20.5959   -7.3146 C   0  0  0  0  0  0  0  0  0  0  0  0
   29.0016  -21.0948   -8.4554 C   0  0  0  0  0  0  0  0  0  0  0  0
   27.7767  -20.5933   -8.8314 C   0  0  0  0  0  0  0  0  0  0  0  0
   24.8733  -21.4740  -11.4817 C   0  0  0  0  0  0  0  0  0  0  0  0
   24.0635  -22.4482  -10.9859 O   0  0  0  0  0  0  0  0  0  0  0  0
   24.4306  -20.2784  -11.3825 O   0  0  0  0  0  0  0  0  0  0  0  0
  2  1  1  6
  2  6  1  0
  2  3  1  0
  3  4  1  0
  4  8  1  0
  5  4  2  0
  6  7  2  0
  9 10  1  0
 11 10  1  0
 11 12  1  0
 13 14  1  0
 13 12  1  6
 14  6  1  0
 15 13  1  0
 16 15  2  0
 17 15  1  0
 18 17  1  0
 18 19  1  1
 19 20  1  0
 20 21  2  0
 21 22  1  0
 23 24  2  0
 23 22  1  0
 25 24  1  0
 26 25  2  0
 27 26  1  0
 27 28  2  0
 28 20  1  0
 28 23  1  0
 29 18  1  0
 29 30  1  0
 31 29  2  0
M  END
$$$$
