DMW.pdb
     RDKit          3D

 31 32  0  0  1  0  0  0  0  0999 V2000
   23.8540  -10.9063  -20.4203 N   0  0  0  0  0  0  0  0  0  0  0  0
   22.5894  -10.4997  -19.8945 C   0  0  1  0  0  0  0  0  0  0  0  0
   22.2444  -11.3502  -18.6762 C   0  0  0  0  0  0  0  0  0  0  0  0
   22.0186  -12.7720  -19.0164 C   0  0  0  0  0  0  0  0  0  0  0  0
   21.2865  -13.1453  -19.9648 O   0  0  0  0  0  0  0  0  0  0  0  0
   22.5059   -9.0791  -19.4875 C   0  0  0  0  0  0  0  0  0  0  0  0
   23.4310   -8.6719  -18.7112 O   0  0  0  0  0  0  0  0  0  0  0  0
   22.6306  -13.7677  -18.2707 O   0  0  0  0  0  0  0  0  0  0  0  0
   19.2039   -1.9666  -21.0003 C   0  0  0  0  0  0  0  0  0  0  0  0
   19.1837   -3.7339  -21.0929 S   0  0  0  0  0  0  0  0  0  0  0  0
   20.3720   -4.6178  -20.1112 C   0  0  0  0  0  0  0  0  0  0  0  0
   20.4279   -6.0918  -20.3561 C   0  0  0  0  0  0  0  0  0  0  0  0
   21.4548   -6.7690  -19.5122 C   0  0  2  0  0  0  0  0  0  0  0  0
   21.4981   -8.1692  -19.8902 N   0  0  0  0  0  0  0  0  0  0  0  0
   20.9543   -6.6528  -18.0749 C   0  0  0  0  0  0  0  0  0  0  0  0
   19.9564   -7.3077  -17.7252 O   0  0  0  0  0  0  0  0  0  0  0  0
   21.6135   -5.8187  -17.1556 N   0  0  0  0  0  0  0  0  0  0  0  0
   21.2070   -5.6884  -15.7382 C   0  0  1  0  0  0  0  0  0  0  0  0
   22.5097   -5.8137  -14.9167 C   0  0  0  0  0  0  0  0  0  0  0  0
   22.7705   -7.2160  -14.5734 C   0  0  0  0  0  0  0  0  0  0  0  0
   23.7586   -8.0606  -15.0220 C   0  0  0  0  0  0  0  0  0  0  0  0
   23.6253   -9.2517  -14.4144 N   0  0  0  0  0  0  0  0  0  0  0  0
   22.5794   -9.2054  -13.5842 C   0  0  0  0  0  0  0  0  0  0  0  0
   22.0907  -10.2082  -12.7553 C   0  0  0  0  0  0  0  0  0  0  0  0
   20.9942   -9.9052  -11.9807 C   0  0  0  0  0  0  0  0  0  0  0  0
   20.4310   -8.6448  -12.0522 C   0  0  0  0  0  0  0  0  0  0  0  0
   20.9296   -7.6620  -12.8804 C   0  0  0  0  0  0  0  0  0  0  0  0
   22.0259   -7.9551  -13.6586 C   0  0  0  0  0  0  0  0  0  0  0  0
   20.7744   -4.2918  -15.5788 C   0  0  0  0  0  0  0  0  0  0  0  0
   20.1299   -3.8001  -14.4863 O   0  0  0  0  0  0  0  0  0  0  0  0
   21.0052   -3.4509  -16.5142 O   0  0  0  0  0  0  0  0  0  0  0  0
  2  1  1  1
  2  6  1  0
  2  3  1  0
  3  4  1  0
  4  8  1  0
  5  4  2  0
  6  7  2  0
  9 10  1  0
 11 10  1  0
 11 12  1  0
 13 14  1  0
 13 12  1  6
 14  6  1  0
 15 13  1  0
 16 15  2  0
 17 15  1  0
 18 17  1  0
 18 19  1  1
 19 20  1  0
 20 21  2  0
 21 22  1  0
 23 24  2  0
 23 22  1  0
 25 24  1  0
 26 25  2  0
 27 26  1  0
 27 28  2  0
 28 20  1  0
 28 23  1  0
 29 18  1  0
 29 30  1  0
 31 29  2  0
M  END
$$$$
