DMW.pdb
     RDKit          3D

 31 32  0  0  1  0  0  0  0  0999 V2000
   23.9131  -22.6441  -17.2223 N   0  0  0  0  0  0  0  0  0  0  0  0
   24.4893  -23.5345  -16.2650 C   0  0  1  0  0  0  0  0  0  0  0  0
   25.2906  -24.6131  -16.9870 C   0  0  0  0  0  0  0  0  0  0  0  0
   24.4477  -25.4745  -17.8447 C   0  0  0  0  0  0  0  0  0  0  0  0
   24.9056  -26.1706  -18.7831 O   0  0  0  0  0  0  0  0  0  0  0  0
   25.3859  -22.8974  -15.2746 C   0  0  0  0  0  0  0  0  0  0  0  0
   26.2214  -23.6741  -14.7064 O   0  0  0  0  0  0  0  0  0  0  0  0
   23.0798  -25.5393  -17.6288 O   0  0  0  0  0  0  0  0  0  0  0  0
   29.5214  -16.6121  -15.3426 C   0  0  0  0  0  0  0  0  0  0  0  0
   27.9016  -17.2404  -15.0049 S   0  0  0  0  0  0  0  0  0  0  0  0
   27.7629  -18.9622  -14.5888 C   0  0  0  0  0  0  0  0  0  0  0  0
   26.3710  -19.4426  -14.3283 C   0  0  0  0  0  0  0  0  0  0  0  0
   26.3225  -20.9010  -14.0181 C   0  0  2  0  0  0  0  0  0  0  0  0
   25.3783  -21.5247  -14.9264 N   0  0  0  0  0  0  0  0  0  0  0  0
   25.7898  -21.0051  -12.5915 C   0  0  0  0  0  0  0  0  0  0  0  0
   24.5633  -20.9390  -12.3956 O   0  0  0  0  0  0  0  0  0  0  0  0
   26.6725  -21.1768  -11.5115 N   0  0  0  0  0  0  0  0  0  0  0  0
   26.2263  -21.2772  -10.1037 C   0  0  1  0  0  0  0  0  0  0  0  0
   27.5181  -21.2945   -9.2560 C   0  0  0  0  0  0  0  0  0  0  0  0
   27.3234  -20.5560   -8.0034 C   0  0  0  0  0  0  0  0  0  0  0  0
   26.2233  -19.8638   -7.5543 C   0  0  0  0  0  0  0  0  0  0  0  0
   26.4877  -19.3658   -6.3346 N   0  0  0  0  0  0  0  0  0  0  0  0
   27.7275  -19.7143   -5.9784 C   0  0  0  0  0  0  0  0  0  0  0  0
   28.4011  -19.4203   -4.7988 C   0  0  0  0  0  0  0  0  0  0  0  0
   29.6813  -19.9081   -4.6673 C   0  0  0  0  0  0  0  0  0  0  0  0
   30.2389  -20.6552   -5.6880 C   0  0  0  0  0  0  0  0  0  0  0  0
   29.5553  -20.9372   -6.8514 C   0  0  0  0  0  0  0  0  0  0  0  0
   28.2746  -20.4543   -6.9924 C   0  0  0  0  0  0  0  0  0  0  0  0
   25.5762  -19.9926   -9.8034 C   0  0  0  0  0  0  0  0  0  0  0  0
   24.4852  -19.8442   -9.0044 O   0  0  0  0  0  0  0  0  0  0  0  0
   26.0440  -18.9166  -10.3121 O   0  0  0  0  0  0  0  0  0  0  0  0
  2  1  1  6
  2  6  1  0
  2  3  1  0
  3  4  1  0
  4  8  1  0
  5  4  2  0
  6  7  2  0
  9 10  1  0
 11 10  1  0
 11 12  1  0
 13 14  1  0
 13 12  1  6
 14  6  1  0
 15 13  1  0
 16 15  2  0
 17 15  1  0
 18 17  1  0
 18 19  1  1
 19 20  1  0
 20 21  2  0
 21 22  1  0
 23 24  2  0
 23 22  1  0
 25 24  1  0
 26 25  2  0
 27 26  1  0
 27 28  2  0
 28 20  1  0
 28 23  1  0
 29 18  1  0
 29 30  1  0
 31 29  2  0
M  END
$$$$
