YDC.pdb
     RDKit          3D

 27 27  0  0  1  0  0  0  0  0999 V2000
   17.0483  -20.1596  -10.1190 O   0  0  0  0  0  0  0  0  0  0  0  0
   18.3341  -20.4140  -10.5734 C   0  0  0  0  0  0  0  0  0  0  0  0
   19.2507  -19.3849  -10.5204 C   0  0  0  0  0  0  0  0  0  0  0  0
   20.5316  -19.5998  -10.9615 C   0  0  0  0  0  0  0  0  0  0  0  0
   20.8941  -20.8218  -11.4482 C   0  0  0  0  0  0  0  0  0  0  0  0
   22.3028  -21.0005  -11.9194 C   0  0  0  0  0  0  0  0  0  0  0  0
   22.3956  -20.3352  -13.2657 C   0  0  2  0  0  0  0  0  0  0  0  0
   21.5534  -21.0393  -14.2122 N   0  0  0  0  0  0  0  0  0  0  0  0
   23.7907  -20.3168  -13.7969 C   0  0  0  0  0  0  0  0  0  0  0  0
   24.7460  -19.8340  -13.0989 O   0  0  0  0  0  0  0  0  0  0  0  0
   20.0110  -21.8606  -11.5138 C   0  0  0  0  0  0  0  0  0  0  0  0
   18.7220  -21.6380  -11.0678 C   0  0  0  0  0  0  0  0  0  0  0  0
   24.1463  -20.8165  -15.0714 N   0  0  0  0  0  0  0  0  0  0  0  0
   25.4730  -20.6994  -15.5941 C   0  0  1  0  0  0  0  0  0  0  0  0
   26.2871  -21.9623  -15.4782 C   0  0  0  0  0  0  0  0  0  0  0  0
   27.6814  -21.8118  -15.9088 C   0  0  0  0  0  0  0  0  0  0  0  0
   28.1055  -20.6629  -16.2193 O   0  0  0  0  0  0  0  0  0  0  0  0
   25.5040  -20.1399  -16.9684 C   0  0  0  0  0  0  0  0  0  0  0  0
   25.0011  -20.8258  -17.8920 O   0  0  0  0  0  0  0  0  0  0  0  0
   28.5887  -22.8546  -16.0030 O   0  0  0  0  0  0  0  0  0  0  0  0
   26.0648  -18.8985  -17.2578 N   0  0  0  0  0  0  0  0  0  0  0  0
   26.0368  -18.2531  -18.5610 C   0  0  1  0  0  0  0  0  0  0  0  0
   25.9351  -16.7444  -18.4339 C   0  0  0  0  0  0  0  0  0  0  0  0
   24.4711  -16.4067  -17.4064 S   0  0  0  0  0  0  0  0  0  0  0  0
   27.3214  -18.5635  -19.2334 C   0  0  0  0  0  0  0  0  0  0  0  0
   27.5604  -18.1718  -20.5406 O   0  0  0  0  0  0  0  0  0  0  0  0
   28.2550  -19.1925  -18.6611 O   0  0  0  0  0  0  0  0  0  0  0  0
  2  1  1  0
  3  2  2  0
  4  3  1  0
  5 11  1  0
  5  4  2  0
  6  5  1  0
  7  6  1  0
  7  8  1  6
  9  7  1  0
  9 13  1  0
 10  9  2  0
 11 12  2  0
 12  2  1  0
 14 13  1  0
 14 18  1  0
 14 15  1  6
 16 17  2  0
 16 15  1  0
 18 19  2  0
 20 16  1  0
 21 18  1  0
 21 22  1  0
 22 23  1  1
 23 24  1  0
 25 22  1  0
 25 26  1  0
 27 25  2  0
M  END
$$$$
