YDC.pdb
     RDKit          3D

 27 27  0  0  1  0  0  0  0  0999 V2000
   23.9028  -21.5185   -7.0308 O   0  0  0  0  0  0  0  0  0  0  0  0
   24.3605  -21.1261   -8.2801 C   0  0  0  0  0  0  0  0  0  0  0  0
   23.4434  -21.0527   -9.3076 C   0  0  0  0  0  0  0  0  0  0  0  0
   23.8600  -20.6686  -10.5567 C   0  0  0  0  0  0  0  0  0  0  0  0
   25.1709  -20.3622  -10.7792 C   0  0  0  0  0  0  0  0  0  0  0  0
   25.5717  -19.9527  -12.1612 C   0  0  0  0  0  0  0  0  0  0  0  0
   24.9220  -20.9269  -13.1059 C   0  0  2  0  0  0  0  0  0  0  0  0
   25.5928  -22.2087  -13.0159 N   0  0  0  0  0  0  0  0  0  0  0  0
   24.9733  -20.4651  -14.5247 C   0  0  0  0  0  0  0  0  0  0  0  0
   26.0265  -20.6387  -15.2272 O   0  0  0  0  0  0  0  0  0  0  0  0
   26.1029  -20.4247   -9.7838 C   0  0  0  0  0  0  0  0  0  0  0  0
   25.6771  -20.8122   -8.5274 C   0  0  0  0  0  0  0  0  0  0  0  0
   23.8943  -19.8220  -15.1747 N   0  0  0  0  0  0  0  0  0  0  0  0
   23.9768  -19.3771  -16.5320 C   0  0  1  0  0  0  0  0  0  0  0  0
   22.6425  -19.2909  -17.2271 C   0  0  0  0  0  0  0  0  0  0  0  0
   22.7348  -18.9430  -18.6493 C   0  0  0  0  0  0  0  0  0  0  0  0
   22.4228  -17.7747  -19.0151 O   0  0  0  0  0  0  0  0  0  0  0  0
   24.7661  -18.1292  -16.6829 C   0  0  0  0  0  0  0  0  0  0  0  0
   24.2996  -17.0765  -16.1821 O   0  0  0  0  0  0  0  0  0  0  0  0
   23.1469  -19.8154  -19.6436 O   0  0  0  0  0  0  0  0  0  0  0  0
   25.9868  -18.0929  -17.3520 N   0  0  0  0  0  0  0  0  0  0  0  0
   26.8289  -16.9149  -17.4891 C   0  0  1  0  0  0  0  0  0  0  0  0
   28.2568  -17.1972  -17.0596 C   0  0  0  0  0  0  0  0  0  0  0  0
   28.2059  -17.5280  -15.2705 S   0  0  0  0  0  0  0  0  0  0  0  0
   26.8532  -16.5565  -18.9277 C   0  0  0  0  0  0  0  0  0  0  0  0
   27.1754  -15.2746  -19.3427 O   0  0  0  0  0  0  0  0  0  0  0  0
   26.5854  -17.3866  -19.8409 O   0  0  0  0  0  0  0  0  0  0  0  0
  2  1  1  0
  3  2  2  0
  4  3  1  0
  5 11  1  0
  5  4  2  0
  6  5  1  0
  7  6  1  0
  7  8  1  6
  9  7  1  0
  9 13  1  0
 10  9  2  0
 11 12  2  0
 12  2  1  0
 14 13  1  0
 14 18  1  0
 14 15  1  1
 16 17  2  0
 16 15  1  0
 18 19  2  0
 20 16  1  0
 21 18  1  0
 21 22  1  0
 22 23  1  6
 23 24  1  0
 25 22  1  0
 25 26  1  0
 27 25  2  0
M  END
$$$$
