YDC.pdb
     RDKit          3D

 27 27  0  0  1  0  0  0  0  0999 V2000
   31.2365  -21.7534   -9.7851 O   0  0  0  0  0  0  0  0  0  0  0  0
   30.0112  -21.3872  -10.3226 C   0  0  0  0  0  0  0  0  0  0  0  0
   30.0147  -20.6078  -11.4604 C   0  0  0  0  0  0  0  0  0  0  0  0
   28.8217  -20.2263  -12.0196 C   0  0  0  0  0  0  0  0  0  0  0  0
   27.6427  -20.6153  -11.4539 C   0  0  0  0  0  0  0  0  0  0  0  0
   26.3710  -20.1681  -12.1027 C   0  0  0  0  0  0  0  0  0  0  0  0
   26.0468  -21.1844  -13.1637 C   0  0  2  0  0  0  0  0  0  0  0  0
   27.0282  -21.1032  -14.2274 N   0  0  0  0  0  0  0  0  0  0  0  0
   24.6912  -20.9784  -13.7546 C   0  0  0  0  0  0  0  0  0  0  0  0
   24.4471  -19.9558  -14.4810 O   0  0  0  0  0  0  0  0  0  0  0  0
   27.6052  -21.3867  -10.3284 C   0  0  0  0  0  0  0  0  0  0  0  0
   28.8103  -21.7681   -9.7695 C   0  0  0  0  0  0  0  0  0  0  0  0
   23.6120  -21.8716  -13.5599 N   0  0  0  0  0  0  0  0  0  0  0  0
   22.3172  -21.6379  -14.1217 C   0  0  1  0  0  0  0  0  0  0  0  0
   21.9485  -22.5984  -15.2229 C   0  0  0  0  0  0  0  0  0  0  0  0
   20.6608  -22.3042  -15.8614 C   0  0  0  0  0  0  0  0  0  0  0  0
   19.6308  -22.1916  -15.1385 O   0  0  0  0  0  0  0  0  0  0  0  0
   21.2524  -21.5335  -13.0930 C   0  0  0  0  0  0  0  0  0  0  0  0
   21.0258  -22.5416  -12.3796 O   0  0  0  0  0  0  0  0  0  0  0  0
   20.4832  -22.1365  -17.2251 O   0  0  0  0  0  0  0  0  0  0  0  0
   20.5109  -20.3708  -12.8998 N   0  0  0  0  0  0  0  0  0  0  0  0
   19.4610  -20.2056  -11.9067 C   0  0  1  0  0  0  0  0  0  0  0  0
   19.4916  -18.8202  -11.2881 C   0  0  0  0  0  0  0  0  0  0  0  0
   20.8718  -18.8111  -10.1014 S   0  0  0  0  0  0  0  0  0  0  0  0
   18.1637  -20.3574  -12.6086 C   0  0  0  0  0  0  0  0  0  0  0  0
   17.0719  -20.9360  -11.9820 O   0  0  0  0  0  0  0  0  0  0  0  0
   17.9842  -19.9740  -13.7984 O   0  0  0  0  0  0  0  0  0  0  0  0
  2  1  1  0
  3  2  2  0
  4  3  1  0
  5 11  1  0
  5  4  2  0
  6  5  1  0
  7  6  1  0
  7  8  1  6
  9  7  1  0
  9 13  1  0
 10  9  2  0
 11 12  2  0
 12  2  1  0
 14 13  1  0
 14 18  1  0
 14 15  1  6
 16 17  2  0
 16 15  1  0
 18 19  2  0
 20 16  1  0
 21 18  1  0
 21 22  1  0
 22 23  1  6
 23 24  1  0
 25 22  1  0
 25 26  1  0
 27 25  2  0
M  END
$$$$
