YDC.pdb
     RDKit          3D

 27 27  0  0  1  0  0  0  0  0999 V2000
   17.2095  -17.8161  -17.3538 O   0  0  0  0  0  0  0  0  0  0  0  0
   18.5613  -18.1270  -17.3768 C   0  0  0  0  0  0  0  0  0  0  0  0
   18.9765  -19.2443  -16.6830 C   0  0  0  0  0  0  0  0  0  0  0  0
   20.3059  -19.5822  -16.6831 C   0  0  0  0  0  0  0  0  0  0  0  0
   21.2084  -18.8184  -17.3641 C   0  0  0  0  0  0  0  0  0  0  0  0
   22.6462  -19.2303  -17.3278 C   0  0  0  0  0  0  0  0  0  0  0  0
   23.0324  -19.3230  -15.8766 C   0  0  2  0  0  0  0  0  0  0  0  0
   22.9745  -18.0054  -15.2754 N   0  0  0  0  0  0  0  0  0  0  0  0
   24.4091  -19.8689  -15.6873 C   0  0  0  0  0  0  0  0  0  0  0  0
   24.6853  -21.0690  -16.0282 O   0  0  0  0  0  0  0  0  0  0  0  0
   20.8297  -17.7071  -18.0603 C   0  0  0  0  0  0  0  0  0  0  0  0
   19.4889  -17.3717  -18.0567 C   0  0  0  0  0  0  0  0  0  0  0  0
   25.4748  -19.1214  -15.1343 N   0  0  0  0  0  0  0  0  0  0  0  0
   26.7938  -19.6588  -14.9981 C   0  0  1  0  0  0  0  0  0  0  0  0
   27.8893  -18.6681  -15.2976 C   0  0  0  0  0  0  0  0  0  0  0  0
   27.9613  -18.2704  -16.7078 C   0  0  0  0  0  0  0  0  0  0  0  0
   27.4788  -19.0397  -17.5861 O   0  0  0  0  0  0  0  0  0  0  0  0
   27.0045  -20.3480  -13.7006 C   0  0  0  0  0  0  0  0  0  0  0  0
   28.0048  -21.0991  -13.5915 O   0  0  0  0  0  0  0  0  0  0  0  0
   28.5296  -17.0908  -17.1607 O   0  0  0  0  0  0  0  0  0  0  0  0
   26.1403  -20.1887  -12.6204 N   0  0  0  0  0  0  0  0  0  0  0  0
   26.2627  -20.8768  -11.3448 C   0  0  1  0  0  0  0  0  0  0  0  0
   26.5971  -19.9132  -10.2212 C   0  0  0  0  0  0  0  0  0  0  0  0
   26.5716  -20.8820   -8.6805 S   0  0  0  0  0  0  0  0  0  0  0  0
   24.9428  -21.4813  -11.0426 C   0  0  0  0  0  0  0  0  0  0  0  0
   24.7867  -22.3799   -9.9997 O   0  0  0  0  0  0  0  0  0  0  0  0
   23.9034  -21.2152  -11.7086 O   0  0  0  0  0  0  0  0  0  0  0  0
  2  1  1  0
  3  2  2  0
  4  3  1  0
  5 11  1  0
  5  4  2  0
  6  5  1  0
  7  6  1  0
  7  8  1  6
  9  7  1  0
  9 13  1  0
 10  9  2  0
 11 12  2  0
 12  2  1  0
 14 13  1  0
 14 18  1  0
 14 15  1  1
 16 17  2  0
 16 15  1  0
 18 19  2  0
 20 16  1  0
 21 18  1  0
 21 22  1  0
 22 23  1  1
 23 24  1  0
 25 22  1  0
 25 26  1  0
 27 25  2  0
M  END
$$$$
