YDC.pdb
     RDKit          3D

 27 27  0  0  1  0  0  0  0  0999 V2000
   28.8821  -20.0484   -5.4658 O   0  0  0  0  0  0  0  0  0  0  0  0
   28.4892  -20.0665   -6.7961 C   0  0  0  0  0  0  0  0  0  0  0  0
   27.2109  -19.6442   -7.0953 C   0  0  0  0  0  0  0  0  0  0  0  0
   26.7877  -19.6488   -8.4000 C   0  0  0  0  0  0  0  0  0  0  0  0
   27.6254  -20.0680   -9.3921 C   0  0  0  0  0  0  0  0  0  0  0  0
   27.1116  -20.0560  -10.7971 C   0  0  0  0  0  0  0  0  0  0  0  0
   25.9405  -20.9998  -10.8367 C   0  0  2  0  0  0  0  0  0  0  0  0
   26.4151  -22.3647  -10.7248 N   0  0  0  0  0  0  0  0  0  0  0  0
   25.1513  -20.8757  -12.0980 C   0  0  0  0  0  0  0  0  0  0  0  0
   24.5816  -19.7732  -12.4027 O   0  0  0  0  0  0  0  0  0  0  0  0
   28.8961  -20.4916   -9.1290 C   0  0  0  0  0  0  0  0  0  0  0  0
   29.3168  -20.4846   -7.8126 C   0  0  0  0  0  0  0  0  0  0  0  0
   24.9819  -21.9355  -13.0190 N   0  0  0  0  0  0  0  0  0  0  0  0
   24.1551  -21.8126  -14.1802 C   0  0  1  0  0  0  0  0  0  0  0  0
   24.6845  -22.5463  -15.3855 C   0  0  0  0  0  0  0  0  0  0  0  0
   23.8669  -22.3753  -16.5915 C   0  0  0  0  0  0  0  0  0  0  0  0
   23.0983  -21.3760  -16.6732 O   0  0  0  0  0  0  0  0  0  0  0  0
   22.7316  -22.1356  -13.9114 C   0  0  0  0  0  0  0  0  0  0  0  0
   22.4534  -23.3072  -13.5559 O   0  0  0  0  0  0  0  0  0  0  0  0
   23.8728  -23.2436  -17.6710 O   0  0  0  0  0  0  0  0  0  0  0  0
   21.7141  -21.1937  -14.0400 N   0  0  0  0  0  0  0  0  0  0  0  0
   20.3229  -21.4127  -13.6764 C   0  0  1  0  0  0  0  0  0  0  0  0
   19.8963  -20.5093  -12.5341 C   0  0  0  0  0  0  0  0  0  0  0  0
   18.7409  -21.4748  -11.5113 S   0  0  0  0  0  0  0  0  0  0  0  0
   19.4990  -21.0640  -14.8589 C   0  0  0  0  0  0  0  0  0  0  0  0
   18.3190  -21.7355  -15.1349 O   0  0  0  0  0  0  0  0  0  0  0  0
   19.8217  -20.1498  -15.6681 O   0  0  0  0  0  0  0  0  0  0  0  0
  2  1  1  0
  3  2  2  0
  4  3  1  0
  5 11  1  0
  5  4  2  0
  6  5  1  0
  7  6  1  0
  7  8  1  6
  9  7  1  0
  9 13  1  0
 10  9  2  0
 11 12  2  0
 12  2  1  0
 14 13  1  0
 14 18  1  0
 14 15  1  6
 16 17  2  0
 16 15  1  0
 18 19  2  0
 20 16  1  0
 21 18  1  0
 21 22  1  0
 22 23  1  1
 23 24  1  0
 25 22  1  0
 25 26  1  0
 27 25  2  0
M  END
$$$$
