YDC.pdb
     RDKit          3D

 27 27  0  0  1  0  0  0  0  0999 V2000
   29.0810  -27.5743  -16.9718 O   0  0  0  0  0  0  0  0  0  0  0  0
   28.4741  -26.4034  -16.5416 C   0  0  0  0  0  0  0  0  0  0  0  0
   29.2496  -25.2651  -16.4709 C   0  0  0  0  0  0  0  0  0  0  0  0
   28.6833  -24.0890  -16.0494 C   0  0  0  0  0  0  0  0  0  0  0  0
   27.3642  -24.0473  -15.7035 C   0  0  0  0  0  0  0  0  0  0  0  0
   26.7986  -22.7395  -15.2472 C   0  0  0  0  0  0  0  0  0  0  0  0
   26.1515  -22.1061  -16.4488 C   0  0  2  0  0  0  0  0  0  0  0  0
   27.1731  -21.5332  -17.3027 N   0  0  0  0  0  0  0  0  0  0  0  0
   25.1886  -21.0281  -16.0751 C   0  0  0  0  0  0  0  0  0  0  0  0
   25.6065  -19.8589  -15.7732 O   0  0  0  0  0  0  0  0  0  0  0  0
   26.5699  -25.1559  -15.7627 C   0  0  0  0  0  0  0  0  0  0  0  0
   27.1460  -26.3379  -16.1881 C   0  0  0  0  0  0  0  0  0  0  0  0
   23.7875  -21.2158  -16.0294 N   0  0  0  0  0  0  0  0  0  0  0  0
   22.8992  -20.2132  -15.5266 C   0  0  1  0  0  0  0  0  0  0  0  0
   21.9930  -19.6210  -16.5750 C   0  0  0  0  0  0  0  0  0  0  0  0
   21.0860  -18.5885  -16.0617 C   0  0  0  0  0  0  0  0  0  0  0  0
   19.9551  -18.4420  -16.6055 O   0  0  0  0  0  0  0  0  0  0  0  0
   22.1477  -20.6580  -14.3265 C   0  0  0  0  0  0  0  0  0  0  0  0
   21.4768  -21.7157  -14.4137 O   0  0  0  0  0  0  0  0  0  0  0  0
   21.3800  -17.7435  -15.0039 O   0  0  0  0  0  0  0  0  0  0  0  0
   22.1648  -19.9486  -13.1283 N   0  0  0  0  0  0  0  0  0  0  0  0
   21.5301  -20.3810  -11.8930 C   0  0  1  0  0  0  0  0  0  0  0  0
   21.7233  -19.3657  -10.7818 C   0  0  0  0  0  0  0  0  0  0  0  0
   20.8370  -20.0105   -9.3286 S   0  0  0  0  0  0  0  0  0  0  0  0
   20.0753  -20.4865  -12.1595 C   0  0  0  0  0  0  0  0  0  0  0  0
   19.3209  -21.5190  -11.6264 O   0  0  0  0  0  0  0  0  0  0  0  0
   19.4521  -19.6542  -12.8763 O   0  0  0  0  0  0  0  0  0  0  0  0
  2  1  1  0
  3  2  2  0
  4  3  1  0
  5 11  1  0
  5  4  2  0
  6  5  1  0
  7  6  1  0
  7  8  1  6
  9  7  1  0
  9 13  1  0
 10  9  2  0
 11 12  2  0
 12  2  1  0
 14 13  1  0
 14 18  1  0
 14 15  1  6
 16 17  2  0
 16 15  1  0
 18 19  2  0
 20 16  1  0
 21 18  1  0
 21 22  1  0
 22 23  1  1
 23 24  1  0
 25 22  1  0
 25 26  1  0
 27 25  2  0
M  END
$$$$
