YDC.pdb
     RDKit          3D

 27 27  0  0  1  0  0  0  0  0999 V2000
   31.9796  -22.7815  -10.6911 O   0  0  0  0  0  0  0  0  0  0  0  0
   30.7687  -22.1978  -11.0339 C   0  0  0  0  0  0  0  0  0  0  0  0
   30.4101  -22.1946  -12.3656 C   0  0  0  0  0  0  0  0  0  0  0  0
   29.2199  -21.6259  -12.7417 C   0  0  0  0  0  0  0  0  0  0  0  0
   28.3991  -21.0684  -11.8051 C   0  0  0  0  0  0  0  0  0  0  0  0
   27.1146  -20.4586  -12.2705 C   0  0  0  0  0  0  0  0  0  0  0  0
   27.4138  -19.7595  -13.5687 C   0  0  2  0  0  0  0  0  0  0  0  0
   28.3329  -18.6648  -13.3280 N   0  0  0  0  0  0  0  0  0  0  0  0
   26.1856  -19.2116  -14.2168 C   0  0  0  0  0  0  0  0  0  0  0  0
   25.8086  -18.0125  -13.9866 O   0  0  0  0  0  0  0  0  0  0  0  0
   28.7249  -21.0556  -10.4796 C   0  0  0  0  0  0  0  0  0  0  0  0
   29.9253  -21.6302  -10.1068 C   0  0  0  0  0  0  0  0  0  0  0  0
   25.3748  -19.9558  -15.1051 N   0  0  0  0  0  0  0  0  0  0  0  0
   24.1444  -19.4440  -15.6260 C   0  0  1  0  0  0  0  0  0  0  0  0
   23.9470  -19.7114  -17.0959 C   0  0  0  0  0  0  0  0  0  0  0  0
   25.0094  -19.1646  -17.9472 C   0  0  0  0  0  0  0  0  0  0  0  0
   25.1283  -17.9109  -18.0481 O   0  0  0  0  0  0  0  0  0  0  0  0
   22.9647  -19.8496  -14.8219 C   0  0  0  0  0  0  0  0  0  0  0  0
   22.9192  -21.0326  -14.4035 O   0  0  0  0  0  0  0  0  0  0  0  0
   25.9118  -19.9333  -18.6641 O   0  0  0  0  0  0  0  0  0  0  0  0
   21.9255  -18.9719  -14.5238 N   0  0  0  0  0  0  0  0  0  0  0  0
   20.7600  -19.3009  -13.7182 C   0  0  1  0  0  0  0  0  0  0  0  0
   20.2702  -18.1004  -12.9297 C   0  0  0  0  0  0  0  0  0  0  0  0
   18.8548  -18.6719  -11.9382 S   0  0  0  0  0  0  0  0  0  0  0  0
   19.6786  -19.6994  -14.6512 C   0  0  0  0  0  0  0  0  0  0  0  0
   18.7251  -20.6361  -14.2868 O   0  0  0  0  0  0  0  0  0  0  0  0
   19.5681  -19.2150  -15.8122 O   0  0  0  0  0  0  0  0  0  0  0  0
  2  1  1  0
  3  2  2  0
  4  3  1  0
  5 11  1  0
  5  4  2  0
  6  5  1  0
  7  6  1  0
  7  8  1  1
  9  7  1  0
  9 13  1  0
 10  9  2  0
 11 12  2  0
 12  2  1  0
 14 13  1  0
 14 18  1  0
 14 15  1  6
 16 17  2  0
 16 15  1  0
 18 19  2  0
 20 16  1  0
 21 18  1  0
 21 22  1  0
 22 23  1  6
 23 24  1  0
 25 22  1  0
 25 26  1  0
 27 25  2  0
M  END
$$$$
