YDC.pdb
     RDKit          3D

 27 27  0  0  1  0  0  0  0  0999 V2000
   20.6131  -16.0168  -21.0376 O   0  0  0  0  0  0  0  0  0  0  0  0
   20.3624  -14.8490  -20.3320 C   0  0  0  0  0  0  0  0  0  0  0  0
   19.5617  -14.9332  -19.2122 C   0  0  0  0  0  0  0  0  0  0  0  0
   19.2919  -13.7987  -18.4899 C   0  0  0  0  0  0  0  0  0  0  0  0
   19.8119  -12.5983  -18.8773 C   0  0  0  0  0  0  0  0  0  0  0  0
   19.4828  -11.3922  -18.0554 C   0  0  0  0  0  0  0  0  0  0  0  0
   20.5316  -11.3028  -16.9804 C   0  0  2  0  0  0  0  0  0  0  0  0
   20.4509  -12.4719  -16.1273 N   0  0  0  0  0  0  0  0  0  0  0  0
   20.3737  -10.0856  -16.1303 C   0  0  0  0  0  0  0  0  0  0  0  0
   20.2712  -10.1880  -14.8607 O   0  0  0  0  0  0  0  0  0  0  0  0
   20.6078  -12.4816  -19.9801 C   0  0  0  0  0  0  0  0  0  0  0  0
   20.8761  -13.6281  -20.7038 C   0  0  0  0  0  0  0  0  0  0  0  0
   20.3274   -8.7715  -16.6513 N   0  0  0  0  0  0  0  0  0  0  0  0
   20.2464   -7.6187  -15.8079 C   0  0  1  0  0  0  0  0  0  0  0  0
   21.2319   -7.6273  -14.6679 C   0  0  0  0  0  0  0  0  0  0  0  0
   21.1274   -6.4615  -13.7835 C   0  0  0  0  0  0  0  0  0  0  0  0
   20.0608   -6.2822  -13.1306 O   0  0  0  0  0  0  0  0  0  0  0  0
   20.2839   -6.3444  -16.5680 C   0  0  0  0  0  0  0  0  0  0  0  0
   21.3600   -6.0309  -17.1339 O   0  0  0  0  0  0  0  0  0  0  0  0
   22.1297   -5.5219  -13.6048 O   0  0  0  0  0  0  0  0  0  0  0  0
   19.1800   -5.5016  -16.6696 N   0  0  0  0  0  0  0  0  0  0  0  0
   19.0384   -4.4242  -17.6364 C   0  0  1  0  0  0  0  0  0  0  0  0
   17.5797   -4.1311  -17.9351 C   0  0  0  0  0  0  0  0  0  0  0  0
   16.8330   -5.7021  -18.4714 S   0  0  0  0  0  0  0  0  0  0  0  0
   19.6276   -3.2070  -17.0282 C   0  0  0  0  0  0  0  0  0  0  0  0
   19.7325   -2.0255  -17.7442 O   0  0  0  0  0  0  0  0  0  0  0  0
   20.0602   -3.1795  -15.8421 O   0  0  0  0  0  0  0  0  0  0  0  0
  2  1  1  0
  3  2  2  0
  4  3  1  0
  5 11  1  0
  5  4  2  0
  6  5  1  0
  7  6  1  0
  7  8  1  1
  9  7  1  0
  9 13  1  0
 10  9  2  0
 11 12  2  0
 12  2  1  0
 14 13  1  0
 14 18  1  0
 14 15  1  1
 16 17  2  0
 16 15  1  0
 18 19  2  0
 20 16  1  0
 21 18  1  0
 21 22  1  0
 22 23  1  1
 23 24  1  0
 25 22  1  0
 25 26  1  0
 27 25  2  0
M  END
$$$$
