YDC.pdb
     RDKit          3D

 27 27  0  0  1  0  0  0  0  0999 V2000
   22.2664  -18.3894  -20.6183 O   0  0  0  0  0  0  0  0  0  0  0  0
   22.1081  -17.0872  -20.1670 C   0  0  0  0  0  0  0  0  0  0  0  0
   21.5321  -16.9012  -18.9277 C   0  0  0  0  0  0  0  0  0  0  0  0
   21.3594  -15.6274  -18.4491 C   0  0  0  0  0  0  0  0  0  0  0  0
   21.7544  -14.5547  -19.1940 C   0  0  0  0  0  0  0  0  0  0  0  0
   21.5392  -13.1875  -18.6257 C   0  0  0  0  0  0  0  0  0  0  0  0
   22.9017  -12.6280  -18.3189 C   0  0  2  0  0  0  0  0  0  0  0  0
   23.5382  -13.4368  -17.2983 N   0  0  0  0  0  0  0  0  0  0  0  0
   22.8422  -11.2169  -17.8349 C   0  0  0  0  0  0  0  0  0  0  0  0
   22.6203  -10.9609  -16.6027 O   0  0  0  0  0  0  0  0  0  0  0  0
   22.3276  -14.7050  -20.4236 C   0  0  0  0  0  0  0  0  0  0  0  0
   22.4991  -15.9908  -20.9005 C   0  0  0  0  0  0  0  0  0  0  0  0
   23.0213  -10.0954  -18.6778 N   0  0  0  0  0  0  0  0  0  0  0  0
   22.9433   -8.7530  -18.1889 C   0  0  1  0  0  0  0  0  0  0  0  0
   23.5993   -7.7377  -19.0887 C   0  0  0  0  0  0  0  0  0  0  0  0
   23.5647   -6.3683  -18.5638 C   0  0  0  0  0  0  0  0  0  0  0  0
   24.4777   -5.9916  -17.7759 O   0  0  0  0  0  0  0  0  0  0  0  0
   21.5636   -8.3558  -17.8124 C   0  0  0  0  0  0  0  0  0  0  0  0
   20.6136   -8.8302  -18.4824 O   0  0  0  0  0  0  0  0  0  0  0  0
   22.5874   -5.4360  -18.8720 O   0  0  0  0  0  0  0  0  0  0  0  0
   21.2974   -7.4876  -16.7567 N   0  0  0  0  0  0  0  0  0  0  0  0
   19.9734   -7.0278  -16.3675 C   0  0  1  0  0  0  0  0  0  0  0  0
   19.2685   -8.0411  -15.4848 C   0  0  0  0  0  0  0  0  0  0  0  0
   17.7419   -7.2440  -14.8952 S   0  0  0  0  0  0  0  0  0  0  0  0
   20.1538   -5.7876  -15.5750 C   0  0  0  0  0  0  0  0  0  0  0  0
   21.4121   -5.3678  -15.1752 O   0  0  0  0  0  0  0  0  0  0  0  0
   19.1857   -5.0560  -15.2254 O   0  0  0  0  0  0  0  0  0  0  0  0
  2  1  1  0
  3  2  2  0
  4  3  1  0
  5 11  1  0
  5  4  2  0
  6  5  1  0
  7  6  1  0
  7  8  1  1
  9  7  1  0
  9 13  1  0
 10  9  2  0
 11 12  2  0
 12  2  1  0
 14 13  1  0
 14 18  1  0
 14 15  1  6
 16 17  2  0
 16 15  1  0
 18 19  2  0
 20 16  1  0
 21 18  1  0
 21 22  1  0
 22 23  1  1
 23 24  1  0
 25 22  1  0
 25 26  1  0
 27 25  2  0
M  END
$$$$
