YDC.pdb
     RDKit          3D

 27 27  0  0  1  0  0  0  0  0999 V2000
   18.4044  -17.2624  -21.0082 O   0  0  0  0  0  0  0  0  0  0  0  0
   18.5783  -16.2631  -20.0618 C   0  0  0  0  0  0  0  0  0  0  0  0
   19.1464  -16.6122  -18.8545 C   0  0  0  0  0  0  0  0  0  0  0  0
   19.3334  -15.6505  -17.8945 C   0  0  0  0  0  0  0  0  0  0  0  0
   18.9600  -14.3601  -18.1336 C   0  0  0  0  0  0  0  0  0  0  0  0
   19.1834  -13.3522  -17.0507 C   0  0  0  0  0  0  0  0  0  0  0  0
   20.4522  -12.6212  -17.3961 C   0  0  2  0  0  0  0  0  0  0  0  0
   21.5869  -13.5010  -17.1972 N   0  0  0  0  0  0  0  0  0  0  0  0
   20.6502  -11.3986  -16.5624 C   0  0  0  0  0  0  0  0  0  0  0  0
   21.1211  -11.4886  -15.3779 O   0  0  0  0  0  0  0  0  0  0  0  0
   18.3956  -13.9824  -19.3176 C   0  0  0  0  0  0  0  0  0  0  0  0
   18.2097  -14.9558  -20.2810 C   0  0  0  0  0  0  0  0  0  0  0  0
   20.3409  -10.0925  -17.0082 N   0  0  0  0  0  0  0  0  0  0  0  0
   20.4853   -8.9446  -16.1665 C   0  0  1  0  0  0  0  0  0  0  0  0
   21.3124   -7.8422  -16.7761 C   0  0  0  0  0  0  0  0  0  0  0  0
   21.4477   -6.6584  -15.9204 C   0  0  0  0  0  0  0  0  0  0  0  0
   21.6618   -6.8171  -14.6854 O   0  0  0  0  0  0  0  0  0  0  0  0
   19.1886   -8.4455  -15.6445 C   0  0  0  0  0  0  0  0  0  0  0  0
   18.2439   -8.3045  -16.4595 O   0  0  0  0  0  0  0  0  0  0  0  0
   21.3571   -5.3516  -16.3715 O   0  0  0  0  0  0  0  0  0  0  0  0
   18.9933   -8.1346  -14.3013 N   0  0  0  0  0  0  0  0  0  0  0  0
   17.7409   -7.6700  -13.7255 C   0  0  1  0  0  0  0  0  0  0  0  0
   17.6538   -7.9935  -12.2454 C   0  0  0  0  0  0  0  0  0  0  0  0
   17.6224   -9.8084  -12.1108 S   0  0  0  0  0  0  0  0  0  0  0  0
   17.7124   -6.1943  -13.8670 C   0  0  0  0  0  0  0  0  0  0  0  0
   16.5903   -5.4611  -13.5166 O   0  0  0  0  0  0  0  0  0  0  0  0
   18.6938   -5.5333  -14.3082 O   0  0  0  0  0  0  0  0  0  0  0  0
  2  1  1  0
  3  2  2  0
  4  3  1  0
  5 11  1  0
  5  4  2  0
  6  5  1  0
  7  6  1  0
  7  8  1  1
  9  7  1  0
  9 13  1  0
 10  9  2  0
 11 12  2  0
 12  2  1  0
 14 13  1  0
 14 18  1  0
 14 15  1  6
 16 17  2  0
 16 15  1  0
 18 19  2  0
 20 16  1  0
 21 18  1  0
 21 22  1  0
 22 23  1  1
 23 24  1  0
 25 22  1  0
 25 26  1  0
 27 25  2  0
M  END
$$$$
