YDC.pdb
     RDKit          3D

 27 27  0  0  1  0  0  0  0  0999 V2000
   30.2203  -10.9703  -16.9549 O   0  0  0  0  0  0  0  0  0  0  0  0
   28.9428  -10.4458  -16.8225 C   0  0  0  0  0  0  0  0  0  0  0  0
   28.4717   -9.6357  -17.8343 C   0  0  0  0  0  0  0  0  0  0  0  0
   27.2131   -9.0991  -17.7372 C   0  0  0  0  0  0  0  0  0  0  0  0
   26.4353   -9.3655  -16.6484 C   0  0  0  0  0  0  0  0  0  0  0  0
   25.0721   -8.7515  -16.5918 C   0  0  0  0  0  0  0  0  0  0  0  0
   24.0882   -9.8884  -16.5390 C   0  0  2  0  0  0  0  0  0  0  0  0
   24.2288  -10.7055  -17.7279 N   0  0  0  0  0  0  0  0  0  0  0  0
   22.6747   -9.4150  -16.4552 C   0  0  0  0  0  0  0  0  0  0  0  0
   21.9830   -9.2422  -17.5155 O   0  0  0  0  0  0  0  0  0  0  0  0
   26.8720  -10.1632  -15.6304 C   0  0  0  0  0  0  0  0  0  0  0  0
   28.1410  -10.7011  -15.7339 C   0  0  0  0  0  0  0  0  0  0  0  0
   22.0184   -9.1322  -15.2347 N   0  0  0  0  0  0  0  0  0  0  0  0
   20.6834   -8.6198  -15.1870 C   0  0  1  0  0  0  0  0  0  0  0  0
   19.8967   -9.0799  -13.9868 C   0  0  0  0  0  0  0  0  0  0  0  0
   18.5101   -8.6013  -13.9662 C   0  0  0  0  0  0  0  0  0  0  0  0
   17.9714   -8.2395  -15.0502 O   0  0  0  0  0  0  0  0  0  0  0  0
   20.6245   -7.1470  -15.3613 C   0  0  0  0  0  0  0  0  0  0  0  0
   21.3502   -6.4395  -14.6202 O   0  0  0  0  0  0  0  0  0  0  0  0
   17.7288   -8.5136  -12.8255 O   0  0  0  0  0  0  0  0  0  0  0  0
   19.8022   -6.5383  -16.3060 N   0  0  0  0  0  0  0  0  0  0  0  0
   19.7724   -5.1124  -16.5920 C   0  0  1  0  0  0  0  0  0  0  0  0
   19.6378   -4.8448  -18.0796 C   0  0  0  0  0  0  0  0  0  0  0  0
   18.2573   -5.8737  -18.6701 S   0  0  0  0  0  0  0  0  0  0  0  0
   18.5724   -4.5546  -15.9230 C   0  0  0  0  0  0  0  0  0  0  0  0
   18.3335   -3.1901  -15.8984 O   0  0  0  0  0  0  0  0  0  0  0  0
   17.7145   -5.2805  -15.3470 O   0  0  0  0  0  0  0  0  0  0  0  0
  2  1  1  0
  3  2  2  0
  4  3  1  0
  5 11  1  0
  5  4  2  0
  6  5  1  0
  7  6  1  0
  7  8  1  6
  9  7  1  0
  9 13  1  0
 10  9  2  0
 11 12  2  0
 12  2  1  0
 14 13  1  0
 14 18  1  0
 14 15  1  1
 16 17  2  0
 16 15  1  0
 18 19  2  0
 20 16  1  0
 21 18  1  0
 21 22  1  0
 22 23  1  6
 23 24  1  0
 25 22  1  0
 25 26  1  0
 27 25  2  0
M  END
$$$$
