HFE.pdb
     RDKit          3D

 31 32  0  0  1  0  0  0  0  0999 V2000
   21.4072  -12.0374  -20.1075 N   0  0  0  0  0  0  0  0  0  0  0  0
   21.6199  -10.6014  -20.1202 C   0  0  1  0  0  0  0  0  0  0  0  0
   20.9136   -9.9313  -21.2531 C   0  0  0  0  0  0  0  0  0  0  0  0
   21.4664  -10.3926  -22.5624 C   0  0  0  0  0  0  0  0  0  0  0  0
   20.8340  -11.1367  -23.5307 C   0  0  0  0  0  0  0  0  0  0  0  0
   21.6757  -11.3369  -24.5547 N   0  0  0  0  0  0  0  0  0  0  0  0
   22.8102  -10.7331  -24.2375 C   0  0  0  0  0  0  0  0  0  0  0  0
   22.7156  -10.1524  -23.0379 N   0  0  0  0  0  0  0  0  0  0  0  0
   21.2178  -10.0478  -18.8093 C   0  0  0  0  0  0  0  0  0  0  0  0
   20.1123  -10.3869  -18.2646 O   0  0  0  0  0  0  0  0  0  0  0  0
   22.0184   -9.1154  -18.0706 N   0  0  0  0  0  0  0  0  0  0  0  0
   21.5874   -8.5431  -16.8145 C   0  0  1  0  0  0  0  0  0  0  0  0
   22.8176   -8.4438  -15.9091 C   0  0  0  0  0  0  0  0  0  0  0  0
   22.4727   -7.9560  -14.5500 C   0  0  0  0  0  0  0  0  0  0  0  0
   22.1311   -8.8542  -13.5397 C   0  0  0  0  0  0  0  0  0  0  0  0
   21.8032   -8.4604  -12.2699 C   0  0  0  0  0  0  0  0  0  0  0  0
   21.8059   -7.1218  -11.9595 C   0  0  0  0  0  0  0  0  0  0  0  0
   22.1411   -6.2224  -12.9464 C   0  0  0  0  0  0  0  0  0  0  0  0
   22.4705   -6.6202  -14.2230 C   0  0  0  0  0  0  0  0  0  0  0  0
   21.0298   -7.1832  -16.9347 C   0  0  0  0  0  0  0  0  0  0  0  0
   21.6295   -6.2874  -17.5656 O   0  0  0  0  0  0  0  0  0  0  0  0
   19.7849   -6.9254  -16.3069 N   0  0  0  0  0  0  0  0  0  0  0  0
   19.1598   -5.5854  -16.3252 C   0  0  1  0  0  0  0  0  0  0  0  0
   17.7197   -5.8228  -16.6616 C   0  0  0  0  0  0  0  0  0  0  0  0
   16.8417   -4.6277  -16.7658 C   0  0  0  0  0  0  0  0  0  0  0  0
   15.4836   -4.8839  -17.2719 C   0  0  0  0  0  0  0  0  0  0  0  0
   15.3354   -5.1279  -18.5062 O   0  0  0  0  0  0  0  0  0  0  0  0
   19.4107   -4.8046  -15.1432 C   0  0  0  0  0  0  0  0  0  0  0  0
   19.8972   -3.6379  -15.1863 O   0  0  0  0  0  0  0  0  0  0  0  0
   14.3787   -4.8660  -16.4476 O   0  0  0  0  0  0  0  0  0  0  0  0
   19.1014   -5.3651  -13.8886 O   0  0  0  0  0  0  0  0  0  0  0  0
  2  1  1  1
  3  2  1  0
  3  4  1  0
  4  8  1  0
  4  5  2  0
  5  6  1  0
  7  6  1  0
  8  7  2  0
  9  2  1  0
 10  9  2  0
 11  9  1  0
 12 11  1  0
 13 14  1  0
 12 13  1  1
 14 15  2  0
 15 16  1  0
 17 16  2  0
 18 17  1  0
 19 14  1  0
 19 18  2  0
 20 22  1  0
 20 12  1  0
 21 20  2  0
 23 24  1  1
 23 22  1  0
 25 24  1  0
 26 25  1  0
 27 26  2  0
 28 23  1  0
 29 28  2  0
 30 26  1  0
 31 28  1  0
M  END
$$$$
