HFE.pdb
     RDKit          3D

 31 32  0  0  1  0  0  0  0  0999 V2000
   27.7254  -23.4387  -17.2210 N   0  0  0  0  0  0  0  0  0  0  0  0
   27.2886  -22.0902  -16.9070 C   0  0  1  0  0  0  0  0  0  0  0  0
   26.5708  -21.4445  -18.0468 C   0  0  0  0  0  0  0  0  0  0  0  0
   27.4655  -20.4756  -18.7492 C   0  0  0  0  0  0  0  0  0  0  0  0
   27.5636  -19.1187  -18.5483 C   0  0  0  0  0  0  0  0  0  0  0  0
   28.4861  -18.6141  -19.3799 N   0  0  0  0  0  0  0  0  0  0  0  0
   28.9567  -19.6297  -20.0865 C   0  0  0  0  0  0  0  0  0  0  0  0
   28.3591  -20.7699  -19.7286 N   0  0  0  0  0  0  0  0  0  0  0  0
   26.4630  -22.1293  -15.6809 C   0  0  0  0  0  0  0  0  0  0  0  0
   25.6255  -23.0744  -15.4831 O   0  0  0  0  0  0  0  0  0  0  0  0
   26.5404  -21.1367  -14.6490 N   0  0  0  0  0  0  0  0  0  0  0  0
   25.7094  -21.1768  -13.4662 C   0  0  1  0  0  0  0  0  0  0  0  0
   26.4516  -20.4259  -12.3580 C   0  0  0  0  0  0  0  0  0  0  0  0
   25.6670  -20.3704  -11.0989 C   0  0  0  0  0  0  0  0  0  0  0  0
   26.0076  -21.1786  -10.0149 C   0  0  0  0  0  0  0  0  0  0  0  0
   25.3189  -21.1697   -8.8314 C   0  0  0  0  0  0  0  0  0  0  0  0
   24.2397  -20.3314   -8.6880 C   0  0  0  0  0  0  0  0  0  0  0  0
   23.8910  -19.5269   -9.7494 C   0  0  0  0  0  0  0  0  0  0  0  0
   24.5845  -19.5373  -10.9390 C   0  0  0  0  0  0  0  0  0  0  0  0
   24.3999  -20.5188  -13.6304 C   0  0  0  0  0  0  0  0  0  0  0  0
   24.3122  -19.3030  -13.9034 O   0  0  0  0  0  0  0  0  0  0  0  0
   23.2387  -21.3157  -13.4666 N   0  0  0  0  0  0  0  0  0  0  0  0
   21.8770  -20.7480  -13.5684 C   0  0  1  0  0  0  0  0  0  0  0  0
   21.0586  -21.7979  -14.2550 C   0  0  0  0  0  0  0  0  0  0  0  0
   20.5240  -22.8997  -13.4123 C   0  0  0  0  0  0  0  0  0  0  0  0
   19.7460  -23.9227  -14.1294 C   0  0  0  0  0  0  0  0  0  0  0  0
   19.2606  -24.8869  -13.4665 O   0  0  0  0  0  0  0  0  0  0  0  0
   21.3526  -20.2542  -12.3231 C   0  0  0  0  0  0  0  0  0  0  0  0
   20.3747  -19.4541  -12.2636 O   0  0  0  0  0  0  0  0  0  0  0  0
   19.5328  -23.8612  -15.4902 O   0  0  0  0  0  0  0  0  0  0  0  0
   21.9548  -20.6804  -11.1233 O   0  0  0  0  0  0  0  0  0  0  0  0
  2  1  1  6
  3  2  1  0
  3  4  1  0
  4  8  1  0
  4  5  2  0
  5  6  1  0
  7  6  1  0
  8  7  2  0
  9  2  1  0
 10  9  2  0
 11  9  1  0
 12 11  1  0
 13 14  1  0
 12 13  1  1
 14 15  2  0
 15 16  1  0
 17 16  2  0
 18 17  1  0
 19 14  1  0
 19 18  2  0
 20 22  1  0
 20 12  1  0
 21 20  2  0
 23 24  1  1
 23 22  1  0
 25 24  1  0
 26 25  1  0
 27 26  2  0
 28 23  1  0
 29 28  2  0
 30 26  1  0
 31 28  1  0
M  END
$$$$
