HFE.pdb
     RDKit          3D

 31 32  0  0  1  0  0  0  0  0999 V2000
   27.3486  -19.7869  -19.1463 N   0  0  0  0  0  0  0  0  0  0  0  0
   26.9948  -18.8722  -18.0759 C   0  0  1  0  0  0  0  0  0  0  0  0
   25.9947  -17.8502  -18.5078 C   0  0  0  0  0  0  0  0  0  0  0  0
   26.6674  -16.7334  -19.2378 C   0  0  0  0  0  0  0  0  0  0  0  0
   26.9310  -15.4636  -18.7803 C   0  0  0  0  0  0  0  0  0  0  0  0
   27.5504  -14.7663  -19.7433 N   0  0  0  0  0  0  0  0  0  0  0  0
   27.6731  -15.5785  -20.7813 C   0  0  0  0  0  0  0  0  0  0  0  0
   27.1484  -16.7763  -20.5071 N   0  0  0  0  0  0  0  0  0  0  0  0
   26.5222  -19.6564  -16.9148 C   0  0  0  0  0  0  0  0  0  0  0  0
   25.5918  -20.5234  -17.0428 O   0  0  0  0  0  0  0  0  0  0  0  0
   27.0601  -19.5074  -15.5940 N   0  0  0  0  0  0  0  0  0  0  0  0
   26.4264  -20.0784  -14.4263 C   0  0  1  0  0  0  0  0  0  0  0  0
   27.3415  -19.8088  -13.2293 C   0  0  0  0  0  0  0  0  0  0  0  0
   26.7664  -20.3210  -11.9601 C   0  0  0  0  0  0  0  0  0  0  0  0
   26.2438  -19.4417  -11.0125 C   0  0  0  0  0  0  0  0  0  0  0  0
   25.7029  -19.8582   -9.8255 C   0  0  0  0  0  0  0  0  0  0  0  0
   25.6651  -21.2015   -9.5387 C   0  0  0  0  0  0  0  0  0  0  0  0
   26.1771  -22.0825  -10.4644 C   0  0  0  0  0  0  0  0  0  0  0  0
   26.7208  -21.6619  -11.6577 C   0  0  0  0  0  0  0  0  0  0  0  0
   25.1136  -19.4875  -14.1067 C   0  0  0  0  0  0  0  0  0  0  0  0
   24.9057  -18.2615  -14.2246 O   0  0  0  0  0  0  0  0  0  0  0  0
   24.0909  -20.3614  -13.6587 N   0  0  0  0  0  0  0  0  0  0  0  0
   22.7258  -19.8808  -13.3547 C   0  0  1  0  0  0  0  0  0  0  0  0
   22.1770  -19.3906  -14.6593 C   0  0  0  0  0  0  0  0  0  0  0  0
   21.8937  -20.4115  -15.7022 C   0  0  0  0  0  0  0  0  0  0  0  0
   20.5077  -20.9051  -15.7428 C   0  0  0  0  0  0  0  0  0  0  0  0
   19.5671  -20.0589  -15.8058 O   0  0  0  0  0  0  0  0  0  0  0  0
   21.9126  -20.8330  -12.6465 C   0  0  0  0  0  0  0  0  0  0  0  0
   20.8925  -20.4963  -11.9787 O   0  0  0  0  0  0  0  0  0  0  0  0
   20.2077  -22.2504  -15.7145 O   0  0  0  0  0  0  0  0  0  0  0  0
   22.2697  -22.1944  -12.7004 O   0  0  0  0  0  0  0  0  0  0  0  0
  2  1  1  6
  3  2  1  0
  3  4  1  0
  4  8  1  0
  4  5  2  0
  5  6  1  0
  7  6  1  0
  8  7  2  0
  9  2  1  0
 10  9  2  0
 11  9  1  0
 12 11  1  0
 13 14  1  0
 12 13  1  1
 14 15  2  0
 15 16  1  0
 17 16  2  0
 18 17  1  0
 19 14  1  0
 19 18  2  0
 20 22  1  0
 20 12  1  0
 21 20  2  0
 23 24  1  6
 23 22  1  0
 25 24  1  0
 26 25  1  0
 27 26  2  0
 28 23  1  0
 29 28  2  0
 30 26  1  0
 31 28  1  0
M  END
$$$$
