HFE.pdb
     RDKit          3D

 31 32  0  0  1  0  0  0  0  0999 V2000
   27.5304  -38.2237  -12.0263 N   0  0  0  0  0  0  0  0  0  0  0  0
   26.6263  -38.4530  -10.9137 C   0  0  1  0  0  0  0  0  0  0  0  0
   26.4797  -39.9037  -10.5891 C   0  0  0  0  0  0  0  0  0  0  0  0
   25.7951  -40.6245  -11.7046 C   0  0  0  0  0  0  0  0  0  0  0  0
   26.1959  -41.7788  -12.3355 C   0  0  0  0  0  0  0  0  0  0  0  0
   25.3025  -42.0983  -13.2825 N   0  0  0  0  0  0  0  0  0  0  0  0
   24.3625  -41.1668  -13.2477 C   0  0  0  0  0  0  0  0  0  0  0  0
   24.6317  -40.2607  -12.3035 N   0  0  0  0  0  0  0  0  0  0  0  0
   27.0920  -37.6675   -9.7507 C   0  0  0  0  0  0  0  0  0  0  0  0
   28.3080  -37.7283   -9.3616 O   0  0  0  0  0  0  0  0  0  0  0  0
   26.2365  -36.8004   -8.9943 N   0  0  0  0  0  0  0  0  0  0  0  0
   26.6936  -36.0808   -7.8262 C   0  0  1  0  0  0  0  0  0  0  0  0
   26.0412  -34.6964   -7.8553 C   0  0  0  0  0  0  0  0  0  0  0  0
   26.3558  -33.9052   -6.6392 C   0  0  0  0  0  0  0  0  0  0  0  0
   25.3403  -33.5026   -5.7727 C   0  0  0  0  0  0  0  0  0  0  0  0
   25.5725  -32.7710   -4.6387 C   0  0  0  0  0  0  0  0  0  0  0  0
   26.8602  -32.4083   -4.3248 C   0  0  0  0  0  0  0  0  0  0  0  0
   27.8740  -32.7984   -5.1705 C   0  0  0  0  0  0  0  0  0  0  0  0
   27.6387  -33.5340   -6.3106 C   0  0  0  0  0  0  0  0  0  0  0  0
   26.3137  -36.7095   -6.5474 C   0  0  0  0  0  0  0  0  0  0  0  0
   25.1426  -37.0853   -6.3297 O   0  0  0  0  0  0  0  0  0  0  0  0
   27.3267  -36.8732   -5.5690 N   0  0  0  0  0  0  0  0  0  0  0  0
   27.0265  -37.3480   -4.2011 C   0  0  1  0  0  0  0  0  0  0  0  0
   28.3396  -37.3405   -3.4803 C   0  0  0  0  0  0  0  0  0  0  0  0
   28.3410  -37.8073   -2.0689 C   0  0  0  0  0  0  0  0  0  0  0  0
   29.6396  -37.7323   -1.3803 C   0  0  0  0  0  0  0  0  0  0  0  0
   29.7427  -36.9801   -0.3662 O   0  0  0  0  0  0  0  0  0  0  0  0
   25.9503  -36.6425   -3.5579 C   0  0  0  0  0  0  0  0  0  0  0  0
   25.9201  -35.3814   -3.4652 O   0  0  0  0  0  0  0  0  0  0  0  0
   30.7368  -38.4514   -1.8044 O   0  0  0  0  0  0  0  0  0  0  0  0
   24.8891  -37.3890   -3.0101 O   0  0  0  0  0  0  0  0  0  0  0  0
  2  1  1  6
  3  2  1  0
  3  4  1  0
  4  8  1  0
  4  5  2  0
  5  6  1  0
  7  6  1  0
  8  7  2  0
  9  2  1  0
 10  9  2  0
 11  9  1  0
 12 11  1  0
 13 14  1  0
 12 13  1  1
 14 15  2  0
 15 16  1  0
 17 16  2  0
 18 17  1  0
 19 14  1  0
 19 18  2  0
 20 22  1  0
 20 12  1  0
 21 20  2  0
 23 24  1  1
 23 22  1  0
 25 24  1  0
 26 25  1  0
 27 26  2  0
 28 23  1  0
 29 28  2  0
 30 26  1  0
 31 28  1  0
M  END
$$$$
