HFE.pdb
     RDKit          3D

 31 32  0  0  1  0  0  0  0  0999 V2000
   25.2422  -34.2521  -11.9078 N   0  0  0  0  0  0  0  0  0  0  0  0
   24.7402  -35.0421  -10.7980 C   0  0  1  0  0  0  0  0  0  0  0  0
   25.1902  -36.4650  -10.8628 C   0  0  0  0  0  0  0  0  0  0  0  0
   24.4792  -37.1909  -11.9583 C   0  0  0  0  0  0  0  0  0  0  0  0
   23.5033  -36.7065  -12.7974 C   0  0  0  0  0  0  0  0  0  0  0  0
   23.1263  -37.6758  -13.6432 N   0  0  0  0  0  0  0  0  0  0  0  0
   23.8481  -38.7440  -13.3429 C   0  0  0  0  0  0  0  0  0  0  0  0
   24.6763  -38.4829  -12.3275 N   0  0  0  0  0  0  0  0  0  0  0  0
   25.1365  -34.3910   -9.5310 C   0  0  0  0  0  0  0  0  0  0  0  0
   26.3408  -34.0088   -9.3377 O   0  0  0  0  0  0  0  0  0  0  0  0
   24.2223  -34.1447   -8.4541 N   0  0  0  0  0  0  0  0  0  0  0  0
   24.6114  -33.4529   -7.2453 C   0  0  1  0  0  0  0  0  0  0  0  0
   23.4975  -32.4592   -6.9063 C   0  0  0  0  0  0  0  0  0  0  0  0
   23.4013  -31.3657   -7.9058 C   0  0  0  0  0  0  0  0  0  0  0  0
   22.5350  -31.4731   -8.9932 C   0  0  0  0  0  0  0  0  0  0  0  0
   22.4071  -30.4971   -9.9451 C   0  0  0  0  0  0  0  0  0  0  0  0
   23.1596  -29.3523   -9.8394 C   0  0  0  0  0  0  0  0  0  0  0  0
   24.0196  -29.2313   -8.7712 C   0  0  0  0  0  0  0  0  0  0  0  0
   24.1472  -30.2139   -7.8148 C   0  0  0  0  0  0  0  0  0  0  0  0
   24.7730  -34.3350   -6.0747 C   0  0  0  0  0  0  0  0  0  0  0  0
   23.9871  -35.2818   -5.8599 O   0  0  0  0  0  0  0  0  0  0  0  0
   25.8548  -34.0709   -5.1970 N   0  0  0  0  0  0  0  0  0  0  0  0
   26.1066  -34.8919   -3.9932 C   0  0  1  0  0  0  0  0  0  0  0  0
   27.5887  -34.8437   -3.7817 C   0  0  0  0  0  0  0  0  0  0  0  0
   28.1312  -35.5833   -2.6117 C   0  0  0  0  0  0  0  0  0  0  0  0
   29.5896  -35.4998   -2.4327 C   0  0  0  0  0  0  0  0  0  0  0  0
   30.2584  -34.7961   -3.2465 O   0  0  0  0  0  0  0  0  0  0  0  0
   25.2961  -34.5351   -2.8595 C   0  0  0  0  0  0  0  0  0  0  0  0
   24.8184  -33.3748   -2.7001 O   0  0  0  0  0  0  0  0  0  0  0  0
   30.2419  -36.1600   -1.4133 O   0  0  0  0  0  0  0  0  0  0  0  0
   25.0257  -35.5197   -1.8893 O   0  0  0  0  0  0  0  0  0  0  0  0
  2  1  1  6
  3  2  1  0
  3  4  1  0
  4  8  1  0
  4  5  2  0
  5  6  1  0
  7  6  1  0
  8  7  2  0
  9  2  1  0
 10  9  2  0
 11  9  1  0
 12 11  1  0
 13 14  1  0
 12 13  1  1
 14 15  2  0
 15 16  1  0
 17 16  2  0
 18 17  1  0
 19 14  1  0
 19 18  2  0
 20 22  1  0
 20 12  1  0
 21 20  2  0
 23 24  1  1
 23 22  1  0
 25 24  1  0
 26 25  1  0
 27 26  2  0
 28 23  1  0
 29 28  2  0
 30 26  1  0
 31 28  1  0
M  END
$$$$
