HFE.pdb
     RDKit          3D

 31 32  0  0  1  0  0  0  0  0999 V2000
   24.4416  -12.1230  -19.1337 N   0  0  0  0  0  0  0  0  0  0  0  0
   23.7793  -10.9017  -19.5550 C   0  0  1  0  0  0  0  0  0  0  0  0
   22.6139  -11.1662  -20.4511 C   0  0  0  0  0  0  0  0  0  0  0  0
   23.0767  -11.6757  -21.7773 C   0  0  0  0  0  0  0  0  0  0  0  0
   22.6285  -12.7823  -22.4598 C   0  0  0  0  0  0  0  0  0  0  0  0
   23.3005  -12.8919  -23.6146 N   0  0  0  0  0  0  0  0  0  0  0  0
   24.1510  -11.8784  -23.6569 C   0  0  0  0  0  0  0  0  0  0  0  0
   24.0401  -11.1241  -22.5596 N   0  0  0  0  0  0  0  0  0  0  0  0
   23.3932  -10.1297  -18.3544 C   0  0  0  0  0  0  0  0  0  0  0  0
   22.7011  -10.6661  -17.4232 O   0  0  0  0  0  0  0  0  0  0  0  0
   23.7589   -8.7584  -18.1503 N   0  0  0  0  0  0  0  0  0  0  0  0
   23.4009   -8.0266  -16.9555 C   0  0  1  0  0  0  0  0  0  0  0  0
   24.7017   -7.5792  -16.2840 C   0  0  0  0  0  0  0  0  0  0  0  0
   25.5188   -8.7312  -15.8266 C   0  0  0  0  0  0  0  0  0  0  0  0
   26.6723   -9.1011  -16.5173 C   0  0  0  0  0  0  0  0  0  0  0  0
   27.4621  -10.1547  -16.1415 C   0  0  0  0  0  0  0  0  0  0  0  0
   27.1169  -10.8923  -15.0347 C   0  0  0  0  0  0  0  0  0  0  0  0
   25.9807  -10.5394  -14.3420 C   0  0  0  0  0  0  0  0  0  0  0  0
   25.1874   -9.4796  -14.7214 C   0  0  0  0  0  0  0  0  0  0  0  0
   22.6078   -6.8101  -17.2120 C   0  0  0  0  0  0  0  0  0  0  0  0
   22.9167   -6.0116  -18.1216 O   0  0  0  0  0  0  0  0  0  0  0  0
   21.4783   -6.5759  -16.3877 N   0  0  0  0  0  0  0  0  0  0  0  0
   20.5305   -5.4716  -16.6510 C   0  0  1  0  0  0  0  0  0  0  0  0
   19.1747   -6.0294  -16.3441 C   0  0  0  0  0  0  0  0  0  0  0  0
   18.0190   -5.1005  -16.4516 C   0  0  0  0  0  0  0  0  0  0  0  0
   16.7069   -5.6850  -16.1311 C   0  0  0  0  0  0  0  0  0  0  0  0
   16.3629   -6.7542  -16.7172 O   0  0  0  0  0  0  0  0  0  0  0  0
   20.8688   -4.2384  -15.9919 C   0  0  0  0  0  0  0  0  0  0  0  0
   21.3938   -4.2008  -14.8417 O   0  0  0  0  0  0  0  0  0  0  0  0
   15.8499   -5.1067  -15.2192 O   0  0  0  0  0  0  0  0  0  0  0  0
   20.6029   -3.0255  -16.6567 O   0  0  0  0  0  0  0  0  0  0  0  0
  2  1  1  1
  3  2  1  0
  3  4  1  0
  4  8  1  0
  4  5  2  0
  5  6  1  0
  7  6  1  0
  8  7  2  0
  9  2  1  0
 10  9  2  0
 11  9  1  0
 12 11  1  0
 13 14  1  0
 12 13  1  6
 14 15  2  0
 15 16  1  0
 17 16  2  0
 18 17  1  0
 19 14  1  0
 19 18  2  0
 20 22  1  0
 20 12  1  0
 21 20  2  0
 23 24  1  1
 23 22  1  0
 25 24  1  0
 26 25  1  0
 27 26  2  0
 28 23  1  0
 29 28  2  0
 30 26  1  0
 31 28  1  0
M  END
$$$$
