HFE.pdb
     RDKit          3D

 31 32  0  0  1  0  0  0  0  0999 V2000
   22.0571  -13.0429  -19.2066 N   0  0  0  0  0  0  0  0  0  0  0  0
   22.1416  -11.6124  -19.4401 C   0  0  1  0  0  0  0  0  0  0  0  0
   21.4215  -11.1946  -20.6803 C   0  0  0  0  0  0  0  0  0  0  0  0
   22.0222  -11.8493  -21.8816 C   0  0  0  0  0  0  0  0  0  0  0  0
   21.4404  -12.7708  -22.7204 C   0  0  0  0  0  0  0  0  0  0  0  0
   22.3136  -13.1088  -23.6798 N   0  0  0  0  0  0  0  0  0  0  0  0
   23.4180  -12.4162  -23.4495 C   0  0  0  0  0  0  0  0  0  0  0  0
   23.2735  -11.6448  -22.3683 N   0  0  0  0  0  0  0  0  0  0  0  0
   21.6429  -10.9032  -18.2423 C   0  0  0  0  0  0  0  0  0  0  0  0
   20.5083  -11.1951  -17.7311 O   0  0  0  0  0  0  0  0  0  0  0  0
   22.3771   -9.8638  -17.5815 N   0  0  0  0  0  0  0  0  0  0  0  0
   21.8497   -9.1383  -16.4471 C   0  0  1  0  0  0  0  0  0  0  0  0
   23.0043   -8.9168  -15.4669 C   0  0  0  0  0  0  0  0  0  0  0  0
   22.5613   -8.2268  -14.2292 C   0  0  0  0  0  0  0  0  0  0  0  0
   22.1222   -8.9596  -13.1272 C   0  0  0  0  0  0  0  0  0  0  0  0
   21.7014   -8.3761  -11.9621 C   0  0  0  0  0  0  0  0  0  0  0  0
   21.7057   -7.0060  -11.8567 C   0  0  0  0  0  0  0  0  0  0  0  0
   22.1368   -6.2685  -12.9363 C   0  0  0  0  0  0  0  0  0  0  0  0
   22.5595   -6.8569  -14.1074 C   0  0  0  0  0  0  0  0  0  0  0  0
   21.3093   -7.8083  -16.7841 C   0  0  0  0  0  0  0  0  0  0  0  0
   21.9481   -7.0086  -17.5001 O   0  0  0  0  0  0  0  0  0  0  0  0
   20.0349   -7.4660  -16.2655 N   0  0  0  0  0  0  0  0  0  0  0  0
   19.4296   -6.1350  -16.4869 C   0  0  1  0  0  0  0  0  0  0  0  0
   18.0218   -6.4054  -16.9209 C   0  0  0  0  0  0  0  0  0  0  0  0
   17.1740   -5.2280  -17.2449 C   0  0  0  0  0  0  0  0  0  0  0  0
   15.7978   -5.5371  -17.6650 C   0  0  0  0  0  0  0  0  0  0  0  0
   15.6142   -6.4936  -18.4751 O   0  0  0  0  0  0  0  0  0  0  0  0
   19.5852   -5.2283  -15.3809 C   0  0  0  0  0  0  0  0  0  0  0  0
   19.5114   -5.6034  -14.1752 O   0  0  0  0  0  0  0  0  0  0  0  0
   14.7129   -4.8211  -17.2055 O   0  0  0  0  0  0  0  0  0  0  0  0
   19.8291   -3.8685  -15.6550 O   0  0  0  0  0  0  0  0  0  0  0  0
  2  1  1  1
  3  2  1  0
  3  4  1  0
  4  8  1  0
  4  5  2  0
  5  6  1  0
  7  6  1  0
  8  7  2  0
  9  2  1  0
 10  9  2  0
 11  9  1  0
 12 11  1  0
 13 14  1  0
 12 13  1  1
 14 15  2  0
 15 16  1  0
 17 16  2  0
 18 17  1  0
 19 14  1  0
 19 18  2  0
 20 22  1  0
 20 12  1  0
 21 20  2  0
 23 24  1  1
 23 22  1  0
 25 24  1  0
 26 25  1  0
 27 26  2  0
 28 23  1  0
 29 28  2  0
 30 26  1  0
 31 28  1  0
M  END
$$$$
