HFE.pdb
     RDKit          3D

 31 32  0  0  1  0  0  0  0  0999 V2000
   23.9165  -20.2168  -18.6295 N   0  0  0  0  0  0  0  0  0  0  0  0
   22.7922  -19.4004  -18.2084 C   0  0  1  0  0  0  0  0  0  0  0  0
   21.7399  -19.2933  -19.2631 C   0  0  0  0  0  0  0  0  0  0  0  0
   22.2357  -18.4866  -20.4190 C   0  0  0  0  0  0  0  0  0  0  0  0
   21.8451  -17.2230  -20.7959 C   0  0  0  0  0  0  0  0  0  0  0  0
   22.5321  -16.8547  -21.8865 N   0  0  0  0  0  0  0  0  0  0  0  0
   23.3354  -17.8628  -22.1879 C   0  0  0  0  0  0  0  0  0  0  0  0
   23.1797  -18.8655  -21.3188 N   0  0  0  0  0  0  0  0  0  0  0  0
   22.2563  -19.9433  -16.9417 C   0  0  0  0  0  0  0  0  0  0  0  0
   22.0410  -21.1955  -16.8028 O   0  0  0  0  0  0  0  0  0  0  0  0
   21.9482  -19.1264  -15.8042 N   0  0  0  0  0  0  0  0  0  0  0  0
   21.4662  -19.6777  -14.5573 C   0  0  1  0  0  0  0  0  0  0  0  0
   21.7308  -18.6399  -13.4637 C   0  0  0  0  0  0  0  0  0  0  0  0
   21.4330  -19.1683  -12.1086 C   0  0  0  0  0  0  0  0  0  0  0  0
   22.3126  -20.0505  -11.4823 C   0  0  0  0  0  0  0  0  0  0  0  0
   22.0878  -20.5696  -10.2354 C   0  0  0  0  0  0  0  0  0  0  0  0
   20.9476  -20.2153   -9.5553 C   0  0  0  0  0  0  0  0  0  0  0  0
   20.0692  -19.3449  -10.1604 C   0  0  0  0  0  0  0  0  0  0  0  0
   20.2967  -18.8239  -11.4146 C   0  0  0  0  0  0  0  0  0  0  0  0
   20.0184  -19.9574  -14.5448 C   0  0  0  0  0  0  0  0  0  0  0  0
   19.1908  -19.1236  -14.9694 O   0  0  0  0  0  0  0  0  0  0  0  0
   19.5952  -21.2096  -14.0320 N   0  0  0  0  0  0  0  0  0  0  0  0
   18.1659  -21.5789  -13.9444 C   0  0  1  0  0  0  0  0  0  0  0  0
   18.1519  -23.0452  -13.6390 C   0  0  0  0  0  0  0  0  0  0  0  0
   18.1419  -23.4393  -12.2056 C   0  0  0  0  0  0  0  0  0  0  0  0
   17.9466  -24.8749  -11.9467 C   0  0  0  0  0  0  0  0  0  0  0  0
   16.9310  -25.2356  -11.2808 O   0  0  0  0  0  0  0  0  0  0  0  0
   17.3971  -20.7436  -13.0609 C   0  0  0  0  0  0  0  0  0  0  0  0
   17.9290  -19.8907  -12.2930 O   0  0  0  0  0  0  0  0  0  0  0  0
   18.8301  -25.8291  -12.4046 O   0  0  0  0  0  0  0  0  0  0  0  0
   15.9956  -20.8838  -13.0525 O   0  0  0  0  0  0  0  0  0  0  0  0
  2  1  1  6
  3  2  1  0
  3  4  1  0
  4  8  1  0
  4  5  2  0
  5  6  1  0
  7  6  1  0
  8  7  2  0
  9  2  1  0
 10  9  2  0
 11  9  1  0
 12 11  1  0
 13 14  1  0
 12 13  1  1
 14 15  2  0
 15 16  1  0
 17 16  2  0
 18 17  1  0
 19 14  1  0
 19 18  2  0
 20 22  1  0
 20 12  1  0
 21 20  2  0
 23 24  1  1
 23 22  1  0
 25 24  1  0
 26 25  1  0
 27 26  2  0
 28 23  1  0
 29 28  2  0
 30 26  1  0
 31 28  1  0
M  END
$$$$
