HFE.pdb
     RDKit          3D

 31 32  0  0  1  0  0  0  0  0999 V2000
   12.7749  -22.2056    4.5853 N   0  0  0  0  0  0  0  0  0  0  0  0
   13.0319  -23.5021    5.1859 C   0  0  1  0  0  0  0  0  0  0  0  0
   12.4801  -24.6261    4.3715 C   0  0  0  0  0  0  0  0  0  0  0  0
   11.0033  -24.4755    4.2016 C   0  0  0  0  0  0  0  0  0  0  0  0
   10.2977  -24.3414    3.0288 C   0  0  0  0  0  0  0  0  0  0  0  0
    8.9910  -24.2343    3.3086 N   0  0  0  0  0  0  0  0  0  0  0  0
    8.8780  -24.2994    4.6259 C   0  0  0  0  0  0  0  0  0  0  0  0
   10.0779  -24.4452    5.1952 N   0  0  0  0  0  0  0  0  0  0  0  0
   14.4861  -23.6426    5.4139 C   0  0  0  0  0  0  0  0  0  0  0  0
   14.9785  -24.7351    5.8585 O   0  0  0  0  0  0  0  0  0  0  0  0
   15.4272  -22.5915    5.1579 N   0  0  0  0  0  0  0  0  0  0  0  0
   16.8469  -22.7450    5.3859 C   0  0  1  0  0  0  0  0  0  0  0  0
   17.5678  -22.2913    4.1141 C   0  0  0  0  0  0  0  0  0  0  0  0
   19.0349  -22.5026    4.1983 C   0  0  0  0  0  0  0  0  0  0  0  0
   19.8745  -21.4799    4.6383 C   0  0  0  0  0  0  0  0  0  0  0  0
   21.2334  -21.6187    4.7342 C   0  0  0  0  0  0  0  0  0  0  0  0
   21.8133  -22.8145    4.3850 C   0  0  0  0  0  0  0  0  0  0  0  0
   20.9975  -23.8341    3.9487 C   0  0  0  0  0  0  0  0  0  0  0  0
   19.6310  -23.6928    3.8527 C   0  0  0  0  0  0  0  0  0  0  0  0
   17.3689  -21.9233    6.4936 C   0  0  0  0  0  0  0  0  0  0  0  0
   17.1549  -20.6939    6.5488 O   0  0  0  0  0  0  0  0  0  0  0  0
   18.1256  -22.5783    7.4979 N   0  0  0  0  0  0  0  0  0  0  0  0
   18.8462  -21.8300    8.5504 C   0  0  1  0  0  0  0  0  0  0  0  0
   18.1872  -22.2198    9.8377 C   0  0  0  0  0  0  0  0  0  0  0  0
   16.7040  -22.3209    9.8368 C   0  0  0  0  0  0  0  0  0  0  0  0
   16.0933  -22.6599   11.1323 C   0  0  0  0  0  0  0  0  0  0  0  0
   15.3596  -21.7962   11.6984 O   0  0  0  0  0  0  0  0  0  0  0  0
   20.2761  -21.9810    8.5031 C   0  0  0  0  0  0  0  0  0  0  0  0
   20.8442  -22.8978    7.8424 O   0  0  0  0  0  0  0  0  0  0  0  0
   16.2959  -23.8802   11.7411 O   0  0  0  0  0  0  0  0  0  0  0  0
   21.0729  -21.0698    9.2232 O   0  0  0  0  0  0  0  0  0  0  0  0
  2  1  1  6
  3  2  1  0
  3  4  1  0
  4  8  1  0
  4  5  2  0
  5  6  1  0
  7  6  1  0
  8  7  2  0
  9  2  1  0
 10  9  2  0
 11  9  1  0
 12 11  1  0
 13 14  1  0
 12 13  1  6
 14 15  2  0
 15 16  1  0
 17 16  2  0
 18 17  1  0
 19 14  1  0
 19 18  2  0
 20 22  1  0
 20 12  1  0
 21 20  2  0
 23 24  1  1
 23 22  1  0
 25 24  1  0
 26 25  1  0
 27 26  2  0
 28 23  1  0
 29 28  2  0
 30 26  1  0
 31 28  1  0
M  END
$$$$
