HFE.pdb
     RDKit          3D

 31 32  0  0  1  0  0  0  0  0999 V2000
   24.4650  -13.6024  -18.7874 N   0  0  0  0  0  0  0  0  0  0  0  0
   24.3621  -12.3255  -19.4706 C   0  0  1  0  0  0  0  0  0  0  0  0
   23.0991  -12.2016  -20.2584 C   0  0  0  0  0  0  0  0  0  0  0  0
   23.0788  -13.1923  -21.3767 C   0  0  0  0  0  0  0  0  0  0  0  0
   23.7017  -13.0984  -22.5991 C   0  0  0  0  0  0  0  0  0  0  0  0
   23.4359  -14.1992  -23.3166 N   0  0  0  0  0  0  0  0  0  0  0  0
   22.6642  -14.9667  -22.5631 C   0  0  0  0  0  0  0  0  0  0  0  0
   22.4299  -14.3854  -21.3831 N   0  0  0  0  0  0  0  0  0  0  0  0
   24.5063  -11.2398  -18.4772 C   0  0  0  0  0  0  0  0  0  0  0  0
   23.7667  -11.2004  -17.4354 O   0  0  0  0  0  0  0  0  0  0  0  0
   25.4629  -10.1793  -18.6048 N   0  0  0  0  0  0  0  0  0  0  0  0
   25.6797   -9.1970  -17.5659 C   0  0  1  0  0  0  0  0  0  0  0  0
   27.1773   -9.1858  -17.2499 C   0  0  0  0  0  0  0  0  0  0  0  0
   27.6426  -10.4857  -16.7042 C   0  0  0  0  0  0  0  0  0  0  0  0
   28.5514  -11.2687  -17.4151 C   0  0  0  0  0  0  0  0  0  0  0  0
   29.0129  -12.4753  -16.9609 C   0  0  0  0  0  0  0  0  0  0  0  0
   28.5705  -12.9516  -15.7503 C   0  0  0  0  0  0  0  0  0  0  0  0
   27.6730  -12.1899  -15.0364 C   0  0  0  0  0  0  0  0  0  0  0  0
   27.2098  -10.9768  -15.4947 C   0  0  0  0  0  0  0  0  0  0  0  0
   25.3106   -7.8228  -17.9532 C   0  0  0  0  0  0  0  0  0  0  0  0
   25.5001   -7.4005  -19.1133 O   0  0  0  0  0  0  0  0  0  0  0  0
   24.7315   -6.9931  -16.9599 N   0  0  0  0  0  0  0  0  0  0  0  0
   24.2353   -5.6338  -17.2649 C   0  0  1  0  0  0  0  0  0  0  0  0
   22.9551   -5.4966  -16.4996 C   0  0  0  0  0  0  0  0  0  0  0  0
   23.0610   -5.3156  -15.0278 C   0  0  0  0  0  0  0  0  0  0  0  0
   21.7814   -5.2888  -14.3012 C   0  0  0  0  0  0  0  0  0  0  0  0
   21.1876   -6.3864  -14.0836 O   0  0  0  0  0  0  0  0  0  0  0  0
   25.2079   -4.5941  -17.0583 C   0  0  0  0  0  0  0  0  0  0  0  0
   26.2657   -4.7723  -16.3882 O   0  0  0  0  0  0  0  0  0  0  0  0
   21.2165   -4.1130  -13.8549 O   0  0  0  0  0  0  0  0  0  0  0  0
   24.9693   -3.3274  -17.6262 O   0  0  0  0  0  0  0  0  0  0  0  0
  2  1  1  1
  3  2  1  0
  3  4  1  0
  4  8  1  0
  4  5  2  0
  5  6  1  0
  7  6  1  0
  8  7  2  0
  9  2  1  0
 10  9  2  0
 11  9  1  0
 12 11  1  0
 13 14  1  0
 12 13  1  6
 14 15  2  0
 15 16  1  0
 17 16  2  0
 18 17  1  0
 19 14  1  0
 19 18  2  0
 20 22  1  0
 20 12  1  0
 21 20  2  0
 23 24  1  1
 23 22  1  0
 25 24  1  0
 26 25  1  0
 27 26  2  0
 28 23  1  0
 29 28  2  0
 30 26  1  0
 31 28  1  0
M  END
$$$$
