FVL.pdb
     RDKit          3D

 27 27  0  0  1  0  0  0  0  0999 V2000
    5.7148  -18.0757   25.5373 N   0  0  0  0  0  0  0  0  0  0  0  0
    6.0464  -16.6903   25.3381 C   0  0  1  0  0  0  0  0  0  0  0  0
    6.3396  -16.0980   26.7026 C   0  0  0  0  0  0  0  0  0  0  0  0
    6.3015  -14.6200   26.6717 C   0  0  0  0  0  0  0  0  0  0  0  0
    5.1163  -13.9332   26.6304 C   0  0  0  0  0  0  0  0  0  0  0  0
    5.0876  -12.5479   26.6011 C   0  0  0  0  0  0  0  0  0  0  0  0
    6.2419  -11.7999   26.6120 C   0  0  0  0  0  0  0  0  0  0  0  0
    7.4339  -12.4950   26.6536 C   0  0  0  0  0  0  0  0  0  0  0  0
    7.4761  -13.8631   26.6829 C   0  0  0  0  0  0  0  0  0  0  0  0
    7.2563  -16.6170   24.4803 C   0  0  0  0  0  0  0  0  0  0  0  0
    8.0942  -17.5799   24.5157 O   0  0  0  0  0  0  0  0  0  0  0  0
    9.6096  -14.4435   20.7487 C   0  0  0  0  0  0  0  0  0  0  0  0
    8.4964  -14.4623   21.7523 C   0  0  1  0  0  0  0  0  0  0  0  0
    7.1420  -14.4937   21.1342 C   0  0  0  0  0  0  0  0  0  0  0  0
    8.7328  -15.5928   22.7577 C   0  0  2  0  0  0  0  0  0  0  0  0
    7.5419  -15.5466   23.6237 N   0  0  0  0  0  0  0  0  0  0  0  0
    9.9388  -15.3371   23.5697 C   0  0  0  0  0  0  0  0  0  0  0  0
   10.5866  -14.2555   23.3843 O   0  0  0  0  0  0  0  0  0  0  0  0
   10.4833  -14.3592   28.5967 C   0  0  0  0  0  0  0  0  0  0  0  0
   10.8333  -14.4587   27.1361 C   0  0  1  0  0  0  0  0  0  0  0  0
   11.5148  -13.1780   26.6751 C   0  0  0  0  0  0  0  0  0  0  0  0
   11.4861  -15.6861   26.6815 C   0  0  0  0  0  0  0  0  0  0  0  0
   11.7121  -15.9782   25.2623 C   0  0  2  0  0  0  0  0  0  0  0  0
   10.4638  -16.1946   24.5622 N   0  0  0  0  0  0  0  0  0  0  0  0
   12.5937  -17.0980   24.9554 C   0  0  0  0  0  0  0  0  0  0  0  0
   13.7945  -17.0902   25.3148 O   0  0  0  0  0  0  0  0  0  0  0  0
   12.1759  -18.2198   24.2629 O   0  0  0  0  0  0  0  0  0  0  0  0
  2  1  1  1
  3  2  1  0
  4  3  1  0
  5  4  2  0
  6  5  1  0
  7  6  2  0
  7  8  1  0
  8  9  2  0
  9  4  1  0
 10 11  2  0
 10  2  1  0
 13 12  1  6
 14 13  1  0
 15 13  1  0
 15 16  1  1
 16 10  1  0
 17 15  1  0
 18 17  2  0
 20 19  1  1
 20 21  1  0
 23 22  1  1
 22 20  1  0
 23 24  1  0
 24 17  1  0
 25 23  1  0
 25 27  1  0
 26 25  2  0
M  END
$$$$
