FVL.pdb
     RDKit          3D

 27 27  0  0  1  0  0  0  0  0999 V2000
    7.6181  -17.6801   18.6132 N   0  0  0  0  0  0  0  0  0  0  0  0
    8.0247  -16.5581   19.4159 C   0  0  1  0  0  0  0  0  0  0  0  0
    6.9510  -15.4962   19.2805 C   0  0  0  0  0  0  0  0  0  0  0  0
    7.2122  -14.3444   20.1704 C   0  0  0  0  0  0  0  0  0  0  0  0
    7.9635  -13.2748   19.7583 C   0  0  0  0  0  0  0  0  0  0  0  0
    8.2050  -12.1986   20.5975 C   0  0  0  0  0  0  0  0  0  0  0  0
    7.7045  -12.1530   21.8780 C   0  0  0  0  0  0  0  0  0  0  0  0
    6.9482  -13.2320   22.2896 C   0  0  0  0  0  0  0  0  0  0  0  0
    6.7022  -14.3012   21.4707 C   0  0  0  0  0  0  0  0  0  0  0  0
    8.1243  -17.0046   20.8287 C   0  0  0  0  0  0  0  0  0  0  0  0
    7.1788  -17.7089   21.3189 O   0  0  0  0  0  0  0  0  0  0  0  0
   10.6666  -18.8379   24.3183 C   0  0  0  0  0  0  0  0  0  0  0  0
   10.3826  -18.2989   22.9487 C   0  0  1  0  0  0  0  0  0  0  0  0
   10.1373  -19.3603   21.9335 C   0  0  0  0  0  0  0  0  0  0  0  0
    9.2582  -17.2626   23.0296 C   0  0  2  0  0  0  0  0  0  0  0  0
    9.2018  -16.6995   21.6695 N   0  0  0  0  0  0  0  0  0  0  0  0
    9.5917  -16.1916   23.9894 C   0  0  0  0  0  0  0  0  0  0  0  0
   10.7059  -15.5847   23.8704 O   0  0  0  0  0  0  0  0  0  0  0  0
    6.1543  -12.4253   25.8963 C   0  0  0  0  0  0  0  0  0  0  0  0
    7.4868  -13.0150   25.5193 C   0  0  1  0  0  0  0  0  0  0  0  0
    8.4092  -11.9244   24.9928 C   0  0  0  0  0  0  0  0  0  0  0  0
    8.1154  -13.9265   26.4751 C   0  0  0  0  0  0  0  0  0  0  0  0
    9.1980  -14.8402   26.0963 C   0  0  2  0  0  0  0  0  0  0  0  0
    8.7767  -15.7570   25.0584 N   0  0  0  0  0  0  0  0  0  0  0  0
    9.7975  -15.6266   27.1674 C   0  0  0  0  0  0  0  0  0  0  0  0
   10.5021  -15.0824   28.0497 O   0  0  0  0  0  0  0  0  0  0  0  0
    9.6340  -16.9951   27.2815 O   0  0  0  0  0  0  0  0  0  0  0  0
  2  1  1  6
  3  2  1  0
  4  3  1  0
  5  4  2  0
  6  5  1  0
  7  6  2  0
  7  8  1  0
  8  9  2  0
  9  4  1  0
 10 11  2  0
 10  2  1  0
 13 12  1  1
 14 13  1  0
 15 13  1  0
 15 16  1  6
 16 10  1  0
 17 15  1  0
 18 17  2  0
 20 19  1  1
 20 21  1  0
 23 22  1  1
 22 20  1  0
 23 24  1  0
 24 17  1  0
 25 23  1  0
 25 27  1  0
 26 25  2  0
M  END
$$$$
