FVL.pdb
     RDKit          3D

 27 27  0  0  1  0  0  0  0  0999 V2000
    5.2303  -18.4738   24.8819 N   0  0  0  0  0  0  0  0  0  0  0  0
    5.7679  -17.1482   25.0325 C   0  0  1  0  0  0  0  0  0  0  0  0
    6.2065  -17.0028   26.4766 C   0  0  0  0  0  0  0  0  0  0  0  0
    6.6525  -15.6240   26.7716 C   0  0  0  0  0  0  0  0  0  0  0  0
    7.9608  -15.3400   27.0647 C   0  0  0  0  0  0  0  0  0  0  0  0
    8.3721  -14.0457   27.3409 C   0  0  0  0  0  0  0  0  0  0  0  0
    7.4910  -12.9894   27.3338 C   0  0  0  0  0  0  0  0  0  0  0  0
    6.1741  -13.2792   27.0380 C   0  0  0  0  0  0  0  0  0  0  0  0
    5.7547  -14.5532   26.7635 C   0  0  0  0  0  0  0  0  0  0  0  0
    6.9380  -17.0119   24.1285 C   0  0  0  0  0  0  0  0  0  0  0  0
    7.6340  -18.0490   23.8632 O   0  0  0  0  0  0  0  0  0  0  0  0
    9.6799  -14.1794   21.1730 C   0  0  0  0  0  0  0  0  0  0  0  0
    8.4307  -14.4258   21.9640 C   0  0  1  0  0  0  0  0  0  0  0  0
    7.1867  -14.3325   21.1509 C   0  0  0  0  0  0  0  0  0  0  0  0
    8.5607  -15.7466   22.7278 C   0  0  2  0  0  0  0  0  0  0  0  0
    7.3332  -15.8041   23.5402 N   0  0  0  0  0  0  0  0  0  0  0  0
    9.7374  -15.7302   23.6192 C   0  0  0  0  0  0  0  0  0  0  0  0
   10.8956  -15.5931   23.1058 O   0  0  0  0  0  0  0  0  0  0  0  0
    9.3925  -13.5277   28.7335 C   0  0  0  0  0  0  0  0  0  0  0  0
    9.8329  -13.9191   27.3484 C   0  0  1  0  0  0  0  0  0  0  0  0
   10.5331  -12.7478   26.6737 C   0  0  0  0  0  0  0  0  0  0  0  0
   10.5207  -15.2010   27.1967 C   0  0  0  0  0  0  0  0  0  0  0  0
   10.8706  -15.7562   25.8854 C   0  0  2  0  0  0  0  0  0  0  0  0
    9.7097  -15.8540   25.0263 N   0  0  0  0  0  0  0  0  0  0  0  0
   11.5389  -17.0518   25.8787 C   0  0  0  0  0  0  0  0  0  0  0  0
   12.6572  -17.2029   26.4243 O   0  0  0  0  0  0  0  0  0  0  0  0
   10.9979  -18.1770   25.2840 O   0  0  0  0  0  0  0  0  0  0  0  0
  2  1  1  1
  3  2  1  0
  4  3  1  0
  5  4  2  0
  6  5  1  0
  7  6  2  0
  7  8  1  0
  8  9  2  0
  9  4  1  0
 10 11  2  0
 10  2  1  0
 13 12  1  6
 14 13  1  0
 15 13  1  0
 15 16  1  1
 16 10  1  0
 17 15  1  0
 18 17  2  0
 20 19  1  1
 20 21  1  0
 23 22  1  1
 22 20  1  0
 23 24  1  0
 24 17  1  0
 25 23  1  0
 25 27  1  0
 26 25  2  0
M  END
$$$$
