FVL.pdb
     RDKit          3D

 27 27  0  0  1  0  0  0  0  0999 V2000
    5.7686  -18.3087   25.5868 N   0  0  0  0  0  0  0  0  0  0  0  0
    6.0598  -16.9111   25.4114 C   0  0  1  0  0  0  0  0  0  0  0  0
    6.4044  -16.3493   26.7769 C   0  0  0  0  0  0  0  0  0  0  0  0
    6.4161  -14.8706   26.7676 C   0  0  0  0  0  0  0  0  0  0  0  0
    5.2777  -14.1451   26.5309 C   0  0  0  0  0  0  0  0  0  0  0  0
    5.2957  -12.7593   26.5230 C   0  0  0  0  0  0  0  0  0  0  0  0
    6.4515  -12.0494   26.7515 C   0  0  0  0  0  0  0  0  0  0  0  0
    7.5962  -12.7834   26.9897 C   0  0  0  0  0  0  0  0  0  0  0  0
    7.5921  -14.1524   27.0001 C   0  0  0  0  0  0  0  0  0  0  0  0
    7.2256  -16.7863   24.5002 C   0  0  0  0  0  0  0  0  0  0  0  0
    8.1371  -17.6795   24.5424 O   0  0  0  0  0  0  0  0  0  0  0  0
    9.6163  -14.1770   21.0599 C   0  0  0  0  0  0  0  0  0  0  0  0
    8.4021  -14.4175   21.9053 C   0  0  1  0  0  0  0  0  0  0  0  0
    7.1410  -14.5079   21.1187 C   0  0  0  0  0  0  0  0  0  0  0  0
    8.6416  -15.6279   22.8123 C   0  0  2  0  0  0  0  0  0  0  0  0
    7.3928  -15.7391   23.5857 N   0  0  0  0  0  0  0  0  0  0  0  0
    9.7686  -15.3851   23.7344 C   0  0  0  0  0  0  0  0  0  0  0  0
    9.9304  -14.2151   24.2127 O   0  0  0  0  0  0  0  0  0  0  0  0
    9.7228  -14.8017   28.3253 C   0  0  0  0  0  0  0  0  0  0  0  0
   10.3488  -14.8034   26.9565 C   0  0  1  0  0  0  0  0  0  0  0  0
   11.1720  -13.5384   26.7584 C   0  0  0  0  0  0  0  0  0  0  0  0
   11.0154  -16.0306   26.5216 C   0  0  0  0  0  0  0  0  0  0  0  0
   11.6761  -16.1478   25.2178 C   0  0  2  0  0  0  0  0  0  0  0  0
   10.7145  -16.3469   24.1542 N   0  0  0  0  0  0  0  0  0  0  0  0
   12.6988  -17.1790   25.0909 C   0  0  0  0  0  0  0  0  0  0  0  0
   13.7203  -17.1662   25.8171 O   0  0  0  0  0  0  0  0  0  0  0  0
   12.6145  -18.2180   24.1821 O   0  0  0  0  0  0  0  0  0  0  0  0
  2  1  1  1
  3  2  1  0
  4  3  1  0
  5  4  2  0
  6  5  1  0
  7  6  2  0
  7  8  1  0
  8  9  2  0
  9  4  1  0
 10 11  2  0
 10  2  1  0
 13 12  1  6
 14 13  1  0
 15 13  1  0
 15 16  1  1
 16 10  1  0
 17 15  1  0
 18 17  2  0
 20 19  1  1
 20 21  1  0
 23 22  1  1
 22 20  1  0
 23 24  1  0
 24 17  1  0
 25 23  1  0
 25 27  1  0
 26 25  2  0
M  END
$$$$
