FVL.pdb
     RDKit          3D

 27 27  0  0  1  0  0  0  0  0999 V2000
    6.3235  -20.9193   22.7766 N   0  0  0  0  0  0  0  0  0  0  0  0
    6.5360  -19.9314   23.8001 C   0  0  1  0  0  0  0  0  0  0  0  0
    7.3986  -20.5717   24.8702 C   0  0  0  0  0  0  0  0  0  0  0  0
    7.5889  -19.6685   26.0255 C   0  0  0  0  0  0  0  0  0  0  0  0
    6.6935  -19.6306   27.0622 C   0  0  0  0  0  0  0  0  0  0  0  0
    6.8775  -18.7814   28.1419 C   0  0  0  0  0  0  0  0  0  0  0  0
    7.9626  -17.9400   28.2239 C   0  0  0  0  0  0  0  0  0  0  0  0
    8.8625  -17.9808   27.1779 C   0  0  0  0  0  0  0  0  0  0  0  0
    8.6925  -18.8149   26.1057 C   0  0  0  0  0  0  0  0  0  0  0  0
    7.2475  -18.7765   23.1959 C   0  0  0  0  0  0  0  0  0  0  0  0
    8.4654  -18.9221   22.8410 O   0  0  0  0  0  0  0  0  0  0  0  0
    7.1793  -14.5393   20.8709 C   0  0  0  0  0  0  0  0  0  0  0  0
    6.6565  -15.8820   21.2842 C   0  0  1  0  0  0  0  0  0  0  0  0
    6.5573  -16.8512   20.1581 C   0  0  0  0  0  0  0  0  0  0  0  0
    7.4732  -16.4067   22.4685 C   0  0  2  0  0  0  0  0  0  0  0  0
    6.6620  -17.5217   22.9872 N   0  0  0  0  0  0  0  0  0  0  0  0
    7.6132  -15.3749   23.5150 C   0  0  0  0  0  0  0  0  0  0  0  0
    6.5978  -14.6687   23.8217 O   0  0  0  0  0  0  0  0  0  0  0  0
    6.0025  -12.3719   27.2635 C   0  0  0  0  0  0  0  0  0  0  0  0
    7.4101  -12.7213   26.8608 C   0  0  1  0  0  0  0  0  0  0  0  0
    8.2466  -13.0207   28.0970 C   0  0  0  0  0  0  0  0  0  0  0  0
    7.5808  -13.6813   25.7706 C   0  0  0  0  0  0  0  0  0  0  0  0
    8.9009  -14.0744   25.2675 C   0  0  2  0  0  0  0  0  0  0  0  0
    8.7937  -15.0820   24.2337 N   0  0  0  0  0  0  0  0  0  0  0  0
    9.8637  -14.5500   26.2534 C   0  0  0  0  0  0  0  0  0  0  0  0
   10.8920  -13.8856   26.5226 O   0  0  0  0  0  0  0  0  0  0  0  0
    9.7127  -15.7388   26.9436 O   0  0  0  0  0  0  0  0  0  0  0  0
  2  1  1  6
  3  2  1  0
  4  3  1  0
  5  4  2  0
  6  5  1  0
  7  6  2  0
  7  8  1  0
  8  9  2  0
  9  4  1  0
 10 11  2  0
 10  2  1  0
 13 12  1  6
 14 13  1  0
 15 13  1  0
 15 16  1  1
 16 10  1  0
 17 15  1  0
 18 17  2  0
 20 19  1  1
 20 21  1  0
 23 22  1  1
 22 20  1  0
 23 24  1  0
 24 17  1  0
 25 23  1  0
 25 27  1  0
 26 25  2  0
M  END
$$$$
