FVL.pdb
     RDKit          3D

 27 27  0  0  1  0  0  0  0  0999 V2000
    8.9878  -20.1592   27.9588 N   0  0  0  0  0  0  0  0  0  0  0  0
    8.6787  -18.8994   27.3374 C   0  0  1  0  0  0  0  0  0  0  0  0
    9.9301  -18.0461   27.4052 C   0  0  0  0  0  0  0  0  0  0  0  0
    9.6925  -16.7936   28.1546 C   0  0  0  0  0  0  0  0  0  0  0  0
   10.3336  -16.5321   29.3372 C   0  0  0  0  0  0  0  0  0  0  0  0
   10.1060  -15.3564   30.0350 C   0  0  0  0  0  0  0  0  0  0  0  0
    9.2299  -14.4006   29.5758 C   0  0  0  0  0  0  0  0  0  0  0  0
    8.5859  -14.6674   28.3842 C   0  0  0  0  0  0  0  0  0  0  0  0
    8.8017  -15.8246   27.6852 C   0  0  0  0  0  0  0  0  0  0  0  0
    8.3113  -19.1533   25.9212 C   0  0  0  0  0  0  0  0  0  0  0  0
    8.9870  -20.0073   25.2545 O   0  0  0  0  0  0  0  0  0  0  0  0
    5.5637  -18.0418   22.0034 C   0  0  0  0  0  0  0  0  0  0  0  0
    5.7329  -18.3431   23.4620 C   0  0  1  0  0  0  0  0  0  0  0  0
    4.9226  -19.5035   23.9250 C   0  0  0  0  0  0  0  0  0  0  0  0
    7.2234  -18.4728   23.7883 C   0  0  2  0  0  0  0  0  0  0  0  0
    7.2582  -18.5086   25.2606 N   0  0  0  0  0  0  0  0  0  0  0  0
    7.9757  -17.2964   23.3092 C   0  0  0  0  0  0  0  0  0  0  0  0
    8.1415  -17.1418   22.0553 O   0  0  0  0  0  0  0  0  0  0  0  0
    7.2976  -12.6522   25.7907 C   0  0  0  0  0  0  0  0  0  0  0  0
    7.5508  -13.5634   24.6197 C   0  0  1  0  0  0  0  0  0  0  0  0
    6.7690  -13.0814   23.4057 C   0  0  0  0  0  0  0  0  0  0  0  0
    8.9388  -13.9278   24.3370 C   0  0  0  0  0  0  0  0  0  0  0  0
    9.3005  -15.1604   23.6297 C   0  0  2  0  0  0  0  0  0  0  0  0
    8.5472  -16.2935   24.1237 N   0  0  0  0  0  0  0  0  0  0  0  0
   10.7110  -15.5289   23.6333 C   0  0  0  0  0  0  0  0  0  0  0  0
   11.1104  -16.5438   24.2511 O   0  0  0  0  0  0  0  0  0  0  0  0
   11.6829  -14.8015   22.9709 O   0  0  0  0  0  0  0  0  0  0  0  0
  2  1  1  1
  3  2  1  0
  4  3  1  0
  5  4  2  0
  6  5  1  0
  7  6  2  0
  7  8  1  0
  8  9  2  0
  9  4  1  0
 10 11  2  0
 10  2  1  0
 13 12  1  6
 14 13  1  0
 15 13  1  0
 15 16  1  1
 16 10  1  0
 17 15  1  0
 18 17  2  0
 20 19  1  1
 20 21  1  0
 23 22  1  1
 22 20  1  0
 23 24  1  0
 24 17  1  0
 25 23  1  0
 25 27  1  0
 26 25  2  0
M  END
$$$$
