FVL.pdb
     RDKit          3D

 27 27  0  0  1  0  0  0  0  0999 V2000
    5.8389  -19.0480   24.5170 N   0  0  0  0  0  0  0  0  0  0  0  0
    6.1109  -17.6387   24.6113 C   0  0  1  0  0  0  0  0  0  0  0  0
    6.0329  -17.2634   26.0782 C   0  0  0  0  0  0  0  0  0  0  0  0
    6.1815  -15.8051   26.2734 C   0  0  0  0  0  0  0  0  0  0  0  0
    6.0979  -14.9281   25.2237 C   0  0  0  0  0  0  0  0  0  0  0  0
    6.2387  -13.5624   25.4134 C   0  0  0  0  0  0  0  0  0  0  0  0
    6.4680  -13.0248   26.6586 C   0  0  0  0  0  0  0  0  0  0  0  0
    6.5516  -13.9111   27.7137 C   0  0  0  0  0  0  0  0  0  0  0  0
    6.4144  -15.2622   27.5399 C   0  0  0  0  0  0  0  0  0  0  0  0
    7.4806  -17.3905   24.0941 C   0  0  0  0  0  0  0  0  0  0  0  0
    8.3582  -18.3105   24.2117 O   0  0  0  0  0  0  0  0  0  0  0  0
   10.4191  -14.4869   21.4033 C   0  0  0  0  0  0  0  0  0  0  0  0
    9.0710  -14.8340   21.9592 C   0  0  1  0  0  0  0  0  0  0  0  0
    7.9964  -14.8686   20.9290 C   0  0  0  0  0  0  0  0  0  0  0  0
    9.1716  -16.1246   22.7772 C   0  0  2  0  0  0  0  0  0  0  0  0
    7.8777  -16.1974   23.4778 N   0  0  0  0  0  0  0  0  0  0  0  0
   10.2615  -16.0403   23.7693 C   0  0  0  0  0  0  0  0  0  0  0  0
   11.4668  -16.0076   23.3570 O   0  0  0  0  0  0  0  0  0  0  0  0
    9.4444  -13.8217   28.8038 C   0  0  0  0  0  0  0  0  0  0  0  0
   10.0316  -14.1979   27.4699 C   0  0  1  0  0  0  0  0  0  0  0  0
   10.7090  -12.9893   26.8392 C   0  0  0  0  0  0  0  0  0  0  0  0
   10.8145  -15.4315   27.4018 C   0  0  0  0  0  0  0  0  0  0  0  0
   11.1831  -16.0606   26.1296 C   0  0  2  0  0  0  0  0  0  0  0  0
   10.0999  -15.9899   25.1719 N   0  0  0  0  0  0  0  0  0  0  0  0
   11.6340  -17.4456   26.1890 C   0  0  0  0  0  0  0  0  0  0  0  0
   12.6263  -17.7711   26.8822 O   0  0  0  0  0  0  0  0  0  0  0  0
   11.0128  -18.4719   25.5009 O   0  0  0  0  0  0  0  0  0  0  0  0
  2  1  1  1
  3  2  1  0
  4  3  1  0
  5  4  2  0
  6  5  1  0
  7  6  2  0
  7  8  1  0
  8  9  2  0
  9  4  1  0
 10 11  2  0
 10  2  1  0
 13 12  1  6
 14 13  1  0
 15 13  1  0
 15 16  1  1
 16 10  1  0
 17 15  1  0
 18 17  2  0
 20 19  1  1
 20 21  1  0
 23 22  1  1
 22 20  1  0
 23 24  1  0
 24 17  1  0
 25 23  1  0
 25 27  1  0
 26 25  2  0
M  END
$$$$
