FVL.pdb
     RDKit          3D

 27 27  0  0  1  0  0  0  0  0999 V2000
    5.5336  -19.0429   24.1956 N   0  0  0  0  0  0  0  0  0  0  0  0
    5.8966  -17.7024   24.5701 C   0  0  1  0  0  0  0  0  0  0  0  0
    6.3165  -17.7410   26.0264 C   0  0  0  0  0  0  0  0  0  0  0  0
    6.6976  -16.3989   26.5166 C   0  0  0  0  0  0  0  0  0  0  0  0
    7.8617  -16.1916   27.2095 C   0  0  0  0  0  0  0  0  0  0  0  0
    8.2128  -14.9312   27.6667 C   0  0  0  0  0  0  0  0  0  0  0  0
    7.4133  -13.8335   27.4476 C   0  0  0  0  0  0  0  0  0  0  0  0
    6.2416  -14.0460   26.7493 C   0  0  0  0  0  0  0  0  0  0  0  0
    5.8832  -15.2857   26.2923 C   0  0  0  0  0  0  0  0  0  0  0  0
    7.0372  -17.2719   23.7223 C   0  0  0  0  0  0  0  0  0  0  0  0
    7.9288  -18.1306   23.4091 O   0  0  0  0  0  0  0  0  0  0  0  0
    9.2121  -13.7237   21.0895 C   0  0  0  0  0  0  0  0  0  0  0  0
    8.0006  -14.3447   21.7167 C   0  0  1  0  0  0  0  0  0  0  0  0
    6.8823  -14.5615   20.7576 C   0  0  0  0  0  0  0  0  0  0  0  0
    8.4084  -15.6124   22.4725 C   0  0  2  0  0  0  0  0  0  0  0  0
    7.2009  -15.9684   23.2375 N   0  0  0  0  0  0  0  0  0  0  0  0
    9.5175  -15.3389   23.4077 C   0  0  0  0  0  0  0  0  0  0  0  0
   10.2169  -14.2868   23.2408 O   0  0  0  0  0  0  0  0  0  0  0  0
    9.9434  -14.8955   28.5655 C   0  0  0  0  0  0  0  0  0  0  0  0
    9.5638  -14.4027   27.1948 C   0  0  1  0  0  0  0  0  0  0  0  0
    8.9090  -13.0322   27.2966 C   0  0  0  0  0  0  0  0  0  0  0  0
   10.5673  -14.5141   26.1366 C   0  0  0  0  0  0  0  0  0  0  0  0
   10.8902  -15.7897   25.4892 C   0  0  2  0  0  0  0  0  0  0  0  0
    9.8937  -16.1486   24.5026 N   0  0  0  0  0  0  0  0  0  0  0  0
   11.0830  -16.9393   26.3647 C   0  0  0  0  0  0  0  0  0  0  0  0
   12.0207  -16.9662   27.1961 O   0  0  0  0  0  0  0  0  0  0  0  0
   10.2639  -18.0533   26.3391 O   0  0  0  0  0  0  0  0  0  0  0  0
  2  1  1  6
  3  2  1  0
  4  3  1  0
  5  4  2  0
  6  5  1  0
  7  6  2  0
  7  8  1  0
  8  9  2  0
  9  4  1  0
 10 11  2  0
 10  2  1  0
 13 12  1  6
 14 13  1  0
 15 13  1  0
 15 16  1  1
 16 10  1  0
 17 15  1  0
 18 17  2  0
 20 19  1  1
 20 21  1  0
 23 22  1  1
 22 20  1  0
 23 24  1  0
 24 17  1  0
 25 23  1  0
 25 27  1  0
 26 25  2  0
M  END
$$$$
