FVL.pdb
     RDKit          3D

 27 27  0  0  1  0  0  0  0  0999 V2000
    5.5038  -18.3781   24.9662 N   0  0  0  0  0  0  0  0  0  0  0  0
    5.9508  -17.0114   24.9985 C   0  0  1  0  0  0  0  0  0  0  0  0
    6.3069  -16.6891   26.4366 C   0  0  0  0  0  0  0  0  0  0  0  0
    6.5778  -15.2467   26.6180 C   0  0  0  0  0  0  0  0  0  0  0  0
    5.5804  -14.3116   26.5242 C   0  0  0  0  0  0  0  0  0  0  0  0
    5.8411  -12.9612   26.6948 C   0  0  0  0  0  0  0  0  0  0  0  0
    7.1076  -12.4973   26.9650 C   0  0  0  0  0  0  0  0  0  0  0  0
    8.1098  -13.4420   27.0587 C   0  0  0  0  0  0  0  0  0  0  0  0
    7.8657  -14.7788   26.8924 C   0  0  0  0  0  0  0  0  0  0  0  0
    7.1542  -16.8918   24.1367 C   0  0  0  0  0  0  0  0  0  0  0  0
    7.8769  -17.9265   23.9430 O   0  0  0  0  0  0  0  0  0  0  0  0
    9.9000  -14.1297   21.1162 C   0  0  0  0  0  0  0  0  0  0  0  0
    8.6376  -14.3747   21.8864 C   0  0  1  0  0  0  0  0  0  0  0  0
    7.4096  -14.3117   21.0465 C   0  0  0  0  0  0  0  0  0  0  0  0
    8.7665  -15.6786   22.6790 C   0  0  2  0  0  0  0  0  0  0  0  0
    7.5533  -15.7025   23.5144 N   0  0  0  0  0  0  0  0  0  0  0  0
    9.9593  -15.6551   23.5485 C   0  0  0  0  0  0  0  0  0  0  0  0
   11.1135  -15.6608   23.0088 O   0  0  0  0  0  0  0  0  0  0  0  0
    9.6215  -13.9164   28.9333 C   0  0  0  0  0  0  0  0  0  0  0  0
   10.0274  -14.1057   27.4963 C   0  0  1  0  0  0  0  0  0  0  0  0
   10.5658  -12.7991   26.9304 C   0  0  0  0  0  0  0  0  0  0  0  0
   10.8359  -15.2811   27.1733 C   0  0  0  0  0  0  0  0  0  0  0  0
   11.1350  -15.6756   25.7930 C   0  0  2  0  0  0  0  0  0  0  0  0
    9.9515  -15.6253   24.9610 N   0  0  0  0  0  0  0  0  0  0  0  0
   11.7561  -16.9808   25.6038 C   0  0  0  0  0  0  0  0  0  0  0  0
   12.8686  -17.2455   26.1170 O   0  0  0  0  0  0  0  0  0  0  0  0
   11.1746  -17.9932   24.8626 O   0  0  0  0  0  0  0  0  0  0  0  0
  2  1  1  1
  3  2  1  0
  4  3  1  0
  5  4  2  0
  6  5  1  0
  7  6  2  0
  7  8  1  0
  8  9  2  0
  9  4  1  0
 10 11  2  0
 10  2  1  0
 13 12  1  6
 14 13  1  0
 15 13  1  0
 15 16  1  1
 16 10  1  0
 17 15  1  0
 18 17  2  0
 20 19  1  1
 20 21  1  0
 23 22  1  1
 22 20  1  0
 23 24  1  0
 24 17  1  0
 25 23  1  0
 25 27  1  0
 26 25  2  0
M  END
$$$$
