FVL.pdb
     RDKit          3D

 27 27  0  0  1  0  0  0  0  0999 V2000
    5.8572  -20.6917   23.2793 N   0  0  0  0  0  0  0  0  0  0  0  0
    6.4567  -19.7804   24.2168 C   0  0  1  0  0  0  0  0  0  0  0  0
    7.4115  -20.5847   25.0772 C   0  0  0  0  0  0  0  0  0  0  0  0
    8.0498  -19.7425   26.1117 C   0  0  0  0  0  0  0  0  0  0  0  0
    7.3137  -19.1234   27.0879 C   0  0  0  0  0  0  0  0  0  0  0  0
    7.9181  -18.3349   28.0543 C   0  0  0  0  0  0  0  0  0  0  0  0
    9.2791  -18.1373   28.0794 C   0  0  0  0  0  0  0  0  0  0  0  0
   10.0174  -18.7625   27.0947 C   0  0  0  0  0  0  0  0  0  0  0  0
    9.4328  -19.5438   26.1344 C   0  0  0  0  0  0  0  0  0  0  0  0
    7.2041  -18.7484   23.4543 C   0  0  0  0  0  0  0  0  0  0  0  0
    8.2685  -19.0905   22.8375 O   0  0  0  0  0  0  0  0  0  0  0  0
    7.4645  -14.2169   21.6115 C   0  0  0  0  0  0  0  0  0  0  0  0
    6.7141  -15.4284   22.0761 C   0  0  1  0  0  0  0  0  0  0  0  0
    5.8532  -16.0325   21.0219 C   0  0  0  0  0  0  0  0  0  0  0  0
    7.6907  -16.4240   22.7085 C   0  0  2  0  0  0  0  0  0  0  0  0
    6.8126  -17.4068   23.3666 N   0  0  0  0  0  0  0  0  0  0  0  0
    8.5361  -15.7656   23.7240 C   0  0  0  0  0  0  0  0  0  0  0  0
    9.6665  -15.2947   23.3712 O   0  0  0  0  0  0  0  0  0  0  0  0
    5.9401  -12.8162   27.5653 C   0  0  0  0  0  0  0  0  0  0  0  0
    6.9369  -13.2472   26.5230 C   0  0  1  0  0  0  0  0  0  0  0  0
    7.3553  -12.0529   25.6768 C   0  0  0  0  0  0  0  0  0  0  0  0
    8.0463  -14.0940   26.9606 C   0  0  0  0  0  0  0  0  0  0  0  0
    8.9449  -14.7645   26.0155 C   0  0  2  0  0  0  0  0  0  0  0  0
    8.2098  -15.5983   25.0883 N   0  0  0  0  0  0  0  0  0  0  0  0
   10.0144  -15.5729   26.5882 C   0  0  0  0  0  0  0  0  0  0  0  0
   10.8464  -15.0727   27.3812 O   0  0  0  0  0  0  0  0  0  0  0  0
   10.1810  -16.9158   26.3029 O   0  0  0  0  0  0  0  0  0  0  0  0
  2  1  1  6
  3  2  1  0
  4  3  1  0
  5  4  2  0
  6  5  1  0
  7  6  2  0
  7  8  1  0
  8  9  2  0
  9  4  1  0
 10 11  2  0
 10  2  1  0
 13 12  1  6
 14 13  1  0
 15 13  1  0
 15 16  1  1
 16 10  1  0
 17 15  1  0
 18 17  2  0
 20 19  1  1
 20 21  1  0
 23 22  1  1
 22 20  1  0
 23 24  1  0
 24 17  1  0
 25 23  1  0
 25 27  1  0
 26 25  2  0
M  END
$$$$
