FVL.pdb
     RDKit          3D

 27 27  0  0  1  0  0  0  0  0999 V2000
    6.6467  -17.2256   26.7712 N   0  0  0  0  0  0  0  0  0  0  0  0
    6.0582  -17.1972   25.4591 C   0  0  1  0  0  0  0  0  0  0  0  0
    5.1292  -16.0000   25.4093 C   0  0  0  0  0  0  0  0  0  0  0  0
    5.7678  -14.7940   25.9790 C   0  0  0  0  0  0  0  0  0  0  0  0
    5.0357  -13.6862   26.3179 C   0  0  0  0  0  0  0  0  0  0  0  0
    5.6405  -12.5589   26.8509 C   0  0  0  0  0  0  0  0  0  0  0  0
    6.9981  -12.4985   27.0640 C   0  0  0  0  0  0  0  0  0  0  0  0
    7.7324  -13.6162   26.7215 C   0  0  0  0  0  0  0  0  0  0  0  0
    7.1473  -14.7360   26.1943 C   0  0  0  0  0  0  0  0  0  0  0  0
    7.1463  -17.0394   24.4610 C   0  0  0  0  0  0  0  0  0  0  0  0
    7.8363  -18.0637   24.1367 O   0  0  0  0  0  0  0  0  0  0  0  0
    9.4548  -14.1373   21.2142 C   0  0  0  0  0  0  0  0  0  0  0  0
    8.3006  -14.4321   22.1239 C   0  0  1  0  0  0  0  0  0  0  0  0
    6.9759  -14.3343   21.4508 C   0  0  0  0  0  0  0  0  0  0  0  0
    8.5301  -15.7749   22.8232 C   0  0  2  0  0  0  0  0  0  0  0  0
    7.4694  -15.8244   23.8443 N   0  0  0  0  0  0  0  0  0  0  0  0
    9.8491  -15.8095   23.4854 C   0  0  0  0  0  0  0  0  0  0  0  0
   10.8987  -15.7056   22.7703 O   0  0  0  0  0  0  0  0  0  0  0  0
   10.2750  -14.5805   28.9328 C   0  0  0  0  0  0  0  0  0  0  0  0
   10.5201  -14.6164   27.4481 C   0  0  1  0  0  0  0  0  0  0  0  0
   10.9585  -13.2431   26.9590 C   0  0  0  0  0  0  0  0  0  0  0  0
   11.3158  -15.7256   26.9229 C   0  0  0  0  0  0  0  0  0  0  0  0
   11.3787  -16.0409   25.4922 C   0  0  2  0  0  0  0  0  0  0  0  0
   10.0734  -15.9496   24.8732 N   0  0  0  0  0  0  0  0  0  0  0  0
   11.9534  -17.3306   25.1294 C   0  0  0  0  0  0  0  0  0  0  0  0
   13.1251  -17.6298   25.4592 O   0  0  0  0  0  0  0  0  0  0  0  0
   11.2618  -18.2904   24.4131 O   0  0  0  0  0  0  0  0  0  0  0  0
  2  1  1  1
  3  2  1  0
  4  3  1  0
  5  4  2  0
  6  5  1  0
  7  6  2  0
  7  8  1  0
  8  9  2  0
  9  4  1  0
 10 11  2  0
 10  2  1  0
 13 12  1  6
 14 13  1  0
 15 13  1  0
 15 16  1  1
 16 10  1  0
 17 15  1  0
 18 17  2  0
 20 19  1  1
 20 21  1  0
 23 22  1  1
 22 20  1  0
 23 24  1  0
 24 17  1  0
 25 23  1  0
 25 27  1  0
 26 25  2  0
M  END
$$$$
