FVL.pdb
     RDKit          3D

 27 27  0  0  1  0  0  0  0  0999 V2000
    5.9271  -18.8316   24.9801 N   0  0  0  0  0  0  0  0  0  0  0  0
    6.1372  -17.4109   25.0591 C   0  0  1  0  0  0  0  0  0  0  0  0
    6.4594  -17.0842   26.5042 C   0  0  0  0  0  0  0  0  0  0  0  0
    6.3470  -15.6339   26.7703 C   0  0  0  0  0  0  0  0  0  0  0  0
    7.4052  -14.9084   27.2519 C   0  0  0  0  0  0  0  0  0  0  0  0
    7.2930  -13.5494   27.4998 C   0  0  0  0  0  0  0  0  0  0  0  0
    6.1198  -12.8674   27.2751 C   0  0  0  0  0  0  0  0  0  0  0  0
    5.0561  -13.6013   26.7899 C   0  0  0  0  0  0  0  0  0  0  0  0
    5.1536  -14.9440   26.5409 C   0  0  0  0  0  0  0  0  0  0  0  0
    7.2874  -17.0584   24.1885 C   0  0  0  0  0  0  0  0  0  0  0  0
    8.1338  -17.9668   23.8904 O   0  0  0  0  0  0  0  0  0  0  0  0
    9.1942  -13.8062   21.0178 C   0  0  0  0  0  0  0  0  0  0  0  0
    8.1630  -14.2009   22.0315 C   0  0  1  0  0  0  0  0  0  0  0  0
    6.7667  -14.1113   21.5219 C   0  0  0  0  0  0  0  0  0  0  0  0
    8.5129  -15.5753   22.6091 C   0  0  2  0  0  0  0  0  0  0  0  0
    7.5071  -15.7778   23.6662 N   0  0  0  0  0  0  0  0  0  0  0  0
    9.8611  -15.5704   23.2105 C   0  0  0  0  0  0  0  0  0  0  0  0
   10.8764  -15.5127   22.4426 O   0  0  0  0  0  0  0  0  0  0  0  0
   10.5971  -14.0034   28.3399 C   0  0  0  0  0  0  0  0  0  0  0  0
   10.6508  -14.0196   26.8358 C   0  0  1  0  0  0  0  0  0  0  0  0
   10.4896  -12.6064   26.2933 C   0  0  0  0  0  0  0  0  0  0  0  0
   11.7260  -14.7872   26.2079 C   0  0  0  0  0  0  0  0  0  0  0  0
   11.4758  -15.7742   25.1526 C   0  0  2  0  0  0  0  0  0  0  0  0
   10.1495  -15.6240   24.5925 N   0  0  0  0  0  0  0  0  0  0  0  0
   11.6505  -17.1764   25.5111 C   0  0  0  0  0  0  0  0  0  0  0  0
   10.6867  -17.9767   25.4712 O   0  0  0  0  0  0  0  0  0  0  0  0
   12.8632  -17.7079   25.9104 O   0  0  0  0  0  0  0  0  0  0  0  0
  2  1  1  1
  3  2  1  0
  4  3  1  0
  5  4  2  0
  6  5  1  0
  7  6  2  0
  7  8  1  0
  8  9  2  0
  9  4  1  0
 10 11  2  0
 10  2  1  0
 13 12  1  6
 14 13  1  0
 15 13  1  0
 15 16  1  1
 16 10  1  0
 17 15  1  0
 18 17  2  0
 20 19  1  1
 20 21  1  0
 23 22  1  1
 22 20  1  0
 23 24  1  0
 24 17  1  0
 25 23  1  0
 25 27  1  0
 26 25  2  0
M  END
$$$$
