FVL.pdb
     RDKit          3D

 27 27  0  0  1  0  0  0  0  0999 V2000
    5.2749  -17.8329   25.8518 N   0  0  0  0  0  0  0  0  0  0  0  0
    5.7596  -16.5009   25.6076 C   0  0  1  0  0  0  0  0  0  0  0  0
    6.1551  -15.9140   26.9484 C   0  0  0  0  0  0  0  0  0  0  0  0
    6.3061  -14.4448   26.8739 C   0  0  0  0  0  0  0  0  0  0  0  0
    7.5397  -13.8529   26.7977 C   0  0  0  0  0  0  0  0  0  0  0  0
    7.6743  -12.4752   26.7287 C   0  0  0  0  0  0  0  0  0  0  0  0
    6.5811  -11.6404   26.7334 C   0  0  0  0  0  0  0  0  0  0  0  0
    5.3400  -12.2400   26.8103 C   0  0  0  0  0  0  0  0  0  0  0  0
    5.1933  -13.5995   26.8789 C   0  0  0  0  0  0  0  0  0  0  0  0
    6.9470  -16.5899   24.7203 C   0  0  0  0  0  0  0  0  0  0  0  0
    7.8395  -17.4671   24.9739 O   0  0  0  0  0  0  0  0  0  0  0  0
    7.8732  -13.5662   22.1222 C   0  0  0  0  0  0  0  0  0  0  0  0
    8.1606  -14.9524   21.6294 C   0  0  1  0  0  0  0  0  0  0  0  0
    9.2491  -15.0066   20.6147 C   0  0  0  0  0  0  0  0  0  0  0  0
    8.3952  -15.8817   22.8237 C   0  0  2  0  0  0  0  0  0  0  0  0
    7.1544  -15.7636   23.6089 N   0  0  0  0  0  0  0  0  0  0  0  0
    9.5363  -15.4203   23.6388 C   0  0  0  0  0  0  0  0  0  0  0  0
    9.6020  -14.1897   23.9632 O   0  0  0  0  0  0  0  0  0  0  0  0
    9.7884  -15.2273   28.5167 C   0  0  0  0  0  0  0  0  0  0  0  0
   10.1946  -14.9815   27.0884 C   0  0  1  0  0  0  0  0  0  0  0  0
   10.6506  -13.5392   26.9171 C   0  0  0  0  0  0  0  0  0  0  0  0
   11.0692  -15.9692   26.4568 C   0  0  0  0  0  0  0  0  0  0  0  0
   11.5762  -15.8118   25.0899 C   0  0  2  0  0  0  0  0  0  0  0  0
   10.5946  -16.2283   24.1110 N   0  0  0  0  0  0  0  0  0  0  0  0
   12.8311  -16.4833   24.7743 C   0  0  0  0  0  0  0  0  0  0  0  0
   13.9011  -16.1453   25.3328 O   0  0  0  0  0  0  0  0  0  0  0  0
   12.9255  -17.5152   23.8585 O   0  0  0  0  0  0  0  0  0  0  0  0
  2  1  1  1
  3  2  1  0
  4  3  1  0
  5  4  2  0
  6  5  1  0
  7  6  2  0
  7  8  1  0
  8  9  2  0
  9  4  1  0
 10 11  2  0
 10  2  1  0
 13 12  1  1
 14 13  1  0
 15 13  1  0
 15 16  1  1
 16 10  1  0
 17 15  1  0
 18 17  2  0
 20 19  1  1
 20 21  1  0
 23 22  1  1
 22 20  1  0
 23 24  1  0
 24 17  1  0
 25 23  1  0
 25 27  1  0
 26 25  2  0
M  END
$$$$
