DWW.pdb
     RDKit          3D

 37 40  0  0  1  0  0  0  0  0999 V2000
   30.8618  -21.4556  -19.5937 N   0  0  0  0  0  0  0  0  0  0  0  0
   30.2111  -22.2302  -18.5463 C   0  0  1  0  0  0  0  0  0  0  0  0
   31.3262  -23.0832  -17.9473 C   0  0  0  0  0  0  0  0  0  0  0  0
   30.7628  -24.2020  -17.1564 C   0  0  0  0  0  0  0  0  0  0  0  0
   29.5170  -24.3677  -17.0574 O   0  0  0  0  0  0  0  0  0  0  0  0
   29.6300  -21.3146  -17.5690 C   0  0  0  0  0  0  0  0  0  0  0  0
   30.2782  -20.4454  -17.0018 O   0  0  0  0  0  0  0  0  0  0  0  0
   31.5477  -25.1314  -16.4768 O   0  0  0  0  0  0  0  0  0  0  0  0
   28.2243  -21.3717  -17.1955 N   0  0  0  0  0  0  0  0  0  0  0  0
   27.6382  -20.5020  -16.2478 C   0  0  1  0  0  0  0  0  0  0  0  0
   26.8883  -19.3211  -16.8124 C   0  0  0  0  0  0  0  0  0  0  0  0
   26.3631  -18.4394  -15.7451 C   0  0  0  0  0  0  0  0  0  0  0  0
   27.0778  -17.6654  -14.8586 C   0  0  0  0  0  0  0  0  0  0  0  0
   26.2339  -17.0228  -14.0561 N   0  0  0  0  0  0  0  0  0  0  0  0
   24.9741  -17.3525  -14.3905 C   0  0  0  0  0  0  0  0  0  0  0  0
   23.7484  -16.9475  -13.8541 C   0  0  0  0  0  0  0  0  0  0  0  0
   22.6120  -17.4731  -14.4267 C   0  0  0  0  0  0  0  0  0  0  0  0
   22.6513  -18.3590  -15.4800 C   0  0  0  0  0  0  0  0  0  0  0  0
   23.8482  -18.7559  -16.0065 C   0  0  0  0  0  0  0  0  0  0  0  0
   25.0193  -18.2377  -15.4448 C   0  0  0  0  0  0  0  0  0  0  0  0
   26.8194  -21.2192  -15.2184 C   0  0  0  0  0  0  0  0  0  0  0  0
   26.0569  -22.1835  -15.4759 O   0  0  0  0  0  0  0  0  0  0  0  0
   26.8669  -20.8299  -13.8481 N   0  0  0  0  0  0  0  0  0  0  0  0
   26.1967  -21.5325  -12.7769 C   0  0  1  0  0  0  0  0  0  0  0  0
   27.1670  -21.8296  -11.6490 C   0  0  0  0  0  0  0  0  0  0  0  0
   26.8363  -21.0941  -10.4221 C   0  0  0  0  0  0  0  0  0  0  0  0
   25.6236  -20.4576  -10.1391 C   0  0  0  0  0  0  0  0  0  0  0  0
   25.7242  -19.9079   -8.9320 N   0  0  0  0  0  0  0  0  0  0  0  0
   26.9477  -20.1400   -8.3782 C   0  0  0  0  0  0  0  0  0  0  0  0
   27.5153  -19.7794   -7.1799 C   0  0  0  0  0  0  0  0  0  0  0  0
   28.8209  -20.1668   -6.8912 C   0  0  0  0  0  0  0  0  0  0  0  0
   29.5060  -20.9045   -7.8239 C   0  0  0  0  0  0  0  0  0  0  0  0
   28.9148  -21.2549   -9.0233 C   0  0  0  0  0  0  0  0  0  0  0  0
   27.6340  -20.8856   -9.3265 C   0  0  0  0  0  0  0  0  0  0  0  0
   25.0328  -20.7401  -12.2758 C   0  0  0  0  0  0  0  0  0  0  0  0
   25.1113  -19.5122  -12.1465 O   0  0  0  0  0  0  0  0  0  0  0  0
   23.8512  -21.3992  -11.9526 O   0  0  0  0  0  0  0  0  0  0  0  0
  2  1  1  6
  3  2  1  0
  4  8  1  0
  4  3  1  0
  5  4  2  0
  6  2  1  0
  7  6  2  0
  9  6  1  0
 10 11  1  6
 10  9  1  0
 12 11  1  0
 13 12  2  0
 14 15  1  0
 14 13  1  0
 15 20  2  0
 16 15  1  0
 16 17  2  0
 17 18  1  0
 18 19  2  0
 20 12  1  0
 20 19  1  0
 21 22  2  0
 21 10  1  0
 23 21  1  0
 24 23  1  0
 24 25  1  1
 25 26  1  0
 26 27  2  0
 26 34  1  0
 27 28  1  0
 28 29  1  0
 29 30  2  0
 30 31  1  0
 32 31  2  0
 33 32  1  0
 34 33  2  0
 34 29  1  0
 35 37  1  0
 35 24  1  0
 36 35  2  0
M  END
$$$$
