DWW.pdb
     RDKit          3D

 37 40  0  0  1  0  0  0  0  0999 V2000
   26.9338  -22.8476  -17.3524 N   0  0  0  0  0  0  0  0  0  0  0  0
   26.0788  -23.0073  -16.1845 C   0  0  1  0  0  0  0  0  0  0  0  0
   26.2314  -24.4743  -15.7917 C   0  0  0  0  0  0  0  0  0  0  0  0
   24.9139  -25.1513  -15.7720 C   0  0  0  0  0  0  0  0  0  0  0  0
   23.8710  -24.5594  -16.1608 O   0  0  0  0  0  0  0  0  0  0  0  0
   26.5358  -22.1032  -15.1333 C   0  0  0  0  0  0  0  0  0  0  0  0
   27.7161  -21.8396  -14.9471 O   0  0  0  0  0  0  0  0  0  0  0  0
   24.7317  -26.4606  -15.3309 O   0  0  0  0  0  0  0  0  0  0  0  0
   25.6105  -21.4451  -14.2225 N   0  0  0  0  0  0  0  0  0  0  0  0
   26.0304  -20.6476  -13.1336 C   0  0  1  0  0  0  0  0  0  0  0  0
   25.6397  -19.1918  -13.1937 C   0  0  0  0  0  0  0  0  0  0  0  0
   25.9745  -18.5842  -14.5018 C   0  0  0  0  0  0  0  0  0  0  0  0
   25.1132  -18.0360  -15.4256 C   0  0  0  0  0  0  0  0  0  0  0  0
   25.8096  -17.6001  -16.4717 N   0  0  0  0  0  0  0  0  0  0  0  0
   27.1147  -17.8461  -16.2626 C   0  0  0  0  0  0  0  0  0  0  0  0
   28.2351  -17.5802  -17.0552 C   0  0  0  0  0  0  0  0  0  0  0  0
   29.4594  -17.9610  -16.5535 C   0  0  0  0  0  0  0  0  0  0  0  0
   29.6031  -18.5772  -15.3307 C   0  0  0  0  0  0  0  0  0  0  0  0
   28.5095  -18.8376  -14.5539 C   0  0  0  0  0  0  0  0  0  0  0  0
   27.2527  -18.4614  -15.0381 C   0  0  0  0  0  0  0  0  0  0  0  0
   25.6894  -21.2434  -11.8019 C   0  0  0  0  0  0  0  0  0  0  0  0
   24.6502  -21.9125  -11.5783 O   0  0  0  0  0  0  0  0  0  0  0  0
   26.5574  -21.0753  -10.6840 N   0  0  0  0  0  0  0  0  0  0  0  0
   26.2707  -21.5525   -9.3497 C   0  0  1  0  0  0  0  0  0  0  0  0
   27.5321  -21.5605   -8.5068 C   0  0  0  0  0  0  0  0  0  0  0  0
   27.6982  -20.3183   -7.7421 C   0  0  0  0  0  0  0  0  0  0  0  0
   27.2833  -19.0417   -8.1348 C   0  0  0  0  0  0  0  0  0  0  0  0
   27.6174  -18.1900   -7.1693 N   0  0  0  0  0  0  0  0  0  0  0  0
   28.2397  -18.8251   -6.1365 C   0  0  0  0  0  0  0  0  0  0  0  0
   28.7628  -18.3825   -4.9455 C   0  0  0  0  0  0  0  0  0  0  0  0
   29.3592  -19.2902   -4.0747 C   0  0  0  0  0  0  0  0  0  0  0  0
   29.4056  -20.6126   -4.4387 C   0  0  0  0  0  0  0  0  0  0  0  0
   28.8735  -21.0349   -5.6426 C   0  0  0  0  0  0  0  0  0  0  0  0
   28.2829  -20.1606   -6.5118 C   0  0  0  0  0  0  0  0  0  0  0  0
   25.2130  -20.7142   -8.7077 C   0  0  0  0  0  0  0  0  0  0  0  0
   24.8426  -19.6544   -9.2275 O   0  0  0  0  0  0  0  0  0  0  0  0
   24.6440  -21.1377   -7.5110 O   0  0  0  0  0  0  0  0  0  0  0  0
  2  1  1  6
  3  2  1  0
  4  8  1  0
  4  3  1  0
  5  4  2  0
  6  2  1  0
  7  6  2  0
  9  6  1  0
 10 11  1  6
 10  9  1  0
 12 11  1  0
 13 12  2  0
 14 15  1  0
 14 13  1  0
 15 20  2  0
 16 15  1  0
 16 17  2  0
 17 18  1  0
 18 19  2  0
 20 12  1  0
 20 19  1  0
 21 22  2  0
 21 10  1  0
 23 21  1  0
 24 23  1  0
 24 25  1  1
 25 26  1  0
 26 27  2  0
 26 34  1  0
 27 28  1  0
 28 29  1  0
 29 30  2  0
 30 31  1  0
 32 31  2  0
 33 32  1  0
 34 33  2  0
 34 29  1  0
 35 37  1  0
 35 24  1  0
 36 35  2  0
M  END
$$$$
