DWW.pdb
     RDKit          3D

 37 40  0  0  1  0  0  0  0  0999 V2000
   26.9246  -19.6351  -17.9028 N   0  0  0  0  0  0  0  0  0  0  0  0
   27.9424  -19.9069  -16.8974 C   0  0  1  0  0  0  0  0  0  0  0  0
   29.0687  -18.9262  -17.2128 C   0  0  0  0  0  0  0  0  0  0  0  0
   29.8208  -19.3604  -18.4129 C   0  0  0  0  0  0  0  0  0  0  0  0
   30.8977  -18.7964  -18.7467 O   0  0  0  0  0  0  0  0  0  0  0  0
   27.3722  -19.6860  -15.5718 C   0  0  0  0  0  0  0  0  0  0  0  0
   27.3070  -18.5813  -15.0495 O   0  0  0  0  0  0  0  0  0  0  0  0
   29.4039  -20.3979  -19.2446 O   0  0  0  0  0  0  0  0  0  0  0  0
   26.8360  -20.7752  -14.7687 N   0  0  0  0  0  0  0  0  0  0  0  0
   26.1246  -20.5728  -13.5643 C   0  0  1  0  0  0  0  0  0  0  0  0
   24.6371  -20.8157  -13.6288 C   0  0  0  0  0  0  0  0  0  0  0  0
   23.8735  -19.5488  -13.6945 C   0  0  0  0  0  0  0  0  0  0  0  0
   24.1029  -18.4637  -14.5105 C   0  0  0  0  0  0  0  0  0  0  0  0
   23.1943  -17.5252  -14.2599 N   0  0  0  0  0  0  0  0  0  0  0  0
   22.3659  -17.9633  -13.2959 C   0  0  0  0  0  0  0  0  0  0  0  0
   21.2625  -17.3550  -12.6905 C   0  0  0  0  0  0  0  0  0  0  0  0
   20.6087  -18.0756  -11.7164 C   0  0  0  0  0  0  0  0  0  0  0  0
   21.0019  -19.3390  -11.3357 C   0  0  0  0  0  0  0  0  0  0  0  0
   22.0798  -19.9360  -11.9265 C   0  0  0  0  0  0  0  0  0  0  0  0
   22.7631  -19.2274  -12.9198 C   0  0  0  0  0  0  0  0  0  0  0  0
   26.7366  -21.2794  -12.3935 C   0  0  0  0  0  0  0  0  0  0  0  0
   27.2631  -22.4178  -12.4582 O   0  0  0  0  0  0  0  0  0  0  0  0
   26.7528  -20.6737  -11.1033 N   0  0  0  0  0  0  0  0  0  0  0  0
   26.7463  -21.4076   -9.8577 C   0  0  1  0  0  0  0  0  0  0  0  0
   28.0521  -21.2007   -9.1135 C   0  0  0  0  0  0  0  0  0  0  0  0
   27.9172  -20.2441   -8.0080 C   0  0  0  0  0  0  0  0  0  0  0  0
   27.0391  -19.1567   -7.9558 C   0  0  0  0  0  0  0  0  0  0  0  0
   27.2242  -18.5394   -6.7922 N   0  0  0  0  0  0  0  0  0  0  0  0
   28.1861  -19.1545   -6.0481 C   0  0  0  0  0  0  0  0  0  0  0  0
   28.7211  -18.8920   -4.8100 C   0  0  0  0  0  0  0  0  0  0  0  0
   29.7234  -19.7147   -4.3035 C   0  0  0  0  0  0  0  0  0  0  0  0
   30.1490  -20.7732   -5.0665 C   0  0  0  0  0  0  0  0  0  0  0  0
   29.5968  -21.0174   -6.3099 C   0  0  0  0  0  0  0  0  0  0  0  0
   28.6114  -20.2226   -6.8257 C   0  0  0  0  0  0  0  0  0  0  0  0
   25.5860  -20.9953   -9.0107 C   0  0  0  0  0  0  0  0  0  0  0  0
   24.9801  -19.9406   -9.2368 O   0  0  0  0  0  0  0  0  0  0  0  0
   25.1896  -21.8129   -7.9574 O   0  0  0  0  0  0  0  0  0  0  0  0
  2  1  1  6
  3  2  1  0
  4  8  1  0
  4  3  1  0
  5  4  2  0
  6  2  1  0
  7  6  2  0
  9  6  1  0
 10 11  1  6
 10  9  1  0
 12 11  1  0
 13 12  2  0
 14 15  1  0
 14 13  1  0
 15 20  2  0
 16 15  1  0
 16 17  2  0
 17 18  1  0
 18 19  2  0
 20 12  1  0
 20 19  1  0
 21 22  2  0
 21 10  1  0
 23 21  1  0
 24 23  1  0
 24 25  1  1
 25 26  1  0
 26 27  2  0
 26 34  1  0
 27 28  1  0
 28 29  1  0
 29 30  2  0
 30 31  1  0
 32 31  2  0
 33 32  1  0
 34 33  2  0
 34 29  1  0
 35 37  1  0
 35 24  1  0
 36 35  2  0
M  END
$$$$
