DWW.pdb
     RDKit          3D

 37 40  0  0  1  0  0  0  0  0999 V2000
   26.7993  -24.6001  -17.0846 N   0  0  0  0  0  0  0  0  0  0  0  0
   25.8506  -23.5702  -16.6849 C   0  0  1  0  0  0  0  0  0  0  0  0
   24.4853  -24.2466  -16.7747 C   0  0  0  0  0  0  0  0  0  0  0  0
   24.0019  -24.2673  -18.1749 C   0  0  0  0  0  0  0  0  0  0  0  0
   24.2017  -23.2918  -18.9480 O   0  0  0  0  0  0  0  0  0  0  0  0
   26.1641  -23.1361  -15.3268 C   0  0  0  0  0  0  0  0  0  0  0  0
   26.5866  -23.8952  -14.4649 O   0  0  0  0  0  0  0  0  0  0  0  0
   23.3049  -25.3392  -18.7291 O   0  0  0  0  0  0  0  0  0  0  0  0
   25.9939  -21.7559  -14.8968 N   0  0  0  0  0  0  0  0  0  0  0  0
   26.2337  -21.3212  -13.5734 C   0  0  1  0  0  0  0  0  0  0  0  0
   27.0616  -20.0682  -13.4312 C   0  0  0  0  0  0  0  0  0  0  0  0
   28.5129  -20.3566  -13.4859 C   0  0  0  0  0  0  0  0  0  0  0  0
   29.4032  -20.0319  -14.4848 C   0  0  0  0  0  0  0  0  0  0  0  0
   30.6143  -20.4715  -14.1545 N   0  0  0  0  0  0  0  0  0  0  0  0
   30.5482  -21.0805  -12.9576 C   0  0  0  0  0  0  0  0  0  0  0  0
   31.5385  -21.6989  -12.1888 C   0  0  0  0  0  0  0  0  0  0  0  0
   31.1472  -22.2400  -10.9849 C   0  0  0  0  0  0  0  0  0  0  0  0
   29.8473  -22.1892  -10.5339 C   0  0  0  0  0  0  0  0  0  0  0  0
   28.8777  -21.5847  -11.2832 C   0  0  0  0  0  0  0  0  0  0  0  0
   29.2464  -21.0259  -12.5109 C   0  0  0  0  0  0  0  0  0  0  0  0
   24.9878  -21.2418  -12.7453 C   0  0  0  0  0  0  0  0  0  0  0  0
   23.8562  -20.9516  -13.2067 O   0  0  0  0  0  0  0  0  0  0  0  0
   25.0256  -21.5010  -11.3442 N   0  0  0  0  0  0  0  0  0  0  0  0
   23.8744  -21.4383  -10.4718 C   0  0  1  0  0  0  0  0  0  0  0  0
   24.3072  -21.4857   -9.0185 C   0  0  0  0  0  0  0  0  0  0  0  0
   24.9764  -20.2489   -8.5964 C   0  0  0  0  0  0  0  0  0  0  0  0
   24.7278  -18.9632   -9.0876 C   0  0  0  0  0  0  0  0  0  0  0  0
   25.5379  -18.1209   -8.4524 N   0  0  0  0  0  0  0  0  0  0  0  0
   26.3266  -18.7710   -7.5509 C   0  0  0  0  0  0  0  0  0  0  0  0
   27.3016  -18.3436   -6.6821 C   0  0  0  0  0  0  0  0  0  0  0  0
   27.9552  -19.2671   -5.8709 C   0  0  0  0  0  0  0  0  0  0  0  0
   27.5999  -20.5893   -5.9668 C   0  0  0  0  0  0  0  0  0  0  0  0
   26.6166  -20.9963   -6.8489 C   0  0  0  0  0  0  0  0  0  0  0  0
   25.9620  -20.1062   -7.6539 C   0  0  0  0  0  0  0  0  0  0  0  0
   23.0754  -20.2049  -10.7438 C   0  0  0  0  0  0  0  0  0  0  0  0
   23.5974  -19.2161  -11.2733 O   0  0  0  0  0  0  0  0  0  0  0  0
   21.7294  -20.1767  -10.3936 O   0  0  0  0  0  0  0  0  0  0  0  0
  2  1  1  1
  3  2  1  0
  4  8  1  0
  4  3  1  0
  5  4  2  0
  6  2  1  0
  7  6  2  0
  9  6  1  0
 10 11  1  6
 10  9  1  0
 12 11  1  0
 13 12  2  0
 14 15  1  0
 14 13  1  0
 15 20  2  0
 16 15  1  0
 16 17  2  0
 17 18  1  0
 18 19  2  0
 20 12  1  0
 20 19  1  0
 21 22  2  0
 21 10  1  0
 23 21  1  0
 24 23  1  0
 24 25  1  1
 25 26  1  0
 26 27  2  0
 26 34  1  0
 27 28  1  0
 28 29  1  0
 29 30  2  0
 30 31  1  0
 32 31  2  0
 33 32  1  0
 34 33  2  0
 34 29  1  0
 35 37  1  0
 35 24  1  0
 36 35  2  0
M  END
$$$$
