DWW.pdb
     RDKit          3D

 37 40  0  0  1  0  0  0  0  0999 V2000
   28.9262  -20.1470  -17.4207 N   0  0  0  0  0  0  0  0  0  0  0  0
   27.8228  -20.7861  -16.7173 C   0  0  1  0  0  0  0  0  0  0  0  0
   28.2232  -22.2561  -16.6250 C   0  0  0  0  0  0  0  0  0  0  0  0
   28.2575  -22.8753  -17.9704 C   0  0  0  0  0  0  0  0  0  0  0  0
   27.2906  -22.7514  -18.7698 O   0  0  0  0  0  0  0  0  0  0  0  0
   27.6764  -20.1695  -15.4022 C   0  0  0  0  0  0  0  0  0  0  0  0
   28.4976  -19.3917  -14.9352 O   0  0  0  0  0  0  0  0  0  0  0  0
   29.3335  -23.6249  -18.4416 O   0  0  0  0  0  0  0  0  0  0  0  0
   26.5321  -20.4395  -14.5440 N   0  0  0  0  0  0  0  0  0  0  0  0
   26.3518  -19.8343  -13.2794 C   0  0  1  0  0  0  0  0  0  0  0  0
   25.3167  -18.7388  -13.2147 C   0  0  0  0  0  0  0  0  0  0  0  0
   23.9850  -19.2112  -13.6572 C   0  0  0  0  0  0  0  0  0  0  0  0
   23.0095  -19.8220  -12.9014 C   0  0  0  0  0  0  0  0  0  0  0  0
   21.9608  -20.0936  -13.6732 N   0  0  0  0  0  0  0  0  0  0  0  0
   22.2180  -19.6760  -14.9250 C   0  0  0  0  0  0  0  0  0  0  0  0
   21.4423  -19.7321  -16.0866 C   0  0  0  0  0  0  0  0  0  0  0  0
   21.9968  -19.2099  -17.2335 C   0  0  0  0  0  0  0  0  0  0  0  0
   23.2553  -18.6522  -17.2640 C   0  0  0  0  0  0  0  0  0  0  0  0
   24.0151  -18.5955  -16.1297 C   0  0  0  0  0  0  0  0  0  0  0  0
   23.4771  -19.1183  -14.9495 C   0  0  0  0  0  0  0  0  0  0  0  0
   26.1567  -20.8271  -12.1744 C   0  0  0  0  0  0  0  0  0  0  0  0
   25.5457  -21.9160  -12.3097 O   0  0  0  0  0  0  0  0  0  0  0  0
   26.6732  -20.5768  -10.8698 N   0  0  0  0  0  0  0  0  0  0  0  0
   26.4665  -21.4431   -9.7308 C   0  0  1  0  0  0  0  0  0  0  0  0
   27.7079  -21.4786   -8.8594 C   0  0  0  0  0  0  0  0  0  0  0  0
   27.7410  -20.3741   -7.8927 C   0  0  0  0  0  0  0  0  0  0  0  0
   27.1459  -19.1181   -8.0489 C   0  0  0  0  0  0  0  0  0  0  0  0
   27.4050  -18.4059   -6.9558 N   0  0  0  0  0  0  0  0  0  0  0  0
   28.1479  -19.1167   -6.0613 C   0  0  0  0  0  0  0  0  0  0  0  0
   28.6574  -18.8163   -4.8210 C   0  0  0  0  0  0  0  0  0  0  0  0
   29.4038  -19.7690   -4.1330 C   0  0  0  0  0  0  0  0  0  0  0  0
   29.6084  -20.9911   -4.7231 C   0  0  0  0  0  0  0  0  0  0  0  0
   29.0868  -21.2707   -5.9723 C   0  0  0  0  0  0  0  0  0  0  0  0
   28.3507  -20.3501   -6.6646 C   0  0  0  0  0  0  0  0  0  0  0  0
   25.2797  -20.9969   -8.9396 C   0  0  0  0  0  0  0  0  0  0  0  0
   24.7205  -19.9218   -9.1886 O   0  0  0  0  0  0  0  0  0  0  0  0
   24.8052  -21.8060   -7.9123 O   0  0  0  0  0  0  0  0  0  0  0  0
  2  1  1  6
  3  2  1  0
  4  8  1  0
  4  3  1  0
  5  4  2  0
  6  2  1  0
  7  6  2  0
  9  6  1  0
 10 11  1  6
 10  9  1  0
 12 11  1  0
 13 12  2  0
 14 15  1  0
 14 13  1  0
 15 20  2  0
 16 15  1  0
 16 17  2  0
 17 18  1  0
 18 19  2  0
 20 12  1  0
 20 19  1  0
 21 22  2  0
 21 10  1  0
 23 21  1  0
 24 23  1  0
 24 25  1  1
 25 26  1  0
 26 27  2  0
 26 34  1  0
 27 28  1  0
 28 29  1  0
 29 30  2  0
 30 31  1  0
 32 31  2  0
 33 32  1  0
 34 33  2  0
 34 29  1  0
 35 37  1  0
 35 24  1  0
 36 35  2  0
M  END
$$$$
