DWW.pdb
     RDKit          3D

 37 40  0  0  1  0  0  0  0  0999 V2000
   30.3550  -22.2233  -19.0047 N   0  0  0  0  0  0  0  0  0  0  0  0
   28.9559  -22.6251  -18.9630 C   0  0  1  0  0  0  0  0  0  0  0  0
   28.9936  -24.1316  -18.7212 C   0  0  0  0  0  0  0  0  0  0  0  0
   29.0902  -24.8660  -20.0041 C   0  0  0  0  0  0  0  0  0  0  0  0
   29.0593  -24.2573  -21.1076 O   0  0  0  0  0  0  0  0  0  0  0  0
   28.2873  -21.9081  -17.8813 C   0  0  0  0  0  0  0  0  0  0  0  0
   28.4462  -22.1847  -16.6999 O   0  0  0  0  0  0  0  0  0  0  0  0
   29.2170  -26.2513  -20.0863 O   0  0  0  0  0  0  0  0  0  0  0  0
   27.3746  -20.8027  -18.1337 N   0  0  0  0  0  0  0  0  0  0  0  0
   26.7462  -20.0658  -17.1041 C   0  0  1  0  0  0  0  0  0  0  0  0
   26.3786  -18.6425  -17.4426 C   0  0  0  0  0  0  0  0  0  0  0  0
   25.8069  -17.9285  -16.2782 C   0  0  0  0  0  0  0  0  0  0  0  0
   26.4503  -17.5388  -15.1250 C   0  0  0  0  0  0  0  0  0  0  0  0
   25.5836  -16.9264  -14.3232 N   0  0  0  0  0  0  0  0  0  0  0  0
   24.3785  -16.9002  -14.9188 C   0  0  0  0  0  0  0  0  0  0  0  0
   23.1563  -16.3745  -14.4900 C   0  0  0  0  0  0  0  0  0  0  0  0
   22.0850  -16.5081  -15.3443 C   0  0  0  0  0  0  0  0  0  0  0  0
   22.1839  -17.1266  -16.5704 C   0  0  0  0  0  0  0  0  0  0  0  0
   23.3777  -17.6407  -16.9921 C   0  0  0  0  0  0  0  0  0  0  0  0
   24.4835  -17.5191  -16.1448 C   0  0  0  0  0  0  0  0  0  0  0  0
   25.5898  -20.7892  -16.4844 C   0  0  0  0  0  0  0  0  0  0  0  0
   24.6375  -21.2806  -17.1394 O   0  0  0  0  0  0  0  0  0  0  0  0
   25.5103  -20.9622  -15.0718 N   0  0  0  0  0  0  0  0  0  0  0  0
   24.4142  -21.6135  -14.3903 C   0  0  1  0  0  0  0  0  0  0  0  0
   24.9096  -22.3168  -13.1406 C   0  0  0  0  0  0  0  0  0  0  0  0
   25.7198  -21.4358  -12.2904 C   0  0  0  0  0  0  0  0  0  0  0  0
   25.2485  -20.6163  -11.2596 C   0  0  0  0  0  0  0  0  0  0  0  0
   26.2924  -19.9795  -10.7361 N   0  0  0  0  0  0  0  0  0  0  0  0
   27.4532  -20.3263  -11.3603 C   0  0  0  0  0  0  0  0  0  0  0  0
   28.7604  -19.9408  -11.1852 C   0  0  0  0  0  0  0  0  0  0  0  0
   29.7523  -20.4759  -12.0023 C   0  0  0  0  0  0  0  0  0  0  0  0
   29.3876  -21.3813  -12.9671 C   0  0  0  0  0  0  0  0  0  0  0  0
   28.0658  -21.7536  -13.1257 C   0  0  0  0  0  0  0  0  0  0  0  0
   27.0764  -21.2410  -12.3338 C   0  0  0  0  0  0  0  0  0  0  0  0
   23.3452  -20.6258  -14.0506 C   0  0  0  0  0  0  0  0  0  0  0  0
   22.2757  -20.9969  -13.5514 O   0  0  0  0  0  0  0  0  0  0  0  0
   23.5634  -19.2752  -14.3025 O   0  0  0  0  0  0  0  0  0  0  0  0
  2  1  1  1
  3  2  1  0
  4  8  1  0
  4  3  1  0
  5  4  2  0
  6  2  1  0
  7  6  2  0
  9  6  1  0
 10 11  1  6
 10  9  1  0
 12 11  1  0
 13 12  2  0
 14 15  1  0
 14 13  1  0
 15 20  2  0
 16 15  1  0
 16 17  2  0
 17 18  1  0
 18 19  2  0
 20 12  1  0
 20 19  1  0
 21 22  2  0
 21 10  1  0
 23 21  1  0
 24 23  1  0
 24 25  1  1
 25 26  1  0
 26 27  2  0
 26 34  1  0
 27 28  1  0
 28 29  1  0
 29 30  2  0
 30 31  1  0
 32 31  2  0
 33 32  1  0
 34 33  2  0
 34 29  1  0
 35 37  1  0
 35 24  1  0
 36 35  2  0
M  END
$$$$
