DWW.pdb
     RDKit          3D

 37 40  0  0  1  0  0  0  0  0999 V2000
   27.7783  -21.1573  -16.3089 N   0  0  0  0  0  0  0  0  0  0  0  0
   28.0180  -19.8697  -15.6726 C   0  0  1  0  0  0  0  0  0  0  0  0
   27.7182  -18.8401  -16.7587 C   0  0  0  0  0  0  0  0  0  0  0  0
   28.7078  -18.9339  -17.8571 C   0  0  0  0  0  0  0  0  0  0  0  0
   29.4627  -19.9371  -17.9705 O   0  0  0  0  0  0  0  0  0  0  0  0
   27.1289  -19.7347  -14.5225 C   0  0  0  0  0  0  0  0  0  0  0  0
   26.9395  -18.6714  -13.9473 O   0  0  0  0  0  0  0  0  0  0  0  0
   28.8766  -17.9436  -18.8229 O   0  0  0  0  0  0  0  0  0  0  0  0
   26.3980  -20.8669  -13.9724 N   0  0  0  0  0  0  0  0  0  0  0  0
   25.5609  -20.7715  -12.8375 C   0  0  1  0  0  0  0  0  0  0  0  0
   24.0993  -21.0633  -13.0704 C   0  0  0  0  0  0  0  0  0  0  0  0
   23.4131  -19.9390  -13.7468 C   0  0  0  0  0  0  0  0  0  0  0  0
   23.6256  -19.4608  -15.0204 C   0  0  0  0  0  0  0  0  0  0  0  0
   22.8071  -18.4375  -15.2482 N   0  0  0  0  0  0  0  0  0  0  0  0
   22.0550  -18.2257  -14.1541 C   0  0  0  0  0  0  0  0  0  0  0  0
   21.0585  -17.2797  -13.8969 C   0  0  0  0  0  0  0  0  0  0  0  0
   20.4633  -17.3215  -12.6562 C   0  0  0  0  0  0  0  0  0  0  0  0
   20.8137  -18.2414  -11.6936 C   0  0  0  0  0  0  0  0  0  0  0  0
   21.7871  -19.1675  -11.9428 C   0  0  0  0  0  0  0  0  0  0  0  0
   22.4089  -19.1490  -13.1952 C   0  0  0  0  0  0  0  0  0  0  0  0
   26.0816  -21.5323  -11.6566 C   0  0  0  0  0  0  0  0  0  0  0  0
   26.4870  -22.7198  -11.7105 O   0  0  0  0  0  0  0  0  0  0  0  0
   26.1457  -20.9251  -10.3686 N   0  0  0  0  0  0  0  0  0  0  0  0
   26.3190  -21.6530   -9.1315 C   0  0  1  0  0  0  0  0  0  0  0  0
   27.7219  -21.4522   -8.5901 C   0  0  0  0  0  0  0  0  0  0  0  0
   27.8212  -20.2689   -7.7268 C   0  0  0  0  0  0  0  0  0  0  0  0
   27.0334  -19.1160   -7.8074 C   0  0  0  0  0  0  0  0  0  0  0  0
   27.4354  -18.2807   -6.8535 N   0  0  0  0  0  0  0  0  0  0  0  0
   28.4592  -18.8094   -6.1257 C   0  0  0  0  0  0  0  0  0  0  0  0
   29.1949  -18.3364   -5.0660 C   0  0  0  0  0  0  0  0  0  0  0  0
   30.2085  -19.1225   -4.5248 C   0  0  0  0  0  0  0  0  0  0  0  0
   30.4422  -20.3582   -5.0742 C   0  0  0  0  0  0  0  0  0  0  0  0
   29.6898  -20.8129   -6.1410 C   0  0  0  0  0  0  0  0  0  0  0  0
   28.6897  -20.0577   -6.6869 C   0  0  0  0  0  0  0  0  0  0  0  0
   25.2996  -21.2283   -8.1245 C   0  0  0  0  0  0  0  0  0  0  0  0
   25.2080  -21.8054   -7.0340 O   0  0  0  0  0  0  0  0  0  0  0  0
   24.4472  -20.1709   -8.4254 O   0  0  0  0  0  0  0  0  0  0  0  0
  2  1  1  6
  3  2  1  0
  4  8  1  0
  4  3  1  0
  5  4  2  0
  6  2  1  0
  7  6  2  0
  9  6  1  0
 10 11  1  6
 10  9  1  0
 12 11  1  0
 13 12  2  0
 14 15  1  0
 14 13  1  0
 15 20  2  0
 16 15  1  0
 16 17  2  0
 17 18  1  0
 18 19  2  0
 20 12  1  0
 20 19  1  0
 21 22  2  0
 21 10  1  0
 23 21  1  0
 24 23  1  0
 24 25  1  1
 25 26  1  0
 26 27  2  0
 26 34  1  0
 27 28  1  0
 28 29  1  0
 29 30  2  0
 30 31  1  0
 32 31  2  0
 33 32  1  0
 34 33  2  0
 34 29  1  0
 35 37  1  0
 35 24  1  0
 36 35  2  0
M  END
$$$$
