DWW.pdb
     RDKit          3D

 37 40  0  0  1  0  0  0  0  0999 V2000
   26.3138  -23.4399  -17.1116 N   0  0  0  0  0  0  0  0  0  0  0  0
   25.4102  -23.2775  -15.9813 C   0  0  1  0  0  0  0  0  0  0  0  0
   25.3742  -24.6503  -15.3151 C   0  0  0  0  0  0  0  0  0  0  0  0
   24.3672  -25.5216  -15.9643 C   0  0  0  0  0  0  0  0  0  0  0  0
   23.6763  -25.1084  -16.9345 O   0  0  0  0  0  0  0  0  0  0  0  0
   25.9393  -22.2462  -15.0938 C   0  0  0  0  0  0  0  0  0  0  0  0
   27.1332  -21.9945  -15.0012 O   0  0  0  0  0  0  0  0  0  0  0  0
   24.1121  -26.8306  -15.5603 O   0  0  0  0  0  0  0  0  0  0  0  0
   25.0755  -21.4364  -14.2470 N   0  0  0  0  0  0  0  0  0  0  0  0
   25.5670  -20.5300  -13.2801 C   0  0  1  0  0  0  0  0  0  0  0  0
   25.1924  -19.0829  -13.4830 C   0  0  0  0  0  0  0  0  0  0  0  0
   25.7206  -18.5499  -14.7594 C   0  0  0  0  0  0  0  0  0  0  0  0
   25.0106  -18.0242  -15.8155 C   0  0  0  0  0  0  0  0  0  0  0  0
   25.8558  -17.6597  -16.7757 N   0  0  0  0  0  0  0  0  0  0  0  0
   27.1118  -17.9312  -16.3803 C   0  0  0  0  0  0  0  0  0  0  0  0
   28.3370  -17.7357  -17.0243 C   0  0  0  0  0  0  0  0  0  0  0  0
   29.4689  -18.1251  -16.3442 C   0  0  0  0  0  0  0  0  0  0  0  0
   29.4258  -18.6841  -15.0867 C   0  0  0  0  0  0  0  0  0  0  0  0
   28.2295  -18.8756  -14.4549 C   0  0  0  0  0  0  0  0  0  0  0  0
   27.0628  -18.4890  -15.1220 C   0  0  0  0  0  0  0  0  0  0  0  0
   25.2947  -20.9658  -11.8728 C   0  0  0  0  0  0  0  0  0  0  0  0
   24.2329  -21.5272  -11.5055 O   0  0  0  0  0  0  0  0  0  0  0  0
   26.2606  -20.7585  -10.8454 N   0  0  0  0  0  0  0  0  0  0  0  0
   26.0255  -21.0125   -9.4417 C   0  0  1  0  0  0  0  0  0  0  0  0
   27.3153  -20.8758   -8.6547 C   0  0  0  0  0  0  0  0  0  0  0  0
   27.0747  -20.7138   -7.2155 C   0  0  0  0  0  0  0  0  0  0  0  0
   25.9109  -21.0672   -6.5251 C   0  0  0  0  0  0  0  0  0  0  0  0
   26.0889  -20.7605   -5.2431 N   0  0  0  0  0  0  0  0  0  0  0  0
   27.3191  -20.2155   -5.0263 C   0  0  0  0  0  0  0  0  0  0  0  0
   27.9480  -19.7451   -3.8989 C   0  0  0  0  0  0  0  0  0  0  0  0
   29.2360  -19.2254   -3.9938 C   0  0  0  0  0  0  0  0  0  0  0  0
   29.8422  -19.1998   -5.2248 C   0  0  0  0  0  0  0  0  0  0  0  0
   29.1896  -19.6778   -6.3458 C   0  0  0  0  0  0  0  0  0  0  0  0
   27.9253  -20.1928   -6.2747 C   0  0  0  0  0  0  0  0  0  0  0  0
   24.9815  -20.0860   -8.9075 C   0  0  0  0  0  0  0  0  0  0  0  0
   24.8971  -18.9223   -9.3190 O   0  0  0  0  0  0  0  0  0  0  0  0
   24.0985  -20.5457   -7.9357 O   0  0  0  0  0  0  0  0  0  0  0  0
  2  1  1  6
  3  2  1  0
  4  8  1  0
  4  3  1  0
  5  4  2  0
  6  2  1  0
  7  6  2  0
  9  6  1  0
 10 11  1  6
 10  9  1  0
 12 11  1  0
 13 12  2  0
 14 15  1  0
 14 13  1  0
 15 20  2  0
 16 15  1  0
 16 17  2  0
 17 18  1  0
 18 19  2  0
 20 12  1  0
 20 19  1  0
 21 22  2  0
 21 10  1  0
 23 21  1  0
 24 23  1  0
 24 25  1  1
 25 26  1  0
 26 27  2  0
 26 34  1  0
 27 28  1  0
 28 29  1  0
 29 30  2  0
 30 31  1  0
 32 31  2  0
 33 32  1  0
 34 33  2  0
 34 29  1  0
 35 37  1  0
 35 24  1  0
 36 35  2  0
M  END
$$$$
