DWW.pdb
     RDKit          3D

 37 40  0  0  1  0  0  0  0  0999 V2000
   28.4490  -20.6599  -16.8445 N   0  0  0  0  0  0  0  0  0  0  0  0
   28.1476  -19.9040  -15.6369 C   0  0  1  0  0  0  0  0  0  0  0  0
   27.2928  -18.7341  -16.1167 C   0  0  0  0  0  0  0  0  0  0  0  0
   28.0546  -17.8793  -17.0567 C   0  0  0  0  0  0  0  0  0  0  0  0
   27.4926  -17.3368  -18.0462 O   0  0  0  0  0  0  0  0  0  0  0  0
   27.4300  -20.7663  -14.7028 C   0  0  0  0  0  0  0  0  0  0  0  0
   26.6067  -21.5979  -15.0607 O   0  0  0  0  0  0  0  0  0  0  0  0
   29.4169  -17.6184  -16.9229 O   0  0  0  0  0  0  0  0  0  0  0  0
   27.6445  -20.6970  -13.2647 N   0  0  0  0  0  0  0  0  0  0  0  0
   26.8824  -21.4353  -12.3309 C   0  0  1  0  0  0  0  0  0  0  0  0
   27.6074  -21.8614  -11.0786 C   0  0  0  0  0  0  0  0  0  0  0  0
   27.1512  -21.1027   -9.8917 C   0  0  0  0  0  0  0  0  0  0  0  0
   25.9186  -20.5279   -9.6771 C   0  0  0  0  0  0  0  0  0  0  0  0
   25.9111  -19.9347   -8.4866 N   0  0  0  0  0  0  0  0  0  0  0  0
   27.1117  -20.1034   -7.9054 C   0  0  0  0  0  0  0  0  0  0  0  0
   27.5978  -19.6749   -6.6667 C   0  0  0  0  0  0  0  0  0  0  0  0
   28.8951  -20.0135   -6.3541 C   0  0  0  0  0  0  0  0  0  0  0  0
   29.6996  -20.7396   -7.2033 C   0  0  0  0  0  0  0  0  0  0  0  0
   29.2266  -21.1601   -8.4143 C   0  0  0  0  0  0  0  0  0  0  0  0
   27.9118  -20.8309   -8.7584 C   0  0  0  0  0  0  0  0  0  0  0  0
   25.5701  -20.7914  -12.0023 C   0  0  0  0  0  0  0  0  0  0  0  0
   25.4434  -19.8168  -11.2203 O   0  0  0  0  0  0  0  0  0  0  0  0
   24.3584  -21.2690  -12.5811 N   0  0  0  0  0  0  0  0  0  0  0  0
   23.0725  -20.6259  -12.4282 C   0  0  1  0  0  0  0  0  0  0  0  0
   23.0983  -19.2372  -13.0385 C   0  0  0  0  0  0  0  0  0  0  0  0
   23.5618  -19.2499  -14.4315 C   0  0  0  0  0  0  0  0  0  0  0  0
   23.3704  -20.2791  -15.3590 C   0  0  0  0  0  0  0  0  0  0  0  0
   23.9391  -19.9075  -16.5026 N   0  0  0  0  0  0  0  0  0  0  0  0
   24.5084  -18.6736  -16.3993 C   0  0  0  0  0  0  0  0  0  0  0  0
   25.2012  -17.8861  -17.2870 C   0  0  0  0  0  0  0  0  0  0  0  0
   25.6796  -16.6441  -16.8790 C   0  0  0  0  0  0  0  0  0  0  0  0
   25.4407  -16.2425  -15.5886 C   0  0  0  0  0  0  0  0  0  0  0  0
   24.7421  -17.0520  -14.7126 C   0  0  0  0  0  0  0  0  0  0  0  0
   24.2630  -18.2746  -15.0928 C   0  0  0  0  0  0  0  0  0  0  0  0
   21.9937  -21.4540  -13.0479 C   0  0  0  0  0  0  0  0  0  0  0  0
   22.2706  -22.4580  -13.7156 O   0  0  0  0  0  0  0  0  0  0  0  0
   20.6649  -21.0838  -12.8672 O   0  0  0  0  0  0  0  0  0  0  0  0
  2  1  1  6
  3  2  1  0
  4  8  1  0
  4  3  1  0
  5  4  2  0
  6  2  1  0
  7  6  2  0
  9  6  1  0
 10 11  1  1
 10  9  1  0
 12 11  1  0
 13 12  2  0
 14 15  1  0
 14 13  1  0
 15 20  2  0
 16 15  1  0
 16 17  2  0
 17 18  1  0
 18 19  2  0
 20 12  1  0
 20 19  1  0
 21 22  2  0
 21 10  1  0
 23 21  1  0
 24 23  1  0
 24 25  1  6
 25 26  1  0
 26 27  2  0
 26 34  1  0
 27 28  1  0
 28 29  1  0
 29 30  2  0
 30 31  1  0
 32 31  2  0
 33 32  1  0
 34 33  2  0
 34 29  1  0
 35 37  1  0
 35 24  1  0
 36 35  2  0
M  END
$$$$
