DWW.pdb
     RDKit          3D

 37 40  0  0  1  0  0  0  0  0999 V2000
   28.6715  -22.1289  -15.8291 N   0  0  0  0  0  0  0  0  0  0  0  0
   27.9921  -21.0710  -15.0944 C   0  0  1  0  0  0  0  0  0  0  0  0
   27.1831  -20.3244  -16.1516 C   0  0  0  0  0  0  0  0  0  0  0  0
   28.0804  -19.6333  -17.1066 C   0  0  0  0  0  0  0  0  0  0  0  0
   29.1109  -19.0253  -16.7095 O   0  0  0  0  0  0  0  0  0  0  0  0
   27.1423  -21.6729  -14.0712 C   0  0  0  0  0  0  0  0  0  0  0  0
   26.3735  -22.5966  -14.3016 O   0  0  0  0  0  0  0  0  0  0  0  0
   27.8574  -19.6017  -18.4818 O   0  0  0  0  0  0  0  0  0  0  0  0
   27.1485  -21.2116  -12.6906 N   0  0  0  0  0  0  0  0  0  0  0  0
   26.3666  -21.8030  -11.6724 C   0  0  1  0  0  0  0  0  0  0  0  0
   27.0783  -22.0785  -10.3711 C   0  0  0  0  0  0  0  0  0  0  0  0
   26.8923  -20.9790   -9.3970 C   0  0  0  0  0  0  0  0  0  0  0  0
   25.9660  -19.9611   -9.4363 C   0  0  0  0  0  0  0  0  0  0  0  0
   26.1302  -19.1757   -8.3755 N   0  0  0  0  0  0  0  0  0  0  0  0
   27.1451  -19.6500   -7.6320 C   0  0  0  0  0  0  0  0  0  0  0  0
   27.6989  -19.1852   -6.4355 C   0  0  0  0  0  0  0  0  0  0  0  0
   28.7506  -19.9042   -5.9136 C   0  0  0  0  0  0  0  0  0  0  0  0
   29.2543  -21.0327   -6.5208 C   0  0  0  0  0  0  0  0  0  0  0  0
   28.7141  -21.4893   -7.6900 C   0  0  0  0  0  0  0  0  0  0  0  0
   27.6442  -20.7788   -8.2432 C   0  0  0  0  0  0  0  0  0  0  0  0
   25.0696  -21.0907  -11.4379 C   0  0  0  0  0  0  0  0  0  0  0  0
   24.9729  -19.9851  -10.8498 O   0  0  0  0  0  0  0  0  0  0  0  0
   23.8383  -21.6513  -11.8865 N   0  0  0  0  0  0  0  0  0  0  0  0
   22.7453  -20.8825  -12.4385 C   0  0  1  0  0  0  0  0  0  0  0  0
   22.8140  -20.8756  -13.9540 C   0  0  0  0  0  0  0  0  0  0  0  0
   21.7783  -20.0256  -14.5542 C   0  0  0  0  0  0  0  0  0  0  0  0
   21.5393  -18.6790  -14.2615 C   0  0  0  0  0  0  0  0  0  0  0  0
   20.5194  -18.2737  -15.0131 N   0  0  0  0  0  0  0  0  0  0  0  0
   20.0521  -19.2797  -15.8049 C   0  0  0  0  0  0  0  0  0  0  0  0
   19.0338  -19.3493  -16.7249 C   0  0  0  0  0  0  0  0  0  0  0  0
   18.7836  -20.5480  -17.3870 C   0  0  0  0  0  0  0  0  0  0  0  0
   19.5713  -21.6334  -17.0955 C   0  0  0  0  0  0  0  0  0  0  0  0
   20.5896  -21.5402  -16.1654 C   0  0  0  0  0  0  0  0  0  0  0  0
   20.8528  -20.3728  -15.5046 C   0  0  0  0  0  0  0  0  0  0  0  0
   21.4330  -21.4254  -11.9728 C   0  0  0  0  0  0  0  0  0  0  0  0
   20.5955  -20.6870  -11.4400 O   0  0  0  0  0  0  0  0  0  0  0  0
   21.1586  -22.7784  -12.1437 O   0  0  0  0  0  0  0  0  0  0  0  0
  2  1  1  6
  3  2  1  0
  4  8  1  0
  4  3  1  0
  5  4  2  0
  6  2  1  0
  7  6  2  0
  9  6  1  0
 10 11  1  1
 10  9  1  0
 12 11  1  0
 13 12  2  0
 14 15  1  0
 14 13  1  0
 15 20  2  0
 16 15  1  0
 16 17  2  0
 17 18  1  0
 18 19  2  0
 20 12  1  0
 20 19  1  0
 21 22  2  0
 21 10  1  0
 23 21  1  0
 24 23  1  0
 24 25  1  6
 25 26  1  0
 26 27  2  0
 26 34  1  0
 27 28  1  0
 28 29  1  0
 29 30  2  0
 30 31  1  0
 32 31  2  0
 33 32  1  0
 34 33  2  0
 34 29  1  0
 35 37  1  0
 35 24  1  0
 36 35  2  0
M  END
$$$$
