DWW.pdb
     RDKit          3D

 37 40  0  0  1  0  0  0  0  0999 V2000
   28.0593  -24.5024  -16.6479 N   0  0  0  0  0  0  0  0  0  0  0  0
   27.4174  -23.2983  -17.1567 C   0  0  1  0  0  0  0  0  0  0  0  0
   26.4202  -23.8020  -18.1966 C   0  0  0  0  0  0  0  0  0  0  0  0
   27.0981  -24.0687  -19.4866 C   0  0  0  0  0  0  0  0  0  0  0  0
   27.6754  -23.1459  -20.1226 O   0  0  0  0  0  0  0  0  0  0  0  0
   26.7612  -22.6060  -16.0515 C   0  0  0  0  0  0  0  0  0  0  0  0
   26.2936  -23.1895  -15.0828 O   0  0  0  0  0  0  0  0  0  0  0  0
   27.1458  -25.3281  -20.0811 O   0  0  0  0  0  0  0  0  0  0  0  0
   26.6144  -21.1581  -16.0235 N   0  0  0  0  0  0  0  0  0  0  0  0
   25.9980  -20.4621  -14.9589 C   0  0  1  0  0  0  0  0  0  0  0  0
   26.7351  -19.2478  -14.4512 C   0  0  0  0  0  0  0  0  0  0  0  0
   28.0290  -19.6082  -13.8281 C   0  0  0  0  0  0  0  0  0  0  0  0
   29.2863  -19.5328  -14.3843 C   0  0  0  0  0  0  0  0  0  0  0  0
   30.1851  -19.9526  -13.4982 N   0  0  0  0  0  0  0  0  0  0  0  0
   29.5524  -20.3047  -12.3654 C   0  0  0  0  0  0  0  0  0  0  0  0
   30.0479  -20.8011  -11.1561 C   0  0  0  0  0  0  0  0  0  0  0  0
   29.1279  -21.0702  -10.1679 C   0  0  0  0  0  0  0  0  0  0  0  0
   27.7761  -20.8695  -10.3354 C   0  0  0  0  0  0  0  0  0  0  0  0
   27.2894  -20.3838  -11.5163 C   0  0  0  0  0  0  0  0  0  0  0  0
   28.2013  -20.1010  -12.5381 C   0  0  0  0  0  0  0  0  0  0  0  0
   24.5558  -20.1491  -15.2172 C   0  0  0  0  0  0  0  0  0  0  0  0
   24.1498  -19.4651  -16.1892 O   0  0  0  0  0  0  0  0  0  0  0  0
   23.5376  -20.6291  -14.3430 N   0  0  0  0  0  0  0  0  0  0  0  0
   22.1245  -20.3825  -14.5239 C   0  0  1  0  0  0  0  0  0  0  0  0
   21.3173  -21.1361  -13.4836 C   0  0  0  0  0  0  0  0  0  0  0  0
   21.5722  -20.6499  -12.1219 C   0  0  0  0  0  0  0  0  0  0  0  0
   20.6987  -19.8914  -11.3359 C   0  0  0  0  0  0  0  0  0  0  0  0
   21.2992  -19.6543  -10.1729 N   0  0  0  0  0  0  0  0  0  0  0  0
   22.5402  -20.2157  -10.1282 C   0  0  0  0  0  0  0  0  0  0  0  0
   23.5216  -20.2396   -9.1668 C   0  0  0  0  0  0  0  0  0  0  0  0
   24.7183  -20.9044   -9.4196 C   0  0  0  0  0  0  0  0  0  0  0  0
   24.8802  -21.5212  -10.6349 C   0  0  0  0  0  0  0  0  0  0  0  0
   23.8793  -21.4831  -11.5875 C   0  0  0  0  0  0  0  0  0  0  0  0
   22.6965  -20.8367  -11.3596 C   0  0  0  0  0  0  0  0  0  0  0  0
   21.8336  -18.9181  -14.4573 C   0  0  0  0  0  0  0  0  0  0  0  0
   22.6645  -18.1280  -13.9926 O   0  0  0  0  0  0  0  0  0  0  0  0
   20.6114  -18.4464  -14.9251 O   0  0  0  0  0  0  0  0  0  0  0  0
  2  1  1  1
  3  2  1  0
  4  8  1  0
  4  3  1  0
  5  4  2  0
  6  2  1  0
  7  6  2  0
  9  6  1  0
 10 11  1  6
 10  9  1  0
 12 11  1  0
 13 12  2  0
 14 15  1  0
 14 13  1  0
 15 20  2  0
 16 15  1  0
 16 17  2  0
 17 18  1  0
 18 19  2  0
 20 12  1  0
 20 19  1  0
 21 22  2  0
 21 10  1  0
 23 21  1  0
 24 23  1  0
 24 25  1  1
 25 26  1  0
 26 27  2  0
 26 34  1  0
 27 28  1  0
 28 29  1  0
 29 30  2  0
 30 31  1  0
 32 31  2  0
 33 32  1  0
 34 33  2  0
 34 29  1  0
 35 37  1  0
 35 24  1  0
 36 35  2  0
M  END
$$$$
