DWW.pdb
     RDKit          3D

 37 40  0  0  1  0  0  0  0  0999 V2000
   30.7300  -22.5996  -19.2397 N   0  0  0  0  0  0  0  0  0  0  0  0
   29.7062  -23.1751  -18.3789 C   0  0  1  0  0  0  0  0  0  0  0  0
   30.3220  -24.4714  -17.8594 C   0  0  0  0  0  0  0  0  0  0  0  0
   30.0450  -25.5921  -18.7878 C   0  0  0  0  0  0  0  0  0  0  0  0
   29.4462  -25.4005  -19.8806 O   0  0  0  0  0  0  0  0  0  0  0  0
   29.4065  -22.2354  -17.3026 C   0  0  0  0  0  0  0  0  0  0  0  0
   30.2705  -21.6061  -16.7070 O   0  0  0  0  0  0  0  0  0  0  0  0
   30.4142  -26.9106  -18.5290 O   0  0  0  0  0  0  0  0  0  0  0  0
   28.0449  -21.9783  -16.8566 N   0  0  0  0  0  0  0  0  0  0  0  0
   27.7083  -20.9489  -15.9484 C   0  0  1  0  0  0  0  0  0  0  0  0
   27.3182  -19.6282  -16.5643 C   0  0  0  0  0  0  0  0  0  0  0  0
   26.8970  -18.6449  -15.5405 C   0  0  0  0  0  0  0  0  0  0  0  0
   27.6792  -18.0185  -14.5963 C   0  0  0  0  0  0  0  0  0  0  0  0
   26.9201  -17.2089  -13.8632 N   0  0  0  0  0  0  0  0  0  0  0  0
   25.6508  -17.2832  -14.3003 C   0  0  0  0  0  0  0  0  0  0  0  0
   24.4925  -16.6331  -13.8643 C   0  0  0  0  0  0  0  0  0  0  0  0
   23.3235  -16.9273  -14.5293 C   0  0  0  0  0  0  0  0  0  0  0  0
   23.2684  -17.8169  -15.5788 C   0  0  0  0  0  0  0  0  0  0  0  0
   24.3993  -18.4531  -16.0071 C   0  0  0  0  0  0  0  0  0  0  0  0
   25.6016  -18.1734  -15.3501 C   0  0  0  0  0  0  0  0  0  0  0  0
   26.7114  -21.3782  -14.9157 C   0  0  0  0  0  0  0  0  0  0  0  0
   25.6013  -21.8995  -15.1864 O   0  0  0  0  0  0  0  0  0  0  0  0
   26.9827  -21.2110  -13.5264 N   0  0  0  0  0  0  0  0  0  0  0  0
   26.0741  -21.5879  -12.4669 C   0  0  1  0  0  0  0  0  0  0  0  0
   26.8459  -22.0672  -11.2518 C   0  0  0  0  0  0  0  0  0  0  0  0
   26.6701  -21.1800  -10.0953 C   0  0  0  0  0  0  0  0  0  0  0  0
   25.4847  -20.5454   -9.7105 C   0  0  0  0  0  0  0  0  0  0  0  0
   25.7408  -19.8326   -8.6170 N   0  0  0  0  0  0  0  0  0  0  0  0
   27.0443  -19.9516   -8.2374 C   0  0  0  0  0  0  0  0  0  0  0  0
   27.7694  -19.4141   -7.2014 C   0  0  0  0  0  0  0  0  0  0  0  0
   29.1212  -19.7209   -7.0739 C   0  0  0  0  0  0  0  0  0  0  0  0
   29.6919  -20.5599   -7.9981 C   0  0  0  0  0  0  0  0  0  0  0  0
   28.9428  -21.0882   -9.0328 C   0  0  0  0  0  0  0  0  0  0  0  0
   27.6142  -20.8005   -9.1760 C   0  0  0  0  0  0  0  0  0  0  0  0
   25.1824  -20.4437  -12.1072 C   0  0  0  0  0  0  0  0  0  0  0  0
   25.5886  -19.2773  -12.1795 O   0  0  0  0  0  0  0  0  0  0  0  0
   23.8819  -20.7022  -11.6866 O   0  0  0  0  0  0  0  0  0  0  0  0
  2  1  1  6
  3  2  1  0
  4  8  1  0
  4  3  1  0
  5  4  2  0
  6  2  1  0
  7  6  2  0
  9  6  1  0
 10 11  1  6
 10  9  1  0
 12 11  1  0
 13 12  2  0
 14 15  1  0
 14 13  1  0
 15 20  2  0
 16 15  1  0
 16 17  2  0
 17 18  1  0
 18 19  2  0
 20 12  1  0
 20 19  1  0
 21 22  2  0
 21 10  1  0
 23 21  1  0
 24 23  1  0
 24 25  1  1
 25 26  1  0
 26 27  2  0
 26 34  1  0
 27 28  1  0
 28 29  1  0
 29 30  2  0
 30 31  1  0
 32 31  2  0
 33 32  1  0
 34 33  2  0
 34 29  1  0
 35 37  1  0
 35 24  1  0
 36 35  2  0
M  END
$$$$
