DWW.pdb
     RDKit          3D

 37 40  0  0  1  0  0  0  0  0999 V2000
   20.8027  -22.2718   -9.6033 N   0  0  0  0  0  0  0  0  0  0  0  0
   21.3746  -21.5677  -10.7425 C   0  0  1  0  0  0  0  0  0  0  0  0
   20.2166  -20.7550  -11.3155 C   0  0  0  0  0  0  0  0  0  0  0  0
   19.1285  -21.6475  -11.7781 C   0  0  0  0  0  0  0  0  0  0  0  0
   17.9646  -21.5572  -11.3022 O   0  0  0  0  0  0  0  0  0  0  0  0
   22.4681  -20.7197  -10.2773 C   0  0  0  0  0  0  0  0  0  0  0  0
   22.5620  -19.5344  -10.5662 O   0  0  0  0  0  0  0  0  0  0  0  0
   19.3052  -22.6316  -12.7487 O   0  0  0  0  0  0  0  0  0  0  0  0
   23.5355  -21.2294   -9.4289 N   0  0  0  0  0  0  0  0  0  0  0  0
   24.6315  -20.4434   -9.0059 C   0  0  1  0  0  0  0  0  0  0  0  0
   25.5120  -21.0568   -7.9457 C   0  0  0  0  0  0  0  0  0  0  0  0
   26.5052  -20.0895   -7.4258 C   0  0  0  0  0  0  0  0  0  0  0  0
   26.8659  -18.8748   -7.9645 C   0  0  0  0  0  0  0  0  0  0  0  0
   27.7945  -18.3115   -7.1967 N   0  0  0  0  0  0  0  0  0  0  0  0
   28.0581  -19.1251   -6.1593 C   0  0  0  0  0  0  0  0  0  0  0  0
   28.9457  -18.9854   -5.0884 C   0  0  0  0  0  0  0  0  0  0  0  0
   28.9849  -20.0121   -4.1720 C   0  0  0  0  0  0  0  0  0  0  0  0
   28.1977  -21.1365   -4.2804 C   0  0  0  0  0  0  0  0  0  0  0  0
   27.3288  -21.2751   -5.3260 C   0  0  0  0  0  0  0  0  0  0  0  0
   27.2675  -20.2473   -6.2723 C   0  0  0  0  0  0  0  0  0  0  0  0
   25.4477  -19.9110  -10.1438 C   0  0  0  0  0  0  0  0  0  0  0  0
   26.3776  -19.0774  -10.0102 O   0  0  0  0  0  0  0  0  0  0  0  0
   25.2015  -20.3392  -11.4808 N   0  0  0  0  0  0  0  0  0  0  0  0
   25.8102  -19.7483  -12.6516 C   0  0  1  0  0  0  0  0  0  0  0  0
   27.3057  -20.0033  -12.6576 C   0  0  0  0  0  0  0  0  0  0  0  0
   27.9579  -19.4611  -13.8561 C   0  0  0  0  0  0  0  0  0  0  0  0
   28.0677  -18.1099  -14.2001 C   0  0  0  0  0  0  0  0  0  0  0  0
   28.7240  -18.0357  -15.3547 N   0  0  0  0  0  0  0  0  0  0  0  0
   29.0675  -19.2720  -15.8140 C   0  0  0  0  0  0  0  0  0  0  0  0
   29.7319  -19.7007  -16.9378 C   0  0  0  0  0  0  0  0  0  0  0  0
   29.9305  -21.0631  -17.1437 C   0  0  0  0  0  0  0  0  0  0  0  0
   29.4505  -21.9434  -16.2065 C   0  0  0  0  0  0  0  0  0  0  0  0
   28.7841  -21.4890  -15.0838 C   0  0  0  0  0  0  0  0  0  0  0  0
   28.5790  -20.1559  -14.8620 C   0  0  0  0  0  0  0  0  0  0  0  0
   25.1796  -20.2812  -13.8974 C   0  0  0  0  0  0  0  0  0  0  0  0
   24.7310  -21.4335  -13.9371 O   0  0  0  0  0  0  0  0  0  0  0  0
   25.1010  -19.4653  -15.0214 O   0  0  0  0  0  0  0  0  0  0  0  0
  2  1  1  1
  3  2  1  0
  4  8  1  0
  4  3  1  0
  5  4  2  0
  6  2  1  0
  7  6  2  0
  9  6  1  0
 10 11  1  1
 10  9  1  0
 12 11  1  0
 13 12  2  0
 14 15  1  0
 14 13  1  0
 15 20  2  0
 16 15  1  0
 16 17  2  0
 17 18  1  0
 18 19  2  0
 20 12  1  0
 20 19  1  0
 21 22  2  0
 21 10  1  0
 23 21  1  0
 24 23  1  0
 24 25  1  6
 25 26  1  0
 26 27  2  0
 26 34  1  0
 27 28  1  0
 28 29  1  0
 29 30  2  0
 30 31  1  0
 32 31  2  0
 33 32  1  0
 34 33  2  0
 34 29  1  0
 35 37  1  0
 35 24  1  0
 36 35  2  0
M  END
$$$$
