DWW.pdb
     RDKit          3D

 37 40  0  0  1  0  0  0  0  0999 V2000
   28.2727  -26.6800  -17.4351 N   0  0  0  0  0  0  0  0  0  0  0  0
   27.3170  -25.6174  -17.7143 C   0  0  1  0  0  0  0  0  0  0  0  0
   25.9634  -26.3204  -17.7717 C   0  0  0  0  0  0  0  0  0  0  0  0
   25.1567  -25.8124  -18.9056 C   0  0  0  0  0  0  0  0  0  0  0  0
   25.5920  -24.8991  -19.6577 O   0  0  0  0  0  0  0  0  0  0  0  0
   27.3806  -24.6271  -16.6436 C   0  0  0  0  0  0  0  0  0  0  0  0
   27.3018  -24.9207  -15.4583 O   0  0  0  0  0  0  0  0  0  0  0  0
   23.8861  -26.2920  -19.2175 O   0  0  0  0  0  0  0  0  0  0  0  0
   27.5430  -23.2058  -16.9127 N   0  0  0  0  0  0  0  0  0  0  0  0
   27.6041  -22.2264  -15.8954 C   0  0  1  0  0  0  0  0  0  0  0  0
   28.3467  -20.9603  -16.2434 C   0  0  0  0  0  0  0  0  0  0  0  0
   28.2900  -19.9680  -15.1459 C   0  0  0  0  0  0  0  0  0  0  0  0
   28.8253  -20.0727  -13.8816 C   0  0  0  0  0  0  0  0  0  0  0  0
   28.5524  -18.9665  -13.1954 N   0  0  0  0  0  0  0  0  0  0  0  0
   27.8481  -18.1288  -13.9764 C   0  0  0  0  0  0  0  0  0  0  0  0
   27.3306  -16.8556  -13.7207 C   0  0  0  0  0  0  0  0  0  0  0  0
   26.6427  -16.2441  -14.7445 C   0  0  0  0  0  0  0  0  0  0  0  0
   26.4574  -16.8358  -15.9738 C   0  0  0  0  0  0  0  0  0  0  0  0
   26.9629  -18.0800  -16.2264 C   0  0  0  0  0  0  0  0  0  0  0  0
   27.6667  -18.7251  -15.2047 C   0  0  0  0  0  0  0  0  0  0  0  0
   26.2671  -21.9197  -15.2928 C   0  0  0  0  0  0  0  0  0  0  0  0
   25.3030  -21.4344  -15.9351 O   0  0  0  0  0  0  0  0  0  0  0  0
   26.0138  -22.1725  -13.9132 N   0  0  0  0  0  0  0  0  0  0  0  0
   24.7836  -21.8321  -13.2341 C   0  0  1  0  0  0  0  0  0  0  0  0
   24.8081  -22.3416  -11.8053 C   0  0  0  0  0  0  0  0  0  0  0  0
   25.1929  -21.2968  -10.8484 C   0  0  0  0  0  0  0  0  0  0  0  0
   24.3517  -20.3202  -10.3052 C   0  0  0  0  0  0  0  0  0  0  0  0
   25.0790  -19.5669   -9.4849 N   0  0  0  0  0  0  0  0  0  0  0  0
   26.3758  -19.9838   -9.4422 C   0  0  0  0  0  0  0  0  0  0  0  0
   27.4814  -19.5321   -8.7627 C   0  0  0  0  0  0  0  0  0  0  0  0
   28.7049  -20.1741   -8.9324 C   0  0  0  0  0  0  0  0  0  0  0  0
   28.7672  -21.2495   -9.7828 C   0  0  0  0  0  0  0  0  0  0  0  0
   27.6419  -21.6857  -10.4567 C   0  0  0  0  0  0  0  0  0  0  0  0
   26.4309  -21.0703  -10.3040 C   0  0  0  0  0  0  0  0  0  0  0  0
   24.5585  -20.3549  -13.2632 C   0  0  0  0  0  0  0  0  0  0  0  0
   25.5089  -19.5677  -13.1751 O   0  0  0  0  0  0  0  0  0  0  0  0
   23.2617  -19.8678  -13.3903 O   0  0  0  0  0  0  0  0  0  0  0  0
  2  1  1  1
  3  2  1  0
  4  8  1  0
  4  3  1  0
  5  4  2  0
  6  2  1  0
  7  6  2  0
  9  6  1  0
 10 11  1  6
 10  9  1  0
 12 11  1  0
 13 12  2  0
 14 15  1  0
 14 13  1  0
 15 20  2  0
 16 15  1  0
 16 17  2  0
 17 18  1  0
 18 19  2  0
 20 12  1  0
 20 19  1  0
 21 22  2  0
 21 10  1  0
 23 21  1  0
 24 23  1  0
 24 25  1  1
 25 26  1  0
 26 27  2  0
 26 34  1  0
 27 28  1  0
 28 29  1  0
 29 30  2  0
 30 31  1  0
 32 31  2  0
 33 32  1  0
 34 33  2  0
 34 29  1  0
 35 37  1  0
 35 24  1  0
 36 35  2  0
M  END
$$$$
