DWW.pdb
     RDKit          3D

 37 40  0  0  1  0  0  0  0  0999 V2000
   28.7031  -21.2382  -17.6818 N   0  0  0  0  0  0  0  0  0  0  0  0
   28.4617  -21.8845  -16.3995 C   0  0  1  0  0  0  0  0  0  0  0  0
   29.8530  -22.2094  -15.8625 C   0  0  0  0  0  0  0  0  0  0  0  0
   30.3662  -23.4634  -16.4613 C   0  0  0  0  0  0  0  0  0  0  0  0
   29.6814  -24.1156  -17.2950 O   0  0  0  0  0  0  0  0  0  0  0  0
   27.7355  -20.9624  -15.5314 C   0  0  0  0  0  0  0  0  0  0  0  0
   28.2408  -19.9524  -15.0603 O   0  0  0  0  0  0  0  0  0  0  0  0
   31.6129  -24.0049  -16.1542 O   0  0  0  0  0  0  0  0  0  0  0  0
   26.3452  -21.1816  -15.1602 N   0  0  0  0  0  0  0  0  0  0  0  0
   25.6388  -20.3408  -14.2704 C   0  0  1  0  0  0  0  0  0  0  0  0
   24.5325  -19.5166  -14.8807 C   0  0  0  0  0  0  0  0  0  0  0  0
   25.0277  -18.6551  -15.9785 C   0  0  0  0  0  0  0  0  0  0  0  0
   24.8538  -18.8271  -17.3335 C   0  0  0  0  0  0  0  0  0  0  0  0
   25.4565  -17.8356  -17.9837 N   0  0  0  0  0  0  0  0  0  0  0  0
   26.0265  -17.0083  -17.0902 C   0  0  0  0  0  0  0  0  0  0  0  0
   26.7659  -15.8356  -17.2698 C   0  0  0  0  0  0  0  0  0  0  0  0
   27.2218  -15.2049  -16.1341 C   0  0  0  0  0  0  0  0  0  0  0  0
   26.9759  -15.6847  -14.8672 C   0  0  0  0  0  0  0  0  0  0  0  0
   26.2528  -16.8304  -14.6890 C   0  0  0  0  0  0  0  0  0  0  0  0
   25.7766  -17.4922  -15.8251 C   0  0  0  0  0  0  0  0  0  0  0  0
   25.1658  -21.0518  -13.0394 C   0  0  0  0  0  0  0  0  0  0  0  0
   24.6958  -22.2165  -13.0390 O   0  0  0  0  0  0  0  0  0  0  0  0
   25.2284  -20.4203  -11.7631 N   0  0  0  0  0  0  0  0  0  0  0  0
   24.6698  -20.9749  -10.5504 C   0  0  1  0  0  0  0  0  0  0  0  0
   25.2738  -20.3021   -9.3322 C   0  0  0  0  0  0  0  0  0  0  0  0
   26.6671  -20.7063   -9.1068 C   0  0  0  0  0  0  0  0  0  0  0  0
   27.4654  -21.4515   -9.9805 C   0  0  0  0  0  0  0  0  0  0  0  0
   28.6577  -21.6058   -9.4115 N   0  0  0  0  0  0  0  0  0  0  0  0
   28.7108  -21.0005   -8.1916 C   0  0  0  0  0  0  0  0  0  0  0  0
   29.6997  -20.8918   -7.2438 C   0  0  0  0  0  0  0  0  0  0  0  0
   29.4489  -20.2006   -6.0618 C   0  0  0  0  0  0  0  0  0  0  0  0
   28.2076  -19.6440   -5.8799 C   0  0  0  0  0  0  0  0  0  0  0  0
   27.2276  -19.7670   -6.8471 C   0  0  0  0  0  0  0  0  0  0  0  0
   27.4531  -20.4408   -8.0149 C   0  0  0  0  0  0  0  0  0  0  0  0
   23.1817  -20.8359  -10.5457 C   0  0  0  0  0  0  0  0  0  0  0  0
   22.6142  -20.0755  -11.3396 O   0  0  0  0  0  0  0  0  0  0  0  0
   22.4336  -21.5736   -9.6339 O   0  0  0  0  0  0  0  0  0  0  0  0
  2  1  1  6
  3  2  1  0
  4  8  1  0
  4  3  1  0
  5  4  2  0
  6  2  1  0
  7  6  2  0
  9  6  1  0
 10 11  1  6
 10  9  1  0
 12 11  1  0
 13 12  2  0
 14 15  1  0
 14 13  1  0
 15 20  2  0
 16 15  1  0
 16 17  2  0
 17 18  1  0
 18 19  2  0
 20 12  1  0
 20 19  1  0
 21 22  2  0
 21 10  1  0
 23 21  1  0
 24 23  1  0
 24 25  1  1
 25 26  1  0
 26 27  2  0
 26 34  1  0
 27 28  1  0
 28 29  1  0
 29 30  2  0
 30 31  1  0
 32 31  2  0
 33 32  1  0
 34 33  2  0
 34 29  1  0
 35 37  1  0
 35 24  1  0
 36 35  2  0
M  END
$$$$
