DWW.pdb
     RDKit          3D

 37 40  0  0  1  0  0  0  0  0999 V2000
   28.4534  -22.3334  -15.7709 N   0  0  0  0  0  0  0  0  0  0  0  0
   28.3437  -20.8816  -15.7461 C   0  0  1  0  0  0  0  0  0  0  0  0
   28.0701  -20.4900  -17.1958 C   0  0  0  0  0  0  0  0  0  0  0  0
   28.9750  -21.2184  -18.1150 C   0  0  0  0  0  0  0  0  0  0  0  0
   30.2096  -20.9656  -18.1504 O   0  0  0  0  0  0  0  0  0  0  0  0
   27.2509  -20.5024  -14.8554 C   0  0  0  0  0  0  0  0  0  0  0  0
   26.8642  -19.3484  -14.7283 O   0  0  0  0  0  0  0  0  0  0  0  0
   28.5406  -22.2118  -18.9904 O   0  0  0  0  0  0  0  0  0  0  0  0
   26.5372  -21.4798  -14.0467 N   0  0  0  0  0  0  0  0  0  0  0  0
   25.5200  -21.1318  -13.1289 C   0  0  1  0  0  0  0  0  0  0  0  0
   24.1213  -21.5543  -13.5041 C   0  0  0  0  0  0  0  0  0  0  0  0
   23.5945  -20.7688  -14.6433 C   0  0  0  0  0  0  0  0  0  0  0  0
   24.0074  -20.8008  -15.9564 C   0  0  0  0  0  0  0  0  0  0  0  0
   23.2818  -19.9418  -16.6668 N   0  0  0  0  0  0  0  0  0  0  0  0
   22.3953  -19.3402  -15.8544 C   0  0  0  0  0  0  0  0  0  0  0  0
   21.4216  -18.3724  -16.1180 C   0  0  0  0  0  0  0  0  0  0  0  0
   20.6569  -17.9502  -15.0539 C   0  0  0  0  0  0  0  0  0  0  0  0
   20.8219  -18.4410  -13.7781 C   0  0  0  0  0  0  0  0  0  0  0  0
   21.7726  -19.3875  -13.5181 C   0  0  0  0  0  0  0  0  0  0  0  0
   22.5641  -19.8355  -14.5804 C   0  0  0  0  0  0  0  0  0  0  0  0
   25.8415  -21.5216  -11.7185 C   0  0  0  0  0  0  0  0  0  0  0  0
   26.2337  -22.6654  -11.3790 O   0  0  0  0  0  0  0  0  0  0  0  0
   25.7145  -20.5811  -10.6551 N   0  0  0  0  0  0  0  0  0  0  0  0
   25.7969  -20.9203   -9.2521 C   0  0  1  0  0  0  0  0  0  0  0  0
   26.4389  -19.7898   -8.4700 C   0  0  0  0  0  0  0  0  0  0  0  0
   27.8053  -20.1147   -8.0424 C   0  0  0  0  0  0  0  0  0  0  0  0
   28.7492  -20.8466   -8.7699 C   0  0  0  0  0  0  0  0  0  0  0  0
   29.8582  -20.9209   -8.0392 N   0  0  0  0  0  0  0  0  0  0  0  0
   29.7156  -20.2738   -6.8483 C   0  0  0  0  0  0  0  0  0  0  0  0
   30.5593  -20.0835   -5.7806 C   0  0  0  0  0  0  0  0  0  0  0  0
   30.1173  -19.3674   -4.6717 C   0  0  0  0  0  0  0  0  0  0  0  0
   28.8385  -18.8692   -4.6815 C   0  0  0  0  0  0  0  0  0  0  0  0
   28.0070  -19.0740   -5.7667 C   0  0  0  0  0  0  0  0  0  0  0  0
   28.4211  -19.7735   -6.8657 C   0  0  0  0  0  0  0  0  0  0  0  0
   24.4414  -21.2351   -8.7069 C   0  0  0  0  0  0  0  0  0  0  0  0
   24.3070  -21.6701   -7.5566 O   0  0  0  0  0  0  0  0  0  0  0  0
   23.3231  -21.0343   -9.5096 O   0  0  0  0  0  0  0  0  0  0  0  0
  2  1  1  6
  3  2  1  0
  4  8  1  0
  4  3  1  0
  5  4  2  0
  6  2  1  0
  7  6  2  0
  9  6  1  0
 10 11  1  6
 10  9  1  0
 12 11  1  0
 13 12  2  0
 14 15  1  0
 14 13  1  0
 15 20  2  0
 16 15  1  0
 16 17  2  0
 17 18  1  0
 18 19  2  0
 20 12  1  0
 20 19  1  0
 21 22  2  0
 21 10  1  0
 23 21  1  0
 24 23  1  0
 24 25  1  1
 25 26  1  0
 26 27  2  0
 26 34  1  0
 27 28  1  0
 28 29  1  0
 29 30  2  0
 30 31  1  0
 32 31  2  0
 33 32  1  0
 34 33  2  0
 34 29  1  0
 35 37  1  0
 35 24  1  0
 36 35  2  0
M  END
$$$$
