IEF.pdb
     RDKit          3D

 29 29  0  0  1  0  0  0  0  0999 V2000
   19.3864  -15.5108  -18.0383 C   0  0  0  0  0  0  0  0  0  0  0  0
   18.5500  -14.3888  -17.4720 C   0  0  0  0  0  0  0  0  0  0  0  0
   19.2681  -13.0439  -17.5108 C   0  0  2  0  0  0  0  0  0  0  0  0
   20.4984  -13.1465  -16.6532 C   0  0  0  0  0  0  0  0  0  0  0  0
   18.2845  -11.9983  -17.0374 C   0  0  2  0  0  0  0  0  0  0  0  0
   17.0924  -12.1329  -17.8615 N   0  0  0  0  0  0  0  0  0  0  0  0
   18.8282  -10.6248  -17.0949 C   0  0  0  0  0  0  0  0  0  0  0  0
   18.9884  -10.0866  -18.2218 O   0  0  0  0  0  0  0  0  0  0  0  0
   19.1837   -9.8661  -15.9389 N   0  0  0  0  0  0  0  0  0  0  0  0
   19.7414   -8.5449  -15.9917 C   0  0  1  0  0  0  0  0  0  0  0  0
   19.0705   -7.5885  -15.0159 C   0  0  0  0  0  0  0  0  0  0  0  0
   17.6824   -7.1815  -15.4519 C   0  0  0  0  0  0  0  0  0  0  0  0
   17.1741   -6.2392  -14.4301 C   0  0  0  0  0  0  0  0  0  0  0  0
   17.4040   -5.0048  -14.5549 O   0  0  0  0  0  0  0  0  0  0  0  0
   21.1784   -8.6087  -15.6209 C   0  0  0  0  0  0  0  0  0  0  0  0
   21.5576   -9.3513  -14.6577 O   0  0  0  0  0  0  0  0  0  0  0  0
   16.4413   -6.6260  -13.3003 O   0  0  0  0  0  0  0  0  0  0  0  0
   22.1780   -7.8692  -16.2984 N   0  0  0  0  0  0  0  0  0  0  0  0
   23.6072   -8.0526  -16.0698 C   0  0  1  0  0  0  0  0  0  0  0  0
   23.9459   -9.5067  -16.2451 C   0  0  0  0  0  0  0  0  0  0  0  0
   25.3765   -9.7893  -16.0465 C   0  0  0  0  0  0  0  0  0  0  0  0
   26.2432   -9.6277  -17.1170 C   0  0  0  0  0  0  0  0  0  0  0  0
   27.5808   -9.8788  -16.9220 C   0  0  0  0  0  0  0  0  0  0  0  0
   28.1234  -10.2804  -15.7354 C   0  0  0  0  0  0  0  0  0  0  0  0
   27.2646  -10.4445  -14.6566 C   0  0  0  0  0  0  0  0  0  0  0  0
   25.8998  -10.1939  -14.8386 C   0  0  0  0  0  0  0  0  0  0  0  0
   24.4111   -7.1846  -16.9231 C   0  0  0  0  0  0  0  0  0  0  0  0
   24.0988   -6.8078  -18.0554 O   0  0  0  0  0  0  0  0  0  0  0  0
   25.6519   -6.7304  -16.4254 O   0  0  0  0  0  0  0  0  0  0  0  0
  2  1  1  0
  2  3  1  0
  3  4  1  1
  5  3  1  0
  5  6  1  6
  7  5  1  0
  7  8  2  0
  9  7  1  0
 10 15  1  0
 10  9  1  0
 10 11  1  1
 12 11  1  0
 12 13  1  0
 13 14  2  0
 15 18  1  0
 16 15  2  0
 17 13  1  0
 18 19  1  0
 19 27  1  0
 20 21  1  0
 19 20  1  6
 21 26  2  0
 22 23  2  0
 22 21  1  0
 23 24  1  0
 24 25  2  0
 26 25  1  0
 27 28  2  0
 27 29  1  0
M  END
$$$$
