IEF.pdb
     RDKit          3D

 29 29  0  0  1  0  0  0  0  0999 V2000
   27.0680  -16.3706  -19.1912 C   0  0  0  0  0  0  0  0  0  0  0  0
   27.6216  -17.3098  -18.1469 C   0  0  0  0  0  0  0  0  0  0  0  0
   26.5341  -18.1239  -17.4538 C   0  0  2  0  0  0  0  0  0  0  0  0
   25.5725  -17.1652  -16.8089 C   0  0  0  0  0  0  0  0  0  0  0  0
   27.2223  -19.0446  -16.4721 C   0  0  2  0  0  0  0  0  0  0  0  0
   28.1168  -19.8952  -17.2432 N   0  0  0  0  0  0  0  0  0  0  0  0
   26.2747  -19.8457  -15.6687 C   0  0  0  0  0  0  0  0  0  0  0  0
   25.5471  -20.6879  -16.2574 O   0  0  0  0  0  0  0  0  0  0  0  0
   26.1358  -19.7209  -14.2532 N   0  0  0  0  0  0  0  0  0  0  0  0
   25.1632  -20.4391  -13.4802 C   0  0  1  0  0  0  0  0  0  0  0  0
   25.5812  -20.6070  -12.0262 C   0  0  0  0  0  0  0  0  0  0  0  0
   24.6339  -21.4824  -11.2394 C   0  0  0  0  0  0  0  0  0  0  0  0
   25.1741  -21.5659   -9.8640 C   0  0  0  0  0  0  0  0  0  0  0  0
   26.3982  -21.8190   -9.6921 O   0  0  0  0  0  0  0  0  0  0  0  0
   23.8854  -19.6815  -13.4815 C   0  0  0  0  0  0  0  0  0  0  0  0
   23.8894  -18.4216  -13.2930 O   0  0  0  0  0  0  0  0  0  0  0  0
   24.4060  -21.3855   -8.7062 O   0  0  0  0  0  0  0  0  0  0  0  0
   22.6283  -20.2999  -13.6869 N   0  0  0  0  0  0  0  0  0  0  0  0
   21.3616  -19.5770  -13.6510 C   0  0  1  0  0  0  0  0  0  0  0  0
   21.4143  -18.4520  -14.6466 C   0  0  0  0  0  0  0  0  0  0  0  0
   21.5160  -18.9224  -16.0374 C   0  0  0  0  0  0  0  0  0  0  0  0
   22.7420  -18.8425  -16.6806 C   0  0  0  0  0  0  0  0  0  0  0  0
   22.8348  -19.2971  -17.9748 C   0  0  0  0  0  0  0  0  0  0  0  0
   21.7938  -19.8283  -18.6804 C   0  0  0  0  0  0  0  0  0  0  0  0
   20.5618  -19.9138  -18.0455 C   0  0  0  0  0  0  0  0  0  0  0  0
   20.4501  -19.4544  -16.7282 C   0  0  0  0  0  0  0  0  0  0  0  0
   20.2228  -20.4624  -13.8678 C   0  0  0  0  0  0  0  0  0  0  0  0
   19.0399  -20.1133  -13.8867 O   0  0  0  0  0  0  0  0  0  0  0  0
   20.4801  -21.8352  -14.0742 O   0  0  0  0  0  0  0  0  0  0  0  0
  2  1  1  0
  2  3  1  0
  3  4  1  1
  5  3  1  0
  5  6  1  6
  7  5  1  0
  7  8  2  0
  9  7  1  0
 10 15  1  0
 10  9  1  0
 10 11  1  1
 12 11  1  0
 12 13  1  0
 13 14  2  0
 15 18  1  0
 16 15  2  0
 17 13  1  0
 18 19  1  0
 19 27  1  0
 20 21  1  0
 19 20  1  6
 21 26  2  0
 22 23  2  0
 22 21  1  0
 23 24  1  0
 24 25  2  0
 26 25  1  0
 27 28  2  0
 27 29  1  0
M  END
$$$$
