IEF.pdb
     RDKit          3D

 29 29  0  0  1  0  0  0  0  0999 V2000
   19.7497  -22.8560  -13.9543 C   0  0  0  0  0  0  0  0  0  0  0  0
   20.3234  -21.4938  -13.6470 C   0  0  0  0  0  0  0  0  0  0  0  0
   19.8342  -20.9378  -12.3138 C   0  0  2  0  0  0  0  0  0  0  0  0
   18.5428  -20.2082  -12.5579 C   0  0  0  0  0  0  0  0  0  0  0  0
   20.9340  -20.0570  -11.7665 C   0  0  2  0  0  0  0  0  0  0  0  0
   21.1158  -18.9669  -12.7135 N   0  0  0  0  0  0  0  0  0  0  0  0
   22.1983  -20.7873  -11.5348 C   0  0  0  0  0  0  0  0  0  0  0  0
   22.2073  -21.7258  -10.6955 O   0  0  0  0  0  0  0  0  0  0  0  0
   23.4189  -20.4899  -12.2130 N   0  0  0  0  0  0  0  0  0  0  0  0
   24.6650  -21.1467  -11.9388 C   0  0  1  0  0  0  0  0  0  0  0  0
   25.6144  -21.1181  -13.1283 C   0  0  0  0  0  0  0  0  0  0  0  0
   26.9223  -21.8229  -12.8538 C   0  0  0  0  0  0  0  0  0  0  0  0
   27.7659  -21.6386  -14.0559 C   0  0  0  0  0  0  0  0  0  0  0  0
   29.0177  -21.7659  -13.9613 O   0  0  0  0  0  0  0  0  0  0  0  0
   25.3473  -20.4473  -10.8199 C   0  0  0  0  0  0  0  0  0  0  0  0
   25.1322  -19.2085  -10.6147 O   0  0  0  0  0  0  0  0  0  0  0  0
   27.2656  -21.3191  -15.3250 O   0  0  0  0  0  0  0  0  0  0  0  0
   26.2482  -21.1001   -9.9441 N   0  0  0  0  0  0  0  0  0  0  0  0
   27.1849  -20.3907   -9.0794 C   0  0  1  0  0  0  0  0  0  0  0  0
   26.4730  -19.9850   -7.8191 C   0  0  0  0  0  0  0  0  0  0  0  0
   27.3906  -19.7565   -6.6913 C   0  0  0  0  0  0  0  0  0  0  0  0
   27.5982  -18.4574   -6.2529 C   0  0  0  0  0  0  0  0  0  0  0  0
   28.4449  -18.2511   -5.1895 C   0  0  0  0  0  0  0  0  0  0  0  0
   29.1034  -19.2459   -4.5259 C   0  0  0  0  0  0  0  0  0  0  0  0
   28.9020  -20.5507   -4.9561 C   0  0  0  0  0  0  0  0  0  0  0  0
   28.0438  -20.7779   -6.0382 C   0  0  0  0  0  0  0  0  0  0  0  0
   28.3850  -21.1768   -8.8152 C   0  0  0  0  0  0  0  0  0  0  0  0
   28.4924  -22.3943   -8.9816 O   0  0  0  0  0  0  0  0  0  0  0  0
   29.5257  -20.5022   -8.3284 O   0  0  0  0  0  0  0  0  0  0  0  0
  2  1  1  0
  2  3  1  0
  3  4  1  6
  5  3  1  0
  5  6  1  6
  7  5  1  0
  7  8  2  0
  9  7  1  0
 10 15  1  0
 10  9  1  0
 10 11  1  6
 12 11  1  0
 12 13  1  0
 13 14  2  0
 15 18  1  0
 16 15  2  0
 17 13  1  0
 18 19  1  0
 19 27  1  0
 20 21  1  0
 19 20  1  1
 21 26  2  0
 22 23  2  0
 22 21  1  0
 23 24  1  0
 24 25  2  0
 26 25  1  0
 27 28  2  0
 27 29  1  0
M  END
$$$$
