IEF.pdb
     RDKit          3D

 29 29  0  0  1  0  0  0  0  0999 V2000
   26.7753  -13.8767  -15.8768 C   0  0  0  0  0  0  0  0  0  0  0  0
   25.2666  -13.8811  -15.9319 C   0  0  0  0  0  0  0  0  0  0  0  0
   24.6803  -12.4809  -16.0790 C   0  0  2  0  0  0  0  0  0  0  0  0
   25.0773  -11.6792  -14.8710 C   0  0  0  0  0  0  0  0  0  0  0  0
   23.1853  -12.6369  -16.2387 C   0  0  2  0  0  0  0  0  0  0  0  0
   22.9703  -13.5585  -17.3445 N   0  0  0  0  0  0  0  0  0  0  0  0
   22.4906  -11.3517  -16.4642 C   0  0  0  0  0  0  0  0  0  0  0  0
   22.6950  -10.7374  -17.5441 O   0  0  0  0  0  0  0  0  0  0  0  0
   21.5934  -10.7620  -15.5232 N   0  0  0  0  0  0  0  0  0  0  0  0
   20.9431   -9.4986  -15.7237 C   0  0  1  0  0  0  0  0  0  0  0  0
   19.5240   -9.4783  -15.1736 C   0  0  0  0  0  0  0  0  0  0  0  0
   18.8650   -8.1243  -15.2965 C   0  0  0  0  0  0  0  0  0  0  0  0
   17.7271   -8.1170  -14.3501 C   0  0  0  0  0  0  0  0  0  0  0  0
   17.0187   -7.0788  -14.2390 O   0  0  0  0  0  0  0  0  0  0  0  0
   21.7030   -8.4418  -15.0079 C   0  0  0  0  0  0  0  0  0  0  0  0
   22.6602   -8.7591  -14.2293 O   0  0  0  0  0  0  0  0  0  0  0  0
   17.3710   -9.2045  -13.5416 O   0  0  0  0  0  0  0  0  0  0  0  0
   21.4143   -7.0627  -15.1476 N   0  0  0  0  0  0  0  0  0  0  0  0
   22.4414   -6.0381  -15.3019 C   0  0  1  0  0  0  0  0  0  0  0  0
   23.4465   -6.5048  -16.3176 C   0  0  0  0  0  0  0  0  0  0  0  0
   24.5472   -5.5482  -16.5154 C   0  0  0  0  0  0  0  0  0  0  0  0
   24.8296   -4.6385  -15.5076 C   0  0  0  0  0  0  0  0  0  0  0  0
   25.8686   -3.7569  -15.6915 C   0  0  0  0  0  0  0  0  0  0  0  0
   26.6518   -3.7129  -16.8087 C   0  0  0  0  0  0  0  0  0  0  0  0
   26.3783   -4.6201  -17.8238 C   0  0  0  0  0  0  0  0  0  0  0  0
   25.3233   -5.5237  -17.6528 C   0  0  0  0  0  0  0  0  0  0  0  0
   21.8689   -4.7391  -15.6379 C   0  0  0  0  0  0  0  0  0  0  0  0
   21.2076   -4.4898  -16.6489 O   0  0  0  0  0  0  0  0  0  0  0  0
   22.0813   -3.6691  -14.7416 O   0  0  0  0  0  0  0  0  0  0  0  0
  2  1  1  0
  2  3  1  0
  3  4  1  1
  5  3  1  0
  5  6  1  6
  7  5  1  0
  7  8  2  0
  9  7  1  0
 10 15  1  0
 10  9  1  0
 10 11  1  1
 12 11  1  0
 12 13  1  0
 13 14  2  0
 15 18  1  0
 16 15  2  0
 17 13  1  0
 18 19  1  0
 19 27  1  0
 20 21  1  0
 19 20  1  6
 21 26  2  0
 22 23  2  0
 22 21  1  0
 23 24  1  0
 24 25  2  0
 26 25  1  0
 27 28  2  0
 27 29  1  0
M  END
$$$$
