IEF.pdb
     RDKit          3D

 29 29  0  0  1  0  0  0  0  0999 V2000
   23.4257  -23.2960  -23.5579 C   0  0  0  0  0  0  0  0  0  0  0  0
   22.5088  -22.8461  -22.4461 C   0  0  0  0  0  0  0  0  0  0  0  0
   23.2000  -21.9149  -21.4556 C   0  0  2  0  0  0  0  0  0  0  0  0
   23.9023  -22.7614  -20.4310 C   0  0  0  0  0  0  0  0  0  0  0  0
   22.1358  -21.0142  -20.8716 C   0  0  2  0  0  0  0  0  0  0  0  0
   21.6985  -20.1265  -21.9389 N   0  0  0  0  0  0  0  0  0  0  0  0
   22.6047  -20.2530  -19.6944 C   0  0  0  0  0  0  0  0  0  0  0  0
   23.8417  -20.0682  -19.5497 O   0  0  0  0  0  0  0  0  0  0  0  0
   21.7309  -19.7094  -18.7049 N   0  0  0  0  0  0  0  0  0  0  0  0
   22.1752  -18.9055  -17.6023 C   0  0  1  0  0  0  0  0  0  0  0  0
   21.1416  -17.8708  -17.1802 C   0  0  0  0  0  0  0  0  0  0  0  0
   19.8150  -18.4860  -16.8002 C   0  0  0  0  0  0  0  0  0  0  0  0
   18.7654  -17.6718  -17.4528 C   0  0  0  0  0  0  0  0  0  0  0  0
   18.4873  -17.8748  -18.6666 O   0  0  0  0  0  0  0  0  0  0  0  0
   22.4186  -19.7824  -16.4283 C   0  0  0  0  0  0  0  0  0  0  0  0
   21.7454  -20.8538  -16.2804 O   0  0  0  0  0  0  0  0  0  0  0  0
   18.0412  -16.6607  -16.8076 O   0  0  0  0  0  0  0  0  0  0  0  0
   23.3849  -19.4848  -15.4371 N   0  0  0  0  0  0  0  0  0  0  0  0
   23.5834  -20.2941  -14.2395 C   0  0  1  0  0  0  0  0  0  0  0  0
   24.8021  -19.7978  -13.5127 C   0  0  0  0  0  0  0  0  0  0  0  0
   25.0346  -20.4988  -12.2397 C   0  0  0  0  0  0  0  0  0  0  0  0
   24.5126  -19.9571  -11.0748 C   0  0  0  0  0  0  0  0  0  0  0  0
   24.7202  -20.6238   -9.8904 C   0  0  0  0  0  0  0  0  0  0  0  0
   25.4116  -21.7956   -9.7780 C   0  0  0  0  0  0  0  0  0  0  0  0
   25.9379  -22.3473  -10.9385 C   0  0  0  0  0  0  0  0  0  0  0  0
   25.7364  -21.6805  -12.1524 C   0  0  0  0  0  0  0  0  0  0  0  0
   22.3963  -20.3132  -13.3920 C   0  0  0  0  0  0  0  0  0  0  0  0
   22.0003  -21.2819  -12.7389 O   0  0  0  0  0  0  0  0  0  0  0  0
   21.6267  -19.1330  -13.3022 O   0  0  0  0  0  0  0  0  0  0  0  0
  2  1  1  0
  2  3  1  0
  3  4  1  1
  5  3  1  0
  5  6  1  6
  7  5  1  0
  7  8  2  0
  9  7  1  0
 10 15  1  0
 10  9  1  0
 10 11  1  1
 12 11  1  0
 12 13  1  0
 13 14  2  0
 15 18  1  0
 16 15  2  0
 17 13  1  0
 18 19  1  0
 19 27  1  0
 20 21  1  0
 19 20  1  1
 21 26  2  0
 22 23  2  0
 22 21  1  0
 23 24  1  0
 24 25  2  0
 26 25  1  0
 27 28  2  0
 27 29  1  0
M  END
$$$$
