IEF.pdb
     RDKit          3D

 29 29  0  0  1  0  0  0  0  0999 V2000
   29.8969  -28.1851  -18.8346 C   0  0  0  0  0  0  0  0  0  0  0  0
   29.1845  -29.0384  -17.8131 C   0  0  0  0  0  0  0  0  0  0  0  0
   27.6902  -29.1627  -18.0912 C   0  0  2  0  0  0  0  0  0  0  0  0
   27.0758  -27.7970  -17.9609 C   0  0  0  0  0  0  0  0  0  0  0  0
   27.1360  -30.1727  -17.1126 C   0  0  2  0  0  0  0  0  0  0  0  0
   27.8259  -31.4295  -17.3632 N   0  0  0  0  0  0  0  0  0  0  0  0
   25.6699  -30.3321  -17.2142 C   0  0  0  0  0  0  0  0  0  0  0  0
   25.2092  -31.1510  -18.0524 O   0  0  0  0  0  0  0  0  0  0  0  0
   24.7381  -29.6079  -16.4107 N   0  0  0  0  0  0  0  0  0  0  0  0
   23.3142  -29.7571  -16.5089 C   0  0  1  0  0  0  0  0  0  0  0  0
   22.8399  -31.1353  -16.0703 C   0  0  0  0  0  0  0  0  0  0  0  0
   21.3523  -31.3297  -16.2494 C   0  0  0  0  0  0  0  0  0  0  0  0
   20.8844  -32.1257  -15.0927 C   0  0  0  0  0  0  0  0  0  0  0  0
   21.0441  -33.3773  -15.0950 O   0  0  0  0  0  0  0  0  0  0  0  0
   22.6590  -28.7664  -15.6169 C   0  0  0  0  0  0  0  0  0  0  0  0
   22.8267  -28.8328  -14.3558 O   0  0  0  0  0  0  0  0  0  0  0  0
   20.2549  -31.5794  -13.9665 O   0  0  0  0  0  0  0  0  0  0  0  0
   21.8357  -27.7229  -16.1049 N   0  0  0  0  0  0  0  0  0  0  0  0
   21.1959  -26.7343  -15.2436 C   0  0  1  0  0  0  0  0  0  0  0  0
   21.6284  -25.3605  -15.6741 C   0  0  0  0  0  0  0  0  0  0  0  0
   23.0875  -25.1760  -15.6192 C   0  0  0  0  0  0  0  0  0  0  0  0
   23.6533  -24.6760  -14.4560 C   0  0  0  0  0  0  0  0  0  0  0  0
   25.0183  -24.5196  -14.4049 C   0  0  0  0  0  0  0  0  0  0  0  0
   25.8668  -24.8255  -15.4296 C   0  0  0  0  0  0  0  0  0  0  0  0
   25.3109  -25.3277  -16.5987 C   0  0  0  0  0  0  0  0  0  0  0  0
   23.9227  -25.4920  -16.6675 C   0  0  0  0  0  0  0  0  0  0  0  0
   19.7450  -26.8839  -15.2267 C   0  0  0  0  0  0  0  0  0  0  0  0
   18.9729  -26.2775  -14.4799 O   0  0  0  0  0  0  0  0  0  0  0  0
   19.1618  -27.7947  -16.1343 O   0  0  0  0  0  0  0  0  0  0  0  0
  2  1  1  0
  2  3  1  0
  3  4  1  1
  5  3  1  0
  5  6  1  6
  7  5  1  0
  7  8  2  0
  9  7  1  0
 10 15  1  0
 10  9  1  0
 10 11  1  1
 12 11  1  0
 12 13  1  0
 13 14  2  0
 15 18  1  0
 16 15  2  0
 17 13  1  0
 18 19  1  0
 19 27  1  0
 20 21  1  0
 19 20  1  6
 21 26  2  0
 22 23  2  0
 22 21  1  0
 23 24  1  0
 24 25  2  0
 26 25  1  0
 27 28  2  0
 27 29  1  0
M  END
$$$$
