IEF.pdb
     RDKit          3D

 29 29  0  0  1  0  0  0  0  0999 V2000
   20.0961  -31.4723  -10.0816 C   0  0  0  0  0  0  0  0  0  0  0  0
   20.1076  -30.1603  -10.8286 C   0  0  0  0  0  0  0  0  0  0  0  0
   19.7851  -28.9706   -9.9306 C   0  0  2  0  0  0  0  0  0  0  0  0
   18.4142  -29.1813   -9.3508 C   0  0  0  0  0  0  0  0  0  0  0  0
   19.8993  -27.7256  -10.7801 C   0  0  2  0  0  0  0  0  0  0  0  0
   21.2963  -27.6044  -11.1701 N   0  0  0  0  0  0  0  0  0  0  0  0
   19.4242  -26.5083  -10.0889 C   0  0  0  0  0  0  0  0  0  0  0  0
   20.1575  -25.9919   -9.2052 O   0  0  0  0  0  0  0  0  0  0  0  0
   18.1740  -25.8778  -10.3675 N   0  0  0  0  0  0  0  0  0  0  0  0
   17.7522  -24.6427   -9.7706 C   0  0  1  0  0  0  0  0  0  0  0  0
   17.3398  -23.6052  -10.8051 C   0  0  0  0  0  0  0  0  0  0  0  0
   16.9441  -22.2842  -10.1877 C   0  0  0  0  0  0  0  0  0  0  0  0
   16.5468  -21.3950  -11.3021 C   0  0  0  0  0  0  0  0  0  0  0  0
   17.4121  -21.0328  -12.1460 O   0  0  0  0  0  0  0  0  0  0  0  0
   16.5668  -24.8974   -8.9124 C   0  0  0  0  0  0  0  0  0  0  0  0
   15.7098  -25.7771   -9.2510 O   0  0  0  0  0  0  0  0  0  0  0  0
   15.2473  -20.9071  -11.4926 O   0  0  0  0  0  0  0  0  0  0  0  0
   16.3308  -24.1972   -7.7046 N   0  0  0  0  0  0  0  0  0  0  0  0
   15.1827  -24.4494   -6.8404 C   0  0  1  0  0  0  0  0  0  0  0  0
   15.6495  -24.4995   -5.4124 C   0  0  0  0  0  0  0  0  0  0  0  0
   16.4619  -25.6906   -5.1169 C   0  0  0  0  0  0  0  0  0  0  0  0
   17.8238  -25.5340   -4.9077 C   0  0  0  0  0  0  0  0  0  0  0  0
   18.5754  -26.6481   -4.6174 C   0  0  0  0  0  0  0  0  0  0  0  0
   18.0706  -27.9126   -4.5187 C   0  0  0  0  0  0  0  0  0  0  0  0
   16.7079  -28.0806   -4.7255 C   0  0  0  0  0  0  0  0  0  0  0  0
   15.9286  -26.9568   -5.0230 C   0  0  0  0  0  0  0  0  0  0  0  0
   14.1201  -23.4717   -7.0472 C   0  0  0  0  0  0  0  0  0  0  0  0
   14.1456  -22.5519   -7.8687 O   0  0  0  0  0  0  0  0  0  0  0  0
   12.9605  -23.5739   -6.2483 O   0  0  0  0  0  0  0  0  0  0  0  0
  2  1  1  0
  2  3  1  0
  3  4  1  6
  5  3  1  0
  5  6  1  1
  7  5  1  0
  7  8  2  0
  9  7  1  0
 10 15  1  0
 10  9  1  0
 10 11  1  6
 12 11  1  0
 12 13  1  0
 13 14  2  0
 15 18  1  0
 16 15  2  0
 17 13  1  0
 18 19  1  0
 19 27  1  0
 20 21  1  0
 19 20  1  1
 21 26  2  0
 22 23  2  0
 22 21  1  0
 23 24  1  0
 24 25  2  0
 26 25  1  0
 27 28  2  0
 27 29  1  0
M  END
$$$$
