IEF.pdb
     RDKit          3D

 29 29  0  0  1  0  0  0  0  0999 V2000
   15.7794    1.3143  -17.4431 C   0  0  0  0  0  0  0  0  0  0  0  0
   15.6573    0.0096  -18.1927 C   0  0  0  0  0  0  0  0  0  0  0  0
   15.6206   -1.1998  -17.2642 C   0  0  2  0  0  0  0  0  0  0  0  0
   16.9569   -1.3072  -16.5843 C   0  0  0  0  0  0  0  0  0  0  0  0
   15.2726   -2.4027  -18.1108 C   0  0  2  0  0  0  0  0  0  0  0  0
   13.9426   -2.1692  -18.6538 N   0  0  0  0  0  0  0  0  0  0  0  0
   15.3337   -3.6750  -17.3606 C   0  0  0  0  0  0  0  0  0  0  0  0
   14.3283   -4.0283  -16.6901 O   0  0  0  0  0  0  0  0  0  0  0  0
   16.4738   -4.5343  -17.3526 N   0  0  0  0  0  0  0  0  0  0  0  0
   16.5330   -5.7755  -16.6347 C   0  0  1  0  0  0  0  0  0  0  0  0
   15.7547   -6.8868  -17.3247 C   0  0  0  0  0  0  0  0  0  0  0  0
   15.7865   -8.1894  -16.5598 C   0  0  0  0  0  0  0  0  0  0  0  0
   15.0770   -9.1883  -17.3900 C   0  0  0  0  0  0  0  0  0  0  0  0
   15.5646   -9.5300  -18.5024 O   0  0  0  0  0  0  0  0  0  0  0  0
   17.9474   -6.2214  -16.5507 C   0  0  0  0  0  0  0  0  0  0  0  0
   18.7271   -6.0649  -17.5459 O   0  0  0  0  0  0  0  0  0  0  0  0
   13.8680   -9.7957  -17.0259 O   0  0  0  0  0  0  0  0  0  0  0  0
   18.4921   -6.8274  -15.3926 N   0  0  0  0  0  0  0  0  0  0  0  0
   19.7375   -7.5873  -15.3933 C   0  0  1  0  0  0  0  0  0  0  0  0
   20.5186   -7.2435  -14.1558 C   0  0  0  0  0  0  0  0  0  0  0  0
   21.6672   -8.1372  -13.9368 C   0  0  0  0  0  0  0  0  0  0  0  0
   22.8268   -7.9244  -14.6670 C   0  0  0  0  0  0  0  0  0  0  0  0
   23.9017   -8.7530  -14.4477 C   0  0  0  0  0  0  0  0  0  0  0  0
   23.9094   -9.7827  -13.5514 C   0  0  0  0  0  0  0  0  0  0  0  0
   22.7537  -10.0042  -12.8143 C   0  0  0  0  0  0  0  0  0  0  0  0
   21.6499   -9.1701  -13.0261 C   0  0  0  0  0  0  0  0  0  0  0  0
   19.5010   -9.0207  -15.5248 C   0  0  0  0  0  0  0  0  0  0  0  0
   18.6145   -9.6545  -14.9468 O   0  0  0  0  0  0  0  0  0  0  0  0
   20.3490   -9.7568  -16.3807 O   0  0  0  0  0  0  0  0  0  0  0  0
  2  1  1  0
  2  3  1  0
  3  4  1  6
  5  3  1  0
  5  6  1  1
  7  5  1  0
  7  8  2  0
  9  7  1  0
 10 15  1  0
 10  9  1  0
 10 11  1  6
 12 11  1  0
 12 13  1  0
 13 14  2  0
 15 18  1  0
 16 15  2  0
 17 13  1  0
 18 19  1  0
 19 27  1  0
 20 21  1  0
 19 20  1  1
 21 26  2  0
 22 23  2  0
 22 21  1  0
 23 24  1  0
 24 25  2  0
 26 25  1  0
 27 28  2  0
 27 29  1  0
M  END
$$$$
