IEF.pdb
     RDKit          3D

 29 29  0  0  1  0  0  0  0  0999 V2000
   23.0268  -14.7704  -18.5954 C   0  0  0  0  0  0  0  0  0  0  0  0
   23.3678  -13.6919  -17.5955 C   0  0  0  0  0  0  0  0  0  0  0  0
   22.5958  -12.3995  -17.8398 C   0  0  2  0  0  0  0  0  0  0  0  0
   22.9344  -11.9069  -19.2191 C   0  0  0  0  0  0  0  0  0  0  0  0
   22.9792  -11.4354  -16.7405 C   0  0  2  0  0  0  0  0  0  0  0  0
   22.8045  -12.1392  -15.4786 N   0  0  0  0  0  0  0  0  0  0  0  0
   22.1968  -10.1815  -16.7722 C   0  0  0  0  0  0  0  0  0  0  0  0
   22.3527   -9.3981  -17.7454 O   0  0  0  0  0  0  0  0  0  0  0  0
   21.2664   -9.8043  -15.7571 N   0  0  0  0  0  0  0  0  0  0  0  0
   20.4539   -8.6230  -15.8182 C   0  0  1  0  0  0  0  0  0  0  0  0
   18.9968   -8.8981  -15.4744 C   0  0  0  0  0  0  0  0  0  0  0  0
   18.1447   -7.6504  -15.4840 C   0  0  0  0  0  0  0  0  0  0  0  0
   16.7613   -8.0770  -15.1765 C   0  0  0  0  0  0  0  0  0  0  0  0
   16.3781   -8.1223  -13.9752 O   0  0  0  0  0  0  0  0  0  0  0  0
   20.9562   -7.6358  -14.8284 C   0  0  0  0  0  0  0  0  0  0  0  0
   21.4398   -8.0328  -13.7186 O   0  0  0  0  0  0  0  0  0  0  0  0
   15.8207   -8.4502  -16.1456 O   0  0  0  0  0  0  0  0  0  0  0  0
   20.9269   -6.2387  -15.0571 N   0  0  0  0  0  0  0  0  0  0  0  0
   21.5187   -5.2629  -14.1483 C   0  0  1  0  0  0  0  0  0  0  0  0
   22.9501   -5.6428  -13.8905 C   0  0  0  0  0  0  0  0  0  0  0  0
   23.7911   -5.5574  -15.0952 C   0  0  0  0  0  0  0  0  0  0  0  0
   24.1924   -4.3071  -15.5413 C   0  0  0  0  0  0  0  0  0  0  0  0
   24.9903   -4.2340  -16.6586 C   0  0  0  0  0  0  0  0  0  0  0  0
   25.4213   -5.3173  -17.3686 C   0  0  0  0  0  0  0  0  0  0  0  0
   25.0260   -6.5742  -16.9302 C   0  0  0  0  0  0  0  0  0  0  0  0
   24.2128   -6.6660  -15.7948 C   0  0  0  0  0  0  0  0  0  0  0  0
   21.3838   -3.8997  -14.6497 C   0  0  0  0  0  0  0  0  0  0  0  0
   21.7164   -2.8789  -14.0423 O   0  0  0  0  0  0  0  0  0  0  0  0
   20.8280   -3.7179  -15.9348 O   0  0  0  0  0  0  0  0  0  0  0  0
  2  1  1  0
  2  3  1  0
  3  4  1  6
  5  3  1  0
  5  6  1  1
  7  5  1  0
  7  8  2  0
  9  7  1  0
 10 15  1  0
 10  9  1  0
 10 11  1  1
 12 11  1  0
 12 13  1  0
 13 14  2  0
 15 18  1  0
 16 15  2  0
 17 13  1  0
 18 19  1  0
 19 27  1  0
 20 21  1  0
 19 20  1  6
 21 26  2  0
 22 23  2  0
 22 21  1  0
 23 24  1  0
 24 25  2  0
 26 25  1  0
 27 28  2  0
 27 29  1  0
M  END
$$$$
