IEF.pdb
     RDKit          3D

 29 29  0  0  1  0  0  0  0  0999 V2000
   16.3620   -8.4671  -23.0968 C   0  0  0  0  0  0  0  0  0  0  0  0
   16.3232   -9.5795  -22.0768 C   0  0  0  0  0  0  0  0  0  0  0  0
   16.5265   -9.0766  -20.6515 C   0  0  2  0  0  0  0  0  0  0  0  0
   17.9486   -8.6072  -20.5204 C   0  0  0  0  0  0  0  0  0  0  0  0
   16.1758  -10.2154  -19.7215 C   0  0  2  0  0  0  0  0  0  0  0  0
   14.7864  -10.5628  -19.9809 N   0  0  0  0  0  0  0  0  0  0  0  0
   16.3930   -9.8863  -18.2967 C   0  0  0  0  0  0  0  0  0  0  0  0
   15.5491   -9.1585  -17.7108 O   0  0  0  0  0  0  0  0  0  0  0  0
   17.5111  -10.3499  -17.5396 N   0  0  0  0  0  0  0  0  0  0  0  0
   17.7134  -10.0518  -16.1505 C   0  0  1  0  0  0  0  0  0  0  0  0
   17.7268  -11.3012  -15.2811 C   0  0  0  0  0  0  0  0  0  0  0  0
   16.3696  -11.9561  -15.1718 C   0  0  0  0  0  0  0  0  0  0  0  0
   16.5699  -13.2339  -14.4523 C   0  0  0  0  0  0  0  0  0  0  0  0
   17.0723  -14.2176  -15.0621 O   0  0  0  0  0  0  0  0  0  0  0  0
   19.0326   -9.3899  -15.9825 C   0  0  0  0  0  0  0  0  0  0  0  0
   19.9492   -9.5622  -16.8504 O   0  0  0  0  0  0  0  0  0  0  0  0
   16.2290  -13.4406  -13.1091 O   0  0  0  0  0  0  0  0  0  0  0  0
   19.3356   -8.5542  -14.8804 N   0  0  0  0  0  0  0  0  0  0  0  0
   20.6119   -7.8658  -14.7206 C   0  0  1  0  0  0  0  0  0  0  0  0
   20.8794   -7.0440  -15.9505 C   0  0  0  0  0  0  0  0  0  0  0  0
   22.1045   -6.2355  -15.8437 C   0  0  0  0  0  0  0  0  0  0  0  0
   23.2932   -6.7581  -16.3304 C   0  0  0  0  0  0  0  0  0  0  0  0
   24.4317   -5.9925  -16.2415 C   0  0  0  0  0  0  0  0  0  0  0  0
   24.4761   -4.7392  -15.7021 C   0  0  0  0  0  0  0  0  0  0  0  0
   23.2912   -4.2058  -15.2125 C   0  0  0  0  0  0  0  0  0  0  0  0
   22.1233   -4.9727  -15.2945 C   0  0  0  0  0  0  0  0  0  0  0  0
   20.6532   -7.0717  -13.4977 C   0  0  0  0  0  0  0  0  0  0  0  0
   19.7268   -6.3846  -13.0604 O   0  0  0  0  0  0  0  0  0  0  0  0
   21.8456   -7.0802  -12.7417 O   0  0  0  0  0  0  0  0  0  0  0  0
  2  1  1  0
  2  3  1  0
  3  4  1  6
  5  3  1  0
  5  6  1  1
  7  5  1  0
  7  8  2  0
  9  7  1  0
 10 15  1  0
 10  9  1  0
 10 11  1  1
 12 11  1  0
 12 13  1  0
 13 14  2  0
 15 18  1  0
 16 15  2  0
 17 13  1  0
 18 19  1  0
 19 27  1  0
 20 21  1  0
 19 20  1  6
 21 26  2  0
 22 23  2  0
 22 21  1  0
 23 24  1  0
 24 25  2  0
 26 25  1  0
 27 28  2  0
 27 29  1  0
M  END
$$$$
