IEF.pdb
     RDKit          3D

 29 29  0  0  1  0  0  0  0  0999 V2000
   28.7415  -17.0086  -16.3010 C   0  0  0  0  0  0  0  0  0  0  0  0
   27.4498  -16.3617  -15.8623 C   0  0  0  0  0  0  0  0  0  0  0  0
   26.8193  -17.0631  -14.6638 C   0  0  2  0  0  0  0  0  0  0  0  0
   27.7464  -16.9072  -13.4907 C   0  0  0  0  0  0  0  0  0  0  0  0
   26.5820  -18.5018  -15.0620 C   0  0  2  0  0  0  0  0  0  0  0  0
   25.8647  -18.4791  -16.3281 N   0  0  0  0  0  0  0  0  0  0  0  0
   25.8446  -19.2712  -14.0375 C   0  0  0  0  0  0  0  0  0  0  0  0
   24.6530  -18.9518  -13.7855 O   0  0  0  0  0  0  0  0  0  0  0  0
   26.4076  -20.3646  -13.3124 N   0  0  0  0  0  0  0  0  0  0  0  0
   25.6753  -21.1559  -12.3652 C   0  0  1  0  0  0  0  0  0  0  0  0
   25.5805  -22.6185  -12.7756 C   0  0  0  0  0  0  0  0  0  0  0  0
   24.8458  -22.8165  -14.0810 C   0  0  0  0  0  0  0  0  0  0  0  0
   23.4035  -22.6654  -13.7853 C   0  0  0  0  0  0  0  0  0  0  0  0
   22.7715  -21.6833  -14.2628 O   0  0  0  0  0  0  0  0  0  0  0  0
   26.3740  -21.1154  -11.0549 C   0  0  0  0  0  0  0  0  0  0  0  0
   27.6453  -21.0451  -11.0104 O   0  0  0  0  0  0  0  0  0  0  0  0
   22.6681  -23.5525  -12.9882 O   0  0  0  0  0  0  0  0  0  0  0  0
   25.6855  -21.1512   -9.8181 N   0  0  0  0  0  0  0  0  0  0  0  0
   26.3577  -21.1399   -8.5234 C   0  0  1  0  0  0  0  0  0  0  0  0
   27.2651  -19.9433   -8.4560 C   0  0  0  0  0  0  0  0  0  0  0  0
   27.9139  -19.7899   -7.1439 C   0  0  0  0  0  0  0  0  0  0  0  0
   27.5447  -18.7236   -6.3378 C   0  0  0  0  0  0  0  0  0  0  0  0
   28.1433  -18.5935   -5.1069 C   0  0  0  0  0  0  0  0  0  0  0  0
   29.0862  -19.4495   -4.6154 C   0  0  0  0  0  0  0  0  0  0  0  0
   29.4627  -20.5212   -5.4141 C   0  0  0  0  0  0  0  0  0  0  0  0
   28.8636  -20.6676   -6.6705 C   0  0  0  0  0  0  0  0  0  0  0  0
   25.4088  -21.1850   -7.4164 C   0  0  0  0  0  0  0  0  0  0  0  0
   24.2925  -20.6600   -7.4106 O   0  0  0  0  0  0  0  0  0  0  0  0
   25.7851  -21.8833   -6.2485 O   0  0  0  0  0  0  0  0  0  0  0  0
  2  1  1  0
  2  3  1  0
  3  4  1  1
  5  3  1  0
  5  6  1  6
  7  5  1  0
  7  8  2  0
  9  7  1  0
 10 15  1  0
 10  9  1  0
 10 11  1  6
 12 11  1  0
 12 13  1  0
 13 14  2  0
 15 18  1  0
 16 15  2  0
 17 13  1  0
 18 19  1  0
 19 27  1  0
 20 21  1  0
 19 20  1  1
 21 26  2  0
 22 23  2  0
 22 21  1  0
 23 24  1  0
 24 25  2  0
 26 25  1  0
 27 28  2  0
 27 29  1  0
M  END
$$$$
