IEF.pdb
     RDKit          3D

 29 29  0  0  1  0  0  0  0  0999 V2000
   13.3467   -5.3579   -6.4649 C   0  0  0  0  0  0  0  0  0  0  0  0
   13.1537   -6.1850   -7.7130 C   0  0  0  0  0  0  0  0  0  0  0  0
   14.4741   -6.6367   -8.3281 C   0  0  2  0  0  0  0  0  0  0  0  0
   15.2738   -5.4105   -8.6696 C   0  0  0  0  0  0  0  0  0  0  0  0
   14.1385   -7.4949   -9.5264 C   0  0  2  0  0  0  0  0  0  0  0  0
   13.4833   -8.6922   -9.0209 N   0  0  0  0  0  0  0  0  0  0  0  0
   15.3217   -7.8320  -10.3458 C   0  0  0  0  0  0  0  0  0  0  0  0
   16.0183   -8.8282  -10.0175 O   0  0  0  0  0  0  0  0  0  0  0  0
   15.7236   -7.0900  -11.4974 N   0  0  0  0  0  0  0  0  0  0  0  0
   16.7852   -7.4916  -12.3754 C   0  0  1  0  0  0  0  0  0  0  0  0
   16.2900   -7.8270  -13.7751 C   0  0  0  0  0  0  0  0  0  0  0  0
   17.4063   -8.2145  -14.7167 C   0  0  0  0  0  0  0  0  0  0  0  0
   16.7701   -8.5973  -15.9970 C   0  0  0  0  0  0  0  0  0  0  0  0
   15.7130   -9.2860  -15.9835 O   0  0  0  0  0  0  0  0  0  0  0  0
   17.7526   -6.3726  -12.5121 C   0  0  0  0  0  0  0  0  0  0  0  0
   17.3449   -5.1664  -12.4686 O   0  0  0  0  0  0  0  0  0  0  0  0
   17.2704   -8.2474  -17.2581 O   0  0  0  0  0  0  0  0  0  0  0  0
   19.1418   -6.5786  -12.6923 N   0  0  0  0  0  0  0  0  0  0  0  0
   20.0998   -5.4919  -12.8650 C   0  0  1  0  0  0  0  0  0  0  0  0
   21.4384   -5.9352  -12.3441 C   0  0  0  0  0  0  0  0  0  0  0  0
   21.9487   -7.1361  -13.0249 C   0  0  0  0  0  0  0  0  0  0  0  0
   22.5734   -6.9911  -14.2544 C   0  0  0  0  0  0  0  0  0  0  0  0
   23.0615   -8.1145  -14.8791 C   0  0  0  0  0  0  0  0  0  0  0  0
   22.9743   -9.3777  -14.3690 C   0  0  0  0  0  0  0  0  0  0  0  0
   22.3514   -9.5342  -13.1379 C   0  0  0  0  0  0  0  0  0  0  0  0
   21.8482   -8.4007  -12.4892 C   0  0  0  0  0  0  0  0  0  0  0  0
   20.1619   -5.0351  -14.2490 C   0  0  0  0  0  0  0  0  0  0  0  0
   20.7810   -4.0455  -14.6476 O   0  0  0  0  0  0  0  0  0  0  0  0
   19.4600   -5.7768  -15.2241 O   0  0  0  0  0  0  0  0  0  0  0  0
  2  1  1  0
  2  3  1  0
  3  4  1  6
  5  3  1  0
  5  6  1  1
  7  5  1  0
  7  8  2  0
  9  7  1  0
 10 15  1  0
 10  9  1  0
 10 11  1  6
 12 11  1  0
 12 13  1  0
 13 14  2  0
 15 18  1  0
 16 15  2  0
 17 13  1  0
 18 19  1  0
 19 27  1  0
 20 21  1  0
 19 20  1  6
 21 26  2  0
 22 23  2  0
 22 21  1  0
 23 24  1  0
 24 25  2  0
 26 25  1  0
 27 28  2  0
 27 29  1  0
M  END
$$$$
