IEF.pdb
     RDKit          3D

 29 29  0  0  1  0  0  0  0  0999 V2000
   30.7786  -21.6173  -12.5244 C   0  0  0  0  0  0  0  0  0  0  0  0
   29.4118  -21.3985  -13.1269 C   0  0  0  0  0  0  0  0  0  0  0  0
   29.3847  -20.2371  -14.1149 C   0  0  2  0  0  0  0  0  0  0  0  0
   30.0114  -19.0435  -13.4498 C   0  0  0  0  0  0  0  0  0  0  0  0
   27.9422  -20.0218  -14.5121 C   0  0  2  0  0  0  0  0  0  0  0  0
   27.9315  -18.9710  -15.5191 N   0  0  0  0  0  0  0  0  0  0  0  0
   27.0717  -19.6811  -13.3670 C   0  0  0  0  0  0  0  0  0  0  0  0
   27.0572  -18.4918  -12.9538 O   0  0  0  0  0  0  0  0  0  0  0  0
   26.2388  -20.6279  -12.6976 N   0  0  0  0  0  0  0  0  0  0  0  0
   25.3381  -20.2872  -11.6337 C   0  0  1  0  0  0  0  0  0  0  0  0
   23.8816  -20.5352  -11.9996 C   0  0  0  0  0  0  0  0  0  0  0  0
   22.9260  -20.1758  -10.8858 C   0  0  0  0  0  0  0  0  0  0  0  0
   21.7582  -21.0751  -11.0197 C   0  0  0  0  0  0  0  0  0  0  0  0
   20.7915  -20.9611  -10.2168 O   0  0  0  0  0  0  0  0  0  0  0  0
   25.6405  -21.1336  -10.4510 C   0  0  0  0  0  0  0  0  0  0  0  0
   26.5150  -22.0564  -10.5323 O   0  0  0  0  0  0  0  0  0  0  0  0
   21.6446  -22.0750  -11.9946 O   0  0  0  0  0  0  0  0  0  0  0  0
   24.9924  -20.9662   -9.2032 N   0  0  0  0  0  0  0  0  0  0  0  0
   25.6793  -21.0706   -7.9204 C   0  0  1  0  0  0  0  0  0  0  0  0
   26.7876  -20.0559   -7.8772 C   0  0  0  0  0  0  0  0  0  0  0  0
   27.4783  -20.0172   -6.5783 C   0  0  0  0  0  0  0  0  0  0  0  0
   27.9665  -18.8035   -6.1182 C   0  0  0  0  0  0  0  0  0  0  0  0
   28.5978  -18.7704   -4.8973 C   0  0  0  0  0  0  0  0  0  0  0  0
   28.7803  -19.8602   -4.0956 C   0  0  0  0  0  0  0  0  0  0  0  0
   28.2945  -21.0805   -4.5462 C   0  0  0  0  0  0  0  0  0  0  0  0
   27.6501  -21.1315   -5.7875 C   0  0  0  0  0  0  0  0  0  0  0  0
   24.7580  -20.9403   -6.7969 C   0  0  0  0  0  0  0  0  0  0  0  0
   23.9343  -20.0339   -6.6500 O   0  0  0  0  0  0  0  0  0  0  0  0
   24.8012  -21.9253   -5.7864 O   0  0  0  0  0  0  0  0  0  0  0  0
  2  1  1  0
  2  3  1  0
  3  4  1  1
  5  3  1  0
  5  6  1  6
  7  5  1  0
  7  8  2  0
  9  7  1  0
 10 15  1  0
 10  9  1  0
 10 11  1  6
 12 11  1  0
 12 13  1  0
 13 14  2  0
 15 18  1  0
 16 15  2  0
 17 13  1  0
 18 19  1  0
 19 27  1  0
 20 21  1  0
 19 20  1  1
 21 26  2  0
 22 23  2  0
 22 21  1  0
 23 24  1  0
 24 25  2  0
 26 25  1  0
 27 28  2  0
 27 29  1  0
M  END
$$$$
