IEF.pdb
     RDKit          3D

 29 29  0  0  1  0  0  0  0  0999 V2000
   27.2677  -16.7238  -18.2838 C   0  0  0  0  0  0  0  0  0  0  0  0
   26.1487  -15.9074  -18.8842 C   0  0  0  0  0  0  0  0  0  0  0  0
   24.8110  -16.1460  -18.1918 C   0  0  2  0  0  0  0  0  0  0  0  0
   24.5791  -17.6296  -18.1225 C   0  0  0  0  0  0  0  0  0  0  0  0
   23.7590  -15.4043  -18.9843 C   0  0  2  0  0  0  0  0  0  0  0  0
   24.1582  -14.0050  -19.0143 N   0  0  0  0  0  0  0  0  0  0  0  0
   22.3977  -15.5655  -18.4311 C   0  0  0  0  0  0  0  0  0  0  0  0
   22.1532  -15.1010  -17.2866 O   0  0  0  0  0  0  0  0  0  0  0  0
   21.3350  -16.2204  -19.1240 N   0  0  0  0  0  0  0  0  0  0  0  0
   20.0467  -16.4802  -18.5476 C   0  0  1  0  0  0  0  0  0  0  0  0
   18.9720  -16.7120  -19.6003 C   0  0  0  0  0  0  0  0  0  0  0  0
   18.4175  -15.4261  -20.1676 C   0  0  0  0  0  0  0  0  0  0  0  0
   18.5632  -15.5115  -21.6380 C   0  0  0  0  0  0  0  0  0  0  0  0
   18.4286  -16.6273  -22.2114 O   0  0  0  0  0  0  0  0  0  0  0  0
   20.1227  -17.7137  -17.7234 C   0  0  0  0  0  0  0  0  0  0  0  0
   21.1918  -18.4063  -17.7068 O   0  0  0  0  0  0  0  0  0  0  0  0
   18.8529  -14.4170  -22.4633 O   0  0  0  0  0  0  0  0  0  0  0  0
   19.0422  -18.1746  -16.9329 N   0  0  0  0  0  0  0  0  0  0  0  0
   19.1164  -19.3567  -16.0811 C   0  0  1  0  0  0  0  0  0  0  0  0
   20.1563  -19.1281  -15.0200 C   0  0  0  0  0  0  0  0  0  0  0  0
   19.7893  -18.0570  -14.0799 C   0  0  0  0  0  0  0  0  0  0  0  0
   18.9372  -18.3561  -13.0274 C   0  0  0  0  0  0  0  0  0  0  0  0
   18.6095  -17.3552  -12.1436 C   0  0  0  0  0  0  0  0  0  0  0  0
   19.0689  -16.0725  -12.2289 C   0  0  0  0  0  0  0  0  0  0  0  0
   19.9235  -15.7622  -13.2784 C   0  0  0  0  0  0  0  0  0  0  0  0
   20.2663  -16.7696  -14.1876 C   0  0  0  0  0  0  0  0  0  0  0  0
   17.8155  -19.7081  -15.5224 C   0  0  0  0  0  0  0  0  0  0  0  0
   16.7873  -19.0349  -15.6279 O   0  0  0  0  0  0  0  0  0  0  0  0
   17.7091  -20.9156  -14.7985 O   0  0  0  0  0  0  0  0  0  0  0  0
  2  1  1  0
  2  3  1  0
  3  4  1  6
  5  3  1  0
  5  6  1  1
  7  5  1  0
  7  8  2  0
  9  7  1  0
 10 15  1  0
 10  9  1  0
 10 11  1  6
 12 11  1  0
 12 13  1  0
 13 14  2  0
 15 18  1  0
 16 15  2  0
 17 13  1  0
 18 19  1  0
 19 27  1  0
 20 21  1  0
 19 20  1  1
 21 26  2  0
 22 23  2  0
 22 21  1  0
 23 24  1  0
 24 25  2  0
 26 25  1  0
 27 28  2  0
 27 29  1  0
M  END
$$$$
