KNY.pdb
     RDKit          3D

 30 30  0  0  1  0  0  0  0  0999 V2000
   19.5604  -12.2587  -17.8943 N   0  0  0  0  0  0  0  0  0  0  0  0
   20.9893  -12.0034  -17.9571 C   0  0  1  0  0  0  0  0  0  0  0  0
   21.4845  -12.4900  -19.2555 C   0  0  0  0  0  0  0  0  0  0  0  0
   21.3143  -13.8767  -19.6865 C   0  0  0  0  0  0  0  0  0  0  0  0
   20.0231  -14.3888  -20.1779 C   0  0  0  0  0  0  0  0  0  0  0  0
   20.0249  -15.8267  -20.5534 C   0  0  0  0  0  0  0  0  0  0  0  0
   21.2488  -16.1240  -21.3059 N   0  0  0  0  0  0  0  0  0  0  0  0
   21.0801  -10.4747  -17.9343 C   0  0  0  0  0  0  0  0  0  0  0  0
   22.1657   -9.9176  -18.0698 O   0  0  0  0  0  0  0  0  0  0  0  0
   18.5680   -6.4690  -20.6021 N   0  0  0  0  0  0  0  0  0  0  0  0
   18.8561   -7.6638  -19.8913 C   0  0  0  0  0  0  0  0  0  0  0  0
   19.3533   -8.6269  -20.5297 O   0  0  0  0  0  0  0  0  0  0  0  0
   18.5920   -7.8137  -18.4295 C   0  0  0  0  0  0  0  0  0  0  0  0
   19.8640   -8.2880  -17.7154 C   0  0  2  0  0  0  0  0  0  0  0  0
   19.9118   -9.7124  -17.7570 N   0  0  0  0  0  0  0  0  0  0  0  0
   19.8289   -7.7223  -16.3666 C   0  0  0  0  0  0  0  0  0  0  0  0
   18.8822   -8.0168  -15.5972 O   0  0  0  0  0  0  0  0  0  0  0  0
   26.4021   -4.6903  -17.2055 O   0  0  0  0  0  0  0  0  0  0  0  0
   25.3620   -5.1593  -16.4019 C   0  0  0  0  0  0  0  0  0  0  0  0
   24.7048   -4.2777  -15.5927 C   0  0  0  0  0  0  0  0  0  0  0  0
   23.6839   -4.6664  -14.7856 C   0  0  0  0  0  0  0  0  0  0  0  0
   23.2952   -5.9887  -14.7786 C   0  0  0  0  0  0  0  0  0  0  0  0
   22.1742   -6.3827  -13.8881 C   0  0  0  0  0  0  0  0  0  0  0  0
   20.8248   -6.2526  -14.5596 C   0  0  2  0  0  0  0  0  0  0  0  0
   20.8306   -6.8442  -15.8831 N   0  0  0  0  0  0  0  0  0  0  0  0
   20.4707   -4.8191  -14.7018 C   0  0  0  0  0  0  0  0  0  0  0  0
   20.2807   -4.2337  -15.9433 O   0  0  0  0  0  0  0  0  0  0  0  0
   23.9442   -6.9037  -15.5892 C   0  0  0  0  0  0  0  0  0  0  0  0
   24.9811   -6.4836  -16.4025 C   0  0  0  0  0  0  0  0  0  0  0  0
   20.3243   -4.0591  -13.6967 O   0  0  0  0  0  0  0  0  0  0  0  0
  2  3  1  0
  2  1  1  6
  4  5  1  0
  4  3  1  0
  6  5  1  0
  7  6  1  0
  8 15  1  0
  8  2  1  0
  9  8  2  0
 11 10  1  0
 11 12  2  0
 13 11  1  0
 14 13  1  6
 14 15  1  0
 16 14  1  0
 17 16  2  0
 19 20  2  0
 19 18  1  0
 21 20  1  0
 22 21  2  0
 24 23  1  6
 23 22  1  0
 24 25  1  0
 25 16  1  0
 26 27  1  0
 26 24  1  0
 28 22  1  0
 28 29  2  0
 29 19  1  0
 30 26  2  0
M  END
$$$$
