KNY.pdb
     RDKit          3D

 30 30  0  0  1  0  0  0  0  0999 V2000
   25.7474  -10.7041  -16.0404 N   0  0  0  0  0  0  0  0  0  0  0  0
   25.0389   -9.8473  -16.9757 C   0  0  1  0  0  0  0  0  0  0  0  0
   24.5180  -10.6905  -18.0644 C   0  0  0  0  0  0  0  0  0  0  0  0
   23.8867  -11.9856  -17.8158 C   0  0  0  0  0  0  0  0  0  0  0  0
   23.3522  -12.8163  -18.9090 C   0  0  0  0  0  0  0  0  0  0  0  0
   22.7308  -14.0943  -18.4741 C   0  0  0  0  0  0  0  0  0  0  0  0
   22.2388  -14.8140  -19.6542 N   0  0  0  0  0  0  0  0  0  0  0  0
   23.8606   -9.3181  -16.1527 C   0  0  0  0  0  0  0  0  0  0  0  0
   22.9902  -10.0865  -15.7539 O   0  0  0  0  0  0  0  0  0  0  0  0
   20.7412   -5.9254  -13.7611 N   0  0  0  0  0  0  0  0  0  0  0  0
   22.0164   -5.3177  -13.9039 C   0  0  0  0  0  0  0  0  0  0  0  0
   22.1981   -4.1918  -13.3731 O   0  0  0  0  0  0  0  0  0  0  0  0
   23.1352   -5.9621  -14.6536 C   0  0  0  0  0  0  0  0  0  0  0  0
   22.6733   -7.3086  -15.2246 C   0  0  2  0  0  0  0  0  0  0  0  0
   23.7815   -7.9457  -15.8564 N   0  0  0  0  0  0  0  0  0  0  0  0
   21.5476   -7.0276  -16.1158 C   0  0  0  0  0  0  0  0  0  0  0  0
   21.7382   -6.3589  -17.1605 O   0  0  0  0  0  0  0  0  0  0  0  0
   17.3118  -12.9590  -14.5519 O   0  0  0  0  0  0  0  0  0  0  0  0
   17.7311  -11.8617  -15.3053 C   0  0  0  0  0  0  0  0  0  0  0  0
   16.8173  -10.9046  -15.6412 C   0  0  0  0  0  0  0  0  0  0  0  0
   17.1571   -9.8114  -16.3722 C   0  0  0  0  0  0  0  0  0  0  0  0
   18.4615   -9.6580  -16.7903 C   0  0  0  0  0  0  0  0  0  0  0  0
   18.8031   -8.4514  -17.5852 C   0  0  0  0  0  0  0  0  0  0  0  0
   19.0967   -7.2473  -16.7175 C   0  0  2  0  0  0  0  0  0  0  0  0
   20.2327   -7.4832  -15.8482 N   0  0  0  0  0  0  0  0  0  0  0  0
   17.9225   -6.9459  -15.8627 C   0  0  0  0  0  0  0  0  0  0  0  0
   16.6921   -6.6096  -16.4043 O   0  0  0  0  0  0  0  0  0  0  0  0
   19.4083  -10.6133  -16.4637 C   0  0  0  0  0  0  0  0  0  0  0  0
   19.0378  -11.7179  -15.7183 C   0  0  0  0  0  0  0  0  0  0  0  0
   17.9854   -6.9806  -14.5961 O   0  0  0  0  0  0  0  0  0  0  0  0
  2  3  1  0
  2  1  1  1
  4  5  1  0
  4  3  1  0
  6  5  1  0
  7  6  1  0
  8 15  1  0
  8  2  1  0
  9  8  2  0
 11 10  1  0
 11 12  2  0
 13 11  1  0
 14 13  1  6
 14 15  1  0
 16 14  1  0
 17 16  2  0
 19 20  2  0
 19 18  1  0
 21 20  1  0
 22 21  2  0
 24 23  1  1
 23 22  1  0
 24 25  1  0
 25 16  1  0
 26 27  1  0
 26 24  1  0
 28 22  1  0
 28 29  2  0
 29 19  1  0
 30 26  2  0
M  END
$$$$
