KNY.pdb
     RDKit          3D

 30 30  0  0  1  0  0  0  0  0999 V2000
   13.1705  -16.5876  -16.1151 N   0  0  0  0  0  0  0  0  0  0  0  0
   14.3860  -15.8570  -15.7995 C   0  0  1  0  0  0  0  0  0  0  0  0
   15.3694  -16.1240  -16.8621 C   0  0  0  0  0  0  0  0  0  0  0  0
   15.9851  -17.4376  -17.0446 C   0  0  0  0  0  0  0  0  0  0  0  0
   17.2881  -17.7788  -16.4477 C   0  0  0  0  0  0  0  0  0  0  0  0
   18.3348  -18.1802  -17.4233 C   0  0  0  0  0  0  0  0  0  0  0  0
   19.3567  -17.1296  -17.4893 N   0  0  0  0  0  0  0  0  0  0  0  0
   13.9528  -14.3903  -15.8834 C   0  0  0  0  0  0  0  0  0  0  0  0
   12.8637  -14.0938  -16.3662 O   0  0  0  0  0  0  0  0  0  0  0  0
   12.4545   -9.6113  -13.3990 N   0  0  0  0  0  0  0  0  0  0  0  0
   12.9694  -10.2668  -14.5484 C   0  0  0  0  0  0  0  0  0  0  0  0
   13.1741   -9.5776  -15.5806 O   0  0  0  0  0  0  0  0  0  0  0  0
   13.2723  -11.7285  -14.5728 C   0  0  0  0  0  0  0  0  0  0  0  0
   14.5231  -11.9881  -15.4219 C   0  0  2  0  0  0  0  0  0  0  0  0
   14.8107  -13.3845  -15.4037 N   0  0  0  0  0  0  0  0  0  0  0  0
   15.5871  -11.1435  -14.8787 C   0  0  0  0  0  0  0  0  0  0  0  0
   15.8573  -11.2005  -13.6544 O   0  0  0  0  0  0  0  0  0  0  0  0
   19.1835  -15.2801  -17.0724 O   0  0  0  0  0  0  0  0  0  0  0  0
   19.0931  -13.9287  -16.7358 C   0  0  0  0  0  0  0  0  0  0  0  0
   18.5811  -13.0541  -17.6507 C   0  0  0  0  0  0  0  0  0  0  0  0
   18.4647  -11.7265  -17.3889 C   0  0  0  0  0  0  0  0  0  0  0  0
   18.8738  -11.2415  -16.1653 C   0  0  0  0  0  0  0  0  0  0  0  0
   18.7312   -9.7862  -15.9074 C   0  0  0  0  0  0  0  0  0  0  0  0
   17.4393   -9.4452  -15.1978 C   0  0  2  0  0  0  0  0  0  0  0  0
   16.3370  -10.2512  -15.6846 N   0  0  0  0  0  0  0  0  0  0  0  0
   17.1000   -8.0198  -15.4298 C   0  0  0  0  0  0  0  0  0  0  0  0
   15.9496   -7.6436  -16.1044 O   0  0  0  0  0  0  0  0  0  0  0  0
   19.3964  -12.1062  -15.2194 C   0  0  0  0  0  0  0  0  0  0  0  0
   19.5049  -13.4542  -15.5095 C   0  0  0  0  0  0  0  0  0  0  0  0
   17.8440   -7.0762  -15.0232 O   0  0  0  0  0  0  0  0  0  0  0  0
  2  3  1  0
  2  1  1  6
  4  5  1  0
  4  3  1  0
  6  5  1  0
  7  6  1  0
  8 15  1  0
  8  2  1  0
  9  8  2  0
 11 10  1  0
 11 12  2  0
 13 11  1  0
 14 13  1  1
 14 15  1  0
 16 14  1  0
 17 16  2  0
 19 20  2  0
 19 18  1  0
 21 20  1  0
 22 21  2  0
 24 23  1  6
 23 22  1  0
 24 25  1  0
 25 16  1  0
 26 27  1  0
 26 24  1  0
 28 22  1  0
 28 29  2  0
 29 19  1  0
 30 26  2  0
M  END
$$$$
