KNY.pdb
     RDKit          3D

 30 30  0  0  1  0  0  0  0  0999 V2000
   12.5993  -20.6472    1.0404 N   0  0  0  0  0  0  0  0  0  0  0  0
   13.6750  -21.4136    1.6458 C   0  0  1  0  0  0  0  0  0  0  0  0
   14.8619  -21.2969    0.7825 C   0  0  0  0  0  0  0  0  0  0  0  0
   14.8121  -21.5633   -0.6543 C   0  0  0  0  0  0  0  0  0  0  0  0
   15.3724  -22.7936   -1.2401 C   0  0  0  0  0  0  0  0  0  0  0  0
   15.3197  -22.8576   -2.7239 C   0  0  0  0  0  0  0  0  0  0  0  0
   15.8645  -24.1455   -3.1678 N   0  0  0  0  0  0  0  0  0  0  0  0
   13.9443  -20.6742    2.9598 C   0  0  0  0  0  0  0  0  0  0  0  0
   13.5233  -19.5328    3.1246 O   0  0  0  0  0  0  0  0  0  0  0  0
   14.2083  -21.2373    8.3996 N   0  0  0  0  0  0  0  0  0  0  0  0
   15.3804  -21.4367    7.6235 C   0  0  0  0  0  0  0  0  0  0  0  0
   16.4927  -21.1933    8.1583 O   0  0  0  0  0  0  0  0  0  0  0  0
   15.3378  -21.9197    6.2114 C   0  0  0  0  0  0  0  0  0  0  0  0
   14.8891  -20.7829    5.2845 C   0  0  2  0  0  0  0  0  0  0  0  0
   14.6772  -21.3109    3.9771 N   0  0  0  0  0  0  0  0  0  0  0  0
   15.9169  -19.7444    5.3591 C   0  0  0  0  0  0  0  0  0  0  0  0
   16.9663  -19.8635    4.6812 O   0  0  0  0  0  0  0  0  0  0  0  0
   18.8859  -12.7940    2.6546 O   0  0  0  0  0  0  0  0  0  0  0  0
   18.2628  -13.6265    3.5854 C   0  0  0  0  0  0  0  0  0  0  0  0
   17.0572  -14.1835    3.2687 C   0  0  0  0  0  0  0  0  0  0  0  0
   16.3961  -15.0025    4.1272 C   0  0  0  0  0  0  0  0  0  0  0  0
   16.9535  -15.2835    5.3560 C   0  0  0  0  0  0  0  0  0  0  0  0
   16.2087  -16.1844    6.2716 C   0  0  0  0  0  0  0  0  0  0  0  0
   16.7998  -17.5759    6.3262 C   0  0  2  0  0  0  0  0  0  0  0  0
   15.7783  -18.5934    6.1741 N   0  0  0  0  0  0  0  0  0  0  0  0
   17.4644  -17.7883    7.6353 C   0  0  0  0  0  0  0  0  0  0  0  0
   18.7174  -17.2651    7.9114 O   0  0  0  0  0  0  0  0  0  0  0  0
   18.1748  -14.7322    5.7027 C   0  0  0  0  0  0  0  0  0  0  0  0
   18.8288  -13.9010    4.8113 C   0  0  0  0  0  0  0  0  0  0  0  0
   16.9204  -18.4580    8.5655 O   0  0  0  0  0  0  0  0  0  0  0  0
  2  3  1  0
  2  1  1  6
  4  5  1  0
  4  3  1  0
  6  5  1  0
  7  6  1  0
  8 15  1  0
  8  2  1  0
  9  8  2  0
 11 10  1  0
 11 12  2  0
 13 11  1  0
 14 13  1  1
 14 15  1  0
 16 14  1  0
 17 16  2  0
 19 20  2  0
 19 18  1  0
 21 20  1  0
 22 21  2  0
 24 23  1  1
 23 22  1  0
 24 25  1  0
 25 16  1  0
 26 27  1  0
 26 24  1  0
 28 22  1  0
 28 29  2  0
 29 19  1  0
 30 26  2  0
M  END
$$$$
