KNY.pdb
     RDKit          3D

 30 30  0  0  1  0  0  0  0  0999 V2000
   14.3553  -10.1458  -12.0490 N   0  0  0  0  0  0  0  0  0  0  0  0
   12.9264  -10.1074  -11.7885 C   0  0  1  0  0  0  0  0  0  0  0  0
   12.6745  -10.8030  -10.5157 C   0  0  0  0  0  0  0  0  0  0  0  0
   11.9710  -12.0831  -10.4509 C   0  0  0  0  0  0  0  0  0  0  0  0
   11.0443  -12.5192  -11.5101 C   0  0  0  0  0  0  0  0  0  0  0  0
   10.3009  -13.7709  -11.2115 C   0  0  0  0  0  0  0  0  0  0  0  0
    9.3960  -14.0687  -12.3272 N   0  0  0  0  0  0  0  0  0  0  0  0
   12.6377   -8.6148  -11.6023 C   0  0  0  0  0  0  0  0  0  0  0  0
   11.5325   -8.2418  -11.2197 O   0  0  0  0  0  0  0  0  0  0  0  0
   11.4295   -4.7470  -10.6372 N   0  0  0  0  0  0  0  0  0  0  0  0
   12.3191   -5.2984   -9.6777 C   0  0  0  0  0  0  0  0  0  0  0  0
   12.0708   -5.1037   -8.4600 O   0  0  0  0  0  0  0  0  0  0  0  0
   13.5245   -6.0917  -10.0608 C   0  0  0  0  0  0  0  0  0  0  0  0
   13.5634   -6.2799  -11.5825 C   0  0  2  0  0  0  0  0  0  0  0  0
   13.6469   -7.6734  -11.8724 N   0  0  0  0  0  0  0  0  0  0  0  0
   14.6899   -5.4894  -12.0789 C   0  0  0  0  0  0  0  0  0  0  0  0
   15.8590   -5.8035  -11.7478 O   0  0  0  0  0  0  0  0  0  0  0  0
   17.0923   -8.4918  -17.1688 O   0  0  0  0  0  0  0  0  0  0  0  0
   16.7853   -7.2554  -16.5990 C   0  0  0  0  0  0  0  0  0  0  0  0
   15.5051   -6.7891  -16.6854 C   0  0  0  0  0  0  0  0  0  0  0  0
   15.1377   -5.5947  -16.1533 C   0  0  0  0  0  0  0  0  0  0  0  0
   16.0806   -4.8259  -15.5056 C   0  0  0  0  0  0  0  0  0  0  0  0
   15.6483   -3.5265  -14.9317 C   0  0  0  0  0  0  0  0  0  0  0  0
   15.6046   -3.5444  -13.4195 C   0  0  2  0  0  0  0  0  0  0  0  0
   14.5177   -4.3688  -12.9291 N   0  0  0  0  0  0  0  0  0  0  0  0
   15.4007   -2.1675  -12.9066 C   0  0  0  0  0  0  0  0  0  0  0  0
   14.2806   -1.8221  -12.1675 O   0  0  0  0  0  0  0  0  0  0  0  0
   17.3859   -5.2747  -15.4034 C   0  0  0  0  0  0  0  0  0  0  0  0
   17.7357   -6.4946  -15.9535 C   0  0  0  0  0  0  0  0  0  0  0  0
   16.2393   -1.2394  -13.1182 O   0  0  0  0  0  0  0  0  0  0  0  0
  2  3  1  0
  2  1  1  1
  4  5  1  0
  4  3  1  0
  6  5  1  0
  7  6  1  0
  8 15  1  0
  8  2  1  0
  9  8  2  0
 11 10  1  0
 11 12  2  0
 13 11  1  0
 14 13  1  1
 14 15  1  0
 16 14  1  0
 17 16  2  0
 19 20  2  0
 19 18  1  0
 21 20  1  0
 22 21  2  0
 24 23  1  6
 23 22  1  0
 24 25  1  0
 25 16  1  0
 26 27  1  0
 26 24  1  0
 28 22  1  0
 28 29  2  0
 29 19  1  0
 30 26  2  0
M  END
$$$$
