KNY.pdb
     RDKit          3D

 30 30  0  0  1  0  0  0  0  0999 V2000
   20.1471  -14.6973  -16.4771 N   0  0  0  0  0  0  0  0  0  0  0  0
   19.6838  -14.4587  -17.8334 C   0  0  1  0  0  0  0  0  0  0  0  0
   18.9256  -15.6418  -18.2727 C   0  0  0  0  0  0  0  0  0  0  0  0
   18.2412  -16.5254  -17.3301 C   0  0  0  0  0  0  0  0  0  0  0  0
   18.9724  -17.2887  -16.3037 C   0  0  0  0  0  0  0  0  0  0  0  0
   18.1149  -18.1031  -15.4036 C   0  0  0  0  0  0  0  0  0  0  0  0
   18.1482  -19.5016  -15.8458 N   0  0  0  0  0  0  0  0  0  0  0  0
   18.7171  -13.2809  -17.6783 C   0  0  0  0  0  0  0  0  0  0  0  0
   18.0947  -12.8598  -18.6490 O   0  0  0  0  0  0  0  0  0  0  0  0
   14.9023  -10.6033  -13.8567 N   0  0  0  0  0  0  0  0  0  0  0  0
   15.6972  -10.7381  -15.0254 C   0  0  0  0  0  0  0  0  0  0  0  0
   15.6584   -9.8135  -15.8774 O   0  0  0  0  0  0  0  0  0  0  0  0
   16.5669  -11.9259  -15.2741 C   0  0  0  0  0  0  0  0  0  0  0  0
   17.7539  -11.5272  -16.1600 C   0  0  2  0  0  0  0  0  0  0  0  0
   18.5466  -12.6843  -16.4164 N   0  0  0  0  0  0  0  0  0  0  0  0
   18.4600  -10.4514  -15.4638 C   0  0  0  0  0  0  0  0  0  0  0  0
   18.8527  -10.6310  -14.2855 O   0  0  0  0  0  0  0  0  0  0  0  0
   22.1091   -2.4949  -14.0525 O   0  0  0  0  0  0  0  0  0  0  0  0
   21.6911   -3.7087  -14.5998 C   0  0  0  0  0  0  0  0  0  0  0  0
   20.4994   -3.7567  -15.2642 C   0  0  0  0  0  0  0  0  0  0  0  0
   20.0326   -4.9044  -15.8208 C   0  0  0  0  0  0  0  0  0  0  0  0
   20.7792   -6.0580  -15.7150 C   0  0  0  0  0  0  0  0  0  0  0  0
   20.2442   -7.2960  -16.3362 C   0  0  0  0  0  0  0  0  0  0  0  0
   19.3632   -8.0858  -15.3933 C   0  0  2  0  0  0  0  0  0  0  0  0
   18.7241   -9.1977  -16.0693 N   0  0  0  0  0  0  0  0  0  0  0  0
   18.2976   -7.2091  -14.8487 C   0  0  0  0  0  0  0  0  0  0  0  0
   18.4167   -6.5979  -13.6108 O   0  0  0  0  0  0  0  0  0  0  0  0
   21.9912   -6.0375  -15.0468 C   0  0  0  0  0  0  0  0  0  0  0  0
   22.4453   -4.8564  -14.4884 C   0  0  0  0  0  0  0  0  0  0  0  0
   17.2266   -6.9755  -15.4873 O   0  0  0  0  0  0  0  0  0  0  0  0
  2  3  1  0
  2  1  1  1
  4  5  1  0
  4  3  1  0
  6  5  1  0
  7  6  1  0
  8 15  1  0
  8  2  1  0
  9  8  2  0
 11 10  1  0
 11 12  2  0
 13 11  1  0
 14 13  1  1
 14 15  1  0
 16 14  1  0
 17 16  2  0
 19 20  2  0
 19 18  1  0
 21 20  1  0
 22 21  2  0
 24 23  1  6
 23 22  1  0
 24 25  1  0
 25 16  1  0
 26 27  1  0
 26 24  1  0
 28 22  1  0
 28 29  2  0
 29 19  1  0
 30 26  2  0
M  END
$$$$
