KNY.pdb
     RDKit          3D

 30 30  0  0  1  0  0  0  0  0999 V2000
   19.3487  -14.3031  -19.3438 N   0  0  0  0  0  0  0  0  0  0  0  0
   18.6700  -13.0470  -19.6134 C   0  0  1  0  0  0  0  0  0  0  0  0
   17.6188  -12.8678  -18.5983 C   0  0  0  0  0  0  0  0  0  0  0  0
   16.6135  -13.8937  -18.3252 C   0  0  0  0  0  0  0  0  0  0  0  0
   16.7038  -14.7831  -17.1540 C   0  0  0  0  0  0  0  0  0  0  0  0
   15.4642  -15.5457  -16.8534 C   0  0  0  0  0  0  0  0  0  0  0  0
   15.6438  -16.2749  -15.5931 N   0  0  0  0  0  0  0  0  0  0  0  0
   19.7610  -11.9961  -19.3869 C   0  0  0  0  0  0  0  0  0  0  0  0
   20.9370  -12.2672  -19.6118 O   0  0  0  0  0  0  0  0  0  0  0  0
   22.2426   -7.6108  -18.9436 N   0  0  0  0  0  0  0  0  0  0  0  0
   21.6716   -8.0483  -20.1677 C   0  0  0  0  0  0  0  0  0  0  0  0
   22.0879   -7.5276  -21.2344 O   0  0  0  0  0  0  0  0  0  0  0  0
   20.6067   -9.0929  -20.2306 C   0  0  0  0  0  0  0  0  0  0  0  0
   20.2980   -9.6089  -18.8196 C   0  0  2  0  0  0  0  0  0  0  0  0
   19.4073  -10.7179  -18.9192 N   0  0  0  0  0  0  0  0  0  0  0  0
   19.7710   -8.4754  -18.0595 C   0  0  0  0  0  0  0  0  0  0  0  0
   18.5575   -8.1725  -18.1627 O   0  0  0  0  0  0  0  0  0  0  0  0
   16.6481   -8.8834  -10.7115 O   0  0  0  0  0  0  0  0  0  0  0  0
   17.5261   -8.8270  -11.7949 C   0  0  0  0  0  0  0  0  0  0  0  0
   17.9948   -9.9945  -12.3252 C   0  0  0  0  0  0  0  0  0  0  0  0
   18.8513  -10.0123  -13.3792 C   0  0  0  0  0  0  0  0  0  0  0  0
   19.2633   -8.8199  -13.9342 C   0  0  0  0  0  0  0  0  0  0  0  0
   20.1974   -8.8716  -15.0872 C   0  0  0  0  0  0  0  0  0  0  0  0
   20.3428   -7.5337  -15.7784 C   0  0  2  0  0  0  0  0  0  0  0  0
   20.5812   -7.6929  -17.1995 N   0  0  0  0  0  0  0  0  0  0  0  0
   21.4921   -6.7932  -15.2028 C   0  0  0  0  0  0  0  0  0  0  0  0
   21.4178   -6.1792  -13.9628 O   0  0  0  0  0  0  0  0  0  0  0  0
   18.8035   -7.6216  -13.4162 C   0  0  0  0  0  0  0  0  0  0  0  0
   17.9317   -7.6294  -12.3424 C   0  0  0  0  0  0  0  0  0  0  0  0
   22.5978   -6.6850  -15.8152 O   0  0  0  0  0  0  0  0  0  0  0  0
  2  3  1  0
  2  1  1  1
  4  5  1  0
  4  3  1  0
  6  5  1  0
  7  6  1  0
  8 15  1  0
  8  2  1  0
  9  8  2  0
 11 10  1  0
 11 12  2  0
 13 11  1  0
 14 13  1  6
 14 15  1  0
 16 14  1  0
 17 16  2  0
 19 20  2  0
 19 18  1  0
 21 20  1  0
 22 21  2  0
 24 23  1  1
 23 22  1  0
 24 25  1  0
 25 16  1  0
 26 27  1  0
 26 24  1  0
 28 22  1  0
 28 29  2  0
 29 19  1  0
 30 26  2  0
M  END
$$$$
