KNY.pdb
     RDKit          3D

 30 30  0  0  1  0  0  0  0  0999 V2000
   24.9687  -21.4332  -17.4732 N   0  0  0  0  0  0  0  0  0  0  0  0
   26.3202  -21.6314  -17.9680 C   0  0  1  0  0  0  0  0  0  0  0  0
   26.3610  -21.1973  -19.3742 C   0  0  0  0  0  0  0  0  0  0  0  0
   25.5876  -21.8644  -20.4205 C   0  0  0  0  0  0  0  0  0  0  0  0
   26.0083  -23.1510  -21.0022 C   0  0  0  0  0  0  0  0  0  0  0  0
   25.1614  -23.6347  -22.1236 C   0  0  0  0  0  0  0  0  0  0  0  0
   25.6472  -24.9489  -22.5587 N   0  0  0  0  0  0  0  0  0  0  0  0
   27.1544  -20.6611  -17.1263 C   0  0  0  0  0  0  0  0  0  0  0  0
   28.1683  -20.1509  -17.5939 O   0  0  0  0  0  0  0  0  0  0  0  0
   24.7699  -16.1004  -15.0403 N   0  0  0  0  0  0  0  0  0  0  0  0
   25.8906  -16.7452  -15.6270 C   0  0  0  0  0  0  0  0  0  0  0  0
   26.9632  -16.0953  -15.7243 O   0  0  0  0  0  0  0  0  0  0  0  0
   25.8394  -18.1513  -16.1262 C   0  0  0  0  0  0  0  0  0  0  0  0
   26.7220  -19.0487  -15.2496 C   0  0  2  0  0  0  0  0  0  0  0  0
   26.7516  -20.3579  -15.8134 N   0  0  0  0  0  0  0  0  0  0  0  0
   26.1764  -18.9854  -13.8936 C   0  0  0  0  0  0  0  0  0  0  0  0
   25.3782  -18.0655  -13.5907 O   0  0  0  0  0  0  0  0  0  0  0  0
   26.4226  -19.4768   -6.6686 O   0  0  0  0  0  0  0  0  0  0  0  0
   26.4981  -20.0853   -7.9223 C   0  0  0  0  0  0  0  0  0  0  0  0
   25.6039  -21.0691   -8.2327 C   0  0  0  0  0  0  0  0  0  0  0  0
   25.6207  -21.7029   -9.4339 C   0  0  0  0  0  0  0  0  0  0  0  0
   26.5661  -21.3469  -10.3715 C   0  0  0  0  0  0  0  0  0  0  0  0
   26.5575  -22.0555  -11.6763 C   0  0  0  0  0  0  0  0  0  0  0  0
   25.9090  -21.2426  -12.7752 C   0  0  2  0  0  0  0  0  0  0  0  0
   26.5135  -19.9301  -12.8926 N   0  0  0  0  0  0  0  0  0  0  0  0
   24.4676  -21.0565  -12.4784 C   0  0  0  0  0  0  0  0  0  0  0  0
   23.6029  -22.1321  -12.3542 O   0  0  0  0  0  0  0  0  0  0  0  0
   27.4847  -20.3526  -10.0830 C   0  0  0  0  0  0  0  0  0  0  0  0
   27.4473  -19.7218   -8.8527 C   0  0  0  0  0  0  0  0  0  0  0  0
   23.9553  -19.9062  -12.3239 O   0  0  0  0  0  0  0  0  0  0  0  0
  2  3  1  0
  2  1  1  1
  4  5  1  0
  4  3  1  0
  6  5  1  0
  7  6  1  0
  8 15  1  0
  8  2  1  0
  9  8  2  0
 11 10  1  0
 11 12  2  0
 13 11  1  0
 14 13  1  6
 14 15  1  0
 16 14  1  0
 17 16  2  0
 19 20  2  0
 19 18  1  0
 21 20  1  0
 22 21  2  0
 24 23  1  1
 23 22  1  0
 24 25  1  0
 25 16  1  0
 26 27  1  0
 26 24  1  0
 28 22  1  0
 28 29  2  0
 29 19  1  0
 30 26  2  0
M  END
$$$$
