KNY.pdb
     RDKit          3D

 30 30  0  0  1  0  0  0  0  0999 V2000
   27.7863  -20.5073  -16.0936 N   0  0  0  0  0  0  0  0  0  0  0  0
   26.8713  -21.6008  -16.3729 C   0  0  1  0  0  0  0  0  0  0  0  0
   27.6607  -22.7464  -16.8545 C   0  0  0  0  0  0  0  0  0  0  0  0
   28.3350  -22.7403  -18.1518 C   0  0  0  0  0  0  0  0  0  0  0  0
   29.6753  -22.1558  -18.3324 C   0  0  0  0  0  0  0  0  0  0  0  0
   30.1795  -22.1725  -19.7303 C   0  0  0  0  0  0  0  0  0  0  0  0
   31.5539  -21.6596  -19.7503 N   0  0  0  0  0  0  0  0  0  0  0  0
   26.2926  -21.9422  -14.9965 C   0  0  0  0  0  0  0  0  0  0  0  0
   25.6839  -22.9945  -14.8254 O   0  0  0  0  0  0  0  0  0  0  0  0
   25.0288  -21.4618   -9.9951 N   0  0  0  0  0  0  0  0  0  0  0  0
   26.1887  -20.6804  -10.2401 C   0  0  0  0  0  0  0  0  0  0  0  0
   26.7933  -20.1923   -9.2508 O   0  0  0  0  0  0  0  0  0  0  0  0
   26.7086  -20.4216  -11.6155 C   0  0  0  0  0  0  0  0  0  0  0  0
   25.8561  -21.1734  -12.6455 C   0  0  2  0  0  0  0  0  0  0  0  0
   26.4627  -21.0425  -13.9292 N   0  0  0  0  0  0  0  0  0  0  0  0
   24.5025  -20.6254  -12.5566 C   0  0  0  0  0  0  0  0  0  0  0  0
   24.3350  -19.4586  -12.1259 O   0  0  0  0  0  0  0  0  0  0  0  0
   23.8075  -21.0415  -19.1541 O   0  0  0  0  0  0  0  0  0  0  0  0
   23.3098  -20.7408  -17.8854 C   0  0  0  0  0  0  0  0  0  0  0  0
   23.9030  -19.7456  -17.1632 C   0  0  0  0  0  0  0  0  0  0  0  0
   23.4697  -19.4014  -15.9228 C   0  0  0  0  0  0  0  0  0  0  0  0
   22.4000  -20.0730  -15.3712 C   0  0  0  0  0  0  0  0  0  0  0  0
   21.9475  -19.6723  -14.0150 C   0  0  0  0  0  0  0  0  0  0  0  0
   22.0186  -20.8087  -13.0189 C   0  0  2  0  0  0  0  0  0  0  0  0
   23.3556  -21.3638  -12.9406 N   0  0  0  0  0  0  0  0  0  0  0  0
   21.0964  -21.8955  -13.4299 C   0  0  0  0  0  0  0  0  0  0  0  0
   21.5548  -23.1691  -13.7261 O   0  0  0  0  0  0  0  0  0  0  0  0
   21.7800  -21.0862  -16.0816 C   0  0  0  0  0  0  0  0  0  0  0  0
   22.2396  -21.4184  -17.3432 C   0  0  0  0  0  0  0  0  0  0  0  0
   19.8448  -21.7139  -13.5307 O   0  0  0  0  0  0  0  0  0  0  0  0
  2  3  1  0
  2  1  1  1
  4  5  1  0
  4  3  1  0
  6  5  1  0
  7  6  1  0
  8 15  1  0
  8  2  1  0
  9  8  2  0
 11 10  1  0
 11 12  2  0
 13 11  1  0
 14 13  1  1
 14 15  1  0
 16 14  1  0
 17 16  2  0
 19 20  2  0
 19 18  1  0
 21 20  1  0
 22 21  2  0
 24 23  1  6
 23 22  1  0
 24 25  1  0
 25 16  1  0
 26 27  1  0
 26 24  1  0
 28 22  1  0
 28 29  2  0
 29 19  1  0
 30 26  2  0
M  END
$$$$
