KNY.pdb
     RDKit          3D

 30 30  0  0  1  0  0  0  0  0999 V2000
   20.3123  -21.0216  -15.1170 N   0  0  0  0  0  0  0  0  0  0  0  0
   20.9723  -19.7777  -14.7592 C   0  0  1  0  0  0  0  0  0  0  0  0
   21.0152  -19.6885  -13.2903 C   0  0  0  0  0  0  0  0  0  0  0  0
   20.0573  -18.8893  -12.5278 C   0  0  0  0  0  0  0  0  0  0  0  0
   19.1088  -17.9722  -13.1835 C   0  0  0  0  0  0  0  0  0  0  0  0
   18.3505  -17.0921  -12.2566 C   0  0  0  0  0  0  0  0  0  0  0  0
   17.5704  -16.1287  -13.0411 N   0  0  0  0  0  0  0  0  0  0  0  0
   22.3983  -19.9660  -15.2854 C   0  0  0  0  0  0  0  0  0  0  0  0
   22.8437  -21.0943  -15.4743 O   0  0  0  0  0  0  0  0  0  0  0  0
   27.4413  -16.6937  -16.4218 N   0  0  0  0  0  0  0  0  0  0  0  0
   26.3701  -17.4764  -16.9278 C   0  0  0  0  0  0  0  0  0  0  0  0
   26.5952  -18.2169  -17.9194 O   0  0  0  0  0  0  0  0  0  0  0  0
   25.0023  -17.4503  -16.3298 C   0  0  0  0  0  0  0  0  0  0  0  0
   24.5397  -18.8802  -16.0230 C   0  0  2  0  0  0  0  0  0  0  0  0
   23.1949  -18.8380  -15.5510 N   0  0  0  0  0  0  0  0  0  0  0  0
   25.4984  -19.4408  -15.0707 C   0  0  0  0  0  0  0  0  0  0  0  0
   25.8504  -18.7619  -14.0756 O   0  0  0  0  0  0  0  0  0  0  0  0
   23.6388  -20.1811   -9.2129 O   0  0  0  0  0  0  0  0  0  0  0  0
   24.3479  -20.7090  -10.2929 C   0  0  0  0  0  0  0  0  0  0  0  0
   25.6905  -20.9187  -10.1610 C   0  0  0  0  0  0  0  0  0  0  0  0
   26.4408  -21.4293  -11.1714 C   0  0  0  0  0  0  0  0  0  0  0  0
   25.8349  -21.7472  -12.3678 C   0  0  0  0  0  0  0  0  0  0  0  0
   26.6808  -22.3064  -13.4525 C   0  0  0  0  0  0  0  0  0  0  0  0
   27.1517  -21.2488  -14.4265 C   0  0  2  0  0  0  0  0  0  0  0  0
   26.0554  -20.7349  -15.2239 N   0  0  0  0  0  0  0  0  0  0  0  0
   28.1560  -21.8291  -15.3512 C   0  0  0  0  0  0  0  0  0  0  0  0
   29.3605  -22.3396  -14.8941 O   0  0  0  0  0  0  0  0  0  0  0  0
   24.4752  -21.5448  -12.5286 C   0  0  0  0  0  0  0  0  0  0  0  0
   23.7323  -21.0235  -11.4848 C   0  0  0  0  0  0  0  0  0  0  0  0
   27.9633  -21.8870  -16.6038 O   0  0  0  0  0  0  0  0  0  0  0  0
  2  3  1  0
  2  1  1  1
  4  5  1  0
  4  3  1  0
  6  5  1  0
  7  6  1  0
  8 15  1  0
  8  2  1  0
  9  8  2  0
 11 10  1  0
 11 12  2  0
 13 11  1  0
 14 13  1  1
 14 15  1  0
 16 14  1  0
 17 16  2  0
 19 20  2  0
 19 18  1  0
 21 20  1  0
 22 21  2  0
 24 23  1  1
 23 22  1  0
 24 25  1  0
 25 16  1  0
 26 27  1  0
 26 24  1  0
 28 22  1  0
 28 29  2  0
 29 19  1  0
 30 26  2  0
M  END
$$$$
