KNY.pdb
     RDKit          3D

 30 30  0  0  1  0  0  0  0  0999 V2000
   21.1760  -14.3909  -19.0741 N   0  0  0  0  0  0  0  0  0  0  0  0
   22.0131  -13.2974  -18.6110 C   0  0  1  0  0  0  0  0  0  0  0  0
   23.0098  -13.0099  -19.6557 C   0  0  0  0  0  0  0  0  0  0  0  0
   23.9702  -14.0117  -20.1160 C   0  0  0  0  0  0  0  0  0  0  0  0
   25.0502  -13.6812  -21.0622 C   0  0  0  0  0  0  0  0  0  0  0  0
   25.9245  -14.8238  -21.4342 C   0  0  0  0  0  0  0  0  0  0  0  0
   25.0926  -16.0123  -21.6535 N   0  0  0  0  0  0  0  0  0  0  0  0
   21.0403  -12.1182  -18.5173 C   0  0  0  0  0  0  0  0  0  0  0  0
   20.9052  -11.3511  -19.4661 O   0  0  0  0  0  0  0  0  0  0  0  0
   17.1449   -9.1698  -16.9332 N   0  0  0  0  0  0  0  0  0  0  0  0
   17.0290  -10.4581  -16.3477 C   0  0  0  0  0  0  0  0  0  0  0  0
   15.9719  -10.7314  -15.7230 O   0  0  0  0  0  0  0  0  0  0  0  0
   18.1065  -11.4868  -16.4473 C   0  0  0  0  0  0  0  0  0  0  0  0
   19.3368  -10.8884  -17.1409 C   0  0  2  0  0  0  0  0  0  0  0  0
   20.3021  -11.9192  -17.3369 N   0  0  0  0  0  0  0  0  0  0  0  0
   19.7967   -9.7789  -16.3053 C   0  0  0  0  0  0  0  0  0  0  0  0
   20.3460  -10.0214  -15.2033 O   0  0  0  0  0  0  0  0  0  0  0  0
   22.5725   -1.7814  -13.9578 O   0  0  0  0  0  0  0  0  0  0  0  0
   22.2553   -2.9585  -14.6372 C   0  0  0  0  0  0  0  0  0  0  0  0
   22.2711   -4.1396  -13.9526 C   0  0  0  0  0  0  0  0  0  0  0  0
   21.9729   -5.3216  -14.5517 C   0  0  0  0  0  0  0  0  0  0  0  0
   21.6439   -5.3357  -15.8900 C   0  0  0  0  0  0  0  0  0  0  0  0
   21.3200   -6.6425  -16.5162 C   0  0  0  0  0  0  0  0  0  0  0  0
   20.1038   -7.2974  -15.8991 C   0  0  2  0  0  0  0  0  0  0  0  0
   19.6476   -8.4233  -16.6904 N   0  0  0  0  0  0  0  0  0  0  0  0
   18.9931   -6.3175  -15.8166 C   0  0  0  0  0  0  0  0  0  0  0  0
   18.7124   -5.6288  -14.6474 O   0  0  0  0  0  0  0  0  0  0  0  0
   21.6201   -4.1526  -16.6079 C   0  0  0  0  0  0  0  0  0  0  0  0
   21.9275   -2.9616  -15.9756 C   0  0  0  0  0  0  0  0  0  0  0  0
   18.2464   -6.0615  -16.8096 O   0  0  0  0  0  0  0  0  0  0  0  0
  2  3  1  0
  2  1  1  6
  4  5  1  0
  4  3  1  0
  6  5  1  0
  7  6  1  0
  8 15  1  0
  8  2  1  0
  9  8  2  0
 11 10  1  0
 11 12  2  0
 13 11  1  0
 14 13  1  1
 14 15  1  0
 16 14  1  0
 17 16  2  0
 19 20  2  0
 19 18  1  0
 21 20  1  0
 22 21  2  0
 24 23  1  6
 23 22  1  0
 24 25  1  0
 25 16  1  0
 26 27  1  0
 26 24  1  0
 28 22  1  0
 28 29  2  0
 29 19  1  0
 30 26  2  0
M  END
$$$$
