KNY.pdb
     RDKit          3D

 30 30  0  0  1  0  0  0  0  0999 V2000
   27.8116  -20.0713  -21.3411 N   0  0  0  0  0  0  0  0  0  0  0  0
   27.3719  -19.1081  -20.3461 C   0  0  1  0  0  0  0  0  0  0  0  0
   27.3533  -17.7769  -20.9747 C   0  0  0  0  0  0  0  0  0  0  0  0
   28.5786  -17.0396  -21.2792 C   0  0  0  0  0  0  0  0  0  0  0  0
   29.8688  -17.3767  -20.6527 C   0  0  0  0  0  0  0  0  0  0  0  0
   31.0068  -16.5151  -21.0665 C   0  0  0  0  0  0  0  0  0  0  0  0
   32.2178  -16.9489  -20.3609 N   0  0  0  0  0  0  0  0  0  0  0  0
   25.9314  -19.5349  -20.0484 C   0  0  0  0  0  0  0  0  0  0  0  0
   25.2591  -20.0884  -20.9137 O   0  0  0  0  0  0  0  0  0  0  0  0
   21.5424  -20.7409  -17.8608 N   0  0  0  0  0  0  0  0  0  0  0  0
   22.5906  -21.6589  -18.1336 C   0  0  0  0  0  0  0  0  0  0  0  0
   22.3246  -22.8879  -18.1001 O   0  0  0  0  0  0  0  0  0  0  0  0
   23.9811  -21.2199  -18.4547 C   0  0  0  0  0  0  0  0  0  0  0  0
   24.0819  -19.6926  -18.3562 C   0  0  2  0  0  0  0  0  0  0  0  0
   25.3830  -19.2887  -18.7771 N   0  0  0  0  0  0  0  0  0  0  0  0
   23.7533  -19.3341  -16.9764 C   0  0  0  0  0  0  0  0  0  0  0  0
   23.7399  -20.2251  -16.0926 O   0  0  0  0  0  0  0  0  0  0  0  0
   16.1835  -15.3326  -17.4298 O   0  0  0  0  0  0  0  0  0  0  0  0
   17.5155  -15.7380  -17.5251 C   0  0  0  0  0  0  0  0  0  0  0  0
   17.7986  -17.0735  -17.5435 C   0  0  0  0  0  0  0  0  0  0  0  0
   19.0720  -17.5371  -17.6345 C   0  0  0  0  0  0  0  0  0  0  0  0
   20.1137  -16.6378  -17.7107 C   0  0  0  0  0  0  0  0  0  0  0  0
   21.4943  -17.1748  -17.8123 C   0  0  0  0  0  0  0  0  0  0  0  0
   22.0975  -17.4876  -16.4606 C   0  0  2  0  0  0  0  0  0  0  0  0
   23.4452  -18.0067  -16.5875 N   0  0  0  0  0  0  0  0  0  0  0  0
   21.2769  -18.5120  -15.7693 C   0  0  0  0  0  0  0  0  0  0  0  0
   21.1790  -19.8105  -16.2430 O   0  0  0  0  0  0  0  0  0  0  0  0
   19.8550  -15.2782  -17.6941 C   0  0  0  0  0  0  0  0  0  0  0  0
   18.5497  -14.8306  -17.6008 C   0  0  0  0  0  0  0  0  0  0  0  0
   20.6253  -18.2513  -14.7126 O   0  0  0  0  0  0  0  0  0  0  0  0
  2  3  1  0
  2  1  1  6
  4  5  1  0
  4  3  1  0
  6  5  1  0
  7  6  1  0
  8 15  1  0
  8  2  1  0
  9  8  2  0
 11 10  1  0
 11 12  2  0
 13 11  1  0
 14 13  1  1
 14 15  1  0
 16 14  1  0
 17 16  2  0
 19 20  2  0
 19 18  1  0
 21 20  1  0
 22 21  2  0
 24 23  1  6
 23 22  1  0
 24 25  1  0
 25 16  1  0
 26 27  1  0
 26 24  1  0
 28 22  1  0
 28 29  2  0
 29 19  1  0
 30 26  2  0
M  END
$$$$
