KNY.pdb
     RDKit          3D

 30 30  0  0  1  0  0  0  0  0999 V2000
   27.3827  -20.5819  -15.8925 N   0  0  0  0  0  0  0  0  0  0  0  0
   27.7704  -19.3068  -15.3140 C   0  0  1  0  0  0  0  0  0  0  0  0
   27.4076  -18.2435  -16.2654 C   0  0  0  0  0  0  0  0  0  0  0  0
   27.9761  -18.1713  -17.6106 C   0  0  0  0  0  0  0  0  0  0  0  0
   27.4416  -18.9693  -18.7279 C   0  0  0  0  0  0  0  0  0  0  0  0
   28.1138  -18.7421  -20.0337 C   0  0  0  0  0  0  0  0  0  0  0  0
   27.5830  -19.6921  -21.0177 N   0  0  0  0  0  0  0  0  0  0  0  0
   26.8759  -19.1897  -14.0763 C   0  0  0  0  0  0  0  0  0  0  0  0
   26.7388  -18.1079  -13.5126 O   0  0  0  0  0  0  0  0  0  0  0  0
   21.9299  -20.1751  -12.1526 N   0  0  0  0  0  0  0  0  0  0  0  0
   23.0035  -21.0648  -11.8846 C   0  0  0  0  0  0  0  0  0  0  0  0
   22.9944  -21.6915  -10.7939 O   0  0  0  0  0  0  0  0  0  0  0  0
   24.1290  -21.2789  -12.8419 C   0  0  0  0  0  0  0  0  0  0  0  0
   25.2899  -20.3360  -12.5017 C   0  0  2  0  0  0  0  0  0  0  0  0
   26.2122  -20.3297  -13.5890 N   0  0  0  0  0  0  0  0  0  0  0  0
   25.8529  -20.7974  -11.2326 C   0  0  0  0  0  0  0  0  0  0  0  0
   26.1514  -22.0083  -11.0927 O   0  0  0  0  0  0  0  0  0  0  0  0
   29.5122  -20.6900   -3.2010 O   0  0  0  0  0  0  0  0  0  0  0  0
   28.9392  -20.2949   -4.4106 C   0  0  0  0  0  0  0  0  0  0  0  0
   29.5819  -20.6009   -5.5757 C   0  0  0  0  0  0  0  0  0  0  0  0
   29.0807  -20.2469   -6.7874 C   0  0  0  0  0  0  0  0  0  0  0  0
   27.8884  -19.5583   -6.8494 C   0  0  0  0  0  0  0  0  0  0  0  0
   27.3643  -19.1878   -8.1884 C   0  0  0  0  0  0  0  0  0  0  0  0
   26.6621  -20.3376   -8.8766 C   0  0  2  0  0  0  0  0  0  0  0  0
   26.0797  -19.9256  -10.1387 N   0  0  0  0  0  0  0  0  0  0  0  0
   25.5682  -20.8469   -8.0137 C   0  0  0  0  0  0  0  0  0  0  0  0
   24.2732  -20.3647   -8.1155 O   0  0  0  0  0  0  0  0  0  0  0  0
   27.2158  -19.2353   -5.6836 C   0  0  0  0  0  0  0  0  0  0  0  0
   27.7466  -19.6068   -4.4616 C   0  0  0  0  0  0  0  0  0  0  0  0
   25.7630  -21.7472   -7.1413 O   0  0  0  0  0  0  0  0  0  0  0  0
  2  3  1  0
  2  1  1  6
  4  5  1  0
  4  3  1  0
  6  5  1  0
  7  6  1  0
  8 15  1  0
  8  2  1  0
  9  8  2  0
 11 10  1  0
 11 12  2  0
 13 11  1  0
 14 13  1  6
 14 15  1  0
 16 14  1  0
 17 16  2  0
 19 20  2  0
 19 18  1  0
 21 20  1  0
 22 21  2  0
 24 23  1  1
 23 22  1  0
 24 25  1  0
 25 16  1  0
 26 27  1  0
 26 24  1  0
 28 22  1  0
 28 29  2  0
 29 19  1  0
 30 26  2  0
M  END
$$$$
