SEN.pdb
     RDKit          3D

 24 23  0  0  1  0  0  0  0  0999 V2000
   28.4175  -20.4285  -18.4872 O   0  0  0  0  0  0  0  0  0  0  0  0
   27.8249  -19.5820  -17.5277 C   0  0  0  0  0  0  0  0  0  0  0  0
   26.4831  -19.1658  -18.0397 C   0  0  2  0  0  0  0  0  0  0  0  0
   26.6518  -18.1312  -19.0382 N   0  0  0  0  0  0  0  0  0  0  0  0
   25.6618  -18.6090  -16.9249 C   0  0  0  0  0  0  0  0  0  0  0  0
   25.6088  -17.3735  -16.7099 O   0  0  0  0  0  0  0  0  0  0  0  0
   24.9079  -19.4647  -16.0645 N   0  0  0  0  0  0  0  0  0  0  0  0
   23.9638  -18.9821  -15.0899 C   0  0  1  0  0  0  0  0  0  0  0  0
   22.8496  -18.1722  -15.7466 C   0  0  0  0  0  0  0  0  0  0  0  0
   21.9610  -19.1215  -16.5181 C   0  0  0  0  0  0  0  0  0  0  0  0
   20.8086  -18.4099  -17.0775 C   0  0  0  0  0  0  0  0  0  0  0  0
   20.9262  -17.7786  -18.1414 O   0  0  0  0  0  0  0  0  0  0  0  0
   23.4043  -20.0773  -14.2549 C   0  0  0  0  0  0  0  0  0  0  0  0
   23.0013  -21.1160  -14.7943 O   0  0  0  0  0  0  0  0  0  0  0  0
   19.5740  -18.4139  -16.4564 O   0  0  0  0  0  0  0  0  0  0  0  0
   25.6866  -20.6801   -9.5285 N   0  0  0  0  0  0  0  0  0  0  0  0
   24.9557  -21.2526  -10.5829 C   0  0  0  0  0  0  0  0  0  0  0  0
   25.5781  -21.8708  -11.4778 O   0  0  0  0  0  0  0  0  0  0  0  0
   23.5121  -21.1445  -10.6565 C   0  0  0  0  0  0  0  0  0  0  0  0
   22.8896  -21.0667  -11.9962 C   0  0  2  0  0  0  0  0  0  0  0  0
   23.3078  -19.9847  -12.8258 N   0  0  0  0  0  0  0  0  0  0  0  0
   21.4149  -21.0311  -11.8488 C   0  0  0  0  0  0  0  0  0  0  0  0
   20.8027  -20.0356  -12.3005 O   0  0  0  0  0  0  0  0  0  0  0  0
   20.7377  -22.0648  -11.2312 O   0  0  0  0  0  0  0  0  0  0  0  0
  1  2  1  0
  2  3  1  0
  3  5  1  0
  3  4  1  6
  5  6  2  0
  7  8  1  0
  7  5  1  0
  8 13  1  0
  8  9  1  6
 10  9  1  0
 10 11  1  0
 11 12  2  0
 11 15  1  0
 13 21  1  0
 13 14  2  0
 17 16  1  0
 17 18  2  0
 19 17  1  0
 20 19  1  1
 21 20  1  0
 22 24  1  0
 22 20  1  0
 23 22  2  0
M  END
$$$$
