SEN.pdb
     RDKit          3D

 24 23  0  0  1  0  0  0  0  0999 V2000
   16.9188  -13.0013  -14.1100 O   0  0  0  0  0  0  0  0  0  0  0  0
   17.8732  -12.0902  -14.6075 C   0  0  0  0  0  0  0  0  0  0  0  0
   17.4821  -11.7224  -16.0030 C   0  0  2  0  0  0  0  0  0  0  0  0
   18.2748  -12.4900  -16.9401 N   0  0  0  0  0  0  0  0  0  0  0  0
   17.7492  -10.2737  -16.2427 C   0  0  0  0  0  0  0  0  0  0  0  0
   18.8358   -9.8854  -16.7366 O   0  0  0  0  0  0  0  0  0  0  0  0
   16.7758   -9.2798  -15.9176 N   0  0  0  0  0  0  0  0  0  0  0  0
   16.9596   -7.8735  -16.1681 C   0  0  1  0  0  0  0  0  0  0  0  0
   15.6346   -7.1190  -16.1089 C   0  0  0  0  0  0  0  0  0  0  0  0
   15.8850   -5.6830  -16.5101 C   0  0  0  0  0  0  0  0  0  0  0  0
   14.6764   -4.8761  -16.3211 C   0  0  0  0  0  0  0  0  0  0  0  0
   13.8197   -5.2271  -15.4923 O   0  0  0  0  0  0  0  0  0  0  0  0
   17.9607   -7.2632  -15.2544 C   0  0  0  0  0  0  0  0  0  0  0  0
   17.9773   -7.5844  -14.0591 O   0  0  0  0  0  0  0  0  0  0  0  0
   14.4486   -3.7192  -17.0420 O   0  0  0  0  0  0  0  0  0  0  0  0
   22.1585   -4.5931  -13.4286 N   0  0  0  0  0  0  0  0  0  0  0  0
   22.3247   -5.8121  -14.1070 C   0  0  0  0  0  0  0  0  0  0  0  0
   23.4355   -6.3885  -14.0413 O   0  0  0  0  0  0  0  0  0  0  0  0
   21.2496   -6.4108  -14.8730 C   0  0  0  0  0  0  0  0  0  0  0  0
   19.9294   -5.7434  -14.8544 C   0  0  2  0  0  0  0  0  0  0  0  0
   18.9271   -6.3009  -15.7020 N   0  0  0  0  0  0  0  0  0  0  0  0
   20.1031   -4.3071  -15.1783 C   0  0  0  0  0  0  0  0  0  0  0  0
   19.8840   -3.9392  -16.3557 O   0  0  0  0  0  0  0  0  0  0  0  0
   20.4955   -3.4031  -14.2100 O   0  0  0  0  0  0  0  0  0  0  0  0
  1  2  1  0
  2  3  1  0
  3  5  1  0
  3  4  1  6
  5  6  2  0
  7  8  1  0
  7  5  1  0
  8 13  1  0
  8  9  1  1
 10  9  1  0
 10 11  1  0
 11 12  2  0
 11 15  1  0
 13 21  1  0
 13 14  2  0
 17 16  1  0
 17 18  2  0
 19 17  1  0
 20 19  1  6
 21 20  1  0
 22 24  1  0
 22 20  1  0
 23 22  2  0
M  END
$$$$
