SEN.pdb
     RDKit          3D

 24 23  0  0  1  0  0  0  0  0999 V2000
   25.6864   -9.9018  -15.3294 O   0  0  0  0  0  0  0  0  0  0  0  0
   24.7621  -10.8828  -14.9151 C   0  0  0  0  0  0  0  0  0  0  0  0
   24.0107  -11.3524  -16.1195 C   0  0  2  0  0  0  0  0  0  0  0  0
   24.9422  -11.5897  -17.2020 N   0  0  0  0  0  0  0  0  0  0  0  0
   23.0429  -10.3043  -16.5578 C   0  0  0  0  0  0  0  0  0  0  0  0
   23.3698   -9.4242  -17.3908 O   0  0  0  0  0  0  0  0  0  0  0  0
   21.7106  -10.2681  -16.0432 N   0  0  0  0  0  0  0  0  0  0  0  0
   20.7609   -9.2342  -16.3647 C   0  0  1  0  0  0  0  0  0  0  0  0
   19.3261   -9.7137  -16.1649 C   0  0  0  0  0  0  0  0  0  0  0  0
   18.9945  -10.6975  -17.2640 C   0  0  0  0  0  0  0  0  0  0  0  0
   17.6397  -11.2283  -17.0899 C   0  0  0  0  0  0  0  0  0  0  0  0
   16.7011  -10.7647  -17.7594 O   0  0  0  0  0  0  0  0  0  0  0  0
   21.0131   -7.9802  -15.6074 C   0  0  0  0  0  0  0  0  0  0  0  0
   21.9349   -7.9360  -14.7825 O   0  0  0  0  0  0  0  0  0  0  0  0
   17.3608  -12.2429  -16.1938 O   0  0  0  0  0  0  0  0  0  0  0  0
   23.4112   -3.4489  -14.2056 N   0  0  0  0  0  0  0  0  0  0  0  0
   22.1924   -3.7012  -14.8573 C   0  0  0  0  0  0  0  0  0  0  0  0
   21.3633   -2.7673  -14.9614 O   0  0  0  0  0  0  0  0  0  0  0  0
   21.8772   -5.0053  -15.4061 C   0  0  0  0  0  0  0  0  0  0  0  0
   20.5220   -5.5488  -15.1686 C   0  0  2  0  0  0  0  0  0  0  0  0
   20.2229   -6.7962  -15.7916 N   0  0  0  0  0  0  0  0  0  0  0  0
   19.5131   -4.5419  -15.5763 C   0  0  0  0  0  0  0  0  0  0  0  0
   19.3601   -4.3252  -16.8008 O   0  0  0  0  0  0  0  0  0  0  0  0
   18.7656   -3.8633  -14.6331 O   0  0  0  0  0  0  0  0  0  0  0  0
  1  2  1  0
  2  3  1  0
  3  5  1  0
  3  4  1  6
  5  6  2  0
  7  8  1  0
  7  5  1  0
  8 13  1  0
  8  9  1  1
 10  9  1  0
 10 11  1  0
 11 12  2  0
 11 15  1  0
 13 21  1  0
 13 14  2  0
 17 16  1  0
 17 18  2  0
 19 17  1  0
 20 19  1  6
 21 20  1  0
 22 24  1  0
 22 20  1  0
 23 22  2  0
M  END
$$$$
