SEN.pdb
     RDKit          3D

 24 23  0  0  1  0  0  0  0  0999 V2000
   20.5968  -12.5178  -19.8993 O   0  0  0  0  0  0  0  0  0  0  0  0
   20.1333  -12.2028  -18.6053 C   0  0  0  0  0  0  0  0  0  0  0  0
   21.3137  -12.1460  -17.6892 C   0  0  2  0  0  0  0  0  0  0  0  0
   21.4069  -13.3881  -16.9514 N   0  0  0  0  0  0  0  0  0  0  0  0
   21.1462  -11.0327  -16.7095 C   0  0  0  0  0  0  0  0  0  0  0  0
   20.4230  -11.1645  -15.6922 O   0  0  0  0  0  0  0  0  0  0  0  0
   21.8043   -9.7787  -16.8975 N   0  0  0  0  0  0  0  0  0  0  0  0
   21.6112   -8.6412  -16.0354 C   0  0  1  0  0  0  0  0  0  0  0  0
   22.8506   -7.7517  -16.0003 C   0  0  0  0  0  0  0  0  0  0  0  0
   22.5925   -6.6117  -15.0414 C   0  0  0  0  0  0  0  0  0  0  0  0
   23.7197   -5.6753  -15.0377 C   0  0  0  0  0  0  0  0  0  0  0  0
   23.5772   -4.5349  -14.5652 O   0  0  0  0  0  0  0  0  0  0  0  0
   20.4027   -7.8558  -16.3989 C   0  0  0  0  0  0  0  0  0  0  0  0
   20.2044   -7.5458  -17.5807 O   0  0  0  0  0  0  0  0  0  0  0  0
   24.9574   -6.0178  -15.5487 O   0  0  0  0  0  0  0  0  0  0  0  0
   15.9033   -5.0375  -15.9017 N   0  0  0  0  0  0  0  0  0  0  0  0
   15.8203   -6.3382  -15.3771 C   0  0  0  0  0  0  0  0  0  0  0  0
   14.7062   -6.7567  -14.9848 O   0  0  0  0  0  0  0  0  0  0  0  0
   16.9841   -7.1971  -15.2813 C   0  0  0  0  0  0  0  0  0  0  0  0
   18.2813   -6.6623  -15.7500 C   0  0  2  0  0  0  0  0  0  0  0  0
   19.4370   -7.4321  -15.4251 N   0  0  0  0  0  0  0  0  0  0  0  0
   18.4529   -5.2803  -15.2414 C   0  0  0  0  0  0  0  0  0  0  0  0
   18.9205   -5.1319  -14.0886 O   0  0  0  0  0  0  0  0  0  0  0  0
   18.1066   -4.1903  -16.0164 O   0  0  0  0  0  0  0  0  0  0  0  0
  1  2  1  0
  2  3  1  0
  3  5  1  0
  3  4  1  1
  5  6  2  0
  7  8  1  0
  7  5  1  0
  8 13  1  0
  8  9  1  6
 10  9  1  0
 10 11  1  0
 11 12  2  0
 11 15  1  0
 13 21  1  0
 13 14  2  0
 17 16  1  0
 17 18  2  0
 19 17  1  0
 20 19  1  1
 21 20  1  0
 22 24  1  0
 22 20  1  0
 23 22  2  0
M  END
$$$$
