SEN.pdb
     RDKit          3D

 24 23  0  0  1  0  0  0  0  0999 V2000
   27.3886  -12.9233  -15.8449 O   0  0  0  0  0  0  0  0  0  0  0  0
   26.4172  -11.9930  -16.2684 C   0  0  0  0  0  0  0  0  0  0  0  0
   25.1847  -12.7484  -16.6505 C   0  0  2  0  0  0  0  0  0  0  0  0
   25.4142  -13.4361  -17.9036 N   0  0  0  0  0  0  0  0  0  0  0  0
   24.0449  -11.8036  -16.8385 C   0  0  0  0  0  0  0  0  0  0  0  0
   23.8594  -11.2172  -17.9326 O   0  0  0  0  0  0  0  0  0  0  0  0
   23.1259  -11.5350  -15.7781 N   0  0  0  0  0  0  0  0  0  0  0  0
   21.9937  -10.6546  -15.9097 C   0  0  1  0  0  0  0  0  0  0  0  0
   20.6902  -11.3670  -15.5604 C   0  0  0  0  0  0  0  0  0  0  0  0
   19.5405  -10.4322  -15.8606 C   0  0  0  0  0  0  0  0  0  0  0  0
   18.2575  -11.1070  -15.6469 C   0  0  0  0  0  0  0  0  0  0  0  0
   17.1961  -10.5251  -15.9280 O   0  0  0  0  0  0  0  0  0  0  0  0
   22.1503   -9.4102  -15.1120 C   0  0  0  0  0  0  0  0  0  0  0  0
   23.1741   -9.2375  -14.4380 O   0  0  0  0  0  0  0  0  0  0  0  0
   18.1809  -12.3888  -15.1356 O   0  0  0  0  0  0  0  0  0  0  0  0
   22.0336   -4.3528  -13.8348 N   0  0  0  0  0  0  0  0  0  0  0  0
   22.8177   -4.9919  -14.8098 C   0  0  0  0  0  0  0  0  0  0  0  0
   23.7586   -4.3531  -15.3361 O   0  0  0  0  0  0  0  0  0  0  0  0
   22.5638   -6.3602  -15.2153 C   0  0  0  0  0  0  0  0  0  0  0  0
   21.4014   -7.0557  -14.6206 C   0  0  2  0  0  0  0  0  0  0  0  0
   21.1509   -8.3801  -15.0863 N   0  0  0  0  0  0  0  0  0  0  0  0
   20.1859   -6.2292  -14.8137 C   0  0  0  0  0  0  0  0  0  0  0  0
   19.5890   -6.3089  -15.9124 O   0  0  0  0  0  0  0  0  0  0  0  0
   19.7270   -5.3962  -13.8115 O   0  0  0  0  0  0  0  0  0  0  0  0
  1  2  1  0
  2  3  1  0
  3  5  1  0
  3  4  1  6
  5  6  2  0
  7  8  1  0
  7  5  1  0
  8 13  1  0
  8  9  1  1
 10  9  1  0
 10 11  1  0
 11 12  2  0
 11 15  1  0
 13 21  1  0
 13 14  2  0
 17 16  1  0
 17 18  2  0
 19 17  1  0
 20 19  1  6
 21 20  1  0
 22 24  1  0
 22 20  1  0
 23 22  2  0
M  END
$$$$
