SEN.pdb
     RDKit          3D

 24 23  0  0  1  0  0  0  0  0999 V2000
   29.0495  -33.3452   -4.7249 O   0  0  0  0  0  0  0  0  0  0  0  0
   29.0496  -34.6864   -4.2892 C   0  0  0  0  0  0  0  0  0  0  0  0
   30.4662  -35.1636   -4.2527 C   0  0  2  0  0  0  0  0  0  0  0  0
   30.5203  -36.5369   -4.7077 N   0  0  0  0  0  0  0  0  0  0  0  0
   30.9853  -35.1144   -2.8544 C   0  0  0  0  0  0  0  0  0  0  0  0
   30.4946  -35.8362   -1.9523 O   0  0  0  0  0  0  0  0  0  0  0  0
   32.0593  -34.2432   -2.4957 N   0  0  0  0  0  0  0  0  0  0  0  0
   32.4960  -34.0344   -1.1393 C   0  0  1  0  0  0  0  0  0  0  0  0
   33.7115  -33.1137   -1.0806 C   0  0  0  0  0  0  0  0  0  0  0  0
   34.0620  -32.8785    0.3712 C   0  0  0  0  0  0  0  0  0  0  0  0
   35.1989  -31.9610    0.4854 C   0  0  0  0  0  0  0  0  0  0  0  0
   35.7361  -31.5083   -0.5396 O   0  0  0  0  0  0  0  0  0  0  0  0
   31.4041  -33.5303   -0.2657 C   0  0  0  0  0  0  0  0  0  0  0  0
   30.3630  -33.0942   -0.7738 O   0  0  0  0  0  0  0  0  0  0  0  0
   35.7058  -31.5728    1.7112 O   0  0  0  0  0  0  0  0  0  0  0  0
   26.9054  -33.8841    2.9059 N   0  0  0  0  0  0  0  0  0  0  0  0
   28.0402  -33.0998    2.6390 C   0  0  0  0  0  0  0  0  0  0  0  0
   28.1143  -31.9584    3.1508 O   0  0  0  0  0  0  0  0  0  0  0  0
   29.1156  -33.5784    1.7931 C   0  0  0  0  0  0  0  0  0  0  0  0
   30.4723  -33.0349    2.0216 C   0  0  2  0  0  0  0  0  0  0  0  0
   31.5025  -33.5256    1.1662 N   0  0  0  0  0  0  0  0  0  0  0  0
   30.8581  -33.2616    3.4350 C   0  0  0  0  0  0  0  0  0  0  0  0
   31.2254  -34.4125    3.7669 O   0  0  0  0  0  0  0  0  0  0  0  0
   30.8127  -32.2338    4.3572 O   0  0  0  0  0  0  0  0  0  0  0  0
  1  2  1  0
  2  3  1  0
  3  5  1  0
  3  4  1  1
  5  6  2  0
  7  8  1  0
  7  5  1  0
  8 13  1  0
  8  9  1  6
 10  9  1  0
 10 11  1  0
 11 12  2  0
 11 15  1  0
 13 21  1  0
 13 14  2  0
 17 16  1  0
 17 18  2  0
 19 17  1  0
 20 19  1  6
 21 20  1  0
 22 24  1  0
 22 20  1  0
 23 22  2  0
M  END
$$$$
