SEN.pdb
     RDKit          3D

 24 23  0  0  1  0  0  0  0  0999 V2000
   15.3642   -9.1025  -18.1205 O   0  0  0  0  0  0  0  0  0  0  0  0
   16.3589   -9.1732  -17.1236 C   0  0  0  0  0  0  0  0  0  0  0  0
   17.3988  -10.1495  -17.5723 C   0  0  2  0  0  0  0  0  0  0  0  0
   16.9555  -11.4938  -17.2692 N   0  0  0  0  0  0  0  0  0  0  0  0
   18.6776   -9.9041  -16.8430 C   0  0  0  0  0  0  0  0  0  0  0  0
   18.7839  -10.1470  -15.6161 O   0  0  0  0  0  0  0  0  0  0  0  0
   19.8244   -9.3840  -17.5178 N   0  0  0  0  0  0  0  0  0  0  0  0
   21.0693   -9.0860  -16.8579 C   0  0  1  0  0  0  0  0  0  0  0  0
   22.2642   -9.5492  -17.6865 C   0  0  0  0  0  0  0  0  0  0  0  0
   22.3735  -11.0524  -17.5669 C   0  0  0  0  0  0  0  0  0  0  0  0
   23.4799  -11.5559  -18.3853 C   0  0  0  0  0  0  0  0  0  0  0  0
   24.5860  -11.7777  -17.8643 O   0  0  0  0  0  0  0  0  0  0  0  0
   21.1917   -7.6470  -16.5060 C   0  0  0  0  0  0  0  0  0  0  0  0
   20.9842   -6.7840  -17.3688 O   0  0  0  0  0  0  0  0  0  0  0  0
   23.3380  -11.7980  -19.7386 O   0  0  0  0  0  0  0  0  0  0  0  0
   21.6817   -3.0102  -14.2042 N   0  0  0  0  0  0  0  0  0  0  0  0
   20.5210   -3.5845  -14.7491 C   0  0  0  0  0  0  0  0  0  0  0  0
   19.5143   -2.8576  -14.9174 O   0  0  0  0  0  0  0  0  0  0  0  0
   20.4644   -4.9855  -15.1167 C   0  0  0  0  0  0  0  0  0  0  0  0
   21.6444   -5.8280  -14.8231 C   0  0  2  0  0  0  0  0  0  0  0  0
   21.5459   -7.2032  -15.1877 N   0  0  0  0  0  0  0  0  0  0  0  0
   21.9722   -5.7246  -13.3809 C   0  0  0  0  0  0  0  0  0  0  0  0
   21.8851   -6.7610  -12.6824 O   0  0  0  0  0  0  0  0  0  0  0  0
   22.3613   -4.5209  -12.8256 O   0  0  0  0  0  0  0  0  0  0  0  0
  1  2  1  0
  2  3  1  0
  3  5  1  0
  3  4  1  1
  5  6  2  0
  7  8  1  0
  7  5  1  0
  8 13  1  0
  8  9  1  6
 10  9  1  0
 10 11  1  0
 11 12  2  0
 11 15  1  0
 13 21  1  0
 13 14  2  0
 17 16  1  0
 17 18  2  0
 19 17  1  0
 20 19  1  1
 21 20  1  0
 22 24  1  0
 22 20  1  0
 23 22  2  0
M  END
$$$$
