SEN.pdb
     RDKit          3D

 24 23  0  0  1  0  0  0  0  0999 V2000
   15.3813  -13.0823  -15.0483 O   0  0  0  0  0  0  0  0  0  0  0  0
   16.2655  -12.2666  -15.7840 C   0  0  0  0  0  0  0  0  0  0  0  0
   16.9796  -11.3702  -14.8237 C   0  0  2  0  0  0  0  0  0  0  0  0
   16.0111  -10.5641  -14.1110 N   0  0  0  0  0  0  0  0  0  0  0  0
   17.8944  -10.4534  -15.5654 C   0  0  0  0  0  0  0  0  0  0  0  0
   19.1094  -10.7294  -15.7173 O   0  0  0  0  0  0  0  0  0  0  0  0
   17.4169   -9.2299  -16.1276 N   0  0  0  0  0  0  0  0  0  0  0  0
   18.2544   -8.3027  -16.8440 C   0  0  1  0  0  0  0  0  0  0  0  0
   17.5699   -7.7974  -18.1108 C   0  0  0  0  0  0  0  0  0  0  0  0
   18.5378   -6.9029  -18.8516 C   0  0  0  0  0  0  0  0  0  0  0  0
   18.1030   -6.7081  -20.2374 C   0  0  0  0  0  0  0  0  0  0  0  0
   18.7598   -7.2032  -21.1689 O   0  0  0  0  0  0  0  0  0  0  0  0
   18.6999   -7.1693  -15.9917 C   0  0  0  0  0  0  0  0  0  0  0  0
   17.9051   -6.6478  -15.1989 O   0  0  0  0  0  0  0  0  0  0  0  0
   16.9704   -5.9821  -20.5540 O   0  0  0  0  0  0  0  0  0  0  0  0
   21.6740   -3.6361  -13.4295 N   0  0  0  0  0  0  0  0  0  0  0  0
   22.0808   -4.9774  -13.3332 C   0  0  0  0  0  0  0  0  0  0  0  0
   22.9875   -5.2723  -12.5200 O   0  0  0  0  0  0  0  0  0  0  0  0
   21.4799   -6.0163  -14.1461 C   0  0  0  0  0  0  0  0  0  0  0  0
   20.5048   -5.6098  -15.1817 C   0  0  2  0  0  0  0  0  0  0  0  0
   20.0336   -6.6416  -16.0462 N   0  0  0  0  0  0  0  0  0  0  0  0
   21.0838   -4.5139  -15.9951 C   0  0  0  0  0  0  0  0  0  0  0  0
   20.6826   -3.3467  -15.7798 O   0  0  0  0  0  0  0  0  0  0  0  0
   22.0364   -4.7737  -16.9614 O   0  0  0  0  0  0  0  0  0  0  0  0
  1  2  1  0
  2  3  1  0
  3  5  1  0
  3  4  1  6
  5  6  2  0
  7  8  1  0
  7  5  1  0
  8 13  1  0
  8  9  1  6
 10  9  1  0
 10 11  1  0
 11 12  2  0
 11 15  1  0
 13 21  1  0
 13 14  2  0
 17 16  1  0
 17 18  2  0
 19 17  1  0
 20 19  1  1
 21 20  1  0
 22 24  1  0
 22 20  1  0
 23 22  2  0
M  END
$$$$
