SEN.pdb
     RDKit          3D

 24 23  0  0  1  0  0  0  0  0999 V2000
   16.9362  -12.8189  -14.1573 O   0  0  0  0  0  0  0  0  0  0  0  0
   16.4839  -12.5909  -15.4733 C   0  0  0  0  0  0  0  0  0  0  0  0
   17.3539  -13.3712  -16.4061 C   0  0  2  0  0  0  0  0  0  0  0  0
   17.4775  -14.7297  -15.9213 N   0  0  0  0  0  0  0  0  0  0  0  0
   18.7179  -12.7678  -16.4566 C   0  0  0  0  0  0  0  0  0  0  0  0
   19.7257  -13.4601  -16.7406 O   0  0  0  0  0  0  0  0  0  0  0  0
   18.9222  -11.3805  -16.1831 N   0  0  0  0  0  0  0  0  0  0  0  0
   20.1861  -10.7125  -16.3570 C   0  0  1  0  0  0  0  0  0  0  0  0
   20.7374  -10.9203  -17.7647 C   0  0  0  0  0  0  0  0  0  0  0  0
   19.8160  -10.2300  -18.7446 C   0  0  0  0  0  0  0  0  0  0  0  0
   20.3305  -10.3531  -20.1111 C   0  0  0  0  0  0  0  0  0  0  0  0
   21.3847  -10.9757  -20.3233 O   0  0  0  0  0  0  0  0  0  0  0  0
   20.1110   -9.2659  -16.0233 C   0  0  0  0  0  0  0  0  0  0  0  0
   19.0334   -8.6663  -16.1301 O   0  0  0  0  0  0  0  0  0  0  0  0
   19.6766   -9.7934  -21.1925 O   0  0  0  0  0  0  0  0  0  0  0  0
   23.0321   -4.4599  -14.0602 N   0  0  0  0  0  0  0  0  0  0  0  0
   22.2697   -5.5079  -13.5177 C   0  0  0  0  0  0  0  0  0  0  0  0
   21.5595   -5.2748  -12.5119 O   0  0  0  0  0  0  0  0  0  0  0  0
   22.2871   -6.8391  -14.0912 C   0  0  0  0  0  0  0  0  0  0  0  0
   21.1546   -7.2368  -14.9560 C   0  0  2  0  0  0  0  0  0  0  0  0
   21.2511   -8.5180  -15.5747 N   0  0  0  0  0  0  0  0  0  0  0  0
   20.9486   -6.2025  -15.9980 C   0  0  0  0  0  0  0  0  0  0  0  0
   21.4346   -6.4078  -17.1344 O   0  0  0  0  0  0  0  0  0  0  0  0
   20.2423   -5.0476  -15.7224 O   0  0  0  0  0  0  0  0  0  0  0  0
  1  2  1  0
  2  3  1  0
  3  5  1  0
  3  4  1  1
  5  6  2  0
  7  8  1  0
  7  5  1  0
  8 13  1  0
  8  9  1  6
 10  9  1  0
 10 11  1  0
 11 12  2  0
 11 15  1  0
 13 21  1  0
 13 14  2  0
 17 16  1  0
 17 18  2  0
 19 17  1  0
 20 19  1  6
 21 20  1  0
 22 24  1  0
 22 20  1  0
 23 22  2  0
M  END
$$$$
