SEN.pdb
     RDKit          3D

 24 23  0  0  1  0  0  0  0  0999 V2000
   21.7210  -12.7046  -19.8786 O   0  0  0  0  0  0  0  0  0  0  0  0
   21.0884  -12.0972  -18.7744 C   0  0  0  0  0  0  0  0  0  0  0  0
   22.1450  -11.4848  -17.9116 C   0  0  2  0  0  0  0  0  0  0  0  0
   22.8819  -12.5343  -17.2400 N   0  0  0  0  0  0  0  0  0  0  0  0
   21.5160  -10.6177  -16.8725 C   0  0  0  0  0  0  0  0  0  0  0  0
   20.7338  -11.0938  -16.0141 O   0  0  0  0  0  0  0  0  0  0  0  0
   21.7837   -9.2153  -16.8204 N   0  0  0  0  0  0  0  0  0  0  0  0
   21.2321   -8.3361  -15.8219 C   0  0  1  0  0  0  0  0  0  0  0  0
   22.2446   -7.2798  -15.3887 C   0  0  0  0  0  0  0  0  0  0  0  0
   21.6345   -6.4641  -14.2716 C   0  0  0  0  0  0  0  0  0  0  0  0
   22.5853   -5.4594  -13.7876 C   0  0  0  0  0  0  0  0  0  0  0  0
   22.2708   -4.7097  -12.8479 O   0  0  0  0  0  0  0  0  0  0  0  0
   19.9614   -7.7050  -16.2650 C   0  0  0  0  0  0  0  0  0  0  0  0
   19.8814   -7.2163  -17.3994 O   0  0  0  0  0  0  0  0  0  0  0  0
   23.8407   -5.3110  -14.3462 O   0  0  0  0  0  0  0  0  0  0  0  0
   14.0187   -7.9513  -15.9571 N   0  0  0  0  0  0  0  0  0  0  0  0
   15.0535   -7.1047  -15.5253 C   0  0  0  0  0  0  0  0  0  0  0  0
   14.8395   -5.8708  -15.4804 O   0  0  0  0  0  0  0  0  0  0  0  0
   16.3496   -7.6231  -15.1349 C   0  0  0  0  0  0  0  0  0  0  0  0
   17.5403   -7.1356  -15.8650 C   0  0  2  0  0  0  0  0  0  0  0  0
   18.8011   -7.6345  -15.4230 N   0  0  0  0  0  0  0  0  0  0  0  0
   17.5602   -5.6536  -15.8336 C   0  0  0  0  0  0  0  0  0  0  0  0
   18.0030   -5.0931  -14.8042 O   0  0  0  0  0  0  0  0  0  0  0  0
   17.1033   -4.9143  -16.9076 O   0  0  0  0  0  0  0  0  0  0  0  0
  1  2  1  0
  2  3  1  0
  3  5  1  0
  3  4  1  1
  5  6  2  0
  7  8  1  0
  7  5  1  0
  8 13  1  0
  8  9  1  6
 10  9  1  0
 10 11  1  0
 11 12  2  0
 11 15  1  0
 13 21  1  0
 13 14  2  0
 17 16  1  0
 17 18  2  0
 19 17  1  0
 20 19  1  1
 21 20  1  0
 22 24  1  0
 22 20  1  0
 23 22  2  0
M  END
$$$$
