SEN.pdb
     RDKit          3D

 24 23  0  0  1  0  0  0  0  0999 V2000
   13.7505   -5.1534   -7.9893 O   0  0  0  0  0  0  0  0  0  0  0  0
   14.9206   -5.7875   -8.4553 C   0  0  0  0  0  0  0  0  0  0  0  0
   14.5525   -7.1603   -8.9198 C   0  0  2  0  0  0  0  0  0  0  0  0
   14.2846   -7.9985   -7.7703 N   0  0  0  0  0  0  0  0  0  0  0  0
   15.6856   -7.7619   -9.6823 C   0  0  0  0  0  0  0  0  0  0  0  0
   16.7238   -8.1593   -9.0995 O   0  0  0  0  0  0  0  0  0  0  0  0
   15.6262   -7.9056  -11.1024 N   0  0  0  0  0  0  0  0  0  0  0  0
   16.6887   -8.4753  -11.8901 C   0  0  1  0  0  0  0  0  0  0  0  0
   16.1493   -9.4551  -12.9282 C   0  0  0  0  0  0  0  0  0  0  0  0
   15.7010  -10.7093  -12.2127 C   0  0  0  0  0  0  0  0  0  0  0  0
   15.2639  -11.7241  -13.1752 C   0  0  0  0  0  0  0  0  0  0  0  0
   15.8752  -12.8026  -13.2601 O   0  0  0  0  0  0  0  0  0  0  0  0
   17.5372   -7.4360  -12.5300 C   0  0  0  0  0  0  0  0  0  0  0  0
   17.0130   -6.4142  -12.9919 O   0  0  0  0  0  0  0  0  0  0  0  0
   14.1784  -11.5244  -14.0071 O   0  0  0  0  0  0  0  0  0  0  0  0
   21.6797   -4.8563  -14.6023 N   0  0  0  0  0  0  0  0  0  0  0  0
   22.0233   -5.4627  -13.3824 C   0  0  0  0  0  0  0  0  0  0  0  0
   23.1231   -5.1719  -12.8568 O   0  0  0  0  0  0  0  0  0  0  0  0
   21.1415   -6.4076  -12.7260 C   0  0  0  0  0  0  0  0  0  0  0  0
   19.7890   -6.6032  -13.2926 C   0  0  2  0  0  0  0  0  0  0  0  0
   18.9627   -7.5644  -12.6391 N   0  0  0  0  0  0  0  0  0  0  0  0
   19.9064   -6.9520  -14.7288 C   0  0  0  0  0  0  0  0  0  0  0  0
   20.4341   -6.1139  -15.4961 O   0  0  0  0  0  0  0  0  0  0  0  0
   19.4465   -8.1647  -15.2049 O   0  0  0  0  0  0  0  0  0  0  0  0
  1  2  1  0
  2  3  1  0
  3  5  1  0
  3  4  1  1
  5  6  2  0
  7  8  1  0
  7  5  1  0
  8 13  1  0
  8  9  1  6
 10  9  1  0
 10 11  1  0
 11 12  2  0
 11 15  1  0
 13 21  1  0
 13 14  2  0
 17 16  1  0
 17 18  2  0
 19 17  1  0
 20 19  1  1
 21 20  1  0
 22 24  1  0
 22 20  1  0
 23 22  2  0
M  END
$$$$
