VRN.pdb
     RDKit          3D

 27 26  0  0  1  0  0  0  0  0999 V2000
    8.3854  -12.4309   19.1284 C   0  0  0  0  0  0  0  0  0  0  0  0
    8.2951  -13.1951   20.4172 C   0  0  1  0  0  0  0  0  0  0  0  0
    7.4343  -12.5440   21.4591 C   0  0  0  0  0  0  0  0  0  0  0  0
    8.0041  -14.6622   20.2211 C   0  0  2  0  0  0  0  0  0  0  0  0
    6.7685  -14.7485   19.4619 N   0  0  0  0  0  0  0  0  0  0  0  0
    7.9218  -15.4400   21.4458 C   0  0  0  0  0  0  0  0  0  0  0  0
    6.9174  -15.2233   22.2081 O   0  0  0  0  0  0  0  0  0  0  0  0
    8.0830  -21.4251   26.8094 N   0  0  0  0  0  0  0  0  0  0  0  0
    7.6183  -21.8791   25.5329 C   0  0  0  0  0  0  0  0  0  0  0  0
    6.6422  -22.7173   25.5299 N   0  0  0  0  0  0  0  0  0  0  0  0
    8.2060  -21.4269   24.3138 N   0  0  0  0  0  0  0  0  0  0  0  0
    9.3620  -20.5734   24.4264 C   0  0  0  0  0  0  0  0  0  0  0  0
    8.9484  -19.1063   24.5593 C   0  0  0  0  0  0  0  0  0  0  0  0
    9.0424  -18.4887   23.1824 C   0  0  0  0  0  0  0  0  0  0  0  0
    8.7026  -17.0242   23.1989 C   0  0  2  0  0  0  0  0  0  0  0  0
    8.8221  -16.4092   21.8945 N   0  0  0  0  0  0  0  0  0  0  0  0
    9.6627  -16.3766   24.1568 C   0  0  0  0  0  0  0  0  0  0  0  0
   10.4156  -15.4628   23.7489 O   0  0  0  0  0  0  0  0  0  0  0  0
    6.2271  -23.0772   24.6485 N   0  0  0  0  0  0  0  0  0  0  0  0
   10.3419  -13.9725   28.5801 C   0  0  0  0  0  0  0  0  0  0  0  0
    9.2771  -13.7802   27.6705 O   0  0  0  0  0  0  0  0  0  0  0  0
    8.5369  -12.7806   27.7709 C   0  0  0  0  0  0  0  0  0  0  0  0
    9.0191  -14.7646   26.5775 C   0  0  2  0  0  0  0  0  0  0  0  0
   10.0227  -15.8879   26.6055 N   0  0  0  0  0  0  0  0  0  0  0  0
    9.7362  -16.7739   25.5074 C   0  0  0  0  0  0  0  0  0  0  0  0
   10.0398  -16.5878   27.9094 O   0  0  0  0  0  0  0  0  0  0  0  0
   10.8977  -16.2726   28.9478 O   0  0  0  0  0  0  0  0  0  0  0  0
  2  1  1  6
  2  3  1  0
  4  2  1  0
  4  5  1  1
  6  7  2  0
  6  4  1  0
  9  8  1  0
 10  9  2  0
 11  9  1  0
 12 11  1  0
 13 14  1  0
 13 12  1  0
 15 16  1  0
 15 14  1  6
 16  6  1  0
 17 15  1  0
 18 17  2  0
 19 20  1  0
 20 22  1  0
 21 20  2  0
 23 22  1  6
 23 24  1  0
 24 17  1  0
 25 23  1  0
 25 26  1  0
 27 25  2  0
M  END
$$$$
