VRN.pdb
     RDKit          3D

 27 26  0  0  1  0  0  0  0  0999 V2000
    9.7851  -12.3295   20.1341 C   0  0  0  0  0  0  0  0  0  0  0  0
    8.5174  -13.0023   19.6943 C   0  0  1  0  0  0  0  0  0  0  0  0
    7.3341  -12.0847   19.6026 C   0  0  0  0  0  0  0  0  0  0  0  0
    8.6986  -13.8807   18.4814 C   0  0  2  0  0  0  0  0  0  0  0  0
    7.4093  -14.4916   18.2077 N   0  0  0  0  0  0  0  0  0  0  0  0
    9.7398  -14.8871   18.6033 C   0  0  0  0  0  0  0  0  0  0  0  0
    9.4247  -15.9858   19.1781 O   0  0  0  0  0  0  0  0  0  0  0  0
   12.8683  -16.5077   12.7886 N   0  0  0  0  0  0  0  0  0  0  0  0
   11.8427  -17.5042   12.8697 C   0  0  0  0  0  0  0  0  0  0  0  0
   11.2036  -17.7754   11.7864 N   0  0  0  0  0  0  0  0  0  0  0  0
   11.5368  -18.1713   14.0933 N   0  0  0  0  0  0  0  0  0  0  0  0
   12.3222  -17.8083   15.2460 C   0  0  0  0  0  0  0  0  0  0  0  0
   11.8189  -16.5011   15.8618 C   0  0  0  0  0  0  0  0  0  0  0  0
   12.7453  -16.1605   17.0072 C   0  0  0  0  0  0  0  0  0  0  0  0
   11.9912  -15.8971   18.2808 C   0  0  2  0  0  0  0  0  0  0  0  0
   11.0615  -14.7947   18.1607 N   0  0  0  0  0  0  0  0  0  0  0  0
   13.0227  -15.5813   19.3272 C   0  0  0  0  0  0  0  0  0  0  0  0
   13.6756  -14.5158   19.2450 O   0  0  0  0  0  0  0  0  0  0  0  0
   10.4308  -18.4690   11.7610 N   0  0  0  0  0  0  0  0  0  0  0  0
   14.4725  -15.9648   25.0499 C   0  0  0  0  0  0  0  0  0  0  0  0
   14.7271  -15.5785   23.7142 O   0  0  0  0  0  0  0  0  0  0  0  0
   15.8205  -15.0620   23.4064 C   0  0  0  0  0  0  0  0  0  0  0  0
   13.6975  -15.7799   22.6513 C   0  0  2  0  0  0  0  0  0  0  0  0
   14.3209  -16.2802   21.3743 N   0  0  0  0  0  0  0  0  0  0  0  0
   13.2737  -16.4579   20.4024 C   0  0  0  0  0  0  0  0  0  0  0  0
   15.1130  -17.5124   21.5861 O   0  0  0  0  0  0  0  0  0  0  0  0
   14.7610  -18.7554   21.0916 O   0  0  0  0  0  0  0  0  0  0  0  0
  2  1  1  6
  2  3  1  0
  4  2  1  0
  4  5  1  1
  6  7  2  0
  6  4  1  0
  9  8  1  0
 10  9  2  0
 11  9  1  0
 12 11  1  0
 13 14  1  0
 13 12  1  0
 15 16  1  0
 15 14  1  6
 16  6  1  0
 17 15  1  0
 18 17  2  0
 19 20  1  0
 20 22  1  0
 21 20  2  0
 23 22  1  6
 23 24  1  0
 24 17  1  0
 25 23  1  0
 25 26  1  0
 27 25  2  0
M  END
$$$$
