VRN.pdb
     RDKit          3D

 27 26  0  0  1  0  0  0  0  0999 V2000
    8.6501  -12.9378   21.3692 C   0  0  0  0  0  0  0  0  0  0  0  0
    7.8577  -13.2092   20.1236 C   0  0  1  0  0  0  0  0  0  0  0  0
    7.2608  -11.9845   19.4956 C   0  0  0  0  0  0  0  0  0  0  0  0
    8.5751  -14.1043   19.1439 C   0  0  2  0  0  0  0  0  0  0  0  0
    7.6473  -14.3682   18.0576 N   0  0  0  0  0  0  0  0  0  0  0  0
    9.0884  -15.3418   19.7065 C   0  0  0  0  0  0  0  0  0  0  0  0
    8.2545  -16.2981   19.8708 O   0  0  0  0  0  0  0  0  0  0  0  0
   10.8342  -20.9763   17.9664 N   0  0  0  0  0  0  0  0  0  0  0  0
   11.2057  -20.4469   16.6884 C   0  0  0  0  0  0  0  0  0  0  0  0
   10.6406  -20.9635   15.6544 N   0  0  0  0  0  0  0  0  0  0  0  0
   12.1592  -19.3933   16.5587 N   0  0  0  0  0  0  0  0  0  0  0  0
   12.5754  -18.7396   17.7739 C   0  0  0  0  0  0  0  0  0  0  0  0
   11.3682  -18.2196   18.5571 C   0  0  0  0  0  0  0  0  0  0  0  0
   11.8997  -17.5378   19.7976 C   0  0  0  0  0  0  0  0  0  0  0  0
   10.8009  -16.9070   20.6068 C   0  0  2  0  0  0  0  0  0  0  0  0
   10.4027  -15.6138   20.0941 N   0  0  0  0  0  0  0  0  0  0  0  0
   11.3346  -16.7582   22.0039 C   0  0  0  0  0  0  0  0  0  0  0  0
   12.0566  -15.7742   22.2846 O   0  0  0  0  0  0  0  0  0  0  0  0
   10.8008  -20.5952   14.6966 N   0  0  0  0  0  0  0  0  0  0  0  0
   12.2840  -17.7907   27.0213 C   0  0  0  0  0  0  0  0  0  0  0  0
   10.9387  -18.0915   26.7089 O   0  0  0  0  0  0  0  0  0  0  0  0
   10.1314  -18.3788   27.6161 C   0  0  0  0  0  0  0  0  0  0  0  0
   10.4601  -18.0713   25.2944 C   0  0  1  0  0  0  0  0  0  0  0  0
   11.5587  -17.6541   24.3516 N   0  0  0  0  0  0  0  0  0  0  0  0
   11.0411  -17.7022   23.0090 C   0  0  0  0  0  0  0  0  0  0  0  0
   12.7786  -18.4752   24.5189 O   0  0  0  0  0  0  0  0  0  0  0  0
   13.7980  -18.1782   25.4056 O   0  0  0  0  0  0  0  0  0  0  0  0
  2  1  1  1
  2  3  1  0
  4  2  1  0
  4  5  1  6
  6  7  2  0
  6  4  1  0
  9  8  1  0
 10  9  2  0
 11  9  1  0
 12 11  1  0
 13 14  1  0
 13 12  1  0
 15 16  1  0
 15 14  1  6
 16  6  1  0
 17 15  1  0
 18 17  2  0
 19 20  1  0
 20 22  1  0
 21 20  2  0
 23 22  1  1
 23 24  1  0
 24 17  1  0
 25 23  1  0
 25 26  1  0
 27 25  2  0
M  END
$$$$
