VRN.pdb
     RDKit          3D

 27 26  0  0  1  0  0  0  0  0999 V2000
    7.8835  -12.0396   26.0862 C   0  0  0  0  0  0  0  0  0  0  0  0
    6.8310  -12.8650   26.7675 C   0  0  1  0  0  0  0  0  0  0  0  0
    6.0820  -12.1384   27.8453 C   0  0  0  0  0  0  0  0  0  0  0  0
    5.9386  -13.6066   25.8037 C   0  0  2  0  0  0  0  0  0  0  0  0
    5.1942  -14.5804   26.5835 N   0  0  0  0  0  0  0  0  0  0  0  0
    6.6288  -14.2417   24.6937 C   0  0  0  0  0  0  0  0  0  0  0  0
    6.9821  -15.4617   24.8477 O   0  0  0  0  0  0  0  0  0  0  0  0
    8.7644  -16.0531   17.0664 N   0  0  0  0  0  0  0  0  0  0  0  0
    8.5079  -14.6767   16.7646 C   0  0  0  0  0  0  0  0  0  0  0  0
    8.9653  -14.2272   15.6492 N   0  0  0  0  0  0  0  0  0  0  0  0
    7.7783  -13.8342   17.6557 N   0  0  0  0  0  0  0  0  0  0  0  0
    7.1649  -14.4690   18.7950 C   0  0  0  0  0  0  0  0  0  0  0  0
    8.1427  -14.5497   19.9691 C   0  0  0  0  0  0  0  0  0  0  0  0
    7.5722  -13.7040   21.0852 C   0  0  0  0  0  0  0  0  0  0  0  0
    7.5760  -14.4323   22.4004 C   0  0  2  0  0  0  0  0  0  0  0  0
    6.9561  -13.6693   23.4623 N   0  0  0  0  0  0  0  0  0  0  0  0
    9.0173  -14.6941   22.7363 C   0  0  0  0  0  0  0  0  0  0  0  0
    9.6987  -13.7883   23.2690 O   0  0  0  0  0  0  0  0  0  0  0  0
    8.7739  -13.2594   15.3245 N   0  0  0  0  0  0  0  0  0  0  0  0
   12.5045  -18.5898   25.1241 C   0  0  0  0  0  0  0  0  0  0  0  0
   12.2092  -18.2669   23.7800 O   0  0  0  0  0  0  0  0  0  0  0  0
   13.0771  -18.4067   22.8944 C   0  0  0  0  0  0  0  0  0  0  0  0
   10.8598  -17.7550   23.3962 C   0  0  1  0  0  0  0  0  0  0  0  0
   10.9316  -16.3267   22.9222 N   0  0  0  0  0  0  0  0  0  0  0  0
    9.6225  -15.9383   22.4659 C   0  0  0  0  0  0  0  0  0  0  0  0
   11.9729  -16.1341   21.8883 O   0  0  0  0  0  0  0  0  0  0  0  0
   13.2419  -15.6478   22.1465 O   0  0  0  0  0  0  0  0  0  0  0  0
  2  1  1  6
  2  3  1  0
  4  2  1  0
  4  5  1  1
  6  7  2  0
  6  4  1  0
  9  8  1  0
 10  9  2  0
 11  9  1  0
 12 11  1  0
 13 14  1  0
 13 12  1  0
 15 16  1  0
 15 14  1  6
 16  6  1  0
 17 15  1  0
 18 17  2  0
 19 20  1  0
 20 22  1  0
 21 20  2  0
 23 22  1  1
 23 24  1  0
 24 17  1  0
 25 23  1  0
 25 26  1  0
 27 25  2  0
M  END
$$$$
