VRN.pdb
     RDKit          3D

 27 26  0  0  1  0  0  0  0  0999 V2000
    6.1958  -10.9141   26.9490 C   0  0  0  0  0  0  0  0  0  0  0  0
    7.0068  -11.9892   26.2862 C   0  0  1  0  0  0  0  0  0  0  0  0
    8.1698  -12.4728   27.1011 C   0  0  0  0  0  0  0  0  0  0  0  0
    6.1656  -13.1014   25.7110 C   0  0  2  0  0  0  0  0  0  0  0  0
    5.5254  -13.7678   26.8320 N   0  0  0  0  0  0  0  0  0  0  0  0
    6.8883  -14.0502   24.8809 C   0  0  0  0  0  0  0  0  0  0  0  0
    7.2492  -15.1484   25.4291 O   0  0  0  0  0  0  0  0  0  0  0  0
    6.5333  -12.9884   17.4153 N   0  0  0  0  0  0  0  0  0  0  0  0
    7.7671  -13.6182   17.7794 C   0  0  0  0  0  0  0  0  0  0  0  0
    8.8531  -13.0214   17.4330 N   0  0  0  0  0  0  0  0  0  0  0  0
    7.7997  -14.8524   18.4946 N   0  0  0  0  0  0  0  0  0  0  0  0
    9.0330  -15.1850   19.1621 C   0  0  0  0  0  0  0  0  0  0  0  0
    8.7672  -15.7048   20.5765 C   0  0  0  0  0  0  0  0  0  0  0  0
    8.2449  -14.5419   21.3894 C   0  0  0  0  0  0  0  0  0  0  0  0
    7.9312  -14.9413   22.8045 C   0  0  2  0  0  0  0  0  0  0  0  0
    7.2398  -13.9023   23.5370 N   0  0  0  0  0  0  0  0  0  0  0  0
    9.2488  -15.2381   23.4637 C   0  0  0  0  0  0  0  0  0  0  0  0
    9.9778  -14.2899   23.8350 O   0  0  0  0  0  0  0  0  0  0  0  0
    9.7901  -13.4266   17.6243 N   0  0  0  0  0  0  0  0  0  0  0  0
   13.1349  -18.3536   25.1627 C   0  0  0  0  0  0  0  0  0  0  0  0
   11.8785  -18.7940   25.6377 O   0  0  0  0  0  0  0  0  0  0  0  0
   11.8014  -19.7977   26.3751 C   0  0  0  0  0  0  0  0  0  0  0  0
   10.6257  -18.0701   25.2679 C   0  0  1  0  0  0  0  0  0  0  0  0
   10.9127  -16.9222   24.3353 N   0  0  0  0  0  0  0  0  0  0  0  0
    9.6851  -16.5619   23.6749 C   0  0  0  0  0  0  0  0  0  0  0  0
   11.9987  -17.2377   23.3806 O   0  0  0  0  0  0  0  0  0  0  0  0
   11.8267  -17.3231   22.0106 O   0  0  0  0  0  0  0  0  0  0  0  0
  2  1  1  1
  2  3  1  0
  4  2  1  0
  4  5  1  1
  6  7  2  0
  6  4  1  0
  9  8  1  0
 10  9  2  0
 11  9  1  0
 12 11  1  0
 13 14  1  0
 13 12  1  0
 15 16  1  0
 15 14  1  6
 16  6  1  0
 17 15  1  0
 18 17  2  0
 19 20  1  0
 20 22  1  0
 21 20  2  0
 23 22  1  1
 23 24  1  0
 24 17  1  0
 25 23  1  0
 25 26  1  0
 27 25  2  0
M  END
$$$$
