VRN.pdb
     RDKit          3D

 27 26  0  0  1  0  0  0  0  0999 V2000
    6.4217  -10.7530   26.4057 C   0  0  0  0  0  0  0  0  0  0  0  0
    7.1086  -12.0638   26.1545 C   0  0  1  0  0  0  0  0  0  0  0  0
    8.0401  -12.4898   27.2505 C   0  0  0  0  0  0  0  0  0  0  0  0
    6.1679  -13.1524   25.7012 C   0  0  2  0  0  0  0  0  0  0  0  0
    5.2246  -13.3714   26.7841 N   0  0  0  0  0  0  0  0  0  0  0  0
    6.8116  -14.3945   25.3081 C   0  0  0  0  0  0  0  0  0  0  0  0
    6.9962  -15.2706   26.2220 O   0  0  0  0  0  0  0  0  0  0  0  0
    7.4014  -14.1179   18.0466 N   0  0  0  0  0  0  0  0  0  0  0  0
    8.5377  -13.4651   18.6246 C   0  0  0  0  0  0  0  0  0  0  0  0
    8.6859  -12.2129   18.3686 N   0  0  0  0  0  0  0  0  0  0  0  0
    9.4688  -14.1648   19.4488 N   0  0  0  0  0  0  0  0  0  0  0  0
    8.9681  -15.3077   20.1701 C   0  0  0  0  0  0  0  0  0  0  0  0
    8.6970  -14.9554   21.6342 C   0  0  0  0  0  0  0  0  0  0  0  0
    8.2236  -16.2182   22.3179 C   0  0  0  0  0  0  0  0  0  0  0  0
    7.9466  -15.9964   23.7788 C   0  0  2  0  0  0  0  0  0  0  0  0
    7.2584  -14.7491   24.0330 N   0  0  0  0  0  0  0  0  0  0  0  0
    9.2823  -15.9903   24.4678 C   0  0  0  0  0  0  0  0  0  0  0  0
    9.8963  -14.9080   24.6088 O   0  0  0  0  0  0  0  0  0  0  0  0
    9.4402  -11.6467   18.8037 N   0  0  0  0  0  0  0  0  0  0  0  0
   11.8499  -16.2807   28.9933 C   0  0  0  0  0  0  0  0  0  0  0  0
   11.2947  -17.4301   28.3863 O   0  0  0  0  0  0  0  0  0  0  0  0
   11.6585  -18.5687   28.7447 C   0  0  0  0  0  0  0  0  0  0  0  0
   10.2673  -17.3046   27.3097 C   0  0  1  0  0  0  0  0  0  0  0  0
   10.9086  -17.2258   25.9487 N   0  0  0  0  0  0  0  0  0  0  0  0
    9.8622  -17.1768   24.9610 C   0  0  0  0  0  0  0  0  0  0  0  0
   11.8578  -18.3370   25.7146 O   0  0  0  0  0  0  0  0  0  0  0  0
   13.1951  -18.3019   26.0667 O   0  0  0  0  0  0  0  0  0  0  0  0
  2  1  1  1
  2  3  1  0
  4  2  1  0
  4  5  1  1
  6  7  2  0
  6  4  1  0
  9  8  1  0
 10  9  2  0
 11  9  1  0
 12 11  1  0
 13 14  1  0
 13 12  1  0
 15 16  1  0
 15 14  1  6
 16  6  1  0
 17 15  1  0
 18 17  2  0
 19 20  1  0
 20 22  1  0
 21 20  2  0
 23 22  1  1
 23 24  1  0
 24 17  1  0
 25 23  1  0
 25 26  1  0
 27 25  2  0
M  END
$$$$
