VRN.pdb
     RDKit          3D

 27 26  0  0  1  0  0  0  0  0999 V2000
    9.9881  -23.3715   19.4482 C   0  0  0  0  0  0  0  0  0  0  0  0
   10.3548  -22.0109   19.9652 C   0  0  1  0  0  0  0  0  0  0  0  0
   11.7887  -21.8789   20.3860 C   0  0  0  0  0  0  0  0  0  0  0  0
    9.8775  -20.8877   19.0784 C   0  0  2  0  0  0  0  0  0  0  0  0
   10.5700  -21.0301   17.8093 N   0  0  0  0  0  0  0  0  0  0  0  0
   10.0584  -19.5543   19.6271 C   0  0  0  0  0  0  0  0  0  0  0  0
   11.1315  -18.9338   19.3104 O   0  0  0  0  0  0  0  0  0  0  0  0
    7.7085  -13.4678   17.9524 N   0  0  0  0  0  0  0  0  0  0  0  0
    7.6028  -12.8959   19.2612 C   0  0  0  0  0  0  0  0  0  0  0  0
    7.4901  -11.6162   19.3331 N   0  0  0  0  0  0  0  0  0  0  0  0
    7.6207  -13.7021   20.4384 N   0  0  0  0  0  0  0  0  0  0  0  0
    8.7986  -14.5023   20.6608 C   0  0  0  0  0  0  0  0  0  0  0  0
    8.6323  -15.3900   21.8960 C   0  0  0  0  0  0  0  0  0  0  0  0
    8.2845  -16.7775   21.4060 C   0  0  0  0  0  0  0  0  0  0  0  0
    9.5067  -17.5525   20.9986 C   0  0  2  0  0  0  0  0  0  0  0  0
    9.1869  -18.8612   20.4705 N   0  0  0  0  0  0  0  0  0  0  0  0
   10.3504  -17.6945   22.2342 C   0  0  0  0  0  0  0  0  0  0  0  0
   10.0300  -18.5366   23.1040 O   0  0  0  0  0  0  0  0  0  0  0  0
    7.4467  -11.1167   20.2427 N   0  0  0  0  0  0  0  0  0  0  0  0
   13.9944  -14.7466   21.3098 C   0  0  0  0  0  0  0  0  0  0  0  0
   14.0003  -15.9101   22.1124 O   0  0  0  0  0  0  0  0  0  0  0  0
   14.5119  -16.9655   21.6863 C   0  0  0  0  0  0  0  0  0  0  0  0
   13.3975  -15.8987   23.4787 C   0  0  2  0  0  0  0  0  0  0  0  0
   12.3280  -16.9513   23.6131 N   0  0  0  0  0  0  0  0  0  0  0  0
   11.4974  -16.9006   22.4381 C   0  0  0  0  0  0  0  0  0  0  0  0
   11.5512  -16.8003   24.8637 O   0  0  0  0  0  0  0  0  0  0  0  0
   10.1810  -16.6151   24.9082 O   0  0  0  0  0  0  0  0  0  0  0  0
  2  1  1  6
  2  3  1  0
  4  2  1  0
  4  5  1  6
  6  7  2  0
  6  4  1  0
  9  8  1  0
 10  9  2  0
 11  9  1  0
 12 11  1  0
 13 14  1  0
 13 12  1  0
 15 16  1  0
 15 14  1  1
 16  6  1  0
 17 15  1  0
 18 17  2  0
 19 20  1  0
 20 22  1  0
 21 20  2  0
 23 22  1  6
 23 24  1  0
 24 17  1  0
 25 23  1  0
 25 26  1  0
 27 25  2  0
M  END
$$$$
