VRN.pdb
     RDKit          3D

 27 26  0  0  1  0  0  0  0  0999 V2000
    6.9984  -12.0723   19.5363 C   0  0  0  0  0  0  0  0  0  0  0  0
    8.2421  -12.8669   19.8101 C   0  0  1  0  0  0  0  0  0  0  0  0
    8.3836  -13.3162   21.2344 C   0  0  0  0  0  0  0  0  0  0  0  0
    8.4833  -13.9628   18.8021 C   0  0  2  0  0  0  0  0  0  0  0  0
    7.3084  -14.8171   18.8198 N   0  0  0  0  0  0  0  0  0  0  0  0
    9.6957  -14.7353   19.0145 C   0  0  0  0  0  0  0  0  0  0  0  0
    9.5741  -15.8584   19.6150 O   0  0  0  0  0  0  0  0  0  0  0  0
   15.8676  -13.8192   14.8840 N   0  0  0  0  0  0  0  0  0  0  0  0
   16.4755  -13.8293   16.1808 C   0  0  0  0  0  0  0  0  0  0  0  0
   17.2257  -12.8287   16.4831 N   0  0  0  0  0  0  0  0  0  0  0  0
   16.2640  -14.8976   17.1028 N   0  0  0  0  0  0  0  0  0  0  0  0
   15.2692  -15.8775   16.7457 C   0  0  0  0  0  0  0  0  0  0  0  0
   14.2943  -16.1142   17.9011 C   0  0  0  0  0  0  0  0  0  0  0  0
   13.1546  -15.1351   17.7322 C   0  0  0  0  0  0  0  0  0  0  0  0
   12.1103  -15.2985   18.8013 C   0  0  2  0  0  0  0  0  0  0  0  0
   10.9953  -14.3912   18.6352 N   0  0  0  0  0  0  0  0  0  0  0  0
   12.7969  -15.0267   20.1103 C   0  0  0  0  0  0  0  0  0  0  0  0
   13.3017  -13.8995   20.3173 O   0  0  0  0  0  0  0  0  0  0  0  0
   17.8039  -12.8137   17.3457 N   0  0  0  0  0  0  0  0  0  0  0  0
   13.0940  -16.7362   25.8489 C   0  0  0  0  0  0  0  0  0  0  0  0
   13.8040  -16.8184   24.6294 O   0  0  0  0  0  0  0  0  0  0  0  0
   15.0517  -16.8339   24.6278 C   0  0  0  0  0  0  0  0  0  0  0  0
   13.0780  -16.8879   23.3261 C   0  0  1  0  0  0  0  0  0  0  0  0
   13.5856  -15.8478   22.3615 N   0  0  0  0  0  0  0  0  0  0  0  0
   12.8866  -16.0128   21.1138 C   0  0  0  0  0  0  0  0  0  0  0  0
   15.0556  -15.9074   22.2002 O   0  0  0  0  0  0  0  0  0  0  0  0
   15.6958  -16.5463   21.1535 O   0  0  0  0  0  0  0  0  0  0  0  0
  2  1  1  1
  2  3  1  0
  4  2  1  0
  4  5  1  1
  6  7  2  0
  6  4  1  0
  9  8  1  0
 10  9  2  0
 11  9  1  0
 12 11  1  0
 13 14  1  0
 13 12  1  0
 15 16  1  0
 15 14  1  6
 16  6  1  0
 17 15  1  0
 18 17  2  0
 19 20  1  0
 20 22  1  0
 21 20  2  0
 23 22  1  1
 23 24  1  0
 24 17  1  0
 25 23  1  0
 25 26  1  0
 27 25  2  0
M  END
$$$$
