VRN.pdb
     RDKit          3D

 27 26  0  0  1  0  0  0  0  0999 V2000
    9.8006  -19.2489   14.9000 C   0  0  0  0  0  0  0  0  0  0  0  0
   10.3834  -18.4315   13.7840 C   0  0  1  0  0  0  0  0  0  0  0  0
   10.2639  -19.0659   12.4298 C   0  0  0  0  0  0  0  0  0  0  0  0
    9.9531  -16.9861   13.8163 C   0  0  2  0  0  0  0  0  0  0  0  0
   10.6981  -16.3018   12.7736 N   0  0  0  0  0  0  0  0  0  0  0  0
   10.1205  -16.3250   15.0995 C   0  0  0  0  0  0  0  0  0  0  0  0
   11.3179  -16.1600   15.5189 O   0  0  0  0  0  0  0  0  0  0  0  0
    7.5230  -14.5674   21.9048 N   0  0  0  0  0  0  0  0  0  0  0  0
    7.5870  -13.1378   21.9647 C   0  0  0  0  0  0  0  0  0  0  0  0
    7.6257  -12.6025   23.1340 N   0  0  0  0  0  0  0  0  0  0  0  0
    7.6073  -12.3354   20.7851 N   0  0  0  0  0  0  0  0  0  0  0  0
    7.3646  -13.0105   19.5350 C   0  0  0  0  0  0  0  0  0  0  0  0
    8.5718  -13.8573   19.1266 C   0  0  0  0  0  0  0  0  0  0  0  0
    8.2329  -14.5121   17.8066 C   0  0  0  0  0  0  0  0  0  0  0  0
    9.4070  -15.2518   17.2283 C   0  0  2  0  0  0  0  0  0  0  0  0
    9.1146  -15.8422   15.9399 N   0  0  0  0  0  0  0  0  0  0  0  0
    9.7567  -16.3304   18.2148 C   0  0  0  0  0  0  0  0  0  0  0  0
    9.4508  -17.5181   17.9613 O   0  0  0  0  0  0  0  0  0  0  0  0
    7.7068  -11.5757   23.2681 N   0  0  0  0  0  0  0  0  0  0  0  0
   12.8998  -19.1905   20.8279 C   0  0  0  0  0  0  0  0  0  0  0  0
   13.3523  -18.2962   19.8312 O   0  0  0  0  0  0  0  0  0  0  0  0
   14.5499  -18.2985   19.4809 C   0  0  0  0  0  0  0  0  0  0  0  0
   12.4104  -17.3363   19.1816 C   0  0  1  0  0  0  0  0  0  0  0  0
   11.2949  -16.9477   20.1167 N   0  0  0  0  0  0  0  0  0  0  0  0
   10.4229  -16.0368   19.4220 C   0  0  0  0  0  0  0  0  0  0  0  0
   11.8033  -16.3873   21.3886 O   0  0  0  0  0  0  0  0  0  0  0  0
   12.9891  -15.6849   21.5077 O   0  0  0  0  0  0  0  0  0  0  0  0
  2  1  1  1
  2  3  1  0
  4  2  1  0
  4  5  1  6
  6  7  2  0
  6  4  1  0
  9  8  1  0
 10  9  2  0
 11  9  1  0
 12 11  1  0
 13 14  1  0
 13 12  1  0
 15 16  1  0
 15 14  1  1
 16  6  1  0
 17 15  1  0
 18 17  2  0
 19 20  1  0
 20 22  1  0
 21 20  2  0
 23 22  1  6
 23 24  1  0
 24 17  1  0
 25 23  1  0
 25 26  1  0
 27 25  2  0
M  END
$$$$
