VRN.pdb
     RDKit          3D

 27 26  0  0  1  0  0  0  0  0999 V2000
    6.2500  -10.9143   26.9683 C   0  0  0  0  0  0  0  0  0  0  0  0
    6.9681  -12.0885   26.3693 C   0  0  1  0  0  0  0  0  0  0  0  0
    8.0858  -12.6226   27.2155 C   0  0  0  0  0  0  0  0  0  0  0  0
    6.0366  -13.1559   25.8513 C   0  0  2  0  0  0  0  0  0  0  0  0
    5.3910  -13.7494   27.0095 N   0  0  0  0  0  0  0  0  0  0  0  0
    6.6672  -14.1717   25.0253 C   0  0  0  0  0  0  0  0  0  0  0  0
    7.0366  -15.2498   25.6068 O   0  0  0  0  0  0  0  0  0  0  0  0
    9.9622  -13.7710   18.5015 N   0  0  0  0  0  0  0  0  0  0  0  0
    8.5679  -13.4705   18.6322 C   0  0  0  0  0  0  0  0  0  0  0  0
    8.2041  -12.2618   18.3830 N   0  0  0  0  0  0  0  0  0  0  0  0
    7.6177  -14.4615   19.0209 N   0  0  0  0  0  0  0  0  0  0  0  0
    8.1191  -15.7966   19.2300 C   0  0  0  0  0  0  0  0  0  0  0  0
    8.2601  -16.1008   20.7229 C   0  0  0  0  0  0  0  0  0  0  0  0
    7.7375  -14.8981   21.4757 C   0  0  0  0  0  0  0  0  0  0  0  0
    7.6066  -15.1703   22.9485 C   0  0  2  0  0  0  0  0  0  0  0  0
    6.9207  -14.1087   23.6531 N   0  0  0  0  0  0  0  0  0  0  0  0
    9.0053  -15.3127   23.4797 C   0  0  0  0  0  0  0  0  0  0  0  0
    9.4780  -14.4159   24.2149 O   0  0  0  0  0  0  0  0  0  0  0  0
    7.2213  -11.9467   18.4993 N   0  0  0  0  0  0  0  0  0  0  0  0
   12.4930  -18.3109   25.7860 C   0  0  0  0  0  0  0  0  0  0  0  0
   11.2149  -17.9408   26.2631 O   0  0  0  0  0  0  0  0  0  0  0  0
   10.8946  -18.1707   27.4470 C   0  0  0  0  0  0  0  0  0  0  0  0
   10.2285  -17.2709   25.3638 C   0  0  1  0  0  0  0  0  0  0  0  0
   10.8353  -16.9632   24.0197 N   0  0  0  0  0  0  0  0  0  0  0  0
    9.8003  -16.4349   23.1696 C   0  0  0  0  0  0  0  0  0  0  0  0
   11.5080  -18.1416   23.4288 O   0  0  0  0  0  0  0  0  0  0  0  0
   11.1082  -18.7557   22.2554 O   0  0  0  0  0  0  0  0  0  0  0  0
  2  1  1  1
  2  3  1  0
  4  2  1  0
  4  5  1  1
  6  7  2  0
  6  4  1  0
  9  8  1  0
 10  9  2  0
 11  9  1  0
 12 11  1  0
 13 14  1  0
 13 12  1  0
 15 16  1  0
 15 14  1  6
 16  6  1  0
 17 15  1  0
 18 17  2  0
 19 20  1  0
 20 22  1  0
 21 20  2  0
 23 22  1  1
 23 24  1  0
 24 17  1  0
 25 23  1  0
 25 26  1  0
 27 25  2  0
M  END
$$$$
