VRN.pdb
     RDKit          3D

 27 26  0  0  1  0  0  0  0  0999 V2000
    7.5733  -12.0786   25.8287 C   0  0  0  0  0  0  0  0  0  0  0  0
    6.9020  -13.1934   26.5768 C   0  0  1  0  0  0  0  0  0  0  0  0
    6.1218  -12.7457   27.7774 C   0  0  0  0  0  0  0  0  0  0  0  0
    6.1445  -14.1413   25.6806 C   0  0  2  0  0  0  0  0  0  0  0  0
    5.8542  -15.3256   26.4702 N   0  0  0  0  0  0  0  0  0  0  0  0
    6.8229  -14.4897   24.4437 C   0  0  0  0  0  0  0  0  0  0  0  0
    7.4824  -15.5859   24.4289 O   0  0  0  0  0  0  0  0  0  0  0  0
    9.5261  -15.2897   17.3182 N   0  0  0  0  0  0  0  0  0  0  0  0
    8.4730  -14.5598   16.6782 C   0  0  0  0  0  0  0  0  0  0  0  0
    8.5974  -14.3386   15.4168 N   0  0  0  0  0  0  0  0  0  0  0  0
    7.3332  -14.0950   17.3997 N   0  0  0  0  0  0  0  0  0  0  0  0
    7.1965  -14.5474   18.7613 C   0  0  0  0  0  0  0  0  0  0  0  0
    8.1337  -13.7746   19.6917 C   0  0  0  0  0  0  0  0  0  0  0  0
    7.3149  -13.3296   20.8824 C   0  0  0  0  0  0  0  0  0  0  0  0
    7.4724  -14.2605   22.0524 C   0  0  2  0  0  0  0  0  0  0  0  0
    6.8399  -13.7590   23.2533 N   0  0  0  0  0  0  0  0  0  0  0  0
    8.9504  -14.4098   22.2800 C   0  0  0  0  0  0  0  0  0  0  0  0
    9.5615  -13.5397   22.9418 O   0  0  0  0  0  0  0  0  0  0  0  0
    7.8453  -13.8890   14.8590 N   0  0  0  0  0  0  0  0  0  0  0  0
   13.1731  -16.9781   23.5562 C   0  0  0  0  0  0  0  0  0  0  0  0
   12.0154  -16.8010   24.3477 O   0  0  0  0  0  0  0  0  0  0  0  0
   12.0311  -17.0968   25.5599 C   0  0  0  0  0  0  0  0  0  0  0  0
   10.7579  -16.2593   23.7514 C   0  0  1  0  0  0  0  0  0  0  0  0
   10.9278  -15.9764   22.2814 N   0  0  0  0  0  0  0  0  0  0  0  0
    9.6677  -15.5088   21.7652 C   0  0  0  0  0  0  0  0  0  0  0  0
   11.4420  -17.1517   21.5433 O   0  0  0  0  0  0  0  0  0  0  0  0
   10.7500  -17.7978   20.5347 O   0  0  0  0  0  0  0  0  0  0  0  0
  2  1  1  6
  2  3  1  0
  4  2  1  0
  4  5  1  1
  6  7  2  0
  6  4  1  0
  9  8  1  0
 10  9  2  0
 11  9  1  0
 12 11  1  0
 13 14  1  0
 13 12  1  0
 15 16  1  0
 15 14  1  6
 16  6  1  0
 17 15  1  0
 18 17  2  0
 19 20  1  0
 20 22  1  0
 21 20  2  0
 23 22  1  1
 23 24  1  0
 24 17  1  0
 25 23  1  0
 25 26  1  0
 27 25  2  0
M  END
$$$$
