VRN.pdb
     RDKit          3D

 27 26  0  0  1  0  0  0  0  0999 V2000
    5.9209  -11.3539   26.5843 C   0  0  0  0  0  0  0  0  0  0  0  0
    6.8982  -12.3578   26.0453 C   0  0  1  0  0  0  0  0  0  0  0  0
    8.0196  -12.6899   26.9848 C   0  0  0  0  0  0  0  0  0  0  0  0
    6.2349  -13.5702   25.4406 C   0  0  2  0  0  0  0  0  0  0  0  0
    5.5951  -14.2872   26.5301 N   0  0  0  0  0  0  0  0  0  0  0  0
    7.1208  -14.4425   24.6884 C   0  0  0  0  0  0  0  0  0  0  0  0
    7.0943  -15.6890   24.9755 O   0  0  0  0  0  0  0  0  0  0  0  0
    8.2623  -12.7998   16.5343 N   0  0  0  0  0  0  0  0  0  0  0  0
    7.5803  -14.0516   16.6728 C   0  0  0  0  0  0  0  0  0  0  0  0
    7.1529  -14.6074   15.5939 N   0  0  0  0  0  0  0  0  0  0  0  0
    7.3795  -14.6623   17.9466 N   0  0  0  0  0  0  0  0  0  0  0  0
    8.1199  -14.1137   19.0548 C   0  0  0  0  0  0  0  0  0  0  0  0
    7.7857  -14.8492   20.3543 C   0  0  0  0  0  0  0  0  0  0  0  0
    8.8130  -14.4309   21.3819 C   0  0  0  0  0  0  0  0  0  0  0  0
    8.5376  -15.0358   22.7304 C   0  0  2  0  0  0  0  0  0  0  0  0
    8.0097  -14.0753   23.6752 N   0  0  0  0  0  0  0  0  0  0  0  0
    9.8491  -15.5732   23.2302 C   0  0  0  0  0  0  0  0  0  0  0  0
   10.5294  -16.3203   22.4904 O   0  0  0  0  0  0  0  0  0  0  0  0
    6.6812  -15.5327   15.5998 N   0  0  0  0  0  0  0  0  0  0  0  0
   10.0192  -19.3884   26.5915 C   0  0  0  0  0  0  0  0  0  0  0  0
   10.2689  -18.0489   26.9674 O   0  0  0  0  0  0  0  0  0  0  0  0
   10.9148  -17.7968   28.0049 C   0  0  0  0  0  0  0  0  0  0  0  0
    9.7673  -16.9155   26.1342 C   0  0  2  0  0  0  0  0  0  0  0  0
   10.8990  -16.2089   25.4344 N   0  0  0  0  0  0  0  0  0  0  0  0
   10.3337  -15.2555   24.5154 C   0  0  0  0  0  0  0  0  0  0  0  0
   11.8229  -17.1563   24.7717 O   0  0  0  0  0  0  0  0  0  0  0  0
   11.9816  -17.2545   23.4010 O   0  0  0  0  0  0  0  0  0  0  0  0
  2  1  1  1
  2  3  1  0
  4  2  1  0
  4  5  1  1
  6  7  2  0
  6  4  1  0
  9  8  1  0
 10  9  2  0
 11  9  1  0
 12 11  1  0
 13 14  1  0
 13 12  1  0
 15 16  1  0
 15 14  1  6
 16  6  1  0
 17 15  1  0
 18 17  2  0
 19 20  1  0
 20 22  1  0
 21 20  2  0
 23 22  1  1
 23 24  1  0
 24 17  1  0
 25 23  1  0
 25 26  1  0
 27 25  2  0
M  END
$$$$
