VRN.pdb
     RDKit          3D

 27 26  0  0  1  0  0  0  0  0999 V2000
    9.7547  -12.7673   19.7776 C   0  0  0  0  0  0  0  0  0  0  0  0
    8.2721  -13.0001   19.7457 C   0  0  1  0  0  0  0  0  0  0  0  0
    7.5152  -12.0275   18.8903 C   0  0  0  0  0  0  0  0  0  0  0  0
    7.9002  -14.4411   19.4993 C   0  0  2  0  0  0  0  0  0  0  0  0
    6.4492  -14.5001   19.4578 N   0  0  0  0  0  0  0  0  0  0  0  0
    8.4354  -15.3862   20.4647 C   0  0  0  0  0  0  0  0  0  0  0  0
    7.8993  -15.4002   21.6263 O   0  0  0  0  0  0  0  0  0  0  0  0
    6.7823  -20.8485   18.2781 N   0  0  0  0  0  0  0  0  0  0  0  0
    7.9853  -20.9206   17.5042 C   0  0  0  0  0  0  0  0  0  0  0  0
    7.8552  -21.0817   16.2343 N   0  0  0  0  0  0  0  0  0  0  0  0
    9.2748  -20.8193   18.1066 N   0  0  0  0  0  0  0  0  0  0  0  0
    9.3167  -20.4149   19.4894 C   0  0  0  0  0  0  0  0  0  0  0  0
    9.6274  -18.9218   19.6140 C   0  0  0  0  0  0  0  0  0  0  0  0
    9.6869  -18.5991   21.0900 C   0  0  0  0  0  0  0  0  0  0  0  0
    9.9677  -17.1428   21.3360 C   0  0  2  0  0  0  0  0  0  0  0  0
    9.4801  -16.2931   20.2711 N   0  0  0  0  0  0  0  0  0  0  0  0
   11.4606  -17.0116   21.4486 C   0  0  0  0  0  0  0  0  0  0  0  0
   12.1812  -17.3345   20.4766 O   0  0  0  0  0  0  0  0  0  0  0  0
    8.6738  -21.2099   15.6080 N   0  0  0  0  0  0  0  0  0  0  0  0
   15.6807  -14.3176   20.9997 C   0  0  0  0  0  0  0  0  0  0  0  0
   14.3433  -14.6993   21.2527 O   0  0  0  0  0  0  0  0  0  0  0  0
   13.5329  -14.8136   20.3107 C   0  0  0  0  0  0  0  0  0  0  0  0
   13.8771  -14.9716   22.6451 C   0  0  2  0  0  0  0  0  0  0  0  0
   13.4933  -16.4180   22.8199 N   0  0  0  0  0  0  0  0  0  0  0  0
   12.0713  -16.5322   22.6254 C   0  0  0  0  0  0  0  0  0  0  0  0
   13.9320  -16.9572   24.1265 O   0  0  0  0  0  0  0  0  0  0  0  0
   13.0680  -17.3740   25.1232 O   0  0  0  0  0  0  0  0  0  0  0  0
  2  1  1  6
  2  3  1  0
  4  2  1  0
  4  5  1  1
  6  7  2  0
  6  4  1  0
  9  8  1  0
 10  9  2  0
 11  9  1  0
 12 11  1  0
 13 14  1  0
 13 12  1  0
 15 16  1  0
 15 14  1  6
 16  6  1  0
 17 15  1  0
 18 17  2  0
 19 20  1  0
 20 22  1  0
 21 20  2  0
 23 22  1  6
 23 24  1  0
 24 17  1  0
 25 23  1  0
 25 26  1  0
 27 25  2  0
M  END
$$$$
