VRN.pdb
     RDKit          3D

 27 26  0  0  1  0  0  0  0  0999 V2000
   11.2637  -18.5281   15.5232 C   0  0  0  0  0  0  0  0  0  0  0  0
   11.1747  -17.4852   16.5991 C   0  0  1  0  0  0  0  0  0  0  0  0
   10.1734  -16.4024   16.3245 C   0  0  0  0  0  0  0  0  0  0  0  0
   11.0725  -18.0675   17.9868 C   0  0  2  0  0  0  0  0  0  0  0  0
    9.8628  -18.8713   18.0179 N   0  0  0  0  0  0  0  0  0  0  0  0
   11.0807  -17.0916   19.0634 C   0  0  0  0  0  0  0  0  0  0  0  0
   12.1484  -16.4041   19.2194 O   0  0  0  0  0  0  0  0  0  0  0  0
    7.3790  -14.2724   17.3759 N   0  0  0  0  0  0  0  0  0  0  0  0
    7.7132  -13.2048   18.2703 C   0  0  0  0  0  0  0  0  0  0  0  0
    8.4054  -12.2331   17.7885 N   0  0  0  0  0  0  0  0  0  0  0  0
    7.3008  -13.2105   19.6363 N   0  0  0  0  0  0  0  0  0  0  0  0
    8.2330  -13.7488   20.5947 C   0  0  0  0  0  0  0  0  0  0  0  0
    7.8451  -15.1737   20.9951 C   0  0  0  0  0  0  0  0  0  0  0  0
    8.9575  -15.7119   21.8664 C   0  0  0  0  0  0  0  0  0  0  0  0
   10.2267  -15.9258   21.0893 C   0  0  2  0  0  0  0  0  0  0  0  0
   10.0464  -16.8121   19.9598 N   0  0  0  0  0  0  0  0  0  0  0  0
   11.2173  -16.5209   22.0502 C   0  0  0  0  0  0  0  0  0  0  0  0
   11.0138  -17.6673   22.5116 O   0  0  0  0  0  0  0  0  0  0  0  0
    8.7330  -11.4437   18.3787 N   0  0  0  0  0  0  0  0  0  0  0  0
   14.8619  -13.9849   21.1548 C   0  0  0  0  0  0  0  0  0  0  0  0
   14.9941  -15.2568   21.7572 O   0  0  0  0  0  0  0  0  0  0  0  0
   15.4309  -16.2224   21.0984 C   0  0  0  0  0  0  0  0  0  0  0  0
   14.6154  -15.4682   23.1863 C   0  0  2  0  0  0  0  0  0  0  0  0
   13.3993  -16.3496   23.3048 N   0  0  0  0  0  0  0  0  0  0  0  0
   12.3736  -15.8180   22.4456 C   0  0  0  0  0  0  0  0  0  0  0  0
   12.9476  -16.4907   24.7071 O   0  0  0  0  0  0  0  0  0  0  0  0
   11.6829  -16.1507   25.1526 O   0  0  0  0  0  0  0  0  0  0  0  0
  2  1  1  6
  2  3  1  0
  4  2  1  0
  4  5  1  6
  6  7  2  0
  6  4  1  0
  9  8  1  0
 10  9  2  0
 11  9  1  0
 12 11  1  0
 13 14  1  0
 13 12  1  0
 15 16  1  0
 15 14  1  1
 16  6  1  0
 17 15  1  0
 18 17  2  0
 19 20  1  0
 20 22  1  0
 21 20  2  0
 23 22  1  6
 23 24  1  0
 24 17  1  0
 25 23  1  0
 25 26  1  0
 27 25  2  0
M  END
$$$$
