QSN.pdb
     RDKit          3D

 24 23  0  0  1  0  0  0  0  0999 V2000
   14.5539  -18.7353    1.7556 N   0  0  0  0  0  0  0  0  0  0  0  0
   15.6469  -17.8293    2.0139 C   0  0  0  0  0  0  0  0  0  0  0  0
   16.5870  -17.8929    1.1832 O   0  0  0  0  0  0  0  0  0  0  0  0
   15.6082  -16.9175    3.1819 C   0  0  0  0  0  0  0  0  0  0  0  0
   16.7419  -15.9550    3.2588 C   0  0  0  0  0  0  0  0  0  0  0  0
   16.6445  -14.9989    4.4013 C   0  0  2  0  0  0  0  0  0  0  0  0
   17.1163  -13.6974    3.9253 N   0  0  0  0  0  0  0  0  0  0  0  0
   17.4720  -15.3922    5.5589 C   0  0  0  0  0  0  0  0  0  0  0  0
   18.6537  -14.9809    5.6411 O   0  0  0  0  0  0  0  0  0  0  0  0
   17.3107  -14.9692    9.2864 O   0  0  0  0  0  0  0  0  0  0  0  0
   17.0698  -16.3012    8.9775 C   0  0  0  0  0  0  0  0  0  0  0  0
   17.8274  -16.7044    7.7041 C   0  0  2  0  0  0  0  0  0  0  0  0
   17.0085  -16.2239    6.6092 N   0  0  0  0  0  0  0  0  0  0  0  0
   17.9048  -18.1855    7.7284 C   0  0  0  0  0  0  0  0  0  0  0  0
   17.1275  -18.9108    7.0536 O   0  0  0  0  0  0  0  0  0  0  0  0
   18.9672  -23.1913    6.5960 N   0  0  0  0  0  0  0  0  0  0  0  0
   19.7707  -22.1625    7.1190 C   0  0  0  0  0  0  0  0  0  0  0  0
   20.9052  -22.4801    7.5903 O   0  0  0  0  0  0  0  0  0  0  0  0
   19.4074  -20.7444    7.1664 C   0  0  0  0  0  0  0  0  0  0  0  0
   19.1324  -20.2268    8.5470 C   0  0  2  0  0  0  0  0  0  0  0  0
   18.8777  -18.7969    8.5316 N   0  0  0  0  0  0  0  0  0  0  0  0
   20.2273  -20.4969    9.5034 C   0  0  0  0  0  0  0  0  0  0  0  0
   21.0827  -19.6125    9.8028 O   0  0  0  0  0  0  0  0  0  0  0  0
   20.3652  -21.7337   10.1151 O   0  0  0  0  0  0  0  0  0  0  0  0
  1  2  1  0
  2  3  2  0
  4  2  1  0
  4  5  1  0
  6  5  1  0
  6  7  1  6
  8  6  1  0
  9  8  2  0
 12 11  1  1
 11 10  1  0
 12 13  1  0
 13  8  1  0
 14 21  1  0
 14 12  1  0
 15 14  2  0
 17 16  1  0
 18 17  2  0
 19 17  1  0
 20 19  1  6
 20 21  1  0
 22 20  1  0
 22 24  1  0
 23 22  2  0
M  END
$$$$
