QSN.pdb
     RDKit          3D

 24 23  0  0  1  0  0  0  0  0999 V2000
   19.5159  -21.0365  -12.7080 N   0  0  0  0  0  0  0  0  0  0  0  0
   20.2932  -22.2013  -13.0560 C   0  0  0  0  0  0  0  0  0  0  0  0
   19.6485  -23.2794  -13.0579 O   0  0  0  0  0  0  0  0  0  0  0  0
   21.7346  -22.0751  -13.3774 C   0  0  0  0  0  0  0  0  0  0  0  0
   22.2684  -20.6864  -13.3120 C   0  0  0  0  0  0  0  0  0  0  0  0
   22.7918  -20.1799  -14.6153 C   0  0  2  0  0  0  0  0  0  0  0  0
   23.8467  -21.0969  -15.0502 N   0  0  0  0  0  0  0  0  0  0  0  0
   23.3710  -18.8252  -14.5206 C   0  0  0  0  0  0  0  0  0  0  0  0
   22.6755  -17.8869  -14.0641 O   0  0  0  0  0  0  0  0  0  0  0  0
   27.1852  -18.3330  -15.7657 O   0  0  0  0  0  0  0  0  0  0  0  0
   26.7673  -17.3607  -14.8670 C   0  0  0  0  0  0  0  0  0  0  0  0
   25.2462  -17.1674  -14.9514 C   0  0  2  0  0  0  0  0  0  0  0  0
   24.6930  -18.5066  -14.9211 N   0  0  0  0  0  0  0  0  0  0  0  0
   24.9930  -16.4935  -16.2482 C   0  0  0  0  0  0  0  0  0  0  0  0
   24.6626  -17.1295  -17.2835 O   0  0  0  0  0  0  0  0  0  0  0  0
   22.6539  -12.3925  -15.2867 N   0  0  0  0  0  0  0  0  0  0  0  0
   22.9757  -13.0048  -16.5111 C   0  0  0  0  0  0  0  0  0  0  0  0
   22.0579  -13.6419  -17.1127 O   0  0  0  0  0  0  0  0  0  0  0  0
   24.2898  -12.9695  -17.1568 C   0  0  0  0  0  0  0  0  0  0  0  0
   24.8359  -14.3205  -17.5122 C   0  0  2  0  0  0  0  0  0  0  0  0
   25.1271  -15.0999  -16.3216 N   0  0  0  0  0  0  0  0  0  0  0  0
   26.0582  -14.2592  -18.3420 C   0  0  0  0  0  0  0  0  0  0  0  0
   27.2144  -14.3204  -17.8294 O   0  0  0  0  0  0  0  0  0  0  0  0
   25.9908  -14.1313  -19.7212 O   0  0  0  0  0  0  0  0  0  0  0  0
  1  2  1  0
  2  3  2  0
  4  2  1  0
  4  5  1  0
  6  5  1  0
  6  7  1  1
  8  6  1  0
  9  8  2  0
 12 11  1  6
 11 10  1  0
 12 13  1  0
 13  8  1  0
 14 21  1  0
 14 12  1  0
 15 14  2  0
 17 16  1  0
 18 17  2  0
 19 17  1  0
 20 19  1  1
 20 21  1  0
 22 20  1  0
 22 24  1  0
 23 22  2  0
M  END
$$$$
