QSN.pdb
     RDKit          3D

 24 23  0  0  1  0  0  0  0  0999 V2000
   23.4219  -11.8118  -20.3066 N   0  0  0  0  0  0  0  0  0  0  0  0
   22.7620  -12.8235  -19.5171 C   0  0  0  0  0  0  0  0  0  0  0  0
   22.4136  -13.8447  -20.1603 O   0  0  0  0  0  0  0  0  0  0  0  0
   22.5409  -12.6195  -18.0658 C   0  0  0  0  0  0  0  0  0  0  0  0
   23.1927  -11.4056  -17.5007 C   0  0  0  0  0  0  0  0  0  0  0  0
   22.4222  -10.7686  -16.3919 C   0  0  2  0  0  0  0  0  0  0  0  0
   21.4859  -11.7694  -15.8772 N   0  0  0  0  0  0  0  0  0  0  0  0
   21.6437   -9.5923  -16.8276 C   0  0  0  0  0  0  0  0  0  0  0  0
   20.8988   -9.6827  -17.8323 O   0  0  0  0  0  0  0  0  0  0  0  0
   18.5144   -6.6055  -16.0779 O   0  0  0  0  0  0  0  0  0  0  0  0
   19.4594   -7.5911  -15.8266 C   0  0  0  0  0  0  0  0  0  0  0  0
   20.8057   -7.2222  -16.4664 C   0  0  2  0  0  0  0  0  0  0  0  0
   21.6829   -8.3371  -16.1701 N   0  0  0  0  0  0  0  0  0  0  0  0
   21.2480   -5.9763  -15.7939 C   0  0  0  0  0  0  0  0  0  0  0  0
   21.5815   -5.9492  -14.5800 O   0  0  0  0  0  0  0  0  0  0  0  0
   23.6621   -0.4853  -17.3701 N   0  0  0  0  0  0  0  0  0  0  0  0
   22.9680   -1.4231  -16.5850 C   0  0  0  0  0  0  0  0  0  0  0  0
   22.7851   -1.1484  -15.3598 O   0  0  0  0  0  0  0  0  0  0  0  0
   22.4336   -2.6998  -17.0644 C   0  0  0  0  0  0  0  0  0  0  0  0
   21.7571   -3.5186  -16.0054 C   0  0  2  0  0  0  0  0  0  0  0  0
   21.2952   -4.7887  -16.5375 N   0  0  0  0  0  0  0  0  0  0  0  0
   20.6101   -2.8303  -15.3753 C   0  0  0  0  0  0  0  0  0  0  0  0
   20.7546   -1.7504  -14.7299 O   0  0  0  0  0  0  0  0  0  0  0  0
   19.3231   -3.3390  -15.4641 O   0  0  0  0  0  0  0  0  0  0  0  0
  1  2  1  0
  2  3  2  0
  4  2  1  0
  4  5  1  0
  6  5  1  0
  6  7  1  6
  8  6  1  0
  9  8  2  0
 12 11  1  1
 11 10  1  0
 12 13  1  0
 13  8  1  0
 14 21  1  0
 14 12  1  0
 15 14  2  0
 17 16  1  0
 18 17  2  0
 19 17  1  0
 20 19  1  6
 20 21  1  0
 22 20  1  0
 22 24  1  0
 23 22  2  0
M  END
$$$$
