QSN.pdb
     RDKit          3D

 24 23  0  0  1  0  0  0  0  0999 V2000
   18.7167   -9.9799  -13.8571 N   0  0  0  0  0  0  0  0  0  0  0  0
   18.2124  -11.2058  -14.4271 C   0  0  0  0  0  0  0  0  0  0  0  0
   19.0986  -12.0319  -14.7593 O   0  0  0  0  0  0  0  0  0  0  0  0
   16.7539  -11.4188  -14.5829 C   0  0  0  0  0  0  0  0  0  0  0  0
   15.9012  -10.3602  -13.9748 C   0  0  0  0  0  0  0  0  0  0  0  0
   15.2680  -10.7635  -12.6844 C   0  0  2  0  0  0  0  0  0  0  0  0
   14.1325  -11.6300  -13.0053 N   0  0  0  0  0  0  0  0  0  0  0  0
   14.7645   -9.6173  -11.9020 C   0  0  0  0  0  0  0  0  0  0  0  0
   13.9790   -8.8006  -12.4392 O   0  0  0  0  0  0  0  0  0  0  0  0
   13.8498   -7.7633   -7.5787 O   0  0  0  0  0  0  0  0  0  0  0  0
   14.3759   -8.7646   -8.3839 C   0  0  0  0  0  0  0  0  0  0  0  0
   14.6946   -8.2186   -9.7833 C   0  0  2  0  0  0  0  0  0  0  0  0
   15.1184   -9.3722  -10.5514 N   0  0  0  0  0  0  0  0  0  0  0  0
   15.7958   -7.2424   -9.5982 C   0  0  0  0  0  0  0  0  0  0  0  0
   17.0083   -7.5755   -9.6655 O   0  0  0  0  0  0  0  0  0  0  0  0
   18.3929   -2.6906   -9.3051 N   0  0  0  0  0  0  0  0  0  0  0  0
   18.3960   -3.7273  -10.2553 C   0  0  0  0  0  0  0  0  0  0  0  0
   19.2968   -3.7075  -11.1488 O   0  0  0  0  0  0  0  0  0  0  0  0
   17.4412   -4.8369  -10.3022 C   0  0  0  0  0  0  0  0  0  0  0  0
   16.4604   -4.8514   -9.1675 C   0  0  2  0  0  0  0  0  0  0  0  0
   15.4732   -5.9029   -9.3388 N   0  0  0  0  0  0  0  0  0  0  0  0
   15.7499   -3.5668   -8.9901 C   0  0  0  0  0  0  0  0  0  0  0  0
   14.7084   -3.2852   -9.6530 O   0  0  0  0  0  0  0  0  0  0  0  0
   16.1949   -2.6122   -8.0880 O   0  0  0  0  0  0  0  0  0  0  0  0
  1  2  1  0
  2  3  2  0
  4  2  1  0
  4  5  1  0
  6  5  1  0
  6  7  1  6
  8  6  1  0
  9  8  2  0
 12 11  1  1
 11 10  1  0
 12 13  1  0
 13  8  1  0
 14 21  1  0
 14 12  1  0
 15 14  2  0
 17 16  1  0
 18 17  2  0
 19 17  1  0
 20 19  1  6
 20 21  1  0
 22 20  1  0
 22 24  1  0
 23 22  2  0
M  END
$$$$
