QSN.pdb
     RDKit          3D

 24 23  0  0  1  0  0  0  0  0999 V2000
   19.9092  -15.4163  -19.8558 N   0  0  0  0  0  0  0  0  0  0  0  0
   18.8123  -15.3645  -18.9198 C   0  0  0  0  0  0  0  0  0  0  0  0
   18.1012  -16.3996  -18.8890 O   0  0  0  0  0  0  0  0  0  0  0  0
   18.5912  -14.1593  -18.0859 C   0  0  0  0  0  0  0  0  0  0  0  0
   19.5206  -13.0296  -18.3647 C   0  0  0  0  0  0  0  0  0  0  0  0
   20.1200  -12.4253  -17.1382 C   0  0  2  0  0  0  0  0  0  0  0  0
   19.4534  -13.0274  -15.9822 N   0  0  0  0  0  0  0  0  0  0  0  0
   19.9369  -10.9622  -17.0635 C   0  0  0  0  0  0  0  0  0  0  0  0
   20.4130  -10.2336  -17.9662 O   0  0  0  0  0  0  0  0  0  0  0  0
   18.5018   -9.3278  -13.5796 O   0  0  0  0  0  0  0  0  0  0  0  0
   18.1207   -8.6592  -14.7352 C   0  0  0  0  0  0  0  0  0  0  0  0
   19.1571   -8.8731  -15.8479 C   0  0  2  0  0  0  0  0  0  0  0  0
   19.2419  -10.3103  -16.0139 N   0  0  0  0  0  0  0  0  0  0  0  0
   20.4262   -8.2994  -15.3377 C   0  0  0  0  0  0  0  0  0  0  0  0
   21.3078   -9.0056  -14.7811 O   0  0  0  0  0  0  0  0  0  0  0  0
   24.4485   -3.9831  -16.7640 N   0  0  0  0  0  0  0  0  0  0  0  0
   23.7693   -4.8709  -15.9107 C   0  0  0  0  0  0  0  0  0  0  0  0
   24.2425   -5.0510  -14.7472 O   0  0  0  0  0  0  0  0  0  0  0  0
   22.5526   -5.6112  -16.2526 C   0  0  0  0  0  0  0  0  0  0  0  0
   21.8762   -6.2561  -15.0795 C   0  0  2  0  0  0  0  0  0  0  0  0
   20.6497   -6.9228  -15.4807 N   0  0  0  0  0  0  0  0  0  0  0  0
   21.5584   -5.3068  -13.9912 C   0  0  0  0  0  0  0  0  0  0  0  0
   20.4776   -4.6472  -13.9779 O   0  0  0  0  0  0  0  0  0  0  0  0
   22.4328   -5.0972  -12.9355 O   0  0  0  0  0  0  0  0  0  0  0  0
  1  2  1  0
  2  3  2  0
  4  2  1  0
  4  5  1  0
  6  5  1  0
  6  7  1  1
  8  6  1  0
  9  8  2  0
 12 11  1  1
 11 10  1  0
 12 13  1  0
 13  8  1  0
 14 21  1  0
 14 12  1  0
 15 14  2  0
 17 16  1  0
 18 17  2  0
 19 17  1  0
 20 19  1  6
 20 21  1  0
 22 20  1  0
 22 24  1  0
 23 22  2  0
M  END
$$$$
