QSN.pdb
     RDKit          3D

 24 23  0  0  1  0  0  0  0  0999 V2000
   18.4251  -14.9310  -15.0466 N   0  0  0  0  0  0  0  0  0  0  0  0
   17.5220  -14.8065  -16.1651 C   0  0  0  0  0  0  0  0  0  0  0  0
   17.1046  -15.8984  -16.6249 O   0  0  0  0  0  0  0  0  0  0  0  0
   17.1508  -13.4698  -16.6871 C   0  0  0  0  0  0  0  0  0  0  0  0
   17.7743  -12.3248  -15.9674 C   0  0  0  0  0  0  0  0  0  0  0  0
   18.1937  -11.2063  -16.8630 C   0  0  2  0  0  0  0  0  0  0  0  0
   19.3360  -11.6779  -17.6478 N   0  0  0  0  0  0  0  0  0  0  0  0
   18.6110   -9.9976  -16.1251 C   0  0  0  0  0  0  0  0  0  0  0  0
   17.7641   -9.3606  -15.4547 O   0  0  0  0  0  0  0  0  0  0  0  0
   22.3989   -7.1594  -14.8896 O   0  0  0  0  0  0  0  0  0  0  0  0
   21.8800   -8.3235  -15.4403 C   0  0  0  0  0  0  0  0  0  0  0  0
   20.3479   -8.2491  -15.5119 C   0  0  2  0  0  0  0  0  0  0  0  0
   19.9373   -9.4970  -16.1238 N   0  0  0  0  0  0  0  0  0  0  0  0
   20.0370   -7.0821  -16.3731 C   0  0  0  0  0  0  0  0  0  0  0  0
   20.1392   -7.1256  -17.6274 O   0  0  0  0  0  0  0  0  0  0  0  0
   18.6748   -2.0954  -17.6600 N   0  0  0  0  0  0  0  0  0  0  0  0
   17.7204   -2.8885  -16.9982 C   0  0  0  0  0  0  0  0  0  0  0  0
   16.5356   -2.4418  -16.9153 O   0  0  0  0  0  0  0  0  0  0  0  0
   17.9788   -4.1965  -16.3921 C   0  0  0  0  0  0  0  0  0  0  0  0
   19.4065   -4.6462  -16.4875 C   0  0  2  0  0  0  0  0  0  0  0  0
   19.6154   -5.8902  -15.7673 N   0  0  0  0  0  0  0  0  0  0  0  0
   20.3713   -3.6457  -15.9831 C   0  0  0  0  0  0  0  0  0  0  0  0
   21.1604   -3.9049  -15.0273 O   0  0  0  0  0  0  0  0  0  0  0  0
   20.4537   -2.3768  -16.5363 O   0  0  0  0  0  0  0  0  0  0  0  0
  1  2  1  0
  2  3  2  0
  4  2  1  0
  4  5  1  0
  6  5  1  0
  6  7  1  1
  8  6  1  0
  9  8  2  0
 12 11  1  6
 11 10  1  0
 12 13  1  0
 13  8  1  0
 14 21  1  0
 14 12  1  0
 15 14  2  0
 17 16  1  0
 18 17  2  0
 19 17  1  0
 20 19  1  1
 20 21  1  0
 22 20  1  0
 22 24  1  0
 23 22  2  0
M  END
$$$$
