QSN.pdb
     RDKit          3D

 24 23  0  0  1  0  0  0  0  0999 V2000
   16.0205  -10.0145  -19.1907 N   0  0  0  0  0  0  0  0  0  0  0  0
   15.9981  -11.4559  -19.1278 C   0  0  0  0  0  0  0  0  0  0  0  0
   15.3212  -12.0086  -20.0302 O   0  0  0  0  0  0  0  0  0  0  0  0
   16.7351  -12.1739  -18.0610 C   0  0  0  0  0  0  0  0  0  0  0  0
   17.4651  -11.2935  -17.1072 C   0  0  0  0  0  0  0  0  0  0  0  0
   18.7987  -11.8245  -16.6966 C   0  0  2  0  0  0  0  0  0  0  0  0
   18.5768  -13.1268  -16.0660 N   0  0  0  0  0  0  0  0  0  0  0  0
   19.4948  -10.9568  -15.7261 C   0  0  0  0  0  0  0  0  0  0  0  0
   18.9827  -10.7561  -14.5992 O   0  0  0  0  0  0  0  0  0  0  0  0
   23.2390   -9.4438  -16.6252 O   0  0  0  0  0  0  0  0  0  0  0  0
   22.8838   -9.6059  -15.2928 C   0  0  0  0  0  0  0  0  0  0  0  0
   21.3781   -9.3704  -15.1043 C   0  0  2  0  0  0  0  0  0  0  0  0
   20.7335  -10.3198  -15.9894 N   0  0  0  0  0  0  0  0  0  0  0  0
   21.1301   -7.9687  -15.5215 C   0  0  0  0  0  0  0  0  0  0  0  0
   20.4496   -7.6808  -16.5411 O   0  0  0  0  0  0  0  0  0  0  0  0
   20.8349   -2.7345  -15.5289 N   0  0  0  0  0  0  0  0  0  0  0  0
   19.8400   -3.6921  -15.2625 C   0  0  0  0  0  0  0  0  0  0  0  0
   18.6431   -3.2859  -15.1516 O   0  0  0  0  0  0  0  0  0  0  0  0
   20.0690   -5.1297  -15.1014 C   0  0  0  0  0  0  0  0  0  0  0  0
   21.5165   -5.5212  -15.0694 C   0  0  2  0  0  0  0  0  0  0  0  0
   21.6736   -6.9300  -14.7526 N   0  0  0  0  0  0  0  0  0  0  0  0
   22.3159   -4.7332  -14.1069 C   0  0  0  0  0  0  0  0  0  0  0  0
   22.3412   -5.0169  -12.8731 O   0  0  0  0  0  0  0  0  0  0  0  0
   23.0742   -3.6462  -14.5149 O   0  0  0  0  0  0  0  0  0  0  0  0
  1  2  1  0
  2  3  2  0
  4  2  1  0
  4  5  1  0
  6  5  1  0
  6  7  1  1
  8  6  1  0
  9  8  2  0
 12 11  1  6
 11 10  1  0
 12 13  1  0
 13  8  1  0
 14 21  1  0
 14 12  1  0
 15 14  2  0
 17 16  1  0
 18 17  2  0
 19 17  1  0
 20 19  1  1
 20 21  1  0
 22 20  1  0
 22 24  1  0
 23 22  2  0
M  END
$$$$
