QSN.pdb
     RDKit          3D

 24 23  0  0  1  0  0  0  0  0999 V2000
   26.1403  -22.0455  -11.5183 N   0  0  0  0  0  0  0  0  0  0  0  0
   27.0809  -20.9896  -11.2314 C   0  0  0  0  0  0  0  0  0  0  0  0
   26.9790  -20.4963  -10.0806 O   0  0  0  0  0  0  0  0  0  0  0  0
   28.0675  -20.5631  -12.2520 C   0  0  0  0  0  0  0  0  0  0  0  0
   28.0061  -21.3206  -13.5327 C   0  0  0  0  0  0  0  0  0  0  0  0
   27.8273  -20.4559  -14.7365 C   0  0  2  0  0  0  0  0  0  0  0  0
   28.7715  -19.3432  -14.6212 N   0  0  0  0  0  0  0  0  0  0  0  0
   26.4668  -19.8940  -14.8502 C   0  0  0  0  0  0  0  0  0  0  0  0
   26.1091  -18.9800  -14.0696 O   0  0  0  0  0  0  0  0  0  0  0  0
   22.3402  -19.8585  -17.4598 O   0  0  0  0  0  0  0  0  0  0  0  0
   23.6261  -20.3330  -17.2384 C   0  0  0  0  0  0  0  0  0  0  0  0
   24.1379  -19.8802  -15.8633 C   0  0  2  0  0  0  0  0  0  0  0  0
   25.5147  -20.3292  -15.8060 N   0  0  0  0  0  0  0  0  0  0  0  0
   23.2881  -20.5732  -14.8644 C   0  0  0  0  0  0  0  0  0  0  0  0
   23.7541  -21.4183  -14.0555 O   0  0  0  0  0  0  0  0  0  0  0  0
   21.2753  -19.9625   -9.9115 N   0  0  0  0  0  0  0  0  0  0  0  0
   20.8213  -20.1523  -11.2289 C   0  0  0  0  0  0  0  0  0  0  0  0
   19.6465  -20.6040  -11.3900 O   0  0  0  0  0  0  0  0  0  0  0  0
   21.5943  -19.8707  -12.4406 C   0  0  0  0  0  0  0  0  0  0  0  0
   21.0684  -20.5421  -13.6744 C   0  0  2  0  0  0  0  0  0  0  0  0
   21.9188  -20.2757  -14.8214 N   0  0  0  0  0  0  0  0  0  0  0  0
   19.6855  -20.1439  -14.0145 C   0  0  0  0  0  0  0  0  0  0  0  0
   18.6865  -20.8328  -13.6526 O   0  0  0  0  0  0  0  0  0  0  0  0
   19.4223  -18.9960  -14.7466 O   0  0  0  0  0  0  0  0  0  0  0  0
  1  2  1  0
  2  3  2  0
  4  2  1  0
  4  5  1  0
  6  5  1  0
  6  7  1  1
  8  6  1  0
  9  8  2  0
 12 11  1  6
 11 10  1  0
 12 13  1  0
 13  8  1  0
 14 21  1  0
 14 12  1  0
 15 14  2  0
 17 16  1  0
 18 17  2  0
 19 17  1  0
 20 19  1  1
 20 21  1  0
 22 20  1  0
 22 24  1  0
 23 22  2  0
M  END
$$$$
