QSN.pdb
     RDKit          3D

 24 23  0  0  1  0  0  0  0  0999 V2000
   17.9208  -10.4378  -19.9032 N   0  0  0  0  0  0  0  0  0  0  0  0
   17.1895  -11.6629  -19.6875 C   0  0  0  0  0  0  0  0  0  0  0  0
   16.9188  -12.3021  -20.7345 O   0  0  0  0  0  0  0  0  0  0  0  0
   16.8152  -12.0841  -18.3166 C   0  0  0  0  0  0  0  0  0  0  0  0
   17.2933  -11.1796  -17.2345 C   0  0  0  0  0  0  0  0  0  0  0  0
   18.5929  -11.5974  -16.6300 C   0  0  2  0  0  0  0  0  0  0  0  0
   18.4086  -12.9413  -16.0798 N   0  0  0  0  0  0  0  0  0  0  0  0
   19.0359  -10.7100  -15.5364 C   0  0  0  0  0  0  0  0  0  0  0  0
   18.4188  -10.7203  -14.4448 O   0  0  0  0  0  0  0  0  0  0  0  0
   22.7832   -9.5305  -15.2494 O   0  0  0  0  0  0  0  0  0  0  0  0
   21.9366   -9.3930  -14.1575 C   0  0  0  0  0  0  0  0  0  0  0  0
   20.5541   -8.8986  -14.6069 C   0  0  2  0  0  0  0  0  0  0  0  0
   20.1389   -9.8257  -15.6405 N   0  0  0  0  0  0  0  0  0  0  0  0
   20.7650   -7.5314  -15.1422 C   0  0  0  0  0  0  0  0  0  0  0  0
   21.0089   -7.3156  -16.3586 O   0  0  0  0  0  0  0  0  0  0  0  0
   21.0058   -2.2179  -15.2221 N   0  0  0  0  0  0  0  0  0  0  0  0
   19.8639   -2.7964  -14.6397 C   0  0  0  0  0  0  0  0  0  0  0  0
   18.8905   -2.0316  -14.3612 O   0  0  0  0  0  0  0  0  0  0  0  0
   19.7006   -4.2175  -14.3251 C   0  0  0  0  0  0  0  0  0  0  0  0
   20.8933   -5.0621  -14.6625 C   0  0  2  0  0  0  0  0  0  0  0  0
   20.6901   -6.4433  -14.2614 N   0  0  0  0  0  0  0  0  0  0  0  0
   22.1481   -4.5765  -14.0493 C   0  0  0  0  0  0  0  0  0  0  0  0
   22.5938   -5.0650  -12.9694 O   0  0  0  0  0  0  0  0  0  0  0  0
   22.8929   -3.5621  -14.6319 O   0  0  0  0  0  0  0  0  0  0  0  0
  1  2  1  0
  2  3  2  0
  4  2  1  0
  4  5  1  0
  6  5  1  0
  6  7  1  1
  8  6  1  0
  9  8  2  0
 12 11  1  6
 11 10  1  0
 12 13  1  0
 13  8  1  0
 14 21  1  0
 14 12  1  0
 15 14  2  0
 17 16  1  0
 18 17  2  0
 19 17  1  0
 20 19  1  1
 20 21  1  0
 22 20  1  0
 22 24  1  0
 23 22  2  0
M  END
$$$$
