QSN.pdb
     RDKit          3D

 24 23  0  0  1  0  0  0  0  0999 V2000
   24.7428  -20.5406  -21.1856 N   0  0  0  0  0  0  0  0  0  0  0  0
   26.1499  -20.4209  -21.4821 C   0  0  0  0  0  0  0  0  0  0  0  0
   26.4072  -19.9487  -22.6174 O   0  0  0  0  0  0  0  0  0  0  0  0
   27.1664  -20.8371  -20.4870 C   0  0  0  0  0  0  0  0  0  0  0  0
   26.6110  -21.4404  -19.2439 C   0  0  0  0  0  0  0  0  0  0  0  0
   26.1411  -20.4359  -18.2443 C   0  0  2  0  0  0  0  0  0  0  0  0
   26.9672  -19.2381  -18.4048 N   0  0  0  0  0  0  0  0  0  0  0  0
   26.2722  -20.9008  -16.8492 C   0  0  0  0  0  0  0  0  0  0  0  0
   25.5540  -21.8451  -16.4432 O   0  0  0  0  0  0  0  0  0  0  0  0
   28.1517  -18.5616  -13.9510 O   0  0  0  0  0  0  0  0  0  0  0  0
   28.4546  -19.9165  -13.9633 C   0  0  0  0  0  0  0  0  0  0  0  0
   27.2764  -20.7267  -14.5230 C   0  0  2  0  0  0  0  0  0  0  0  0
   27.1776  -20.3371  -15.9154 N   0  0  0  0  0  0  0  0  0  0  0  0
   26.0862  -20.3050  -13.7447 C   0  0  0  0  0  0  0  0  0  0  0  0
   25.2218  -19.5174  -14.2117 O   0  0  0  0  0  0  0  0  0  0  0  0
   21.4101  -19.6472  -11.5031 N   0  0  0  0  0  0  0  0  0  0  0  0
   22.2998  -20.7346  -11.4416 C   0  0  0  0  0  0  0  0  0  0  0  0
   22.0574  -21.6496  -10.5966 O   0  0  0  0  0  0  0  0  0  0  0  0
   23.4915  -20.9028  -12.2762 C   0  0  0  0  0  0  0  0  0  0  0  0
   24.7724  -20.5045  -11.6050 C   0  0  2  0  0  0  0  0  0  0  0  0
   25.9203  -20.8013  -12.4441 N   0  0  0  0  0  0  0  0  0  0  0  0
   24.9726  -21.1534  -10.2915 C   0  0  0  0  0  0  0  0  0  0  0  0
   24.5494  -20.6297   -9.2191 O   0  0  0  0  0  0  0  0  0  0  0  0
   25.6344  -22.3666  -10.1771 O   0  0  0  0  0  0  0  0  0  0  0  0
  1  2  1  0
  2  3  2  0
  4  2  1  0
  4  5  1  0
  6  5  1  0
  6  7  1  1
  8  6  1  0
  9  8  2  0
 12 11  1  1
 11 10  1  0
 12 13  1  0
 13  8  1  0
 14 21  1  0
 14 12  1  0
 15 14  2  0
 17 16  1  0
 18 17  2  0
 19 17  1  0
 20 19  1  6
 20 21  1  0
 22 20  1  0
 22 24  1  0
 23 22  2  0
M  END
$$$$
