QSN.pdb
     RDKit          3D

 24 23  0  0  1  0  0  0  0  0999 V2000
   27.9317  -18.8700  -17.9448 N   0  0  0  0  0  0  0  0  0  0  0  0
   28.6750  -17.9870  -17.0789 C   0  0  0  0  0  0  0  0  0  0  0  0
   29.5084  -17.2550  -17.6687 O   0  0  0  0  0  0  0  0  0  0  0  0
   28.4314  -17.9863  -15.6169 C   0  0  0  0  0  0  0  0  0  0  0  0
   27.3065  -18.8549  -15.1723 C   0  0  0  0  0  0  0  0  0  0  0  0
   27.7460  -20.1124  -14.4981 C   0  0  2  0  0  0  0  0  0  0  0  0
   28.4048  -20.9436  -15.5072 N   0  0  0  0  0  0  0  0  0  0  0  0
   26.6261  -20.8857  -13.9258 C   0  0  0  0  0  0  0  0  0  0  0  0
   25.9668  -21.6557  -14.6639 O   0  0  0  0  0  0  0  0  0  0  0  0
   25.1561  -19.7764  -10.2017 O   0  0  0  0  0  0  0  0  0  0  0  0
   25.0870  -21.1270  -10.5157 C   0  0  0  0  0  0  0  0  0  0  0  0
   24.9872  -21.3223  -12.0355 C   0  0  2  0  0  0  0  0  0  0  0  0
   26.2370  -20.8141  -12.5646 N   0  0  0  0  0  0  0  0  0  0  0  0
   23.8283  -20.5075  -12.4752 C   0  0  0  0  0  0  0  0  0  0  0  0
   23.9661  -19.3776  -13.0137 O   0  0  0  0  0  0  0  0  0  0  0  0
   19.2461  -18.8903  -14.2178 N   0  0  0  0  0  0  0  0  0  0  0  0
   20.2706  -19.5624  -14.9079 C   0  0  0  0  0  0  0  0  0  0  0  0
   20.1611  -19.6732  -16.1672 O   0  0  0  0  0  0  0  0  0  0  0  0
   21.4630  -20.1496  -14.2928 C   0  0  0  0  0  0  0  0  0  0  0  0
   21.3356  -20.3959  -12.8188 C   0  0  2  0  0  0  0  0  0  0  0  0
   22.5355  -21.0148  -12.2831 N   0  0  0  0  0  0  0  0  0  0  0  0
   20.1749  -21.2405  -12.4636 C   0  0  0  0  0  0  0  0  0  0  0  0
   20.1374  -22.4738  -12.7482 O   0  0  0  0  0  0  0  0  0  0  0  0
   19.0744  -20.7168  -11.8021 O   0  0  0  0  0  0  0  0  0  0  0  0
  1  2  1  0
  2  3  2  0
  4  2  1  0
  4  5  1  0
  6  5  1  0
  6  7  1  6
  8  6  1  0
  9  8  2  0
 12 11  1  1
 11 10  1  0
 12 13  1  0
 13  8  1  0
 14 21  1  0
 14 12  1  0
 15 14  2  0
 17 16  1  0
 18 17  2  0
 19 17  1  0
 20 19  1  6
 20 21  1  0
 22 20  1  0
 22 24  1  0
 23 22  2  0
M  END
$$$$
