DLL.pdb
     RDKit          3D

 25 24  0  0  1  0  0  0  0  0999 V2000
    8.8469  -17.4507   20.6091 N   0  0  0  0  0  0  0  0  0  0  0  0
   10.2106  -17.3052   21.0755 C   0  0  1  0  0  0  0  0  0  0  0  0
   10.9525  -16.5097   20.0091 C   0  0  0  0  0  0  0  0  0  0  0  0
   11.3037  -17.4378   18.9026 C   0  0  0  0  0  0  0  0  0  0  0  0
   10.3707  -17.9388   18.2498 O   0  0  0  0  0  0  0  0  0  0  0  0
   10.2849  -16.5126   22.3387 C   0  0  0  0  0  0  0  0  0  0  0  0
   11.3240  -15.8848   22.5805 O   0  0  0  0  0  0  0  0  0  0  0  0
   12.6212  -17.7518   18.5874 O   0  0  0  0  0  0  0  0  0  0  0  0
    8.0170  -12.9761   24.4753 C   0  0  0  0  0  0  0  0  0  0  0  0
    7.2268  -14.2213   24.4336 C   0  0  2  0  0  0  0  0  0  0  0  0
    5.8770  -13.9859   25.0791 C   0  0  0  0  0  0  0  0  0  0  0  0
    7.8851  -15.4284   25.0258 C   0  0  0  0  0  0  0  0  0  0  0  0
    9.2120  -15.7663   24.4693 C   0  0  2  0  0  0  0  0  0  0  0  0
    9.2059  -16.4742   23.2381 N   0  0  0  0  0  0  0  0  0  0  0  0
    9.9662  -16.5442   25.5023 C   0  0  0  0  0  0  0  0  0  0  0  0
   10.4084  -17.6697   25.1845 O   0  0  0  0  0  0  0  0  0  0  0  0
   10.1847  -14.3968   30.6371 C   0  0  0  0  0  0  0  0  0  0  0  0
   10.2645  -14.8302   29.2103 C   0  0  1  0  0  0  0  0  0  0  0  0
   10.4252  -13.5942   28.3242 C   0  0  0  0  0  0  0  0  0  0  0  0
   11.2271  -15.8852   28.8996 C   0  0  0  0  0  0  0  0  0  0  0  0
   11.0822  -16.8053   27.7680 C   0  0  2  0  0  0  0  0  0  0  0  0
   10.1972  -16.0626   26.8112 N   0  0  0  0  0  0  0  0  0  0  0  0
   10.4128  -18.0865   28.0404 C   0  0  0  0  0  0  0  0  0  0  0  0
    9.1402  -18.3681   27.4873 O   0  0  0  0  0  0  0  0  0  0  0  0
   10.8685  -19.0077   28.7468 O   0  0  0  0  0  0  0  0  0  0  0  0
  2  1  1  6
  2  3  1  0
  3  4  1  0
  4  8  1  0
  5  4  2  0
  6 14  1  0
  6  2  1  0
  7  6  2  0
 10  9  1  1
 10 12  1  0
 11 10  1  0
 13 12  1  1
 13 14  1  0
 15 16  2  0
 15 13  1  0
 18 17  1  1
 18 19  1  0
 21 20  1  1
 20 18  1  0
 21 22  1  0
 22 15  1  0
 23 21  1  0
 24 23  1  0
 25 23  2  0
M  END
$$$$
