DLL.pdb
     RDKit          3D

 25 24  0  0  1  0  0  0  0  0999 V2000
    9.8448  -18.9364   20.2745 N   0  0  0  0  0  0  0  0  0  0  0  0
   11.0854  -18.1919   20.2034 C   0  0  1  0  0  0  0  0  0  0  0  0
   11.3236  -17.8829   18.7310 C   0  0  0  0  0  0  0  0  0  0  0  0
   11.9064  -19.0929   18.0945 C   0  0  0  0  0  0  0  0  0  0  0  0
   12.5490  -19.8745   18.8182 O   0  0  0  0  0  0  0  0  0  0  0  0
   10.9889  -16.8812   20.9121 C   0  0  0  0  0  0  0  0  0  0  0  0
   11.9959  -16.1631   20.9633 O   0  0  0  0  0  0  0  0  0  0  0  0
   11.7535  -19.3652   16.7394 O   0  0  0  0  0  0  0  0  0  0  0  0
    8.1771  -13.2722   20.4058 C   0  0  0  0  0  0  0  0  0  0  0  0
    7.5761  -14.3948   21.1509 C   0  0  2  0  0  0  0  0  0  0  0  0
    6.1111  -14.1068   21.4053 C   0  0  0  0  0  0  0  0  0  0  0  0
    8.2637  -14.7695   22.4268 C   0  0  0  0  0  0  0  0  0  0  0  0
    9.6432  -15.2793   22.2798 C   0  0  2  0  0  0  0  0  0  0  0  0
    9.7875  -16.4640   21.5099 N   0  0  0  0  0  0  0  0  0  0  0  0
   10.2115  -15.4872   23.6490 C   0  0  0  0  0  0  0  0  0  0  0  0
   11.3500  -15.0296   23.8892 O   0  0  0  0  0  0  0  0  0  0  0  0
   10.7680  -13.9189   28.2825 C   0  0  0  0  0  0  0  0  0  0  0  0
    9.4224  -14.5167   28.0330 C   0  0  1  0  0  0  0  0  0  0  0  0
    8.3478  -13.5244   28.4791 C   0  0  0  0  0  0  0  0  0  0  0  0
    9.1833  -15.0551   26.6954 C   0  0  0  0  0  0  0  0  0  0  0  0
    9.9890  -16.1233   26.0971 C   0  0  2  0  0  0  0  0  0  0  0  0
    9.5197  -16.1735   24.6731 N   0  0  0  0  0  0  0  0  0  0  0  0
    9.8006  -17.4765   26.6421 C   0  0  0  0  0  0  0  0  0  0  0  0
    8.6652  -18.2454   26.2894 O   0  0  0  0  0  0  0  0  0  0  0  0
   10.5760  -18.0571   27.4275 O   0  0  0  0  0  0  0  0  0  0  0  0
  2  1  1  6
  2  3  1  0
  3  4  1  0
  4  8  1  0
  5  4  2  0
  6 14  1  0
  6  2  1  0
  7  6  2  0
 10  9  1  1
 10 12  1  0
 11 10  1  0
 13 12  1  1
 13 14  1  0
 15 16  2  0
 15 13  1  0
 18 17  1  6
 18 19  1  0
 21 20  1  1
 20 18  1  0
 21 22  1  0
 22 15  1  0
 23 21  1  0
 24 23  1  0
 25 23  2  0
M  END
$$$$
