DLL.pdb
     RDKit          3D

 25 24  0  0  1  0  0  0  0  0999 V2000
    8.4658  -18.3453   21.3479 N   0  0  0  0  0  0  0  0  0  0  0  0
    9.7399  -17.6563   21.3277 C   0  0  1  0  0  0  0  0  0  0  0  0
    9.9312  -17.1371   19.9085 C   0  0  0  0  0  0  0  0  0  0  0  0
   10.1406  -18.3057   19.0144 C   0  0  0  0  0  0  0  0  0  0  0  0
    9.1391  -18.9607   18.6744 O   0  0  0  0  0  0  0  0  0  0  0  0
    9.7432  -16.4663   22.2295 C   0  0  0  0  0  0  0  0  0  0  0  0
   10.7203  -15.7069   22.2002 O   0  0  0  0  0  0  0  0  0  0  0  0
   11.4016  -18.6755   18.5595 O   0  0  0  0  0  0  0  0  0  0  0  0
    5.9714  -13.4096   26.1994 C   0  0  0  0  0  0  0  0  0  0  0  0
    7.2203  -13.5975   25.4366 C   0  0  2  0  0  0  0  0  0  0  0  0
    7.4588  -12.3921   24.5512 C   0  0  0  0  0  0  0  0  0  0  0  0
    7.3085  -14.8592   24.6357 C   0  0  0  0  0  0  0  0  0  0  0  0
    8.6263  -15.1344   24.0258 C   0  0  2  0  0  0  0  0  0  0  0  0
    8.6668  -16.2061   23.0947 N   0  0  0  0  0  0  0  0  0  0  0  0
    9.6085  -15.3783   25.1289 C   0  0  0  0  0  0  0  0  0  0  0  0
   10.7090  -14.7871   25.0781 O   0  0  0  0  0  0  0  0  0  0  0  0
    9.6450  -13.5577   29.4110 C   0  0  0  0  0  0  0  0  0  0  0  0
   10.1471  -14.2935   28.2123 C   0  0  1  0  0  0  0  0  0  0  0  0
   11.4598  -13.6574   27.7531 C   0  0  0  0  0  0  0  0  0  0  0  0
   10.2249  -15.7488   28.3227 C   0  0  0  0  0  0  0  0  0  0  0  0
   10.4288  -16.6377   27.1754 C   0  0  2  0  0  0  0  0  0  0  0  0
    9.3451  -16.2421   26.2165 N   0  0  0  0  0  0  0  0  0  0  0  0
   10.2597  -18.0785   27.4183 C   0  0  0  0  0  0  0  0  0  0  0  0
   11.2506  -18.8152   28.1112 O   0  0  0  0  0  0  0  0  0  0  0  0
    9.2821  -18.7651   27.0603 O   0  0  0  0  0  0  0  0  0  0  0  0
  2  1  1  6
  2  3  1  0
  3  4  1  0
  4  8  1  0
  5  4  2  0
  6 14  1  0
  6  2  1  0
  7  6  2  0
 10  9  1  6
 10 12  1  0
 11 10  1  0
 13 12  1  1
 13 14  1  0
 15 16  2  0
 15 13  1  0
 18 17  1  1
 18 19  1  0
 21 20  1  1
 20 18  1  0
 21 22  1  0
 22 15  1  0
 23 21  1  0
 24 23  1  0
 25 23  2  0
M  END
$$$$
