DLL.pdb
     RDKit          3D

 25 24  0  0  1  0  0  0  0  0999 V2000
    8.9425  -18.8138   21.0250 N   0  0  0  0  0  0  0  0  0  0  0  0
   10.2872  -18.2796   20.9563 C   0  0  1  0  0  0  0  0  0  0  0  0
   10.7151  -18.3649   19.4969 C   0  0  0  0  0  0  0  0  0  0  0  0
   11.3838  -19.6757   19.2883 C   0  0  0  0  0  0  0  0  0  0  0  0
   11.3651  -20.4906   20.2281 O   0  0  0  0  0  0  0  0  0  0  0  0
   10.3329  -16.8370   21.3386 C   0  0  0  0  0  0  0  0  0  0  0  0
   11.4356  -16.2778   21.3992 O   0  0  0  0  0  0  0  0  0  0  0  0
   12.0156  -20.0048   18.0940 O   0  0  0  0  0  0  0  0  0  0  0  0
    8.7263  -13.0350   19.3411 C   0  0  0  0  0  0  0  0  0  0  0  0
    7.7369  -13.8836   20.0323 C   0  0  2  0  0  0  0  0  0  0  0  0
    6.3392  -13.4017   19.7035 C   0  0  0  0  0  0  0  0  0  0  0  0
    7.9108  -14.0088   21.5139 C   0  0  0  0  0  0  0  0  0  0  0  0
    9.1171  -14.7413   21.9530 C   0  0  2  0  0  0  0  0  0  0  0  0
    9.1572  -16.1226   21.6248 N   0  0  0  0  0  0  0  0  0  0  0  0
    9.2576  -14.5633   23.4327 C   0  0  0  0  0  0  0  0  0  0  0  0
    9.7763  -13.5055   23.8513 O   0  0  0  0  0  0  0  0  0  0  0  0
    5.8000  -12.8913   26.0444 C   0  0  0  0  0  0  0  0  0  0  0  0
    7.2353  -13.2761   25.8959 C   0  0  1  0  0  0  0  0  0  0  0  0
    8.0949  -12.3123   26.7149 C   0  0  0  0  0  0  0  0  0  0  0  0
    7.5647  -14.6798   26.1347 C   0  0  0  0  0  0  0  0  0  0  0  0
    8.8768  -15.2641   25.8433 C   0  0  2  0  0  0  0  0  0  0  0  0
    8.8313  -15.5336   24.3682 N   0  0  0  0  0  0  0  0  0  0  0  0
    9.1853  -16.5494   26.4887 C   0  0  0  0  0  0  0  0  0  0  0  0
    9.4483  -17.7031   25.7112 O   0  0  0  0  0  0  0  0  0  0  0  0
    9.2445  -16.7483   27.7184 O   0  0  0  0  0  0  0  0  0  0  0  0
  2  1  1  6
  2  3  1  0
  3  4  1  0
  4  8  1  0
  5  4  2  0
  6 14  1  0
  6  2  1  0
  7  6  2  0
 10  9  1  1
 10 12  1  0
 11 10  1  0
 13 12  1  1
 13 14  1  0
 15 16  2  0
 15 13  1  0
 18 17  1  1
 18 19  1  0
 21 20  1  1
 20 18  1  0
 21 22  1  0
 22 15  1  0
 23 21  1  0
 24 23  1  0
 25 23  2  0
M  END
$$$$
