DLL.pdb
     RDKit          3D

 25 24  0  0  1  0  0  0  0  0999 V2000
    9.8718  -19.4832   21.3908 N   0  0  0  0  0  0  0  0  0  0  0  0
   11.1161  -18.7453   21.3145 C   0  0  1  0  0  0  0  0  0  0  0  0
   11.7261  -19.0605   19.9548 C   0  0  0  0  0  0  0  0  0  0  0  0
   11.7876  -20.5382   19.8085 C   0  0  0  0  0  0  0  0  0  0  0  0
   12.0661  -20.9972   18.6862 O   0  0  0  0  0  0  0  0  0  0  0  0
   10.8914  -17.2699   21.3582 C   0  0  0  0  0  0  0  0  0  0  0  0
   11.8342  -16.5211   21.0707 O   0  0  0  0  0  0  0  0  0  0  0  0
   11.5464  -21.4001   20.8728 O   0  0  0  0  0  0  0  0  0  0  0  0
    6.5487  -12.9206   20.9476 C   0  0  0  0  0  0  0  0  0  0  0  0
    7.8895  -13.3935   21.3416 C   0  0  2  0  0  0  0  0  0  0  0  0
    8.9322  -12.7696   20.4373 C   0  0  0  0  0  0  0  0  0  0  0  0
    8.0649  -14.8793   21.3930 C   0  0  0  0  0  0  0  0  0  0  0  0
    9.3801  -15.3480   21.8780 C   0  0  2  0  0  0  0  0  0  0  0  0
    9.6424  -16.7344   21.7160 N   0  0  0  0  0  0  0  0  0  0  0  0
    9.5069  -14.9690   23.3207 C   0  0  0  0  0  0  0  0  0  0  0  0
   10.3685  -14.1181   23.6318 O   0  0  0  0  0  0  0  0  0  0  0  0
    5.8258  -12.8908   26.2323 C   0  0  0  0  0  0  0  0  0  0  0  0
    7.2500  -13.2421   25.9525 C   0  0  1  0  0  0  0  0  0  0  0  0
    8.1574  -12.2187   26.6365 C   0  0  0  0  0  0  0  0  0  0  0  0
    7.6471  -14.6239   26.2153 C   0  0  0  0  0  0  0  0  0  0  0  0
    8.9254  -15.1950   25.7819 C   0  0  2  0  0  0  0  0  0  0  0  0
    8.6992  -15.5287   24.3369 N   0  0  0  0  0  0  0  0  0  0  0  0
    9.3449  -16.4451   26.4338 C   0  0  0  0  0  0  0  0  0  0  0  0
    9.8996  -16.4294   27.7364 O   0  0  0  0  0  0  0  0  0  0  0  0
    9.2615  -17.5861   25.9371 O   0  0  0  0  0  0  0  0  0  0  0  0
  2  1  1  6
  2  3  1  0
  3  4  1  0
  4  8  1  0
  5  4  2  0
  6 14  1  0
  6  2  1  0
  7  6  2  0
 10  9  1  6
 10 12  1  0
 11 10  1  0
 13 12  1  1
 13 14  1  0
 15 16  2  0
 15 13  1  0
 18 17  1  1
 18 19  1  0
 21 20  1  1
 20 18  1  0
 21 22  1  0
 22 15  1  0
 23 21  1  0
 24 23  1  0
 25 23  2  0
M  END
$$$$
