DLL.pdb
     RDKit          3D

 25 24  0  0  1  0  0  0  0  0999 V2000
   10.8375  -18.8065   20.9686 N   0  0  0  0  0  0  0  0  0  0  0  0
   11.9095  -17.8413   20.8354 C   0  0  1  0  0  0  0  0  0  0  0  0
   12.0046  -17.4985   19.3543 C   0  0  0  0  0  0  0  0  0  0  0  0
   12.9524  -18.4519   18.7204 C   0  0  0  0  0  0  0  0  0  0  0  0
   13.4367  -19.3474   19.4354 O   0  0  0  0  0  0  0  0  0  0  0  0
   11.6059  -16.5697   21.5567 C   0  0  0  0  0  0  0  0  0  0  0  0
   12.4350  -15.6519   21.5083 O   0  0  0  0  0  0  0  0  0  0  0  0
   13.3023  -18.3679   17.3772 O   0  0  0  0  0  0  0  0  0  0  0  0
    7.5123  -14.7573   20.4940 C   0  0  0  0  0  0  0  0  0  0  0  0
    7.8475  -15.1107   21.8867 C   0  0  2  0  0  0  0  0  0  0  0  0
    6.6253  -14.9299   22.7628 C   0  0  0  0  0  0  0  0  0  0  0  0
    9.0219  -14.3921   22.4744 C   0  0  0  0  0  0  0  0  0  0  0  0
   10.0796  -15.2569   23.0382 C   0  0  2  0  0  0  0  0  0  0  0  0
   10.4096  -16.4092   22.2764 N   0  0  0  0  0  0  0  0  0  0  0  0
    9.6658  -15.6587   24.4196 C   0  0  0  0  0  0  0  0  0  0  0  0
    8.5300  -16.1588   24.5715 O   0  0  0  0  0  0  0  0  0  0  0  0
    8.4053  -12.6561   27.9251 C   0  0  0  0  0  0  0  0  0  0  0  0
    9.5038  -13.5776   27.5075 C   0  0  1  0  0  0  0  0  0  0  0  0
   10.7273  -13.3233   28.3890 C   0  0  0  0  0  0  0  0  0  0  0  0
    9.1630  -14.9946   27.3977 C   0  0  0  0  0  0  0  0  0  0  0  0
   10.0904  -16.0135   26.8977 C   0  0  2  0  0  0  0  0  0  0  0  0
   10.4996  -15.4976   25.5498 N   0  0  0  0  0  0  0  0  0  0  0  0
    9.5365  -17.3579   26.6747 C   0  0  0  0  0  0  0  0  0  0  0  0
    9.5823  -18.3364   27.6969 O   0  0  0  0  0  0  0  0  0  0  0  0
    8.9987  -17.7559   25.6222 O   0  0  0  0  0  0  0  0  0  0  0  0
  2  1  1  6
  2  3  1  0
  3  4  1  0
  4  8  1  0
  5  4  2  0
  6 14  1  0
  6  2  1  0
  7  6  2  0
 10  9  1  6
 10 12  1  0
 11 10  1  0
 13 12  1  6
 13 14  1  0
 15 16  2  0
 15 13  1  0
 18 17  1  1
 18 19  1  0
 21 20  1  6
 20 18  1  0
 21 22  1  0
 22 15  1  0
 23 21  1  0
 24 23  1  0
 25 23  2  0
M  END
$$$$
