DLL.pdb
     RDKit          3D

 25 24  0  0  1  0  0  0  0  0999 V2000
    7.2772  -18.5051   20.7094 N   0  0  0  0  0  0  0  0  0  0  0  0
    8.7227  -18.5788   20.6497 C   0  0  1  0  0  0  0  0  0  0  0  0
    9.0894  -18.7489   19.1811 C   0  0  0  0  0  0  0  0  0  0  0  0
    8.4881  -20.0201   18.7000 C   0  0  0  0  0  0  0  0  0  0  0  0
    7.9565  -20.7641   19.5435 O   0  0  0  0  0  0  0  0  0  0  0  0
    9.3639  -17.3127   21.1135 C   0  0  0  0  0  0  0  0  0  0  0  0
   10.5992  -17.2667   21.1782 O   0  0  0  0  0  0  0  0  0  0  0  0
    8.5056  -20.3886   17.3593 O   0  0  0  0  0  0  0  0  0  0  0  0
    8.1704  -12.1043   19.5624 C   0  0  0  0  0  0  0  0  0  0  0  0
    8.2502  -13.5162   19.9829 C   0  0  2  0  0  0  0  0  0  0  0  0
    7.0787  -14.2832   19.4055 C   0  0  0  0  0  0  0  0  0  0  0  0
    8.3508  -13.7497   21.4582 C   0  0  0  0  0  0  0  0  0  0  0  0
    9.1293  -14.9395   21.8621 C   0  0  2  0  0  0  0  0  0  0  0  0
    8.5916  -16.1943   21.4705 N   0  0  0  0  0  0  0  0  0  0  0  0
    9.3038  -14.8996   23.3483 C   0  0  0  0  0  0  0  0  0  0  0  0
   10.3371  -14.3640   23.8051 O   0  0  0  0  0  0  0  0  0  0  0  0
    5.6297  -12.7440   26.2521 C   0  0  0  0  0  0  0  0  0  0  0  0
    7.0083  -13.2157   25.9247 C   0  0  1  0  0  0  0  0  0  0  0  0
    8.0227  -12.2836   26.5887 C   0  0  0  0  0  0  0  0  0  0  0  0
    7.2901  -14.6299   26.1630 C   0  0  0  0  0  0  0  0  0  0  0  0
    8.5242  -15.2929   25.7326 C   0  0  2  0  0  0  0  0  0  0  0  0
    8.3563  -15.4378   24.2489 N   0  0  0  0  0  0  0  0  0  0  0  0
    8.7633  -16.6468   26.2554 C   0  0  0  0  0  0  0  0  0  0  0  0
    9.2414  -16.8375   27.5744 O   0  0  0  0  0  0  0  0  0  0  0  0
    8.5809  -17.7095   25.6287 O   0  0  0  0  0  0  0  0  0  0  0  0
  2  1  1  6
  2  3  1  0
  3  4  1  0
  4  8  1  0
  5  4  2  0
  6 14  1  0
  6  2  1  0
  7  6  2  0
 10  9  1  1
 10 12  1  0
 11 10  1  0
 13 12  1  1
 13 14  1  0
 15 16  2  0
 15 13  1  0
 18 17  1  1
 18 19  1  0
 21 20  1  1
 20 18  1  0
 21 22  1  0
 22 15  1  0
 23 21  1  0
 24 23  1  0
 25 23  2  0
M  END
$$$$
