DLL.pdb
     RDKit          3D

 25 24  0  0  1  0  0  0  0  0999 V2000
   11.8705  -17.3780   19.0137 N   0  0  0  0  0  0  0  0  0  0  0  0
   12.2579  -17.7515   20.3586 C   0  0  1  0  0  0  0  0  0  0  0  0
   13.7693  -17.5801   20.4394 C   0  0  0  0  0  0  0  0  0  0  0  0
   14.3993  -18.6575   19.6325 C   0  0  0  0  0  0  0  0  0  0  0  0
   13.6469  -19.4438   19.0297 O   0  0  0  0  0  0  0  0  0  0  0  0
   11.6624  -16.8418   21.3820 C   0  0  0  0  0  0  0  0  0  0  0  0
   12.3716  -15.9464   21.8589 O   0  0  0  0  0  0  0  0  0  0  0  0
   15.7789  -18.8037   19.5379 O   0  0  0  0  0  0  0  0  0  0  0  0
    8.2136  -13.9075   21.0118 C   0  0  0  0  0  0  0  0  0  0  0  0
    7.7398  -15.2948   21.1788 C   0  0  2  0  0  0  0  0  0  0  0  0
    6.2306  -15.3322   21.0567 C   0  0  0  0  0  0  0  0  0  0  0  0
    8.1794  -15.9847   22.4325 C   0  0  0  0  0  0  0  0  0  0  0  0
    9.6413  -16.0688   22.6330 C   0  0  2  0  0  0  0  0  0  0  0  0
   10.3291  -16.9910   21.8002 N   0  0  0  0  0  0  0  0  0  0  0  0
    9.8964  -16.3913   24.0724 C   0  0  0  0  0  0  0  0  0  0  0  0
   10.1849  -17.5712   24.3688 O   0  0  0  0  0  0  0  0  0  0  0  0
   11.2316  -14.6616   29.3419 C   0  0  0  0  0  0  0  0  0  0  0  0
    9.8883  -14.4495   28.7248 C   0  0  1  0  0  0  0  0  0  0  0  0
    9.2958  -13.1458   29.2612 C   0  0  0  0  0  0  0  0  0  0  0  0
    9.8128  -14.5553   27.2690 C   0  0  0  0  0  0  0  0  0  0  0  0
   10.0911  -15.7911   26.5319 C   0  0  2  0  0  0  0  0  0  0  0  0
    9.8255  -15.4247   25.1016 N   0  0  0  0  0  0  0  0  0  0  0  0
    9.2294  -16.9456   26.8294 C   0  0  0  0  0  0  0  0  0  0  0  0
    7.8883  -16.9813   26.3766 O   0  0  0  0  0  0  0  0  0  0  0  0
    9.5687  -17.9573   27.4749 O   0  0  0  0  0  0  0  0  0  0  0  0
  2  1  1  6
  2  3  1  0
  3  4  1  0
  4  8  1  0
  5  4  2  0
  6 14  1  0
  6  2  1  0
  7  6  2  0
 10  9  1  1
 10 12  1  0
 11 10  1  0
 13 12  1  1
 13 14  1  0
 15 16  2  0
 15 13  1  0
 18 17  1  6
 18 19  1  0
 21 20  1  1
 20 18  1  0
 21 22  1  0
 22 15  1  0
 23 21  1  0
 24 23  1  0
 25 23  2  0
M  END
$$$$
