DLL.pdb
     RDKit          3D

 25 24  0  0  1  0  0  0  0  0999 V2000
   11.1434  -18.2073   20.2351 N   0  0  0  0  0  0  0  0  0  0  0  0
   12.0012  -17.4017   21.0798 C   0  0  1  0  0  0  0  0  0  0  0  0
   13.0438  -16.7711   20.1657 C   0  0  0  0  0  0  0  0  0  0  0  0
   14.0801  -17.7954   19.8729 C   0  0  0  0  0  0  0  0  0  0  0  0
   14.7056  -17.6958   18.8021 O   0  0  0  0  0  0  0  0  0  0  0  0
   11.2538  -16.2810   21.7239 C   0  0  0  0  0  0  0  0  0  0  0  0
   11.8969  -15.4177   22.3348 O   0  0  0  0  0  0  0  0  0  0  0  0
   14.3604  -18.8389   20.7483 O   0  0  0  0  0  0  0  0  0  0  0  0
    8.2118  -13.1376   20.1943 C   0  0  0  0  0  0  0  0  0  0  0  0
    7.6158  -14.4732   20.3885 C   0  0  2  0  0  0  0  0  0  0  0  0
    6.1786  -14.4604   19.9109 C   0  0  0  0  0  0  0  0  0  0  0  0
    7.6995  -15.0259   21.7773 C   0  0  0  0  0  0  0  0  0  0  0  0
    9.0671  -15.2182   22.3039 C   0  0  2  0  0  0  0  0  0  0  0  0
    9.8531  -16.1998   21.6439 N   0  0  0  0  0  0  0  0  0  0  0  0
    8.9638  -15.5416   23.7619 C   0  0  0  0  0  0  0  0  0  0  0  0
    9.6773  -16.4645   24.2117 O   0  0  0  0  0  0  0  0  0  0  0  0
    6.4248  -11.7706   26.8199 C   0  0  0  0  0  0  0  0  0  0  0  0
    7.5177  -12.7389   26.5070 C   0  0  1  0  0  0  0  0  0  0  0  0
    8.7885  -12.3073   27.2401 C   0  0  0  0  0  0  0  0  0  0  0  0
    7.2078  -14.1560   26.6862 C   0  0  0  0  0  0  0  0  0  0  0  0
    7.9952  -15.2384   26.0893 C   0  0  2  0  0  0  0  0  0  0  0  0
    8.1003  -14.8521   24.6435 N   0  0  0  0  0  0  0  0  0  0  0  0
    7.3969  -16.5819   26.1153 C   0  0  0  0  0  0  0  0  0  0  0  0
    6.7945  -17.1268   24.9556 O   0  0  0  0  0  0  0  0  0  0  0  0
    7.3586  -17.3403   27.1047 O   0  0  0  0  0  0  0  0  0  0  0  0
  2  1  1  6
  2  3  1  0
  3  4  1  0
  4  8  1  0
  5  4  2  0
  6 14  1  0
  6  2  1  0
  7  6  2  0
 10  9  1  1
 10 12  1  0
 11 10  1  0
 13 12  1  6
 13 14  1  0
 15 16  2  0
 15 13  1  0
 18 17  1  1
 18 19  1  0
 21 20  1  1
 20 18  1  0
 21 22  1  0
 22 15  1  0
 23 21  1  0
 24 23  1  0
 25 23  2  0
M  END
$$$$
