DLL.pdb
     RDKit          3D

 25 24  0  0  1  0  0  0  0  0999 V2000
   11.9362  -16.9971   18.9195 N   0  0  0  0  0  0  0  0  0  0  0  0
   11.8968  -17.6861   20.1931 C   0  0  1  0  0  0  0  0  0  0  0  0
   13.3316  -18.0804   20.5189 C   0  0  0  0  0  0  0  0  0  0  0  0
   13.7131  -19.2082   19.6294 C   0  0  0  0  0  0  0  0  0  0  0  0
   14.8842  -19.2443   19.2111 O   0  0  0  0  0  0  0  0  0  0  0  0
   11.4311  -16.7924   21.2949 C   0  0  0  0  0  0  0  0  0  0  0  0
   12.1914  -15.8994   21.6908 O   0  0  0  0  0  0  0  0  0  0  0  0
   12.8118  -20.2014   19.2621 O   0  0  0  0  0  0  0  0  0  0  0  0
    8.2084  -13.6490   21.5469 C   0  0  0  0  0  0  0  0  0  0  0  0
    7.6794  -15.0257   21.5901 C   0  0  2  0  0  0  0  0  0  0  0  0
    6.1662  -14.9883   21.5352 C   0  0  0  0  0  0  0  0  0  0  0  0
    8.1393  -15.8622   22.7433 C   0  0  0  0  0  0  0  0  0  0  0  0
    9.5997  -16.0707   22.8351 C   0  0  2  0  0  0  0  0  0  0  0  0
   10.1614  -16.9536   21.8749 N   0  0  0  0  0  0  0  0  0  0  0  0
    9.9158  -16.5507   24.2174 C   0  0  0  0  0  0  0  0  0  0  0  0
   10.0492  -17.7808   24.3968 O   0  0  0  0  0  0  0  0  0  0  0  0
   10.2837  -13.9238   29.5282 C   0  0  0  0  0  0  0  0  0  0  0  0
    9.9831  -14.1619   28.0849 C   0  0  1  0  0  0  0  0  0  0  0  0
    9.5928  -12.8345   27.4335 C   0  0  0  0  0  0  0  0  0  0  0  0
   10.9864  -14.9005   27.3206 C   0  0  0  0  0  0  0  0  0  0  0  0
   10.7000  -16.1428   26.5977 C   0  0  2  0  0  0  0  0  0  0  0  0
   10.0688  -15.6777   25.3187 N   0  0  0  0  0  0  0  0  0  0  0  0
    9.7377  -17.0634   27.2224 C   0  0  0  0  0  0  0  0  0  0  0  0
    8.4379  -17.2235   26.6844 O   0  0  0  0  0  0  0  0  0  0  0  0
    9.9519  -17.7605   28.2341 O   0  0  0  0  0  0  0  0  0  0  0  0
  2  1  1  6
  2  3  1  0
  3  4  1  0
  4  8  1  0
  5  4  2  0
  6 14  1  0
  6  2  1  0
  7  6  2  0
 10  9  1  1
 10 12  1  0
 11 10  1  0
 13 12  1  1
 13 14  1  0
 15 16  2  0
 15 13  1  0
 18 17  1  1
 18 19  1  0
 21 20  1  1
 20 18  1  0
 21 22  1  0
 22 15  1  0
 23 21  1  0
 24 23  1  0
 25 23  2  0
M  END
$$$$
