DLL.pdb
     RDKit          3D

 25 24  0  0  1  0  0  0  0  0999 V2000
    9.4317  -18.6196   21.0556 N   0  0  0  0  0  0  0  0  0  0  0  0
   10.7207  -18.0002   21.2861 C   0  0  1  0  0  0  0  0  0  0  0  0
   11.4659  -18.0395   19.9582 C   0  0  0  0  0  0  0  0  0  0  0  0
   11.9378  -19.4311   19.7354 C   0  0  0  0  0  0  0  0  0  0  0  0
   11.4245  -20.3328   20.4218 O   0  0  0  0  0  0  0  0  0  0  0  0
   10.5870  -16.5626   21.6666 C   0  0  0  0  0  0  0  0  0  0  0  0
   11.6180  -15.8946   21.8186 O   0  0  0  0  0  0  0  0  0  0  0  0
   12.9176  -19.7415   18.7987 O   0  0  0  0  0  0  0  0  0  0  0  0
    8.7857  -12.8589   19.6996 C   0  0  0  0  0  0  0  0  0  0  0  0
    7.7786  -13.7764   20.2658 C   0  0  2  0  0  0  0  0  0  0  0  0
    6.3915  -13.3047   19.8819 C   0  0  0  0  0  0  0  0  0  0  0  0
    7.8631  -14.0016   21.7434 C   0  0  0  0  0  0  0  0  0  0  0  0
    9.1183  -14.6179   22.2220 C   0  0  2  0  0  0  0  0  0  0  0  0
    9.3248  -15.9729   21.8500 N   0  0  0  0  0  0  0  0  0  0  0  0
    9.1643  -14.4843   23.7124 C   0  0  0  0  0  0  0  0  0  0  0  0
    9.3589  -13.3477   24.1955 O   0  0  0  0  0  0  0  0  0  0  0  0
    5.7852  -13.1069   26.2245 C   0  0  0  0  0  0  0  0  0  0  0  0
    7.2347  -13.4499   26.1176 C   0  0  1  0  0  0  0  0  0  0  0  0
    8.0358  -12.5056   27.0150 C   0  0  0  0  0  0  0  0  0  0  0  0
    7.5903  -14.8551   26.3047 C   0  0  0  0  0  0  0  0  0  0  0  0
    8.9366  -15.3868   26.0748 C   0  0  2  0  0  0  0  0  0  0  0  0
    8.9978  -15.5812   24.5885 N   0  0  0  0  0  0  0  0  0  0  0  0
    9.2415  -16.6944   26.6753 C   0  0  0  0  0  0  0  0  0  0  0  0
    9.5742  -17.8034   25.8604 O   0  0  0  0  0  0  0  0  0  0  0  0
    9.2394  -16.9508   27.8958 O   0  0  0  0  0  0  0  0  0  0  0  0
  2  1  1  6
  2  3  1  0
  3  4  1  0
  4  8  1  0
  5  4  2  0
  6 14  1  0
  6  2  1  0
  7  6  2  0
 10  9  1  1
 10 12  1  0
 11 10  1  0
 13 12  1  1
 13 14  1  0
 15 16  2  0
 15 13  1  0
 18 17  1  1
 18 19  1  0
 21 20  1  6
 20 18  1  0
 21 22  1  0
 22 15  1  0
 23 21  1  0
 24 23  1  0
 25 23  2  0
M  END
$$$$
