DLL.pdb
     RDKit          3D

 25 24  0  0  1  0  0  0  0  0999 V2000
    7.8774  -18.3980   22.2323 N   0  0  0  0  0  0  0  0  0  0  0  0
    9.1823  -18.0244   21.7265 C   0  0  1  0  0  0  0  0  0  0  0  0
    8.9976  -17.6884   20.2523 C   0  0  0  0  0  0  0  0  0  0  0  0
    9.0515  -18.9570   19.4800 C   0  0  0  0  0  0  0  0  0  0  0  0
    9.0980  -18.8774   18.2393 O   0  0  0  0  0  0  0  0  0  0  0  0
    9.7046  -16.7932   22.3903 C   0  0  0  0  0  0  0  0  0  0  0  0
   10.7852  -16.3285   22.0046 O   0  0  0  0  0  0  0  0  0  0  0  0
    9.0512  -20.2027   20.0981 O   0  0  0  0  0  0  0  0  0  0  0  0
    7.6422  -12.9045   22.8571 C   0  0  0  0  0  0  0  0  0  0  0  0
    7.2856  -13.7953   23.9778 C   0  0  2  0  0  0  0  0  0  0  0  0
    6.2087  -13.1431   24.8199 C   0  0  0  0  0  0  0  0  0  0  0  0
    8.4246  -14.2411   24.8409 C   0  0  0  0  0  0  0  0  0  0  0  0
    9.4614  -15.0452   24.1604 C   0  0  2  0  0  0  0  0  0  0  0  0
    8.9934  -16.1694   23.4294 N   0  0  0  0  0  0  0  0  0  0  0  0
   10.4601  -15.4823   25.1863 C   0  0  0  0  0  0  0  0  0  0  0  0
   11.6095  -14.9932   25.1342 O   0  0  0  0  0  0  0  0  0  0  0  0
    9.6260  -14.5110   29.8871 C   0  0  0  0  0  0  0  0  0  0  0  0
   10.2500  -14.8855   28.5831 C   0  0  1  0  0  0  0  0  0  0  0  0
   11.3076  -13.8420   28.2209 C   0  0  0  0  0  0  0  0  0  0  0  0
   10.7361  -16.2584   28.4605 C   0  0  0  0  0  0  0  0  0  0  0  0
   11.1975  -16.8439   27.1986 C   0  0  2  0  0  0  0  0  0  0  0  0
   10.1595  -16.4173   26.2031 N   0  0  0  0  0  0  0  0  0  0  0  0
   11.2534  -18.3123   27.1336 C   0  0  0  0  0  0  0  0  0  0  0  0
   10.4390  -19.0262   26.2216 O   0  0  0  0  0  0  0  0  0  0  0  0
   11.9819  -19.0427   27.8344 O   0  0  0  0  0  0  0  0  0  0  0  0
  2  1  1  1
  2  3  1  0
  3  4  1  0
  4  8  1  0
  5  4  2  0
  6 14  1  0
  6  2  1  0
  7  6  2  0
 10  9  1  6
 10 12  1  0
 11 10  1  0
 13 12  1  1
 13 14  1  0
 15 16  2  0
 15 13  1  0
 18 17  1  1
 18 19  1  0
 21 20  1  1
 20 18  1  0
 21 22  1  0
 22 15  1  0
 23 21  1  0
 24 23  1  0
 25 23  2  0
M  END
$$$$
