DLL.pdb
     RDKit          3D

 25 24  0  0  1  0  0  0  0  0999 V2000
   11.2828  -17.9902   19.9584 N   0  0  0  0  0  0  0  0  0  0  0  0
   12.1673  -17.5048   20.9979 C   0  0  1  0  0  0  0  0  0  0  0  0
   13.2448  -16.6822   20.3032 C   0  0  0  0  0  0  0  0  0  0  0  0
   14.3031  -17.6131   19.8316 C   0  0  0  0  0  0  0  0  0  0  0  0
   14.0338  -18.3559   18.8706 O   0  0  0  0  0  0  0  0  0  0  0  0
   11.4638  -16.5884   21.9438 C   0  0  0  0  0  0  0  0  0  0  0  0
   12.1431  -15.9318   22.7436 O   0  0  0  0  0  0  0  0  0  0  0  0
   15.5588  -17.6716   20.4262 O   0  0  0  0  0  0  0  0  0  0  0  0
    8.5341  -13.1806   21.0937 C   0  0  0  0  0  0  0  0  0  0  0  0
    7.8657  -14.4959   21.0850 C   0  0  2  0  0  0  0  0  0  0  0  0
    6.4186  -14.3254   20.6717 C   0  0  0  0  0  0  0  0  0  0  0  0
    7.9563  -15.2788   22.3577 C   0  0  0  0  0  0  0  0  0  0  0  0
    9.3254  -15.6177   22.7998 C   0  0  2  0  0  0  0  0  0  0  0  0
   10.0638  -16.4675   21.9339 N   0  0  0  0  0  0  0  0  0  0  0  0
    9.2368  -16.2296   24.1631 C   0  0  0  0  0  0  0  0  0  0  0  0
    9.4375  -17.4590   24.2704 O   0  0  0  0  0  0  0  0  0  0  0  0
    9.4593  -12.7139   28.3612 C   0  0  0  0  0  0  0  0  0  0  0  0
    9.8418  -14.0223   27.7513 C   0  0  1  0  0  0  0  0  0  0  0  0
   11.0720  -14.5679   28.4777 C   0  0  0  0  0  0  0  0  0  0  0  0
    8.7771  -15.0132   27.6068 C   0  0  0  0  0  0  0  0  0  0  0  0
    8.8404  -16.1381   26.6694 C   0  0  2  0  0  0  0  0  0  0  0  0
    8.9385  -15.4808   25.3245 N   0  0  0  0  0  0  0  0  0  0  0  0
    7.6632  -17.0184   26.6141 C   0  0  0  0  0  0  0  0  0  0  0  0
    6.6782  -16.8448   25.6120 O   0  0  0  0  0  0  0  0  0  0  0  0
    7.4213  -17.9570   27.3989 O   0  0  0  0  0  0  0  0  0  0  0  0
  2  1  1  6
  2  3  1  0
  3  4  1  0
  4  8  1  0
  5  4  2  0
  6 14  1  0
  6  2  1  0
  7  6  2  0
 10  9  1  1
 10 12  1  0
 11 10  1  0
 13 12  1  6
 13 14  1  0
 15 16  2  0
 15 13  1  0
 18 17  1  1
 18 19  1  0
 21 20  1  1
 20 18  1  0
 21 22  1  0
 22 15  1  0
 23 21  1  0
 24 23  1  0
 25 23  2  0
M  END
$$$$
