DLL.pdb
     RDKit          3D

 25 24  0  0  1  0  0  0  0  0999 V2000
    8.0750  -16.5399   22.1364 N   0  0  0  0  0  0  0  0  0  0  0  0
    9.4664  -16.1833   22.3236 C   0  0  1  0  0  0  0  0  0  0  0  0
    9.7788  -15.0985   21.3008 C   0  0  0  0  0  0  0  0  0  0  0  0
    9.7917  -15.7253   19.9533 C   0  0  0  0  0  0  0  0  0  0  0  0
    9.4610  -16.9216   19.8686 O   0  0  0  0  0  0  0  0  0  0  0  0
    9.7127  -15.5922   23.6724 C   0  0  0  0  0  0  0  0  0  0  0  0
   10.8797  -15.3484   24.0052 O   0  0  0  0  0  0  0  0  0  0  0  0
   10.1567  -15.0214   18.8109 O   0  0  0  0  0  0  0  0  0  0  0  0
    7.8793  -11.8608   25.6157 C   0  0  0  0  0  0  0  0  0  0  0  0
    7.0313  -13.0638   25.7187 C   0  0  2  0  0  0  0  0  0  0  0  0
    5.6808  -12.6836   26.2894 C   0  0  0  0  0  0  0  0  0  0  0  0
    7.6181  -14.2084   26.4846 C   0  0  0  0  0  0  0  0  0  0  0  0
    8.8110  -14.8350   25.8772 C   0  0  2  0  0  0  0  0  0  0  0  0
    8.6509  -15.3157   24.5505 N   0  0  0  0  0  0  0  0  0  0  0  0
    9.2605  -15.9469   26.7730 C   0  0  0  0  0  0  0  0  0  0  0  0
    9.2958  -15.7327   28.0043 O   0  0  0  0  0  0  0  0  0  0  0  0
   10.1688  -21.4265   27.8418 C   0  0  0  0  0  0  0  0  0  0  0  0
   10.9520  -20.6986   26.7992 C   0  0  1  0  0  0  0  0  0  0  0  0
   11.2747  -21.6630   25.6571 C   0  0  0  0  0  0  0  0  0  0  0  0
   10.4005  -19.4271   26.3351 C   0  0  0  0  0  0  0  0  0  0  0  0
   10.1893  -18.2695   27.2088 C   0  0  2  0  0  0  0  0  0  0  0  0
    9.6430  -17.2185   26.2882 N   0  0  0  0  0  0  0  0  0  0  0  0
   11.3864  -17.6881   27.8353 C   0  0  0  0  0  0  0  0  0  0  0  0
   12.3992  -17.0939   27.0441 O   0  0  0  0  0  0  0  0  0  0  0  0
   11.6232  -17.6584   29.0594 O   0  0  0  0  0  0  0  0  0  0  0  0
  2  1  1  1
  2  3  1  0
  3  4  1  0
  4  8  1  0
  5  4  2  0
  6 14  1  0
  6  2  1  0
  7  6  2  0
 10  9  1  1
 10 12  1  0
 11 10  1  0
 13 12  1  1
 13 14  1  0
 15 16  2  0
 15 13  1  0
 18 17  1  1
 18 19  1  0
 21 20  1  6
 20 18  1  0
 21 22  1  0
 22 15  1  0
 23 21  1  0
 24 23  1  0
 25 23  2  0
M  END
$$$$
