LHS.pdb
     RDKit          3D

 25 25  0  0  1  0  0  0  0  0999 V2000
    9.4897  -12.0740   19.6072 C   0  0  0  0  0  0  0  0  0  0  0  0
    8.4422  -13.0952   19.1748 C   0  0  2  0  0  0  0  0  0  0  0  0
    7.1248  -12.3727   19.0371 C   0  0  0  0  0  0  0  0  0  0  0  0
    8.3821  -14.2528   20.1337 C   0  0  0  0  0  0  0  0  0  0  0  0
    9.7709  -14.6919   20.5008 C   0  0  2  0  0  0  0  0  0  0  0  0
   10.4664  -15.1768   19.3368 N   0  0  0  0  0  0  0  0  0  0  0  0
    9.7450  -15.7591   21.5202 C   0  0  0  0  0  0  0  0  0  0  0  0
    8.8436  -15.8262   22.3545 O   0  0  0  0  0  0  0  0  0  0  0  0
   10.7919  -16.7272   21.5288 N   0  0  0  0  0  0  0  0  0  0  0  0
   10.9005  -17.7558   22.5119 C   0  0  1  0  0  0  0  0  0  0  0  0
   11.7786  -18.8663   22.0891 C   0  0  0  0  0  0  0  0  0  0  0  0
   11.2635  -19.7871   21.0637 C   0  0  0  0  0  0  0  0  0  0  0  0
    9.9797  -20.1652   20.8121 C   0  0  0  0  0  0  0  0  0  0  0  0
    9.9444  -21.0049   19.7396 N   0  0  0  0  0  0  0  0  0  0  0  0
   11.2027  -21.1437   19.3303 C   0  0  0  0  0  0  0  0  0  0  0  0
   11.9963  -20.4247   20.1090 N   0  0  0  0  0  0  0  0  0  0  0  0
   11.2813  -17.2353   23.8518 C   0  0  0  0  0  0  0  0  0  0  0  0
   12.3352  -16.5697   24.0147 O   0  0  0  0  0  0  0  0  0  0  0  0
    9.1442  -15.3338   26.2819 O   0  0  0  0  0  0  0  0  0  0  0  0
    9.6173  -16.4264   26.9712 C   0  0  0  0  0  0  0  0  0  0  0  0
   10.8820  -17.0095   26.3290 C   0  0  2  0  0  0  0  0  0  0  0  0
   10.4863  -17.4579   25.0085 N   0  0  0  0  0  0  0  0  0  0  0  0
   11.3604  -18.1091   27.1764 C   0  0  0  0  0  0  0  0  0  0  0  0
   11.8281  -17.8293   28.4478 O   0  0  0  0  0  0  0  0  0  0  0  0
   11.3649  -19.3037   26.7975 O   0  0  0  0  0  0  0  0  0  0  0  0
  2  1  1  1
  3  2  1  0
  4  5  1  0
  4  2  1  0
  5  6  1  6
  7  5  1  0
  7  8  2  0
  9  7  1  0
 10  9  1  0
 10 11  1  6
 12 16  1  0
 12 11  1  0
 13 12  2  0
 14 13  1  0
 14 15  1  0
 15 16  2  0
 17 10  1  0
 18 17  2  0
 20 19  1  0
 21 22  1  0
 21 20  1  1
 22 17  1  0
 23 21  1  0
 24 23  1  0
 25 23  2  0
M  END
$$$$
