LHS.pdb
     RDKit          3D

 25 25  0  0  1  0  0  0  0  0999 V2000
    6.0219  -11.8127   24.7587 C   0  0  0  0  0  0  0  0  0  0  0  0
    6.2227  -12.4442   26.1326 C   0  0  2  0  0  0  0  0  0  0  0  0
    6.6882  -11.3604   27.0735 C   0  0  0  0  0  0  0  0  0  0  0  0
    7.1701  -13.6107   26.0626 C   0  0  0  0  0  0  0  0  0  0  0  0
    6.5710  -14.7136   25.2372 C   0  0  2  0  0  0  0  0  0  0  0  0
    5.5106  -15.3627   25.9637 N   0  0  0  0  0  0  0  0  0  0  0  0
    7.5851  -15.7217   24.8707 C   0  0  0  0  0  0  0  0  0  0  0  0
    7.8332  -16.6769   25.6049 O   0  0  0  0  0  0  0  0  0  0  0  0
    8.2857  -15.5752   23.6374 N   0  0  0  0  0  0  0  0  0  0  0  0
    9.3438  -16.4413   23.2291 C   0  0  1  0  0  0  0  0  0  0  0  0
    9.9839  -16.0138   21.9680 C   0  0  0  0  0  0  0  0  0  0  0  0
   10.9709  -16.9231   21.3648 C   0  0  0  0  0  0  0  0  0  0  0  0
   11.4556  -18.1046   21.8377 C   0  0  0  0  0  0  0  0  0  0  0  0
   12.3253  -18.6435   20.9378 N   0  0  0  0  0  0  0  0  0  0  0  0
   12.3764  -17.7971   19.9125 C   0  0  0  0  0  0  0  0  0  0  0  0
   11.5757  -16.7707   20.1540 N   0  0  0  0  0  0  0  0  0  0  0  0
   10.3469  -16.6723   24.3023 C   0  0  0  0  0  0  0  0  0  0  0  0
   10.9357  -15.7114   24.8590 O   0  0  0  0  0  0  0  0  0  0  0  0
   11.7680  -19.2264   27.9765 O   0  0  0  0  0  0  0  0  0  0  0  0
   10.9309  -18.9005   26.9345 C   0  0  0  0  0  0  0  0  0  0  0  0
   11.6796  -18.2094   25.7884 C   0  0  2  0  0  0  0  0  0  0  0  0
   10.6920  -17.9750   24.7534 N   0  0  0  0  0  0  0  0  0  0  0  0
   12.7593  -19.0999   25.3442 C   0  0  0  0  0  0  0  0  0  0  0  0
   13.8572  -19.2928   26.1632 O   0  0  0  0  0  0  0  0  0  0  0  0
   12.7326  -19.7008   24.2447 O   0  0  0  0  0  0  0  0  0  0  0  0
  2  1  1  6
  3  2  1  0
  4  5  1  0
  4  2  1  0
  5  6  1  1
  7  5  1  0
  7  8  2  0
  9  7  1  0
 10  9  1  0
 10 11  1  6
 12 16  1  0
 12 11  1  0
 13 12  2  0
 14 13  1  0
 14 15  1  0
 15 16  2  0
 17 10  1  0
 18 17  2  0
 20 19  1  0
 21 22  1  0
 21 20  1  1
 22 17  1  0
 23 21  1  0
 24 23  1  0
 25 23  2  0
M  END
$$$$
