LHS.pdb
     RDKit          3D

 25 25  0  0  1  0  0  0  0  0999 V2000
    9.3282  -12.1936   18.9284 C   0  0  0  0  0  0  0  0  0  0  0  0
    7.9897  -12.9068   19.0912 C   0  0  2  0  0  0  0  0  0  0  0  0
    7.2549  -12.2509   20.2342 C   0  0  0  0  0  0  0  0  0  0  0  0
    8.1810  -14.3863   19.2853 C   0  0  0  0  0  0  0  0  0  0  0  0
    9.1577  -14.9175   18.2751 C   0  0  2  0  0  0  0  0  0  0  0  0
    8.4580  -15.4541   17.1367 N   0  0  0  0  0  0  0  0  0  0  0  0
   10.0079  -15.9757   18.8550 C   0  0  0  0  0  0  0  0  0  0  0  0
    9.5379  -17.0605   19.1948 O   0  0  0  0  0  0  0  0  0  0  0  0
   11.4018  -15.7244   19.0200 N   0  0  0  0  0  0  0  0  0  0  0  0
   12.3015  -16.6578   19.6164 C   0  0  1  0  0  0  0  0  0  0  0  0
   13.4980  -16.9140   18.7885 C   0  0  0  0  0  0  0  0  0  0  0  0
   13.3287  -17.7508   17.5902 C   0  0  0  0  0  0  0  0  0  0  0  0
   12.4571  -18.7738   17.3701 C   0  0  0  0  0  0  0  0  0  0  0  0
   12.6094  -19.2491   16.1022 N   0  0  0  0  0  0  0  0  0  0  0  0
   13.5714  -18.5208   15.5416 C   0  0  0  0  0  0  0  0  0  0  0  0
   14.0070  -17.6268   16.4157 N   0  0  0  0  0  0  0  0  0  0  0  0
   12.6673  -16.2958   21.0115 C   0  0  0  0  0  0  0  0  0  0  0  0
   13.4253  -15.3225   21.2527 O   0  0  0  0  0  0  0  0  0  0  0  0
   11.1388  -18.5682   24.0297 O   0  0  0  0  0  0  0  0  0  0  0  0
   11.4836  -17.2875   24.3954 C   0  0  0  0  0  0  0  0  0  0  0  0
   12.5813  -16.7070   23.4956 C   0  0  2  0  0  0  0  0  0  0  0  0
   12.1873  -17.0200   22.1361 N   0  0  0  0  0  0  0  0  0  0  0  0
   13.8570  -17.3309   23.8692 C   0  0  0  0  0  0  0  0  0  0  0  0
   14.4397  -17.0062   25.0809 O   0  0  0  0  0  0  0  0  0  0  0  0
   14.4498  -18.1539   23.1329 O   0  0  0  0  0  0  0  0  0  0  0  0
  2  1  1  1
  3  2  1  0
  4  5  1  0
  4  2  1  0
  5  6  1  6
  7  5  1  0
  7  8  2  0
  9  7  1  0
 10  9  1  0
 10 11  1  6
 12 16  1  0
 12 11  1  0
 13 12  2  0
 14 13  1  0
 14 15  1  0
 15 16  2  0
 17 10  1  0
 18 17  2  0
 20 19  1  0
 21 22  1  0
 21 20  1  1
 22 17  1  0
 23 21  1  0
 24 23  1  0
 25 23  2  0
M  END
$$$$
