LHS.pdb
     RDKit          3D

 25 25  0  0  1  0  0  0  0  0999 V2000
    7.0381  -12.0978   24.3716 C   0  0  0  0  0  0  0  0  0  0  0  0
    6.4630  -12.7734   25.6125 C   0  0  2  0  0  0  0  0  0  0  0  0
    6.4520  -11.7561   26.7267 C   0  0  0  0  0  0  0  0  0  0  0  0
    7.2313  -14.0194   25.9596 C   0  0  0  0  0  0  0  0  0  0  0  0
    7.1963  -14.9847   24.8092 C   0  0  2  0  0  0  0  0  0  0  0  0
    5.8548  -15.4637   24.5986 N   0  0  0  0  0  0  0  0  0  0  0  0
    8.0831  -16.1399   25.0505 C   0  0  0  0  0  0  0  0  0  0  0  0
    7.6816  -17.1442   25.6364 O   0  0  0  0  0  0  0  0  0  0  0  0
    9.4314  -16.0795   24.5903 N   0  0  0  0  0  0  0  0  0  0  0  0
   10.3621  -17.1498   24.7475 C   0  0  1  0  0  0  0  0  0  0  0  0
   11.4995  -17.0665   23.8082 C   0  0  0  0  0  0  0  0  0  0  0  0
   11.2006  -17.1498   22.3700 C   0  0  0  0  0  0  0  0  0  0  0  0
   10.3001  -17.9394   21.7217 C   0  0  0  0  0  0  0  0  0  0  0  0
   10.3180  -17.6651   20.3871 N   0  0  0  0  0  0  0  0  0  0  0  0
   11.2262  -16.7085   20.2129 C   0  0  0  0  0  0  0  0  0  0  0  0
   11.7578  -16.3935   21.3839 N   0  0  0  0  0  0  0  0  0  0  0  0
   10.8218  -17.3130   26.1522 C   0  0  0  0  0  0  0  0  0  0  0  0
   11.4468  -16.3956   26.7420 O   0  0  0  0  0  0  0  0  0  0  0  0
    9.9081  -20.7945   28.0632 O   0  0  0  0  0  0  0  0  0  0  0  0
   10.1126  -19.7146   28.8906 C   0  0  0  0  0  0  0  0  0  0  0  0
   11.0465  -18.6743   28.2602 C   0  0  2  0  0  0  0  0  0  0  0  0
   10.5839  -18.4994   26.8975 N   0  0  0  0  0  0  0  0  0  0  0  0
   12.4190  -19.1917   28.3261 C   0  0  0  0  0  0  0  0  0  0  0  0
   13.0031  -19.4048   29.5617 O   0  0  0  0  0  0  0  0  0  0  0  0
   13.0946  -19.4525   27.3031 O   0  0  0  0  0  0  0  0  0  0  0  0
  2  1  1  6
  3  2  1  0
  4  5  1  0
  4  2  1  0
  5  6  1  1
  7  5  1  0
  7  8  2  0
  9  7  1  0
 10  9  1  0
 10 11  1  6
 12 16  1  0
 12 11  1  0
 13 12  2  0
 14 13  1  0
 14 15  1  0
 15 16  2  0
 17 10  1  0
 18 17  2  0
 20 19  1  0
 21 22  1  0
 21 20  1  6
 22 17  1  0
 23 21  1  0
 24 23  1  0
 25 23  2  0
M  END
$$$$
