LHS.pdb
     RDKit          3D

 25 25  0  0  1  0  0  0  0  0999 V2000
    8.8928  -13.8927   18.5843 C   0  0  0  0  0  0  0  0  0  0  0  0
    7.7519  -13.5204   19.5259 C   0  0  2  0  0  0  0  0  0  0  0  0
    7.2719  -12.1418   19.1445 C   0  0  0  0  0  0  0  0  0  0  0  0
    8.1795  -13.6184   20.9649 C   0  0  0  0  0  0  0  0  0  0  0  0
    8.6300  -15.0173   21.2755 C   0  0  2  0  0  0  0  0  0  0  0  0
    7.5866  -15.9597   20.9646 N   0  0  0  0  0  0  0  0  0  0  0  0
    8.9940  -15.1608   22.6988 C   0  0  0  0  0  0  0  0  0  0  0  0
    9.8756  -14.4699   23.2073 O   0  0  0  0  0  0  0  0  0  0  0  0
    8.3026  -16.1236   23.4916 N   0  0  0  0  0  0  0  0  0  0  0  0
    8.5394  -16.3058   24.8870 C   0  0  1  0  0  0  0  0  0  0  0  0
    7.3688  -15.9607   25.7197 C   0  0  0  0  0  0  0  0  0  0  0  0
    7.0681  -14.5332   25.9108 C   0  0  0  0  0  0  0  0  0  0  0  0
    7.8122  -13.4435   25.5741 C   0  0  0  0  0  0  0  0  0  0  0  0
    7.1375  -12.3035   25.8932 N   0  0  0  0  0  0  0  0  0  0  0  0
    5.9802  -12.6889   26.4245 C   0  0  0  0  0  0  0  0  0  0  0  0
    5.9267  -14.0118   26.4404 N   0  0  0  0  0  0  0  0  0  0  0  0
    9.0631  -17.6592   25.2114 C   0  0  0  0  0  0  0  0  0  0  0  0
    8.3173  -18.6704   25.1749 O   0  0  0  0  0  0  0  0  0  0  0  0
   13.0871  -18.2139   25.4570 O   0  0  0  0  0  0  0  0  0  0  0  0
   12.2910  -19.3113   25.2234 C   0  0  0  0  0  0  0  0  0  0  0  0
   10.9301  -19.1950   25.9205 C   0  0  2  0  0  0  0  0  0  0  0  0
   10.4183  -17.8832   25.5761 N   0  0  0  0  0  0  0  0  0  0  0  0
   11.1405  -19.3551   27.3649 C   0  0  0  0  0  0  0  0  0  0  0  0
   11.6878  -20.5323   27.8424 O   0  0  0  0  0  0  0  0  0  0  0  0
   10.8439  -18.4646   28.1955 O   0  0  0  0  0  0  0  0  0  0  0  0
  2  1  1  6
  3  2  1  0
  4  5  1  0
  4  2  1  0
  5  6  1  1
  7  5  1  0
  7  8  2  0
  9  7  1  0
 10  9  1  0
 10 11  1  1
 12 16  1  0
 12 11  1  0
 13 12  2  0
 14 13  1  0
 14 15  1  0
 15 16  2  0
 17 10  1  0
 18 17  2  0
 20 19  1  0
 21 22  1  0
 21 20  1  6
 22 17  1  0
 23 21  1  0
 24 23  1  0
 25 23  2  0
M  END
$$$$
