LHS.pdb
     RDKit          3D

 25 25  0  0  1  0  0  0  0  0999 V2000
    9.3904  -17.8198   14.8297 C   0  0  0  0  0  0  0  0  0  0  0  0
    8.4826  -16.7699   15.4627 C   0  0  2  0  0  0  0  0  0  0  0  0
    8.0734  -15.8024   14.3797 C   0  0  0  0  0  0  0  0  0  0  0  0
    9.1564  -16.0990   16.6285 C   0  0  0  0  0  0  0  0  0  0  0  0
    9.4790  -17.1110   17.6907 C   0  0  2  0  0  0  0  0  0  0  0  0
    8.2920  -17.8312   18.0726 N   0  0  0  0  0  0  0  0  0  0  0  0
   10.0529  -16.4676   18.8888 C   0  0  0  0  0  0  0  0  0  0  0  0
   11.0915  -15.8112   18.8280 O   0  0  0  0  0  0  0  0  0  0  0  0
    9.3810  -16.6166   20.1377 N   0  0  0  0  0  0  0  0  0  0  0  0
    9.8237  -15.9978   21.3450 C   0  0  1  0  0  0  0  0  0  0  0  0
    8.7209  -15.3938   22.1206 C   0  0  0  0  0  0  0  0  0  0  0  0
    7.9276  -14.3411   21.4671 C   0  0  0  0  0  0  0  0  0  0  0  0
    8.2149  -13.0195   21.3077 C   0  0  0  0  0  0  0  0  0  0  0  0
    7.2207  -12.4096   20.6033 N   0  0  0  0  0  0  0  0  0  0  0  0
    6.3230  -13.3524   20.3283 C   0  0  0  0  0  0  0  0  0  0  0  0
    6.7317  -14.5049   20.8361 N   0  0  0  0  0  0  0  0  0  0  0  0
   10.6546  -16.9007   22.1850 C   0  0  0  0  0  0  0  0  0  0  0  0
   10.3524  -18.1120   22.3320 O   0  0  0  0  0  0  0  0  0  0  0  0
   14.9402  -17.3197   24.4798 O   0  0  0  0  0  0  0  0  0  0  0  0
   13.9756  -16.5507   23.8710 C   0  0  0  0  0  0  0  0  0  0  0  0
   12.6928  -17.3453   23.5975 C   0  0  2  0  0  0  0  0  0  0  0  0
   11.8216  -16.4515   22.8602 N   0  0  0  0  0  0  0  0  0  0  0  0
   12.1212  -17.7501   24.8880 C   0  0  0  0  0  0  0  0  0  0  0  0
   12.6329  -18.8596   25.5364 O   0  0  0  0  0  0  0  0  0  0  0  0
   11.1800  -17.1302   25.4363 O   0  0  0  0  0  0  0  0  0  0  0  0
  2  1  1  6
  3  2  1  0
  4  5  1  0
  4  2  1  0
  5  6  1  1
  7  5  1  0
  7  8  2  0
  9  7  1  0
 10  9  1  0
 10 11  1  1
 12 16  1  0
 12 11  1  0
 13 12  2  0
 14 13  1  0
 14 15  1  0
 15 16  2  0
 17 10  1  0
 18 17  2  0
 20 19  1  0
 21 22  1  0
 21 20  1  1
 22 17  1  0
 23 21  1  0
 24 23  1  0
 25 23  2  0
M  END
$$$$
