LHS.pdb
     RDKit          3D

 25 25  0  0  1  0  0  0  0  0999 V2000
    6.8603  -11.9297   25.0424 C   0  0  0  0  0  0  0  0  0  0  0  0
    6.4262  -12.7160   26.2753 C   0  0  2  0  0  0  0  0  0  0  0  0
    6.6742  -11.8488   27.4848 C   0  0  0  0  0  0  0  0  0  0  0  0
    7.1283  -14.0446   26.3488 C   0  0  0  0  0  0  0  0  0  0  0  0
    6.8532  -14.8433   25.1067 C   0  0  2  0  0  0  0  0  0  0  0  0
    5.4939  -15.3183   25.1081 N   0  0  0  0  0  0  0  0  0  0  0  0
    7.7631  -16.0007   25.0001 C   0  0  0  0  0  0  0  0  0  0  0  0
    7.4870  -17.0822   25.5170 O   0  0  0  0  0  0  0  0  0  0  0  0
    8.9849  -15.8507   24.2804 N   0  0  0  0  0  0  0  0  0  0  0  0
    9.9678  -16.8806   24.1809 C   0  0  1  0  0  0  0  0  0  0  0  0
   10.8554  -16.7185   23.0110 C   0  0  0  0  0  0  0  0  0  0  0  0
   10.2664  -16.9211   21.6780 C   0  0  0  0  0  0  0  0  0  0  0  0
    8.9909  -17.2599   21.3423 C   0  0  0  0  0  0  0  0  0  0  0  0
    8.8626  -17.3006   19.9863 N   0  0  0  0  0  0  0  0  0  0  0  0
   10.0554  -16.9871   19.4871 C   0  0  0  0  0  0  0  0  0  0  0  0
   10.8983  -16.7591   20.4824 N   0  0  0  0  0  0  0  0  0  0  0  0
   10.7433  -17.0613   25.4367 C   0  0  0  0  0  0  0  0  0  0  0  0
   11.2886  -16.0844   26.0098 O   0  0  0  0  0  0  0  0  0  0  0  0
    9.9319  -19.6749   28.2884 O   0  0  0  0  0  0  0  0  0  0  0  0
   11.2433  -19.8042   27.8934 C   0  0  0  0  0  0  0  0  0  0  0  0
   11.7651  -18.5376   27.2040 C   0  0  2  0  0  0  0  0  0  0  0  0
   10.9097  -18.3315   26.0520 N   0  0  0  0  0  0  0  0  0  0  0  0
   13.1669  -18.7643   26.8302 C   0  0  0  0  0  0  0  0  0  0  0  0
   14.1107  -18.9494   27.8243 O   0  0  0  0  0  0  0  0  0  0  0  0
   13.5532  -18.7985   25.6384 O   0  0  0  0  0  0  0  0  0  0  0  0
  2  1  1  6
  3  2  1  0
  4  5  1  0
  4  2  1  0
  5  6  1  1
  7  5  1  0
  7  8  2  0
  9  7  1  0
 10  9  1  0
 10 11  1  6
 12 16  1  0
 12 11  1  0
 13 12  2  0
 14 13  1  0
 14 15  1  0
 15 16  2  0
 17 10  1  0
 18 17  2  0
 20 19  1  0
 21 22  1  0
 21 20  1  6
 22 17  1  0
 23 21  1  0
 24 23  1  0
 25 23  2  0
M  END
$$$$
