LHS.pdb
     RDKit          3D

 25 25  0  0  1  0  0  0  0  0999 V2000
    6.2937  -12.7144   27.8325 C   0  0  0  0  0  0  0  0  0  0  0  0
    6.9414  -12.2472   26.5328 C   0  0  2  0  0  0  0  0  0  0  0  0
    6.5061  -10.8235   26.2878 C   0  0  0  0  0  0  0  0  0  0  0  0
    6.6047  -13.1707   25.3940 C   0  0  0  0  0  0  0  0  0  0  0  0
    7.2376  -14.5150   25.6149 C   0  0  2  0  0  0  0  0  0  0  0  0
    8.4635  -14.3748   26.3572 N   0  0  0  0  0  0  0  0  0  0  0  0
    7.5297  -15.1881   24.3340 C   0  0  0  0  0  0  0  0  0  0  0  0
    6.6275  -15.5473   23.5789 O   0  0  0  0  0  0  0  0  0  0  0  0
    8.8897  -15.4216   23.9746 N   0  0  0  0  0  0  0  0  0  0  0  0
    9.2800  -16.0942   22.7781 C   0  0  1  0  0  0  0  0  0  0  0  0
    9.7934  -15.1748   21.7418 C   0  0  0  0  0  0  0  0  0  0  0  0
    8.8062  -14.4241   20.9502 C   0  0  0  0  0  0  0  0  0  0  0  0
    7.4462  -14.4607   21.0104 C   0  0  0  0  0  0  0  0  0  0  0  0
    6.9179  -13.5696   20.1252 N   0  0  0  0  0  0  0  0  0  0  0  0
    7.9490  -12.9846   19.5213 C   0  0  0  0  0  0  0  0  0  0  0  0
    9.0769  -13.4836   20.0029 N   0  0  0  0  0  0  0  0  0  0  0  0
   10.2208  -17.2181   23.0287 C   0  0  0  0  0  0  0  0  0  0  0  0
   11.1643  -17.1044   23.8516 O   0  0  0  0  0  0  0  0  0  0  0  0
    9.1826  -21.1046   22.6744 O   0  0  0  0  0  0  0  0  0  0  0  0
   10.3539  -20.8110   22.0152 C   0  0  0  0  0  0  0  0  0  0  0  0
   11.0359  -19.5597   22.5817 C   0  0  2  0  0  0  0  0  0  0  0  0
   10.1083  -18.4677   22.3613 N   0  0  0  0  0  0  0  0  0  0  0  0
   12.3069  -19.3700   21.8715 C   0  0  0  0  0  0  0  0  0  0  0  0
   13.3382  -20.2684   22.0782 O   0  0  0  0  0  0  0  0  0  0  0  0
   12.5039  -18.4208   21.0771 O   0  0  0  0  0  0  0  0  0  0  0  0
  2  1  1  1
  3  2  1  0
  4  5  1  0
  4  2  1  0
  5  6  1  6
  7  5  1  0
  7  8  2  0
  9  7  1  0
 10  9  1  0
 10 11  1  6
 12 16  1  0
 12 11  1  0
 13 12  2  0
 14 13  1  0
 14 15  1  0
 15 16  2  0
 17 10  1  0
 18 17  2  0
 20 19  1  0
 21 22  1  0
 21 20  1  6
 22 17  1  0
 23 21  1  0
 24 23  1  0
 25 23  2  0
M  END
$$$$
