LHS.pdb
     RDKit          3D

 25 25  0  0  1  0  0  0  0  0999 V2000
    8.7074  -12.6707   18.2625 C   0  0  0  0  0  0  0  0  0  0  0  0
    7.6104  -13.4529   18.9777 C   0  0  2  0  0  0  0  0  0  0  0  0
    6.8085  -12.4740   19.7995 C   0  0  0  0  0  0  0  0  0  0  0  0
    8.1873  -14.5757   19.7960 C   0  0  0  0  0  0  0  0  0  0  0  0
    8.9405  -15.5264   18.9098 C   0  0  2  0  0  0  0  0  0  0  0  0
    8.0282  -16.2499   18.0626 N   0  0  0  0  0  0  0  0  0  0  0  0
    9.7241  -16.4937   19.7031 C   0  0  0  0  0  0  0  0  0  0  0  0
    9.1765  -17.2955   20.4582 O   0  0  0  0  0  0  0  0  0  0  0  0
   11.1450  -16.4895   19.5837 N   0  0  0  0  0  0  0  0  0  0  0  0
   11.9962  -17.3674   20.3195 C   0  0  1  0  0  0  0  0  0  0  0  0
   13.3153  -17.5588   19.6824 C   0  0  0  0  0  0  0  0  0  0  0  0
   14.2451  -18.5064   20.3166 C   0  0  0  0  0  0  0  0  0  0  0  0
   14.1114  -19.1931   21.4850 C   0  0  0  0  0  0  0  0  0  0  0  0
   15.1941  -19.9978   21.6774 N   0  0  0  0  0  0  0  0  0  0  0  0
   15.9929  -19.8086   20.6303 C   0  0  0  0  0  0  0  0  0  0  0  0
   15.4400  -18.9247   19.8142 N   0  0  0  0  0  0  0  0  0  0  0  0
   12.1288  -16.9787   21.7487 C   0  0  0  0  0  0  0  0  0  0  0  0
   12.7544  -15.9414   22.0846 O   0  0  0  0  0  0  0  0  0  0  0  0
   10.1210  -19.1611   24.5974 O   0  0  0  0  0  0  0  0  0  0  0  0
   10.4313  -17.8542   24.8942 C   0  0  0  0  0  0  0  0  0  0  0  0
   11.7192  -17.3955   24.1994 C   0  0  2  0  0  0  0  0  0  0  0  0
   11.5634  -17.7475   22.8018 N   0  0  0  0  0  0  0  0  0  0  0  0
   12.8508  -18.0863   24.8305 C   0  0  0  0  0  0  0  0  0  0  0  0
   13.2339  -17.7277   26.1103 O   0  0  0  0  0  0  0  0  0  0  0  0
   13.4937  -18.9968   24.2573 O   0  0  0  0  0  0  0  0  0  0  0  0
  2  1  1  1
  3  2  1  0
  4  5  1  0
  4  2  1  0
  5  6  1  1
  7  5  1  0
  7  8  2  0
  9  7  1  0
 10  9  1  0
 10 11  1  6
 12 16  1  0
 12 11  1  0
 13 12  2  0
 14 13  1  0
 14 15  1  0
 15 16  2  0
 17 10  1  0
 18 17  2  0
 20 19  1  0
 21 22  1  0
 21 20  1  1
 22 17  1  0
 23 21  1  0
 24 23  1  0
 25 23  2  0
M  END
$$$$
