LHS.pdb
     RDKit          3D

 25 25  0  0  1  0  0  0  0  0999 V2000
    8.5084  -13.1746   18.2431 C   0  0  0  0  0  0  0  0  0  0  0  0
    7.5168  -13.4268   19.3744 C   0  0  2  0  0  0  0  0  0  0  0  0
    7.0576  -12.0856   19.8912 C   0  0  0  0  0  0  0  0  0  0  0  0
    8.1205  -14.2952   20.4442 C   0  0  0  0  0  0  0  0  0  0  0  0
    8.4064  -15.6647   19.8972 C   0  0  2  0  0  0  0  0  0  0  0  0
    7.1835  -16.3051   19.4874 N   0  0  0  0  0  0  0  0  0  0  0  0
    9.0771  -16.5146   20.9005 C   0  0  0  0  0  0  0  0  0  0  0  0
    8.4342  -17.1469   21.7371 O   0  0  0  0  0  0  0  0  0  0  0  0
   10.5007  -16.5969   20.8905 N   0  0  0  0  0  0  0  0  0  0  0  0
   11.2509  -17.3241   21.8626 C   0  0  1  0  0  0  0  0  0  0  0  0
   12.5828  -17.7350   21.3728 C   0  0  0  0  0  0  0  0  0  0  0  0
   12.6345  -18.7906   20.3493 C   0  0  0  0  0  0  0  0  0  0  0  0
   11.6227  -19.5456   19.8386 C   0  0  0  0  0  0  0  0  0  0  0  0
   12.1058  -20.3795   18.8753 N   0  0  0  0  0  0  0  0  0  0  0  0
   13.4117  -20.1390   18.7915 C   0  0  0  0  0  0  0  0  0  0  0  0
   13.7382  -19.1965   19.6623 N   0  0  0  0  0  0  0  0  0  0  0  0
   11.3405  -16.6184   23.1683 C   0  0  0  0  0  0  0  0  0  0  0  0
   12.1405  -15.6636   23.3373 O   0  0  0  0  0  0  0  0  0  0  0  0
    8.3131  -16.7756   25.7892 O   0  0  0  0  0  0  0  0  0  0  0  0
    9.2926  -15.8238   25.9541 C   0  0  0  0  0  0  0  0  0  0  0  0
   10.6824  -16.3574   25.5862 C   0  0  2  0  0  0  0  0  0  0  0  0
   10.5375  -16.9783   24.2843 N   0  0  0  0  0  0  0  0  0  0  0  0
   11.0950  -17.3127   26.6221 C   0  0  0  0  0  0  0  0  0  0  0  0
   11.3060  -18.6355   26.2772 O   0  0  0  0  0  0  0  0  0  0  0  0
   11.2670  -16.9820   27.8187 O   0  0  0  0  0  0  0  0  0  0  0  0
  2  1  1  6
  3  2  1  0
  4  5  1  0
  4  2  1  0
  5  6  1  1
  7  5  1  0
  7  8  2  0
  9  7  1  0
 10  9  1  0
 10 11  1  6
 12 16  1  0
 12 11  1  0
 13 12  2  0
 14 13  1  0
 14 15  1  0
 15 16  2  0
 17 10  1  0
 18 17  2  0
 20 19  1  0
 21 22  1  0
 21 20  1  1
 22 17  1  0
 23 21  1  0
 24 23  1  0
 25 23  2  0
M  END
$$$$
