LHS.pdb
     RDKit          3D

 25 25  0  0  1  0  0  0  0  0999 V2000
    9.4861  -12.9626   19.6914 C   0  0  0  0  0  0  0  0  0  0  0  0
    8.1186  -13.6334   19.6083 C   0  0  2  0  0  0  0  0  0  0  0  0
    7.1751  -12.6718   18.9289 C   0  0  0  0  0  0  0  0  0  0  0  0
    7.6409  -14.0663   20.9676 C   0  0  0  0  0  0  0  0  0  0  0  0
    8.7065  -14.8694   21.6576 C   0  0  2  0  0  0  0  0  0  0  0  0
    8.9606  -16.0889   20.9352 N   0  0  0  0  0  0  0  0  0  0  0  0
    8.3140  -15.2067   23.0401 C   0  0  0  0  0  0  0  0  0  0  0  0
    7.7531  -14.3864   23.7649 O   0  0  0  0  0  0  0  0  0  0  0  0
    8.5961  -16.5138   23.5352 N   0  0  0  0  0  0  0  0  0  0  0  0
    8.3452  -16.9130   24.8822 C   0  0  1  0  0  0  0  0  0  0  0  0
    8.1687  -18.3727   25.0269 C   0  0  0  0  0  0  0  0  0  0  0  0
    7.0607  -18.9996   24.2892 C   0  0  0  0  0  0  0  0  0  0  0  0
    5.8311  -18.4963   23.9903 C   0  0  0  0  0  0  0  0  0  0  0  0
    5.1267  -19.3990   23.2516 N   0  0  0  0  0  0  0  0  0  0  0  0
    5.9199  -20.4557   23.0947 C   0  0  0  0  0  0  0  0  0  0  0  0
    7.0723  -20.2305   23.7065 N   0  0  0  0  0  0  0  0  0  0  0  0
    9.3549  -16.3854   25.8379 C   0  0  0  0  0  0  0  0  0  0  0  0
   10.5838  -16.5781   25.6568 O   0  0  0  0  0  0  0  0  0  0  0  0
    8.8695  -12.9529   27.6989 O   0  0  0  0  0  0  0  0  0  0  0  0
    9.2822  -13.9077   28.5992 C   0  0  0  0  0  0  0  0  0  0  0  0
    9.9723  -15.0905   27.9089 C   0  0  2  0  0  0  0  0  0  0  0  0
    8.9927  -15.6433   26.9945 N   0  0  0  0  0  0  0  0  0  0  0  0
   10.3802  -16.0496   28.9433 C   0  0  0  0  0  0  0  0  0  0  0  0
    9.8764  -17.3373   28.9083 O   0  0  0  0  0  0  0  0  0  0  0  0
   11.1729  -15.7527   29.8675 O   0  0  0  0  0  0  0  0  0  0  0  0
  2  1  1  1
  3  2  1  0
  4  5  1  0
  4  2  1  0
  5  6  1  6
  7  5  1  0
  7  8  2  0
  9  7  1  0
 10  9  1  0
 10 11  1  6
 12 16  1  0
 12 11  1  0
 13 12  2  0
 14 13  1  0
 14 15  1  0
 15 16  2  0
 17 10  1  0
 18 17  2  0
 20 19  1  0
 21 22  1  0
 21 20  1  1
 22 17  1  0
 23 21  1  0
 24 23  1  0
 25 23  2  0
M  END
$$$$
