LHS.pdb
     RDKit          3D

 25 25  0  0  1  0  0  0  0  0999 V2000
   10.0083  -12.6561   19.1218 C   0  0  0  0  0  0  0  0  0  0  0  0
    8.5470  -13.0458   18.9225 C   0  0  2  0  0  0  0  0  0  0  0  0
    7.7252  -11.7808   18.9547 C   0  0  0  0  0  0  0  0  0  0  0  0
    8.1094  -14.0590   19.9447 C   0  0  0  0  0  0  0  0  0  0  0  0
    9.1197  -15.1666   20.0392 C   0  0  2  0  0  0  0  0  0  0  0  0
    9.2040  -15.8750   18.7884 N   0  0  0  0  0  0  0  0  0  0  0  0
    8.7691  -16.1237   21.1070 C   0  0  0  0  0  0  0  0  0  0  0  0
    7.6473  -16.1380   21.6113 O   0  0  0  0  0  0  0  0  0  0  0  0
    9.7595  -17.0463   21.5555 N   0  0  0  0  0  0  0  0  0  0  0  0
    9.4940  -18.0852   22.4972 C   0  0  1  0  0  0  0  0  0  0  0  0
   10.1325  -19.3675   22.1355 C   0  0  0  0  0  0  0  0  0  0  0  0
    9.5923  -20.0917   20.9743 C   0  0  0  0  0  0  0  0  0  0  0  0
    8.4141  -20.7633   20.8498 C   0  0  0  0  0  0  0  0  0  0  0  0
    8.2905  -21.2537   19.5846 N   0  0  0  0  0  0  0  0  0  0  0  0
    9.3888  -20.8851   18.9303 C   0  0  0  0  0  0  0  0  0  0  0  0
   10.1704  -20.1937   19.7453 N   0  0  0  0  0  0  0  0  0  0  0  0
    9.8099  -17.6906   23.8957 C   0  0  0  0  0  0  0  0  0  0  0  0
   10.9797  -17.3794   24.2345 O   0  0  0  0  0  0  0  0  0  0  0  0
    6.7319  -17.4591   26.5600 O   0  0  0  0  0  0  0  0  0  0  0  0
    7.8312  -16.6878   26.8587 C   0  0  0  0  0  0  0  0  0  0  0  0
    9.1240  -17.2803   26.2849 C   0  0  2  0  0  0  0  0  0  0  0  0
    8.8205  -17.6437   24.9149 N   0  0  0  0  0  0  0  0  0  0  0  0
    9.4993  -18.4395   27.1044 C   0  0  0  0  0  0  0  0  0  0  0  0
    9.8538  -18.2465   28.4274 O   0  0  0  0  0  0  0  0  0  0  0  0
    9.5138  -19.6098   26.6560 O   0  0  0  0  0  0  0  0  0  0  0  0
  2  1  1  1
  3  2  1  0
  4  5  1  0
  4  2  1  0
  5  6  1  6
  7  5  1  0
  7  8  2  0
  9  7  1  0
 10  9  1  0
 10 11  1  6
 12 16  1  0
 12 11  1  0
 13 12  2  0
 14 13  1  0
 14 15  1  0
 15 16  2  0
 17 10  1  0
 18 17  2  0
 20 19  1  0
 21 22  1  0
 21 20  1  1
 22 17  1  0
 23 21  1  0
 24 23  1  0
 25 23  2  0
M  END
$$$$
