LHS.pdb
     RDKit          3D

 25 25  0  0  1  0  0  0  0  0999 V2000
    8.0273  -12.1520   18.6167 C   0  0  0  0  0  0  0  0  0  0  0  0
    7.6686  -13.3018   19.5527 C   0  0  2  0  0  0  0  0  0  0  0  0
    6.8622  -12.7319   20.6935 C   0  0  0  0  0  0  0  0  0  0  0  0
    8.8996  -14.0358   20.0101 C   0  0  0  0  0  0  0  0  0  0  0  0
    9.6367  -14.5951   18.8269 C   0  0  2  0  0  0  0  0  0  0  0  0
    8.7607  -15.4202   18.0360 N   0  0  0  0  0  0  0  0  0  0  0  0
   10.7986  -15.4014   19.2500 C   0  0  0  0  0  0  0  0  0  0  0  0
   10.6988  -16.6101   19.4552 O   0  0  0  0  0  0  0  0  0  0  0  0
   12.0581  -14.7552   19.4213 N   0  0  0  0  0  0  0  0  0  0  0  0
   13.2220  -15.4226   19.9075 C   0  0  1  0  0  0  0  0  0  0  0  0
   14.4773  -14.8496   19.3796 C   0  0  0  0  0  0  0  0  0  0  0  0
   14.7948  -15.0971   17.9645 C   0  0  0  0  0  0  0  0  0  0  0  0
   14.8585  -14.2150   16.9289 C   0  0  0  0  0  0  0  0  0  0  0  0
   15.2305  -14.8626   15.7892 N   0  0  0  0  0  0  0  0  0  0  0  0
   15.3967  -16.1403   16.1211 C   0  0  0  0  0  0  0  0  0  0  0  0
   15.1409  -16.2925   17.4112 N   0  0  0  0  0  0  0  0  0  0  0  0
   13.2489  -15.5290   21.3904 C   0  0  0  0  0  0  0  0  0  0  0  0
   13.3382  -14.5049   22.1138 O   0  0  0  0  0  0  0  0  0  0  0  0
   11.4959  -17.6394   25.1551 O   0  0  0  0  0  0  0  0  0  0  0  0
   11.7083  -17.4749   23.8059 C   0  0  0  0  0  0  0  0  0  0  0  0
   13.0921  -16.8847   23.5082 C   0  0  2  0  0  0  0  0  0  0  0  0
   13.1761  -16.7778   22.0650 N   0  0  0  0  0  0  0  0  0  0  0  0
   14.1053  -17.7899   24.0650 C   0  0  0  0  0  0  0  0  0  0  0  0
   14.3305  -17.7956   25.4298 O   0  0  0  0  0  0  0  0  0  0  0  0
   14.7838  -18.5670   23.3534 O   0  0  0  0  0  0  0  0  0  0  0  0
  2  1  1  6
  3  2  1  0
  4  5  1  0
  4  2  1  0
  5  6  1  1
  7  5  1  0
  7  8  2  0
  9  7  1  0
 10  9  1  0
 10 11  1  1
 12 16  1  0
 12 11  1  0
 13 12  2  0
 14 13  1  0
 14 15  1  0
 15 16  2  0
 17 10  1  0
 18 17  2  0
 20 19  1  0
 21 22  1  0
 21 20  1  6
 22 17  1  0
 23 21  1  0
 24 23  1  0
 25 23  2  0
M  END
$$$$
