LHS.pdb
     RDKit          3D

 25 25  0  0  1  0  0  0  0  0999 V2000
    7.8774  -13.0693   18.7812 C   0  0  0  0  0  0  0  0  0  0  0  0
    7.4038  -13.2537   20.2195 C   0  0  2  0  0  0  0  0  0  0  0  0
    7.3916  -11.8959   20.8774 C   0  0  0  0  0  0  0  0  0  0  0  0
    8.2572  -14.2546   20.9496 C   0  0  0  0  0  0  0  0  0  0  0  0
    8.0810  -15.6197   20.3481 C   0  0  2  0  0  0  0  0  0  0  0  0
    6.7199  -16.0632   20.5039 N   0  0  0  0  0  0  0  0  0  0  0  0
    8.9794  -16.6054   20.9806 C   0  0  0  0  0  0  0  0  0  0  0  0
    8.6224  -17.2640   21.9562 O   0  0  0  0  0  0  0  0  0  0  0  0
   10.2864  -16.7898   20.4411 N   0  0  0  0  0  0  0  0  0  0  0  0
   11.2422  -17.6941   20.9934 C   0  0  1  0  0  0  0  0  0  0  0  0
   12.3898  -17.9385   20.0956 C   0  0  0  0  0  0  0  0  0  0  0  0
   13.3817  -18.9398   20.5179 C   0  0  0  0  0  0  0  0  0  0  0  0
   13.2741  -19.9127   21.4647 C   0  0  0  0  0  0  0  0  0  0  0  0
   14.4191  -20.6504   21.5049 N   0  0  0  0  0  0  0  0  0  0  0  0
   15.2302  -20.1345   20.5850 C   0  0  0  0  0  0  0  0  0  0  0  0
   14.6251  -19.1174   19.9913 N   0  0  0  0  0  0  0  0  0  0  0  0
   11.6867  -17.3018   22.3571 C   0  0  0  0  0  0  0  0  0  0  0  0
   12.2325  -16.1892   22.5675 O   0  0  0  0  0  0  0  0  0  0  0  0
   11.5269  -18.4075   27.0958 O   0  0  0  0  0  0  0  0  0  0  0  0
   11.1236  -18.5835   25.7924 C   0  0  0  0  0  0  0  0  0  0  0  0
   11.9976  -17.7974   24.8076 C   0  0  2  0  0  0  0  0  0  0  0  0
   11.5219  -18.1509   23.4847 N   0  0  0  0  0  0  0  0  0  0  0  0
   13.3965  -18.1872   25.0250 C   0  0  0  0  0  0  0  0  0  0  0  0
   14.0880  -17.6555   26.0985 O   0  0  0  0  0  0  0  0  0  0  0  0
   14.0008  -18.9888   24.2746 O   0  0  0  0  0  0  0  0  0  0  0  0
  2  1  1  6
  3  2  1  0
  4  5  1  0
  4  2  1  0
  5  6  1  1
  7  5  1  0
  7  8  2  0
  9  7  1  0
 10  9  1  0
 10 11  1  6
 12 16  1  0
 12 11  1  0
 13 12  2  0
 14 13  1  0
 14 15  1  0
 15 16  2  0
 17 10  1  0
 18 17  2  0
 20 19  1  0
 21 22  1  0
 21 20  1  1
 22 17  1  0
 23 21  1  0
 24 23  1  0
 25 23  2  0
M  END
$$$$
