WQW.pdb
     RDKit          3D

 38 41  0  0  1  0  0  0  0  0999 V2000
    6.3965  -18.2481   23.9784 N   0  0  0  0  0  0  0  0  0  0  0  0
    7.1073  -17.0285   23.6193 C   0  0  1  0  0  0  0  0  0  0  0  0
    7.6027  -16.3164   24.8722 C   0  0  0  0  0  0  0  0  0  0  0  0
    6.6863  -15.2965   25.3724 C   0  0  0  0  0  0  0  0  0  0  0  0
    5.5942  -15.5001   26.1749 C   0  0  0  0  0  0  0  0  0  0  0  0
    4.9873  -14.3087   26.4313 N   0  0  0  0  0  0  0  0  0  0  0  0
    5.6934  -13.3602   25.7936 C   0  0  0  0  0  0  0  0  0  0  0  0
    5.5329  -11.9954   25.7108 C   0  0  0  0  0  0  0  0  0  0  0  0
    6.4062  -11.2105   24.9803 C   0  0  0  0  0  0  0  0  0  0  0  0
    7.4641  -11.7858   24.3156 C   0  0  0  0  0  0  0  0  0  0  0  0
    7.6335  -13.1479   24.3916 C   0  0  0  0  0  0  0  0  0  0  0  0
    6.7644  -13.9484   25.1211 C   0  0  0  0  0  0  0  0  0  0  0  0
    8.3180  -17.2906   22.8149 C   0  0  0  0  0  0  0  0  0  0  0  0
    8.8199  -18.4197   22.8090 O   0  0  0  0  0  0  0  0  0  0  0  0
   13.4915  -14.3254   18.4482 N   0  0  0  0  0  0  0  0  0  0  0  0
   12.2126  -14.8029   18.8530 C   0  0  0  0  0  0  0  0  0  0  0  0
   11.2292  -14.8298   18.0569 O   0  0  0  0  0  0  0  0  0  0  0  0
   12.0082  -15.2826   20.2325 C   0  0  0  0  0  0  0  0  0  0  0  0
   10.5233  -15.1802   20.5574 C   0  0  0  0  0  0  0  0  0  0  0  0
   10.2208  -16.1310   21.6367 C   0  0  2  0  0  0  0  0  0  0  0  0
    8.8799  -16.2399   22.0644 N   0  0  0  0  0  0  0  0  0  0  0  0
   11.2351  -16.0386   22.7544 C   0  0  0  0  0  0  0  0  0  0  0  0
   11.8295  -14.9632   22.9564 O   0  0  0  0  0  0  0  0  0  0  0  0
   11.5400  -17.1366   23.5893 N   0  0  0  0  0  0  0  0  0  0  0  0
   12.6688  -17.1983   24.4848 C   0  0  1  0  0  0  0  0  0  0  0  0
   12.2955  -17.7623   25.8373 C   0  0  0  0  0  0  0  0  0  0  0  0
   11.1236  -17.1017   26.4175 C   0  0  0  0  0  0  0  0  0  0  0  0
    9.8155  -17.4812   26.2339 C   0  0  0  0  0  0  0  0  0  0  0  0
    9.0213  -16.6415   26.9162 N   0  0  0  0  0  0  0  0  0  0  0  0
    9.7963  -15.7320   27.5329 C   0  0  0  0  0  0  0  0  0  0  0  0
    9.4741  -14.6514   28.3586 C   0  0  0  0  0  0  0  0  0  0  0  0
   10.4876  -13.8687   28.8636 C   0  0  0  0  0  0  0  0  0  0  0  0
   11.8070  -14.1415   28.5623 C   0  0  0  0  0  0  0  0  0  0  0  0
   12.1287  -15.1891   27.7609 C   0  0  0  0  0  0  0  0  0  0  0  0
   11.1235  -15.9939   27.2391 C   0  0  0  0  0  0  0  0  0  0  0  0
   13.7953  -17.8890   23.8582 C   0  0  0  0  0  0  0  0  0  0  0  0
   13.6186  -18.4438   22.7434 O   0  0  0  0  0  0  0  0  0  0  0  0
   15.0616  -17.9808   24.4060 O   0  0  0  0  0  0  0  0  0  0  0  0
  2  1  1  1
  2 13  1  0
  3  4  1  0
  3  2  1  0
  4  5  2  0
  5  6  1  0
  7  6  1  0
  8  7  2  0
  9  8  1  0
 10 11  1  0
 10  9  2  0
 11 12  2  0
 12  4  1  0
 12  7  1  0
 13 14  2  0
 16 17  2  0
 16 15  1  0
 18 16  1  0
 19 18  1  0
 20 19  1  6
 20 22  1  0
 21 13  1  0
 21 20  1  0
 22 23  2  0
 22 24  1  0
 24 25  1  0
 25 26  1  1
 26 27  1  0
 27 28  2  0
 28 29  1  0
 30 29  1  0
 31 30  2  0
 32 31  1  0
 33 34  1  0
 33 32  2  0
 34 35  2  0
 35 27  1  0
 35 30  1  0
 36 25  1  0
 36 38  1  0
 37 36  2  0
M  END
$$$$
