WQW.pdb
     RDKit          3D

 38 41  0  0  1  0  0  0  0  0999 V2000
    5.8932  -18.2869   24.1812 N   0  0  0  0  0  0  0  0  0  0  0  0
    6.7510  -17.6201   23.2111 C   0  0  1  0  0  0  0  0  0  0  0  0
    6.3389  -16.1612   23.0551 C   0  0  0  0  0  0  0  0  0  0  0  0
    6.6947  -15.5827   21.7632 C   0  0  0  0  0  0  0  0  0  0  0  0
    6.5451  -16.1702   20.5341 C   0  0  0  0  0  0  0  0  0  0  0  0
    6.9892  -15.3226   19.5656 N   0  0  0  0  0  0  0  0  0  0  0  0
    7.4161  -14.2077   20.1816 C   0  0  0  0  0  0  0  0  0  0  0  0
    7.9563  -13.0388   19.6947 C   0  0  0  0  0  0  0  0  0  0  0  0
    8.3261  -12.0090   20.5404 C   0  0  0  0  0  0  0  0  0  0  0  0
    8.1585  -12.1352   21.8997 C   0  0  0  0  0  0  0  0  0  0  0  0
    7.6201  -13.2983   22.3966 C   0  0  0  0  0  0  0  0  0  0  0  0
    7.2445  -14.3406   21.5593 C   0  0  0  0  0  0  0  0  0  0  0  0
    8.1661  -17.5829   23.6326 C   0  0  0  0  0  0  0  0  0  0  0  0
    8.4486  -17.5229   24.8340 O   0  0  0  0  0  0  0  0  0  0  0  0
   13.2390  -17.3546   19.7087 N   0  0  0  0  0  0  0  0  0  0  0  0
   13.7574  -17.7651   20.9697 C   0  0  0  0  0  0  0  0  0  0  0  0
   14.9625  -18.1255   21.1089 O   0  0  0  0  0  0  0  0  0  0  0  0
   12.8826  -17.7780   22.1569 C   0  0  0  0  0  0  0  0  0  0  0  0
   11.4488  -17.5505   21.6946 C   0  0  0  0  0  0  0  0  0  0  0  0
   10.5673  -17.6345   22.8677 C   0  0  2  0  0  0  0  0  0  0  0  0
    9.1728  -17.6173   22.6486 N   0  0  0  0  0  0  0  0  0  0  0  0
   11.0431  -16.7295   23.9819 C   0  0  0  0  0  0  0  0  0  0  0  0
   11.6062  -15.6549   23.7015 O   0  0  0  0  0  0  0  0  0  0  0  0
   10.8728  -17.0577   25.3452 N   0  0  0  0  0  0  0  0  0  0  0  0
   11.4287  -16.3089   26.4454 C   0  0  1  0  0  0  0  0  0  0  0  0
   10.8121  -14.9338   26.5706 C   0  0  0  0  0  0  0  0  0  0  0  0
    9.3506  -14.9796   26.6627 C   0  0  0  0  0  0  0  0  0  0  0  0
    8.5953  -16.1063   26.8841 C   0  0  0  0  0  0  0  0  0  0  0  0
    7.2985  -15.7613   26.9029 N   0  0  0  0  0  0  0  0  0  0  0  0
    7.2095  -14.4353   26.6977 C   0  0  0  0  0  0  0  0  0  0  0  0
    6.1036  -13.5838   26.6253 C   0  0  0  0  0  0  0  0  0  0  0  0
    6.3059  -12.2407   26.4012 C   0  0  0  0  0  0  0  0  0  0  0  0
    7.5814  -11.7349   26.2486 C   0  0  0  0  0  0  0  0  0  0  0  0
    8.6610  -12.5551   26.3173 C   0  0  0  0  0  0  0  0  0  0  0  0
    8.4827  -13.9144   26.5428 C   0  0  0  0  0  0  0  0  0  0  0  0
   11.3759  -17.0842   27.6843 C   0  0  0  0  0  0  0  0  0  0  0  0
   10.8231  -18.2138   27.6663 O   0  0  0  0  0  0  0  0  0  0  0  0
   11.8957  -16.6642   28.8948 O   0  0  0  0  0  0  0  0  0  0  0  0
  2  1  1  1
  2 13  1  0
  3  4  1  0
  3  2  1  0
  4  5  2  0
  5  6  1  0
  7  6  1  0
  8  7  2  0
  9  8  1  0
 10 11  1  0
 10  9  2  0
 11 12  2  0
 12  4  1  0
 12  7  1  0
 13 14  2  0
 16 17  2  0
 16 15  1  0
 18 16  1  0
 19 18  1  0
 20 19  1  6
 20 22  1  0
 21 13  1  0
 21 20  1  0
 22 23  2  0
 22 24  1  0
 24 25  1  0
 25 26  1  1
 26 27  1  0
 27 28  2  0
 28 29  1  0
 30 29  1  0
 31 30  2  0
 32 31  1  0
 33 34  1  0
 33 32  2  0
 34 35  2  0
 35 27  1  0
 35 30  1  0
 36 25  1  0
 36 38  1  0
 37 36  2  0
M  END
$$$$
