WQW.pdb
     RDKit          3D

 38 41  0  0  1  0  0  0  0  0999 V2000
    6.3069  -18.8046   24.3895 N   0  0  0  0  0  0  0  0  0  0  0  0
    6.9965  -17.8640   23.5168 C   0  0  1  0  0  0  0  0  0  0  0  0
    6.5802  -16.4352   23.8447 C   0  0  0  0  0  0  0  0  0  0  0  0
    6.5319  -15.5534   22.6827 C   0  0  0  0  0  0  0  0  0  0  0  0
    5.4670  -15.3672   21.8403 C   0  0  0  0  0  0  0  0  0  0  0  0
    5.8011  -14.4687   20.8735 N   0  0  0  0  0  0  0  0  0  0  0  0
    7.0694  -14.0914   21.1060 C   0  0  0  0  0  0  0  0  0  0  0  0
    7.9013  -13.2129   20.4493 C   0  0  0  0  0  0  0  0  0  0  0  0
    9.1931  -12.9816   20.8853 C   0  0  0  0  0  0  0  0  0  0  0  0
    9.6760  -13.6324   21.9966 C   0  0  0  0  0  0  0  0  0  0  0  0
    8.8536  -14.5120   22.6597 C   0  0  0  0  0  0  0  0  0  0  0  0
    7.5545  -14.7542   22.2332 C   0  0  0  0  0  0  0  0  0  0  0  0
    8.4627  -17.8934   23.6927 C   0  0  0  0  0  0  0  0  0  0  0  0
    8.9460  -18.2754   24.7638 O   0  0  0  0  0  0  0  0  0  0  0  0
   12.7453  -16.9580   19.0407 N   0  0  0  0  0  0  0  0  0  0  0  0
   13.5219  -17.2678   20.1931 C   0  0  0  0  0  0  0  0  0  0  0  0
   14.7799  -17.3932   20.1344 O   0  0  0  0  0  0  0  0  0  0  0  0
   12.8615  -17.4518   21.4988 C   0  0  0  0  0  0  0  0  0  0  0  0
   11.3593  -17.2950   21.2992 C   0  0  0  0  0  0  0  0  0  0  0  0
   10.6978  -17.5018   22.5953 C   0  0  2  0  0  0  0  0  0  0  0  0
    9.2866  -17.4828   22.6272 N   0  0  0  0  0  0  0  0  0  0  0  0
   11.3654  -16.7003   23.6901 C   0  0  0  0  0  0  0  0  0  0  0  0
   12.2946  -15.9229   23.4021 O   0  0  0  0  0  0  0  0  0  0  0  0
   10.9733  -16.7989   25.0437 N   0  0  0  0  0  0  0  0  0  0  0  0
   11.6207  -16.1176   26.1376 C   0  0  1  0  0  0  0  0  0  0  0  0
   11.1019  -14.7091   26.3213 C   0  0  0  0  0  0  0  0  0  0  0  0
    9.6649  -14.6721   26.6044 C   0  0  0  0  0  0  0  0  0  0  0  0
    8.9483  -15.6521   27.2485 C   0  0  0  0  0  0  0  0  0  0  0  0
    7.6638  -15.2706   27.3237 N   0  0  0  0  0  0  0  0  0  0  0  0
    7.5448  -14.0651   26.7399 C   0  0  0  0  0  0  0  0  0  0  0  0
    6.4361  -13.2351   26.5520 C   0  0  0  0  0  0  0  0  0  0  0  0
    6.6034  -12.0295   25.9088 C   0  0  0  0  0  0  0  0  0  0  0  0
    7.8466  -11.6395   25.4526 C   0  0  0  0  0  0  0  0  0  0  0  0
    8.9286  -12.4398   25.6309 C   0  0  0  0  0  0  0  0  0  0  0  0
    8.7854  -13.6613   26.2772 C   0  0  0  0  0  0  0  0  0  0  0  0
   11.5660  -16.9207   27.3585 C   0  0  0  0  0  0  0  0  0  0  0  0
   12.1412  -16.4898   28.3907 O   0  0  0  0  0  0  0  0  0  0  0  0
   10.9195  -18.1381   27.4679 O   0  0  0  0  0  0  0  0  0  0  0  0
  2  1  1  1
  2 13  1  0
  3  4  1  0
  3  2  1  0
  4  5  2  0
  5  6  1  0
  7  6  1  0
  8  7  2  0
  9  8  1  0
 10 11  1  0
 10  9  2  0
 11 12  2  0
 12  4  1  0
 12  7  1  0
 13 14  2  0
 16 17  2  0
 16 15  1  0
 18 16  1  0
 19 18  1  0
 20 19  1  6
 20 22  1  0
 21 13  1  0
 21 20  1  0
 22 23  2  0
 22 24  1  0
 24 25  1  0
 25 26  1  1
 26 27  1  0
 27 28  2  0
 28 29  1  0
 30 29  1  0
 31 30  2  0
 32 31  1  0
 33 34  1  0
 33 32  2  0
 34 35  2  0
 35 27  1  0
 35 30  1  0
 36 25  1  0
 36 38  1  0
 37 36  2  0
M  END
$$$$
