WQW.pdb
     RDKit          3D

 38 41  0  0  1  0  0  0  0  0999 V2000
    6.6917  -18.3308   21.8558 N   0  0  0  0  0  0  0  0  0  0  0  0
    7.7121  -17.2957   21.7623 C   0  0  1  0  0  0  0  0  0  0  0  0
    7.0924  -15.9206   21.9801 C   0  0  0  0  0  0  0  0  0  0  0  0
    7.0241  -15.1060   20.7709 C   0  0  0  0  0  0  0  0  0  0  0  0
    6.1456  -15.2580   19.7301 C   0  0  0  0  0  0  0  0  0  0  0  0
    6.3902  -14.3102   18.7838 N   0  0  0  0  0  0  0  0  0  0  0  0
    7.4171  -13.5657   19.2264 C   0  0  0  0  0  0  0  0  0  0  0  0
    8.0698  -12.4837   18.6800 C   0  0  0  0  0  0  0  0  0  0  0  0
    9.1202  -11.8692   19.3368 C   0  0  0  0  0  0  0  0  0  0  0  0
    9.5369  -12.3331   20.5627 C   0  0  0  0  0  0  0  0  0  0  0  0
    8.8922  -13.4130   21.1174 C   0  0  0  0  0  0  0  0  0  0  0  0
    7.8361  -14.0400   20.4693 C   0  0  0  0  0  0  0  0  0  0  0  0
    8.7515  -17.4246   22.8037 C   0  0  0  0  0  0  0  0  0  0  0  0
    8.4495  -17.8467   23.9250 O   0  0  0  0  0  0  0  0  0  0  0  0
   14.8996  -17.5476   21.3289 N   0  0  0  0  0  0  0  0  0  0  0  0
   13.7108  -17.3932   20.5607 C   0  0  0  0  0  0  0  0  0  0  0  0
   13.7470  -17.1332   19.3227 O   0  0  0  0  0  0  0  0  0  0  0  0
   12.3927  -17.5356   21.2065 C   0  0  0  0  0  0  0  0  0  0  0  0
   12.5371  -17.1517   22.6738 C   0  0  0  0  0  0  0  0  0  0  0  0
   11.2148  -17.2490   23.3082 C   0  0  2  0  0  0  0  0  0  0  0  0
   10.0765  -17.0614   22.4948 N   0  0  0  0  0  0  0  0  0  0  0  0
   11.1789  -16.5083   24.6261 C   0  0  0  0  0  0  0  0  0  0  0  0
   11.5202  -15.3114   24.6669 O   0  0  0  0  0  0  0  0  0  0  0  0
   10.7688  -17.1266   25.8282 N   0  0  0  0  0  0  0  0  0  0  0  0
   11.0836  -16.6417   27.1495 C   0  0  1  0  0  0  0  0  0  0  0  0
   10.3022  -15.3961   27.5027 C   0  0  0  0  0  0  0  0  0  0  0  0
    8.8536  -15.5991   27.4192 C   0  0  0  0  0  0  0  0  0  0  0  0
    8.2193  -16.8111   27.2867 C   0  0  0  0  0  0  0  0  0  0  0  0
    6.8941  -16.6035   27.2417 N   0  0  0  0  0  0  0  0  0  0  0  0
    6.6684  -15.2817   27.3430 C   0  0  0  0  0  0  0  0  0  0  0  0
    5.4806  -14.5452   27.3493 C   0  0  0  0  0  0  0  0  0  0  0  0
    5.5426  -13.1752   27.4684 C   0  0  0  0  0  0  0  0  0  0  0  0
    6.7584  -12.5308   27.5801 C   0  0  0  0  0  0  0  0  0  0  0  0
    7.9169  -13.2387   27.5747 C   0  0  0  0  0  0  0  0  0  0  0  0
    7.8804  -14.6224   27.4557 C   0  0  0  0  0  0  0  0  0  0  0  0
   10.9555  -17.7086   28.1415 C   0  0  0  0  0  0  0  0  0  0  0  0
   10.4723  -18.8126   27.7816 O   0  0  0  0  0  0  0  0  0  0  0  0
   11.3310  -17.5955   29.4675 O   0  0  0  0  0  0  0  0  0  0  0  0
  2  1  1  1
  2 13  1  0
  3  4  1  0
  3  2  1  0
  4  5  2  0
  5  6  1  0
  7  6  1  0
  8  7  2  0
  9  8  1  0
 10 11  1  0
 10  9  2  0
 11 12  2  0
 12  4  1  0
 12  7  1  0
 13 14  2  0
 16 17  2  0
 16 15  1  0
 18 16  1  0
 19 18  1  0
 20 19  1  6
 20 22  1  0
 21 13  1  0
 21 20  1  0
 22 23  2  0
 22 24  1  0
 24 25  1  0
 25 26  1  1
 26 27  1  0
 27 28  2  0
 28 29  1  0
 30 29  1  0
 31 30  2  0
 32 31  1  0
 33 34  1  0
 33 32  2  0
 34 35  2  0
 35 27  1  0
 35 30  1  0
 36 25  1  0
 36 38  1  0
 37 36  2  0
M  END
$$$$
