WQW.pdb
     RDKit          3D

 38 41  0  0  1  0  0  0  0  0999 V2000
    8.1131  -17.6963   21.1362 N   0  0  0  0  0  0  0  0  0  0  0  0
    8.9620  -16.6988   21.7732 C   0  0  1  0  0  0  0  0  0  0  0  0
    8.1139  -15.5675   22.3418 C   0  0  0  0  0  0  0  0  0  0  0  0
    7.4382  -14.7680   21.3247 C   0  0  0  0  0  0  0  0  0  0  0  0
    6.1160  -14.8405   20.9716 C   0  0  0  0  0  0  0  0  0  0  0  0
    5.8564  -13.9382   19.9857 N   0  0  0  0  0  0  0  0  0  0  0  0
    7.0089  -13.3012   19.7196 C   0  0  0  0  0  0  0  0  0  0  0  0
    7.3212  -12.3031   18.8242 C   0  0  0  0  0  0  0  0  0  0  0  0
    8.6039  -11.7948   18.7308 C   0  0  0  0  0  0  0  0  0  0  0  0
    9.6029  -12.2826   19.5406 C   0  0  0  0  0  0  0  0  0  0  0  0
    9.3019  -13.2793   20.4381 C   0  0  0  0  0  0  0  0  0  0  0  0
    8.0186  -13.7994   20.5427 C   0  0  0  0  0  0  0  0  0  0  0  0
    9.7124  -17.2405   22.9243 C   0  0  0  0  0  0  0  0  0  0  0  0
    9.1299  -17.9290   23.7690 O   0  0  0  0  0  0  0  0  0  0  0  0
   15.0498  -14.9789   22.4887 N   0  0  0  0  0  0  0  0  0  0  0  0
   15.0163  -16.3989   22.3896 C   0  0  0  0  0  0  0  0  0  0  0  0
   16.0401  -17.0681   22.0647 O   0  0  0  0  0  0  0  0  0  0  0  0
   13.7647  -17.1274   22.6684 C   0  0  0  0  0  0  0  0  0  0  0  0
   13.3166  -16.7808   24.0826 C   0  0  0  0  0  0  0  0  0  0  0  0
   11.8817  -17.0777   24.1975 C   0  0  2  0  0  0  0  0  0  0  0  0
   11.0876  -16.9596   23.0363 N   0  0  0  0  0  0  0  0  0  0  0  0
   11.2854  -16.4499   25.4373 C   0  0  0  0  0  0  0  0  0  0  0  0
   11.3832  -15.2206   25.6104 O   0  0  0  0  0  0  0  0  0  0  0  0
   10.6136  -17.2107   26.4198 N   0  0  0  0  0  0  0  0  0  0  0  0
   10.3907  -16.7829   27.7789 C   0  0  1  0  0  0  0  0  0  0  0  0
    8.9219  -16.7613   28.1380 C   0  0  0  0  0  0  0  0  0  0  0  0
    8.1205  -15.9953   27.1800 C   0  0  0  0  0  0  0  0  0  0  0  0
    7.2401  -16.5237   26.2665 C   0  0  0  0  0  0  0  0  0  0  0  0
    6.6938  -15.5208   25.5616 N   0  0  0  0  0  0  0  0  0  0  0  0
    7.2079  -14.3607   26.0066 C   0  0  0  0  0  0  0  0  0  0  0  0
    6.9781  -13.0384   25.6166 C   0  0  0  0  0  0  0  0  0  0  0  0
    7.6548  -12.0242   26.2559 C   0  0  0  0  0  0  0  0  0  0  0  0
    8.5501  -12.3024   27.2693 C   0  0  0  0  0  0  0  0  0  0  0  0
    8.7793  -13.5840   27.6542 C   0  0  0  0  0  0  0  0  0  0  0  0
    8.1084  -14.6250   27.0242 C   0  0  0  0  0  0  0  0  0  0  0  0
   11.2053  -17.5609   28.7115 C   0  0  0  0  0  0  0  0  0  0  0  0
   11.2249  -17.2230   29.9228 O   0  0  0  0  0  0  0  0  0  0  0  0
   11.9689  -18.6584   28.3585 O   0  0  0  0  0  0  0  0  0  0  0  0
  2  1  1  1
  2 13  1  0
  3  4  1  0
  3  2  1  0
  4  5  2  0
  5  6  1  0
  7  6  1  0
  8  7  2  0
  9  8  1  0
 10 11  1  0
 10  9  2  0
 11 12  2  0
 12  4  1  0
 12  7  1  0
 13 14  2  0
 16 17  2  0
 16 15  1  0
 18 16  1  0
 19 18  1  0
 20 19  1  6
 20 22  1  0
 21 13  1  0
 21 20  1  0
 22 23  2  0
 22 24  1  0
 24 25  1  0
 25 26  1  1
 26 27  1  0
 27 28  2  0
 28 29  1  0
 30 29  1  0
 31 30  2  0
 32 31  1  0
 33 34  1  0
 33 32  2  0
 34 35  2  0
 35 27  1  0
 35 30  1  0
 36 25  1  0
 36 38  1  0
 37 36  2  0
M  END
$$$$
