WQW.pdb
     RDKit          3D

 38 41  0  0  1  0  0  0  0  0999 V2000
    6.3078  -19.0089   23.1716 N   0  0  0  0  0  0  0  0  0  0  0  0
    7.1601  -18.0336   22.5052 C   0  0  1  0  0  0  0  0  0  0  0  0
    6.6783  -16.6189   22.8029 C   0  0  0  0  0  0  0  0  0  0  0  0
    6.4144  -15.8221   21.6088 C   0  0  0  0  0  0  0  0  0  0  0  0
    5.3544  -15.9593   20.7510 C   0  0  0  0  0  0  0  0  0  0  0  0
    5.4506  -15.0363   19.7548 N   0  0  0  0  0  0  0  0  0  0  0  0
    6.5651  -14.3220   19.9842 C   0  0  0  0  0  0  0  0  0  0  0  0
    7.1403  -13.2731   19.3028 C   0  0  0  0  0  0  0  0  0  0  0  0
    8.3132  -12.6862   19.7412 C   0  0  0  0  0  0  0  0  0  0  0  0
    8.9338  -13.1448   20.8797 C   0  0  0  0  0  0  0  0  0  0  0  0
    8.3680  -14.1918   21.5676 C   0  0  0  0  0  0  0  0  0  0  0  0
    7.1908  -14.7909   21.1391 C   0  0  0  0  0  0  0  0  0  0  0  0
    8.5575  -18.0783   22.9818 C   0  0  0  0  0  0  0  0  0  0  0  0
    8.8201  -18.6050   24.0682 O   0  0  0  0  0  0  0  0  0  0  0  0
   14.1466  -14.5845   21.7164 N   0  0  0  0  0  0  0  0  0  0  0  0
   14.1067  -15.9447   21.2972 C   0  0  0  0  0  0  0  0  0  0  0  0
   14.7810  -16.3569   20.3088 O   0  0  0  0  0  0  0  0  0  0  0  0
   13.2631  -16.9141   22.0208 C   0  0  0  0  0  0  0  0  0  0  0  0
   11.8042  -16.5392   21.7929 C   0  0  0  0  0  0  0  0  0  0  0  0
   10.9607  -17.5670   22.4195 C   0  0  2  0  0  0  0  0  0  0  0  0
    9.5702  -17.5157   22.1814 N   0  0  0  0  0  0  0  0  0  0  0  0
   11.3466  -17.7926   23.8641 C   0  0  0  0  0  0  0  0  0  0  0  0
   11.0884  -18.8841   24.4051 O   0  0  0  0  0  0  0  0  0  0  0  0
   11.9961  -16.8030   24.6350 N   0  0  0  0  0  0  0  0  0  0  0  0
   11.4011  -16.1105   25.7515 C   0  0  1  0  0  0  0  0  0  0  0  0
   10.1956  -15.2945   25.3416 C   0  0  0  0  0  0  0  0  0  0  0  0
    9.5435  -14.6442   26.4810 C   0  0  0  0  0  0  0  0  0  0  0  0
    9.9059  -14.7828   27.7995 C   0  0  0  0  0  0  0  0  0  0  0  0
    9.0812  -14.0414   28.5553 N   0  0  0  0  0  0  0  0  0  0  0  0
    8.1979  -13.4310   27.7457 C   0  0  0  0  0  0  0  0  0  0  0  0
    7.1409  -12.5593   28.0215 C   0  0  0  0  0  0  0  0  0  0  0  0
    6.3830  -12.0746   26.9796 C   0  0  0  0  0  0  0  0  0  0  0  0
    6.6575  -12.4408   25.6771 C   0  0  0  0  0  0  0  0  0  0  0  0
    7.6823  -13.2872   25.4004 C   0  0  0  0  0  0  0  0  0  0  0  0
    8.4618  -13.7897   26.4349 C   0  0  0  0  0  0  0  0  0  0  0  0
   11.1308  -17.0326   26.8539 C   0  0  0  0  0  0  0  0  0  0  0  0
   10.2199  -17.8886   26.7153 O   0  0  0  0  0  0  0  0  0  0  0  0
   11.8110  -17.0361   28.0578 O   0  0  0  0  0  0  0  0  0  0  0  0
  2  1  1  1
  2 13  1  0
  3  4  1  0
  3  2  1  0
  4  5  2  0
  5  6  1  0
  7  6  1  0
  8  7  2  0
  9  8  1  0
 10 11  1  0
 10  9  2  0
 11 12  2  0
 12  4  1  0
 12  7  1  0
 13 14  2  0
 16 17  2  0
 16 15  1  0
 18 16  1  0
 19 18  1  0
 20 19  1  1
 20 22  1  0
 21 13  1  0
 21 20  1  0
 22 23  2  0
 22 24  1  0
 24 25  1  0
 25 26  1  6
 26 27  1  0
 27 28  2  0
 28 29  1  0
 30 29  1  0
 31 30  2  0
 32 31  1  0
 33 34  1  0
 33 32  2  0
 34 35  2  0
 35 27  1  0
 35 30  1  0
 36 25  1  0
 36 38  1  0
 37 36  2  0
M  END
$$$$
