WQW.pdb
     RDKit          3D

 38 41  0  0  1  0  0  0  0  0999 V2000
    7.1940  -19.4022   23.0160 N   0  0  0  0  0  0  0  0  0  0  0  0
    7.6753  -18.0286   23.0719 C   0  0  1  0  0  0  0  0  0  0  0  0
    6.8847  -17.2325   24.1032 C   0  0  0  0  0  0  0  0  0  0  0  0
    6.8889  -15.7923   23.8664 C   0  0  0  0  0  0  0  0  0  0  0  0
    7.1391  -15.1591   22.6770 C   0  0  0  0  0  0  0  0  0  0  0  0
    7.0526  -13.8114   22.8499 N   0  0  0  0  0  0  0  0  0  0  0  0
    6.7497  -13.5974   24.1412 C   0  0  0  0  0  0  0  0  0  0  0  0
    6.5442  -12.4394   24.8567 C   0  0  0  0  0  0  0  0  0  0  0  0
    6.2354  -12.4705   26.2043 C   0  0  0  0  0  0  0  0  0  0  0  0
    6.1264  -13.6734   26.8623 C   0  0  0  0  0  0  0  0  0  0  0  0
    6.3299  -14.8358   26.1573 C   0  0  0  0  0  0  0  0  0  0  0  0
    6.6406  -14.8197   24.8040 C   0  0  0  0  0  0  0  0  0  0  0  0
    9.0846  -17.9359   23.5041 C   0  0  0  0  0  0  0  0  0  0  0  0
    9.5858  -18.8501   24.1674 O   0  0  0  0  0  0  0  0  0  0  0  0
   13.0697  -15.6125   19.7683 N   0  0  0  0  0  0  0  0  0  0  0  0
   13.8972  -15.5334   20.9243 C   0  0  0  0  0  0  0  0  0  0  0  0
   15.0976  -15.1380   20.8581 O   0  0  0  0  0  0  0  0  0  0  0  0
   13.3600  -15.9185   22.2426 C   0  0  0  0  0  0  0  0  0  0  0  0
   11.8501  -15.7169   22.2191 C   0  0  0  0  0  0  0  0  0  0  0  0
   11.2415  -16.6819   23.1458 C   0  0  2  0  0  0  0  0  0  0  0  0
    9.8347  -16.7987   23.1481 N   0  0  0  0  0  0  0  0  0  0  0  0
   11.8712  -16.6018   24.5184 C   0  0  0  0  0  0  0  0  0  0  0  0
   13.1112  -16.5575   24.6231 O   0  0  0  0  0  0  0  0  0  0  0  0
   11.1002  -16.5753   25.7018 N   0  0  0  0  0  0  0  0  0  0  0  0
   11.6459  -16.5339   27.0361 C   0  0  1  0  0  0  0  0  0  0  0  0
   10.8951  -15.5737   27.9314 C   0  0  0  0  0  0  0  0  0  0  0  0
    9.6017  -15.1763   27.3695 C   0  0  0  0  0  0  0  0  0  0  0  0
    8.5039  -15.9908   27.2279 C   0  0  0  0  0  0  0  0  0  0  0  0
    7.5072  -15.2818   26.6754 N   0  0  0  0  0  0  0  0  0  0  0  0
    7.9464  -14.0291   26.4608 C   0  0  0  0  0  0  0  0  0  0  0  0
    7.3137  -12.9093   25.9141 C   0  0  0  0  0  0  0  0  0  0  0  0
    8.0135  -11.7283   25.8111 C   0  0  0  0  0  0  0  0  0  0  0  0
    9.3232  -11.6442   26.2396 C   0  0  0  0  0  0  0  0  0  0  0  0
    9.9453  -12.7273   26.7717 C   0  0  0  0  0  0  0  0  0  0  0  0
    9.2600  -13.9304   26.8865 C   0  0  0  0  0  0  0  0  0  0  0  0
   11.7607  -17.8803   27.5953 C   0  0  0  0  0  0  0  0  0  0  0  0
   11.2499  -18.8413   26.9649 O   0  0  0  0  0  0  0  0  0  0  0  0
   12.3984  -18.1838   28.7841 O   0  0  0  0  0  0  0  0  0  0  0  0
  2  1  1  1
  2 13  1  0
  3  4  1  0
  3  2  1  0
  4  5  2  0
  5  6  1  0
  7  6  1  0
  8  7  2  0
  9  8  1  0
 10 11  1  0
 10  9  2  0
 11 12  2  0
 12  4  1  0
 12  7  1  0
 13 14  2  0
 16 17  2  0
 16 15  1  0
 18 16  1  0
 19 18  1  0
 20 19  1  6
 20 22  1  0
 21 13  1  0
 21 20  1  0
 22 23  2  0
 22 24  1  0
 24 25  1  0
 25 26  1  1
 26 27  1  0
 27 28  2  0
 28 29  1  0
 30 29  1  0
 31 30  2  0
 32 31  1  0
 33 34  1  0
 33 32  2  0
 34 35  2  0
 35 27  1  0
 35 30  1  0
 36 25  1  0
 36 38  1  0
 37 36  2  0
M  END
$$$$
