WQW.pdb
     RDKit          3D

 38 41  0  0  1  0  0  0  0  0999 V2000
   10.0858  -16.5624   20.8739 N   0  0  0  0  0  0  0  0  0  0  0  0
    9.1002  -16.4091   21.9354 C   0  0  1  0  0  0  0  0  0  0  0  0
    7.7011  -16.6957   21.4038 C   0  0  0  0  0  0  0  0  0  0  0  0
    7.1351  -15.6060   20.6149 C   0  0  0  0  0  0  0  0  0  0  0  0
    5.8694  -15.5451   20.0927 C   0  0  0  0  0  0  0  0  0  0  0  0
    5.7094  -14.3733   19.4183 N   0  0  0  0  0  0  0  0  0  0  0  0
    6.8680  -13.7001   19.5154 C   0  0  0  0  0  0  0  0  0  0  0  0
    7.2613  -12.4739   19.0288 C   0  0  0  0  0  0  0  0  0  0  0  0
    8.5311  -11.9792   19.2639 C   0  0  0  0  0  0  0  0  0  0  0  0
    9.4350  -12.7119   19.9974 C   0  0  0  0  0  0  0  0  0  0  0  0
    9.0526  -13.9378   20.4879 C   0  0  0  0  0  0  0  0  0  0  0  0
    7.7810  -14.4471   20.2595 C   0  0  0  0  0  0  0  0  0  0  0  0
    9.3010  -17.3667   23.0419 C   0  0  0  0  0  0  0  0  0  0  0  0
    8.3967  -17.5570   23.8621 O   0  0  0  0  0  0  0  0  0  0  0  0
   14.7638  -14.6002   22.1914 N   0  0  0  0  0  0  0  0  0  0  0  0
   14.7935  -15.9425   22.6653 C   0  0  0  0  0  0  0  0  0  0  0  0
   15.6315  -16.7844   22.2287 O   0  0  0  0  0  0  0  0  0  0  0  0
   13.8302  -16.3830   23.6914 C   0  0  0  0  0  0  0  0  0  0  0  0
   12.4625  -16.5184   23.0339 C   0  0  0  0  0  0  0  0  0  0  0  0
   11.7153  -17.5713   23.7365 C   0  0  2  0  0  0  0  0  0  0  0  0
   10.5287  -18.0494   23.1398 N   0  0  0  0  0  0  0  0  0  0  0  0
   11.6047  -17.2766   25.2156 C   0  0  0  0  0  0  0  0  0  0  0  0
   12.5228  -17.6251   25.9811 O   0  0  0  0  0  0  0  0  0  0  0  0
   10.4878  -16.6139   25.7714 N   0  0  0  0  0  0  0  0  0  0  0  0
   10.2127  -16.5122   27.1835 C   0  0  1  0  0  0  0  0  0  0  0  0
    8.7374  -16.6418   27.4894 C   0  0  0  0  0  0  0  0  0  0  0  0
    7.9218  -15.6831   26.7398 C   0  0  0  0  0  0  0  0  0  0  0  0
    6.8719  -15.9980   25.9106 C   0  0  0  0  0  0  0  0  0  0  0  0
    6.3695  -14.8639   25.3984 N   0  0  0  0  0  0  0  0  0  0  0  0
    7.0778  -13.8291   25.8840 C   0  0  0  0  0  0  0  0  0  0  0  0
    6.9672  -12.4524   25.6700 C   0  0  0  0  0  0  0  0  0  0  0  0
    7.8421  -11.6029   26.3086 C   0  0  0  0  0  0  0  0  0  0  0  0
    8.8184  -12.0973   27.1502 C   0  0  0  0  0  0  0  0  0  0  0  0
    8.9329  -13.4332   27.3634 C   0  0  0  0  0  0  0  0  0  0  0  0
    8.0615  -14.3109   26.7304 C   0  0  0  0  0  0  0  0  0  0  0  0
   11.0478  -17.4392   27.9463 C   0  0  0  0  0  0  0  0  0  0  0  0
   11.7992  -18.2298   27.3201 O   0  0  0  0  0  0  0  0  0  0  0  0
   11.0756  -17.5152   29.3267 O   0  0  0  0  0  0  0  0  0  0  0  0
  2  1  1  6
  2 13  1  0
  3  4  1  0
  3  2  1  0
  4  5  2  0
  5  6  1  0
  7  6  1  0
  8  7  2  0
  9  8  1  0
 10 11  1  0
 10  9  2  0
 11 12  2  0
 12  4  1  0
 12  7  1  0
 13 14  2  0
 16 17  2  0
 16 15  1  0
 18 16  1  0
 19 18  1  0
 20 19  1  6
 20 22  1  0
 21 13  1  0
 21 20  1  0
 22 23  2  0
 22 24  1  0
 24 25  1  0
 25 26  1  6
 26 27  1  0
 27 28  2  0
 28 29  1  0
 30 29  1  0
 31 30  2  0
 32 31  1  0
 33 34  1  0
 33 32  2  0
 34 35  2  0
 35 27  1  0
 35 30  1  0
 36 25  1  0
 36 38  1  0
 37 36  2  0
M  END
$$$$
