WQW.pdb
     RDKit          3D

 38 41  0  0  1  0  0  0  0  0999 V2000
    6.5010  -18.0341   23.1245 N   0  0  0  0  0  0  0  0  0  0  0  0
    7.5980  -17.0947   22.9356 C   0  0  1  0  0  0  0  0  0  0  0  0
    8.0988  -16.5881   24.2827 C   0  0  0  0  0  0  0  0  0  0  0  0
    7.1286  -15.7695   25.0030 C   0  0  0  0  0  0  0  0  0  0  0  0
    6.1472  -16.2172   25.8484 C   0  0  0  0  0  0  0  0  0  0  0  0
    5.4411  -15.1576   26.3303 N   0  0  0  0  0  0  0  0  0  0  0  0
    5.9749  -14.0489   25.7910 C   0  0  0  0  0  0  0  0  0  0  0  0
    5.6589  -12.7162   25.9298 C   0  0  0  0  0  0  0  0  0  0  0  0
    6.3671  -11.7346   25.2611 C   0  0  0  0  0  0  0  0  0  0  0  0
    7.4129  -12.0758   24.4355 C   0  0  0  0  0  0  0  0  0  0  0  0
    7.7367  -13.4038   24.2896 C   0  0  0  0  0  0  0  0  0  0  0  0
    7.0343  -14.4001   24.9546 C   0  0  0  0  0  0  0  0  0  0  0  0
    8.7734  -17.7138   22.2900 C   0  0  0  0  0  0  0  0  0  0  0  0
    8.9481  -18.9343   22.3714 O   0  0  0  0  0  0  0  0  0  0  0  0
   12.1333  -18.0102   19.0402 N   0  0  0  0  0  0  0  0  0  0  0  0
   11.4120  -16.8704   18.5844 C   0  0  0  0  0  0  0  0  0  0  0  0
   11.0618  -16.7438   17.3749 O   0  0  0  0  0  0  0  0  0  0  0  0
   11.0546  -15.7978   19.5313 C   0  0  0  0  0  0  0  0  0  0  0  0
   11.8492  -16.0101   20.8137 C   0  0  0  0  0  0  0  0  0  0  0  0
   11.0864  -16.9160   21.6842 C   0  0  2  0  0  0  0  0  0  0  0  0
    9.6782  -16.8938   21.5886 N   0  0  0  0  0  0  0  0  0  0  0  0
   11.6240  -16.9064   23.0976 C   0  0  0  0  0  0  0  0  0  0  0  0
   12.4904  -16.0717   23.4190 O   0  0  0  0  0  0  0  0  0  0  0  0
   11.1781  -17.8176   24.0807 N   0  0  0  0  0  0  0  0  0  0  0  0
   11.8268  -18.0385   25.3497 C   0  0  1  0  0  0  0  0  0  0  0  0
   10.8456  -18.0425   26.5004 C   0  0  0  0  0  0  0  0  0  0  0  0
   10.1767  -16.7505   26.6729 C   0  0  0  0  0  0  0  0  0  0  0  0
    8.9824  -16.3824   26.1012 C   0  0  0  0  0  0  0  0  0  0  0  0
    8.6869  -15.1304   26.4838 N   0  0  0  0  0  0  0  0  0  0  0  0
    9.6695  -14.6903   27.2895 C   0  0  0  0  0  0  0  0  0  0  0  0
    9.8467  -13.4711   27.9493 C   0  0  0  0  0  0  0  0  0  0  0  0
   10.9683  -13.2865   28.7259 C   0  0  0  0  0  0  0  0  0  0  0  0
   11.9097  -14.2879   28.8552 C   0  0  0  0  0  0  0  0  0  0  0  0
   11.7454  -15.4752   28.2176 C   0  0  0  0  0  0  0  0  0  0  0  0
   10.6216  -15.6856   27.4282 C   0  0  0  0  0  0  0  0  0  0  0  0
   12.6725  -19.2307   25.3032 C   0  0  0  0  0  0  0  0  0  0  0  0
   13.4399  -19.4645   26.2718 O   0  0  0  0  0  0  0  0  0  0  0  0
   12.6939  -20.1366   24.2587 O   0  0  0  0  0  0  0  0  0  0  0  0
  2  1  1  1
  2 13  1  0
  3  4  1  0
  3  2  1  0
  4  5  2  0
  5  6  1  0
  7  6  1  0
  8  7  2  0
  9  8  1  0
 10 11  1  0
 10  9  2  0
 11 12  2  0
 12  4  1  0
 12  7  1  0
 13 14  2  0
 16 17  2  0
 16 15  1  0
 18 16  1  0
 19 18  1  0
 20 19  1  6
 20 22  1  0
 21 13  1  0
 21 20  1  0
 22 23  2  0
 22 24  1  0
 24 25  1  0
 25 26  1  1
 26 27  1  0
 27 28  2  0
 28 29  1  0
 30 29  1  0
 31 30  2  0
 32 31  1  0
 33 34  1  0
 33 32  2  0
 34 35  2  0
 35 27  1  0
 35 30  1  0
 36 25  1  0
 36 38  1  0
 37 36  2  0
M  END
$$$$
