WQW.pdb
     RDKit          3D

 38 41  0  0  1  0  0  0  0  0999 V2000
    7.3901  -18.7004   20.4867 N   0  0  0  0  0  0  0  0  0  0  0  0
    8.0817  -17.5576   21.0676 C   0  0  1  0  0  0  0  0  0  0  0  0
    7.0789  -16.4896   21.4871 C   0  0  0  0  0  0  0  0  0  0  0  0
    6.9532  -15.3914   20.5340 C   0  0  0  0  0  0  0  0  0  0  0  0
    6.3380  -15.4362   19.3102 C   0  0  0  0  0  0  0  0  0  0  0  0
    6.4238  -14.2167   18.7109 N   0  0  0  0  0  0  0  0  0  0  0  0
    7.0895  -13.4087   19.5528 C   0  0  0  0  0  0  0  0  0  0  0  0
    7.4546  -12.0846   19.4590 C   0  0  0  0  0  0  0  0  0  0  0  0
    8.1490  -11.4552   20.4759 C   0  0  0  0  0  0  0  0  0  0  0  0
    8.4912  -12.1486   21.6134 C   0  0  0  0  0  0  0  0  0  0  0  0
    8.1316  -13.4713   21.7172 C   0  0  0  0  0  0  0  0  0  0  0  0
    7.4345  -14.1163   20.7041 C   0  0  0  0  0  0  0  0  0  0  0  0
    8.8205  -17.9043   22.2986 C   0  0  0  0  0  0  0  0  0  0  0  0
    8.3610  -18.7494   23.0742 O   0  0  0  0  0  0  0  0  0  0  0  0
   14.9820  -18.0568   22.8325 N   0  0  0  0  0  0  0  0  0  0  0  0
   14.5193  -18.4428   24.1225 C   0  0  0  0  0  0  0  0  0  0  0  0
   15.3056  -18.8986   25.0032 O   0  0  0  0  0  0  0  0  0  0  0  0
   13.0894  -18.3162   24.4606 C   0  0  0  0  0  0  0  0  0  0  0  0
   12.3688  -17.7095   23.2633 C   0  0  0  0  0  0  0  0  0  0  0  0
   10.9474  -17.5615   23.6070 C   0  0  2  0  0  0  0  0  0  0  0  0
   10.0438  -17.2599   22.5653 N   0  0  0  0  0  0  0  0  0  0  0  0
   10.7656  -16.7349   24.8603 C   0  0  0  0  0  0  0  0  0  0  0  0
   11.0697  -15.5275   24.8486 O   0  0  0  0  0  0  0  0  0  0  0  0
   10.2585  -17.2837   26.0591 N   0  0  0  0  0  0  0  0  0  0  0  0
   10.2772  -16.6186   27.3387 C   0  0  1  0  0  0  0  0  0  0  0  0
    8.8873  -16.4222   27.9013 C   0  0  0  0  0  0  0  0  0  0  0  0
    8.0175  -15.6643   26.9982 C   0  0  0  0  0  0  0  0  0  0  0  0
    7.0736  -16.2005   26.1553 C   0  0  0  0  0  0  0  0  0  0  0  0
    6.4764  -15.2035   25.4841 N   0  0  0  0  0  0  0  0  0  0  0  0
    7.0202  -14.0396   25.8813 C   0  0  0  0  0  0  0  0  0  0  0  0
    6.7611  -12.7206   25.4986 C   0  0  0  0  0  0  0  0  0  0  0  0
    7.4813  -11.7010   26.0790 C   0  0  0  0  0  0  0  0  0  0  0  0
    8.4482  -11.9706   27.0268 C   0  0  0  0  0  0  0  0  0  0  0  0
    8.7063  -13.2490   27.4040 C   0  0  0  0  0  0  0  0  0  0  0  0
    7.9926  -14.2952   26.8328 C   0  0  0  0  0  0  0  0  0  0  0  0
   11.1885  -17.2914   28.2636 C   0  0  0  0  0  0  0  0  0  0  0  0
   11.6690  -18.4059   27.9338 O   0  0  0  0  0  0  0  0  0  0  0  0
   11.5694  -16.7882   29.4940 O   0  0  0  0  0  0  0  0  0  0  0  0
  2  1  1  1
  2 13  1  0
  3  4  1  0
  3  2  1  0
  4  5  2  0
  5  6  1  0
  7  6  1  0
  8  7  2  0
  9  8  1  0
 10 11  1  0
 10  9  2  0
 11 12  2  0
 12  4  1  0
 12  7  1  0
 13 14  2  0
 16 17  2  0
 16 15  1  0
 18 16  1  0
 19 18  1  0
 20 19  1  6
 20 22  1  0
 21 13  1  0
 21 20  1  0
 22 23  2  0
 22 24  1  0
 24 25  1  0
 25 26  1  1
 26 27  1  0
 27 28  2  0
 28 29  1  0
 30 29  1  0
 31 30  2  0
 32 31  1  0
 33 34  1  0
 33 32  2  0
 34 35  2  0
 35 27  1  0
 35 30  1  0
 36 25  1  0
 36 38  1  0
 37 36  2  0
M  END
$$$$
