WQW.pdb
     RDKit          3D

 38 41  0  0  1  0  0  0  0  0999 V2000
    9.6297  -16.7055   20.9532 N   0  0  0  0  0  0  0  0  0  0  0  0
    8.7278  -16.0919   21.9185 C   0  0  1  0  0  0  0  0  0  0  0  0
    7.3286  -15.9640   21.3284 C   0  0  0  0  0  0  0  0  0  0  0  0
    7.2780  -15.1885   20.0929 C   0  0  0  0  0  0  0  0  0  0  0  0
    6.8375  -15.6243   18.8705 C   0  0  0  0  0  0  0  0  0  0  0  0
    6.9420  -14.6162   17.9614 N   0  0  0  0  0  0  0  0  0  0  0  0
    7.4456  -13.5517   18.6080 C   0  0  0  0  0  0  0  0  0  0  0  0
    7.7527  -12.2790   18.1821 C   0  0  0  0  0  0  0  0  0  0  0  0
    8.2699  -11.3344   19.0495 C   0  0  0  0  0  0  0  0  0  0  0  0
    8.4894  -11.6527   20.3695 C   0  0  0  0  0  0  0  0  0  0  0  0
    8.1864  -12.9207   20.8052 C   0  0  0  0  0  0  0  0  0  0  0  0
    7.6667  -13.8794   19.9455 C   0  0  0  0  0  0  0  0  0  0  0  0
    8.5631  -16.9045   23.1408 C   0  0  0  0  0  0  0  0  0  0  0  0
    7.6248  -16.6735   23.9109 O   0  0  0  0  0  0  0  0  0  0  0  0
    6.4166  -20.4555   23.5294 N   0  0  0  0  0  0  0  0  0  0  0  0
    7.5980  -20.7113   24.2819 C   0  0  0  0  0  0  0  0  0  0  0  0
    7.5623  -20.9063   25.5318 O   0  0  0  0  0  0  0  0  0  0  0  0
    8.9077  -20.7536   23.6051 C   0  0  0  0  0  0  0  0  0  0  0  0
    9.9358  -20.0936   24.5153 C   0  0  0  0  0  0  0  0  0  0  0  0
    9.6175  -18.6617   24.6084 C   0  0  2  0  0  0  0  0  0  0  0  0
    9.4858  -17.9347   23.4055 N   0  0  0  0  0  0  0  0  0  0  0  0
   10.4487  -17.9792   25.6714 C   0  0  0  0  0  0  0  0  0  0  0  0
   11.6758  -18.1862   25.7178 O   0  0  0  0  0  0  0  0  0  0  0  0
    9.8829  -17.1055   26.6264 N   0  0  0  0  0  0  0  0  0  0  0  0
   10.6196  -16.4544   27.6815 C   0  0  1  0  0  0  0  0  0  0  0  0
   10.0419  -15.1015   28.0316 C   0  0  0  0  0  0  0  0  0  0  0  0
    8.7472  -14.8602   27.3896 C   0  0  0  0  0  0  0  0  0  0  0  0
    7.7960  -15.8141   27.1177 C   0  0  0  0  0  0  0  0  0  0  0  0
    6.7469  -15.2229   26.5252 N   0  0  0  0  0  0  0  0  0  0  0  0
    7.0087  -13.9087   26.4128 C   0  0  0  0  0  0  0  0  0  0  0  0
    6.2569  -12.8595   25.8769 C   0  0  0  0  0  0  0  0  0  0  0  0
    6.7785  -11.5855   25.8925 C   0  0  0  0  0  0  0  0  0  0  0  0
    8.0269  -11.3406   26.4285 C   0  0  0  0  0  0  0  0  0  0  0  0
    8.7638  -12.3541   26.9510 C   0  0  0  0  0  0  0  0  0  0  0  0
    8.2591  -13.6485   26.9470 C   0  0  0  0  0  0  0  0  0  0  0  0
   10.7690  -17.3388   28.8366 C   0  0  0  0  0  0  0  0  0  0  0  0
   11.4912  -16.9629   29.7952 O   0  0  0  0  0  0  0  0  0  0  0  0
   10.1672  -18.5778   28.9585 O   0  0  0  0  0  0  0  0  0  0  0  0
  2  1  1  6
  2 13  1  0
  3  4  1  0
  3  2  1  0
  4  5  2  0
  5  6  1  0
  7  6  1  0
  8  7  2  0
  9  8  1  0
 10 11  1  0
 10  9  2  0
 11 12  2  0
 12  4  1  0
 12  7  1  0
 13 14  2  0
 16 17  2  0
 16 15  1  0
 18 16  1  0
 19 18  1  0
 20 19  1  6
 20 22  1  0
 21 13  1  0
 21 20  1  0
 22 23  2  0
 22 24  1  0
 24 25  1  0
 25 26  1  1
 26 27  1  0
 27 28  2  0
 28 29  1  0
 30 29  1  0
 31 30  2  0
 32 31  1  0
 33 34  1  0
 33 32  2  0
 34 35  2  0
 35 27  1  0
 35 30  1  0
 36 25  1  0
 36 38  1  0
 37 36  2  0
M  END
$$$$
