WQW.pdb
     RDKit          3D

 38 41  0  0  1  0  0  0  0  0999 V2000
    6.9991  -19.0153   21.4444 N   0  0  0  0  0  0  0  0  0  0  0  0
    7.8084  -17.8265   21.2137 C   0  0  1  0  0  0  0  0  0  0  0  0
    7.0383  -16.5754   21.6185 C   0  0  0  0  0  0  0  0  0  0  0  0
    7.2248  -15.4481   20.7103 C   0  0  0  0  0  0  0  0  0  0  0  0
    7.2072  -15.4889   19.3406 C   0  0  0  0  0  0  0  0  0  0  0  0
    7.4179  -14.2390   18.8436 N   0  0  0  0  0  0  0  0  0  0  0  0
    7.5674  -13.4158   19.8948 C   0  0  0  0  0  0  0  0  0  0  0  0
    7.7990  -12.0612   19.9749 C   0  0  0  0  0  0  0  0  0  0  0  0
    7.9169  -11.4215   21.1953 C   0  0  0  0  0  0  0  0  0  0  0  0
    7.8031  -12.1355   22.3654 C   0  0  0  0  0  0  0  0  0  0  0  0
    7.5719  -13.4889   22.2967 C   0  0  0  0  0  0  0  0  0  0  0  0
    7.4515  -14.1444   21.0785 C   0  0  0  0  0  0  0  0  0  0  0  0
    9.0394  -17.8080   22.0297 C   0  0  0  0  0  0  0  0  0  0  0  0
    9.0260  -18.2754   23.1735 O   0  0  0  0  0  0  0  0  0  0  0  0
   14.0363  -14.7242   20.1981 N   0  0  0  0  0  0  0  0  0  0  0  0
   12.9472  -15.2074   19.4185 C   0  0  0  0  0  0  0  0  0  0  0  0
   12.6773  -14.7246   18.2802 O   0  0  0  0  0  0  0  0  0  0  0  0
   12.0992  -16.2983   19.9339 C   0  0  0  0  0  0  0  0  0  0  0  0
   12.6097  -16.6862   21.3159 C   0  0  0  0  0  0  0  0  0  0  0  0
   11.4630  -17.1222   22.1254 C   0  0  2  0  0  0  0  0  0  0  0  0
   10.2129  -17.2542   21.4830 N   0  0  0  0  0  0  0  0  0  0  0  0
   11.4179  -16.3999   23.4532 C   0  0  0  0  0  0  0  0  0  0  0  0
   12.2310  -15.4850   23.6821 O   0  0  0  0  0  0  0  0  0  0  0  0
   10.4793  -16.7251   24.4576 N   0  0  0  0  0  0  0  0  0  0  0  0
   10.6313  -16.4091   25.8565 C   0  0  1  0  0  0  0  0  0  0  0  0
   10.2221  -14.9873   26.1694 C   0  0  0  0  0  0  0  0  0  0  0  0
    8.7827  -14.7682   26.0065 C   0  0  0  0  0  0  0  0  0  0  0  0
    7.8466  -15.7413   25.7505 C   0  0  0  0  0  0  0  0  0  0  0  0
    6.6370  -15.1664   25.6641 N   0  0  0  0  0  0  0  0  0  0  0  0
    6.7812  -13.8439   25.8599 C   0  0  0  0  0  0  0  0  0  0  0  0
    5.8469  -12.8045   25.8725 C   0  0  0  0  0  0  0  0  0  0  0  0
    6.2793  -11.5180   26.1027 C   0  0  0  0  0  0  0  0  0  0  0  0
    7.6164  -11.2507   26.3185 C   0  0  0  0  0  0  0  0  0  0  0  0
    8.5305  -12.2545   26.3077 C   0  0  0  0  0  0  0  0  0  0  0  0
    8.1188  -13.5613   26.0777 C   0  0  0  0  0  0  0  0  0  0  0  0
    9.9604  -17.4040   26.6924 C   0  0  0  0  0  0  0  0  0  0  0  0
    9.2362  -18.2695   26.1372 O   0  0  0  0  0  0  0  0  0  0  0  0
   10.0623  -17.4678   28.0700 O   0  0  0  0  0  0  0  0  0  0  0  0
  2  1  1  1
  2 13  1  0
  3  4  1  0
  3  2  1  0
  4  5  2  0
  5  6  1  0
  7  6  1  0
  8  7  2  0
  9  8  1  0
 10 11  1  0
 10  9  2  0
 11 12  2  0
 12  4  1  0
 12  7  1  0
 13 14  2  0
 16 17  2  0
 16 15  1  0
 18 16  1  0
 19 18  1  0
 20 19  1  6
 20 22  1  0
 21 13  1  0
 21 20  1  0
 22 23  2  0
 22 24  1  0
 24 25  1  0
 25 26  1  6
 26 27  1  0
 27 28  2  0
 28 29  1  0
 30 29  1  0
 31 30  2  0
 32 31  1  0
 33 34  1  0
 33 32  2  0
 34 35  2  0
 35 27  1  0
 35 30  1  0
 36 25  1  0
 36 38  1  0
 37 36  2  0
M  END
$$$$
