GSW.pdb
     RDKit          3D

 25 26  0  0  1  0  0  0  0  0999 V2000
   14.3885  -13.3478    7.9132 N   0  0  0  0  0  0  0  0  0  0  0  0
   14.0985  -14.7163    8.2293 C   0  0  0  0  0  0  0  0  0  0  0  0
   15.1314  -15.6191    7.6170 C   0  0  0  0  0  0  0  0  0  0  0  0
   15.8312  -15.2163    6.6416 O   0  0  0  0  0  0  0  0  0  0  0  0
   16.1042  -19.2059    9.5709 O   0  0  0  0  0  0  0  0  0  0  0  0
   17.0131  -18.4976    8.7882 C   0  0  0  0  0  0  0  0  0  0  0  0
   16.3201  -17.8323    7.6073 C   0  0  2  0  0  0  0  0  0  0  0  0
   15.3214  -16.9179    8.1327 N   0  0  0  0  0  0  0  0  0  0  0  0
   15.7449  -18.8415    6.6920 C   0  0  0  0  0  0  0  0  0  0  0  0
   14.5801  -19.3061    6.9225 O   0  0  0  0  0  0  0  0  0  0  0  0
   16.4067  -19.3390    5.5536 N   0  0  0  0  0  0  0  0  0  0  0  0
   15.8027  -20.3781    4.7201 C   0  0  1  0  0  0  0  0  0  0  0  0
   16.7405  -20.7299    3.5963 C   0  0  0  0  0  0  0  0  0  0  0  0
   16.0341  -21.4166    2.5004 C   0  0  0  0  0  0  0  0  0  0  0  0
   15.1418  -20.7987    1.6023 C   0  0  0  0  0  0  0  0  0  0  0  0
   14.6875  -21.7775    0.8123 N   0  0  0  0  0  0  0  0  0  0  0  0
   15.2313  -22.9580    1.1503 C   0  0  0  0  0  0  0  0  0  0  0  0
   15.1096  -24.2468    0.6352 C   0  0  0  0  0  0  0  0  0  0  0  0
   15.8058  -25.3215    1.1418 C   0  0  0  0  0  0  0  0  0  0  0  0
   16.6669  -25.1351    2.2061 C   0  0  0  0  0  0  0  0  0  0  0  0
   16.7972  -23.8664    2.7272 C   0  0  0  0  0  0  0  0  0  0  0  0
   16.0907  -22.7797    2.2136 C   0  0  0  0  0  0  0  0  0  0  0  0
   15.4855  -21.5283    5.5487 C   0  0  0  0  0  0  0  0  0  0  0  0
   16.2480  -22.0020    6.4339 O   0  0  0  0  0  0  0  0  0  0  0  0
   14.2579  -22.1770    5.3778 O   0  0  0  0  0  0  0  0  0  0  0  0
  2  3  1  0
  2  1  1  0
  3  4  2  0
  6  5  1  0
  7  6  1  1
  8  7  1  0
  8  3  1  0
  9 11  1  0
  9  7  1  0
 10  9  2  0
 12 11  1  0
 12 13  1  6
 13 14  1  0
 14 15  2  0
 15 16  1  0
 17 16  1  0
 18 17  2  0
 19 18  1  0
 20 21  1  0
 20 19  2  0
 21 22  2  0
 22 14  1  0
 22 17  1  0
 23 12  1  0
 24 23  2  0
 25 23  1  0
M  END
$$$$
