GSW.pdb
     RDKit          3D

 25 26  0  0  1  0  0  0  0  0999 V2000
   29.9823  -22.7845  -17.7954 N   0  0  0  0  0  0  0  0  0  0  0  0
   28.8541  -21.9064  -17.6810 C   0  0  0  0  0  0  0  0  0  0  0  0
   28.6812  -21.4691  -16.2541 C   0  0  0  0  0  0  0  0  0  0  0  0
   28.9162  -22.2769  -15.3078 O   0  0  0  0  0  0  0  0  0  0  0  0
   26.8313  -17.8025  -15.5905 O   0  0  0  0  0  0  0  0  0  0  0  0
   27.7955  -18.1888  -14.6624 C   0  0  0  0  0  0  0  0  0  0  0  0
   27.9469  -19.7032  -14.6252 C   0  0  2  0  0  0  0  0  0  0  0  0
   28.2573  -20.1543  -15.9704 N   0  0  0  0  0  0  0  0  0  0  0  0
   26.7338  -20.3445  -14.0735 C   0  0  0  0  0  0  0  0  0  0  0  0
   25.8007  -20.7060  -14.8636 O   0  0  0  0  0  0  0  0  0  0  0  0
   26.5292  -20.5928  -12.7031 N   0  0  0  0  0  0  0  0  0  0  0  0
   25.4054  -21.4065  -12.2405 C   0  0  1  0  0  0  0  0  0  0  0  0
   25.8041  -22.1534  -10.9957 C   0  0  0  0  0  0  0  0  0  0  0  0
   26.1938  -21.2301   -9.9152 C   0  0  0  0  0  0  0  0  0  0  0  0
   25.3134  -20.3669   -9.2338 C   0  0  0  0  0  0  0  0  0  0  0  0
   26.0747  -19.6730   -8.3808 N   0  0  0  0  0  0  0  0  0  0  0  0
   27.3626  -20.0407   -8.4792 C   0  0  0  0  0  0  0  0  0  0  0  0
   28.5204  -19.6488   -7.8105 C   0  0  0  0  0  0  0  0  0  0  0  0
   29.7548  -20.2013   -8.0695 C   0  0  0  0  0  0  0  0  0  0  0  0
   29.8719  -21.1879   -9.0297 C   0  0  0  0  0  0  0  0  0  0  0  0
   28.7360  -21.5855   -9.7004 C   0  0  0  0  0  0  0  0  0  0  0  0
   27.4872  -21.0242   -9.4375 C   0  0  0  0  0  0  0  0  0  0  0  0
   24.2553  -20.5475  -12.0186 C   0  0  0  0  0  0  0  0  0  0  0  0
   23.0796  -20.9630  -11.8327 O   0  0  0  0  0  0  0  0  0  0  0  0
   24.4305  -19.1596  -12.0040 O   0  0  0  0  0  0  0  0  0  0  0  0
  2  3  1  0
  2  1  1  0
  3  4  2  0
  6  5  1  0
  7  6  1  6
  8  7  1  0
  8  3  1  0
  9 11  1  0
  9  7  1  0
 10  9  2  0
 12 11  1  0
 12 13  1  1
 13 14  1  0
 14 15  2  0
 15 16  1  0
 17 16  1  0
 18 17  2  0
 19 18  1  0
 20 21  1  0
 20 19  2  0
 21 22  2  0
 22 14  1  0
 22 17  1  0
 23 12  1  0
 24 23  2  0
 25 23  1  0
M  END
$$$$
