GSW.pdb
     RDKit          3D

 25 26  0  0  1  0  0  0  0  0999 V2000
   30.5254  -22.8095  -17.5693 N   0  0  0  0  0  0  0  0  0  0  0  0
   29.1558  -22.3921  -17.4864 C   0  0  0  0  0  0  0  0  0  0  0  0
   28.8932  -21.7389  -16.1592 C   0  0  0  0  0  0  0  0  0  0  0  0
   29.1104  -22.3717  -15.0841 O   0  0  0  0  0  0  0  0  0  0  0  0
   27.2193  -17.6441  -14.0675 O   0  0  0  0  0  0  0  0  0  0  0  0
   27.7209  -18.3046  -15.1866 C   0  0  0  0  0  0  0  0  0  0  0  0
   28.0289  -19.7621  -14.8724 C   0  0  2  0  0  0  0  0  0  0  0  0
   28.4049  -20.4167  -16.1131 N   0  0  0  0  0  0  0  0  0  0  0  0
   26.8811  -20.4156  -14.2070 C   0  0  0  0  0  0  0  0  0  0  0  0
   25.8817  -20.7902  -14.9045 O   0  0  0  0  0  0  0  0  0  0  0  0
   26.8101  -20.6620  -12.8229 N   0  0  0  0  0  0  0  0  0  0  0  0
   25.7238  -21.4561  -12.2498 C   0  0  1  0  0  0  0  0  0  0  0  0
   26.2003  -22.1233  -10.9873 C   0  0  0  0  0  0  0  0  0  0  0  0
   26.2767  -21.1669   -9.8687 C   0  0  0  0  0  0  0  0  0  0  0  0
   25.2345  -20.3077   -9.4680 C   0  0  0  0  0  0  0  0  0  0  0  0
   25.7328  -19.5777   -8.4644 N   0  0  0  0  0  0  0  0  0  0  0  0
   27.0063  -19.9192   -8.2092 C   0  0  0  0  0  0  0  0  0  0  0  0
   27.9402  -19.4866   -7.2701 C   0  0  0  0  0  0  0  0  0  0  0  0
   29.2073  -20.0176   -7.1787 C   0  0  0  0  0  0  0  0  0  0  0  0
   29.5889  -21.0233   -8.0459 C   0  0  0  0  0  0  0  0  0  0  0  0
   28.6768  -21.4612   -8.9810 C   0  0  0  0  0  0  0  0  0  0  0  0
   27.3946  -20.9216   -9.0727 C   0  0  0  0  0  0  0  0  0  0  0  0
   24.5776  -20.5953  -12.0149 C   0  0  0  0  0  0  0  0  0  0  0  0
   24.6366  -19.3399  -11.9150 O   0  0  0  0  0  0  0  0  0  0  0  0
   23.3073  -21.1671  -11.8866 O   0  0  0  0  0  0  0  0  0  0  0  0
  2  3  1  0
  2  1  1  0
  3  4  2  0
  6  5  1  0
  7  6  1  6
  8  7  1  0
  8  3  1  0
  9 11  1  0
  9  7  1  0
 10  9  2  0
 12 11  1  0
 12 13  1  1
 13 14  1  0
 14 15  2  0
 15 16  1  0
 17 16  1  0
 18 17  2  0
 19 18  1  0
 20 21  1  0
 20 19  2  0
 21 22  2  0
 22 14  1  0
 22 17  1  0
 23 12  1  0
 24 23  2  0
 25 23  1  0
M  END
$$$$
