GSW.pdb
     RDKit          3D

 25 26  0  0  1  0  0  0  0  0999 V2000
   30.3234  -22.9256  -17.5479 N   0  0  0  0  0  0  0  0  0  0  0  0
   28.9939  -22.4023  -17.4236 C   0  0  0  0  0  0  0  0  0  0  0  0
   28.8369  -21.6952  -16.1074 C   0  0  0  0  0  0  0  0  0  0  0  0
   29.1864  -22.2659  -15.0324 O   0  0  0  0  0  0  0  0  0  0  0  0
   27.0486  -17.6343  -14.0435 O   0  0  0  0  0  0  0  0  0  0  0  0
   27.5332  -18.2981  -15.1682 C   0  0  0  0  0  0  0  0  0  0  0  0
   27.9306  -19.7290  -14.8332 C   0  0  2  0  0  0  0  0  0  0  0  0
   28.2998  -20.3917  -16.0717 N   0  0  0  0  0  0  0  0  0  0  0  0
   26.8431  -20.4273  -14.1142 C   0  0  0  0  0  0  0  0  0  0  0  0
   25.8928  -20.9591  -14.7774 O   0  0  0  0  0  0  0  0  0  0  0  0
   26.7795  -20.5523  -12.7135 N   0  0  0  0  0  0  0  0  0  0  0  0
   25.8392  -21.4744  -12.0774 C   0  0  1  0  0  0  0  0  0  0  0  0
   26.4536  -22.0322  -10.8213 C   0  0  0  0  0  0  0  0  0  0  0  0
   26.5108  -21.0182   -9.7536 C   0  0  0  0  0  0  0  0  0  0  0  0
   25.4810  -20.1060   -9.4500 C   0  0  0  0  0  0  0  0  0  0  0  0
   25.9571  -19.3374   -8.4645 N   0  0  0  0  0  0  0  0  0  0  0  0
   27.2053  -19.7038   -8.1309 C   0  0  0  0  0  0  0  0  0  0  0  0
   28.1091  -19.2491   -7.1730 C   0  0  0  0  0  0  0  0  0  0  0  0
   29.3521  -19.8135   -6.9928 C   0  0  0  0  0  0  0  0  0  0  0  0
   29.7389  -20.8772   -7.7853 C   0  0  0  0  0  0  0  0  0  0  0  0
   28.8563  -21.3376   -8.7379 C   0  0  0  0  0  0  0  0  0  0  0  0
   27.5987  -20.7641   -8.9196 C   0  0  0  0  0  0  0  0  0  0  0  0
   24.5928  -20.7766  -11.8138 C   0  0  0  0  0  0  0  0  0  0  0  0
   23.5069  -21.3435  -11.5160 O   0  0  0  0  0  0  0  0  0  0  0  0
   24.5620  -19.3799  -11.8868 O   0  0  0  0  0  0  0  0  0  0  0  0
  2  3  1  0
  2  1  1  0
  3  4  2  0
  6  5  1  0
  7  6  1  6
  8  7  1  0
  8  3  1  0
  9 11  1  0
  9  7  1  0
 10  9  2  0
 12 11  1  0
 12 13  1  1
 13 14  1  0
 14 15  2  0
 15 16  1  0
 17 16  1  0
 18 17  2  0
 19 18  1  0
 20 21  1  0
 20 19  2  0
 21 22  2  0
 22 14  1  0
 22 17  1  0
 23 12  1  0
 24 23  2  0
 25 23  1  0
M  END
$$$$
