GSW.pdb
     RDKit          3D

 25 26  0  0  1  0  0  0  0  0999 V2000
   29.5921  -20.1337  -17.6584 N   0  0  0  0  0  0  0  0  0  0  0  0
   28.4984  -20.6176  -16.8668 C   0  0  0  0  0  0  0  0  0  0  0  0
   28.5709  -20.0459  -15.4794 C   0  0  0  0  0  0  0  0  0  0  0  0
   29.4196  -19.1472  -15.2047 O   0  0  0  0  0  0  0  0  0  0  0  0
   25.5739  -18.6518  -14.0031 O   0  0  0  0  0  0  0  0  0  0  0  0
   26.8561  -18.4880  -13.4840 C   0  0  0  0  0  0  0  0  0  0  0  0
   27.5142  -19.8333  -13.2103 C   0  0  2  0  0  0  0  0  0  0  0  0
   27.6892  -20.5120  -14.4823 N   0  0  0  0  0  0  0  0  0  0  0  0
   26.7217  -20.6251  -12.2448 C   0  0  0  0  0  0  0  0  0  0  0  0
   25.8569  -21.4570  -12.6759 O   0  0  0  0  0  0  0  0  0  0  0  0
   26.8570  -20.5259  -10.8472 N   0  0  0  0  0  0  0  0  0  0  0  0
   26.0800  -21.3791   -9.9487 C   0  0  1  0  0  0  0  0  0  0  0  0
   26.8971  -21.6965   -8.7248 C   0  0  0  0  0  0  0  0  0  0  0  0
   27.1347  -20.4926   -7.9088 C   0  0  0  0  0  0  0  0  0  0  0  0
   26.6508  -19.2043   -8.2100 C   0  0  0  0  0  0  0  0  0  0  0  0
   27.1352  -18.4032   -7.2549 N   0  0  0  0  0  0  0  0  0  0  0  0
   27.8829  -19.0965   -6.3810 C   0  0  0  0  0  0  0  0  0  0  0  0
   28.5717  -18.7419   -5.2231 C   0  0  0  0  0  0  0  0  0  0  0  0
   29.2620  -19.6541   -4.4566 C   0  0  0  0  0  0  0  0  0  0  0  0
   29.2849  -20.9829   -4.8346 C   0  0  0  0  0  0  0  0  0  0  0  0
   28.6091  -21.3491   -5.9781 C   0  0  0  0  0  0  0  0  0  0  0  0
   27.9117  -20.4238   -6.7533 C   0  0  0  0  0  0  0  0  0  0  0  0
   24.8339  -20.7105   -9.6165 C   0  0  0  0  0  0  0  0  0  0  0  0
   23.9413  -21.1950   -8.8697 O   0  0  0  0  0  0  0  0  0  0  0  0
   24.5766  -19.4411  -10.1451 O   0  0  0  0  0  0  0  0  0  0  0  0
  2  3  1  0
  2  1  1  0
  3  4  2  0
  6  5  1  0
  7  6  1  6
  8  7  1  0
  8  3  1  0
  9 11  1  0
  9  7  1  0
 10  9  2  0
 12 11  1  0
 12 13  1  1
 13 14  1  0
 14 15  2  0
 15 16  1  0
 17 16  1  0
 18 17  2  0
 19 18  1  0
 20 21  1  0
 20 19  2  0
 21 22  2  0
 22 14  1  0
 22 17  1  0
 23 12  1  0
 24 23  2  0
 25 23  1  0
M  END
$$$$
