GSW.pdb
     RDKit          3D

 25 26  0  0  1  0  0  0  0  0999 V2000
   29.1098  -23.6246  -16.6063 N   0  0  0  0  0  0  0  0  0  0  0  0
   27.7644  -23.1852  -16.3742 C   0  0  0  0  0  0  0  0  0  0  0  0
   27.7480  -22.0877  -15.3484 C   0  0  0  0  0  0  0  0  0  0  0  0
   28.7912  -21.8250  -14.6805 O   0  0  0  0  0  0  0  0  0  0  0  0
   25.7618  -18.6735  -15.7849 O   0  0  0  0  0  0  0  0  0  0  0  0
   25.3959  -19.3144  -14.6035 C   0  0  0  0  0  0  0  0  0  0  0  0
   26.4768  -20.2845  -14.1471 C   0  0  2  0  0  0  0  0  0  0  0  0
   26.5668  -21.3484  -15.1316 N   0  0  0  0  0  0  0  0  0  0  0  0
   26.1966  -20.7888  -12.7853 C   0  0  0  0  0  0  0  0  0  0  0  0
   25.3437  -21.7231  -12.6254 O   0  0  0  0  0  0  0  0  0  0  0  0
   26.8204  -20.3006  -11.6218 N   0  0  0  0  0  0  0  0  0  0  0  0
   26.4928  -20.8415  -10.3030 C   0  0  1  0  0  0  0  0  0  0  0  0
   27.5497  -20.4293   -9.3135 C   0  0  0  0  0  0  0  0  0  0  0  0
   27.0233  -20.4172   -7.9371 C   0  0  0  0  0  0  0  0  0  0  0  0
   25.7334  -20.8416   -7.5619 C   0  0  0  0  0  0  0  0  0  0  0  0
   25.6459  -20.6148   -6.2468 N   0  0  0  0  0  0  0  0  0  0  0  0
   26.7851  -20.0825   -5.7751 C   0  0  0  0  0  0  0  0  0  0  0  0
   27.2026  -19.6962   -4.5032 C   0  0  0  0  0  0  0  0  0  0  0  0
   28.4581  -19.1897   -4.2519 C   0  0  0  0  0  0  0  0  0  0  0  0
   29.3574  -19.0506   -5.2915 C   0  0  0  0  0  0  0  0  0  0  0  0
   28.9589  -19.4273   -6.5555 C   0  0  0  0  0  0  0  0  0  0  0  0
   27.6869  -19.9390   -6.8081 C   0  0  0  0  0  0  0  0  0  0  0  0
   25.1706  -20.3818   -9.9150 C   0  0  0  0  0  0  0  0  0  0  0  0
   24.6411  -19.3107  -10.3172 O   0  0  0  0  0  0  0  0  0  0  0  0
   24.4068  -21.1577   -9.0366 O   0  0  0  0  0  0  0  0  0  0  0  0
  2  3  1  0
  2  1  1  0
  3  4  2  0
  6  5  1  0
  7  6  1  6
  8  7  1  0
  8  3  1  0
  9 11  1  0
  9  7  1  0
 10  9  2  0
 12 11  1  0
 12 13  1  1
 13 14  1  0
 14 15  2  0
 15 16  1  0
 17 16  1  0
 18 17  2  0
 19 18  1  0
 20 21  1  0
 20 19  2  0
 21 22  2  0
 22 14  1  0
 22 17  1  0
 23 12  1  0
 24 23  2  0
 25 23  1  0
M  END
$$$$
