GSW.pdb
     RDKit          3D

 25 26  0  0  1  0  0  0  0  0999 V2000
   26.6756  -18.9850  -20.9599 N   0  0  0  0  0  0  0  0  0  0  0  0
   25.5152  -19.8013  -20.7503 C   0  0  0  0  0  0  0  0  0  0  0  0
   24.7284  -19.2909  -19.5766 C   0  0  0  0  0  0  0  0  0  0  0  0
   25.2774  -18.5334  -18.7232 O   0  0  0  0  0  0  0  0  0  0  0  0
   20.7986  -20.7623  -18.8696 O   0  0  0  0  0  0  0  0  0  0  0  0
   21.1042  -19.4182  -18.6689 C   0  0  0  0  0  0  0  0  0  0  0  0
   22.5688  -19.2375  -18.2945 C   0  0  2  0  0  0  0  0  0  0  0  0
   23.3746  -19.6566  -19.4278 N   0  0  0  0  0  0  0  0  0  0  0  0
   22.8953  -19.9781  -17.0567 C   0  0  0  0  0  0  0  0  0  0  0  0
   23.3882  -21.1511  -17.1389 O   0  0  0  0  0  0  0  0  0  0  0  0
   22.6977  -19.4683  -15.7596 N   0  0  0  0  0  0  0  0  0  0  0  0
   23.1778  -20.1894  -14.5812 C   0  0  1  0  0  0  0  0  0  0  0  0
   23.6196  -19.2031  -13.5332 C   0  0  0  0  0  0  0  0  0  0  0  0
   24.1271  -19.8865  -12.3303 C   0  0  0  0  0  0  0  0  0  0  0  0
   25.4695  -20.2572  -12.1179 C   0  0  0  0  0  0  0  0  0  0  0  0
   25.4876  -20.8933  -10.9416 N   0  0  0  0  0  0  0  0  0  0  0  0
   24.2575  -20.9448  -10.4052 C   0  0  0  0  0  0  0  0  0  0  0  0
   23.7580  -21.4622   -9.2119 C   0  0  0  0  0  0  0  0  0  0  0  0
   22.4310  -21.3695   -8.8561 C   0  0  0  0  0  0  0  0  0  0  0  0
   21.5404  -20.7404   -9.7046 C   0  0  0  0  0  0  0  0  0  0  0  0
   22.0191  -20.2245  -10.8891 C   0  0  0  0  0  0  0  0  0  0  0  0
   23.3628  -20.3202  -11.2480 C   0  0  0  0  0  0  0  0  0  0  0  0
   22.1253  -21.0664  -14.0983 C   0  0  0  0  0  0  0  0  0  0  0  0
   20.8990  -20.7743  -14.0943 O   0  0  0  0  0  0  0  0  0  0  0  0
   22.4624  -22.3284  -13.5974 O   0  0  0  0  0  0  0  0  0  0  0  0
  2  3  1  0
  2  1  1  0
  3  4  2  0
  6  5  1  0
  7  6  1  6
  8  7  1  0
  8  3  1  0
  9 11  1  0
  9  7  1  0
 10  9  2  0
 12 11  1  0
 12 13  1  1
 13 14  1  0
 14 15  2  0
 15 16  1  0
 17 16  1  0
 18 17  2  0
 19 18  1  0
 20 21  1  0
 20 19  2  0
 21 22  2  0
 22 14  1  0
 22 17  1  0
 23 12  1  0
 24 23  2  0
 25 23  1  0
M  END
$$$$
