GSW.pdb
     RDKit          3D

 25 26  0  0  1  0  0  0  0  0999 V2000
   28.5891  -23.2648  -17.3591 N   0  0  0  0  0  0  0  0  0  0  0  0
   27.7124  -22.1817  -17.0197 C   0  0  0  0  0  0  0  0  0  0  0  0
   28.0921  -21.6074  -15.6844 C   0  0  0  0  0  0  0  0  0  0  0  0
   28.9170  -22.2159  -14.9410 O   0  0  0  0  0  0  0  0  0  0  0  0
   26.1538  -18.1084  -14.3573 O   0  0  0  0  0  0  0  0  0  0  0  0
   27.5026  -18.2985  -14.0658 C   0  0  0  0  0  0  0  0  0  0  0  0
   27.8427  -19.7799  -13.9789 C   0  0  2  0  0  0  0  0  0  0  0  0
   27.5280  -20.3864  -15.2604 N   0  0  0  0  0  0  0  0  0  0  0  0
   27.1311  -20.4225  -12.8529 C   0  0  0  0  0  0  0  0  0  0  0  0
   25.9995  -20.9730  -13.0581 O   0  0  0  0  0  0  0  0  0  0  0  0
   27.6259  -20.4736  -11.5360 N   0  0  0  0  0  0  0  0  0  0  0  0
   26.8779  -21.1412  -10.4713 C   0  0  1  0  0  0  0  0  0  0  0  0
   27.7645  -21.3166   -9.2674 C   0  0  0  0  0  0  0  0  0  0  0  0
   27.1087  -20.8311   -8.0403 C   0  0  0  0  0  0  0  0  0  0  0  0
   25.7161  -20.7890   -7.8313 C   0  0  0  0  0  0  0  0  0  0  0  0
   25.5476  -20.2362   -6.6252 N   0  0  0  0  0  0  0  0  0  0  0  0
   26.7308  -19.9326   -6.0673 C   0  0  0  0  0  0  0  0  0  0  0  0
   27.0933  -19.3775   -4.8418 C   0  0  0  0  0  0  0  0  0  0  0  0
   28.4046  -19.1824   -4.4698 C   0  0  0  0  0  0  0  0  0  0  0  0
   29.4194  -19.5459   -5.3342 C   0  0  0  0  0  0  0  0  0  0  0  0
   29.0769  -20.0953   -6.5503 C   0  0  0  0  0  0  0  0  0  0  0  0
   27.7485  -20.2910   -6.9256 C   0  0  0  0  0  0  0  0  0  0  0  0
   25.6883  -20.3652  -10.1666 C   0  0  0  0  0  0  0  0  0  0  0  0
   25.6038  -19.1129  -10.2846 O   0  0  0  0  0  0  0  0  0  0  0  0
   24.5412  -21.0225   -9.7091 O   0  0  0  0  0  0  0  0  0  0  0  0
  2  3  1  0
  2  1  1  0
  3  4  2  0
  6  5  1  0
  7  6  1  6
  8  7  1  0
  8  3  1  0
  9 11  1  0
  9  7  1  0
 10  9  2  0
 12 11  1  0
 12 13  1  1
 13 14  1  0
 14 15  2  0
 15 16  1  0
 17 16  1  0
 18 17  2  0
 19 18  1  0
 20 21  1  0
 20 19  2  0
 21 22  2  0
 22 14  1  0
 22 17  1  0
 23 12  1  0
 24 23  2  0
 25 23  1  0
M  END
$$$$
