GSW.pdb
     RDKit          3D

 25 26  0  0  1  0  0  0  0  0999 V2000
   28.7783  -22.6715  -17.3499 N   0  0  0  0  0  0  0  0  0  0  0  0
   27.7203  -21.8605  -16.8207 C   0  0  0  0  0  0  0  0  0  0  0  0
   28.0723  -21.3878  -15.4387 C   0  0  0  0  0  0  0  0  0  0  0  0
   28.8253  -22.0873  -14.6992 O   0  0  0  0  0  0  0  0  0  0  0  0
   26.2157  -17.9045  -13.9831 O   0  0  0  0  0  0  0  0  0  0  0  0
   27.5236  -18.1851  -13.5945 C   0  0  0  0  0  0  0  0  0  0  0  0
   27.7935  -19.6832  -13.6146 C   0  0  2  0  0  0  0  0  0  0  0  0
   27.5624  -20.1606  -14.9667 N   0  0  0  0  0  0  0  0  0  0  0  0
   26.9640  -20.3854  -12.6116 C   0  0  0  0  0  0  0  0  0  0  0  0
   25.8482  -20.8919  -12.9638 O   0  0  0  0  0  0  0  0  0  0  0  0
   27.3269  -20.5409  -11.2604 N   0  0  0  0  0  0  0  0  0  0  0  0
   26.5036  -21.3252  -10.3406 C   0  0  1  0  0  0  0  0  0  0  0  0
   27.2846  -21.6115   -9.0859 C   0  0  0  0  0  0  0  0  0  0  0  0
   27.1479  -20.5198   -8.1055 C   0  0  0  0  0  0  0  0  0  0  0  0
   26.2818  -19.4169   -8.2404 C   0  0  0  0  0  0  0  0  0  0  0  0
   26.5072  -18.6466   -7.1706 N   0  0  0  0  0  0  0  0  0  0  0  0
   27.4474  -19.1882   -6.3793 C   0  0  0  0  0  0  0  0  0  0  0  0
   28.0095  -18.8024   -5.1642 C   0  0  0  0  0  0  0  0  0  0  0  0
   28.9616  -19.5526   -4.5110 C   0  0  0  0  0  0  0  0  0  0  0  0
   29.3916  -20.7420   -5.0673 C   0  0  0  0  0  0  0  0  0  0  0  0
   28.8459  -21.1365   -6.2693 C   0  0  0  0  0  0  0  0  0  0  0  0
   27.8827  -20.3750   -6.9296 C   0  0  0  0  0  0  0  0  0  0  0  0
   25.2743  -20.6014  -10.0668 C   0  0  0  0  0  0  0  0  0  0  0  0
   25.1571  -19.3474  -10.1225 O   0  0  0  0  0  0  0  0  0  0  0  0
   24.1238  -21.3154   -9.7150 O   0  0  0  0  0  0  0  0  0  0  0  0
  2  3  1  0
  2  1  1  0
  3  4  2  0
  6  5  1  0
  7  6  1  6
  8  7  1  0
  8  3  1  0
  9 11  1  0
  9  7  1  0
 10  9  2  0
 12 11  1  0
 12 13  1  1
 13 14  1  0
 14 15  2  0
 15 16  1  0
 17 16  1  0
 18 17  2  0
 19 18  1  0
 20 21  1  0
 20 19  2  0
 21 22  2  0
 22 14  1  0
 22 17  1  0
 23 12  1  0
 24 23  2  0
 25 23  1  0
M  END
$$$$
