TAA.pdb
     RDKit          3D

 18 17  0  0  1  0  0  0  0  0999 V2000
   10.9399  -13.6348   21.0701 C   0  0  0  0  0  0  0  0  0  0  0  0
    9.7678  -13.1786   20.2680 C   0  0  1  0  0  0  0  0  0  0  0  0
   10.2044  -13.1168   18.9225 O   0  0  0  0  0  0  0  0  0  0  0  0
    8.5991  -14.1357   20.2670 C   0  0  2  0  0  0  0  0  0  0  0  0
    7.5253  -13.4344   19.5435 N   0  0  0  0  0  0  0  0  0  0  0  0
    8.0862  -14.4570   21.6054 C   0  0  0  0  0  0  0  0  0  0  0  0
    7.4873  -13.5745   22.3119 O   0  0  0  0  0  0  0  0  0  0  0  0
    7.6833  -17.4600   23.7956 C   0  0  0  0  0  0  0  0  0  0  0  0
    7.8205  -15.9642   23.6105 C   0  0  2  0  0  0  0  0  0  0  0  0
    8.1942  -15.7291   22.2348 N   0  0  0  0  0  0  0  0  0  0  0  0
    8.8020  -15.3791   24.5596 C   0  0  0  0  0  0  0  0  0  0  0  0
   10.0072  -15.4136   24.2298 O   0  0  0  0  0  0  0  0  0  0  0  0
    8.8212  -12.9516   27.3803 C   0  0  0  0  0  0  0  0  0  0  0  0
    9.3743  -14.1609   26.6901 C   0  0  2  0  0  0  0  0  0  0  0  0
    8.4525  -14.7960   25.7932 N   0  0  0  0  0  0  0  0  0  0  0  0
    9.9812  -15.1201   27.6506 C   0  0  0  0  0  0  0  0  0  0  0  0
    9.5561  -16.4370   27.5857 O   0  0  0  0  0  0  0  0  0  0  0  0
   10.8367  -14.7930   28.4914 O   0  0  0  0  0  0  0  0  0  0  0  0
  2  1  1  1
  3  2  1  0
  4  6  1  0
  4  5  1  6
  4  2  1  0
  6  7  2  0
  9  8  1  6
  9 11  1  0
 10  9  1  0
 10  6  1  0
 11 15  1  0
 11 12  2  0
 14 13  1  1
 14 16  1  0
 15 14  1  0
 16 18  2  0
 16 17  1  0
M  END
$$$$
