TAA.pdb
     RDKit          3D

 18 17  0  0  1  0  0  0  0  0999 V2000
   -0.9634  -21.4083   24.9339 C   0  0  0  0  0  0  0  0  0  0  0  0
   -2.2943  -21.7775   25.4974 C   0  0  1  0  0  0  0  0  0  0  0  0
   -3.2635  -21.2626   24.6028 O   0  0  0  0  0  0  0  0  0  0  0  0
   -2.5567  -23.2638   25.5613 C   0  0  2  0  0  0  0  0  0  0  0  0
   -2.7415  -23.6845   24.1622 N   0  0  0  0  0  0  0  0  0  0  0  0
   -3.7788  -23.6260   26.2912 C   0  0  0  0  0  0  0  0  0  0  0  0
   -4.9359  -23.3833   25.8023 O   0  0  0  0  0  0  0  0  0  0  0  0
   -4.6548  -25.6364   29.3206 C   0  0  0  0  0  0  0  0  0  0  0  0
   -5.0310  -24.6770   28.2122 C   0  0  2  0  0  0  0  0  0  0  0  0
   -3.8084  -24.2589   27.5658 N   0  0  0  0  0  0  0  0  0  0  0  0
   -5.8107  -23.5211   28.7246 C   0  0  0  0  0  0  0  0  0  0  0  0
   -5.1677  -22.5795   29.2371 O   0  0  0  0  0  0  0  0  0  0  0  0
   -9.3787  -22.2728   28.4782 C   0  0  0  0  0  0  0  0  0  0  0  0
   -7.9764  -22.2636   29.0055 C   0  0  2  0  0  0  0  0  0  0  0  0
   -7.2149  -23.4305   28.6648 N   0  0  0  0  0  0  0  0  0  0  0  0
   -7.9320  -21.9641   30.4613 C   0  0  0  0  0  0  0  0  0  0  0  0
   -7.5332  -22.9863   31.3071 O   0  0  0  0  0  0  0  0  0  0  0  0
   -8.2325  -20.8560   30.9384 O   0  0  0  0  0  0  0  0  0  0  0  0
  2  1  1  6
  3  2  1  0
  4  6  1  0
  4  5  1  6
  4  2  1  0
  6  7  2  0
  9  8  1  1
  9 11  1  0
 10  9  1  0
 10  6  1  0
 11 15  1  0
 11 12  2  0
 14 13  1  1
 14 16  1  0
 15 14  1  0
 16 18  2  0
 16 17  1  0
M  END
$$$$
