TAA.pdb
     RDKit          3D

 18 17  0  0  1  0  0  0  0  0999 V2000
    8.4970  -17.8779   15.7794 C   0  0  0  0  0  0  0  0  0  0  0  0
    8.4881  -16.8384   14.7095 C   0  0  1  0  0  0  0  0  0  0  0  0
    7.6797  -17.3478   13.6645 O   0  0  0  0  0  0  0  0  0  0  0  0
    7.8469  -15.5312   15.1119 C   0  0  2  0  0  0  0  0  0  0  0  0
    7.8243  -14.7175   13.8848 N   0  0  0  0  0  0  0  0  0  0  0  0
    8.6031  -14.7782   16.1212 C   0  0  0  0  0  0  0  0  0  0  0  0
    9.8284  -14.4640   15.9292 O   0  0  0  0  0  0  0  0  0  0  0  0
    7.9458  -13.2051   19.4655 C   0  0  0  0  0  0  0  0  0  0  0  0
    8.8816  -13.6790   18.3744 C   0  0  2  0  0  0  0  0  0  0  0  0
    8.0788  -14.3350   17.3681 N   0  0  0  0  0  0  0  0  0  0  0  0
    9.9420  -14.5724   18.9072 C   0  0  0  0  0  0  0  0  0  0  0  0
    9.6770  -15.7916   18.9849 O   0  0  0  0  0  0  0  0  0  0  0  0
   13.6098  -14.4690   19.7551 C   0  0  0  0  0  0  0  0  0  0  0  0
   12.2042  -14.9489   19.9517 C   0  0  2  0  0  0  0  0  0  0  0  0
   11.2113  -14.1261   19.3235 N   0  0  0  0  0  0  0  0  0  0  0  0
   11.9006  -15.2081   21.3841 C   0  0  0  0  0  0  0  0  0  0  0  0
   12.7060  -16.1188   22.0482 O   0  0  0  0  0  0  0  0  0  0  0  0
   10.9722  -14.6512   21.9954 O   0  0  0  0  0  0  0  0  0  0  0  0
  2  1  1  1
  3  2  1  0
  4  6  1  0
  4  5  1  6
  4  2  1  0
  6  7  2  0
  9  8  1  1
  9 11  1  0
 10  9  1  0
 10  6  1  0
 11 15  1  0
 11 12  2  0
 14 13  1  1
 14 16  1  0
 15 14  1  0
 16 18  2  0
 16 17  1  0
M  END
$$$$
