TAA.pdb
     RDKit          3D

 18 17  0  0  1  0  0  0  0  0999 V2000
   10.9239  -20.9531   19.6943 C   0  0  0  0  0  0  0  0  0  0  0  0
   10.9400  -19.9920   18.5536 C   0  0  1  0  0  0  0  0  0  0  0  0
   10.5099  -20.7160   17.4153 O   0  0  0  0  0  0  0  0  0  0  0  0
    9.9686  -18.8431   18.6890 C   0  0  2  0  0  0  0  0  0  0  0  0
    9.8272  -18.2939   17.3300 N   0  0  0  0  0  0  0  0  0  0  0  0
   10.4444  -17.7544   19.5526 C   0  0  0  0  0  0  0  0  0  0  0  0
   11.5100  -17.1053   19.2697 O   0  0  0  0  0  0  0  0  0  0  0  0
    9.2909  -15.9212   22.6096 C   0  0  0  0  0  0  0  0  0  0  0  0
   10.3772  -16.3504   21.6471 C   0  0  2  0  0  0  0  0  0  0  0  0
    9.8005  -17.3211   20.7458 N   0  0  0  0  0  0  0  0  0  0  0  0
   11.5630  -16.8912   22.3598 C   0  0  0  0  0  0  0  0  0  0  0  0
   11.5234  -18.0913   22.7072 O   0  0  0  0  0  0  0  0  0  0  0  0
   15.1310  -15.8505   23.0174 C   0  0  0  0  0  0  0  0  0  0  0  0
   13.8956  -16.6551   23.2838 C   0  0  2  0  0  0  0  0  0  0  0  0
   12.7126  -16.1353   22.6608 N   0  0  0  0  0  0  0  0  0  0  0  0
   13.7034  -16.9142   24.7353 C   0  0  0  0  0  0  0  0  0  0  0  0
   12.5322  -16.4512   25.3125 O   0  0  0  0  0  0  0  0  0  0  0  0
   14.5350  -17.5173   25.4357 O   0  0  0  0  0  0  0  0  0  0  0  0
  2  1  1  1
  3  2  1  0
  4  6  1  0
  4  5  1  6
  4  2  1  0
  6  7  2  0
  9  8  1  1
  9 11  1  0
 10  9  1  0
 10  6  1  0
 11 15  1  0
 11 12  2  0
 14 13  1  1
 14 16  1  0
 15 14  1  0
 16 18  2  0
 16 17  1  0
M  END
$$$$
