TAA.pdb
     RDKit          3D

 18 17  0  0  1  0  0  0  0  0999 V2000
    7.0849  -15.9979   20.0250 C   0  0  0  0  0  0  0  0  0  0  0  0
    7.9545  -14.8627   19.6003 C   0  0  1  0  0  0  0  0  0  0  0  0
    7.6862  -14.6462   18.2270 O   0  0  0  0  0  0  0  0  0  0  0  0
    7.6470  -13.5497   20.2811 C   0  0  2  0  0  0  0  0  0  0  0  0
    8.3976  -12.5353   19.5221 N   0  0  0  0  0  0  0  0  0  0  0  0
    8.1019  -13.4766   21.6758 C   0  0  0  0  0  0  0  0  0  0  0  0
    9.3322  -13.2688   21.9586 O   0  0  0  0  0  0  0  0  0  0  0  0
    6.5560  -13.2653   25.0665 C   0  0  0  0  0  0  0  0  0  0  0  0
    7.7475  -13.5336   24.1725 C   0  0  2  0  0  0  0  0  0  0  0  0
    7.2610  -13.6220   22.8150 N   0  0  0  0  0  0  0  0  0  0  0  0
    8.4777  -14.7610   24.5811 C   0  0  0  0  0  0  0  0  0  0  0  0
    8.9056  -14.8080   25.7546 O   0  0  0  0  0  0  0  0  0  0  0  0
    9.2414  -18.1890   23.1438 C   0  0  0  0  0  0  0  0  0  0  0  0
    9.4139  -17.0513   24.1033 C   0  0  2  0  0  0  0  0  0  0  0  0
    8.7104  -15.8584   23.7295 N   0  0  0  0  0  0  0  0  0  0  0  0
   10.8463  -16.7922   24.4063 C   0  0  0  0  0  0  0  0  0  0  0  0
   11.4360  -15.6982   23.7943 O   0  0  0  0  0  0  0  0  0  0  0  0
   11.5205  -17.5038   25.1711 O   0  0  0  0  0  0  0  0  0  0  0  0
  2  1  1  1
  3  2  1  0
  4  6  1  0
  4  5  1  6
  4  2  1  0
  6  7  2  0
  9  8  1  1
  9 11  1  0
 10  9  1  0
 10  6  1  0
 11 15  1  0
 11 12  2  0
 14 13  1  6
 14 16  1  0
 15 14  1  0
 16 18  2  0
 16 17  1  0
M  END
$$$$
