TAA.pdb
     RDKit          3D

 18 17  0  0  1  0  0  0  0  0999 V2000
    5.5120  -17.0840   19.3705 C   0  0  0  0  0  0  0  0  0  0  0  0
    6.3281  -16.8080   20.5882 C   0  0  1  0  0  0  0  0  0  0  0  0
    7.3671  -17.7698   20.5991 O   0  0  0  0  0  0  0  0  0  0  0  0
    7.0231  -15.4667   20.5854 C   0  0  2  0  0  0  0  0  0  0  0  0
    7.9495  -15.5134   19.4418 N   0  0  0  0  0  0  0  0  0  0  0  0
    7.8259  -15.2050   21.7873 C   0  0  0  0  0  0  0  0  0  0  0  0
    9.0761  -15.4750   21.8174 O   0  0  0  0  0  0  0  0  0  0  0  0
    7.3290  -13.6159   25.1482 C   0  0  0  0  0  0  0  0  0  0  0  0
    8.1406  -14.4364   24.1690 C   0  0  2  0  0  0  0  0  0  0  0  0
    7.3234  -14.6467   22.9964 N   0  0  0  0  0  0  0  0  0  0  0  0
    8.5933  -15.7187   24.7668 C   0  0  0  0  0  0  0  0  0  0  0  0
    7.7347  -16.6148   24.9161 O   0  0  0  0  0  0  0  0  0  0  0  0
   11.7966  -17.5495   25.3951 C   0  0  0  0  0  0  0  0  0  0  0  0
   10.3785  -17.2087   25.7379 C   0  0  2  0  0  0  0  0  0  0  0  0
    9.9186  -15.9751   25.1685 N   0  0  0  0  0  0  0  0  0  0  0  0
   10.1269  -17.2850   27.2014 C   0  0  0  0  0  0  0  0  0  0  0  0
   10.4605  -18.4675   27.8414 O   0  0  0  0  0  0  0  0  0  0  0  0
    9.6392  -16.3490   27.8586 O   0  0  0  0  0  0  0  0  0  0  0  0
  2  1  1  6
  3  2  1  0
  4  6  1  0
  4  5  1  6
  4  2  1  0
  6  7  2  0
  9  8  1  1
  9 11  1  0
 10  9  1  0
 10  6  1  0
 11 15  1  0
 11 12  2  0
 14 13  1  1
 14 16  1  0
 15 14  1  0
 16 18  2  0
 16 17  1  0
M  END
$$$$
