TAA.pdb
     RDKit          3D

 18 17  0  0  1  0  0  0  0  0999 V2000
    8.0794  -16.6871   21.6248 C   0  0  0  0  0  0  0  0  0  0  0  0
    8.3807  -15.4101   20.9151 C   0  0  1  0  0  0  0  0  0  0  0  0
    8.0774  -15.6307   19.5498 O   0  0  0  0  0  0  0  0  0  0  0  0
    7.5187  -14.2424   21.3340 C   0  0  2  0  0  0  0  0  0  0  0  0
    7.8228  -13.1716   20.3700 N   0  0  0  0  0  0  0  0  0  0  0  0
    7.8228  -13.7230   22.6739 C   0  0  0  0  0  0  0  0  0  0  0  0
    8.8964  -13.0643   22.8983 O   0  0  0  0  0  0  0  0  0  0  0  0
    6.0550  -13.2762   25.9255 C   0  0  0  0  0  0  0  0  0  0  0  0
    7.3350  -13.3705   25.1235 C   0  0  2  0  0  0  0  0  0  0  0  0
    6.9931  -13.8880   23.8186 N   0  0  0  0  0  0  0  0  0  0  0  0
    8.3517  -14.2123   25.8050 C   0  0  0  0  0  0  0  0  0  0  0  0
    8.4711  -15.3937   25.4143 O   0  0  0  0  0  0  0  0  0  0  0  0
   10.9202  -13.8200   28.5876 C   0  0  0  0  0  0  0  0  0  0  0  0
   10.1454  -14.5602   27.5405 C   0  0  2  0  0  0  0  0  0  0  0  0
    9.1761  -13.7573   26.8523 N   0  0  0  0  0  0  0  0  0  0  0  0
    9.5626  -15.8221   28.0686 C   0  0  0  0  0  0  0  0  0  0  0  0
   10.4463  -16.7862   28.5254 O   0  0  0  0  0  0  0  0  0  0  0  0
    8.3395  -16.0407   28.1149 O   0  0  0  0  0  0  0  0  0  0  0  0
  2  1  1  1
  3  2  1  0
  4  6  1  0
  4  5  1  6
  4  2  1  0
  6  7  2  0
  9  8  1  1
  9 11  1  0
 10  9  1  0
 10  6  1  0
 11 15  1  0
 11 12  2  0
 14 13  1  1
 14 16  1  0
 15 14  1  0
 16 18  2  0
 16 17  1  0
M  END
$$$$
