TAA.pdb
     RDKit          3D

 18 17  0  0  1  0  0  0  0  0999 V2000
    4.1828  -18.2204   23.0057 C   0  0  0  0  0  0  0  0  0  0  0  0
    4.4359  -18.6792   21.6091 C   0  0  1  0  0  0  0  0  0  0  0  0
    3.2042  -19.1824   21.1247 O   0  0  0  0  0  0  0  0  0  0  0  0
    4.8252  -17.5795   20.6495 C   0  0  2  0  0  0  0  0  0  0  0  0
    4.9636  -18.2393   19.3404 N   0  0  0  0  0  0  0  0  0  0  0  0
    6.1135  -16.9442   20.9566 C   0  0  0  0  0  0  0  0  0  0  0  0
    7.2183  -17.5432   20.7173 O   0  0  0  0  0  0  0  0  0  0  0  0
    7.3149  -13.6243   22.2304 C   0  0  0  0  0  0  0  0  0  0  0  0
    7.5547  -15.0586   21.8111 C   0  0  2  0  0  0  0  0  0  0  0  0
    6.2671  -15.6497   21.5283 N   0  0  0  0  0  0  0  0  0  0  0  0
    8.2984  -15.8190   22.8481 C   0  0  0  0  0  0  0  0  0  0  0  0
    7.6581  -16.1873   23.8565 O   0  0  0  0  0  0  0  0  0  0  0  0
   11.6553  -17.5287   23.1798 C   0  0  0  0  0  0  0  0  0  0  0  0
   10.3859  -16.9362   23.7110 C   0  0  2  0  0  0  0  0  0  0  0  0
    9.6661  -16.1425   22.7573 N   0  0  0  0  0  0  0  0  0  0  0  0
   10.6021  -16.2192   24.9955 C   0  0  0  0  0  0  0  0  0  0  0  0
   10.2236  -14.8877   25.0501 O   0  0  0  0  0  0  0  0  0  0  0  0
   11.0987  -16.7568   26.0007 O   0  0  0  0  0  0  0  0  0  0  0  0
  2  1  1  1
  3  2  1  0
  4  6  1  0
  4  5  1  6
  4  2  1  0
  6  7  2  0
  9  8  1  1
  9 11  1  0
 10  9  1  0
 10  6  1  0
 11 15  1  0
 11 12  2  0
 14 13  1  6
 14 16  1  0
 15 14  1  0
 16 18  2  0
 16 17  1  0
M  END
$$$$
