TAA.pdb
     RDKit          3D

 18 17  0  0  1  0  0  0  0  0999 V2000
    7.1031  -17.4185   14.1668 C   0  0  0  0  0  0  0  0  0  0  0  0
    7.8238  -16.9044   15.3675 C   0  0  1  0  0  0  0  0  0  0  0  0
    9.1356  -17.4333   15.3027 O   0  0  0  0  0  0  0  0  0  0  0  0
    7.9972  -15.4041   15.3991 C   0  0  2  0  0  0  0  0  0  0  0  0
    8.9048  -15.0960   14.2811 N   0  0  0  0  0  0  0  0  0  0  0  0
    8.6283  -14.8992   16.6255 C   0  0  0  0  0  0  0  0  0  0  0  0
    9.8722  -15.0913   16.8549 O   0  0  0  0  0  0  0  0  0  0  0  0
    7.6370  -12.7690   19.5508 C   0  0  0  0  0  0  0  0  0  0  0  0
    8.6229  -13.6539   18.8191 C   0  0  2  0  0  0  0  0  0  0  0  0
    7.9550  -14.1728   17.6479 N   0  0  0  0  0  0  0  0  0  0  0  0
    9.1398  -14.7407   19.6900 C   0  0  0  0  0  0  0  0  0  0  0  0
    8.5039  -15.8169   19.6999 O   0  0  0  0  0  0  0  0  0  0  0  0
   12.2887  -15.5021   21.6321 C   0  0  0  0  0  0  0  0  0  0  0  0
   10.8395  -15.6799   21.2959 C   0  0  2  0  0  0  0  0  0  0  0  0
   10.2909  -14.6253   20.4932 N   0  0  0  0  0  0  0  0  0  0  0  0
   10.0186  -15.9569   22.5043 C   0  0  0  0  0  0  0  0  0  0  0  0
   10.3155  -17.1031   23.2235 O   0  0  0  0  0  0  0  0  0  0  0  0
    9.0962  -15.2157   22.8859 O   0  0  0  0  0  0  0  0  0  0  0  0
  2  1  1  6
  3  2  1  0
  4  6  1  0
  4  5  1  6
  4  2  1  0
  6  7  2  0
  9  8  1  1
  9 11  1  0
 10  9  1  0
 10  6  1  0
 11 15  1  0
 11 12  2  0
 14 13  1  1
 14 16  1  0
 15 14  1  0
 16 18  2  0
 16 17  1  0
M  END
$$$$
