IVC.pdb
     RDKit          3D

 22 21  0  0  1  0  0  0  0  0999 V2000
    6.6339  -11.5986   27.7077 C   0  0  0  0  0  0  0  0  0  0  0  0
    5.9213  -12.6536   26.8732 C   0  0  0  0  0  0  0  0  0  0  0  0
    6.9155  -13.5684   26.1870 C   0  0  2  0  0  0  0  0  0  0  0  0
    7.7902  -12.6969   25.3094 C   0  0  0  0  0  0  0  0  0  0  0  0
    6.1547  -14.4990   25.2838 C   0  0  2  0  0  0  0  0  0  0  0  0
    5.2781  -15.3178   26.0687 N   0  0  0  0  0  0  0  0  0  0  0  0
    7.0588  -15.3408   24.4535 C   0  0  0  0  0  0  0  0  0  0  0  0
    7.4675  -16.4484   24.9151 O   0  0  0  0  0  0  0  0  0  0  0  0
    9.0790  -15.9781   19.9474 C   0  0  0  0  0  0  0  0  0  0  0  0
    8.2486  -15.2543   20.9523 C   0  0  1  0  0  0  0  0  0  0  0  0
    6.7979  -15.3522   20.5555 C   0  0  0  0  0  0  0  0  0  0  0  0
    8.4617  -15.7409   22.3857 C   0  0  2  0  0  0  0  0  0  0  0  0
    7.4873  -14.9702   23.1744 N   0  0  0  0  0  0  0  0  0  0  0  0
    9.8021  -15.4327   22.8946 C   0  0  0  0  0  0  0  0  0  0  0  0
    9.9790  -14.4009   23.6297 O   0  0  0  0  0  0  0  0  0  0  0  0
   10.9729  -16.1820   22.6535 N   0  0  0  0  0  0  0  0  0  0  0  0
   11.9932  -16.4387   23.6515 C   0  0  1  0  0  0  0  0  0  0  0  0
   11.3256  -17.1725   24.7908 C   0  0  0  0  0  0  0  0  0  0  0  0
   10.8836  -16.0603   26.1493 S   0  0  0  0  0  0  0  0  0  0  0  0
   13.1559  -17.1408   23.1177 C   0  0  0  0  0  0  0  0  0  0  0  0
   14.4059  -16.9173   23.6680 O   0  0  0  0  0  0  0  0  0  0  0  0
   13.0816  -17.9527   22.1673 O   0  0  0  0  0  0  0  0  0  0  0  0
  1  2  1  0
  2  3  1  0
  3  4  1  6
  5  3  1  0
  5  6  1  1
  7  8  2  0
  7  5  1  0
 10  9  1  6
 10 12  1  0
 11 10  1  0
 12 13  1  1
 13  7  1  0
 14 12  1  0
 14 16  1  0
 15 14  2  0
 17 16  1  0
 17 20  1  0
 17 18  1  1
 19 18  1  0
 20 22  2  0
 20 21  1  0
M  END
$$$$
