IVC.pdb
     RDKit          3D

 22 21  0  0  1  0  0  0  0  0999 V2000
    6.3489  -11.3387   27.3668 C   0  0  0  0  0  0  0  0  0  0  0  0
    5.7601  -12.5794   26.7101 C   0  0  0  0  0  0  0  0  0  0  0  0
    6.8532  -13.4976   26.2020 C   0  0  2  0  0  0  0  0  0  0  0  0
    7.6576  -12.7125   25.1865 C   0  0  0  0  0  0  0  0  0  0  0  0
    6.2062  -14.6445   25.4762 C   0  0  2  0  0  0  0  0  0  0  0  0
    5.3480  -15.3577   26.3762 N   0  0  0  0  0  0  0  0  0  0  0  0
    7.2081  -15.5610   24.8665 C   0  0  0  0  0  0  0  0  0  0  0  0
    7.7151  -16.4811   25.5759 O   0  0  0  0  0  0  0  0  0  0  0  0
    9.2202  -14.4675   21.3845 C   0  0  0  0  0  0  0  0  0  0  0  0
    8.7171  -15.8681   21.4760 C   0  0  1  0  0  0  0  0  0  0  0  0
    9.6073  -16.7663   20.6561 C   0  0  0  0  0  0  0  0  0  0  0  0
    8.5903  -16.3794   22.9111 C   0  0  2  0  0  0  0  0  0  0  0  0
    7.6257  -15.4599   23.5351 N   0  0  0  0  0  0  0  0  0  0  0  0
    9.8498  -16.2902   23.6571 C   0  0  0  0  0  0  0  0  0  0  0  0
   10.6294  -15.2940   23.4671 O   0  0  0  0  0  0  0  0  0  0  0  0
   10.3194  -17.2230   24.6054 N   0  0  0  0  0  0  0  0  0  0  0  0
   11.6519  -17.1998   25.1771 C   0  0  1  0  0  0  0  0  0  0  0  0
   11.4909  -17.0782   26.6743 C   0  0  0  0  0  0  0  0  0  0  0  0
   10.4829  -15.6468   27.1354 S   0  0  0  0  0  0  0  0  0  0  0  0
   12.4692  -18.3407   24.7771 C   0  0  0  0  0  0  0  0  0  0  0  0
   11.9189  -19.3385   23.9917 O   0  0  0  0  0  0  0  0  0  0  0  0
   13.6685  -18.4682   25.1138 O   0  0  0  0  0  0  0  0  0  0  0  0
  1  2  1  0
  2  3  1  0
  3  4  1  6
  5  3  1  0
  5  6  1  1
  7  8  2  0
  7  5  1  0
 10  9  1  1
 10 12  1  0
 11 10  1  0
 12 13  1  1
 13  7  1  0
 14 12  1  0
 14 16  1  0
 15 14  2  0
 17 16  1  0
 17 20  1  0
 17 18  1  1
 19 18  1  0
 20 22  2  0
 20 21  1  0
M  END
$$$$
