IVC.pdb
     RDKit          3D

 22 21  0  0  1  0  0  0  0  0999 V2000
    6.4424  -11.3903   27.4121 C   0  0  0  0  0  0  0  0  0  0  0  0
    5.9116  -12.7198   26.8942 C   0  0  0  0  0  0  0  0  0  0  0  0
    7.0108  -13.5235   26.2295 C   0  0  2  0  0  0  0  0  0  0  0  0
    7.6794  -12.6133   25.2200 C   0  0  0  0  0  0  0  0  0  0  0  0
    6.3745  -14.6526   25.4675 C   0  0  2  0  0  0  0  0  0  0  0  0
    5.7592  -15.5641   26.3870 N   0  0  0  0  0  0  0  0  0  0  0  0
    7.3499  -15.3625   24.5954 C   0  0  0  0  0  0  0  0  0  0  0  0
    7.9592  -16.3772   25.0495 O   0  0  0  0  0  0  0  0  0  0  0  0
    8.9576  -15.8087   19.8962 C   0  0  0  0  0  0  0  0  0  0  0  0
    8.2616  -15.0986   21.0074 C   0  0  1  0  0  0  0  0  0  0  0  0
    6.7839  -15.0537   20.7148 C   0  0  0  0  0  0  0  0  0  0  0  0
    8.5324  -15.7047   22.3845 C   0  0  2  0  0  0  0  0  0  0  0  0
    7.6338  -14.9647   23.2847 N   0  0  0  0  0  0  0  0  0  0  0  0
    9.9097  -15.4861   22.8382 C   0  0  0  0  0  0  0  0  0  0  0  0
   10.1703  -14.5123   23.6256 O   0  0  0  0  0  0  0  0  0  0  0  0
   11.0316  -16.2661   22.4876 N   0  0  0  0  0  0  0  0  0  0  0  0
   11.9070  -16.9085   23.4489 C   0  0  1  0  0  0  0  0  0  0  0  0
   11.0363  -17.7601   24.3428 C   0  0  0  0  0  0  0  0  0  0  0  0
   11.4973  -17.6065   26.0868 S   0  0  0  0  0  0  0  0  0  0  0  0
   12.9958  -17.6545   22.8264 C   0  0  0  0  0  0  0  0  0  0  0  0
   14.3071  -17.3612   23.1575 O   0  0  0  0  0  0  0  0  0  0  0  0
   12.8030  -18.5663   21.9899 O   0  0  0  0  0  0  0  0  0  0  0  0
  1  2  1  0
  2  3  1  0
  3  4  1  6
  5  3  1  0
  5  6  1  1
  7  8  2  0
  7  5  1  0
 10  9  1  6
 10 12  1  0
 11 10  1  0
 12 13  1  1
 13  7  1  0
 14 12  1  0
 14 16  1  0
 15 14  2  0
 17 16  1  0
 17 20  1  0
 17 18  1  6
 19 18  1  0
 20 22  2  0
 20 21  1  0
M  END
$$$$
