IVC.pdb
     RDKit          3D

 22 21  0  0  1  0  0  0  0  0999 V2000
    6.6120  -11.4052   27.7159 C   0  0  0  0  0  0  0  0  0  0  0  0
    5.9240  -12.5507   26.9865 C   0  0  0  0  0  0  0  0  0  0  0  0
    6.9269  -13.3886   26.2195 C   0  0  2  0  0  0  0  0  0  0  0  0
    7.5923  -12.4745   25.2114 C   0  0  0  0  0  0  0  0  0  0  0  0
    6.1739  -14.4378   25.4496 C   0  0  2  0  0  0  0  0  0  0  0  0
    5.5405  -15.3412   26.3648 N   0  0  0  0  0  0  0  0  0  0  0  0
    7.0513  -15.1776   24.5016 C   0  0  0  0  0  0  0  0  0  0  0  0
    7.6531  -16.2188   24.9022 O   0  0  0  0  0  0  0  0  0  0  0  0
    8.2423  -13.3428   20.9532 C   0  0  0  0  0  0  0  0  0  0  0  0
    7.8760  -14.7870   20.8935 C   0  0  1  0  0  0  0  0  0  0  0  0
    8.6474  -15.4456   19.7788 C   0  0  0  0  0  0  0  0  0  0  0  0
    8.0815  -15.5248   22.2165 C   0  0  2  0  0  0  0  0  0  0  0  0
    7.2497  -14.7801   23.1751 N   0  0  0  0  0  0  0  0  0  0  0  0
    9.4704  -15.4718   22.6843 C   0  0  0  0  0  0  0  0  0  0  0  0
    9.9799  -14.3507   23.0307 O   0  0  0  0  0  0  0  0  0  0  0  0
   10.3483  -16.5699   22.8012 N   0  0  0  0  0  0  0  0  0  0  0  0
   11.7389  -16.4598   23.1972 C   0  0  1  0  0  0  0  0  0  0  0  0
   11.9142  -17.2984   24.4415 C   0  0  0  0  0  0  0  0  0  0  0  0
   10.7552  -16.8247   25.7492 S   0  0  0  0  0  0  0  0  0  0  0  0
   12.6703  -16.8117   22.1303 C   0  0  0  0  0  0  0  0  0  0  0  0
   14.0330  -16.6944   22.3413 O   0  0  0  0  0  0  0  0  0  0  0  0
   12.2943  -17.2235   21.0091 O   0  0  0  0  0  0  0  0  0  0  0  0
  1  2  1  0
  2  3  1  0
  3  4  1  6
  5  3  1  0
  5  6  1  1
  7  8  2  0
  7  5  1  0
 10  9  1  1
 10 12  1  0
 11 10  1  0
 12 13  1  1
 13  7  1  0
 14 12  1  0
 14 16  1  0
 15 14  2  0
 17 16  1  0
 17 20  1  0
 17 18  1  1
 19 18  1  0
 20 22  2  0
 20 21  1  0
M  END
$$$$
