IVC.pdb
     RDKit          3D

 22 21  0  0  1  0  0  0  0  0999 V2000
    6.3871  -11.4071   27.7690 C   0  0  0  0  0  0  0  0  0  0  0  0
    5.8101  -12.5868   26.9991 C   0  0  0  0  0  0  0  0  0  0  0  0
    6.9041  -13.3703   26.3025 C   0  0  2  0  0  0  0  0  0  0  0  0
    7.5761  -12.4258   25.3274 C   0  0  0  0  0  0  0  0  0  0  0  0
    6.2607  -14.4662   25.4989 C   0  0  2  0  0  0  0  0  0  0  0  0
    5.5834  -15.3717   26.3799 N   0  0  0  0  0  0  0  0  0  0  0  0
    7.2445  -15.1935   24.6509 C   0  0  0  0  0  0  0  0  0  0  0  0
    7.9223  -16.1351   25.1616 O   0  0  0  0  0  0  0  0  0  0  0  0
    6.7175  -15.0489   20.5724 C   0  0  0  0  0  0  0  0  0  0  0  0
    8.1334  -15.0518   21.0398 C   0  0  1  0  0  0  0  0  0  0  0  0
    8.6622  -13.6406   21.0194 C   0  0  0  0  0  0  0  0  0  0  0  0
    8.3215  -15.6908   22.4157 C   0  0  2  0  0  0  0  0  0  0  0  0
    7.4639  -14.8894   23.3032 N   0  0  0  0  0  0  0  0  0  0  0  0
    9.7007  -15.5881   22.9037 C   0  0  0  0  0  0  0  0  0  0  0  0
   10.2179  -14.4353   23.1032 O   0  0  0  0  0  0  0  0  0  0  0  0
   10.5607  -16.6686   23.1917 N   0  0  0  0  0  0  0  0  0  0  0  0
   11.9673  -16.5240   23.5135 C   0  0  1  0  0  0  0  0  0  0  0  0
   12.1070  -16.7411   25.0020 C   0  0  0  0  0  0  0  0  0  0  0  0
   10.8619  -17.8895   25.6412 S   0  0  0  0  0  0  0  0  0  0  0  0
   12.8307  -17.3942   22.7217 C   0  0  0  0  0  0  0  0  0  0  0  0
   14.2054  -17.2566   22.8031 O   0  0  0  0  0  0  0  0  0  0  0  0
   12.3846  -18.2784   21.9554 O   0  0  0  0  0  0  0  0  0  0  0  0
  1  2  1  0
  2  3  1  0
  3  4  1  6
  5  3  1  0
  5  6  1  1
  7  8  2  0
  7  5  1  0
 10  9  1  1
 10 12  1  0
 11 10  1  0
 12 13  1  1
 13  7  1  0
 14 12  1  0
 14 16  1  0
 15 14  2  0
 17 16  1  0
 17 20  1  0
 17 18  1  1
 19 18  1  0
 20 22  2  0
 20 21  1  0
M  END
$$$$
