IVC.pdb
     RDKit          3D

 22 21  0  0  1  0  0  0  0  0999 V2000
    6.7626  -11.3723   27.7900 C   0  0  0  0  0  0  0  0  0  0  0  0
    6.0437  -12.4480   26.9879 C   0  0  0  0  0  0  0  0  0  0  0  0
    7.0324  -13.3472   26.2738 C   0  0  2  0  0  0  0  0  0  0  0  0
    7.8198  -12.4735   25.3193 C   0  0  0  0  0  0  0  0  0  0  0  0
    6.2584  -14.3360   25.4467 C   0  0  2  0  0  0  0  0  0  0  0  0
    5.4624  -15.1610   26.3072 N   0  0  0  0  0  0  0  0  0  0  0  0
    7.1461  -15.1700   24.5909 C   0  0  0  0  0  0  0  0  0  0  0  0
    7.6451  -16.2321   25.0702 O   0  0  0  0  0  0  0  0  0  0  0  0
    6.7107  -15.0394   20.5163 C   0  0  0  0  0  0  0  0  0  0  0  0
    8.1189  -15.0590   21.0063 C   0  0  1  0  0  0  0  0  0  0  0  0
    8.6671  -13.6552   20.9873 C   0  0  0  0  0  0  0  0  0  0  0  0
    8.2764  -15.6933   22.3882 C   0  0  2  0  0  0  0  0  0  0  0  0
    7.4631  -14.8400   23.2689 N   0  0  0  0  0  0  0  0  0  0  0  0
    9.6600  -15.6572   22.8732 C   0  0  0  0  0  0  0  0  0  0  0  0
   10.2140  -14.5320   23.1245 O   0  0  0  0  0  0  0  0  0  0  0  0
   10.4866  -16.7766   23.1050 N   0  0  0  0  0  0  0  0  0  0  0  0
   11.8481  -16.6931   23.5971 C   0  0  1  0  0  0  0  0  0  0  0  0
   11.9955  -17.7404   24.6760 C   0  0  0  0  0  0  0  0  0  0  0  0
   10.7970  -17.5115   26.0135 S   0  0  0  0  0  0  0  0  0  0  0  0
   12.8493  -16.8096   22.5417 C   0  0  0  0  0  0  0  0  0  0  0  0
   14.1923  -16.6857   22.8518 O   0  0  0  0  0  0  0  0  0  0  0  0
   12.5517  -17.0203   21.3438 O   0  0  0  0  0  0  0  0  0  0  0  0
  1  2  1  0
  2  3  1  0
  3  4  1  6
  5  3  1  0
  5  6  1  1
  7  8  2  0
  7  5  1  0
 10  9  1  1
 10 12  1  0
 11 10  1  0
 12 13  1  1
 13  7  1  0
 14 12  1  0
 14 16  1  0
 15 14  2  0
 17 16  1  0
 17 20  1  0
 17 18  1  1
 19 18  1  0
 20 22  2  0
 20 21  1  0
M  END
$$$$
