IVC.pdb
     RDKit          3D

 22 21  0  0  1  0  0  0  0  0999 V2000
    7.9426  -19.1127   29.1951 C   0  0  0  0  0  0  0  0  0  0  0  0
    7.0340  -19.0843   27.9740 C   0  0  0  0  0  0  0  0  0  0  0  0
    7.7954  -18.6487   26.7384 C   0  0  2  0  0  0  0  0  0  0  0  0
    8.4116  -17.2999   27.0478 C   0  0  0  0  0  0  0  0  0  0  0  0
    6.8082  -18.4487   25.6222 C   0  0  2  0  0  0  0  0  0  0  0  0
    6.1249  -19.6815   25.3605 N   0  0  0  0  0  0  0  0  0  0  0  0
    7.4552  -17.9323   24.3851 C   0  0  0  0  0  0  0  0  0  0  0  0
    8.0766  -18.7395   23.6306 O   0  0  0  0  0  0  0  0  0  0  0  0
    8.2086  -13.9045   21.5338 C   0  0  0  0  0  0  0  0  0  0  0  0
    7.4694  -14.7510   22.5138 C   0  0  1  0  0  0  0  0  0  0  0  0
    6.1070  -15.0749   21.9564 C   0  0  0  0  0  0  0  0  0  0  0  0
    8.2189  -16.0228   22.9106 C   0  0  2  0  0  0  0  0  0  0  0  0
    7.4136  -16.5865   24.0057 N   0  0  0  0  0  0  0  0  0  0  0  0
    9.5627  -15.7490   23.4302 C   0  0  0  0  0  0  0  0  0  0  0  0
    9.6986  -15.2028   24.5789 O   0  0  0  0  0  0  0  0  0  0  0  0
   10.7789  -16.0344   22.7749 N   0  0  0  0  0  0  0  0  0  0  0  0
   12.0803  -15.9652   23.4110 C   0  0  1  0  0  0  0  0  0  0  0  0
   12.0890  -16.9933   24.5179 C   0  0  0  0  0  0  0  0  0  0  0  0
   11.5195  -16.3026   26.0915 S   0  0  0  0  0  0  0  0  0  0  0  0
   13.1877  -16.1201   22.4732 C   0  0  0  0  0  0  0  0  0  0  0  0
   14.4878  -15.9304   22.9079 O   0  0  0  0  0  0  0  0  0  0  0  0
   13.0209  -16.4222   21.2695 O   0  0  0  0  0  0  0  0  0  0  0  0
  1  2  1  0
  2  3  1  0
  3  4  1  1
  5  3  1  0
  5  6  1  6
  7  8  2  0
  7  5  1  0
 10  9  1  6
 10 12  1  0
 11 10  1  0
 12 13  1  1
 13  7  1  0
 14 12  1  0
 14 16  1  0
 15 14  2  0
 17 16  1  0
 17 20  1  0
 17 18  1  1
 19 18  1  0
 20 22  2  0
 20 21  1  0
M  END
$$$$
