IVC.pdb
     RDKit          3D

 22 21  0  0  1  0  0  0  0  0999 V2000
    6.4738  -11.5860   27.5952 C   0  0  0  0  0  0  0  0  0  0  0  0
    5.8530  -12.7717   26.8700 C   0  0  0  0  0  0  0  0  0  0  0  0
    6.9140  -13.6036   26.1784 C   0  0  2  0  0  0  0  0  0  0  0  0
    7.6646  -12.6788   25.2424 C   0  0  0  0  0  0  0  0  0  0  0  0
    6.2251  -14.6390   25.3336 C   0  0  2  0  0  0  0  0  0  0  0  0
    5.5091  -15.5483   26.1795 N   0  0  0  0  0  0  0  0  0  0  0  0
    7.1775  -15.3742   24.4571 C   0  0  0  0  0  0  0  0  0  0  0  0
    7.6740  -16.4669   24.8651 O   0  0  0  0  0  0  0  0  0  0  0  0
    8.9466  -15.6747   19.8036 C   0  0  0  0  0  0  0  0  0  0  0  0
    8.1657  -15.0466   20.9078 C   0  0  1  0  0  0  0  0  0  0  0  0
    6.7002  -15.0829   20.5577 C   0  0  0  0  0  0  0  0  0  0  0  0
    8.4215  -15.6809   22.2749 C   0  0  2  0  0  0  0  0  0  0  0  0
    7.5590  -14.9177   23.1910 N   0  0  0  0  0  0  0  0  0  0  0  0
    9.8094  -15.5227   22.7214 C   0  0  0  0  0  0  0  0  0  0  0  0
   10.1075  -14.5914   23.5460 O   0  0  0  0  0  0  0  0  0  0  0  0
   10.9036  -16.3203   22.3254 N   0  0  0  0  0  0  0  0  0  0  0  0
   11.9589  -16.7540   23.2204 C   0  0  1  0  0  0  0  0  0  0  0  0
   11.2929  -17.4011   24.4120 C   0  0  0  0  0  0  0  0  0  0  0  0
   12.2845  -17.2357   25.9177 S   0  0  0  0  0  0  0  0  0  0  0  0
   12.9436  -17.6153   22.5737 C   0  0  0  0  0  0  0  0  0  0  0  0
   14.2609  -17.5917   22.9974 O   0  0  0  0  0  0  0  0  0  0  0  0
   12.6542  -18.3919   21.6350 O   0  0  0  0  0  0  0  0  0  0  0  0
  1  2  1  0
  2  3  1  0
  3  4  1  6
  5  3  1  0
  5  6  1  1
  7  8  2  0
  7  5  1  0
 10  9  1  6
 10 12  1  0
 11 10  1  0
 12 13  1  1
 13  7  1  0
 14 12  1  0
 14 16  1  0
 15 14  2  0
 17 16  1  0
 17 20  1  0
 17 18  1  1
 19 18  1  0
 20 22  2  0
 20 21  1  0
M  END
$$$$
