IVC.pdb
     RDKit          3D

 22 21  0  0  1  0  0  0  0  0999 V2000
    7.6076  -12.2234   18.8136 C   0  0  0  0  0  0  0  0  0  0  0  0
    8.0778  -13.6445   19.0906 C   0  0  0  0  0  0  0  0  0  0  0  0
    7.6034  -14.1203   20.4488 C   0  0  2  0  0  0  0  0  0  0  0  0
    8.2188  -13.2001   21.4827 C   0  0  0  0  0  0  0  0  0  0  0  0
    8.1559  -15.4985   20.6851 C   0  0  2  0  0  0  0  0  0  0  0  0
    7.5623  -16.4178   19.7590 N   0  0  0  0  0  0  0  0  0  0  0  0
    7.9481  -15.9550   22.0866 C   0  0  0  0  0  0  0  0  0  0  0  0
    6.7762  -16.2434   22.4743 O   0  0  0  0  0  0  0  0  0  0  0  0
   11.1680  -17.3125   24.1911 C   0  0  0  0  0  0  0  0  0  0  0  0
    9.7755  -17.6360   24.6149 C   0  0  1  0  0  0  0  0  0  0  0  0
    9.7908  -18.0918   26.0514 C   0  0  0  0  0  0  0  0  0  0  0  0
    8.7918  -16.4834   24.4131 C   0  0  2  0  0  0  0  0  0  0  0  0
    8.9904  -16.0844   23.0106 N   0  0  0  0  0  0  0  0  0  0  0  0
    9.0946  -15.3259   25.2611 C   0  0  0  0  0  0  0  0  0  0  0  0
   10.1246  -14.6098   25.0116 O   0  0  0  0  0  0  0  0  0  0  0  0
    8.3415  -14.8932   26.3728 N   0  0  0  0  0  0  0  0  0  0  0  0
    8.7163  -13.7815   27.2251 C   0  0  1  0  0  0  0  0  0  0  0  0
    7.4451  -13.0480   27.5833 C   0  0  0  0  0  0  0  0  0  0  0  0
    6.3300  -12.8887   26.1660 S   0  0  0  0  0  0  0  0  0  0  0  0
    9.4943  -14.1876   28.3910 C   0  0  0  0  0  0  0  0  0  0  0  0
   10.1092  -13.2273   29.1753 O   0  0  0  0  0  0  0  0  0  0  0  0
    9.6387  -15.3851   28.7276 O   0  0  0  0  0  0  0  0  0  0  0  0
  1  2  1  0
  2  3  1  0
  3  4  1  1
  5  3  1  0
  5  6  1  6
  7  8  2  0
  7  5  1  0
 10  9  1  1
 10 12  1  0
 11 10  1  0
 12 13  1  6
 13  7  1  0
 14 12  1  0
 14 16  1  0
 15 14  2  0
 17 16  1  0
 17 20  1  0
 17 18  1  1
 19 18  1  0
 20 22  2  0
 20 21  1  0
M  END
$$$$
