IVC.pdb
     RDKit          3D

 22 21  0  0  1  0  0  0  0  0999 V2000
    8.7330  -12.6612   27.9108 C   0  0  0  0  0  0  0  0  0  0  0  0
    7.6695  -13.5814   27.3278 C   0  0  0  0  0  0  0  0  0  0  0  0
    6.9894  -12.9408   26.1349 C   0  0  2  0  0  0  0  0  0  0  0  0
    6.1136  -11.8255   26.6676 C   0  0  0  0  0  0  0  0  0  0  0  0
    6.0851  -13.9623   25.5029 C   0  0  2  0  0  0  0  0  0  0  0  0
    5.3359  -14.6351   26.5232 N   0  0  0  0  0  0  0  0  0  0  0  0
    6.8370  -14.9404   24.6701 C   0  0  0  0  0  0  0  0  0  0  0  0
    6.9545  -16.1353   25.0765 O   0  0  0  0  0  0  0  0  0  0  0  0
    8.9116  -15.7247   20.2037 C   0  0  0  0  0  0  0  0  0  0  0  0
    8.2458  -14.8902   21.2447 C   0  0  1  0  0  0  0  0  0  0  0  0
    6.8728  -14.5006   20.7605 C   0  0  0  0  0  0  0  0  0  0  0  0
    8.1761  -15.5637   22.6153 C   0  0  2  0  0  0  0  0  0  0  0  0
    7.4285  -14.6071   23.4469 N   0  0  0  0  0  0  0  0  0  0  0  0
    9.4984  -15.7540   23.2204 C   0  0  0  0  0  0  0  0  0  0  0  0
   10.2496  -14.7407   23.4329 O   0  0  0  0  0  0  0  0  0  0  0  0
   10.0606  -16.9867   23.6131 N   0  0  0  0  0  0  0  0  0  0  0  0
   11.4370  -17.1533   24.0381 C   0  0  1  0  0  0  0  0  0  0  0  0
   11.4048  -17.7732   25.4154 C   0  0  0  0  0  0  0  0  0  0  0  0
    9.9230  -18.7812   25.6725 S   0  0  0  0  0  0  0  0  0  0  0  0
   12.2454  -17.9084   23.0862 C   0  0  0  0  0  0  0  0  0  0  0  0
   13.6017  -18.0672   23.3106 O   0  0  0  0  0  0  0  0  0  0  0  0
   11.7670  -18.4319   22.0542 O   0  0  0  0  0  0  0  0  0  0  0  0
  1  2  1  0
  2  3  1  0
  3  4  1  1
  5  3  1  0
  5  6  1  1
  7  8  2  0
  7  5  1  0
 10  9  1  6
 10 12  1  0
 11 10  1  0
 12 13  1  1
 13  7  1  0
 14 12  1  0
 14 16  1  0
 15 14  2  0
 17 16  1  0
 17 20  1  0
 17 18  1  1
 19 18  1  0
 20 22  2  0
 20 21  1  0
M  END
$$$$
