IVC.pdb
     RDKit          3D

 22 21  0  0  1  0  0  0  0  0999 V2000
    8.6146  -12.3838   27.8710 C   0  0  0  0  0  0  0  0  0  0  0  0
    7.7369  -13.4598   27.2471 C   0  0  0  0  0  0  0  0  0  0  0  0
    6.9530  -12.9101   26.0726 C   0  0  2  0  0  0  0  0  0  0  0  0
    6.0027  -11.8659   26.6213 C   0  0  0  0  0  0  0  0  0  0  0  0
    6.1194  -14.0226   25.4998 C   0  0  2  0  0  0  0  0  0  0  0  0
    5.4399  -14.7068   26.5605 N   0  0  0  0  0  0  0  0  0  0  0  0
    6.9306  -14.9752   24.6933 C   0  0  0  0  0  0  0  0  0  0  0  0
    7.1860  -16.1230   25.1669 O   0  0  0  0  0  0  0  0  0  0  0  0
    6.7169  -14.9822   20.6785 C   0  0  0  0  0  0  0  0  0  0  0  0
    8.1156  -15.0468   21.1911 C   0  0  1  0  0  0  0  0  0  0  0  0
    8.7382  -13.6773   21.0990 C   0  0  0  0  0  0  0  0  0  0  0  0
    8.2213  -15.6057   22.6100 C   0  0  2  0  0  0  0  0  0  0  0  0
    7.4327  -14.6674   23.4244 N   0  0  0  0  0  0  0  0  0  0  0  0
    9.5968  -15.6023   23.1186 C   0  0  0  0  0  0  0  0  0  0  0  0
   10.1218  -14.5065   23.5185 O   0  0  0  0  0  0  0  0  0  0  0  0
   10.4453  -16.7247   23.2217 N   0  0  0  0  0  0  0  0  0  0  0  0
   11.8339  -16.6583   23.6344 C   0  0  1  0  0  0  0  0  0  0  0  0
   12.0272  -17.6991   24.7121 C   0  0  0  0  0  0  0  0  0  0  0  0
   10.9073  -17.4445   26.1116 S   0  0  0  0  0  0  0  0  0  0  0  0
   12.7710  -16.7984   22.5245 C   0  0  0  0  0  0  0  0  0  0  0  0
   14.1145  -16.5316   22.7217 O   0  0  0  0  0  0  0  0  0  0  0  0
   12.4167  -17.1551   21.3776 O   0  0  0  0  0  0  0  0  0  0  0  0
  1  2  1  0
  2  3  1  0
  3  4  1  1
  5  3  1  0
  5  6  1  1
  7  8  2  0
  7  5  1  0
 10  9  1  1
 10 12  1  0
 11 10  1  0
 12 13  1  1
 13  7  1  0
 14 12  1  0
 14 16  1  0
 15 14  2  0
 17 16  1  0
 17 20  1  0
 17 18  1  1
 19 18  1  0
 20 22  2  0
 20 21  1  0
M  END
$$$$
