IVC.pdb
     RDKit          3D

 22 21  0  0  1  0  0  0  0  0999 V2000
    6.0904  -11.3653   27.4650 C   0  0  0  0  0  0  0  0  0  0  0  0
    5.6015  -12.6147   26.7457 C   0  0  0  0  0  0  0  0  0  0  0  0
    6.7529  -13.3546   26.0954 C   0  0  2  0  0  0  0  0  0  0  0  0
    7.3874  -12.4046   25.1007 C   0  0  0  0  0  0  0  0  0  0  0  0
    6.1905  -14.5124   25.3183 C   0  0  2  0  0  0  0  0  0  0  0  0
    5.5366  -15.4191   26.2157 N   0  0  0  0  0  0  0  0  0  0  0  0
    7.2345  -15.2176   24.5254 C   0  0  0  0  0  0  0  0  0  0  0  0
    7.8637  -16.1828   25.0537 O   0  0  0  0  0  0  0  0  0  0  0  0
    6.7695  -15.3476   20.5387 C   0  0  0  0  0  0  0  0  0  0  0  0
    8.1905  -15.1571   20.9487 C   0  0  1  0  0  0  0  0  0  0  0  0
    8.5616  -13.7060   20.7811 C   0  0  0  0  0  0  0  0  0  0  0  0
    8.4872  -15.6414   22.3679 C   0  0  2  0  0  0  0  0  0  0  0  0
    7.5625  -14.8674   23.2113 N   0  0  0  0  0  0  0  0  0  0  0  0
    9.8560  -15.3347   22.7960 C   0  0  0  0  0  0  0  0  0  0  0  0
   10.0798  -14.2939   23.5052 O   0  0  0  0  0  0  0  0  0  0  0  0
   11.0070  -16.0946   22.4999 N   0  0  0  0  0  0  0  0  0  0  0  0
   11.9706  -16.5300   23.4923 C   0  0  1  0  0  0  0  0  0  0  0  0
   11.2140  -17.3342   24.5233 C   0  0  0  0  0  0  0  0  0  0  0  0
   11.3941  -16.6460   26.1881 S   0  0  0  0  0  0  0  0  0  0  0  0
   13.1022  -17.2505   22.9177 C   0  0  0  0  0  0  0  0  0  0  0  0
   14.3505  -17.1518   23.5071 O   0  0  0  0  0  0  0  0  0  0  0  0
   13.0021  -17.9693   21.8973 O   0  0  0  0  0  0  0  0  0  0  0  0
  1  2  1  0
  2  3  1  0
  3  4  1  6
  5  3  1  0
  5  6  1  1
  7  8  2  0
  7  5  1  0
 10  9  1  1
 10 12  1  0
 11 10  1  0
 12 13  1  1
 13  7  1  0
 14 12  1  0
 14 16  1  0
 15 14  2  0
 17 16  1  0
 17 20  1  0
 17 18  1  1
 19 18  1  0
 20 22  2  0
 20 21  1  0
M  END
$$$$
