IVC.pdb
     RDKit          3D

 22 21  0  0  1  0  0  0  0  0999 V2000
    7.8250  -21.8547   26.7398 C   0  0  0  0  0  0  0  0  0  0  0  0
    6.6533  -20.8875   26.6451 C   0  0  0  0  0  0  0  0  0  0  0  0
    6.9606  -19.7511   25.6911 C   0  0  2  0  0  0  0  0  0  0  0  0
    8.1498  -19.0033   26.2580 C   0  0  0  0  0  0  0  0  0  0  0  0
    5.7913  -18.8061   25.6910 C   0  0  2  0  0  0  0  0  0  0  0  0
    4.6572  -19.4474   25.0931 N   0  0  0  0  0  0  0  0  0  0  0  0
    6.1014  -17.5278   24.9942 C   0  0  0  0  0  0  0  0  0  0  0  0
    5.9700  -17.4636   23.7351 O   0  0  0  0  0  0  0  0  0  0  0  0
    7.6297  -14.2649   27.2481 C   0  0  0  0  0  0  0  0  0  0  0  0
    6.7862  -14.0557   26.0364 C   0  0  1  0  0  0  0  0  0  0  0  0
    7.0765  -12.6924   25.4632 C   0  0  0  0  0  0  0  0  0  0  0  0
    6.9555  -15.1458   24.9782 C   0  0  2  0  0  0  0  0  0  0  0  0
    6.5357  -16.3786   25.6634 N   0  0  0  0  0  0  0  0  0  0  0  0
    8.3501  -15.3137   24.5567 C   0  0  0  0  0  0  0  0  0  0  0  0
    9.1764  -15.9152   25.3258 O   0  0  0  0  0  0  0  0  0  0  0  0
    8.9083  -14.8656   23.3410 N   0  0  0  0  0  0  0  0  0  0  0  0
   10.1685  -15.3395   22.8022 C   0  0  1  0  0  0  0  0  0  0  0  0
   10.3127  -14.7447   21.4210 C   0  0  0  0  0  0  0  0  0  0  0  0
   11.9130  -15.1424   20.6735 S   0  0  0  0  0  0  0  0  0  0  0  0
   11.3071  -15.0593   23.6710 C   0  0  0  0  0  0  0  0  0  0  0  0
   12.3649  -15.9499   23.7261 O   0  0  0  0  0  0  0  0  0  0  0  0
   11.3799  -14.0333   24.3853 O   0  0  0  0  0  0  0  0  0  0  0  0
  1  2  1  0
  2  3  1  0
  3  4  1  1
  5  3  1  0
  5  6  1  6
  7  8  2  0
  7  5  1  0
 10  9  1  1
 10 12  1  0
 11 10  1  0
 12 13  1  1
 13  7  1  0
 14 12  1  0
 14 16  1  0
 15 14  2  0
 17 16  1  0
 17 20  1  0
 17 18  1  6
 19 18  1  0
 20 22  2  0
 20 21  1  0
M  END
$$$$
