IVC.pdb
     RDKit          3D

 22 21  0  0  1  0  0  0  0  0999 V2000
    6.5225  -21.6173   25.7054 C   0  0  0  0  0  0  0  0  0  0  0  0
    6.2673  -20.8095   24.4407 C   0  0  0  0  0  0  0  0  0  0  0  0
    7.2537  -19.6661   24.3163 C   0  0  2  0  0  0  0  0  0  0  0  0
    7.0231  -18.7485   25.4993 C   0  0  0  0  0  0  0  0  0  0  0  0
    6.9220  -18.8902   23.0719 C   0  0  2  0  0  0  0  0  0  0  0  0
    6.8072  -19.7907   21.9624 N   0  0  0  0  0  0  0  0  0  0  0  0
    7.9256  -17.8286   22.7868 C   0  0  0  0  0  0  0  0  0  0  0  0
    9.0529  -18.1572   22.3091 O   0  0  0  0  0  0  0  0  0  0  0  0
    6.9927  -14.5612   21.0481 C   0  0  0  0  0  0  0  0  0  0  0  0
    7.8190  -14.2381   22.2465 C   0  0  1  0  0  0  0  0  0  0  0  0
    6.9198  -13.7238   23.3412 C   0  0  0  0  0  0  0  0  0  0  0  0
    8.6690  -15.4102   22.7369 C   0  0  2  0  0  0  0  0  0  0  0  0
    7.6883  -16.4699   23.0208 N   0  0  0  0  0  0  0  0  0  0  0  0
    9.3843  -15.1090   23.9812 C   0  0  0  0  0  0  0  0  0  0  0  0
   10.1450  -14.0825   24.0422 O   0  0  0  0  0  0  0  0  0  0  0  0
    9.3240  -15.8593   25.1744 N   0  0  0  0  0  0  0  0  0  0  0  0
    9.8449  -15.4027   26.4484 C   0  0  1  0  0  0  0  0  0  0  0  0
    9.0997  -14.1380   26.8055 C   0  0  0  0  0  0  0  0  0  0  0  0
    9.8188  -13.3090   28.2454 S   0  0  0  0  0  0  0  0  0  0  0  0
    9.7842  -16.4205   27.4925 C   0  0  0  0  0  0  0  0  0  0  0  0
    9.0444  -17.5719   27.2875 O   0  0  0  0  0  0  0  0  0  0  0  0
   10.3788  -16.3053   28.5886 O   0  0  0  0  0  0  0  0  0  0  0  0
  1  2  1  0
  2  3  1  0
  3  4  1  1
  5  3  1  0
  5  6  1  6
  7  8  2  0
  7  5  1  0
 10  9  1  6
 10 12  1  0
 11 10  1  0
 12 13  1  1
 13  7  1  0
 14 12  1  0
 14 16  1  0
 15 14  2  0
 17 16  1  0
 17 20  1  0
 17 18  1  1
 19 18  1  0
 20 22  2  0
 20 21  1  0
M  END
$$$$
