YKP.pdb
     RDKit          3D

 29 30  0  0  1  0  0  0  0  0999 V2000
    6.0819  -10.6030   28.0160 O   0  0  0  0  0  0  0  0  0  0  0  0
    6.5258  -11.8298   27.5598 C   0  0  0  0  0  0  0  0  0  0  0  0
    5.6785  -12.5957   26.7886 C   0  0  0  0  0  0  0  0  0  0  0  0
    6.0667  -13.8281   26.3053 C   0  0  0  0  0  0  0  0  0  0  0  0
    7.3243  -14.3402   26.5787 C   0  0  0  0  0  0  0  0  0  0  0  0
    7.7611  -15.6664   26.0669 C   0  0  0  0  0  0  0  0  0  0  0  0
    6.7642  -16.1133   25.0387 C   0  0  2  0  0  0  0  0  0  0  0  0
    6.2564  -17.4117   25.4277 N   0  0  0  0  0  0  0  0  0  0  0  0
    7.3159  -16.2163   23.6842 C   0  0  0  0  0  0  0  0  0  0  0  0
    7.9456  -17.2851   23.3914 O   0  0  0  0  0  0  0  0  0  0  0  0
    8.1531  -13.5444   27.3577 C   0  0  0  0  0  0  0  0  0  0  0  0
    7.7693  -12.3177   27.8398 C   0  0  0  0  0  0  0  0  0  0  0  0
    7.2030  -15.2227   22.6803 N   0  0  0  0  0  0  0  0  0  0  0  0
    7.8913  -15.3937   21.4017 C   0  0  1  0  0  0  0  0  0  0  0  0
    7.8194  -14.0209   20.7233 C   0  0  0  0  0  0  0  0  0  0  0  0
    8.6839  -14.0845   19.4820 C   0  0  0  0  0  0  0  0  0  0  0  0
    7.8236  -13.8401   18.2593 C   0  0  0  0  0  0  0  0  0  0  0  0
    8.6496  -13.9540   17.0193 C   0  0  0  0  0  0  0  0  0  0  0  0
    7.8483  -13.6139   15.8641 N   0  0  0  0  0  0  0  0  0  0  0  0
    9.3306  -15.6857   21.6136 C   0  0  0  0  0  0  0  0  0  0  0  0
    9.9165  -15.1037   22.5887 O   0  0  0  0  0  0  0  0  0  0  0  0
   10.0655  -16.5678   20.7929 N   0  0  0  0  0  0  0  0  0  0  0  0
    9.5835  -17.1753   19.5702 C   0  0  0  0  0  0  0  0  0  0  0  0
   10.1219  -18.5888   19.6805 C   0  0  0  0  0  0  0  0  0  0  0  0
   11.3413  -18.4963   20.5526 C   0  0  0  0  0  0  0  0  0  0  0  0
   11.4215  -17.0581   20.9660 C   0  0  1  0  0  0  0  0  0  0  0  0
   12.2996  -16.3385   20.0142 C   0  0  0  0  0  0  0  0  0  0  0  0
   11.7844  -15.8690   18.7953 O   0  0  0  0  0  0  0  0  0  0  0  0
   13.4952  -16.1340   20.2635 O   0  0  0  0  0  0  0  0  0  0  0  0
  2  1  1  0
  3  2  2  0
  4  3  1  0
  5 11  1  0
  5  4  2  0
  6  7  1  0
  6  5  1  0
  7  8  1  1
  9  7  1  0
 10  9  2  0
 11 12  2  0
 12  2  1  0
 13  9  1  0
 14 13  1  0
 14 15  1  6
 15 16  1  0
 16 17  1  0
 18 17  1  0
 19 18  1  0
 20 21  2  0
 20 14  1  0
 22 20  1  0
 23 22  1  0
 24 25  1  0
 24 23  1  0
 25 26  1  0
 26 27  1  6
 26 22  1  0
 27 28  1  0
 29 27  2  0
M  END
$$$$
