YKP.pdb
     RDKit          3D

 29 30  0  0  1  0  0  0  0  0999 V2000
    6.6736  -10.2221   27.2043 O   0  0  0  0  0  0  0  0  0  0  0  0
    6.8343  -11.5937   27.1483 C   0  0  0  0  0  0  0  0  0  0  0  0
    5.7115  -12.3928   27.1507 C   0  0  0  0  0  0  0  0  0  0  0  0
    5.8101  -13.7677   27.0964 C   0  0  0  0  0  0  0  0  0  0  0  0
    7.0437  -14.3949   27.0374 C   0  0  0  0  0  0  0  0  0  0  0  0
    7.1707  -15.8753   26.9783 C   0  0  0  0  0  0  0  0  0  0  0  0
    6.9387  -16.3001   25.5583 C   0  0  2  0  0  0  0  0  0  0  0  0
    7.0581  -17.7409   25.4863 N   0  0  0  0  0  0  0  0  0  0  0  0
    7.8782  -15.7071   24.6015 C   0  0  0  0  0  0  0  0  0  0  0  0
    8.1199  -14.4611   24.7184 O   0  0  0  0  0  0  0  0  0  0  0  0
    8.1543  -13.5619   27.0366 C   0  0  0  0  0  0  0  0  0  0  0  0
    8.0589  -12.1936   27.0906 C   0  0  0  0  0  0  0  0  0  0  0  0
    8.5351  -16.4105   23.5615 N   0  0  0  0  0  0  0  0  0  0  0  0
    9.2339  -15.6744   22.5089 C   0  0  1  0  0  0  0  0  0  0  0  0
   10.5376  -16.4475   22.2799 C   0  0  0  0  0  0  0  0  0  0  0  0
   11.3934  -15.6222   21.3424 C   0  0  0  0  0  0  0  0  0  0  0  0
   12.6344  -16.4089   20.9735 C   0  0  0  0  0  0  0  0  0  0  0  0
   13.4856  -15.6153   20.0363 C   0  0  0  0  0  0  0  0  0  0  0  0
   14.6970  -16.3466   19.7365 N   0  0  0  0  0  0  0  0  0  0  0  0
    8.4774  -15.7339   21.2339 C   0  0  0  0  0  0  0  0  0  0  0  0
    7.6539  -16.6984   21.0774 O   0  0  0  0  0  0  0  0  0  0  0  0
    8.6297  -14.7811   20.2039 N   0  0  0  0  0  0  0  0  0  0  0  0
    9.6153  -13.7208   20.1798 C   0  0  0  0  0  0  0  0  0  0  0  0
    8.8161  -12.5524   19.6357 C   0  0  0  0  0  0  0  0  0  0  0  0
    7.7113  -13.1568   18.8173 C   0  0  0  0  0  0  0  0  0  0  0  0
    7.8707  -14.6386   18.9740 C   0  0  1  0  0  0  0  0  0  0  0  0
    8.6991  -15.1481   17.8564 C   0  0  0  0  0  0  0  0  0  0  0  0
   10.0541  -15.4524   18.0641 O   0  0  0  0  0  0  0  0  0  0  0  0
    8.2266  -15.3173   16.7245 O   0  0  0  0  0  0  0  0  0  0  0  0
  2  1  1  0
  3  2  2  0
  4  3  1  0
  5 11  1  0
  5  4  2  0
  6  7  1  0
  6  5  1  0
  7  8  1  1
  9  7  1  0
 10  9  2  0
 11 12  2  0
 12  2  1  0
 13  9  1  0
 14 13  1  0
 14 15  1  6
 15 16  1  0
 16 17  1  0
 18 17  1  0
 19 18  1  0
 20 21  2  0
 20 14  1  0
 22 20  1  0
 23 22  1  0
 24 25  1  0
 24 23  1  0
 25 26  1  0
 26 27  1  6
 26 22  1  0
 27 28  1  0
 29 27  2  0
M  END
$$$$
