YKP.pdb
     RDKit          3D

 29 30  0  0  1  0  0  0  0  0999 V2000
    1.8491  -28.4230   29.3211 O   0  0  0  0  0  0  0  0  0  0  0  0
    2.2998  -27.4340   28.4674 C   0  0  0  0  0  0  0  0  0  0  0  0
    3.5676  -27.5430   27.9381 C   0  0  0  0  0  0  0  0  0  0  0  0
    4.0710  -26.5868   27.0806 C   0  0  0  0  0  0  0  0  0  0  0  0
    3.3185  -25.4810   26.7207 C   0  0  0  0  0  0  0  0  0  0  0  0
    3.8433  -24.4397   25.7979 C   0  0  0  0  0  0  0  0  0  0  0  0
    3.0164  -24.4754   24.5467 C   0  0  2  0  0  0  0  0  0  0  0  0
    3.3468  -25.6792   23.8139 N   0  0  0  0  0  0  0  0  0  0  0  0
    3.2253  -23.3224   23.6654 C   0  0  0  0  0  0  0  0  0  0  0  0
    4.1818  -23.3963   22.8262 O   0  0  0  0  0  0  0  0  0  0  0  0
    2.0464  -25.4010   27.2708 C   0  0  0  0  0  0  0  0  0  0  0  0
    1.5431  -26.3511   28.1242 C   0  0  0  0  0  0  0  0  0  0  0  0
    2.4485  -22.1374   23.6756 N   0  0  0  0  0  0  0  0  0  0  0  0
    2.7856  -21.0345   22.7767 C   0  0  1  0  0  0  0  0  0  0  0  0
    1.6610  -20.0096   22.9638 C   0  0  0  0  0  0  0  0  0  0  0  0
    0.4067  -20.5988   22.3539 C   0  0  0  0  0  0  0  0  0  0  0  0
   -0.7599  -19.6666   22.6089 C   0  0  0  0  0  0  0  0  0  0  0  0
   -2.0365  -20.3120   22.1771 C   0  0  0  0  0  0  0  0  0  0  0  0
   -3.1285  -19.3724   22.3069 N   0  0  0  0  0  0  0  0  0  0  0  0
    4.0400  -20.3692   23.2072 C   0  0  0  0  0  0  0  0  0  0  0  0
    4.3606  -20.4497   24.4415 O   0  0  0  0  0  0  0  0  0  0  0  0
    4.8796  -19.6624   22.3198 N   0  0  0  0  0  0  0  0  0  0  0  0
    4.5848  -19.3793   20.9308 C   0  0  0  0  0  0  0  0  0  0  0  0
    5.9264  -19.6145   20.2639 C   0  0  0  0  0  0  0  0  0  0  0  0
    6.9605  -19.3703   21.3255 C   0  0  0  0  0  0  0  0  0  0  0  0
    6.1830  -19.0736   22.5717 C   0  0  1  0  0  0  0  0  0  0  0  0
    6.0140  -17.6064   22.6882 C   0  0  0  0  0  0  0  0  0  0  0  0
    4.8230  -16.9970   22.2618 O   0  0  0  0  0  0  0  0  0  0  0  0
    6.9056  -16.8869   23.1580 O   0  0  0  0  0  0  0  0  0  0  0  0
  2  1  1  0
  3  2  2  0
  4  3  1  0
  5 11  1  0
  5  4  2  0
  6  7  1  0
  6  5  1  0
  7  8  1  6
  9  7  1  0
 10  9  2  0
 11 12  2  0
 12  2  1  0
 13  9  1  0
 14 13  1  0
 14 15  1  1
 15 16  1  0
 16 17  1  0
 18 17  1  0
 19 18  1  0
 20 21  2  0
 20 14  1  0
 22 20  1  0
 23 22  1  0
 24 25  1  0
 24 23  1  0
 25 26  1  0
 26 27  1  6
 26 22  1  0
 27 28  1  0
 29 27  2  0
M  END
$$$$
