YKP.pdb
     RDKit          3D

 29 30  0  0  1  0  0  0  0  0999 V2000
   10.5557  -15.9579   31.6211 O   0  0  0  0  0  0  0  0  0  0  0  0
   10.4019  -15.7286   30.2669 C   0  0  0  0  0  0  0  0  0  0  0  0
   10.8522  -14.5366   29.7417 C   0  0  0  0  0  0  0  0  0  0  0  0
   10.7258  -14.2523   28.3978 C   0  0  0  0  0  0  0  0  0  0  0  0
   10.1406  -15.1566   27.5269 C   0  0  0  0  0  0  0  0  0  0  0  0
    9.9953  -14.8685   26.0753 C   0  0  0  0  0  0  0  0  0  0  0  0
   10.7683  -15.9095   25.3206 C   0  0  2  0  0  0  0  0  0  0  0  0
   12.1446  -15.8710   25.7673 N   0  0  0  0  0  0  0  0  0  0  0  0
   10.7460  -15.7253   23.8662 C   0  0  0  0  0  0  0  0  0  0  0  0
   11.3205  -14.6867   23.4016 O   0  0  0  0  0  0  0  0  0  0  0  0
    9.6978  -16.3470   28.0873 C   0  0  0  0  0  0  0  0  0  0  0  0
    9.8224  -16.6324   29.4242 C   0  0  0  0  0  0  0  0  0  0  0  0
   10.1371  -16.6100   22.9418 N   0  0  0  0  0  0  0  0  0  0  0  0
   10.0587  -16.2488   21.5271 C   0  0  1  0  0  0  0  0  0  0  0  0
   10.5669  -17.4823   20.7719 C   0  0  0  0  0  0  0  0  0  0  0  0
   10.4774  -17.1746   19.2921 C   0  0  0  0  0  0  0  0  0  0  0  0
   11.0525  -18.3335   18.5039 C   0  0  0  0  0  0  0  0  0  0  0  0
   11.0867  -17.9974   17.0483 C   0  0  0  0  0  0  0  0  0  0  0  0
   11.7809  -19.0377   16.3217 N   0  0  0  0  0  0  0  0  0  0  0  0
    8.6482  -16.0502   21.1118 C   0  0  0  0  0  0  0  0  0  0  0  0
    7.7484  -16.7119   21.7326 O   0  0  0  0  0  0  0  0  0  0  0  0
    8.2681  -15.1721   20.0743 N   0  0  0  0  0  0  0  0  0  0  0  0
    9.1765  -14.4011   19.2517 C   0  0  0  0  0  0  0  0  0  0  0  0
    8.4607  -13.0683   19.1461 C   0  0  0  0  0  0  0  0  0  0  0  0
    7.0010  -13.3710   19.3294 C   0  0  0  0  0  0  0  0  0  0  0  0
    6.9353  -14.8434   19.6003 C   0  0  1  0  0  0  0  0  0  0  0  0
    6.7110  -15.5527   18.3191 C   0  0  0  0  0  0  0  0  0  0  0  0
    5.4192  -15.6349   17.7747 O   0  0  0  0  0  0  0  0  0  0  0  0
    7.6429  -16.0850   17.7015 O   0  0  0  0  0  0  0  0  0  0  0  0
  2  1  1  0
  3  2  2  0
  4  3  1  0
  5 11  1  0
  5  4  2  0
  6  7  1  0
  6  5  1  0
  7  8  1  1
  9  7  1  0
 10  9  2  0
 11 12  2  0
 12  2  1  0
 13  9  1  0
 14 13  1  0
 14 15  1  6
 15 16  1  0
 16 17  1  0
 18 17  1  0
 19 18  1  0
 20 21  2  0
 20 14  1  0
 22 20  1  0
 23 22  1  0
 24 25  1  0
 24 23  1  0
 25 26  1  0
 26 27  1  6
 26 22  1  0
 27 28  1  0
 29 27  2  0
M  END
$$$$
