YKP.pdb
     RDKit          3D

 29 30  0  0  1  0  0  0  0  0999 V2000
    9.6268  -13.8965   15.2304 O   0  0  0  0  0  0  0  0  0  0  0  0
    9.1858  -13.9469   16.5393 C   0  0  0  0  0  0  0  0  0  0  0  0
    8.1832  -13.0877   16.9340 C   0  0  0  0  0  0  0  0  0  0  0  0
    7.7028  -13.0925   18.2271 C   0  0  0  0  0  0  0  0  0  0  0  0
    8.2124  -13.9630   19.1765 C   0  0  0  0  0  0  0  0  0  0  0  0
    7.7079  -13.9835   20.5752 C   0  0  0  0  0  0  0  0  0  0  0  0
    7.1429  -15.3478   20.8401 C   0  0  2  0  0  0  0  0  0  0  0  0
    5.9060  -15.4825   20.1004 N   0  0  0  0  0  0  0  0  0  0  0  0
    6.8690  -15.6109   22.2562 C   0  0  0  0  0  0  0  0  0  0  0  0
    5.8009  -15.1156   22.7448 O   0  0  0  0  0  0  0  0  0  0  0  0
    9.2208  -14.8150   18.7471 C   0  0  0  0  0  0  0  0  0  0  0  0
    9.7005  -14.8122   17.4609 C   0  0  0  0  0  0  0  0  0  0  0  0
    7.6973  -16.3703   23.1193 N   0  0  0  0  0  0  0  0  0  0  0  0
    7.4241  -16.4003   24.5554 C   0  0  1  0  0  0  0  0  0  0  0  0
    7.5496  -17.8751   24.9545 C   0  0  0  0  0  0  0  0  0  0  0  0
    7.4664  -17.9430   26.4648 C   0  0  0  0  0  0  0  0  0  0  0  0
    7.7634  -19.3571   26.9198 C   0  0  0  0  0  0  0  0  0  0  0  0
    7.7080  -19.4389   28.4108 C   0  0  0  0  0  0  0  0  0  0  0  0
    7.9890  -20.7920   28.8377 N   0  0  0  0  0  0  0  0  0  0  0  0
    8.4739  -15.6683   25.3063 C   0  0  0  0  0  0  0  0  0  0  0  0
    9.6880  -15.8367   24.9450 O   0  0  0  0  0  0  0  0  0  0  0  0
    8.1875  -14.8065   26.3867 N   0  0  0  0  0  0  0  0  0  0  0  0
    6.8658  -14.5152   26.9009 C   0  0  0  0  0  0  0  0  0  0  0  0
    6.9478  -13.0250   27.1705 C   0  0  0  0  0  0  0  0  0  0  0  0
    8.4007  -12.7315   27.4130 C   0  0  0  0  0  0  0  0  0  0  0  0
    9.1058  -14.0379   27.2082 C   0  0  1  0  0  0  0  0  0  0  0  0
    9.2360  -14.7178   28.5180 C   0  0  0  0  0  0  0  0  0  0  0  0
   10.2463  -14.3345   29.4148 O   0  0  0  0  0  0  0  0  0  0  0  0
    8.4688  -15.6299   28.8536 O   0  0  0  0  0  0  0  0  0  0  0  0
  2  1  1  0
  3  2  2  0
  4  3  1  0
  5 11  1  0
  5  4  2  0
  6  7  1  0
  6  5  1  0
  7  8  1  6
  9  7  1  0
 10  9  2  0
 11 12  2  0
 12  2  1  0
 13  9  1  0
 14 13  1  0
 14 15  1  1
 15 16  1  0
 16 17  1  0
 18 17  1  0
 19 18  1  0
 20 21  2  0
 20 14  1  0
 22 20  1  0
 23 22  1  0
 24 25  1  0
 24 23  1  0
 25 26  1  0
 26 27  1  1
 26 22  1  0
 27 28  1  0
 29 27  2  0
M  END
$$$$
