YKP.pdb
     RDKit          3D

 29 30  0  0  1  0  0  0  0  0999 V2000
   11.3666  -22.0143   28.3501 O   0  0  0  0  0  0  0  0  0  0  0  0
   11.2377  -20.7751   27.7517 C   0  0  0  0  0  0  0  0  0  0  0  0
   12.2872  -19.8860   27.8371 C   0  0  0  0  0  0  0  0  0  0  0  0
   12.2159  -18.6353   27.2596 C   0  0  0  0  0  0  0  0  0  0  0  0
   11.0844  -18.2280   26.5720 C   0  0  0  0  0  0  0  0  0  0  0  0
   10.9883  -16.8841   25.9427 C   0  0  0  0  0  0  0  0  0  0  0  0
   10.9157  -17.0767   24.4566 C   0  0  2  0  0  0  0  0  0  0  0  0
   12.2309  -17.4463   23.9783 N   0  0  0  0  0  0  0  0  0  0  0  0
   10.4728  -15.8853   23.7259 C   0  0  0  0  0  0  0  0  0  0  0  0
   11.3429  -14.9804   23.5050 O   0  0  0  0  0  0  0  0  0  0  0  0
   10.0457  -19.1466   26.5043 C   0  0  0  0  0  0  0  0  0  0  0  0
   10.1142  -20.3917   27.0781 C   0  0  0  0  0  0  0  0  0  0  0  0
    9.1572  -15.6641   23.2485 N   0  0  0  0  0  0  0  0  0  0  0  0
    8.5272  -14.3558   23.4207 C   0  0  1  0  0  0  0  0  0  0  0  0
    7.5514  -14.2254   22.2457 C   0  0  0  0  0  0  0  0  0  0  0  0
    8.3584  -13.8169   21.0315 C   0  0  0  0  0  0  0  0  0  0  0  0
    7.4217  -13.5746   19.8658 C   0  0  0  0  0  0  0  0  0  0  0  0
    8.2025  -13.1880   18.6517 C   0  0  0  0  0  0  0  0  0  0  0  0
    7.3033  -12.9718   17.5396 N   0  0  0  0  0  0  0  0  0  0  0  0
    7.7071  -14.3251   24.6568 C   0  0  0  0  0  0  0  0  0  0  0  0
    7.4298  -15.4420   25.2125 O   0  0  0  0  0  0  0  0  0  0  0  0
    7.2294  -13.1289   25.2336 N   0  0  0  0  0  0  0  0  0  0  0  0
    7.2288  -11.8300   24.5939 C   0  0  0  0  0  0  0  0  0  0  0  0
    7.6448  -10.9136   25.7284 C   0  0  0  0  0  0  0  0  0  0  0  0
    7.2241  -11.6081   26.9919 C   0  0  0  0  0  0  0  0  0  0  0  0
    6.6486  -12.9186   26.5480 C   0  0  1  0  0  0  0  0  0  0  0  0
    5.1839  -12.7645   26.3882 C   0  0  0  0  0  0  0  0  0  0  0  0
    4.3435  -12.8012   27.5126 O   0  0  0  0  0  0  0  0  0  0  0  0
    4.6673  -12.6015   25.2747 O   0  0  0  0  0  0  0  0  0  0  0  0
  2  1  1  0
  3  2  2  0
  4  3  1  0
  5 11  1  0
  5  4  2  0
  6  7  1  0
  6  5  1  0
  7  8  1  6
  9  7  1  0
 10  9  2  0
 11 12  2  0
 12  2  1  0
 13  9  1  0
 14 13  1  0
 14 15  1  6
 15 16  1  0
 16 17  1  0
 18 17  1  0
 19 18  1  0
 20 21  2  0
 20 14  1  0
 22 20  1  0
 23 22  1  0
 24 25  1  0
 24 23  1  0
 25 26  1  0
 26 27  1  6
 26 22  1  0
 27 28  1  0
 29 27  2  0
M  END
$$$$
