YKP.pdb
     RDKit          3D

 29 30  0  0  1  0  0  0  0  0999 V2000
    5.8513  -10.4293   27.7806 O   0  0  0  0  0  0  0  0  0  0  0  0
    6.3688  -11.6600   27.4233 C   0  0  0  0  0  0  0  0  0  0  0  0
    5.6383  -12.4650   26.5761 C   0  0  0  0  0  0  0  0  0  0  0  0
    6.1040  -13.7033   26.1851 C   0  0  0  0  0  0  0  0  0  0  0  0
    7.3247  -14.1823   26.6312 C   0  0  0  0  0  0  0  0  0  0  0  0
    7.8438  -15.5141   26.2212 C   0  0  0  0  0  0  0  0  0  0  0  0
    6.8409  -16.1319   25.2920 C   0  0  2  0  0  0  0  0  0  0  0  0
    6.4087  -17.3923   25.8576 N   0  0  0  0  0  0  0  0  0  0  0  0
    7.3580  -16.3805   23.9428 C   0  0  0  0  0  0  0  0  0  0  0  0
    7.8773  -17.5229   23.7192 O   0  0  0  0  0  0  0  0  0  0  0  0
    8.0354  -13.3476   27.4829 C   0  0  0  0  0  0  0  0  0  0  0  0
    7.5743  -12.1150   27.8735 C   0  0  0  0  0  0  0  0  0  0  0  0
    7.3245  -15.4518   22.8731 N   0  0  0  0  0  0  0  0  0  0  0  0
    7.9576  -15.7829   21.5974 C   0  0  1  0  0  0  0  0  0  0  0  0
    7.7780  -14.5338   20.7270 C   0  0  0  0  0  0  0  0  0  0  0  0
    8.3927  -14.8324   19.3759 C   0  0  0  0  0  0  0  0  0  0  0  0
    8.0947  -13.6901   18.4265 C   0  0  0  0  0  0  0  0  0  0  0  0
    8.6308  -13.9999   17.0666 C   0  0  0  0  0  0  0  0  0  0  0  0
    8.2360  -12.9644   16.1370 N   0  0  0  0  0  0  0  0  0  0  0  0
    9.4192  -15.9723   21.7685 C   0  0  0  0  0  0  0  0  0  0  0  0
   10.0133  -15.2484   22.6379 O   0  0  0  0  0  0  0  0  0  0  0  0
   10.1666  -16.9069   21.0202 N   0  0  0  0  0  0  0  0  0  0  0  0
    9.6734  -17.6633   19.8885 C   0  0  0  0  0  0  0  0  0  0  0  0
   10.2791  -19.0326   20.1295 C   0  0  0  0  0  0  0  0  0  0  0  0
   11.5206  -18.7949   20.9406 C   0  0  0  0  0  0  0  0  0  0  0  0
   11.5485  -17.3183   21.1942 C   0  0  1  0  0  0  0  0  0  0  0  0
   12.3614  -16.6702   20.1388 C   0  0  0  0  0  0  0  0  0  0  0  0
   11.7638  -16.2725   18.9320 O   0  0  0  0  0  0  0  0  0  0  0  0
   13.5731  -16.4642   20.2893 O   0  0  0  0  0  0  0  0  0  0  0  0
  2  1  1  0
  3  2  2  0
  4  3  1  0
  5 11  1  0
  5  4  2  0
  6  7  1  0
  6  5  1  0
  7  8  1  1
  9  7  1  0
 10  9  2  0
 11 12  2  0
 12  2  1  0
 13  9  1  0
 14 13  1  0
 14 15  1  6
 15 16  1  0
 16 17  1  0
 18 17  1  0
 19 18  1  0
 20 21  2  0
 20 14  1  0
 22 20  1  0
 23 22  1  0
 24 25  1  0
 24 23  1  0
 25 26  1  0
 26 27  1  6
 26 22  1  0
 27 28  1  0
 29 27  2  0
M  END
$$$$
