YEW.pdb
     RDKit          3D

 36 38  0  0  1  0  0  0  0  0999 V2000
   17.5063  -15.5833  -15.1074 O   0  0  0  0  0  0  0  0  0  0  0  0
   18.2538  -16.5251  -14.3858 C   0  0  0  0  0  0  0  0  0  0  0  0
   17.7843  -17.8227  -14.2556 C   0  0  0  0  0  0  0  0  0  0  0  0
   18.5007  -18.7939  -13.5430 C   0  0  0  0  0  0  0  0  0  0  0  0
   19.6890  -18.4125  -12.9765 C   0  0  0  0  0  0  0  0  0  0  0  0
   20.5130  -19.3674  -12.2163 C   0  0  0  0  0  0  0  0  0  0  0  0
   20.9535  -20.5099  -13.1244 C   0  0  2  0  0  0  0  0  0  0  0  0
   19.8215  -21.3214  -13.4276 N   0  0  0  0  0  0  0  0  0  0  0  0
   22.1145  -21.1956  -12.5701 C   0  0  0  0  0  0  0  0  0  0  0  0
   21.9003  -22.0989  -11.7077 O   0  0  0  0  0  0  0  0  0  0  0  0
   20.1623  -17.1149  -13.1043 C   0  0  0  0  0  0  0  0  0  0  0  0
   19.4463  -16.1591  -13.8113 C   0  0  0  0  0  0  0  0  0  0  0  0
   23.4755  -20.9635  -12.8916 N   0  0  0  0  0  0  0  0  0  0  0  0
   24.5412  -21.7465  -12.3237 C   0  0  1  0  0  0  0  0  0  0  0  0
   25.5038  -22.2757  -13.3244 C   0  0  0  0  0  0  0  0  0  0  0  0
   25.5985  -21.4600  -14.5913 C   0  0  0  0  0  0  0  0  0  0  0  0
   26.9881  -20.9715  -14.7062 C   0  0  0  0  0  0  0  0  0  0  0  0
   27.8601  -21.4135  -13.9319 O   0  0  0  0  0  0  0  0  0  0  0  0
   25.3208  -20.8690  -11.3814 C   0  0  0  0  0  0  0  0  0  0  0  0
   25.4529  -19.6200  -11.6235 O   0  0  0  0  0  0  0  0  0  0  0  0
   27.3221  -20.0402  -15.6573 O   0  0  0  0  0  0  0  0  0  0  0  0
   25.9382  -21.3289  -10.2081 N   0  0  0  0  0  0  0  0  0  0  0  0
   26.8309  -20.4875   -9.3796 C   0  0  1  0  0  0  0  0  0  0  0  0
   26.4939  -20.6452   -7.9477 C   0  0  0  0  0  0  0  0  0  0  0  0
   27.3172  -19.8128   -7.0669 C   0  0  0  0  0  0  0  0  0  0  0  0
   27.5287  -18.4376   -7.1891 C   0  0  0  0  0  0  0  0  0  0  0  0
   28.3517  -17.9927   -6.2358 N   0  0  0  0  0  0  0  0  0  0  0  0
   28.6872  -19.0474   -5.4856 C   0  0  0  0  0  0  0  0  0  0  0  0
   29.4953  -19.1290   -4.3662 C   0  0  0  0  0  0  0  0  0  0  0  0
   29.7236  -20.3007   -3.6897 C   0  0  0  0  0  0  0  0  0  0  0  0
   29.0928  -21.4281   -4.1913 C   0  0  0  0  0  0  0  0  0  0  0  0
   28.2867  -21.3759   -5.3006 C   0  0  0  0  0  0  0  0  0  0  0  0
   28.0705  -20.1902   -5.9645 C   0  0  0  0  0  0  0  0  0  0  0  0
   28.2229  -20.7271   -9.7372 C   0  0  0  0  0  0  0  0  0  0  0  0
   29.1909  -19.6987   -9.7076 O   0  0  0  0  0  0  0  0  0  0  0  0
   28.6944  -21.8433  -10.0980 O   0  0  0  0  0  0  0  0  0  0  0  0
  2  1  1  0
  3  2  2  0
  4  3  1  0
  5  4  2  0
  6  5  1  0
  7  8  1  1
  7  6  1  0
  9  7  1  0
 10  9  2  0
 11  5  1  0
 11 12  2  0
 12  2  1  0
 13  9  1  0
 14 13  1  0
 14 15  1  6
 15 16  1  0
 16 17  1  0
 17 18  2  0
 17 21  1  0
 19 20  2  0
 19 14  1  0
 22 19  1  0
 23 22  1  0
 23 24  1  1
 24 25  1  0
 25 26  2  0
 25 33  1  0
 26 27  1  0
 27 28  1  0
 28 29  2  0
 29 30  1  0
 31 30  2  0
 32 31  1  0
 33 32  2  0
 33 28  1  0
 34 35  1  0
 34 23  1  0
 36 34  2  0
M  END
$$$$
