YEW.pdb
     RDKit          3D

 36 38  0  0  1  0  0  0  0  0999 V2000
   16.0030  -17.5023  -10.4130 O   0  0  0  0  0  0  0  0  0  0  0  0
   17.2422  -18.1021  -10.6798 C   0  0  0  0  0  0  0  0  0  0  0  0
   17.5299  -19.3513  -10.1525 C   0  0  0  0  0  0  0  0  0  0  0  0
   18.7560  -19.9852  -10.3952 C   0  0  0  0  0  0  0  0  0  0  0  0
   19.6654  -19.3221  -11.1773 C   0  0  0  0  0  0  0  0  0  0  0  0
   20.9765  -19.9145  -11.4920 C   0  0  0  0  0  0  0  0  0  0  0  0
   20.9192  -20.6107  -12.8470 C   0  0  2  0  0  0  0  0  0  0  0  0
   19.9475  -21.6520  -12.7902 N   0  0  0  0  0  0  0  0  0  0  0  0
   22.2543  -20.9916  -13.2918 C   0  0  0  0  0  0  0  0  0  0  0  0
   22.7300  -22.0767  -12.8425 O   0  0  0  0  0  0  0  0  0  0  0  0
   19.3815  -18.0719  -11.7068 C   0  0  0  0  0  0  0  0  0  0  0  0
   18.1650  -17.4509  -11.4611 C   0  0  0  0  0  0  0  0  0  0  0  0
   23.0925  -20.2758  -14.1831 N   0  0  0  0  0  0  0  0  0  0  0  0
   24.3278  -20.8228  -14.6793 C   0  0  1  0  0  0  0  0  0  0  0  0
   24.6296  -20.4577  -16.0877 C   0  0  0  0  0  0  0  0  0  0  0  0
   24.2106  -21.4925  -17.1042 C   0  0  0  0  0  0  0  0  0  0  0  0
   22.7427  -21.6355  -17.0181 C   0  0  0  0  0  0  0  0  0  0  0  0
   22.0329  -20.6175  -16.8946 O   0  0  0  0  0  0  0  0  0  0  0  0
   25.4531  -20.2897  -13.8335 C   0  0  0  0  0  0  0  0  0  0  0  0
   25.5172  -19.0425  -13.5570 O   0  0  0  0  0  0  0  0  0  0  0  0
   22.1598  -22.8767  -17.0753 O   0  0  0  0  0  0  0  0  0  0  0  0
   26.4792  -21.0839  -13.2992 N   0  0  0  0  0  0  0  0  0  0  0  0
   27.7101  -20.5209  -12.6999 C   0  0  1  0  0  0  0  0  0  0  0  0
   28.1369  -21.3439  -11.5469 C   0  0  0  0  0  0  0  0  0  0  0  0
   27.4339  -21.0068  -10.3065 C   0  0  0  0  0  0  0  0  0  0  0  0
   26.0502  -20.9157  -10.1391 C   0  0  0  0  0  0  0  0  0  0  0  0
   25.7409  -20.5640   -8.8882 N   0  0  0  0  0  0  0  0  0  0  0  0
   26.8937  -20.4219   -8.2258 C   0  0  0  0  0  0  0  0  0  0  0  0
   27.1318  -20.0891   -6.9047 C   0  0  0  0  0  0  0  0  0  0  0  0
   28.3917  -20.0054   -6.3678 C   0  0  0  0  0  0  0  0  0  0  0  0
   29.4421  -20.2754   -7.2304 C   0  0  0  0  0  0  0  0  0  0  0  0
   29.2346  -20.6071   -8.5457 C   0  0  0  0  0  0  0  0  0  0  0  0
   27.9625  -20.6859   -9.0646 C   0  0  0  0  0  0  0  0  0  0  0  0
   28.7152  -20.2980  -13.7309 C   0  0  0  0  0  0  0  0  0  0  0  0
   29.6386  -19.2314  -13.6578 O   0  0  0  0  0  0  0  0  0  0  0  0
   28.8618  -21.0124  -14.7636 O   0  0  0  0  0  0  0  0  0  0  0  0
  2  1  1  0
  3  2  2  0
  4  3  1  0
  5  4  2  0
  6  5  1  0
  7  8  1  1
  7  6  1  0
  9  7  1  0
 10  9  2  0
 11  5  1  0
 11 12  2  0
 12  2  1  0
 13  9  1  0
 14 13  1  0
 14 15  1  6
 15 16  1  0
 16 17  1  0
 17 18  2  0
 17 21  1  0
 19 20  2  0
 19 14  1  0
 22 19  1  0
 23 22  1  0
 23 24  1  1
 24 25  1  0
 25 26  2  0
 25 33  1  0
 26 27  1  0
 27 28  1  0
 28 29  2  0
 29 30  1  0
 31 30  2  0
 32 31  1  0
 33 32  2  0
 33 28  1  0
 34 35  1  0
 34 23  1  0
 36 34  2  0
M  END
$$$$
