YEW.pdb
     RDKit          3D

 36 38  0  0  1  0  0  0  0  0999 V2000
   31.2064  -14.8095  -18.8549 O   0  0  0  0  0  0  0  0  0  0  0  0
   30.2569  -15.4774  -18.0681 C   0  0  0  0  0  0  0  0  0  0  0  0
   30.3866  -16.8385  -17.8404 C   0  0  0  0  0  0  0  0  0  0  0  0
   29.4600  -17.5432  -17.0601 C   0  0  0  0  0  0  0  0  0  0  0  0
   28.4152  -16.8342  -16.5269 C   0  0  0  0  0  0  0  0  0  0  0  0
   27.3979  -17.4897  -15.6878 C   0  0  0  0  0  0  0  0  0  0  0  0
   26.4697  -18.3289  -16.5586 C   0  0  2  0  0  0  0  0  0  0  0  0
   25.5469  -17.4642  -17.2165 N   0  0  0  0  0  0  0  0  0  0  0  0
   25.8964  -19.4304  -15.7948 C   0  0  0  0  0  0  0  0  0  0  0  0
   24.8355  -19.1965  -15.1427 O   0  0  0  0  0  0  0  0  0  0  0  0
   28.2817  -15.4721  -16.7525 C   0  0  0  0  0  0  0  0  0  0  0  0
   29.2036  -14.7819  -17.5269 C   0  0  0  0  0  0  0  0  0  0  0  0
   26.3981  -20.7527  -15.6981 N   0  0  0  0  0  0  0  0  0  0  0  0
   25.6453  -21.8148  -15.0845 C   0  0  1  0  0  0  0  0  0  0  0  0
   25.8720  -23.1499  -15.6963 C   0  0  0  0  0  0  0  0  0  0  0  0
   25.1653  -24.2855  -14.9959 C   0  0  0  0  0  0  0  0  0  0  0  0
   25.3626  -25.5039  -15.8078 C   0  0  0  0  0  0  0  0  0  0  0  0
   24.7985  -25.6013  -16.9158 O   0  0  0  0  0  0  0  0  0  0  0  0
   26.0600  -21.9139  -13.6409 C   0  0  0  0  0  0  0  0  0  0  0  0
   27.2719  -21.6864  -13.3008 O   0  0  0  0  0  0  0  0  0  0  0  0
   26.1612  -26.5225  -15.3515 O   0  0  0  0  0  0  0  0  0  0  0  0
   25.1875  -22.2469  -12.5934 N   0  0  0  0  0  0  0  0  0  0  0  0
   25.3348  -21.7192  -11.2183 C   0  0  1  0  0  0  0  0  0  0  0  0
   26.5456  -20.8741  -11.1248 C   0  0  0  0  0  0  0  0  0  0  0  0
   26.7709  -20.3368   -9.7805 C   0  0  0  0  0  0  0  0  0  0  0  0
   25.9776  -19.3934   -9.1236 C   0  0  0  0  0  0  0  0  0  0  0  0
   26.4770  -19.1023   -7.9195 N   0  0  0  0  0  0  0  0  0  0  0  0
   27.5846  -19.8359   -7.7680 C   0  0  0  0  0  0  0  0  0  0  0  0
   28.4610  -19.9240   -6.7018 C   0  0  0  0  0  0  0  0  0  0  0  0
   29.5540  -20.7534   -6.6959 C   0  0  0  0  0  0  0  0  0  0  0  0
   29.7461  -21.5183   -7.8354 C   0  0  0  0  0  0  0  0  0  0  0  0
   28.8929  -21.4500   -8.9080 C   0  0  0  0  0  0  0  0  0  0  0  0
   27.8019  -20.6114   -8.8935 C   0  0  0  0  0  0  0  0  0  0  0  0
   24.0903  -21.1006  -10.7808 C   0  0  0  0  0  0  0  0  0  0  0  0
   22.9317  -21.0971  -11.5891 O   0  0  0  0  0  0  0  0  0  0  0  0
   23.9224  -20.5228   -9.6689 O   0  0  0  0  0  0  0  0  0  0  0  0
  2  1  1  0
  3  2  2  0
  4  3  1  0
  5  4  2  0
  6  5  1  0
  7  8  1  1
  7  6  1  0
  9  7  1  0
 10  9  2  0
 11  5  1  0
 11 12  2  0
 12  2  1  0
 13  9  1  0
 14 13  1  0
 14 15  1  6
 15 16  1  0
 16 17  1  0
 17 18  2  0
 17 21  1  0
 19 20  2  0
 19 14  1  0
 22 19  1  0
 23 22  1  0
 23 24  1  6
 24 25  1  0
 25 26  2  0
 25 33  1  0
 26 27  1  0
 27 28  1  0
 28 29  2  0
 29 30  1  0
 31 30  2  0
 32 31  1  0
 33 32  2  0
 33 28  1  0
 34 35  1  0
 34 23  1  0
 36 34  2  0
M  END
$$$$
