YEW.pdb
     RDKit          3D

 36 38  0  0  1  0  0  0  0  0999 V2000
   28.9716  -15.6585  -19.6849 O   0  0  0  0  0  0  0  0  0  0  0  0
   27.8809  -16.2600  -19.0406 C   0  0  0  0  0  0  0  0  0  0  0  0
   26.7836  -16.6690  -19.7822 C   0  0  0  0  0  0  0  0  0  0  0  0
   25.6737  -17.2740  -19.1772 C   0  0  0  0  0  0  0  0  0  0  0  0
   25.7125  -17.4482  -17.8183 C   0  0  0  0  0  0  0  0  0  0  0  0
   24.5950  -18.0819  -17.0982 C   0  0  0  0  0  0  0  0  0  0  0  0
   24.9271  -19.5408  -16.8061 C   0  0  2  0  0  0  0  0  0  0  0  0
   24.9212  -20.2698  -18.0311 N   0  0  0  0  0  0  0  0  0  0  0  0
   24.0842  -20.0611  -15.7365 C   0  0  0  0  0  0  0  0  0  0  0  0
   23.0542  -20.7174  -16.0740 O   0  0  0  0  0  0  0  0  0  0  0  0
   26.8085  -17.0403  -17.0725 C   0  0  0  0  0  0  0  0  0  0  0  0
   27.9034  -16.4413  -17.6795 C   0  0  0  0  0  0  0  0  0  0  0  0
   24.2893  -19.9144  -14.3416 N   0  0  0  0  0  0  0  0  0  0  0  0
   23.3849  -20.4729  -13.3712 C   0  0  1  0  0  0  0  0  0  0  0  0
   23.9052  -20.4584  -11.9794 C   0  0  0  0  0  0  0  0  0  0  0  0
   22.9822  -21.0842  -10.9616 C   0  0  0  0  0  0  0  0  0  0  0  0
   23.6583  -21.0265   -9.6492 C   0  0  0  0  0  0  0  0  0  0  0  0
   23.0678  -21.4492   -8.6354 O   0  0  0  0  0  0  0  0  0  0  0  0
   22.1210  -19.6555  -13.3793 C   0  0  0  0  0  0  0  0  0  0  0  0
   22.1770  -18.3802  -13.2983 O   0  0  0  0  0  0  0  0  0  0  0  0
   24.9270  -20.5143   -9.5419 O   0  0  0  0  0  0  0  0  0  0  0  0
   20.8320  -20.2020  -13.4752 N   0  0  0  0  0  0  0  0  0  0  0  0
   19.6027  -19.3778  -13.4958 C   0  0  1  0  0  0  0  0  0  0  0  0
   19.6157  -18.4741  -14.6672 C   0  0  0  0  0  0  0  0  0  0  0  0
   19.5862  -19.1880  -15.9462 C   0  0  0  0  0  0  0  0  0  0  0  0
   19.1134  -20.4851  -16.1582 C   0  0  0  0  0  0  0  0  0  0  0  0
   19.2527  -20.8429  -17.4375 N   0  0  0  0  0  0  0  0  0  0  0  0
   19.8076  -19.8067  -18.0749 C   0  0  0  0  0  0  0  0  0  0  0  0
   20.1432  -19.6511  -19.4076 C   0  0  0  0  0  0  0  0  0  0  0  0
   20.6931  -18.5001  -19.9130 C   0  0  0  0  0  0  0  0  0  0  0  0
   20.9036  -17.4743  -19.0054 C   0  0  0  0  0  0  0  0  0  0  0  0
   20.5810  -17.6020  -17.6777 C   0  0  0  0  0  0  0  0  0  0  0  0
   20.0298  -18.7652  -17.1910 C   0  0  0  0  0  0  0  0  0  0  0  0
   18.4259  -20.2258  -13.3580 C   0  0  0  0  0  0  0  0  0  0  0  0
   18.5160  -21.6356  -13.3516 O   0  0  0  0  0  0  0  0  0  0  0  0
   17.2411  -19.8029  -13.2327 O   0  0  0  0  0  0  0  0  0  0  0  0
  2  1  1  0
  3  2  2  0
  4  3  1  0
  5  4  2  0
  6  5  1  0
  7  8  1  6
  7  6  1  0
  9  7  1  0
 10  9  2  0
 11  5  1  0
 11 12  2  0
 12  2  1  0
 13  9  1  0
 14 13  1  0
 14 15  1  1
 15 16  1  0
 16 17  1  0
 17 18  2  0
 17 21  1  0
 19 20  2  0
 19 14  1  0
 22 19  1  0
 23 22  1  0
 23 24  1  6
 24 25  1  0
 25 26  2  0
 25 33  1  0
 26 27  1  0
 27 28  1  0
 28 29  2  0
 29 30  1  0
 31 30  2  0
 32 31  1  0
 33 32  2  0
 33 28  1  0
 34 35  1  0
 34 23  1  0
 36 34  2  0
M  END
$$$$
