YEW.pdb
     RDKit          3D

 36 38  0  0  1  0  0  0  0  0999 V2000
   31.3793  -16.8271  -18.7950 O   0  0  0  0  0  0  0  0  0  0  0  0
   30.4035  -16.9963  -17.8022 C   0  0  0  0  0  0  0  0  0  0  0  0
   29.4170  -16.0368  -17.6362 C   0  0  0  0  0  0  0  0  0  0  0  0
   28.4238  -16.1679  -16.6562 C   0  0  0  0  0  0  0  0  0  0  0  0
   28.4628  -17.2853  -15.8636 C   0  0  0  0  0  0  0  0  0  0  0  0
   27.4556  -17.5112  -14.8131 C   0  0  0  0  0  0  0  0  0  0  0  0
   26.5592  -18.6828  -15.1975 C   0  0  2  0  0  0  0  0  0  0  0  0
   25.9210  -18.3884  -16.4377 N   0  0  0  0  0  0  0  0  0  0  0  0
   25.6869  -19.0542  -14.0901 C   0  0  0  0  0  0  0  0  0  0  0  0
   24.7724  -18.2375  -13.7703 O   0  0  0  0  0  0  0  0  0  0  0  0
   29.4483  -18.2477  -16.0263 C   0  0  0  0  0  0  0  0  0  0  0  0
   30.4286  -18.1099  -16.9990 C   0  0  0  0  0  0  0  0  0  0  0  0
   25.7461  -20.2426  -13.3197 N   0  0  0  0  0  0  0  0  0  0  0  0
   24.9187  -20.4458  -12.1598 C   0  0  1  0  0  0  0  0  0  0  0  0
   23.8413  -21.4510  -12.3526 C   0  0  0  0  0  0  0  0  0  0  0  0
   22.7462  -21.0184  -13.2976 C   0  0  0  0  0  0  0  0  0  0  0  0
   21.7552  -20.2530  -12.5135 C   0  0  0  0  0  0  0  0  0  0  0  0
   21.5411  -20.5630  -11.3247 O   0  0  0  0  0  0  0  0  0  0  0  0
   25.7917  -20.9431  -11.0389 C   0  0  0  0  0  0  0  0  0  0  0  0
   26.9873  -21.3310  -11.2760 O   0  0  0  0  0  0  0  0  0  0  0  0
   21.0743  -19.2068  -13.0840 O   0  0  0  0  0  0  0  0  0  0  0  0
   25.3840  -21.0162   -9.6981 N   0  0  0  0  0  0  0  0  0  0  0  0
   26.3212  -21.2637   -8.5793 C   0  0  1  0  0  0  0  0  0  0  0  0
   27.4289  -20.2838   -8.6174 C   0  0  0  0  0  0  0  0  0  0  0  0
   28.4320  -20.5070   -7.5731 C   0  0  0  0  0  0  0  0  0  0  0  0
   29.4937  -21.4129   -7.6268 C   0  0  0  0  0  0  0  0  0  0  0  0
   30.2064  -21.3834   -6.4975 N   0  0  0  0  0  0  0  0  0  0  0  0
   29.6364  -20.4747   -5.6993 C   0  0  0  0  0  0  0  0  0  0  0  0
   29.9915  -20.0475   -4.4327 C   0  0  0  0  0  0  0  0  0  0  0  0
   29.3044  -19.0766   -3.7486 C   0  0  0  0  0  0  0  0  0  0  0  0
   28.2102  -18.5295   -4.3996 C   0  0  0  0  0  0  0  0  0  0  0  0
   27.8352  -18.9352   -5.6557 C   0  0  0  0  0  0  0  0  0  0  0  0
   28.5383  -19.9106   -6.3249 C   0  0  0  0  0  0  0  0  0  0  0  0
   25.5910  -21.3519   -7.3215 C   0  0  0  0  0  0  0  0  0  0  0  0
   26.0906  -22.0744   -6.2152 O   0  0  0  0  0  0  0  0  0  0  0  0
   24.4721  -20.8084   -7.0960 O   0  0  0  0  0  0  0  0  0  0  0  0
  2  1  1  0
  3  2  2  0
  4  3  1  0
  5  4  2  0
  6  5  1  0
  7  8  1  6
  7  6  1  0
  9  7  1  0
 10  9  2  0
 11  5  1  0
 11 12  2  0
 12  2  1  0
 13  9  1  0
 14 13  1  0
 14 15  1  6
 15 16  1  0
 16 17  1  0
 17 18  2  0
 17 21  1  0
 19 20  2  0
 19 14  1  0
 22 19  1  0
 23 22  1  0
 23 24  1  1
 24 25  1  0
 25 26  2  0
 25 33  1  0
 26 27  1  0
 27 28  1  0
 28 29  2  0
 29 30  1  0
 31 30  2  0
 32 31  1  0
 33 32  2  0
 33 28  1  0
 34 35  1  0
 34 23  1  0
 36 34  2  0
M  END
$$$$
