YEW.pdb
     RDKit          3D

 36 38  0  0  1  0  0  0  0  0999 V2000
   25.1928  -14.1716  -19.5866 O   0  0  0  0  0  0  0  0  0  0  0  0
   24.8230  -14.9142  -18.4560 C   0  0  0  0  0  0  0  0  0  0  0  0
   25.7554  -15.7282  -17.8320 C   0  0  0  0  0  0  0  0  0  0  0  0
   25.4265  -16.4862  -16.7000 C   0  0  0  0  0  0  0  0  0  0  0  0
   24.1428  -16.3931  -16.2293 C   0  0  0  0  0  0  0  0  0  0  0  0
   23.7094  -17.1473  -15.0409 C   0  0  0  0  0  0  0  0  0  0  0  0
   23.4856  -18.6099  -15.4080 C   0  0  2  0  0  0  0  0  0  0  0  0
   22.3950  -18.6948  -16.3220 N   0  0  0  0  0  0  0  0  0  0  0  0
   23.3962  -19.4377  -14.2113 C   0  0  0  0  0  0  0  0  0  0  0  0
   22.2801  -19.4770  -13.6127 O   0  0  0  0  0  0  0  0  0  0  0  0
   23.2066  -15.5800  -16.8508 C   0  0  0  0  0  0  0  0  0  0  0  0
   23.5404  -14.8329  -17.9717 C   0  0  0  0  0  0  0  0  0  0  0  0
   24.4310  -20.2153  -13.6334 N   0  0  0  0  0  0  0  0  0  0  0  0
   24.1885  -21.1268  -12.5462 C   0  0  1  0  0  0  0  0  0  0  0  0
   24.1753  -22.5577  -12.9467 C   0  0  0  0  0  0  0  0  0  0  0  0
   23.0513  -22.9337  -13.8820 C   0  0  0  0  0  0  0  0  0  0  0  0
   23.1902  -24.3712  -14.1934 C   0  0  0  0  0  0  0  0  0  0  0  0
   24.0862  -25.0362  -13.6363 O   0  0  0  0  0  0  0  0  0  0  0  0
   25.2922  -20.9605  -11.5363 C   0  0  0  0  0  0  0  0  0  0  0  0
   26.5117  -20.8999  -11.9175 O   0  0  0  0  0  0  0  0  0  0  0  0
   22.3411  -24.9750  -15.0866 O   0  0  0  0  0  0  0  0  0  0  0  0
   25.0827  -20.8596  -10.1524 N   0  0  0  0  0  0  0  0  0  0  0  0
   26.1628  -21.0338   -9.1553 C   0  0  1  0  0  0  0  0  0  0  0  0
   26.9921  -19.8106   -9.0848 C   0  0  0  0  0  0  0  0  0  0  0  0
   28.1267  -19.9357   -8.1664 C   0  0  0  0  0  0  0  0  0  0  0  0
   29.3173  -20.6233   -8.4122 C   0  0  0  0  0  0  0  0  0  0  0  0
   30.1332  -20.5616   -7.3565 N   0  0  0  0  0  0  0  0  0  0  0  0
   29.5048  -19.8456   -6.4182 C   0  0  0  0  0  0  0  0  0  0  0  0
   29.9166  -19.4720   -5.1519 C   0  0  0  0  0  0  0  0  0  0  0  0
   29.1503  -18.7067   -4.3094 C   0  0  0  0  0  0  0  0  0  0  0  0
   27.9131  -18.3152   -4.7960 C   0  0  0  0  0  0  0  0  0  0  0  0
   27.4792  -18.6724   -6.0479 C   0  0  0  0  0  0  0  0  0  0  0  0
   28.2636  -19.4405   -6.8776 C   0  0  0  0  0  0  0  0  0  0  0  0
   25.6100  -21.5030   -7.8914 C   0  0  0  0  0  0  0  0  0  0  0  0
   26.4340  -21.9391   -6.8301 O   0  0  0  0  0  0  0  0  0  0  0  0
   24.3766  -21.5657   -7.6213 O   0  0  0  0  0  0  0  0  0  0  0  0
  2  1  1  0
  3  2  2  0
  4  3  1  0
  5  4  2  0
  6  5  1  0
  7  8  1  1
  7  6  1  0
  9  7  1  0
 10  9  2  0
 11  5  1  0
 11 12  2  0
 12  2  1  0
 13  9  1  0
 14 13  1  0
 14 15  1  6
 15 16  1  0
 16 17  1  0
 17 18  2  0
 17 21  1  0
 19 20  2  0
 19 14  1  0
 22 19  1  0
 23 22  1  0
 23 24  1  1
 24 25  1  0
 25 26  2  0
 25 33  1  0
 26 27  1  0
 27 28  1  0
 28 29  2  0
 29 30  1  0
 31 30  2  0
 32 31  1  0
 33 32  2  0
 33 28  1  0
 34 35  1  0
 34 23  1  0
 36 34  2  0
M  END
$$$$
