YEW.pdb
     RDKit          3D

 36 38  0  0  1  0  0  0  0  0999 V2000
   27.2570  -19.3556   -4.5919 O   0  0  0  0  0  0  0  0  0  0  0  0
   26.9097  -19.4145   -5.9493 C   0  0  0  0  0  0  0  0  0  0  0  0
   26.2217  -20.5148   -6.4365 C   0  0  0  0  0  0  0  0  0  0  0  0
   25.8558  -20.6125   -7.7858 C   0  0  0  0  0  0  0  0  0  0  0  0
   26.2043  -19.5752   -8.6110 C   0  0  0  0  0  0  0  0  0  0  0  0
   25.8548  -19.5878  -10.0415 C   0  0  0  0  0  0  0  0  0  0  0  0
   26.3262  -20.8900  -10.6790 C   0  0  2  0  0  0  0  0  0  0  0  0
   27.7358  -21.0067  -10.5022 N   0  0  0  0  0  0  0  0  0  0  0  0
   25.8309  -21.0083  -12.0451 C   0  0  0  0  0  0  0  0  0  0  0  0
   26.5283  -20.4852  -12.9645 O   0  0  0  0  0  0  0  0  0  0  0  0
   26.8929  -18.4725   -8.1275 C   0  0  0  0  0  0  0  0  0  0  0  0
   27.2519  -18.3838   -6.7899 C   0  0  0  0  0  0  0  0  0  0  0  0
   24.6406  -21.6519  -12.4675 N   0  0  0  0  0  0  0  0  0  0  0  0
   24.3744  -21.9378  -13.8527 C   0  0  1  0  0  0  0  0  0  0  0  0
   24.1771  -23.3811  -14.1464 C   0  0  0  0  0  0  0  0  0  0  0  0
   23.9022  -23.6906  -15.5983 C   0  0  0  0  0  0  0  0  0  0  0  0
   23.6079  -25.1348  -15.6999 C   0  0  0  0  0  0  0  0  0  0  0  0
   22.5241  -25.5074  -16.1916 O   0  0  0  0  0  0  0  0  0  0  0  0
   23.1056  -21.2294  -14.2451 C   0  0  0  0  0  0  0  0  0  0  0  0
   22.1340  -21.1407  -13.4179 O   0  0  0  0  0  0  0  0  0  0  0  0
   24.5180  -26.0631  -15.2600 O   0  0  0  0  0  0  0  0  0  0  0  0
   22.8943  -20.6308  -15.4967 N   0  0  0  0  0  0  0  0  0  0  0  0
   21.6170  -19.9898  -15.8822 C   0  0  1  0  0  0  0  0  0  0  0  0
   21.7780  -19.2636  -17.1611 C   0  0  0  0  0  0  0  0  0  0  0  0
   20.5772  -18.5247  -17.5594 C   0  0  0  0  0  0  0  0  0  0  0  0
   20.1225  -17.3259  -17.0053 C   0  0  0  0  0  0  0  0  0  0  0  0
   18.9835  -16.9330  -17.5819 N   0  0  0  0  0  0  0  0  0  0  0  0
   18.6776  -17.8488  -18.5069 C   0  0  0  0  0  0  0  0  0  0  0  0
   17.6165  -17.9072  -19.3920 C   0  0  0  0  0  0  0  0  0  0  0  0
   17.4568  -18.9182  -20.3057 C   0  0  0  0  0  0  0  0  0  0  0  0
   18.4308  -19.9041  -20.3018 C   0  0  0  0  0  0  0  0  0  0  0  0
   19.4934  -19.8714  -19.4342 C   0  0  0  0  0  0  0  0  0  0  0  0
   19.6352  -18.8479  -18.5253 C   0  0  0  0  0  0  0  0  0  0  0  0
   20.5316  -20.9606  -15.8326 C   0  0  0  0  0  0  0  0  0  0  0  0
   20.6917  -22.2863  -16.2936 O   0  0  0  0  0  0  0  0  0  0  0  0
   19.3725  -20.7263  -15.3857 O   0  0  0  0  0  0  0  0  0  0  0  0
  2  1  1  0
  3  2  2  0
  4  3  1  0
  5  4  2  0
  6  5  1  0
  7  8  1  6
  7  6  1  0
  9  7  1  0
 10  9  2  0
 11  5  1  0
 11 12  2  0
 12  2  1  0
 13  9  1  0
 14 13  1  0
 14 15  1  1
 15 16  1  0
 16 17  1  0
 17 18  2  0
 17 21  1  0
 19 20  2  0
 19 14  1  0
 22 19  1  0
 23 22  1  0
 23 24  1  6
 24 25  1  0
 25 26  2  0
 25 33  1  0
 26 27  1  0
 27 28  1  0
 28 29  2  0
 29 30  1  0
 31 30  2  0
 32 31  1  0
 33 32  2  0
 33 28  1  0
 34 35  1  0
 34 23  1  0
 36 34  2  0
M  END
$$$$
