YEW.pdb
     RDKit          3D

 36 38  0  0  1  0  0  0  0  0999 V2000
   24.1933  -12.5062  -21.7091 O   0  0  0  0  0  0  0  0  0  0  0  0
   23.0248  -13.2480  -21.4834 C   0  0  0  0  0  0  0  0  0  0  0  0
   22.4261  -13.2257  -20.2334 C   0  0  0  0  0  0  0  0  0  0  0  0
   21.2579  -13.9525  -19.9666 C   0  0  0  0  0  0  0  0  0  0  0  0
   20.7255  -14.6901  -20.9918 C   0  0  0  0  0  0  0  0  0  0  0  0
   19.4958  -15.4787  -20.8057 C   0  0  0  0  0  0  0  0  0  0  0  0
   19.8425  -16.8583  -20.2573 C   0  0  2  0  0  0  0  0  0  0  0  0
   20.6399  -17.5490  -21.2159 N   0  0  0  0  0  0  0  0  0  0  0  0
   18.6455  -17.5473  -19.7906 C   0  0  0  0  0  0  0  0  0  0  0  0
   18.2094  -18.5021  -20.5003 O   0  0  0  0  0  0  0  0  0  0  0  0
   21.3215  -14.7152  -22.2440 C   0  0  0  0  0  0  0  0  0  0  0  0
   22.4786  -13.9929  -22.4997 C   0  0  0  0  0  0  0  0  0  0  0  0
   17.9038  -17.2666  -18.6157 N   0  0  0  0  0  0  0  0  0  0  0  0
   16.6889  -17.9667  -18.2910 C   0  0  1  0  0  0  0  0  0  0  0  0
   16.9050  -19.2879  -17.6462 C   0  0  0  0  0  0  0  0  0  0  0  0
   17.9996  -19.3034  -16.6064 C   0  0  0  0  0  0  0  0  0  0  0  0
   17.5749  -20.2137  -15.5231 C   0  0  0  0  0  0  0  0  0  0  0  0
   18.2089  -21.2691  -15.3242 O   0  0  0  0  0  0  0  0  0  0  0  0
   15.9041  -17.1246  -17.3212 C   0  0  0  0  0  0  0  0  0  0  0  0
   16.5102  -16.3799  -16.4760 O   0  0  0  0  0  0  0  0  0  0  0  0
   16.4930  -19.9038  -14.7377 O   0  0  0  0  0  0  0  0  0  0  0  0
   14.5022  -17.0864  -17.2687 N   0  0  0  0  0  0  0  0  0  0  0  0
   13.7502  -16.2041  -16.3482 C   0  0  1  0  0  0  0  0  0  0  0  0
   13.2715  -15.0051  -17.0707 C   0  0  0  0  0  0  0  0  0  0  0  0
   12.3719  -15.3232  -18.1825 C   0  0  0  0  0  0  0  0  0  0  0  0
   11.0745  -15.8298  -18.0773 C   0  0  0  0  0  0  0  0  0  0  0  0
   10.5391  -16.0308  -19.2843 N   0  0  0  0  0  0  0  0  0  0  0  0
   11.4576  -15.6658  -20.1850 C   0  0  0  0  0  0  0  0  0  0  0  0
   11.4024  -15.6576  -21.5669 C   0  0  0  0  0  0  0  0  0  0  0  0
   12.4384  -15.2262  -22.3563 C   0  0  0  0  0  0  0  0  0  0  0  0
   13.5721  -14.7884  -21.6903 C   0  0  0  0  0  0  0  0  0  0  0  0
   13.6542  -14.7867  -20.3206 C   0  0  0  0  0  0  0  0  0  0  0  0
   12.6033  -15.2233  -19.5469 C   0  0  0  0  0  0  0  0  0  0  0  0
   12.7337  -16.9683  -15.6371 C   0  0  0  0  0  0  0  0  0  0  0  0
   12.4578  -18.3183  -15.9486 O   0  0  0  0  0  0  0  0  0  0  0  0
   12.0171  -16.5184  -14.6977 O   0  0  0  0  0  0  0  0  0  0  0  0
  2  1  1  0
  3  2  2  0
  4  3  1  0
  5  4  2  0
  6  5  1  0
  7  8  1  6
  7  6  1  0
  9  7  1  0
 10  9  2  0
 11  5  1  0
 11 12  2  0
 12  2  1  0
 13  9  1  0
 14 13  1  0
 14 15  1  1
 15 16  1  0
 16 17  1  0
 17 18  2  0
 17 21  1  0
 19 20  2  0
 19 14  1  0
 22 19  1  0
 23 22  1  0
 23 24  1  6
 24 25  1  0
 25 26  2  0
 25 33  1  0
 26 27  1  0
 27 28  1  0
 28 29  2  0
 29 30  1  0
 31 30  2  0
 32 31  1  0
 33 32  2  0
 33 28  1  0
 34 35  1  0
 34 23  1  0
 36 34  2  0
M  END
$$$$
