YEW.pdb
     RDKit          3D

 36 38  0  0  1  0  0  0  0  0999 V2000
   31.9061  -17.1274  -18.5779 O   0  0  0  0  0  0  0  0  0  0  0  0
   30.6681  -17.0767  -17.9212 C   0  0  0  0  0  0  0  0  0  0  0  0
   29.9423  -18.2420  -17.7296 C   0  0  0  0  0  0  0  0  0  0  0  0
   28.7015  -18.2346  -17.0782 C   0  0  0  0  0  0  0  0  0  0  0  0
   28.2287  -17.0270  -16.6346 C   0  0  0  0  0  0  0  0  0  0  0  0
   26.9381  -16.9243  -15.9327 C   0  0  0  0  0  0  0  0  0  0  0  0
   25.8685  -17.6945  -16.6987 C   0  0  2  0  0  0  0  0  0  0  0  0
   25.6546  -17.0599  -17.9570 N   0  0  0  0  0  0  0  0  0  0  0  0
   24.6883  -17.9076  -15.8697 C   0  0  0  0  0  0  0  0  0  0  0  0
   24.0751  -16.8793  -15.4547 O   0  0  0  0  0  0  0  0  0  0  0  0
   28.9517  -15.8586  -16.8244 C   0  0  0  0  0  0  0  0  0  0  0  0
   30.1796  -15.8747  -17.4710 C   0  0  0  0  0  0  0  0  0  0  0  0
   24.1408  -19.1525  -15.4699 N   0  0  0  0  0  0  0  0  0  0  0  0
   22.9482  -19.2433  -14.6693 C   0  0  1  0  0  0  0  0  0  0  0  0
   21.7752  -19.8013  -15.3910 C   0  0  0  0  0  0  0  0  0  0  0  0
   21.0820  -18.8215  -16.3070 C   0  0  0  0  0  0  0  0  0  0  0  0
   21.7759  -18.8600  -17.6108 C   0  0  0  0  0  0  0  0  0  0  0  0
   21.9772  -17.7968  -18.2307 O   0  0  0  0  0  0  0  0  0  0  0  0
   23.2286  -20.1582  -13.5075 C   0  0  0  0  0  0  0  0  0  0  0  0
   23.7166  -21.3236  -13.7072 O   0  0  0  0  0  0  0  0  0  0  0  0
   22.1993  -20.0540  -18.1388 O   0  0  0  0  0  0  0  0  0  0  0  0
   22.9907  -19.8211  -12.1662 N   0  0  0  0  0  0  0  0  0  0  0  0
   23.2549  -20.7448  -11.0401 C   0  0  1  0  0  0  0  0  0  0  0  0
   23.9535  -20.0302   -9.9492 C   0  0  0  0  0  0  0  0  0  0  0  0
   25.3826  -20.3447   -9.8766 C   0  0  0  0  0  0  0  0  0  0  0  0
   26.1265  -21.0362  -10.8353 C   0  0  0  0  0  0  0  0  0  0  0  0
   27.3974  -21.1741  -10.4480 N   0  0  0  0  0  0  0  0  0  0  0  0
   27.5074  -20.5862   -9.2521 C   0  0  0  0  0  0  0  0  0  0  0  0
   28.6076  -20.4316   -8.4285 C   0  0  0  0  0  0  0  0  0  0  0  0
   28.5573  -19.7742   -7.2252 C   0  0  0  0  0  0  0  0  0  0  0  0
   27.3229  -19.2594   -6.8620 C   0  0  0  0  0  0  0  0  0  0  0  0
   26.2150  -19.3990   -7.6594 C   0  0  0  0  0  0  0  0  0  0  0  0
   26.2870  -20.0619   -8.8632 C   0  0  0  0  0  0  0  0  0  0  0  0
   22.0324  -21.4430  -10.6645 C   0  0  0  0  0  0  0  0  0  0  0  0
   22.0564  -22.6913  -10.0035 O   0  0  0  0  0  0  0  0  0  0  0  0
   20.8618  -21.0184  -10.8827 O   0  0  0  0  0  0  0  0  0  0  0  0
  2  1  1  0
  3  2  2  0
  4  3  1  0
  5  4  2  0
  6  5  1  0
  7  8  1  6
  7  6  1  0
  9  7  1  0
 10  9  2  0
 11  5  1  0
 11 12  2  0
 12  2  1  0
 13  9  1  0
 14 13  1  0
 14 15  1  6
 15 16  1  0
 16 17  1  0
 17 18  2  0
 17 21  1  0
 19 20  2  0
 19 14  1  0
 22 19  1  0
 23 22  1  0
 23 24  1  1
 24 25  1  0
 25 26  2  0
 25 33  1  0
 26 27  1  0
 27 28  1  0
 28 29  2  0
 29 30  1  0
 31 30  2  0
 32 31  1  0
 33 32  2  0
 33 28  1  0
 34 35  1  0
 34 23  1  0
 36 34  2  0
M  END
$$$$
