YEW.pdb
     RDKit          3D

 36 38  0  0  1  0  0  0  0  0999 V2000
   30.9851  -26.9608  -16.2119 O   0  0  0  0  0  0  0  0  0  0  0  0
   29.6778  -26.4664  -16.3267 C   0  0  0  0  0  0  0  0  0  0  0  0
   29.4599  -25.2240  -16.9015 C   0  0  0  0  0  0  0  0  0  0  0  0
   28.1695  -24.6939  -17.0352 C   0  0  0  0  0  0  0  0  0  0  0  0
   27.1248  -25.4523  -16.5750 C   0  0  0  0  0  0  0  0  0  0  0  0
   25.7341  -24.9794  -16.6808 C   0  0  0  0  0  0  0  0  0  0  0  0
   24.9805  -25.8114  -17.7123 C   0  0  2  0  0  0  0  0  0  0  0  0
   25.6449  -25.7014  -18.9686 N   0  0  0  0  0  0  0  0  0  0  0  0
   23.5584  -25.4907  -17.6992 C   0  0  0  0  0  0  0  0  0  0  0  0
   23.1775  -24.5050  -18.3984 O   0  0  0  0  0  0  0  0  0  0  0  0
   27.3386  -26.6959  -15.9991 C   0  0  0  0  0  0  0  0  0  0  0  0
   28.6198  -27.2134  -15.8701 C   0  0  0  0  0  0  0  0  0  0  0  0
   22.5387  -26.1666  -16.9832 N   0  0  0  0  0  0  0  0  0  0  0  0
   21.1500  -25.8092  -17.1068 C   0  0  1  0  0  0  0  0  0  0  0  0
   20.2091  -26.8848  -16.6997 C   0  0  0  0  0  0  0  0  0  0  0  0
   18.7504  -26.5377  -16.8761 C   0  0  0  0  0  0  0  0  0  0  0  0
   17.9685  -27.7749  -16.6747 C   0  0  0  0  0  0  0  0  0  0  0  0
   18.5548  -28.8754  -16.6557 O   0  0  0  0  0  0  0  0  0  0  0  0
   20.8855  -24.6283  -16.2117 C   0  0  0  0  0  0  0  0  0  0  0  0
   21.4219  -24.5647  -15.0523 O   0  0  0  0  0  0  0  0  0  0  0  0
   16.6075  -27.7186  -16.5073 O   0  0  0  0  0  0  0  0  0  0  0  0
   20.0657  -23.5445  -16.5619 N   0  0  0  0  0  0  0  0  0  0  0  0
   19.9216  -22.3339  -15.7224 C   0  0  1  0  0  0  0  0  0  0  0  0
   20.6065  -21.1881  -16.3603 C   0  0  0  0  0  0  0  0  0  0  0  0
   20.0572  -20.8476  -17.6751 C   0  0  0  0  0  0  0  0  0  0  0  0
   18.8289  -20.2309  -17.9234 C   0  0  0  0  0  0  0  0  0  0  0  0
   18.6215  -20.0865  -19.2349 N   0  0  0  0  0  0  0  0  0  0  0  0
   19.6897  -20.5952  -19.8579 C   0  0  0  0  0  0  0  0  0  0  0  0
   19.9847  -20.6770  -21.2066 C   0  0  0  0  0  0  0  0  0  0  0  0
   21.1508  -21.2165  -21.6879 C   0  0  0  0  0  0  0  0  0  0  0  0
   22.0426  -21.6887  -20.7380 C   0  0  0  0  0  0  0  0  0  0  0  0
   21.7751  -21.6210  -19.3939 C   0  0  0  0  0  0  0  0  0  0  0  0
   20.5992  -21.0755  -18.9318 C   0  0  0  0  0  0  0  0  0  0  0  0
   18.5220  -22.1267  -15.3743 C   0  0  0  0  0  0  0  0  0  0  0  0
   18.1361  -21.3930  -14.2304 O   0  0  0  0  0  0  0  0  0  0  0  0
   17.5397  -22.5660  -16.0378 O   0  0  0  0  0  0  0  0  0  0  0  0
  2  1  1  0
  3  2  2  0
  4  3  1  0
  5  4  2  0
  6  5  1  0
  7  8  1  6
  7  6  1  0
  9  7  1  0
 10  9  2  0
 11  5  1  0
 11 12  2  0
 12  2  1  0
 13  9  1  0
 14 13  1  0
 14 15  1  1
 15 16  1  0
 16 17  1  0
 17 18  2  0
 17 21  1  0
 19 20  2  0
 19 14  1  0
 22 19  1  0
 23 22  1  0
 23 24  1  6
 24 25  1  0
 25 26  2  0
 25 33  1  0
 26 27  1  0
 27 28  1  0
 28 29  2  0
 29 30  1  0
 31 30  2  0
 32 31  1  0
 33 32  2  0
 33 28  1  0
 34 35  1  0
 34 23  1  0
 36 34  2  0
M  END
$$$$
