YEW.pdb
     RDKit          3D

 36 38  0  0  1  0  0  0  0  0999 V2000
   31.5013  -16.3537  -18.7842 O   0  0  0  0  0  0  0  0  0  0  0  0
   30.5367  -16.6629  -17.8144 C   0  0  0  0  0  0  0  0  0  0  0  0
   30.5542  -17.9040  -17.1975 C   0  0  0  0  0  0  0  0  0  0  0  0
   29.6086  -18.2524  -16.2236 C   0  0  0  0  0  0  0  0  0  0  0  0
   28.6609  -17.3165  -15.9008 C   0  0  0  0  0  0  0  0  0  0  0  0
   27.6325  -17.5916  -14.8832 C   0  0  0  0  0  0  0  0  0  0  0  0
   26.7647  -18.7639  -15.3267 C   0  0  2  0  0  0  0  0  0  0  0  0
   26.2145  -18.4719  -16.6089 N   0  0  0  0  0  0  0  0  0  0  0  0
   25.8171  -19.1329  -14.2820 C   0  0  0  0  0  0  0  0  0  0  0  0
   24.7542  -18.4490  -14.1922 O   0  0  0  0  0  0  0  0  0  0  0  0
   28.6398  -16.0734  -16.5158 C   0  0  0  0  0  0  0  0  0  0  0  0
   29.5796  -15.7366  -17.4797 C   0  0  0  0  0  0  0  0  0  0  0  0
   25.9517  -20.1854  -13.3421 N   0  0  0  0  0  0  0  0  0  0  0  0
   24.8692  -20.5893  -12.4839 C   0  0  1  0  0  0  0  0  0  0  0  0
   24.1394  -21.7947  -12.9556 C   0  0  0  0  0  0  0  0  0  0  0  0
   24.9815  -23.0458  -13.0269 C   0  0  0  0  0  0  0  0  0  0  0  0
   24.6386  -23.7450  -14.2825 C   0  0  0  0  0  0  0  0  0  0  0  0
   23.6977  -23.3220  -14.9834 O   0  0  0  0  0  0  0  0  0  0  0  0
   25.4385  -20.9188  -11.1300 C   0  0  0  0  0  0  0  0  0  0  0  0
   26.3652  -21.7930  -11.0152 O   0  0  0  0  0  0  0  0  0  0  0  0
   25.3482  -24.8505  -14.6796 O   0  0  0  0  0  0  0  0  0  0  0  0
   25.0192  -20.3174   -9.9334 N   0  0  0  0  0  0  0  0  0  0  0  0
   25.2757  -20.9045   -8.5989 C   0  0  1  0  0  0  0  0  0  0  0  0
   25.8897  -19.8951   -7.7085 C   0  0  0  0  0  0  0  0  0  0  0  0
   27.3259  -20.1022   -7.5065 C   0  0  0  0  0  0  0  0  0  0  0  0
   28.2081  -20.7079   -8.4042 C   0  0  0  0  0  0  0  0  0  0  0  0
   29.4440  -20.7598   -7.9003 N   0  0  0  0  0  0  0  0  0  0  0  0
   29.3954  -20.1993   -6.6873 C   0  0  0  0  0  0  0  0  0  0  0  0
   30.3983  -19.9850   -5.7593 C   0  0  0  0  0  0  0  0  0  0  0  0
   30.1843  -19.3677   -4.5528 C   0  0  0  0  0  0  0  0  0  0  0  0
   28.8849  -18.9585   -4.2984 C   0  0  0  0  0  0  0  0  0  0  0  0
   27.8707  -19.1592   -5.2006 C   0  0  0  0  0  0  0  0  0  0  0  0
   28.1067  -19.7803   -6.4057 C   0  0  0  0  0  0  0  0  0  0  0  0
   24.0719  -21.5519   -8.0942 C   0  0  0  0  0  0  0  0  0  0  0  0
   24.0730  -22.3084   -6.9012 O   0  0  0  0  0  0  0  0  0  0  0  0
   22.9383  -21.5048   -8.6519 O   0  0  0  0  0  0  0  0  0  0  0  0
  2  1  1  0
  3  2  2  0
  4  3  1  0
  5  4  2  0
  6  5  1  0
  7  8  1  6
  7  6  1  0
  9  7  1  0
 10  9  2  0
 11  5  1  0
 11 12  2  0
 12  2  1  0
 13  9  1  0
 14 13  1  0
 14 15  1  6
 15 16  1  0
 16 17  1  0
 17 18  2  0
 17 21  1  0
 19 20  2  0
 19 14  1  0
 22 19  1  0
 23 22  1  0
 23 24  1  1
 24 25  1  0
 25 26  2  0
 25 33  1  0
 26 27  1  0
 27 28  1  0
 28 29  2  0
 29 30  1  0
 31 30  2  0
 32 31  1  0
 33 32  2  0
 33 28  1  0
 34 35  1  0
 34 23  1  0
 36 34  2  0
M  END
$$$$
