YEW.pdb
     RDKit          3D

 36 38  0  0  1  0  0  0  0  0999 V2000
   31.5838  -18.0462  -19.3069 O   0  0  0  0  0  0  0  0  0  0  0  0
   30.6807  -17.9909  -18.2354 C   0  0  0  0  0  0  0  0  0  0  0  0
   30.5428  -19.0842  -17.3946 C   0  0  0  0  0  0  0  0  0  0  0  0
   29.6519  -19.0697  -16.3128 C   0  0  0  0  0  0  0  0  0  0  0  0
   28.9181  -17.9292  -16.1147 C   0  0  0  0  0  0  0  0  0  0  0  0
   27.9632  -17.8205  -14.9988 C   0  0  0  0  0  0  0  0  0  0  0  0
   26.8345  -18.8287  -15.1822 C   0  0  2  0  0  0  0  0  0  0  0  0
   26.1933  -18.5817  -16.4311 N   0  0  0  0  0  0  0  0  0  0  0  0
   25.9740  -18.8643  -14.0059 C   0  0  0  0  0  0  0  0  0  0  0  0
   25.1831  -17.8895  -13.8337 O   0  0  0  0  0  0  0  0  0  0  0  0
   29.0531  -16.8331  -16.9539 C   0  0  0  0  0  0  0  0  0  0  0  0
   29.9373  -16.8559  -18.0233 C   0  0  0  0  0  0  0  0  0  0  0  0
   25.9205  -19.8806  -13.0192 N   0  0  0  0  0  0  0  0  0  0  0  0
   25.0525  -19.7922  -11.8745 C   0  0  1  0  0  0  0  0  0  0  0  0
   23.6374  -20.1454  -12.1587 C   0  0  0  0  0  0  0  0  0  0  0  0
   23.4607  -21.3901  -12.9948 C   0  0  0  0  0  0  0  0  0  0  0  0
   22.0112  -21.6556  -13.1012 C   0  0  0  0  0  0  0  0  0  0  0  0
   21.4793  -21.7165  -14.2275 O   0  0  0  0  0  0  0  0  0  0  0  0
   25.5482  -20.7573  -10.8312 C   0  0  0  0  0  0  0  0  0  0  0  0
   26.6699  -21.3527  -10.9841 O   0  0  0  0  0  0  0  0  0  0  0  0
   21.2521  -21.8364  -11.9722 O   0  0  0  0  0  0  0  0  0  0  0  0
   24.8513  -21.0679   -9.6534 N   0  0  0  0  0  0  0  0  0  0  0  0
   25.5198  -21.2871   -8.3510 C   0  0  1  0  0  0  0  0  0  0  0  0
   26.4789  -20.1933   -8.0811 C   0  0  0  0  0  0  0  0  0  0  0  0
   27.1424  -20.3164   -6.7807 C   0  0  0  0  0  0  0  0  0  0  0  0
   26.7656  -21.1653   -5.7375 C   0  0  0  0  0  0  0  0  0  0  0  0
   27.5688  -21.0123   -4.6812 N   0  0  0  0  0  0  0  0  0  0  0  0
   28.4694  -20.0793   -5.0071 C   0  0  0  0  0  0  0  0  0  0  0  0
   29.5297  -19.5667   -4.2819 C   0  0  0  0  0  0  0  0  0  0  0  0
   30.3857  -18.6149   -4.7758 C   0  0  0  0  0  0  0  0  0  0  0  0
   30.1339  -18.1782   -6.0667 C   0  0  0  0  0  0  0  0  0  0  0  0
   29.0887  -18.6689   -6.8082 C   0  0  0  0  0  0  0  0  0  0  0  0
   28.2417  -19.6238   -6.2940 C   0  0  0  0  0  0  0  0  0  0  0  0
   24.5289  -21.5368   -7.3125 C   0  0  0  0  0  0  0  0  0  0  0  0
   23.2088  -21.0419   -7.4031 O   0  0  0  0  0  0  0  0  0  0  0  0
   24.7394  -22.2011   -6.2577 O   0  0  0  0  0  0  0  0  0  0  0  0
  2  1  1  0
  3  2  2  0
  4  3  1  0
  5  4  2  0
  6  5  1  0
  7  8  1  6
  7  6  1  0
  9  7  1  0
 10  9  2  0
 11  5  1  0
 11 12  2  0
 12  2  1  0
 13  9  1  0
 14 13  1  0
 14 15  1  6
 15 16  1  0
 16 17  1  0
 17 18  2  0
 17 21  1  0
 19 20  2  0
 19 14  1  0
 22 19  1  0
 23 22  1  0
 23 24  1  1
 24 25  1  0
 25 26  2  0
 25 33  1  0
 26 27  1  0
 27 28  1  0
 28 29  2  0
 29 30  1  0
 31 30  2  0
 32 31  1  0
 33 32  2  0
 33 28  1  0
 34 35  1  0
 34 23  1  0
 36 34  2  0
M  END
$$$$
