YEW.pdb
     RDKit          3D

 36 38  0  0  1  0  0  0  0  0999 V2000
   31.0426  -17.2157  -18.5118 O   0  0  0  0  0  0  0  0  0  0  0  0
   29.9390  -17.1273  -17.6511 C   0  0  0  0  0  0  0  0  0  0  0  0
   29.7373  -18.1037  -16.6882 C   0  0  0  0  0  0  0  0  0  0  0  0
   28.6473  -18.0525  -15.8087 C   0  0  0  0  0  0  0  0  0  0  0  0
   27.7834  -16.9960  -15.9352 C   0  0  0  0  0  0  0  0  0  0  0  0
   26.6152  -16.8556  -15.0496 C   0  0  0  0  0  0  0  0  0  0  0  0
   25.4506  -17.6753  -15.5937 C   0  0  2  0  0  0  0  0  0  0  0  0
   24.7987  -16.9281  -16.6177 N   0  0  0  0  0  0  0  0  0  0  0  0
   24.6076  -18.1632  -14.5088 C   0  0  0  0  0  0  0  0  0  0  0  0
   23.8623  -17.3200  -13.9265 O   0  0  0  0  0  0  0  0  0  0  0  0
   27.9816  -16.0169  -16.8975 C   0  0  0  0  0  0  0  0  0  0  0  0
   29.0634  -16.0755  -17.7649 C   0  0  0  0  0  0  0  0  0  0  0  0
   24.5256  -19.4931  -14.0250 N   0  0  0  0  0  0  0  0  0  0  0  0
   23.7693  -19.8353  -12.8493 C   0  0  1  0  0  0  0  0  0  0  0  0
   22.6739  -20.8087  -13.0957 C   0  0  0  0  0  0  0  0  0  0  0  0
   21.9195  -21.2262  -11.8564 C   0  0  0  0  0  0  0  0  0  0  0  0
   20.8837  -22.1959  -12.2683 C   0  0  0  0  0  0  0  0  0  0  0  0
   21.2029  -23.3831  -12.4777 O   0  0  0  0  0  0  0  0  0  0  0  0
   24.7053  -20.4660  -11.8534 C   0  0  0  0  0  0  0  0  0  0  0  0
   25.2856  -21.5732  -12.1250 O   0  0  0  0  0  0  0  0  0  0  0  0
   19.5788  -21.7984  -12.4188 O   0  0  0  0  0  0  0  0  0  0  0  0
   25.0079  -19.9132  -10.5996 N   0  0  0  0  0  0  0  0  0  0  0  0
   25.8724  -20.5873   -9.6049 C   0  0  1  0  0  0  0  0  0  0  0  0
   26.9773  -19.6904   -9.2005 C   0  0  0  0  0  0  0  0  0  0  0  0
   27.8749  -20.2917   -8.2108 C   0  0  0  0  0  0  0  0  0  0  0  0
   28.6931  -21.4066   -8.4065 C   0  0  0  0  0  0  0  0  0  0  0  0
   29.3665  -21.7083   -7.2931 N   0  0  0  0  0  0  0  0  0  0  0  0
   29.0095  -20.8134   -6.3659 C   0  0  0  0  0  0  0  0  0  0  0  0
   29.4264  -20.6675   -5.0554 C   0  0  0  0  0  0  0  0  0  0  0  0
   28.9730  -19.6688   -4.2309 C   0  0  0  0  0  0  0  0  0  0  0  0
   28.0545  -18.7906   -4.7837 C   0  0  0  0  0  0  0  0  0  0  0  0
   27.6230  -18.9126   -6.0806 C   0  0  0  0  0  0  0  0  0  0  0  0
   28.0906  -19.9216   -6.8912 C   0  0  0  0  0  0  0  0  0  0  0  0
   25.0637  -21.1311   -8.5218 C   0  0  0  0  0  0  0  0  0  0  0  0
   23.7796  -20.6255   -8.2199 O   0  0  0  0  0  0  0  0  0  0  0  0
   25.4144  -22.0812   -7.7650 O   0  0  0  0  0  0  0  0  0  0  0  0
  2  1  1  0
  3  2  2  0
  4  3  1  0
  5  4  2  0
  6  5  1  0
  7  8  1  6
  7  6  1  0
  9  7  1  0
 10  9  2  0
 11  5  1  0
 11 12  2  0
 12  2  1  0
 13  9  1  0
 14 13  1  0
 14 15  1  6
 15 16  1  0
 16 17  1  0
 17 18  2  0
 17 21  1  0
 19 20  2  0
 19 14  1  0
 22 19  1  0
 23 22  1  0
 23 24  1  1
 24 25  1  0
 25 26  2  0
 25 33  1  0
 26 27  1  0
 27 28  1  0
 28 29  2  0
 29 30  1  0
 31 30  2  0
 32 31  1  0
 33 32  2  0
 33 28  1  0
 34 35  1  0
 34 23  1  0
 36 34  2  0
M  END
$$$$
