YEW.pdb
     RDKit          3D

 36 38  0  0  1  0  0  0  0  0999 V2000
   26.8875  -19.8216  -21.7718 O   0  0  0  0  0  0  0  0  0  0  0  0
   26.5306  -19.4697  -20.4622 C   0  0  0  0  0  0  0  0  0  0  0  0
   26.2658  -18.1446  -20.1535 C   0  0  0  0  0  0  0  0  0  0  0  0
   25.9059  -17.7512  -18.8574 C   0  0  0  0  0  0  0  0  0  0  0  0
   25.8244  -18.7292  -17.9007 C   0  0  0  0  0  0  0  0  0  0  0  0
   25.4458  -18.4100  -16.5137 C   0  0  0  0  0  0  0  0  0  0  0  0
   23.9368  -18.5441  -16.3442 C   0  0  2  0  0  0  0  0  0  0  0  0
   23.3007  -17.4381  -16.9798 N   0  0  0  0  0  0  0  0  0  0  0  0
   23.5901  -18.7780  -14.9476 C   0  0  0  0  0  0  0  0  0  0  0  0
   23.4686  -17.7623  -14.1999 O   0  0  0  0  0  0  0  0  0  0  0  0
   26.0887  -20.0563  -18.2054 C   0  0  0  0  0  0  0  0  0  0  0  0
   26.4450  -20.4373  -19.4914 C   0  0  0  0  0  0  0  0  0  0  0  0
   23.3697  -20.0310  -14.3222 N   0  0  0  0  0  0  0  0  0  0  0  0
   23.0591  -20.1441  -12.9215 C   0  0  1  0  0  0  0  0  0  0  0  0
   22.0072  -21.1475  -12.6133 C   0  0  0  0  0  0  0  0  0  0  0  0
   21.6705  -21.2682  -11.1465 C   0  0  0  0  0  0  0  0  0  0  0  0
   20.7661  -20.1520  -10.8018 C   0  0  0  0  0  0  0  0  0  0  0  0
   20.2831  -19.4496  -11.7121 O   0  0  0  0  0  0  0  0  0  0  0  0
   24.3057  -20.5730  -12.1950 C   0  0  0  0  0  0  0  0  0  0  0  0
   24.9793  -21.5788  -12.6083 O   0  0  0  0  0  0  0  0  0  0  0  0
   20.4552  -19.8874   -9.4915 O   0  0  0  0  0  0  0  0  0  0  0  0
   24.8116  -19.9303  -11.0548 N   0  0  0  0  0  0  0  0  0  0  0  0
   25.9699  -20.4384  -10.2859 C   0  0  1  0  0  0  0  0  0  0  0  0
   26.4981  -19.3769   -9.4010 C   0  0  0  0  0  0  0  0  0  0  0  0
   27.6339  -19.8174   -8.5870 C   0  0  0  0  0  0  0  0  0  0  0  0
   28.7661  -20.4947   -9.0454 C   0  0  0  0  0  0  0  0  0  0  0  0
   29.6000  -20.7702   -8.0390 N   0  0  0  0  0  0  0  0  0  0  0  0
   29.0407  -20.2871   -6.9247 C   0  0  0  0  0  0  0  0  0  0  0  0
   29.4980  -20.2908   -5.6194 C   0  0  0  0  0  0  0  0  0  0  0  0
   28.8036  -19.7255   -4.5798 C   0  0  0  0  0  0  0  0  0  0  0  0
   27.5919  -19.1361   -4.9039 C   0  0  0  0  0  0  0  0  0  0  0  0
   27.1140  -19.1189   -6.1901 C   0  0  0  0  0  0  0  0  0  0  0  0
   27.8265  -19.6914   -7.2188 C   0  0  0  0  0  0  0  0  0  0  0  0
   25.6301  -21.6982   -9.6378 C   0  0  0  0  0  0  0  0  0  0  0  0
   24.3437  -21.9444   -9.1083 O   0  0  0  0  0  0  0  0  0  0  0  0
   26.4239  -22.6707   -9.4875 O   0  0  0  0  0  0  0  0  0  0  0  0
  2  1  1  0
  3  2  2  0
  4  3  1  0
  5  4  2  0
  6  5  1  0
  7  8  1  1
  7  6  1  0
  9  7  1  0
 10  9  2  0
 11  5  1  0
 11 12  2  0
 12  2  1  0
 13  9  1  0
 14 13  1  0
 14 15  1  6
 15 16  1  0
 16 17  1  0
 17 18  2  0
 17 21  1  0
 19 20  2  0
 19 14  1  0
 22 19  1  0
 23 22  1  0
 23 24  1  1
 24 25  1  0
 25 26  2  0
 25 33  1  0
 26 27  1  0
 27 28  1  0
 28 29  2  0
 29 30  1  0
 31 30  2  0
 32 31  1  0
 33 32  2  0
 33 28  1  0
 34 35  1  0
 34 23  1  0
 36 34  2  0
M  END
$$$$
