YEW.pdb
     RDKit          3D

 36 38  0  0  1  0  0  0  0  0999 V2000
   16.2347  -15.9150  -18.8166 O   0  0  0  0  0  0  0  0  0  0  0  0
   17.1690  -16.9361  -18.5908 C   0  0  0  0  0  0  0  0  0  0  0  0
   18.1137  -16.7947  -17.5864 C   0  0  0  0  0  0  0  0  0  0  0  0
   19.0646  -17.7913  -17.3283 C   0  0  0  0  0  0  0  0  0  0  0  0
   19.0266  -18.9173  -18.1087 C   0  0  0  0  0  0  0  0  0  0  0  0
   19.9814  -20.0197  -17.9045 C   0  0  0  0  0  0  0  0  0  0  0  0
   21.2358  -19.7801  -18.7371 C   0  0  2  0  0  0  0  0  0  0  0  0
   21.0378  -20.3277  -20.0382 N   0  0  0  0  0  0  0  0  0  0  0  0
   22.4265  -20.2215  -18.0208 C   0  0  0  0  0  0  0  0  0  0  0  0
   22.6857  -21.4617  -18.0313 O   0  0  0  0  0  0  0  0  0  0  0  0
   18.0829  -19.0627  -19.1149 C   0  0  0  0  0  0  0  0  0  0  0  0
   17.1451  -18.0706  -19.3643 C   0  0  0  0  0  0  0  0  0  0  0  0
   23.3404  -19.4088  -17.3042 N   0  0  0  0  0  0  0  0  0  0  0  0
   24.4747  -19.9598  -16.6104 C   0  0  1  0  0  0  0  0  0  0  0  0
   25.6503  -19.0526  -16.5552 C   0  0  0  0  0  0  0  0  0  0  0  0
   26.8364  -19.6131  -15.8078 C   0  0  0  0  0  0  0  0  0  0  0  0
   27.9361  -18.6322  -15.9137 C   0  0  0  0  0  0  0  0  0  0  0  0
   28.1947  -17.8927  -14.9433 O   0  0  0  0  0  0  0  0  0  0  0  0
   24.0668  -20.2418  -15.1892 C   0  0  0  0  0  0  0  0  0  0  0  0
   23.9338  -19.2824  -14.3538 O   0  0  0  0  0  0  0  0  0  0  0  0
   28.6716  -18.5332  -17.0681 O   0  0  0  0  0  0  0  0  0  0  0  0
   23.8069  -21.5258  -14.6860 N   0  0  0  0  0  0  0  0  0  0  0  0
   23.5175  -21.7928  -13.2591 C   0  0  1  0  0  0  0  0  0  0  0  0
   24.6867  -22.4293  -12.6135 C   0  0  0  0  0  0  0  0  0  0  0  0
   25.5462  -21.4749  -11.9085 C   0  0  0  0  0  0  0  0  0  0  0  0
   25.2418  -20.8112  -10.7178 C   0  0  0  0  0  0  0  0  0  0  0  0
   26.2338  -19.9922  -10.3585 N   0  0  0  0  0  0  0  0  0  0  0  0
   27.1881  -20.1027  -11.2885 C   0  0  0  0  0  0  0  0  0  0  0  0
   28.4237  -19.4883  -11.3806 C   0  0  0  0  0  0  0  0  0  0  0  0
   29.3074  -19.7302  -12.4020 C   0  0  0  0  0  0  0  0  0  0  0  0
   28.8959  -20.6406  -13.3624 C   0  0  0  0  0  0  0  0  0  0  0  0
   27.6752  -21.2639  -13.2962 C   0  0  0  0  0  0  0  0  0  0  0  0
   26.8035  -21.0073  -12.2628 C   0  0  0  0  0  0  0  0  0  0  0  0
   23.0104  -20.5886  -12.6146 C   0  0  0  0  0  0  0  0  0  0  0  0
   22.0130  -20.6379  -11.6153 O   0  0  0  0  0  0  0  0  0  0  0  0
   23.3977  -19.4131  -12.8727 O   0  0  0  0  0  0  0  0  0  0  0  0
  2  1  1  0
  3  2  2  0
  4  3  1  0
  5  4  2  0
  6  5  1  0
  7  8  1  6
  7  6  1  0
  9  7  1  0
 10  9  2  0
 11  5  1  0
 11 12  2  0
 12  2  1  0
 13  9  1  0
 14 13  1  0
 14 15  1  1
 15 16  1  0
 16 17  1  0
 17 18  2  0
 17 21  1  0
 19 20  2  0
 19 14  1  0
 22 19  1  0
 23 22  1  0
 23 24  1  1
 24 25  1  0
 25 26  2  0
 25 33  1  0
 26 27  1  0
 27 28  1  0
 28 29  2  0
 29 30  1  0
 31 30  2  0
 32 31  1  0
 33 32  2  0
 33 28  1  0
 34 35  1  0
 34 23  1  0
 36 34  2  0
M  END
$$$$
