LKF.pdb
     RDKit          3D

 29 29  0  0  1  0  0  0  0  0999 V2000
    9.0936  -13.1655   19.4081 C   0  0  0  0  0  0  0  0  0  0  0  0
    7.6920  -13.2284   19.9255 C   0  0  2  0  0  0  0  0  0  0  0  0
    7.1745  -11.8253   20.0724 C   0  0  0  0  0  0  0  0  0  0  0  0
    7.6224  -14.0158   21.2191 C   0  0  0  0  0  0  0  0  0  0  0  0
    8.2495  -15.3650   20.9475 C   0  0  2  0  0  0  0  0  0  0  0  0
    7.4023  -16.0766   20.0318 N   0  0  0  0  0  0  0  0  0  0  0  0
    8.5273  -16.1239   22.1833 C   0  0  0  0  0  0  0  0  0  0  0  0
    7.6136  -16.5420   22.9120 O   0  0  0  0  0  0  0  0  0  0  0  0
    9.8844  -16.3782   22.5408 N   0  0  0  0  0  0  0  0  0  0  0  0
   10.2630  -17.1209   23.7096 C   0  0  1  0  0  0  0  0  0  0  0  0
   11.5454  -17.8240   23.5126 C   0  0  0  0  0  0  0  0  0  0  0  0
   11.6602  -18.8359   22.4486 C   0  0  0  0  0  0  0  0  0  0  0  0
   12.9890  -19.4214   22.1656 C   0  0  0  0  0  0  0  0  0  0  0  0
   13.0271  -20.8020   22.8073 C   0  0  0  0  0  0  0  0  0  0  0  0
   14.2299  -21.5167   22.4935 N   0  0  0  0  0  0  0  0  0  0  0  0
   10.3455  -16.1828   24.9063 C   0  0  0  0  0  0  0  0  0  0  0  0
   10.9791  -15.1014   24.8371 O   0  0  0  0  0  0  0  0  0  0  0  0
    9.7116  -16.5047   26.1252 N   0  0  0  0  0  0  0  0  0  0  0  0
    9.9845  -15.7948   27.3829 C   0  0  1  0  0  0  0  0  0  0  0  0
    8.6473  -15.3664   27.9423 C   0  0  0  0  0  0  0  0  0  0  0  0
    8.0298  -14.2749   27.1589 C   0  0  0  0  0  0  0  0  0  0  0  0
    7.0573  -14.5335   26.2173 C   0  0  0  0  0  0  0  0  0  0  0  0
    6.5035  -13.4783   25.5037 C   0  0  0  0  0  0  0  0  0  0  0  0
    6.8817  -12.1715   25.6919 C   0  0  0  0  0  0  0  0  0  0  0  0
    7.8544  -11.9101   26.6332 C   0  0  0  0  0  0  0  0  0  0  0  0
    8.4128  -12.9484   27.3490 C   0  0  0  0  0  0  0  0  0  0  0  0
   10.8025  -16.5917   28.2908 C   0  0  0  0  0  0  0  0  0  0  0  0
   11.1953  -17.8866   27.9921 O   0  0  0  0  0  0  0  0  0  0  0  0
   11.1746  -16.1090   29.3845 O   0  0  0  0  0  0  0  0  0  0  0  0
  2  1  1  1
  2  3  1  0
  4  2  1  0
  5  4  1  0
  5  6  1  6
  7  5  1  0
  7  8  2  0
  9  7  1  0
 10  9  1  0
 11 12  1  0
 10 11  1  6
 12 13  1  0
 13 14  1  0
 14 15  1  0
 16 10  1  0
 17 16  2  0
 18 16  1  0
 19 18  1  0
 19 20  1  1
 21 22  2  0
 21 20  1  0
 23 22  1  0
 24 23  2  0
 25 24  1  0
 25 26  2  0
 26 21  1  0
 27 19  1  0
 28 27  1  0
 29 27  2  0
M  END
$$$$
