LKF.pdb
     RDKit          3D

 29 29  0  0  1  0  0  0  0  0999 V2000
    8.6945  -13.0939   18.3118 C   0  0  0  0  0  0  0  0  0  0  0  0
    7.4992  -13.3042   19.1854 C   0  0  2  0  0  0  0  0  0  0  0  0
    7.0111  -11.9633   19.6566 C   0  0  0  0  0  0  0  0  0  0  0  0
    7.8185  -14.2455   20.3300 C   0  0  0  0  0  0  0  0  0  0  0  0
    8.1396  -15.5904   19.7175 C   0  0  2  0  0  0  0  0  0  0  0  0
    6.9654  -16.0667   19.0415 N   0  0  0  0  0  0  0  0  0  0  0  0
    8.6675  -16.5547   20.7034 C   0  0  0  0  0  0  0  0  0  0  0  0
    7.9368  -17.0808   21.5578 O   0  0  0  0  0  0  0  0  0  0  0  0
   10.0547  -16.8840   20.6650 N   0  0  0  0  0  0  0  0  0  0  0  0
   10.6984  -17.6911   21.6625 C   0  0  1  0  0  0  0  0  0  0  0  0
   11.9424  -18.2966   21.1492 C   0  0  0  0  0  0  0  0  0  0  0  0
   11.8653  -19.3417   20.1144 C   0  0  0  0  0  0  0  0  0  0  0  0
   13.1240  -19.9065   19.5801 C   0  0  0  0  0  0  0  0  0  0  0  0
   12.7511  -21.0221   18.6130 C   0  0  0  0  0  0  0  0  0  0  0  0
   13.8988  -21.5972   17.9742 N   0  0  0  0  0  0  0  0  0  0  0  0
   10.9845  -16.8460   22.8967 C   0  0  0  0  0  0  0  0  0  0  0  0
   11.5121  -15.7116   22.7950 O   0  0  0  0  0  0  0  0  0  0  0  0
   10.6637  -17.3163   24.1878 N   0  0  0  0  0  0  0  0  0  0  0  0
   10.9517  -16.5564   25.4125 C   0  0  1  0  0  0  0  0  0  0  0  0
    9.6213  -16.2564   26.0641 C   0  0  0  0  0  0  0  0  0  0  0  0
    9.7684  -15.5183   27.3369 C   0  0  0  0  0  0  0  0  0  0  0  0
    9.5244  -14.1638   27.4091 C   0  0  0  0  0  0  0  0  0  0  0  0
    9.6745  -13.5094   28.6251 C   0  0  0  0  0  0  0  0  0  0  0  0
   10.0593  -14.1534   29.7755 C   0  0  0  0  0  0  0  0  0  0  0  0
   10.3040  -15.5083   29.7059 C   0  0  0  0  0  0  0  0  0  0  0  0
   10.1588  -16.1707   28.5049 C   0  0  0  0  0  0  0  0  0  0  0  0
   11.9119  -17.2462   26.2674 C   0  0  0  0  0  0  0  0  0  0  0  0
   11.8634  -18.6141   26.4838 O   0  0  0  0  0  0  0  0  0  0  0  0
   12.8207  -16.5995   26.8360 O   0  0  0  0  0  0  0  0  0  0  0  0
  2  1  1  1
  2  3  1  0
  4  2  1  0
  5  4  1  0
  5  6  1  1
  7  5  1  0
  7  8  2  0
  9  7  1  0
 10  9  1  0
 11 12  1  0
 10 11  1  6
 12 13  1  0
 13 14  1  0
 14 15  1  0
 16 10  1  0
 17 16  2  0
 18 16  1  0
 19 18  1  0
 19 20  1  1
 21 22  2  0
 21 20  1  0
 23 22  1  0
 24 23  2  0
 25 24  1  0
 25 26  2  0
 26 21  1  0
 27 19  1  0
 28 27  1  0
 29 27  2  0
M  END
$$$$
