LKF.pdb
     RDKit          3D

 29 29  0  0  1  0  0  0  0  0999 V2000
    9.2582  -12.6558   19.3574 C   0  0  0  0  0  0  0  0  0  0  0  0
    8.0670  -13.1685   18.6127 C   0  0  2  0  0  0  0  0  0  0  0  0
    7.2026  -11.9995   18.2329 C   0  0  0  0  0  0  0  0  0  0  0  0
    7.3209  -14.2079   19.4256 C   0  0  0  0  0  0  0  0  0  0  0  0
    8.3532  -15.1804   19.9508 C   0  0  2  0  0  0  0  0  0  0  0  0
    8.6758  -16.1029   18.8984 N   0  0  0  0  0  0  0  0  0  0  0  0
    7.9236  -15.8521   21.1937 C   0  0  0  0  0  0  0  0  0  0  0  0
    7.5568  -15.2092   22.1900 O   0  0  0  0  0  0  0  0  0  0  0  0
    7.9339  -17.2776   21.2410 N   0  0  0  0  0  0  0  0  0  0  0  0
    7.6367  -18.0264   22.4292 C   0  0  1  0  0  0  0  0  0  0  0  0
    7.6533  -19.4793   22.1720 C   0  0  0  0  0  0  0  0  0  0  0  0
    7.5453  -20.4160   23.3034 C   0  0  0  0  0  0  0  0  0  0  0  0
    6.3711  -21.3133   23.3730 C   0  0  0  0  0  0  0  0  0  0  0  0
    6.2924  -21.8549   24.7942 C   0  0  0  0  0  0  0  0  0  0  0  0
    6.3337  -23.2876   24.8355 N   0  0  0  0  0  0  0  0  0  0  0  0
    8.6329  -17.6653   23.5229 C   0  0  0  0  0  0  0  0  0  0  0  0
    9.8676  -17.6621   23.2969 O   0  0  0  0  0  0  0  0  0  0  0  0
    8.1939  -17.3247   24.8200 N   0  0  0  0  0  0  0  0  0  0  0  0
    9.0809  -16.7506   25.8418 C   0  0  1  0  0  0  0  0  0  0  0  0
    8.2405  -15.8057   26.6696 C   0  0  0  0  0  0  0  0  0  0  0  0
    9.0280  -15.1136   27.7122 C   0  0  0  0  0  0  0  0  0  0  0  0
    9.3485  -13.7783   27.5964 C   0  0  0  0  0  0  0  0  0  0  0  0
   10.0901  -13.1671   28.5993 C   0  0  0  0  0  0  0  0  0  0  0  0
   10.5264  -13.8362   29.7166 C   0  0  0  0  0  0  0  0  0  0  0  0
   10.2072  -15.1721   29.8348 C   0  0  0  0  0  0  0  0  0  0  0  0
    9.4713  -15.7916   28.8464 C   0  0  0  0  0  0  0  0  0  0  0  0
    9.7729  -17.7843   26.6042 C   0  0  0  0  0  0  0  0  0  0  0  0
   11.1090  -17.6772   26.9561 O   0  0  0  0  0  0  0  0  0  0  0  0
    9.1577  -18.8137   26.9640 O   0  0  0  0  0  0  0  0  0  0  0  0
  2  1  1  1
  2  3  1  0
  4  2  1  0
  5  4  1  0
  5  6  1  6
  7  5  1  0
  7  8  2  0
  9  7  1  0
 10  9  1  0
 11 12  1  0
 10 11  1  6
 12 13  1  0
 13 14  1  0
 14 15  1  0
 16 10  1  0
 17 16  2  0
 18 16  1  0
 19 18  1  0
 19 20  1  1
 21 22  2  0
 21 20  1  0
 23 22  1  0
 24 23  2  0
 25 24  1  0
 25 26  2  0
 26 21  1  0
 27 19  1  0
 28 27  1  0
 29 27  2  0
M  END
$$$$
