LKF.pdb
     RDKit          3D

 29 29  0  0  1  0  0  0  0  0999 V2000
    9.1525  -12.7376   19.3920 C   0  0  0  0  0  0  0  0  0  0  0  0
    7.9179  -13.3908   18.8578 C   0  0  2  0  0  0  0  0  0  0  0  0
    7.0683  -12.3397   18.2008 C   0  0  0  0  0  0  0  0  0  0  0  0
    7.1806  -14.1400   19.9501 C   0  0  0  0  0  0  0  0  0  0  0  0
    8.2122  -14.9528   20.7000 C   0  0  2  0  0  0  0  0  0  0  0  0
    8.8012  -15.8864   19.7813 N   0  0  0  0  0  0  0  0  0  0  0  0
    7.6602  -15.6019   21.9060 C   0  0  0  0  0  0  0  0  0  0  0  0
    7.0959  -14.9494   22.7984 O   0  0  0  0  0  0  0  0  0  0  0  0
    7.7834  -17.0165   22.0400 N   0  0  0  0  0  0  0  0  0  0  0  0
    7.3043  -17.7422   23.1822 C   0  0  1  0  0  0  0  0  0  0  0  0
    7.3759  -19.2003   22.9666 C   0  0  0  0  0  0  0  0  0  0  0  0
    6.8514  -20.1111   23.9983 C   0  0  0  0  0  0  0  0  0  0  0  0
    6.9458  -21.5701   23.7721 C   0  0  0  0  0  0  0  0  0  0  0  0
    5.7316  -22.2146   24.4275 C   0  0  0  0  0  0  0  0  0  0  0  0
    4.6192  -22.3223   23.5292 N   0  0  0  0  0  0  0  0  0  0  0  0
    8.1063  -17.3435   24.4139 C   0  0  0  0  0  0  0  0  0  0  0  0
    9.3605  -17.3037   24.3832 O   0  0  0  0  0  0  0  0  0  0  0  0
    7.4602  -17.0082   25.6227 N   0  0  0  0  0  0  0  0  0  0  0  0
    8.1871  -16.6152   26.8382 C   0  0  1  0  0  0  0  0  0  0  0  0
    7.3713  -15.5312   27.5045 C   0  0  0  0  0  0  0  0  0  0  0  0
    7.5400  -14.2148   26.8526 C   0  0  0  0  0  0  0  0  0  0  0  0
    8.7621  -13.5782   26.8349 C   0  0  0  0  0  0  0  0  0  0  0  0
    8.8765  -12.3423   26.2113 C   0  0  0  0  0  0  0  0  0  0  0  0
    7.8177  -11.7138   25.6027 C   0  0  0  0  0  0  0  0  0  0  0  0
    6.5941  -12.3486   25.6191 C   0  0  0  0  0  0  0  0  0  0  0  0
    6.4663  -13.5761   26.2348 C   0  0  0  0  0  0  0  0  0  0  0  0
    8.4903  -17.7635   27.6857 C   0  0  0  0  0  0  0  0  0  0  0  0
    9.4646  -17.7219   28.6703 O   0  0  0  0  0  0  0  0  0  0  0  0
    7.8604  -18.8351   27.5360 O   0  0  0  0  0  0  0  0  0  0  0  0
  2  1  1  1
  2  3  1  0
  4  2  1  0
  5  4  1  0
  5  6  1  6
  7  5  1  0
  7  8  2  0
  9  7  1  0
 10  9  1  0
 11 12  1  0
 10 11  1  6
 12 13  1  0
 13 14  1  0
 14 15  1  0
 16 10  1  0
 17 16  2  0
 18 16  1  0
 19 18  1  0
 19 20  1  1
 21 22  2  0
 21 20  1  0
 23 22  1  0
 24 23  2  0
 25 24  1  0
 25 26  2  0
 26 21  1  0
 27 19  1  0
 28 27  1  0
 29 27  2  0
M  END
$$$$
