LKF.pdb
     RDKit          3D

 29 29  0  0  1  0  0  0  0  0999 V2000
    6.4489  -13.6463   18.2085 C   0  0  0  0  0  0  0  0  0  0  0  0
    7.0626  -13.6340   19.5721 C   0  0  2  0  0  0  0  0  0  0  0  0
    8.2257  -12.6825   19.5631 C   0  0  0  0  0  0  0  0  0  0  0  0
    7.4544  -15.0324   20.0069 C   0  0  0  0  0  0  0  0  0  0  0  0
    7.5742  -15.0075   21.5143 C   0  0  2  0  0  0  0  0  0  0  0  0
    8.1885  -13.7662   21.8944 N   0  0  0  0  0  0  0  0  0  0  0  0
    8.2816  -16.1879   22.0498 C   0  0  0  0  0  0  0  0  0  0  0  0
    7.8193  -17.3340   21.9345 O   0  0  0  0  0  0  0  0  0  0  0  0
    9.5284  -15.9959   22.7154 N   0  0  0  0  0  0  0  0  0  0  0  0
   10.2845  -17.0711   23.2926 C   0  0  1  0  0  0  0  0  0  0  0  0
   11.6560  -17.1207   22.7504 C   0  0  0  0  0  0  0  0  0  0  0  0
   12.5115  -18.2814   23.0507 C   0  0  0  0  0  0  0  0  0  0  0  0
   13.8810  -18.3178   22.4923 C   0  0  0  0  0  0  0  0  0  0  0  0
   14.4421  -19.7106   22.7460 C   0  0  0  0  0  0  0  0  0  0  0  0
   15.7017  -19.9189   22.0933 N   0  0  0  0  0  0  0  0  0  0  0  0
   10.3133  -16.9193   24.8076 C   0  0  0  0  0  0  0  0  0  0  0  0
   11.3583  -17.1574   25.4610 O   0  0  0  0  0  0  0  0  0  0  0  0
    9.1655  -16.5069   25.5171 N   0  0  0  0  0  0  0  0  0  0  0  0
    9.0546  -16.5894   26.9804 C   0  0  1  0  0  0  0  0  0  0  0  0
    7.7644  -15.9002   27.3608 C   0  0  0  0  0  0  0  0  0  0  0  0
    7.6921  -14.5139   26.8518 C   0  0  0  0  0  0  0  0  0  0  0  0
    6.5664  -14.0473   26.2080 C   0  0  0  0  0  0  0  0  0  0  0  0
    6.5406  -12.7378   25.7456 C   0  0  0  0  0  0  0  0  0  0  0  0
    7.5956  -11.8721   25.8998 C   0  0  0  0  0  0  0  0  0  0  0  0
    8.7229  -12.3363   26.5434 C   0  0  0  0  0  0  0  0  0  0  0  0
    8.7620  -13.6345   27.0077 C   0  0  0  0  0  0  0  0  0  0  0  0
    9.1814  -17.9618   27.4589 C   0  0  0  0  0  0  0  0  0  0  0  0
    9.1130  -19.0533   26.6079 O   0  0  0  0  0  0  0  0  0  0  0  0
    9.3588  -18.1854   28.6780 O   0  0  0  0  0  0  0  0  0  0  0  0
  2  1  1  6
  2  3  1  0
  4  2  1  0
  5  4  1  0
  5  6  1  6
  7  5  1  0
  7  8  2  0
  9  7  1  0
 10  9  1  0
 11 12  1  0
 10 11  1  6
 12 13  1  0
 13 14  1  0
 14 15  1  0
 16 10  1  0
 17 16  2  0
 18 16  1  0
 19 18  1  0
 19 20  1  6
 21 22  2  0
 21 20  1  0
 23 22  1  0
 24 23  2  0
 25 24  1  0
 25 26  2  0
 26 21  1  0
 27 19  1  0
 28 27  1  0
 29 27  2  0
M  END
$$$$
