LKF.pdb
     RDKit          3D

 29 29  0  0  1  0  0  0  0  0999 V2000
    9.3923  -13.4771   19.2627 C   0  0  0  0  0  0  0  0  0  0  0  0
    7.9148  -13.3523   19.4561 C   0  0  2  0  0  0  0  0  0  0  0  0
    7.5459  -11.8972   19.3860 C   0  0  0  0  0  0  0  0  0  0  0  0
    7.4769  -14.0048   20.7524 C   0  0  0  0  0  0  0  0  0  0  0  0
    7.9223  -15.4488   20.6909 C   0  0  2  0  0  0  0  0  0  0  0  0
    7.0500  -16.1486   19.7898 N   0  0  0  0  0  0  0  0  0  0  0  0
    7.9991  -16.0792   22.0240 C   0  0  0  0  0  0  0  0  0  0  0  0
    7.0314  -16.0827   22.8012 O   0  0  0  0  0  0  0  0  0  0  0  0
    9.2217  -16.6979   22.4199 N   0  0  0  0  0  0  0  0  0  0  0  0
    9.3678  -17.4389   23.6408 C   0  0  1  0  0  0  0  0  0  0  0  0
   10.3162  -18.5585   23.4845 C   0  0  0  0  0  0  0  0  0  0  0  0
    9.9350  -19.7210   22.6645 C   0  0  0  0  0  0  0  0  0  0  0  0
   10.9730  -20.3822   21.8436 C   0  0  0  0  0  0  0  0  0  0  0  0
   10.3086  -21.5401   21.1108 C   0  0  0  0  0  0  0  0  0  0  0  0
   11.2031  -22.1966   20.2026 N   0  0  0  0  0  0  0  0  0  0  0  0
    9.8220  -16.5044   24.7542 C   0  0  0  0  0  0  0  0  0  0  0  0
   10.7488  -15.6789   24.5669 O   0  0  0  0  0  0  0  0  0  0  0  0
    9.2126  -16.5421   26.0263 N   0  0  0  0  0  0  0  0  0  0  0  0
    9.7282  -15.7989   27.1848 C   0  0  1  0  0  0  0  0  0  0  0  0
    8.5306  -15.2138   27.8974 C   0  0  0  0  0  0  0  0  0  0  0  0
    7.9611  -14.0502   27.1846 C   0  0  0  0  0  0  0  0  0  0  0  0
    6.7032  -14.1019   26.6240 C   0  0  0  0  0  0  0  0  0  0  0  0
    6.2064  -12.9856   25.9633 C   0  0  0  0  0  0  0  0  0  0  0  0
    6.9157  -11.8162   25.8388 C   0  0  0  0  0  0  0  0  0  0  0  0
    8.1744  -11.7619   26.3987 C   0  0  0  0  0  0  0  0  0  0  0  0
    8.6800  -12.8630   27.0577 C   0  0  0  0  0  0  0  0  0  0  0  0
   10.5952  -16.6246   28.0185 C   0  0  0  0  0  0  0  0  0  0  0  0
   10.7521  -17.9850   27.8060 O   0  0  0  0  0  0  0  0  0  0  0  0
   11.2300  -16.1071   28.9655 O   0  0  0  0  0  0  0  0  0  0  0  0
  2  1  1  1
  2  3  1  0
  4  2  1  0
  5  4  1  0
  5  6  1  6
  7  5  1  0
  7  8  2  0
  9  7  1  0
 10  9  1  0
 11 12  1  0
 10 11  1  6
 12 13  1  0
 13 14  1  0
 14 15  1  0
 16 10  1  0
 17 16  2  0
 18 16  1  0
 19 18  1  0
 19 20  1  1
 21 22  2  0
 21 20  1  0
 23 22  1  0
 24 23  2  0
 25 24  1  0
 25 26  2  0
 26 21  1  0
 27 19  1  0
 28 27  1  0
 29 27  2  0
M  END
$$$$
