LKF.pdb
     RDKit          3D

 29 29  0  0  1  0  0  0  0  0999 V2000
    7.9181  -11.9482   20.7628 C   0  0  0  0  0  0  0  0  0  0  0  0
    8.3392  -13.2684   20.2007 C   0  0  2  0  0  0  0  0  0  0  0  0
    8.9477  -13.0378   18.8462 C   0  0  0  0  0  0  0  0  0  0  0  0
    7.1769  -14.2408   20.1619 C   0  0  0  0  0  0  0  0  0  0  0  0
    7.7679  -15.6325   20.1310 C   0  0  2  0  0  0  0  0  0  0  0  0
    7.0252  -16.4138   19.1820 N   0  0  0  0  0  0  0  0  0  0  0  0
    7.8287  -16.2561   21.4682 C   0  0  0  0  0  0  0  0  0  0  0  0
    6.8017  -16.5106   22.1171 O   0  0  0  0  0  0  0  0  0  0  0  0
    9.1056  -16.5706   22.0203 N   0  0  0  0  0  0  0  0  0  0  0  0
    9.2753  -17.3539   23.2113 C   0  0  1  0  0  0  0  0  0  0  0  0
   10.2085  -18.4759   22.9931 C   0  0  0  0  0  0  0  0  0  0  0  0
   10.4636  -19.4284   24.0871 C   0  0  0  0  0  0  0  0  0  0  0  0
   11.5087  -20.4591   23.9023 C   0  0  0  0  0  0  0  0  0  0  0  0
   11.5054  -21.3421   25.1430 C   0  0  0  0  0  0  0  0  0  0  0  0
   10.9907  -22.6540   24.8781 N   0  0  0  0  0  0  0  0  0  0  0  0
    9.7665  -16.4619   24.3436 C   0  0  0  0  0  0  0  0  0  0  0  0
   10.7474  -15.6953   24.1831 O   0  0  0  0  0  0  0  0  0  0  0  0
    9.1316  -16.4737   25.6036 N   0  0  0  0  0  0  0  0  0  0  0  0
    9.6637  -15.7652   26.7763 C   0  0  1  0  0  0  0  0  0  0  0  0
    8.4768  -15.1953   27.5187 C   0  0  0  0  0  0  0  0  0  0  0  0
    7.8991  -14.0150   26.8409 C   0  0  0  0  0  0  0  0  0  0  0  0
    6.7571  -14.1184   26.0765 C   0  0  0  0  0  0  0  0  0  0  0  0
    6.2479  -12.9841   25.4571 C   0  0  0  0  0  0  0  0  0  0  0  0
    6.8337  -11.7470   25.5697 C   0  0  0  0  0  0  0  0  0  0  0  0
    7.9763  -11.6409   26.3338 C   0  0  0  0  0  0  0  0  0  0  0  0
    8.4927  -12.7591   26.9545 C   0  0  0  0  0  0  0  0  0  0  0  0
   10.5365  -16.6173   27.5767 C   0  0  0  0  0  0  0  0  0  0  0  0
   10.6959  -17.9689   27.3158 O   0  0  0  0  0  0  0  0  0  0  0  0
   11.1741  -16.1317   28.5386 O   0  0  0  0  0  0  0  0  0  0  0  0
  2  1  1  6
  2  3  1  0
  4  2  1  0
  5  4  1  0
  5  6  1  6
  7  5  1  0
  7  8  2  0
  9  7  1  0
 10  9  1  0
 11 12  1  0
 10 11  1  6
 12 13  1  0
 13 14  1  0
 14 15  1  0
 16 10  1  0
 17 16  2  0
 18 16  1  0
 19 18  1  0
 19 20  1  1
 21 22  2  0
 21 20  1  0
 23 22  1  0
 24 23  2  0
 25 24  1  0
 25 26  2  0
 26 21  1  0
 27 19  1  0
 28 27  1  0
 29 27  2  0
M  END
$$$$
