LKF.pdb
     RDKit          3D

 29 29  0  0  1  0  0  0  0  0999 V2000
    9.0241  -12.5725   19.4116 C   0  0  0  0  0  0  0  0  0  0  0  0
    7.7111  -13.2432   19.1617 C   0  0  2  0  0  0  0  0  0  0  0  0
    6.7005  -12.1924   18.7973 C   0  0  0  0  0  0  0  0  0  0  0  0
    7.2863  -14.0737   20.3566 C   0  0  0  0  0  0  0  0  0  0  0  0
    8.5423  -14.6835   20.9378 C   0  0  2  0  0  0  0  0  0  0  0  0
    9.1346  -15.5275   19.9381 N   0  0  0  0  0  0  0  0  0  0  0  0
    8.2977  -15.3863   22.2133 C   0  0  0  0  0  0  0  0  0  0  0  0
    7.6126  -14.8805   23.1164 O   0  0  0  0  0  0  0  0  0  0  0  0
    8.8677  -16.6798   22.4033 N   0  0  0  0  0  0  0  0  0  0  0  0
    8.6538  -17.4667   23.5847 C   0  0  1  0  0  0  0  0  0  0  0  0
    9.0957  -18.8617   23.3936 C   0  0  0  0  0  0  0  0  0  0  0  0
    8.3690  -19.7284   22.4505 C   0  0  0  0  0  0  0  0  0  0  0  0
    8.8757  -21.0972   22.2088 C   0  0  0  0  0  0  0  0  0  0  0  0
    7.9578  -21.7511   21.1846 C   0  0  0  0  0  0  0  0  0  0  0  0
    8.4344  -21.5888   19.8420 N   0  0  0  0  0  0  0  0  0  0  0  0
    9.3828  -16.8310   24.7609 C   0  0  0  0  0  0  0  0  0  0  0  0
   10.5426  -16.3694   24.6290 O   0  0  0  0  0  0  0  0  0  0  0  0
    8.7734  -16.7439   26.0306 N   0  0  0  0  0  0  0  0  0  0  0  0
    9.4698  -16.2361   27.2211 C   0  0  1  0  0  0  0  0  0  0  0  0
    8.4712  -15.4006   27.9888 C   0  0  0  0  0  0  0  0  0  0  0  0
    8.0798  -14.1752   27.2598 C   0  0  0  0  0  0  0  0  0  0  0  0
    8.9174  -13.0825   27.1987 C   0  0  0  0  0  0  0  0  0  0  0  0
    8.5104  -11.9513   26.5029 C   0  0  0  0  0  0  0  0  0  0  0  0
    7.2978  -11.8657   25.8635 C   0  0  0  0  0  0  0  0  0  0  0  0
    6.4581  -12.9575   25.9232 C   0  0  0  0  0  0  0  0  0  0  0  0
    6.8497  -14.0872   26.6107 C   0  0  0  0  0  0  0  0  0  0  0  0
   10.0891  -17.3112   27.9888 C   0  0  0  0  0  0  0  0  0  0  0  0
   11.0078  -17.0682   28.9975 O   0  0  0  0  0  0  0  0  0  0  0  0
    9.7952  -18.5035   27.7450 O   0  0  0  0  0  0  0  0  0  0  0  0
  2  1  1  1
  2  3  1  0
  4  2  1  0
  5  4  1  0
  5  6  1  6
  7  5  1  0
  7  8  2  0
  9  7  1  0
 10  9  1  0
 11 12  1  0
 10 11  1  6
 12 13  1  0
 13 14  1  0
 14 15  1  0
 16 10  1  0
 17 16  2  0
 18 16  1  0
 19 18  1  0
 19 20  1  1
 21 22  2  0
 21 20  1  0
 23 22  1  0
 24 23  2  0
 25 24  1  0
 25 26  2  0
 26 21  1  0
 27 19  1  0
 28 27  1  0
 29 27  2  0
M  END
$$$$
