LKF.pdb
     RDKit          3D

 29 29  0  0  1  0  0  0  0  0999 V2000
    9.2069  -13.0648   19.2948 C   0  0  0  0  0  0  0  0  0  0  0  0
    7.7841  -13.4796   19.0951 C   0  0  2  0  0  0  0  0  0  0  0  0
    7.0063  -12.2928   18.6006 C   0  0  0  0  0  0  0  0  0  0  0  0
    7.2046  -14.0708   20.3650 C   0  0  0  0  0  0  0  0  0  0  0  0
    8.2476  -15.0091   20.9297 C   0  0  2  0  0  0  0  0  0  0  0  0
    8.4433  -16.0784   19.9912 N   0  0  0  0  0  0  0  0  0  0  0  0
    7.9102  -15.4874   22.2854 C   0  0  0  0  0  0  0  0  0  0  0  0
    7.5250  -14.7116   23.1744 O   0  0  0  0  0  0  0  0  0  0  0  0
    8.0333  -16.8793   22.5713 N   0  0  0  0  0  0  0  0  0  0  0  0
    7.6960  -17.4529   23.8434 C   0  0  1  0  0  0  0  0  0  0  0  0
    7.7500  -18.9270   23.8042 C   0  0  0  0  0  0  0  0  0  0  0  0
    7.3139  -19.6989   24.9803 C   0  0  0  0  0  0  0  0  0  0  0  0
    7.3161  -21.1762   24.9010 C   0  0  0  0  0  0  0  0  0  0  0  0
    7.3627  -21.7110   26.3262 C   0  0  0  0  0  0  0  0  0  0  0  0
    6.0609  -22.0426   26.8276 N   0  0  0  0  0  0  0  0  0  0  0  0
    8.6351  -16.9115   24.9129 C   0  0  0  0  0  0  0  0  0  0  0  0
    9.8480  -16.7054   24.6637 O   0  0  0  0  0  0  0  0  0  0  0  0
    8.1663  -16.6269   26.2131 N   0  0  0  0  0  0  0  0  0  0  0  0
    9.0306  -16.1033   27.2804 C   0  0  1  0  0  0  0  0  0  0  0  0
    8.1799  -15.1741   28.1156 C   0  0  0  0  0  0  0  0  0  0  0  0
    7.7111  -13.9974   27.3528 C   0  0  0  0  0  0  0  0  0  0  0  0
    8.5268  -12.9047   27.1530 C   0  0  0  0  0  0  0  0  0  0  0  0
    8.0464  -11.8202   26.4301 C   0  0  0  0  0  0  0  0  0  0  0  0
    6.7814  -11.7815   25.8968 C   0  0  0  0  0  0  0  0  0  0  0  0
    5.9634  -12.8733   26.0953 C   0  0  0  0  0  0  0  0  0  0  0  0
    6.4276  -13.9570   26.8112 C   0  0  0  0  0  0  0  0  0  0  0  0
    9.6833  -17.1740   28.0261 C   0  0  0  0  0  0  0  0  0  0  0  0
    9.4018  -18.5123   27.8019 O   0  0  0  0  0  0  0  0  0  0  0  0
   10.5313  -16.8976   28.9046 O   0  0  0  0  0  0  0  0  0  0  0  0
  2  1  1  1
  2  3  1  0
  4  2  1  0
  5  4  1  0
  5  6  1  6
  7  5  1  0
  7  8  2  0
  9  7  1  0
 10  9  1  0
 11 12  1  0
 10 11  1  6
 12 13  1  0
 13 14  1  0
 14 15  1  0
 16 10  1  0
 17 16  2  0
 18 16  1  0
 19 18  1  0
 19 20  1  1
 21 22  2  0
 21 20  1  0
 23 22  1  0
 24 23  2  0
 25 24  1  0
 25 26  2  0
 26 21  1  0
 27 19  1  0
 28 27  1  0
 29 27  2  0
M  END
$$$$
