LKF.pdb
     RDKit          3D

 29 29  0  0  1  0  0  0  0  0999 V2000
    6.4147  -12.3121   24.2810 C   0  0  0  0  0  0  0  0  0  0  0  0
    5.8684  -12.7925   25.5875 C   0  0  2  0  0  0  0  0  0  0  0  0
    5.9832  -11.6795   26.5906 C   0  0  0  0  0  0  0  0  0  0  0  0
    6.5668  -14.0603   26.0381 C   0  0  0  0  0  0  0  0  0  0  0  0
    6.2068  -15.1393   25.0415 C   0  0  2  0  0  0  0  0  0  0  0  0
    5.0978  -15.8842   25.5688 N   0  0  0  0  0  0  0  0  0  0  0  0
    7.3573  -15.9939   24.6857 C   0  0  0  0  0  0  0  0  0  0  0  0
    7.7187  -16.9362   25.4082 O   0  0  0  0  0  0  0  0  0  0  0  0
    8.0656  -15.7215   23.4781 N   0  0  0  0  0  0  0  0  0  0  0  0
    9.1587  -16.5259   23.0100 C   0  0  1  0  0  0  0  0  0  0  0  0
    9.4423  -16.2767   21.5834 C   0  0  0  0  0  0  0  0  0  0  0  0
   10.4262  -17.1197   20.8830 C   0  0  0  0  0  0  0  0  0  0  0  0
   10.6922  -16.8603   19.4510 C   0  0  0  0  0  0  0  0  0  0  0  0
   11.8562  -17.7491   19.0333 C   0  0  0  0  0  0  0  0  0  0  0  0
   11.5963  -18.4497   17.8095 N   0  0  0  0  0  0  0  0  0  0  0  0
   10.3942  -16.2515   23.8569 C   0  0  0  0  0  0  0  0  0  0  0  0
   11.0709  -15.2071   23.6932 O   0  0  0  0  0  0  0  0  0  0  0  0
   10.8109  -17.1646   24.8487 N   0  0  0  0  0  0  0  0  0  0  0  0
   12.1159  -17.0793   25.5197 C   0  0  1  0  0  0  0  0  0  0  0  0
   11.8545  -17.2105   27.0026 C   0  0  0  0  0  0  0  0  0  0  0  0
   11.2163  -16.0051   27.5734 C   0  0  0  0  0  0  0  0  0  0  0  0
   11.9540  -14.8797   27.8713 C   0  0  0  0  0  0  0  0  0  0  0  0
   11.3143  -13.7689   28.4063 C   0  0  0  0  0  0  0  0  0  0  0  0
    9.9644  -13.7350   28.6569 C   0  0  0  0  0  0  0  0  0  0  0  0
    9.2242  -14.8594   28.3597 C   0  0  0  0  0  0  0  0  0  0  0  0
    9.8465  -15.9696   27.8281 C   0  0  0  0  0  0  0  0  0  0  0  0
   13.0700  -18.0406   24.9774 C   0  0  0  0  0  0  0  0  0  0  0  0
   12.7130  -18.9857   24.0289 O   0  0  0  0  0  0  0  0  0  0  0  0
   14.2594  -18.0299   25.3683 O   0  0  0  0  0  0  0  0  0  0  0  0
  2  1  1  6
  2  3  1  0
  4  2  1  0
  5  4  1  0
  5  6  1  1
  7  5  1  0
  7  8  2  0
  9  7  1  0
 10  9  1  0
 11 12  1  0
 10 11  1  6
 12 13  1  0
 13 14  1  0
 14 15  1  0
 16 10  1  0
 17 16  2  0
 18 16  1  0
 19 18  1  0
 19 20  1  1
 21 22  2  0
 21 20  1  0
 23 22  1  0
 24 23  2  0
 25 24  1  0
 25 26  2  0
 26 21  1  0
 27 19  1  0
 28 27  1  0
 29 27  2  0
M  END
$$$$
