LKF.pdb
     RDKit          3D

 29 29  0  0  1  0  0  0  0  0999 V2000
    9.0591  -12.2960   19.2398 C   0  0  0  0  0  0  0  0  0  0  0  0
    7.9786  -13.3040   19.0102 C   0  0  2  0  0  0  0  0  0  0  0  0
    6.8142  -12.6146   18.3567 C   0  0  0  0  0  0  0  0  0  0  0  0
    7.5968  -13.9988   20.3023 C   0  0  0  0  0  0  0  0  0  0  0  0
    8.8773  -14.5150   20.9197 C   0  0  2  0  0  0  0  0  0  0  0  0
    9.6480  -15.1502   19.8876 N   0  0  0  0  0  0  0  0  0  0  0  0
    8.6364  -15.3936   22.0818 C   0  0  0  0  0  0  0  0  0  0  0  0
    7.7466  -15.1489   22.9119 O   0  0  0  0  0  0  0  0  0  0  0  0
    9.4526  -16.5516   22.2462 N   0  0  0  0  0  0  0  0  0  0  0  0
    9.3641  -17.4198   23.3860 C   0  0  1  0  0  0  0  0  0  0  0  0
   10.1381  -18.6598   23.1838 C   0  0  0  0  0  0  0  0  0  0  0  0
    9.4287  -19.9153   22.8849 C   0  0  0  0  0  0  0  0  0  0  0  0
    8.9949  -20.1723   21.4940 C   0  0  0  0  0  0  0  0  0  0  0  0
    8.3121  -21.5333   21.4714 C   0  0  0  0  0  0  0  0  0  0  0  0
    7.9304  -21.9306   20.1475 N   0  0  0  0  0  0  0  0  0  0  0  0
    9.8484  -16.6834   24.6279 C   0  0  0  0  0  0  0  0  0  0  0  0
   10.9308  -16.0478   24.6212 O   0  0  0  0  0  0  0  0  0  0  0  0
    9.0928  -16.6962   25.8195 N   0  0  0  0  0  0  0  0  0  0  0  0
    9.5035  -15.9828   27.0372 C   0  0  1  0  0  0  0  0  0  0  0  0
    8.2479  -15.4085   27.6521 C   0  0  0  0  0  0  0  0  0  0  0  0
    7.7695  -14.2038   26.9406 C   0  0  0  0  0  0  0  0  0  0  0  0
    6.5580  -14.1964   26.2836 C   0  0  0  0  0  0  0  0  0  0  0  0
    6.1467  -13.0431   25.6279 C   0  0  0  0  0  0  0  0  0  0  0  0
    6.8972  -11.8932   25.6008 C   0  0  0  0  0  0  0  0  0  0  0  0
    8.1096  -11.8980   26.2572 C   0  0  0  0  0  0  0  0  0  0  0  0
    8.5303  -13.0364   26.9125 C   0  0  0  0  0  0  0  0  0  0  0  0
   10.2890  -16.8321   27.9262 C   0  0  0  0  0  0  0  0  0  0  0  0
   11.1037  -16.3127   28.9196 O   0  0  0  0  0  0  0  0  0  0  0  0
   10.2409  -18.0773   27.8057 O   0  0  0  0  0  0  0  0  0  0  0  0
  2  1  1  1
  2  3  1  0
  4  2  1  0
  5  4  1  0
  5  6  1  6
  7  5  1  0
  7  8  2  0
  9  7  1  0
 10  9  1  0
 11 12  1  0
 10 11  1  6
 12 13  1  0
 13 14  1  0
 14 15  1  0
 16 10  1  0
 17 16  2  0
 18 16  1  0
 19 18  1  0
 19 20  1  1
 21 22  2  0
 21 20  1  0
 23 22  1  0
 24 23  2  0
 25 24  1  0
 25 26  2  0
 26 21  1  0
 27 19  1  0
 28 27  1  0
 29 27  2  0
M  END
$$$$
