LKF.pdb
     RDKit          3D

 29 29  0  0  1  0  0  0  0  0999 V2000
    9.1125  -12.3734   19.5154 C   0  0  0  0  0  0  0  0  0  0  0  0
    8.0238  -13.3097   19.0980 C   0  0  2  0  0  0  0  0  0  0  0  0
    6.8375  -12.4973   18.6611 C   0  0  0  0  0  0  0  0  0  0  0  0
    7.6875  -14.2854   20.2084 C   0  0  0  0  0  0  0  0  0  0  0  0
    8.9827  -14.6056   20.9204 C   0  0  2  0  0  0  0  0  0  0  0  0
    9.8762  -15.2122   19.9737 N   0  0  0  0  0  0  0  0  0  0  0  0
    8.7803  -15.4281   22.1300 C   0  0  0  0  0  0  0  0  0  0  0  0
    7.8376  -15.2208   22.9103 O   0  0  0  0  0  0  0  0  0  0  0  0
    9.6975  -16.4864   22.4004 N   0  0  0  0  0  0  0  0  0  0  0  0
    9.5614  -17.3777   23.5174 C   0  0  1  0  0  0  0  0  0  0  0  0
   10.2786  -18.6468   23.2882 C   0  0  0  0  0  0  0  0  0  0  0  0
    9.8677  -19.5196   22.1753 C   0  0  0  0  0  0  0  0  0  0  0  0
    9.6215  -20.9523   22.4498 C   0  0  0  0  0  0  0  0  0  0  0  0
    9.2470  -21.6136   21.1301 C   0  0  0  0  0  0  0  0  0  0  0  0
    9.1626  -23.0408   21.2393 N   0  0  0  0  0  0  0  0  0  0  0  0
   10.0712  -16.6957   24.7800 C   0  0  0  0  0  0  0  0  0  0  0  0
   11.1831  -16.1135   24.7959 O   0  0  0  0  0  0  0  0  0  0  0  0
    9.3066  -16.7004   25.9660 N   0  0  0  0  0  0  0  0  0  0  0  0
    9.7984  -16.1555   27.2393 C   0  0  1  0  0  0  0  0  0  0  0  0
    8.6049  -15.5601   27.9503 C   0  0  0  0  0  0  0  0  0  0  0  0
    8.0504  -14.3877   27.2404 C   0  0  0  0  0  0  0  0  0  0  0  0
    8.6385  -13.1457   27.3449 C   0  0  0  0  0  0  0  0  0  0  0  0
    8.0849  -12.0710   26.6609 C   0  0  0  0  0  0  0  0  0  0  0  0
    6.9648  -12.1853   25.8743 C   0  0  0  0  0  0  0  0  0  0  0  0
    6.3745  -13.4267   25.7681 C   0  0  0  0  0  0  0  0  0  0  0  0
    6.9138  -14.5025   26.4420 C   0  0  0  0  0  0  0  0  0  0  0  0
   10.5366  -17.1517   28.0083 C   0  0  0  0  0  0  0  0  0  0  0  0
   11.4265  -16.8038   29.0120 O   0  0  0  0  0  0  0  0  0  0  0  0
   10.3762  -18.3703   27.7702 O   0  0  0  0  0  0  0  0  0  0  0  0
  2  1  1  1
  2  3  1  0
  4  2  1  0
  5  4  1  0
  5  6  1  6
  7  5  1  0
  7  8  2  0
  9  7  1  0
 10  9  1  0
 11 12  1  0
 10 11  1  6
 12 13  1  0
 13 14  1  0
 14 15  1  0
 16 10  1  0
 17 16  2  0
 18 16  1  0
 19 18  1  0
 19 20  1  1
 21 22  2  0
 21 20  1  0
 23 22  1  0
 24 23  2  0
 25 24  1  0
 25 26  2  0
 26 21  1  0
 27 19  1  0
 28 27  1  0
 29 27  2  0
M  END
$$$$
