LKF.pdb
     RDKit          3D

 29 29  0  0  1  0  0  0  0  0999 V2000
    9.0405  -12.9327   19.8340 C   0  0  0  0  0  0  0  0  0  0  0  0
    7.5656  -13.0563   20.0479 C   0  0  2  0  0  0  0  0  0  0  0  0
    6.9885  -11.6770   20.1991 C   0  0  0  0  0  0  0  0  0  0  0  0
    7.2589  -13.9516   21.2320 C   0  0  0  0  0  0  0  0  0  0  0  0
    7.8013  -15.3235   20.8989 C   0  0  2  0  0  0  0  0  0  0  0  0
    6.9313  -15.9255   19.9278 N   0  0  0  0  0  0  0  0  0  0  0  0
    7.9979  -16.1652   22.0962 C   0  0  0  0  0  0  0  0  0  0  0  0
    7.0407  -16.6726   22.7018 O   0  0  0  0  0  0  0  0  0  0  0  0
    9.3264  -16.3954   22.5613 N   0  0  0  0  0  0  0  0  0  0  0  0
    9.6269  -17.1897   23.7187 C   0  0  1  0  0  0  0  0  0  0  0  0
   10.6913  -18.1730   23.4393 C   0  0  0  0  0  0  0  0  0  0  0  0
   10.5493  -19.0873   22.2935 C   0  0  0  0  0  0  0  0  0  0  0  0
   11.6406  -20.0451   22.0096 C   0  0  0  0  0  0  0  0  0  0  0  0
   11.1961  -20.9118   20.8390 C   0  0  0  0  0  0  0  0  0  0  0  0
   12.1703  -21.9062   20.4952 N   0  0  0  0  0  0  0  0  0  0  0  0
   10.0284  -16.2801   24.8722 C   0  0  0  0  0  0  0  0  0  0  0  0
   10.9454  -15.4335   24.7385 O   0  0  0  0  0  0  0  0  0  0  0  0
    9.3797  -16.3652   26.1224 N   0  0  0  0  0  0  0  0  0  0  0  0
    9.8691  -15.6813   27.3279 C   0  0  1  0  0  0  0  0  0  0  0  0
    8.6786  -14.9908   27.9527 C   0  0  0  0  0  0  0  0  0  0  0  0
    8.1621  -13.8863   27.1163 C   0  0  0  0  0  0  0  0  0  0  0  0
    8.7956  -12.6629   27.0783 C   0  0  0  0  0  0  0  0  0  0  0  0
    8.2766  -11.6526   26.2788 C   0  0  0  0  0  0  0  0  0  0  0  0
    7.1477  -11.8136   25.5132 C   0  0  0  0  0  0  0  0  0  0  0  0
    6.5121  -13.0365   25.5495 C   0  0  0  0  0  0  0  0  0  0  0  0
    7.0167  -14.0486   26.3391 C   0  0  0  0  0  0  0  0  0  0  0  0
   10.5866  -16.5903   28.2153 C   0  0  0  0  0  0  0  0  0  0  0  0
   11.3525  -16.1386   29.2782 O   0  0  0  0  0  0  0  0  0  0  0  0
   10.5225  -17.8268   28.0291 O   0  0  0  0  0  0  0  0  0  0  0  0
  2  1  1  1
  2  3  1  0
  4  2  1  0
  5  4  1  0
  5  6  1  6
  7  5  1  0
  7  8  2  0
  9  7  1  0
 10  9  1  0
 11 12  1  0
 10 11  1  6
 12 13  1  0
 13 14  1  0
 14 15  1  0
 16 10  1  0
 17 16  2  0
 18 16  1  0
 19 18  1  0
 19 20  1  1
 21 22  2  0
 21 20  1  0
 23 22  1  0
 24 23  2  0
 25 24  1  0
 25 26  2  0
 26 21  1  0
 27 19  1  0
 28 27  1  0
 29 27  2  0
M  END
$$$$
