ICE.pdb
     RDKit          3D

 24 23  0  0  1  0  0  0  0  0999 V2000
   27.8241  -14.6549  -15.7312 C   0  0  0  0  0  0  0  0  0  0  0  0
   26.3644  -14.8278  -15.4711 C   0  0  0  0  0  0  0  0  0  0  0  0
   25.5616  -13.5646  -15.7695 C   0  0  2  0  0  0  0  0  0  0  0  0
   26.0192  -12.4064  -14.9383 C   0  0  0  0  0  0  0  0  0  0  0  0
   24.1212  -13.8872  -15.4367 C   0  0  2  0  0  0  0  0  0  0  0  0
   23.6949  -15.1315  -16.0302 N   0  0  0  0  0  0  0  0  0  0  0  0
   23.1944  -12.7987  -15.8419 C   0  0  0  0  0  0  0  0  0  0  0  0
   22.8913  -12.7165  -17.0598 O   0  0  0  0  0  0  0  0  0  0  0  0
   22.6831  -11.8980  -14.8744 N   0  0  0  0  0  0  0  0  0  0  0  0
   21.6732  -10.9097  -15.3113 C   0  0  1  0  0  0  0  0  0  0  0  0
   20.4048  -11.1927  -14.4883 C   0  0  0  0  0  0  0  0  0  0  0  0
   19.6805  -12.7907  -14.8865 S   0  0  0  0  0  0  0  0  0  0  0  0
   22.1161   -9.5516  -14.9644 C   0  0  0  0  0  0  0  0  0  0  0  0
   22.6870   -9.3733  -13.8310 O   0  0  0  0  0  0  0  0  0  0  0  0
   21.9757   -8.4169  -15.7623 N   0  0  0  0  0  0  0  0  0  0  0  0
   22.5029   -7.0957  -15.3864 C   0  0  1  0  0  0  0  0  0  0  0  0
   22.2793   -6.1596  -16.5433 C   0  0  0  0  0  0  0  0  0  0  0  0
   22.7570   -4.7896  -16.2244 C   0  0  0  0  0  0  0  0  0  0  0  0
   22.4744   -3.8300  -17.3485 C   0  0  0  0  0  0  0  0  0  0  0  0
   21.9438   -4.2658  -18.3802 O   0  0  0  0  0  0  0  0  0  0  0  0
   21.7943   -6.5824  -14.1952 C   0  0  0  0  0  0  0  0  0  0  0  0
   22.3141   -5.7766  -13.2187 O   0  0  0  0  0  0  0  0  0  0  0  0
   22.8027   -2.5122  -17.2158 O   0  0  0  0  0  0  0  0  0  0  0  0
   20.5623   -6.9478  -14.0856 O   0  0  0  0  0  0  0  0  0  0  0  0
  2  1  1  0
  3  5  1  0
  3  2  1  0
  3  4  1  1
  5  6  1  6
  5  7  1  0
  7  8  2  0
  9  7  1  0
  9 10  1  0
 10 13  1  0
 10 11  1  1
 12 11  1  0
 13 14  2  0
 15 13  1  0
 15 16  1  0
 16 21  1  0
 16 17  1  6
 18 17  1  0
 19 20  2  0
 19 18  1  0
 21 22  1  0
 23 19  1  0
 24 21  2  0
M  END
$$$$
