ICE.pdb
     RDKit          3D

 24 23  0  0  1  0  0  0  0  0999 V2000
   17.6411  -14.2060  -18.5679 C   0  0  0  0  0  0  0  0  0  0  0  0
   18.3985  -12.9226  -18.6538 C   0  0  0  0  0  0  0  0  0  0  0  0
   18.7489  -12.3550  -17.2811 C   0  0  2  0  0  0  0  0  0  0  0  0
   17.5233  -12.0445  -16.4791 C   0  0  0  0  0  0  0  0  0  0  0  0
   19.5240  -11.0802  -17.5329 C   0  0  2  0  0  0  0  0  0  0  0  0
   20.7022  -11.3130  -18.3331 N   0  0  0  0  0  0  0  0  0  0  0  0
   19.9067  -10.3974  -16.2698 C   0  0  0  0  0  0  0  0  0  0  0  0
   18.9950  -10.1647  -15.4353 O   0  0  0  0  0  0  0  0  0  0  0  0
   21.2558  -10.0312  -16.0356 N   0  0  0  0  0  0  0  0  0  0  0  0
   21.5649   -9.2699  -14.8057 C   0  0  1  0  0  0  0  0  0  0  0  0
   22.7806   -9.9592  -14.1628 C   0  0  0  0  0  0  0  0  0  0  0  0
   23.7656  -10.8602  -15.3691 S   0  0  0  0  0  0  0  0  0  0  0  0
   21.9797   -7.9028  -15.1518 C   0  0  0  0  0  0  0  0  0  0  0  0
   22.2748   -7.6519  -16.3734 O   0  0  0  0  0  0  0  0  0  0  0  0
   22.0840   -6.8311  -14.2662 N   0  0  0  0  0  0  0  0  0  0  0  0
   22.0513   -5.4239  -14.6947 C   0  0  1  0  0  0  0  0  0  0  0  0
   20.7412   -5.1812  -15.3942 C   0  0  0  0  0  0  0  0  0  0  0  0
   20.6492   -3.7841  -15.8905 C   0  0  0  0  0  0  0  0  0  0  0  0
   19.3322   -3.5244  -16.5704 C   0  0  0  0  0  0  0  0  0  0  0  0
   18.5630   -4.4784  -16.7557 O   0  0  0  0  0  0  0  0  0  0  0  0
   22.1550   -4.5299  -13.5222 C   0  0  0  0  0  0  0  0  0  0  0  0
   22.6219   -3.2434  -13.5136 O   0  0  0  0  0  0  0  0  0  0  0  0
   19.0099   -2.2593  -16.9671 O   0  0  0  0  0  0  0  0  0  0  0  0
   21.7622   -5.0382  -12.4039 O   0  0  0  0  0  0  0  0  0  0  0  0
  2  1  1  0
  3  5  1  0
  3  2  1  0
  3  4  1  1
  5  6  1  1
  5  7  1  0
  7  8  2  0
  9  7  1  0
  9 10  1  0
 10 13  1  0
 10 11  1  6
 12 11  1  0
 13 14  2  0
 15 13  1  0
 15 16  1  0
 16 21  1  0
 16 17  1  1
 18 17  1  0
 19 20  2  0
 19 18  1  0
 21 22  1  0
 23 19  1  0
 24 21  2  0
M  END
$$$$
