ICE.pdb
     RDKit          3D

 24 23  0  0  1  0  0  0  0  0999 V2000
   25.4039  -16.1917  -15.1477 C   0  0  0  0  0  0  0  0  0  0  0  0
   24.0838  -16.0070  -15.8195 C   0  0  0  0  0  0  0  0  0  0  0  0
   23.8241  -14.5558  -16.2142 C   0  0  2  0  0  0  0  0  0  0  0  0
   23.7496  -13.6595  -15.0172 C   0  0  0  0  0  0  0  0  0  0  0  0
   22.4956  -14.5429  -16.9382 C   0  0  2  0  0  0  0  0  0  0  0  0
   22.4944  -15.4236  -18.0814 N   0  0  0  0  0  0  0  0  0  0  0  0
   22.1015  -13.1746  -17.3632 C   0  0  0  0  0  0  0  0  0  0  0  0
   22.7702  -12.6361  -18.2823 O   0  0  0  0  0  0  0  0  0  0  0  0
   21.0089  -12.5200  -16.7416 N   0  0  0  0  0  0  0  0  0  0  0  0
   20.6281  -11.1801  -17.2392 C   0  0  1  0  0  0  0  0  0  0  0  0
   19.2511  -11.3402  -17.9060 C   0  0  0  0  0  0  0  0  0  0  0  0
   19.3672  -12.1204  -19.5230 S   0  0  0  0  0  0  0  0  0  0  0  0
   20.4536  -10.2555  -16.1099 C   0  0  0  0  0  0  0  0  0  0  0  0
   19.8960  -10.7004  -15.0453 O   0  0  0  0  0  0  0  0  0  0  0  0
   20.8438   -8.9173  -16.0809 N   0  0  0  0  0  0  0  0  0  0  0  0
   20.6710   -8.0515  -14.9039 C   0  0  1  0  0  0  0  0  0  0  0  0
   21.5916   -6.8709  -15.0560 C   0  0  0  0  0  0  0  0  0  0  0  0
   21.4251   -5.9130  -13.9328 C   0  0  0  0  0  0  0  0  0  0  0  0
   22.2295   -4.6602  -14.1507 C   0  0  0  0  0  0  0  0  0  0  0  0
   23.1468   -4.6826  -14.9838 O   0  0  0  0  0  0  0  0  0  0  0  0
   19.2737   -7.5770  -14.8191 C   0  0  0  0  0  0  0  0  0  0  0  0
   18.5724   -7.2993  -13.6771 O   0  0  0  0  0  0  0  0  0  0  0  0
   21.9400   -3.5338  -13.4370 O   0  0  0  0  0  0  0  0  0  0  0  0
   18.6746   -7.4192  -15.9502 O   0  0  0  0  0  0  0  0  0  0  0  0
  2  1  1  0
  3  5  1  0
  3  2  1  0
  3  4  1  1
  5  6  1  6
  5  7  1  0
  7  8  2  0
  9  7  1  0
  9 10  1  0
 10 13  1  0
 10 11  1  1
 12 11  1  0
 13 14  2  0
 15 13  1  0
 15 16  1  0
 16 21  1  0
 16 17  1  6
 18 17  1  0
 19 20  2  0
 19 18  1  0
 21 22  1  0
 23 19  1  0
 24 21  2  0
M  END
$$$$
