ICE.pdb
     RDKit          3D

 24 23  0  0  1  0  0  0  0  0999 V2000
   87.3016  -43.2003   19.4766 C   0  0  0  0  0  0  0  0  0  0  0  0
   85.9177  -42.6707   19.6569 C   0  0  0  0  0  0  0  0  0  0  0  0
   85.8661  -41.1455   19.6401 C   0  0  2  0  0  0  0  0  0  0  0  0
   86.4630  -40.5559   20.8802 C   0  0  0  0  0  0  0  0  0  0  0  0
   84.4029  -40.7700   19.5560 C   0  0  2  0  0  0  0  0  0  0  0  0
   83.5738  -41.6452   20.3492 N   0  0  0  0  0  0  0  0  0  0  0  0
   83.9082  -40.7500   18.1549 C   0  0  0  0  0  0  0  0  0  0  0  0
   83.6909  -41.8571   17.5992 O   0  0  0  0  0  0  0  0  0  0  0  0
   83.6965  -39.5167   17.4893 N   0  0  0  0  0  0  0  0  0  0  0  0
   84.0391  -38.2712   18.2099 C   0  0  1  0  0  0  0  0  0  0  0  0
   85.0546  -37.5250   17.3277 C   0  0  0  0  0  0  0  0  0  0  0  0
   85.8965  -38.6275   16.1820 S   0  0  0  0  0  0  0  0  0  0  0  0
   82.8520  -37.4112   18.3195 C   0  0  0  0  0  0  0  0  0  0  0  0
   82.7119  -36.7070   19.3809 O   0  0  0  0  0  0  0  0  0  0  0  0
   81.8450  -37.2819   17.3639 N   0  0  0  0  0  0  0  0  0  0  0  0
   80.4278  -37.0839   17.7066 C   0  0  1  0  0  0  0  0  0  0  0  0
   79.6234  -38.1266   16.9784 C   0  0  0  0  0  0  0  0  0  0  0  0
   80.3365  -38.6037   15.7657 C   0  0  0  0  0  0  0  0  0  0  0  0
   79.6454  -38.1565   14.5061 C   0  0  0  0  0  0  0  0  0  0  0  0
   80.2807  -38.1782   13.4422 O   0  0  0  0  0  0  0  0  0  0  0  0
   80.2277  -37.2378   19.1629 C   0  0  0  0  0  0  0  0  0  0  0  0
   79.6360  -36.3371   20.0067 O   0  0  0  0  0  0  0  0  0  0  0  0
   78.3470  -37.7397   14.5545 O   0  0  0  0  0  0  0  0  0  0  0  0
   80.6668  -38.3407   19.6671 O   0  0  0  0  0  0  0  0  0  0  0  0
  2  1  1  0
  3  5  1  0
  3  2  1  0
  3  4  1  1
  5  6  1  1
  5  7  1  0
  7  8  2  0
  9  7  1  0
  9 10  1  0
 10 13  1  0
 10 11  1  6
 12 11  1  0
 13 14  2  0
 15 13  1  0
 15 16  1  0
 16 21  1  0
 16 17  1  6
 18 17  1  0
 19 20  2  0
 19 18  1  0
 21 22  1  0
 23 19  1  0
 24 21  2  0
M  END
$$$$
