ICE.pdb
     RDKit          3D

 24 23  0  0  1  0  0  0  0  0999 V2000
   11.6300  -23.8087  -10.1246 C   0  0  0  0  0  0  0  0  0  0  0  0
   13.0340  -23.3924   -9.8350 C   0  0  0  0  0  0  0  0  0  0  0  0
   13.8827  -24.5344   -9.2831 C   0  0  2  0  0  0  0  0  0  0  0  0
   13.3867  -25.0007   -7.9495 C   0  0  0  0  0  0  0  0  0  0  0  0
   15.2866  -23.9893   -9.1373 C   0  0  2  0  0  0  0  0  0  0  0  0
   15.8591  -23.6228  -10.4103 N   0  0  0  0  0  0  0  0  0  0  0  0
   16.1892  -24.9427   -8.4413 C   0  0  0  0  0  0  0  0  0  0  0  0
   16.5078  -25.9942   -9.0534 O   0  0  0  0  0  0  0  0  0  0  0  0
   16.6615  -24.6566   -7.1360 N   0  0  0  0  0  0  0  0  0  0  0  0
   17.5659  -25.6359   -6.4949 C   0  0  1  0  0  0  0  0  0  0  0  0
   18.9606  -24.9874   -6.4708 C   0  0  0  0  0  0  0  0  0  0  0  0
   19.6732  -24.8506   -8.1172 S   0  0  0  0  0  0  0  0  0  0  0  0
   17.1667  -25.8480   -5.0961 C   0  0  0  0  0  0  0  0  0  0  0  0
   16.5257  -24.9108   -4.5019 O   0  0  0  0  0  0  0  0  0  0  0  0
   17.4195  -26.9903   -4.3379 N   0  0  0  0  0  0  0  0  0  0  0  0
   17.0515  -27.1148   -2.9188 C   0  0  1  0  0  0  0  0  0  0  0  0
   17.4460  -28.4911   -2.4551 C   0  0  0  0  0  0  0  0  0  0  0  0
   17.1130  -28.6897   -1.0211 C   0  0  0  0  0  0  0  0  0  0  0  0
   17.6354  -30.0047   -0.5092 C   0  0  0  0  0  0  0  0  0  0  0  0
   17.3676  -30.3358    0.6547 O   0  0  0  0  0  0  0  0  0  0  0  0
   17.7668  -26.1019   -2.1144 C   0  0  0  0  0  0  0  0  0  0  0  0
   19.0484  -25.6615   -2.3059 O   0  0  0  0  0  0  0  0  0  0  0  0
   18.3860  -30.8014   -1.3239 O   0  0  0  0  0  0  0  0  0  0  0  0
   17.0943  -25.5987   -1.1356 O   0  0  0  0  0  0  0  0  0  0  0  0
  2  1  1  0
  3  5  1  0
  3  2  1  0
  3  4  1  1
  5  6  1  6
  5  7  1  0
  7  8  2  0
  9  7  1  0
  9 10  1  0
 10 13  1  0
 10 11  1  1
 12 11  1  0
 13 14  2  0
 15 13  1  0
 15 16  1  0
 16 21  1  0
 16 17  1  1
 18 17  1  0
 19 20  2  0
 19 18  1  0
 21 22  1  0
 23 19  1  0
 24 21  2  0
M  END
$$$$
