ICE.pdb
     RDKit          3D

 24 23  0  0  1  0  0  0  0  0999 V2000
   22.4860  -13.7345  -18.1155 C   0  0  0  0  0  0  0  0  0  0  0  0
   21.2072  -13.6973  -17.3466 C   0  0  0  0  0  0  0  0  0  0  0  0
   20.5288  -12.3313  -17.4016 C   0  0  2  0  0  0  0  0  0  0  0  0
   21.3680  -11.2683  -16.7632 C   0  0  0  0  0  0  0  0  0  0  0  0
   19.2276  -12.4714  -16.6423 C   0  0  2  0  0  0  0  0  0  0  0  0
   18.4383  -13.5799  -17.1223 N   0  0  0  0  0  0  0  0  0  0  0  0
   18.4164  -11.2271  -16.6847 C   0  0  0  0  0  0  0  0  0  0  0  0
   17.5376  -11.1362  -17.5798 O   0  0  0  0  0  0  0  0  0  0  0  0
   18.6424  -10.1941  -15.7409 N   0  0  0  0  0  0  0  0  0  0  0  0
   17.7841   -8.9913  -15.8096 C   0  0  1  0  0  0  0  0  0  0  0  0
   16.3763   -9.4378  -15.3794 C   0  0  0  0  0  0  0  0  0  0  0  0
   16.3858  -10.2638  -13.7811 S   0  0  0  0  0  0  0  0  0  0  0  0
   18.2368   -7.9943  -14.8289 C   0  0  0  0  0  0  0  0  0  0  0  0
   18.8365   -8.4114  -13.7759 O   0  0  0  0  0  0  0  0  0  0  0  0
   18.0772   -6.6132  -14.9337 N   0  0  0  0  0  0  0  0  0  0  0  0
   18.6389   -5.6599  -13.9639 C   0  0  1  0  0  0  0  0  0  0  0  0
   20.1355   -5.8176  -13.9702 C   0  0  0  0  0  0  0  0  0  0  0  0
   20.7273   -5.2666  -15.2164 C   0  0  0  0  0  0  0  0  0  0  0  0
   22.2221   -5.4376  -15.2412 C   0  0  0  0  0  0  0  0  0  0  0  0
   22.9050   -4.7990  -14.4277 O   0  0  0  0  0  0  0  0  0  0  0  0
   18.2893   -4.2757  -14.3463 C   0  0  0  0  0  0  0  0  0  0  0  0
   18.5338   -3.1406  -13.6218 O   0  0  0  0  0  0  0  0  0  0  0  0
   22.7946   -6.2822  -16.1472 O   0  0  0  0  0  0  0  0  0  0  0  0
   17.6904   -4.1511  -15.4817 O   0  0  0  0  0  0  0  0  0  0  0  0
  2  1  1  0
  3  5  1  0
  3  2  1  0
  3  4  1  1
  5  6  1  6
  5  7  1  0
  7  8  2  0
  9  7  1  0
  9 10  1  0
 10 13  1  0
 10 11  1  1
 12 11  1  0
 13 14  2  0
 15 13  1  0
 15 16  1  0
 16 21  1  0
 16 17  1  6
 18 17  1  0
 19 20  2  0
 19 18  1  0
 21 22  1  0
 23 19  1  0
 24 21  2  0
M  END
$$$$
