ICE.pdb
     RDKit          3D

 24 23  0  0  1  0  0  0  0  0999 V2000
   28.3606  -17.6132  -17.4913 C   0  0  0  0  0  0  0  0  0  0  0  0
   28.6532  -18.7315  -16.5468 C   0  0  0  0  0  0  0  0  0  0  0  0
   27.4324  -19.1433  -15.7288 C   0  0  2  0  0  0  0  0  0  0  0  0
   27.0757  -18.1106  -14.7051 C   0  0  0  0  0  0  0  0  0  0  0  0
   27.8015  -20.4361  -15.0347 C   0  0  2  0  0  0  0  0  0  0  0  0
   28.1861  -21.4628  -15.9730 N   0  0  0  0  0  0  0  0  0  0  0  0
   26.7056  -20.9398  -14.1668 C   0  0  0  0  0  0  0  0  0  0  0  0
   25.7723  -21.5766  -14.7193 O   0  0  0  0  0  0  0  0  0  0  0  0
   26.7320  -20.6994  -12.7702 N   0  0  0  0  0  0  0  0  0  0  0  0
   25.6063  -21.2085  -11.9569 C   0  0  1  0  0  0  0  0  0  0  0  0
   25.9634  -20.9148  -10.4897 C   0  0  0  0  0  0  0  0  0  0  0  0
   24.5976  -21.2727   -9.3747 S   0  0  0  0  0  0  0  0  0  0  0  0
   24.3836  -20.4514  -12.2612 C   0  0  0  0  0  0  0  0  0  0  0  0
   24.4501  -19.1715  -12.2627 O   0  0  0  0  0  0  0  0  0  0  0  0
   23.1353  -20.9980  -12.5558 N   0  0  0  0  0  0  0  0  0  0  0  0
   21.9540  -20.1835  -12.8811 C   0  0  1  0  0  0  0  0  0  0  0  0
   22.0318  -19.8125  -14.3375 C   0  0  0  0  0  0  0  0  0  0  0  0
   20.8479  -19.0167  -14.7520 C   0  0  0  0  0  0  0  0  0  0  0  0
   20.7727  -18.8760  -16.2483 C   0  0  0  0  0  0  0  0  0  0  0  0
   21.6424  -19.4254  -16.9394 O   0  0  0  0  0  0  0  0  0  0  0  0
   20.7176  -20.9554  -12.6364 C   0  0  0  0  0  0  0  0  0  0  0  0
   19.4645  -20.4471  -12.4251 O   0  0  0  0  0  0  0  0  0  0  0  0
   19.7611  -18.1551  -16.8131 O   0  0  0  0  0  0  0  0  0  0  0  0
   20.8606  -22.2371  -12.6220 O   0  0  0  0  0  0  0  0  0  0  0  0
  2  1  1  0
  3  5  1  0
  3  2  1  0
  3  4  1  1
  5  6  1  6
  5  7  1  0
  7  8  2  0
  9  7  1  0
  9 10  1  0
 10 13  1  0
 10 11  1  1
 12 11  1  0
 13 14  2  0
 15 13  1  0
 15 16  1  0
 16 21  1  0
 16 17  1  6
 18 17  1  0
 19 20  2  0
 19 18  1  0
 21 22  1  0
 23 19  1  0
 24 21  2  0
M  END
$$$$
