FFI.pdb
     RDKit          3D

 31 32  0  0  1  0  0  0  0  0999 V2000
   11.8392  -16.0516   20.4040 N   0  0  0  0  0  0  0  0  0  0  0  0
   10.6239  -15.2749   20.5256 C   0  0  1  0  0  0  0  0  0  0  0  0
    9.5729  -15.8874   19.6450 C   0  0  0  0  0  0  0  0  0  0  0  0
    8.5452  -14.8381   19.3878 C   0  0  0  0  0  0  0  0  0  0  0  0
    7.4070  -15.1437   18.6752 C   0  0  0  0  0  0  0  0  0  0  0  0
    6.4264  -14.1933   18.4149 C   0  0  0  0  0  0  0  0  0  0  0  0
    6.5788  -12.9129   18.8714 C   0  0  0  0  0  0  0  0  0  0  0  0
    7.7145  -12.5808   19.5903 C   0  0  0  0  0  0  0  0  0  0  0  0
    8.6872  -13.5436   19.8427 C   0  0  0  0  0  0  0  0  0  0  0  0
   10.2517  -15.1731   21.9306 C   0  0  0  0  0  0  0  0  0  0  0  0
   10.9536  -15.7637   22.7908 O   0  0  0  0  0  0  0  0  0  0  0  0
    9.1362  -14.4464   22.4298 N   0  0  0  0  0  0  0  0  0  0  0  0
    8.9462  -14.2678   23.8320 C   0  0  1  0  0  0  0  0  0  0  0  0
    7.7511  -13.4078   24.1711 C   0  0  0  0  0  0  0  0  0  0  0  0
    7.5504  -13.2538   25.6231 C   0  0  0  0  0  0  0  0  0  0  0  0
    6.5654  -13.9828   26.2522 C   0  0  0  0  0  0  0  0  0  0  0  0
    6.3207  -13.8906   27.6041 C   0  0  0  0  0  0  0  0  0  0  0  0
    7.0657  -13.0505   28.3911 C   0  0  0  0  0  0  0  0  0  0  0  0
    8.0620  -12.3057   27.7879 C   0  0  0  0  0  0  0  0  0  0  0  0
    8.2896  -12.4149   26.4274 C   0  0  0  0  0  0  0  0  0  0  0  0
    8.8209  -15.5546   24.5696 C   0  0  0  0  0  0  0  0  0  0  0  0
    7.8298  -16.2978   24.3514 O   0  0  0  0  0  0  0  0  0  0  0  0
   12.1654  -20.2924   25.6987 C   0  0  0  0  0  0  0  0  0  0  0  0
   10.9770  -19.4898   26.2313 C   0  0  0  0  0  0  0  0  0  0  0  0
   11.0040  -18.0986   25.6580 C   0  0  2  0  0  0  0  0  0  0  0  0
   12.2899  -17.4490   26.1230 C   0  0  0  0  0  0  0  0  0  0  0  0
    9.7942  -17.3433   26.0797 C   0  0  2  0  0  0  0  0  0  0  0  0
    9.7752  -15.9921   25.5193 N   0  0  0  0  0  0  0  0  0  0  0  0
    9.5699  -17.2805   27.5336 C   0  0  0  0  0  0  0  0  0  0  0  0
    9.5657  -16.0076   28.1375 O   0  0  0  0  0  0  0  0  0  0  0  0
    9.3810  -18.2312   28.3036 O   0  0  0  0  0  0  0  0  0  0  0  0
  2  1  1  1
  2 10  1  0
  3  2  1  0
  3  4  1  0
  4  9  1  0
  4  5  2  0
  5  6  1  0
  6  7  2  0
  8  7  1  0
  9  8  2  0
 10 11  2  0
 12 13  1  0
 12 10  1  0
 13 21  1  0
 13 14  1  6
 15 14  1  0
 16 15  2  0
 17 16  1  0
 18 19  1  0
 18 17  2  0
 19 20  2  0
 20 15  1  0
 21 22  2  0
 24 25  1  0
 24 23  1  0
 25 27  1  0
 25 26  1  1
 27 29  1  0
 28 21  1  0
 27 28  1  1
 29 31  2  0
 29 30  1  0
M  END
$$$$
