FFI.pdb
     RDKit          3D

 31 32  0  0  1  0  0  0  0  0999 V2000
    8.2406  -17.8474   20.6593 N   0  0  0  0  0  0  0  0  0  0  0  0
    9.4021  -16.9847   20.6993 C   0  0  1  0  0  0  0  0  0  0  0  0
    9.4210  -16.1474   19.4528 C   0  0  0  0  0  0  0  0  0  0  0  0
    8.4881  -15.0052   19.6733 C   0  0  0  0  0  0  0  0  0  0  0  0
    7.1266  -15.2125   19.6684 C   0  0  0  0  0  0  0  0  0  0  0  0
    6.2250  -14.1736   19.8702 C   0  0  0  0  0  0  0  0  0  0  0  0
    6.6846  -12.9027   20.0811 C   0  0  0  0  0  0  0  0  0  0  0  0
    8.0492  -12.6686   20.0905 C   0  0  0  0  0  0  0  0  0  0  0  0
    8.9389  -13.7192   19.8870 C   0  0  0  0  0  0  0  0  0  0  0  0
    9.3974  -16.2216   21.9405 C   0  0  0  0  0  0  0  0  0  0  0  0
   10.4410  -15.6090   22.2827 O   0  0  0  0  0  0  0  0  0  0  0  0
    8.2891  -16.1044   22.8234 N   0  0  0  0  0  0  0  0  0  0  0  0
    8.4163  -15.4293   24.0733 C   0  0  1  0  0  0  0  0  0  0  0  0
    7.1148  -14.8524   24.5792 C   0  0  0  0  0  0  0  0  0  0  0  0
    7.2853  -14.0317   25.7915 C   0  0  0  0  0  0  0  0  0  0  0  0
    7.1929  -12.6604   25.7000 C   0  0  0  0  0  0  0  0  0  0  0  0
    7.3409  -11.8309   26.7890 C   0  0  0  0  0  0  0  0  0  0  0  0
    7.5913  -12.3517   28.0324 C   0  0  0  0  0  0  0  0  0  0  0  0
    7.6895  -13.7251   28.1557 C   0  0  0  0  0  0  0  0  0  0  0  0
    7.5371  -14.5388   27.0470 C   0  0  0  0  0  0  0  0  0  0  0  0
    8.9934  -16.2898   25.1420 C   0  0  0  0  0  0  0  0  0  0  0  0
    8.4253  -17.3725   25.4375 O   0  0  0  0  0  0  0  0  0  0  0  0
   14.0718  -17.0431   24.5339 C   0  0  0  0  0  0  0  0  0  0  0  0
   12.5888  -17.1829   24.8821 C   0  0  0  0  0  0  0  0  0  0  0  0
   12.3760  -16.8712   26.3390 C   0  0  2  0  0  0  0  0  0  0  0  0
   13.1738  -17.8834   27.1332 C   0  0  0  0  0  0  0  0  0  0  0  0
   10.9255  -16.8994   26.6660 C   0  0  2  0  0  0  0  0  0  0  0  0
   10.1675  -15.9469   25.8546 N   0  0  0  0  0  0  0  0  0  0  0  0
   10.6001  -16.7076   28.0892 C   0  0  0  0  0  0  0  0  0  0  0  0
   10.3829  -15.3891   28.5356 O   0  0  0  0  0  0  0  0  0  0  0  0
   10.4926  -17.5838   28.9571 O   0  0  0  0  0  0  0  0  0  0  0  0
  2  1  1  6
  2 10  1  0
  3  2  1  0
  3  4  1  0
  4  9  1  0
  4  5  2  0
  5  6  1  0
  6  7  2  0
  8  7  1  0
  9  8  2  0
 10 11  2  0
 12 13  1  0
 12 10  1  0
 13 21  1  0
 13 14  1  1
 15 14  1  0
 16 15  2  0
 17 16  1  0
 18 19  1  0
 18 17  2  0
 19 20  2  0
 20 15  1  0
 21 22  2  0
 24 25  1  0
 24 23  1  0
 25 27  1  0
 25 26  1  1
 27 29  1  0
 28 21  1  0
 27 28  1  6
 29 31  2  0
 29 30  1  0
M  END
$$$$
