FFI.pdb
     RDKit          3D

 31 32  0  0  1  0  0  0  0  0999 V2000
   10.3283  -17.6325   20.6206 N   0  0  0  0  0  0  0  0  0  0  0  0
    9.7259  -16.4123   21.1135 C   0  0  1  0  0  0  0  0  0  0  0  0
    8.3501  -16.2846   20.5251 C   0  0  0  0  0  0  0  0  0  0  0  0
    7.9219  -14.8678   20.7053 C   0  0  0  0  0  0  0  0  0  0  0  0
    6.7199  -14.5797   21.3126 C   0  0  0  0  0  0  0  0  0  0  0  0
    6.2860  -13.2721   21.4986 C   0  0  0  0  0  0  0  0  0  0  0  0
    7.0615  -12.2288   21.0729 C   0  0  0  0  0  0  0  0  0  0  0  0
    8.2743  -12.4925   20.4593 C   0  0  0  0  0  0  0  0  0  0  0  0
    8.6947  -13.8071   20.2804 C   0  0  0  0  0  0  0  0  0  0  0  0
    9.7636  -16.4065   22.5701 C   0  0  0  0  0  0  0  0  0  0  0  0
   10.8791  -16.4299   23.1504 O   0  0  0  0  0  0  0  0  0  0  0  0
    8.6219  -16.3759   23.4170 N   0  0  0  0  0  0  0  0  0  0  0  0
    8.7621  -16.2628   24.8318 C   0  0  1  0  0  0  0  0  0  0  0  0
    7.4937  -15.8274   25.5278 C   0  0  0  0  0  0  0  0  0  0  0  0
    7.3806  -14.3628   25.6480 C   0  0  0  0  0  0  0  0  0  0  0  0
    8.4369  -13.6411   26.1586 C   0  0  0  0  0  0  0  0  0  0  0  0
    8.4027  -12.2719   26.3000 C   0  0  0  0  0  0  0  0  0  0  0  0
    7.2906  -11.5609   25.9292 C   0  0  0  0  0  0  0  0  0  0  0  0
    6.2140  -12.2579   25.4131 C   0  0  0  0  0  0  0  0  0  0  0  0
    6.2713  -13.6340   25.2803 C   0  0  0  0  0  0  0  0  0  0  0  0
    9.2382  -17.5202   25.4706 C   0  0  0  0  0  0  0  0  0  0  0  0
    8.5382  -18.5615   25.3824 O   0  0  0  0  0  0  0  0  0  0  0  0
   14.1708  -19.1461   24.7986 C   0  0  0  0  0  0  0  0  0  0  0  0
   12.6696  -18.9988   25.0535 C   0  0  0  0  0  0  0  0  0  0  0  0
   12.3967  -19.0501   26.5326 C   0  0  2  0  0  0  0  0  0  0  0  0
   12.8935  -20.3902   27.0320 C   0  0  0  0  0  0  0  0  0  0  0  0
   10.9485  -18.8398   26.7975 C   0  0  2  0  0  0  0  0  0  0  0  0
   10.4581  -17.6056   26.1839 N   0  0  0  0  0  0  0  0  0  0  0  0
   10.5593  -18.8764   28.2172 C   0  0  0  0  0  0  0  0  0  0  0  0
   10.4241  -20.1411   28.8230 O   0  0  0  0  0  0  0  0  0  0  0  0
   10.3325  -17.9095   28.9563 O   0  0  0  0  0  0  0  0  0  0  0  0
  2  1  1  1
  2 10  1  0
  3  2  1  0
  3  4  1  0
  4  9  1  0
  4  5  2  0
  5  6  1  0
  6  7  2  0
  8  7  1  0
  9  8  2  0
 10 11  2  0
 12 13  1  0
 12 10  1  0
 13 21  1  0
 13 14  1  1
 15 14  1  0
 16 15  2  0
 17 16  1  0
 18 19  1  0
 18 17  2  0
 19 20  2  0
 20 15  1  0
 21 22  2  0
 24 25  1  0
 24 23  1  0
 25 27  1  0
 25 26  1  6
 27 29  1  0
 28 21  1  0
 27 28  1  1
 29 31  2  0
 29 30  1  0
M  END
$$$$
