FFI.pdb
     RDKit          3D

 31 32  0  0  1  0  0  0  0  0999 V2000
    6.4475  -16.2174   26.0789 N   0  0  0  0  0  0  0  0  0  0  0  0
    6.1906  -16.5151   24.6859 C   0  0  1  0  0  0  0  0  0  0  0  0
    5.3515  -15.4127   24.1065 C   0  0  0  0  0  0  0  0  0  0  0  0
    5.8780  -14.1261   24.6457 C   0  0  0  0  0  0  0  0  0  0  0  0
    5.3387  -13.5828   25.7905 C   0  0  0  0  0  0  0  0  0  0  0  0
    5.8023  -12.3856   26.3240 C   0  0  0  0  0  0  0  0  0  0  0  0
    6.8224  -11.7139   25.7082 C   0  0  0  0  0  0  0  0  0  0  0  0
    7.3813  -12.2397   24.5558 C   0  0  0  0  0  0  0  0  0  0  0  0
    6.9061  -13.4392   24.0341 C   0  0  0  0  0  0  0  0  0  0  0  0
    7.4546  -16.7392   23.9965 C   0  0  0  0  0  0  0  0  0  0  0  0
    7.6703  -17.8606   23.4697 O   0  0  0  0  0  0  0  0  0  0  0  0
    8.4938  -15.7782   23.8624 N   0  0  0  0  0  0  0  0  0  0  0  0
    9.7543  -16.1361   23.2992 C   0  0  1  0  0  0  0  0  0  0  0  0
   10.3298  -15.0737   22.3920 C   0  0  0  0  0  0  0  0  0  0  0  0
    9.2964  -14.3524   21.6277 C   0  0  0  0  0  0  0  0  0  0  0  0
    8.5032  -15.0450   20.7396 C   0  0  0  0  0  0  0  0  0  0  0  0
    7.5188  -14.4381   19.9923 C   0  0  0  0  0  0  0  0  0  0  0  0
    7.2870  -13.0917   20.1075 C   0  0  0  0  0  0  0  0  0  0  0  0
    8.0673  -12.3696   20.9912 C   0  0  0  0  0  0  0  0  0  0  0  0
    9.0509  -13.0012   21.7318 C   0  0  0  0  0  0  0  0  0  0  0  0
   10.7749  -16.4755   24.3282 C   0  0  0  0  0  0  0  0  0  0  0  0
   11.9525  -16.7332   23.9689 O   0  0  0  0  0  0  0  0  0  0  0  0
   10.0821  -14.5443   29.6130 C   0  0  0  0  0  0  0  0  0  0  0  0
   10.1494  -15.6502   28.5582 C   0  0  0  0  0  0  0  0  0  0  0  0
   11.3943  -15.4874   27.7283 C   0  0  2  0  0  0  0  0  0  0  0  0
   11.3118  -14.1310   27.0610 C   0  0  0  0  0  0  0  0  0  0  0  0
   11.5118  -16.6019   26.7506 C   0  0  2  0  0  0  0  0  0  0  0  0
   10.4837  -16.5241   25.7127 N   0  0  0  0  0  0  0  0  0  0  0  0
   11.5224  -17.9522   27.3379 C   0  0  0  0  0  0  0  0  0  0  0  0
   12.5909  -18.2811   28.1952 O   0  0  0  0  0  0  0  0  0  0  0  0
   10.6882  -18.8503   27.1646 O   0  0  0  0  0  0  0  0  0  0  0  0
  2  1  1  1
  2 10  1  0
  3  2  1  0
  3  4  1  0
  4  9  1  0
  4  5  2  0
  5  6  1  0
  6  7  2  0
  8  7  1  0
  9  8  2  0
 10 11  2  0
 12 13  1  0
 12 10  1  0
 13 21  1  0
 13 14  1  1
 15 14  1  0
 16 15  2  0
 17 16  1  0
 18 19  1  0
 18 17  2  0
 19 20  2  0
 20 15  1  0
 21 22  2  0
 24 25  1  0
 24 23  1  0
 25 27  1  0
 25 26  1  6
 27 29  1  0
 28 21  1  0
 27 28  1  6
 29 31  2  0
 29 30  1  0
M  END
$$$$
