FFI.pdb
     RDKit          3D

 31 32  0  0  1  0  0  0  0  0999 V2000
   11.1716  -16.6289   19.8145 N   0  0  0  0  0  0  0  0  0  0  0  0
   10.2336  -17.3098   20.6815 C   0  0  1  0  0  0  0  0  0  0  0  0
   10.7344  -18.7036   20.9297 C   0  0  0  0  0  0  0  0  0  0  0  0
   10.2277  -19.5597   19.8190 C   0  0  0  0  0  0  0  0  0  0  0  0
   11.0348  -19.8431   18.7397 C   0  0  0  0  0  0  0  0  0  0  0  0
   10.5987  -20.6370   17.6850 C   0  0  0  0  0  0  0  0  0  0  0  0
    9.3351  -21.1605   17.7022 C   0  0  0  0  0  0  0  0  0  0  0  0
    8.5044  -20.8901   18.7764 C   0  0  0  0  0  0  0  0  0  0  0  0
    8.9558  -20.0935   19.8245 C   0  0  0  0  0  0  0  0  0  0  0  0
   10.0247  -16.5185   21.8870 C   0  0  0  0  0  0  0  0  0  0  0  0
   10.9526  -15.7744   22.2954 O   0  0  0  0  0  0  0  0  0  0  0  0
    8.8340  -16.5120   22.6640 N   0  0  0  0  0  0  0  0  0  0  0  0
    8.7275  -15.7044   23.8347 C   0  0  1  0  0  0  0  0  0  0  0  0
    7.3009  -15.3829   24.2145 C   0  0  0  0  0  0  0  0  0  0  0  0
    7.1973  -14.2298   25.1266 C   0  0  0  0  0  0  0  0  0  0  0  0
    5.9654  -13.8698   25.6267 C   0  0  0  0  0  0  0  0  0  0  0  0
    5.7926  -12.8052   26.4827 C   0  0  0  0  0  0  0  0  0  0  0  0
    6.8650  -12.0474   26.8773 C   0  0  0  0  0  0  0  0  0  0  0  0
    8.1147  -12.3845   26.3917 C   0  0  0  0  0  0  0  0  0  0  0  0
    8.2640  -13.4588   25.5324 C   0  0  0  0  0  0  0  0  0  0  0  0
    9.4027  -16.3046   25.0177 C   0  0  0  0  0  0  0  0  0  0  0  0
    9.3904  -17.5533   25.1685 O   0  0  0  0  0  0  0  0  0  0  0  0
   10.4108  -14.2378   29.9456 C   0  0  0  0  0  0  0  0  0  0  0  0
   10.5948  -14.0364   28.4403 C   0  0  0  0  0  0  0  0  0  0  0  0
   11.5353  -15.0787   27.8982 C   0  0  2  0  0  0  0  0  0  0  0  0
   12.5586  -14.3572   27.0472 C   0  0  0  0  0  0  0  0  0  0  0  0
   10.7799  -16.1093   27.1372 C   0  0  2  0  0  0  0  0  0  0  0  0
   10.0686  -15.5298   25.9977 N   0  0  0  0  0  0  0  0  0  0  0  0
    9.8519  -16.9250   27.9383 C   0  0  0  0  0  0  0  0  0  0  0  0
   10.4115  -17.8451   28.8466 O   0  0  0  0  0  0  0  0  0  0  0  0
    8.6146  -16.8980   27.9083 O   0  0  0  0  0  0  0  0  0  0  0  0
  2  1  1  6
  2 10  1  0
  3  2  1  0
  3  4  1  0
  4  9  1  0
  4  5  2  0
  5  6  1  0
  6  7  2  0
  8  7  1  0
  9  8  2  0
 10 11  2  0
 12 13  1  0
 12 10  1  0
 13 21  1  0
 13 14  1  1
 15 14  1  0
 16 15  2  0
 17 16  1  0
 18 19  1  0
 18 17  2  0
 19 20  2  0
 20 15  1  0
 21 22  2  0
 24 25  1  0
 24 23  1  0
 25 27  1  0
 25 26  1  6
 27 29  1  0
 28 21  1  0
 27 28  1  6
 29 31  2  0
 29 30  1  0
M  END
$$$$
