FFI.pdb
     RDKit          3D

 31 32  0  0  1  0  0  0  0  0999 V2000
   12.1605  -16.6658   20.2714 N   0  0  0  0  0  0  0  0  0  0  0  0
   10.9528  -17.1926   20.8705 C   0  0  1  0  0  0  0  0  0  0  0  0
   11.2064  -18.6110   21.2937 C   0  0  0  0  0  0  0  0  0  0  0  0
   11.2299  -19.4438   20.0571 C   0  0  0  0  0  0  0  0  0  0  0  0
   10.0550  -19.7544   19.4090 C   0  0  0  0  0  0  0  0  0  0  0  0
   10.0359  -20.5279   18.2541 C   0  0  0  0  0  0  0  0  0  0  0  0
   11.2074  -21.0030   17.7315 C   0  0  0  0  0  0  0  0  0  0  0  0
   12.4018  -20.7045   18.3648 C   0  0  0  0  0  0  0  0  0  0  0  0
   12.4044  -19.9288   19.5203 C   0  0  0  0  0  0  0  0  0  0  0  0
   10.5189  -16.3092   21.9449 C   0  0  0  0  0  0  0  0  0  0  0  0
   11.3870  -15.7680   22.6763 O   0  0  0  0  0  0  0  0  0  0  0  0
    9.1657  -15.9959   22.2489 N   0  0  0  0  0  0  0  0  0  0  0  0
    8.8298  -15.2648   23.4265 C   0  0  1  0  0  0  0  0  0  0  0  0
    7.4698  -14.6101   23.3592 C   0  0  0  0  0  0  0  0  0  0  0  0
    7.1458  -13.8373   24.5717 C   0  0  0  0  0  0  0  0  0  0  0  0
    6.4729  -14.4496   25.6059 C   0  0  0  0  0  0  0  0  0  0  0  0
    6.1371  -13.7911   26.7676 C   0  0  0  0  0  0  0  0  0  0  0  0
    6.4679  -12.4718   26.9410 C   0  0  0  0  0  0  0  0  0  0  0  0
    7.1438  -11.8301   25.9200 C   0  0  0  0  0  0  0  0  0  0  0  0
    7.4707  -12.5124   24.7615 C   0  0  0  0  0  0  0  0  0  0  0  0
    8.8893  -16.0938   24.6614 C   0  0  0  0  0  0  0  0  0  0  0  0
    8.7668  -17.3426   24.5738 O   0  0  0  0  0  0  0  0  0  0  0  0
   10.2417  -13.0725   29.1081 C   0  0  0  0  0  0  0  0  0  0  0  0
   10.4498  -14.0085   27.9161 C   0  0  0  0  0  0  0  0  0  0  0  0
    9.9101  -15.3752   28.2415 C   0  0  2  0  0  0  0  0  0  0  0  0
   10.8161  -15.9733   29.2966 C   0  0  0  0  0  0  0  0  0  0  0  0
    9.8354  -16.2067   27.0107 C   0  0  2  0  0  0  0  0  0  0  0  0
    9.0796  -15.5400   25.9503 N   0  0  0  0  0  0  0  0  0  0  0  0
    9.3170  -17.5710   27.2067 C   0  0  0  0  0  0  0  0  0  0  0  0
    7.9455  -17.7871   26.9673 O   0  0  0  0  0  0  0  0  0  0  0  0
    9.9549  -18.5700   27.5637 O   0  0  0  0  0  0  0  0  0  0  0  0
  2  1  1  1
  2 10  1  0
  3  2  1  0
  3  4  1  0
  4  9  1  0
  4  5  2  0
  5  6  1  0
  6  7  2  0
  8  7  1  0
  9  8  2  0
 10 11  2  0
 12 13  1  0
 12 10  1  0
 13 21  1  0
 13 14  1  6
 15 14  1  0
 16 15  2  0
 17 16  1  0
 18 19  1  0
 18 17  2  0
 19 20  2  0
 20 15  1  0
 21 22  2  0
 24 25  1  0
 24 23  1  0
 25 27  1  0
 25 26  1  1
 27 29  1  0
 28 21  1  0
 27 28  1  6
 29 31  2  0
 29 30  1  0
M  END
$$$$
