FFI.pdb
     RDKit          3D

 31 32  0  0  1  0  0  0  0  0999 V2000
   11.3573  -17.4037   19.7412 N   0  0  0  0  0  0  0  0  0  0  0  0
   10.4344  -17.9418   20.7177 C   0  0  1  0  0  0  0  0  0  0  0  0
   10.9859  -19.2392   21.2352 C   0  0  0  0  0  0  0  0  0  0  0  0
   10.8243  -20.2515   20.1524 C   0  0  0  0  0  0  0  0  0  0  0  0
   11.9171  -20.6674   19.4248 C   0  0  0  0  0  0  0  0  0  0  0  0
   11.8070  -21.6090   18.4079 C   0  0  0  0  0  0  0  0  0  0  0  0
   10.5867  -22.1488   18.1070 C   0  0  0  0  0  0  0  0  0  0  0  0
    9.4728  -21.7469   18.8243 C   0  0  0  0  0  0  0  0  0  0  0  0
    9.5994  -20.8033   19.8394 C   0  0  0  0  0  0  0  0  0  0  0  0
   10.1771  -16.9412   21.7452 C   0  0  0  0  0  0  0  0  0  0  0  0
   11.0894  -16.1302   22.0473 O   0  0  0  0  0  0  0  0  0  0  0  0
    8.9543  -16.7957   22.4560 N   0  0  0  0  0  0  0  0  0  0  0  0
    8.7780  -15.7436   23.4026 C   0  0  1  0  0  0  0  0  0  0  0  0
    7.3559  -15.2396   23.4820 C   0  0  0  0  0  0  0  0  0  0  0  0
    7.1705  -14.2103   24.5205 C   0  0  0  0  0  0  0  0  0  0  0  0
    7.7205  -12.9601   24.3414 C   0  0  0  0  0  0  0  0  0  0  0  0
    7.5884  -11.9500   25.2678 C   0  0  0  0  0  0  0  0  0  0  0  0
    6.8886  -12.1566   26.4287 C   0  0  0  0  0  0  0  0  0  0  0  0
    6.3249  -13.4017   26.6367 C   0  0  0  0  0  0  0  0  0  0  0  0
    6.4709  -14.4016   25.6914 C   0  0  0  0  0  0  0  0  0  0  0  0
    9.2193  -16.1166   24.7744 C   0  0  0  0  0  0  0  0  0  0  0  0
    8.7689  -17.1644   25.3048 O   0  0  0  0  0  0  0  0  0  0  0  0
   10.2824  -12.2718   28.4248 C   0  0  0  0  0  0  0  0  0  0  0  0
   10.7041  -13.3286   27.4023 C   0  0  0  0  0  0  0  0  0  0  0  0
   10.2806  -14.6929   27.8757 C   0  0  2  0  0  0  0  0  0  0  0  0
   10.9711  -14.9401   29.2001 C   0  0  0  0  0  0  0  0  0  0  0  0
   10.6147  -15.7203   26.8536 C   0  0  2  0  0  0  0  0  0  0  0  0
   10.1347  -15.3401   25.5249 N   0  0  0  0  0  0  0  0  0  0  0  0
   10.1681  -17.0873   27.1698 C   0  0  0  0  0  0  0  0  0  0  0  0
    8.7948  -17.3714   27.0347 O   0  0  0  0  0  0  0  0  0  0  0  0
   10.8691  -18.0351   27.5477 O   0  0  0  0  0  0  0  0  0  0  0  0
  2  1  1  6
  2 10  1  0
  3  2  1  0
  3  4  1  0
  4  9  1  0
  4  5  2  0
  5  6  1  0
  6  7  2  0
  8  7  1  0
  9  8  2  0
 10 11  2  0
 12 13  1  0
 12 10  1  0
 13 21  1  0
 13 14  1  1
 15 14  1  0
 16 15  2  0
 17 16  1  0
 18 19  1  0
 18 17  2  0
 19 20  2  0
 20 15  1  0
 21 22  2  0
 24 25  1  0
 24 23  1  0
 25 27  1  0
 25 26  1  1
 27 29  1  0
 28 21  1  0
 27 28  1  6
 29 31  2  0
 29 30  1  0
M  END
$$$$
