FFI.pdb
     RDKit          3D

 31 32  0  0  1  0  0  0  0  0999 V2000
   10.6405  -16.8539   19.9020 N   0  0  0  0  0  0  0  0  0  0  0  0
    9.6586  -17.3142   20.8607 C   0  0  1  0  0  0  0  0  0  0  0  0
   10.0008  -18.7208   21.2603 C   0  0  0  0  0  0  0  0  0  0  0  0
    9.5995  -19.6106   20.1332 C   0  0  0  0  0  0  0  0  0  0  0  0
   10.5239  -19.9842   19.1830 C   0  0  0  0  0  0  0  0  0  0  0  0
   10.1883  -20.8121   18.1178 C   0  0  0  0  0  0  0  0  0  0  0  0
    8.9086  -21.2789   17.9933 C   0  0  0  0  0  0  0  0  0  0  0  0
    7.9610  -20.9176   18.9358 C   0  0  0  0  0  0  0  0  0  0  0  0
    8.3126  -20.0880   19.9965 C   0  0  0  0  0  0  0  0  0  0  0  0
    9.5838  -16.3716   21.9693 C   0  0  0  0  0  0  0  0  0  0  0  0
   10.6497  -15.8945   22.4359 O   0  0  0  0  0  0  0  0  0  0  0  0
    8.3816  -15.9311   22.5875 N   0  0  0  0  0  0  0  0  0  0  0  0
    8.4148  -15.0555   23.7128 C   0  0  1  0  0  0  0  0  0  0  0  0
    7.0857  -14.3968   24.0003 C   0  0  0  0  0  0  0  0  0  0  0  0
    7.0929  -13.6145   25.2494 C   0  0  0  0  0  0  0  0  0  0  0  0
    7.6928  -12.3747   25.2691 C   0  0  0  0  0  0  0  0  0  0  0  0
    7.7379  -11.5883   26.3985 C   0  0  0  0  0  0  0  0  0  0  0  0
    7.1743  -12.0207   27.5713 C   0  0  0  0  0  0  0  0  0  0  0  0
    6.5646  -13.2614   27.5825 C   0  0  0  0  0  0  0  0  0  0  0  0
    6.5317  -14.0341   26.4351 C   0  0  0  0  0  0  0  0  0  0  0  0
    8.8834  -15.7257   24.9566 C   0  0  0  0  0  0  0  0  0  0  0  0
    8.2765  -16.7447   25.3756 O   0  0  0  0  0  0  0  0  0  0  0  0
   14.0847  -16.3399   25.1244 C   0  0  0  0  0  0  0  0  0  0  0  0
   12.5735  -16.5195   25.2793 C   0  0  0  0  0  0  0  0  0  0  0  0
   12.1345  -16.0048   26.6237 C   0  0  2  0  0  0  0  0  0  0  0  0
   12.8370  -16.8402   27.6727 C   0  0  0  0  0  0  0  0  0  0  0  0
   10.6531  -16.0641   26.7401 C   0  0  2  0  0  0  0  0  0  0  0  0
    9.9949  -15.2678   25.7043 N   0  0  0  0  0  0  0  0  0  0  0  0
   10.1133  -15.7024   28.0615 C   0  0  0  0  0  0  0  0  0  0  0  0
    9.8519  -16.7495   28.9671 O   0  0  0  0  0  0  0  0  0  0  0  0
    9.8569  -14.5658   28.4797 O   0  0  0  0  0  0  0  0  0  0  0  0
  2  1  1  6
  2 10  1  0
  3  2  1  0
  3  4  1  0
  4  9  1  0
  4  5  2  0
  5  6  1  0
  6  7  2  0
  8  7  1  0
  9  8  2  0
 10 11  2  0
 12 13  1  0
 12 10  1  0
 13 21  1  0
 13 14  1  1
 15 14  1  0
 16 15  2  0
 17 16  1  0
 18 19  1  0
 18 17  2  0
 19 20  2  0
 20 15  1  0
 21 22  2  0
 24 25  1  0
 24 23  1  0
 25 27  1  0
 25 26  1  1
 27 29  1  0
 28 21  1  0
 27 28  1  6
 29 31  2  0
 29 30  1  0
M  END
$$$$
