FFI.pdb
     RDKit          3D

 31 32  0  0  1  0  0  0  0  0999 V2000
   10.5042  -16.9935   19.5816 N   0  0  0  0  0  0  0  0  0  0  0  0
    9.5352  -17.4203   20.5685 C   0  0  1  0  0  0  0  0  0  0  0  0
    9.8513  -18.8318   20.9722 C   0  0  0  0  0  0  0  0  0  0  0  0
    8.9550  -19.7276   20.1865 C   0  0  0  0  0  0  0  0  0  0  0  0
    8.5063  -19.3406   18.9432 C   0  0  0  0  0  0  0  0  0  0  0  0
    7.6698  -20.1477   18.1805 C   0  0  0  0  0  0  0  0  0  0  0  0
    7.2705  -21.3642   18.6620 C   0  0  0  0  0  0  0  0  0  0  0  0
    7.7082  -21.7758   19.9094 C   0  0  0  0  0  0  0  0  0  0  0  0
    8.5453  -20.9564   20.6608 C   0  0  0  0  0  0  0  0  0  0  0  0
    9.5124  -16.4668   21.6700 C   0  0  0  0  0  0  0  0  0  0  0  0
   10.5980  -15.9776   22.0745 O   0  0  0  0  0  0  0  0  0  0  0  0
    8.3415  -16.0280   22.3468 N   0  0  0  0  0  0  0  0  0  0  0  0
    8.4310  -15.1897   23.4971 C   0  0  1  0  0  0  0  0  0  0  0  0
    7.1796  -14.3816   23.7498 C   0  0  0  0  0  0  0  0  0  0  0  0
    7.2536  -13.5834   24.9867 C   0  0  0  0  0  0  0  0  0  0  0  0
    6.5851  -14.0133   26.1117 C   0  0  0  0  0  0  0  0  0  0  0  0
    6.6090  -13.3202   27.3012 C   0  0  0  0  0  0  0  0  0  0  0  0
    7.3153  -12.1501   27.4115 C   0  0  0  0  0  0  0  0  0  0  0  0
    7.9967  -11.6931   26.2988 C   0  0  0  0  0  0  0  0  0  0  0  0
    7.9581  -12.4068   25.1140 C   0  0  0  0  0  0  0  0  0  0  0  0
    8.7615  -15.9408   24.7390 C   0  0  0  0  0  0  0  0  0  0  0  0
    7.9887  -16.8511   25.1345 O   0  0  0  0  0  0  0  0  0  0  0  0
   13.6900  -17.5552   24.9215 C   0  0  0  0  0  0  0  0  0  0  0  0
   12.1761  -17.4084   25.0848 C   0  0  0  0  0  0  0  0  0  0  0  0
   11.8634  -16.8304   26.4387 C   0  0  2  0  0  0  0  0  0  0  0  0
   12.3729  -17.8127   27.4718 C   0  0  0  0  0  0  0  0  0  0  0  0
   10.4045  -16.5704   26.5641 C   0  0  2  0  0  0  0  0  0  0  0  0
    9.9194  -15.6792   25.5102 N   0  0  0  0  0  0  0  0  0  0  0  0
    9.9682  -16.0685   27.8779 C   0  0  0  0  0  0  0  0  0  0  0  0
    9.9552  -14.6728   28.0703 O   0  0  0  0  0  0  0  0  0  0  0  0
    9.6043  -16.7396   28.8524 O   0  0  0  0  0  0  0  0  0  0  0  0
  2  1  1  6
  2 10  1  0
  3  2  1  0
  3  4  1  0
  4  9  1  0
  4  5  2  0
  5  6  1  0
  6  7  2  0
  8  7  1  0
  9  8  2  0
 10 11  2  0
 12 13  1  0
 12 10  1  0
 13 21  1  0
 13 14  1  1
 15 14  1  0
 16 15  2  0
 17 16  1  0
 18 19  1  0
 18 17  2  0
 19 20  2  0
 20 15  1  0
 21 22  2  0
 24 25  1  0
 24 23  1  0
 25 27  1  0
 25 26  1  1
 27 29  1  0
 28 21  1  0
 27 28  1  6
 29 31  2  0
 29 30  1  0
M  END
$$$$
