FFI.pdb
     RDKit          3D

 31 32  0  0  1  0  0  0  0  0999 V2000
   12.7965  -14.9496   19.9607 N   0  0  0  0  0  0  0  0  0  0  0  0
   11.7068  -15.8218   20.3436 C   0  0  1  0  0  0  0  0  0  0  0  0
   12.2044  -17.2387   20.3458 C   0  0  0  0  0  0  0  0  0  0  0  0
   11.0086  -18.1274   20.2853 C   0  0  0  0  0  0  0  0  0  0  0  0
   10.1903  -18.1125   19.1777 C   0  0  0  0  0  0  0  0  0  0  0  0
    9.0667  -18.9258   19.0839 C   0  0  0  0  0  0  0  0  0  0  0  0
    8.7489  -19.7715   20.1111 C   0  0  0  0  0  0  0  0  0  0  0  0
    9.5560  -19.8048   21.2355 C   0  0  0  0  0  0  0  0  0  0  0  0
   10.6774  -18.9843   21.3143 C   0  0  0  0  0  0  0  0  0  0  0  0
   11.1502  -15.3743   21.6137 C   0  0  0  0  0  0  0  0  0  0  0  0
   11.9259  -14.9134   22.4897 O   0  0  0  0  0  0  0  0  0  0  0  0
    9.7720  -15.4128   21.9607 N   0  0  0  0  0  0  0  0  0  0  0  0
    9.3200  -14.9227   23.2215 C   0  0  1  0  0  0  0  0  0  0  0  0
    7.9282  -14.3367   23.1738 C   0  0  0  0  0  0  0  0  0  0  0  0
    7.5593  -13.8460   21.8338 C   0  0  0  0  0  0  0  0  0  0  0  0
    6.7383  -14.6105   21.0344 C   0  0  0  0  0  0  0  0  0  0  0  0
    6.3523  -14.2165   19.7728 C   0  0  0  0  0  0  0  0  0  0  0  0
    6.7808  -13.0217   19.2545 C   0  0  0  0  0  0  0  0  0  0  0  0
    7.6062  -12.2323   20.0336 C   0  0  0  0  0  0  0  0  0  0  0  0
    7.9810  -12.6490   21.2987 C   0  0  0  0  0  0  0  0  0  0  0  0
    9.3563  -15.9554   24.2929 C   0  0  0  0  0  0  0  0  0  0  0  0
    9.5678  -17.1568   23.9861 O   0  0  0  0  0  0  0  0  0  0  0  0
   10.4211  -12.9326   28.6115 C   0  0  0  0  0  0  0  0  0  0  0  0
   10.5780  -13.9379   27.4692 C   0  0  0  0  0  0  0  0  0  0  0  0
   10.0641  -15.2846   27.9017 C   0  0  2  0  0  0  0  0  0  0  0  0
   10.9942  -15.7909   28.9837 C   0  0  0  0  0  0  0  0  0  0  0  0
    9.9846  -16.2050   26.7362 C   0  0  2  0  0  0  0  0  0  0  0  0
    9.1618  -15.6500   25.6614 N   0  0  0  0  0  0  0  0  0  0  0  0
    9.5372  -17.5730   27.0474 C   0  0  0  0  0  0  0  0  0  0  0  0
    8.1599  -17.8485   26.9374 O   0  0  0  0  0  0  0  0  0  0  0  0
   10.2407  -18.5283   27.4010 O   0  0  0  0  0  0  0  0  0  0  0  0
  2  1  1  1
  2 10  1  0
  3  2  1  0
  3  4  1  0
  4  9  1  0
  4  5  2  0
  5  6  1  0
  6  7  2  0
  8  7  1  0
  9  8  2  0
 10 11  2  0
 12 13  1  0
 12 10  1  0
 13 21  1  0
 13 14  1  6
 15 14  1  0
 16 15  2  0
 17 16  1  0
 18 19  1  0
 18 17  2  0
 19 20  2  0
 20 15  1  0
 21 22  2  0
 24 25  1  0
 24 23  1  0
 25 27  1  0
 25 26  1  1
 27 29  1  0
 28 21  1  0
 27 28  1  6
 29 31  2  0
 29 30  1  0
M  END
$$$$
