FFI.pdb
     RDKit          3D

 31 32  0  0  1  0  0  0  0  0999 V2000
    9.9649  -18.4143   20.2297 N   0  0  0  0  0  0  0  0  0  0  0  0
   11.0447  -17.5741   20.7019 C   0  0  1  0  0  0  0  0  0  0  0  0
   11.5752  -16.7786   19.5439 C   0  0  0  0  0  0  0  0  0  0  0  0
   12.0483  -17.7523   18.5185 C   0  0  0  0  0  0  0  0  0  0  0  0
   13.2402  -18.4194   18.6950 C   0  0  0  0  0  0  0  0  0  0  0  0
   13.7148  -19.3342   17.7620 C   0  0  0  0  0  0  0  0  0  0  0  0
   12.9912  -19.5921   16.6301 C   0  0  0  0  0  0  0  0  0  0  0  0
   11.7896  -18.9341   16.4297 C   0  0  0  0  0  0  0  0  0  0  0  0
   11.3280  -18.0211   17.3732 C   0  0  0  0  0  0  0  0  0  0  0  0
   10.5790  -16.7707   21.8248 C   0  0  0  0  0  0  0  0  0  0  0  0
   11.3671  -15.9432   22.3497 O   0  0  0  0  0  0  0  0  0  0  0  0
    9.2787  -16.8403   22.3956 N   0  0  0  0  0  0  0  0  0  0  0  0
    8.9044  -15.9831   23.4723 C   0  0  1  0  0  0  0  0  0  0  0  0
    7.4190  -15.7145   23.5373 C   0  0  0  0  0  0  0  0  0  0  0  0
    7.0604  -14.7283   24.5722 C   0  0  0  0  0  0  0  0  0  0  0  0
    7.2475  -13.3864   24.3235 C   0  0  0  0  0  0  0  0  0  0  0  0
    6.9356  -12.4094   25.2421 C   0  0  0  0  0  0  0  0  0  0  0  0
    6.4156  -12.7443   26.4659 C   0  0  0  0  0  0  0  0  0  0  0  0
    6.2164  -14.0836   26.7446 C   0  0  0  0  0  0  0  0  0  0  0  0
    6.5374  -15.0480   25.8056 C   0  0  0  0  0  0  0  0  0  0  0  0
    9.3464  -16.4912   24.7997 C   0  0  0  0  0  0  0  0  0  0  0  0
    9.1690  -17.7026   25.0879 O   0  0  0  0  0  0  0  0  0  0  0  0
   10.7721  -13.1880   29.3713 C   0  0  0  0  0  0  0  0  0  0  0  0
   10.1011  -14.2748   28.5293 C   0  0  0  0  0  0  0  0  0  0  0  0
   11.1496  -15.0968   27.8294 C   0  0  2  0  0  0  0  0  0  0  0  0
   11.9683  -14.1473   26.9809 C   0  0  0  0  0  0  0  0  0  0  0  0
   10.5104  -16.1756   27.0297 C   0  0  2  0  0  0  0  0  0  0  0  0
    9.9662  -15.6677   25.7703 N   0  0  0  0  0  0  0  0  0  0  0  0
    9.4797  -16.9535   27.7374 C   0  0  0  0  0  0  0  0  0  0  0  0
    8.1468  -16.8159   27.3024 O   0  0  0  0  0  0  0  0  0  0  0  0
    9.6482  -17.7290   28.6876 O   0  0  0  0  0  0  0  0  0  0  0  0
  2  1  1  6
  2 10  1  0
  3  2  1  0
  3  4  1  0
  4  9  1  0
  4  5  2  0
  5  6  1  0
  6  7  2  0
  8  7  1  0
  9  8  2  0
 10 11  2  0
 12 13  1  0
 12 10  1  0
 13 21  1  0
 13 14  1  1
 15 14  1  0
 16 15  2  0
 17 16  1  0
 18 19  1  0
 18 17  2  0
 19 20  2  0
 20 15  1  0
 21 22  2  0
 24 25  1  0
 24 23  1  0
 25 27  1  0
 25 26  1  6
 27 29  1  0
 28 21  1  0
 27 28  1  6
 29 31  2  0
 29 30  1  0
M  END
$$$$
