FFI.pdb
     RDKit          3D

 31 32  0  0  1  0  0  0  0  0999 V2000
    8.2886  -20.3249   22.0630 N   0  0  0  0  0  0  0  0  0  0  0  0
    7.8773  -19.9635   23.4028 C   0  0  1  0  0  0  0  0  0  0  0  0
    8.6801  -20.7678   24.3845 C   0  0  0  0  0  0  0  0  0  0  0  0
    8.0423  -22.1121   24.4810 C   0  0  0  0  0  0  0  0  0  0  0  0
    8.7971  -23.2507   24.3065 C   0  0  0  0  0  0  0  0  0  0  0  0
    8.2391  -24.5214   24.3888 C   0  0  0  0  0  0  0  0  0  0  0  0
    6.9040  -24.6647   24.6498 C   0  0  0  0  0  0  0  0  0  0  0  0
    6.1238  -23.5351   24.8292 C   0  0  0  0  0  0  0  0  0  0  0  0
    6.6973  -22.2699   24.7437 C   0  0  0  0  0  0  0  0  0  0  0  0
    7.9860  -18.5202   23.5711 C   0  0  0  0  0  0  0  0  0  0  0  0
    8.8897  -17.9015   22.9530 O   0  0  0  0  0  0  0  0  0  0  0  0
    7.1394  -17.7274   24.3934 N   0  0  0  0  0  0  0  0  0  0  0  0
    7.3250  -16.3167   24.4909 C   0  0  1  0  0  0  0  0  0  0  0  0
    6.1464  -15.5972   25.1043 C   0  0  0  0  0  0  0  0  0  0  0  0
    6.3567  -14.1424   25.2119 C   0  0  0  0  0  0  0  0  0  0  0  0
    5.9111  -13.4742   26.3310 C   0  0  0  0  0  0  0  0  0  0  0  0
    6.0724  -12.1172   26.5003 C   0  0  0  0  0  0  0  0  0  0  0  0
    6.6968  -11.3647   25.5391 C   0  0  0  0  0  0  0  0  0  0  0  0
    7.1551  -12.0076   24.4042 C   0  0  0  0  0  0  0  0  0  0  0  0
    6.9816  -13.3723   24.2561 C   0  0  0  0  0  0  0  0  0  0  0  0
    8.5486  -15.9430   25.2517 C   0  0  0  0  0  0  0  0  0  0  0  0
    9.1916  -14.9138   24.9208 O   0  0  0  0  0  0  0  0  0  0  0  0
    9.2013  -13.1129   28.7607 C   0  0  0  0  0  0  0  0  0  0  0  0
    9.4802  -14.0937   27.6204 C   0  0  0  0  0  0  0  0  0  0  0  0
    9.9847  -15.3962   28.1808 C   0  0  2  0  0  0  0  0  0  0  0  0
   11.2204  -15.0822   28.9969 C   0  0  0  0  0  0  0  0  0  0  0  0
   10.2527  -16.3614   27.0815 C   0  0  2  0  0  0  0  0  0  0  0  0
    9.0338  -16.6986   26.3461 N   0  0  0  0  0  0  0  0  0  0  0  0
   10.9451  -17.5961   27.4867 C   0  0  0  0  0  0  0  0  0  0  0  0
   12.3377  -17.5257   27.6883 O   0  0  0  0  0  0  0  0  0  0  0  0
   10.4396  -18.7104   27.6750 O   0  0  0  0  0  0  0  0  0  0  0  0
  2  1  1  6
  2 10  1  0
  3  2  1  0
  3  4  1  0
  4  9  1  0
  4  5  2  0
  5  6  1  0
  6  7  2  0
  8  7  1  0
  9  8  2  0
 10 11  2  0
 12 13  1  0
 12 10  1  0
 13 21  1  0
 13 14  1  1
 15 14  1  0
 16 15  2  0
 17 16  1  0
 18 19  1  0
 18 17  2  0
 19 20  2  0
 20 15  1  0
 21 22  2  0
 24 25  1  0
 24 23  1  0
 25 27  1  0
 25 26  1  6
 27 29  1  0
 28 21  1  0
 27 28  1  1
 29 31  2  0
 29 30  1  0
M  END
$$$$
