FFI.pdb
     RDKit          3D

 31 32  0  0  1  0  0  0  0  0999 V2000
   10.6981  -17.1407   19.9792 N   0  0  0  0  0  0  0  0  0  0  0  0
    9.7441  -17.5770   20.9764 C   0  0  1  0  0  0  0  0  0  0  0  0
   10.1560  -18.9329   21.4736 C   0  0  0  0  0  0  0  0  0  0  0  0
    9.8612  -19.9106   20.3871 C   0  0  0  0  0  0  0  0  0  0  0  0
   10.8435  -20.2649   19.4892 C   0  0  0  0  0  0  0  0  0  0  0  0
   10.6074  -21.1726   18.4630 C   0  0  0  0  0  0  0  0  0  0  0  0
    9.3706  -21.7403   18.3252 C   0  0  0  0  0  0  0  0  0  0  0  0
    8.3663  -21.4002   19.2155 C   0  0  0  0  0  0  0  0  0  0  0  0
    8.6183  -20.4899   20.2376 C   0  0  0  0  0  0  0  0  0  0  0  0
    9.6288  -16.5614   22.0148 C   0  0  0  0  0  0  0  0  0  0  0  0
   10.6696  -15.9825   22.4187 O   0  0  0  0  0  0  0  0  0  0  0  0
    8.4124  -16.1551   22.6289 N   0  0  0  0  0  0  0  0  0  0  0  0
    8.4145  -15.2449   23.7269 C   0  0  1  0  0  0  0  0  0  0  0  0
    7.0728  -14.5937   23.9692 C   0  0  0  0  0  0  0  0  0  0  0  0
    7.0939  -13.6404   25.0931 C   0  0  0  0  0  0  0  0  0  0  0  0
    7.5603  -12.3607   24.8877 C   0  0  0  0  0  0  0  0  0  0  0  0
    7.6093  -11.4174   25.8895 C   0  0  0  0  0  0  0  0  0  0  0  0
    7.1859  -11.7246   27.1569 C   0  0  0  0  0  0  0  0  0  0  0  0
    6.7124  -13.0016   27.3939 C   0  0  0  0  0  0  0  0  0  0  0  0
    6.6725  -13.9330   26.3713 C   0  0  0  0  0  0  0  0  0  0  0  0
    8.8674  -15.8707   24.9993 C   0  0  0  0  0  0  0  0  0  0  0  0
    8.3012  -16.9164   25.4092 O   0  0  0  0  0  0  0  0  0  0  0  0
   14.0798  -15.9588   25.2069 C   0  0  0  0  0  0  0  0  0  0  0  0
   12.6014  -16.3250   25.3496 C   0  0  0  0  0  0  0  0  0  0  0  0
   12.1048  -15.9178   26.7106 C   0  0  2  0  0  0  0  0  0  0  0  0
   12.8672  -16.7395   27.7282 C   0  0  0  0  0  0  0  0  0  0  0  0
   10.6332  -16.1121   26.8022 C   0  0  2  0  0  0  0  0  0  0  0  0
    9.9195  -15.3409   25.7843 N   0  0  0  0  0  0  0  0  0  0  0  0
   10.0473  -15.8469   28.1268 C   0  0  0  0  0  0  0  0  0  0  0  0
    9.6670  -14.5218   28.4172 O   0  0  0  0  0  0  0  0  0  0  0  0
    9.8452  -16.6654   29.0333 O   0  0  0  0  0  0  0  0  0  0  0  0
  2  1  1  6
  2 10  1  0
  3  2  1  0
  3  4  1  0
  4  9  1  0
  4  5  2  0
  5  6  1  0
  6  7  2  0
  8  7  1  0
  9  8  2  0
 10 11  2  0
 12 13  1  0
 12 10  1  0
 13 21  1  0
 13 14  1  1
 15 14  1  0
 16 15  2  0
 17 16  1  0
 18 19  1  0
 18 17  2  0
 19 20  2  0
 20 15  1  0
 21 22  2  0
 24 25  1  0
 24 23  1  0
 25 27  1  0
 25 26  1  1
 27 29  1  0
 28 21  1  0
 27 28  1  6
 29 31  2  0
 29 30  1  0
M  END
$$$$
