FFI.pdb
     RDKit          3D

 31 32  0  0  1  0  0  0  0  0999 V2000
    5.5787  -16.9916   20.8396 N   0  0  0  0  0  0  0  0  0  0  0  0
    6.6203  -16.3404   21.6050 C   0  0  1  0  0  0  0  0  0  0  0  0
    6.2631  -14.8906   21.7652 C   0  0  0  0  0  0  0  0  0  0  0  0
    7.1053  -14.1192   20.8066 C   0  0  0  0  0  0  0  0  0  0  0  0
    6.5886  -13.7258   19.5922 C   0  0  0  0  0  0  0  0  0  0  0  0
    7.3421  -13.0057   18.6721 C   0  0  0  0  0  0  0  0  0  0  0  0
    8.6355  -12.6692   18.9638 C   0  0  0  0  0  0  0  0  0  0  0  0
    9.1779  -13.0531   20.1784 C   0  0  0  0  0  0  0  0  0  0  0  0
    8.4106  -13.7737   21.0889 C   0  0  0  0  0  0  0  0  0  0  0  0
    6.8209  -17.0560   22.8584 C   0  0  0  0  0  0  0  0  0  0  0  0
    5.9111  -17.0309   23.7262 O   0  0  0  0  0  0  0  0  0  0  0  0
    7.9842  -17.8000   23.1974 N   0  0  0  0  0  0  0  0  0  0  0  0
    8.1796  -18.2906   24.5222 C   0  0  1  0  0  0  0  0  0  0  0  0
    8.4291  -19.7797   24.5801 C   0  0  0  0  0  0  0  0  0  0  0  0
    7.2844  -20.5711   24.0946 C   0  0  0  0  0  0  0  0  0  0  0  0
    6.3048  -20.9604   24.9813 C   0  0  0  0  0  0  0  0  0  0  0  0
    5.2080  -21.7002   24.5998 C   0  0  0  0  0  0  0  0  0  0  0  0
    5.0474  -22.0851   23.2936 C   0  0  0  0  0  0  0  0  0  0  0  0
    6.0145  -21.7092   22.3801 C   0  0  0  0  0  0  0  0  0  0  0  0
    7.1083  -20.9656   22.7868 C   0  0  0  0  0  0  0  0  0  0  0  0
    9.2880  -17.6024   25.2388 C   0  0  0  0  0  0  0  0  0  0  0  0
   10.3599  -17.3566   24.6281 O   0  0  0  0  0  0  0  0  0  0  0  0
   10.1009  -12.8054   28.6137 C   0  0  0  0  0  0  0  0  0  0  0  0
   10.6498  -14.2086   28.3492 C   0  0  0  0  0  0  0  0  0  0  0  0
    9.6557  -15.0008   27.5435 C   0  0  2  0  0  0  0  0  0  0  0  0
    8.3665  -15.0372   28.3362 C   0  0  0  0  0  0  0  0  0  0  0  0
   10.1906  -16.3581   27.2548 C   0  0  2  0  0  0  0  0  0  0  0  0
    9.1965  -17.2040   26.5941 N   0  0  0  0  0  0  0  0  0  0  0  0
   10.7548  -17.0691   28.4143 C   0  0  0  0  0  0  0  0  0  0  0  0
   10.0778  -18.2194   28.8653 O   0  0  0  0  0  0  0  0  0  0  0  0
   11.7727  -16.7707   29.0524 O   0  0  0  0  0  0  0  0  0  0  0  0
  2  1  1  1
  2 10  1  0
  3  2  1  0
  3  4  1  0
  4  9  1  0
  4  5  2  0
  5  6  1  0
  6  7  2  0
  8  7  1  0
  9  8  2  0
 10 11  2  0
 12 13  1  0
 12 10  1  0
 13 21  1  0
 13 14  1  6
 15 14  1  0
 16 15  2  0
 17 16  1  0
 18 19  1  0
 18 17  2  0
 19 20  2  0
 20 15  1  0
 21 22  2  0
 24 25  1  0
 24 23  1  0
 25 27  1  0
 25 26  1  1
 27 29  1  0
 28 21  1  0
 27 28  1  1
 29 31  2  0
 29 30  1  0
M  END
$$$$
