RHK.pdb
     RDKit          3D

 31 31  0  0  1  0  0  0  0  0999 V2000
    8.5594  -10.8763   20.0674 N   0  0  0  0  0  0  0  0  0  0  0  0
    7.8455  -12.1254   20.0708 C   0  0  0  0  0  0  0  0  0  0  0  0
    7.2141  -12.4632   18.9775 N   0  0  0  0  0  0  0  0  0  0  0  0
    7.8214  -12.9502   21.2036 N   0  0  0  0  0  0  0  0  0  0  0  0
    7.1475  -14.2202   21.2400 C   0  0  0  0  0  0  0  0  0  0  0  0
    7.6073  -15.1176   20.1125 C   0  0  0  0  0  0  0  0  0  0  0  0
    9.0227  -15.5569   20.2360 C   0  0  0  0  0  0  0  0  0  0  0  0
    9.5535  -16.3706   19.1032 C   0  0  2  0  0  0  0  0  0  0  0  0
    8.9567  -17.6734   19.0020 N   0  0  0  0  0  0  0  0  0  0  0  0
   11.0257  -16.5308   19.3114 C   0  0  0  0  0  0  0  0  0  0  0  0
   11.5115  -17.5588   19.8440 O   0  0  0  0  0  0  0  0  0  0  0  0
    6.7112  -13.3850   18.9192 N   0  0  0  0  0  0  0  0  0  0  0  0
   11.8862  -15.5028   18.8993 C   0  0  2  0  0  0  0  0  0  0  0  0
   13.3275  -15.5095   18.9243 C   0  0  0  0  0  0  0  0  0  0  0  0
   13.8728  -14.4407   18.0696 C   0  0  0  0  0  0  0  0  0  0  0  0
   15.3504  -14.4213   17.9408 C   0  0  0  0  0  0  0  0  0  0  0  0
   16.1708  -14.2327   19.0581 N   0  0  0  0  0  0  0  0  0  0  0  0
   17.4404  -14.2613   18.6551 C   0  0  0  0  0  0  0  0  0  0  0  0
   17.4119  -14.4624   17.3333 N   0  0  0  0  0  0  0  0  0  0  0  0
   16.1587  -14.5607   16.8834 C   0  0  0  0  0  0  0  0  0  0  0  0
   13.8473  -15.4014   20.3149 O   0  0  0  0  0  0  0  0  0  0  0  0
   13.5795  -14.3955   21.0617 N   0  0  0  0  0  0  0  0  0  0  0  0
   14.6667  -16.3910   20.9085 C   0  0  1  0  0  0  0  0  0  0  0  0
   15.0629  -16.3474   22.2929 C   0  0  0  0  0  0  0  0  0  0  0  0
   14.8421  -17.6452   23.0320 C   0  0  0  0  0  0  0  0  0  0  0  0
   13.3578  -17.8679   23.2605 C   0  0  0  0  0  0  0  0  0  0  0  0
   13.1600  -19.1939   23.9342 C   0  0  0  0  0  0  0  0  0  0  0  0
   11.7230  -19.4363   24.3246 N   0  0  0  0  0  0  0  0  0  0  0  0
   11.5071  -20.6935   24.9792 C   0  0  0  0  0  0  0  0  0  0  0  0
   16.5301  -15.9905   22.3771 O   0  0  0  0  0  0  0  0  0  0  0  0
   17.2226  -16.0635   21.3373 O   0  0  0  0  0  0  0  0  0  0  0  0
  1  2  1  0
  2  3  2  0
  4  2  1  0
  4  5  1  0
  5  6  1  0
  6  7  1  0
  7  8  1  0
  8 10  1  0
  8  9  1  1
 10 11  2  0
 10 12  1  0
 12 13  1  0
 13 20  1  0
 13 14  1  6
 15 14  1  0
 16 15  2  0
 17 18  1  0
 17 16  1  0
 18 19  2  0
 19 15  1  0
 20 21  2  0
 20 22  1  0
 22 23  1  0
 23 29  1  0
 23 24  1  1
 25 24  1  0
 25 26  1  0
 27 26  1  0
 27 28  1  0
 29 31  1  0
 30 29  2  0
M  END
$$$$
