RHK.pdb
     RDKit          3D

 31 31  0  0  1  0  0  0  0  0999 V2000
   16.8760  -14.3355   19.4157 N   0  0  0  0  0  0  0  0  0  0  0  0
   15.5480  -14.1860   18.8827 C   0  0  0  0  0  0  0  0  0  0  0  0
   15.4356  -13.7670   17.6498 N   0  0  0  0  0  0  0  0  0  0  0  0
   14.4142  -14.4731   19.6547 N   0  0  0  0  0  0  0  0  0  0  0  0
   13.0694  -14.3017   19.1747 C   0  0  0  0  0  0  0  0  0  0  0  0
   12.7511  -15.2862   18.0713 C   0  0  0  0  0  0  0  0  0  0  0  0
   11.9233  -16.4384   18.5174 C   0  0  0  0  0  0  0  0  0  0  0  0
   10.4810  -16.3902   18.1371 C   0  0  2  0  0  0  0  0  0  0  0  0
   10.2188  -15.5836   16.9776 N   0  0  0  0  0  0  0  0  0  0  0  0
    9.7253  -15.8251   19.2972 C   0  0  0  0  0  0  0  0  0  0  0  0
    8.6293  -15.2309   19.1478 O   0  0  0  0  0  0  0  0  0  0  0  0
   14.4982  -13.7679   17.1731 N   0  0  0  0  0  0  0  0  0  0  0  0
   10.2574  -15.9637   20.5874 C   0  0  2  0  0  0  0  0  0  0  0  0
    9.5851  -16.4687   21.7583 C   0  0  0  0  0  0  0  0  0  0  0  0
    8.9609  -17.7746   21.4836 C   0  0  0  0  0  0  0  0  0  0  0  0
    8.2198  -18.3763   22.6189 C   0  0  0  0  0  0  0  0  0  0  0  0
    7.5850  -17.5748   23.5737 N   0  0  0  0  0  0  0  0  0  0  0  0
    7.0020  -18.3714   24.4685 C   0  0  0  0  0  0  0  0  0  0  0  0
    7.2631  -19.6252   24.0837 N   0  0  0  0  0  0  0  0  0  0  0  0
    7.9980  -19.6487   22.9693 C   0  0  0  0  0  0  0  0  0  0  0  0
   10.5091  -16.5506   22.9225 O   0  0  0  0  0  0  0  0  0  0  0  0
   11.2769  -17.5593   23.1079 N   0  0  0  0  0  0  0  0  0  0  0  0
   10.6068  -15.5315   23.8995 C   0  0  2  0  0  0  0  0  0  0  0  0
   11.1390  -15.7640   25.2180 C   0  0  0  0  0  0  0  0  0  0  0  0
   10.1110  -15.6576   26.3186 C   0  0  0  0  0  0  0  0  0  0  0  0
   10.7248  -16.0674   27.6453 C   0  0  0  0  0  0  0  0  0  0  0  0
    9.6802  -15.9713   28.7181 C   0  0  0  0  0  0  0  0  0  0  0  0
   10.1959  -16.4030   30.0686 N   0  0  0  0  0  0  0  0  0  0  0  0
    9.2287  -16.2845   31.1204 C   0  0  0  0  0  0  0  0  0  0  0  0
   11.7541  -17.1447   25.2674 O   0  0  0  0  0  0  0  0  0  0  0  0
   11.0208  -18.1331   25.0408 O   0  0  0  0  0  0  0  0  0  0  0  0
  1  2  1  0
  2  3  2  0
  4  2  1  0
  4  5  1  0
  5  6  1  0
  6  7  1  0
  7  8  1  0
  8 10  1  0
  8  9  1  6
 10 11  2  0
 10 12  1  0
 12 13  1  0
 13 20  1  0
 13 14  1  6
 15 14  1  0
 16 15  2  0
 17 18  1  0
 17 16  1  0
 18 19  2  0
 19 15  1  0
 20 21  2  0
 20 22  1  0
 22 23  1  0
 23 29  1  0
 23 24  1  6
 25 24  1  0
 25 26  1  0
 27 26  1  0
 27 28  1  0
 29 31  1  0
 30 29  2  0
M  END
$$$$
