RHK.pdb
     RDKit          3D

 31 31  0  0  1  0  0  0  0  0999 V2000
    7.6537  -13.1634   18.1234 N   0  0  0  0  0  0  0  0  0  0  0  0
    7.9470  -13.0265   19.5252 C   0  0  0  0  0  0  0  0  0  0  0  0
    8.5785  -11.9480   19.9077 N   0  0  0  0  0  0  0  0  0  0  0  0
    7.5756  -14.0126   20.4492 N   0  0  0  0  0  0  0  0  0  0  0  0
    6.9182  -15.2359   20.0753 C   0  0  0  0  0  0  0  0  0  0  0  0
    6.6157  -16.0887   21.2874 C   0  0  0  0  0  0  0  0  0  0  0  0
    6.8417  -17.5421   21.0684 C   0  0  0  0  0  0  0  0  0  0  0  0
    8.1371  -17.9103   20.4254 C   0  0  2  0  0  0  0  0  0  0  0  0
    8.1660  -19.2543   19.9188 N   0  0  0  0  0  0  0  0  0  0  0  0
    9.2121  -17.7609   21.4542 C   0  0  0  0  0  0  0  0  0  0  0  0
    9.4394  -18.6518   22.3092 O   0  0  0  0  0  0  0  0  0  0  0  0
    8.8480  -11.8212   20.9163 N   0  0  0  0  0  0  0  0  0  0  0  0
    9.9871  -16.5919   21.4625 C   0  0  2  0  0  0  0  0  0  0  0  0
   10.9895  -16.2170   22.4282 C   0  0  0  0  0  0  0  0  0  0  0  0
   11.6567  -14.9642   22.0337 C   0  0  0  0  0  0  0  0  0  0  0  0
   12.4370  -15.0291   20.7739 C   0  0  0  0  0  0  0  0  0  0  0  0
   12.0714  -14.2697   19.6574 N   0  0  0  0  0  0  0  0  0  0  0  0
   12.9394  -14.5200   18.6781 C   0  0  0  0  0  0  0  0  0  0  0  0
   13.8160  -15.4032   19.1680 N   0  0  0  0  0  0  0  0  0  0  0  0
   13.5287  -15.7234   20.4319 C   0  0  0  0  0  0  0  0  0  0  0  0
   10.4126  -16.1093   23.7962 O   0  0  0  0  0  0  0  0  0  0  0  0
    9.6768  -15.1202   24.1449 N   0  0  0  0  0  0  0  0  0  0  0  0
   10.6318  -17.0809   24.8016 C   0  0  1  0  0  0  0  0  0  0  0  0
    9.9972  -17.0225   26.0937 C   0  0  0  0  0  0  0  0  0  0  0  0
    8.6029  -17.6011   26.1155 C   0  0  0  0  0  0  0  0  0  0  0  0
    8.6394  -19.0626   25.7062 C   0  0  0  0  0  0  0  0  0  0  0  0
    7.2417  -19.6082   25.7147 C   0  0  0  0  0  0  0  0  0  0  0  0
    7.1909  -21.0756   25.3679 N   0  0  0  0  0  0  0  0  0  0  0  0
    5.8626  -21.6142   25.3315 C   0  0  0  0  0  0  0  0  0  0  0  0
   10.8446  -17.7738   27.0960 O   0  0  0  0  0  0  0  0  0  0  0  0
   11.8367  -18.4125   26.6789 O   0  0  0  0  0  0  0  0  0  0  0  0
  1  2  1  0
  2  3  2  0
  4  2  1  0
  4  5  1  0
  5  6  1  0
  6  7  1  0
  7  8  1  0
  8 10  1  0
  8  9  1  1
 10 11  2  0
 10 12  1  0
 12 13  1  0
 13 20  1  0
 13 14  1  6
 15 14  1  0
 16 15  2  0
 17 18  1  0
 17 16  1  0
 18 19  2  0
 19 15  1  0
 20 21  2  0
 20 22  1  0
 22 23  1  0
 23 29  1  0
 23 24  1  1
 25 24  1  0
 25 26  1  0
 27 26  1  0
 27 28  1  0
 29 31  1  0
 30 29  2  0
M  END
$$$$
