RHK.pdb
     RDKit          3D

 31 31  0  0  1  0  0  0  0  0999 V2000
    8.7055  -11.8252   19.9690 N   0  0  0  0  0  0  0  0  0  0  0  0
    7.8024  -12.8250   19.4642 C   0  0  0  0  0  0  0  0  0  0  0  0
    7.0625  -12.5064   18.4351 N   0  0  0  0  0  0  0  0  0  0  0  0
    7.7126  -14.0931   20.0541 N   0  0  0  0  0  0  0  0  0  0  0  0
    7.9285  -15.3167   19.3297 C   0  0  0  0  0  0  0  0  0  0  0  0
    6.8229  -16.3141   19.5959 C   0  0  0  0  0  0  0  0  0  0  0  0
    7.2646  -17.5052   20.3691 C   0  0  0  0  0  0  0  0  0  0  0  0
    7.9059  -18.5952   19.5766 C   0  0  2  0  0  0  0  0  0  0  0  0
    7.1479  -19.8154   19.5589 N   0  0  0  0  0  0  0  0  0  0  0  0
    9.2446  -18.8693   20.1840 C   0  0  0  0  0  0  0  0  0  0  0  0
    9.3954  -19.7118   21.1027 O   0  0  0  0  0  0  0  0  0  0  0  0
    6.3718  -13.1968   18.0448 N   0  0  0  0  0  0  0  0  0  0  0  0
   10.3619  -18.1647   19.7127 C   0  0  2  0  0  0  0  0  0  0  0  0
   11.7261  -18.2920   20.1610 C   0  0  0  0  0  0  0  0  0  0  0  0
   12.6655  -18.1303   19.0378 C   0  0  0  0  0  0  0  0  0  0  0  0
   12.7087  -19.2600   18.0776 C   0  0  0  0  0  0  0  0  0  0  0  0
   12.7936  -20.5837   18.5222 N   0  0  0  0  0  0  0  0  0  0  0  0
   12.8141  -21.3831   17.4565 C   0  0  0  0  0  0  0  0  0  0  0  0
   12.7429  -20.5854   16.3855 N   0  0  0  0  0  0  0  0  0  0  0  0
   12.6793  -19.2998   16.7403 C   0  0  0  0  0  0  0  0  0  0  0  0
   12.0299  -17.3310   21.2564 O   0  0  0  0  0  0  0  0  0  0  0  0
   11.8070  -16.0751   21.1366 N   0  0  0  0  0  0  0  0  0  0  0  0
   12.5811  -17.7293   22.4976 C   0  0  1  0  0  0  0  0  0  0  0  0
   12.7810  -16.8135   23.5916 C   0  0  0  0  0  0  0  0  0  0  0  0
   12.9675  -17.4906   24.9280 C   0  0  0  0  0  0  0  0  0  0  0  0
   11.6677  -18.1398   25.3684 C   0  0  0  0  0  0  0  0  0  0  0  0
   11.9384  -19.0249   26.5493 C   0  0  0  0  0  0  0  0  0  0  0  0
   10.6880  -19.6828   27.0784 N   0  0  0  0  0  0  0  0  0  0  0  0
   10.9147  -20.5169   28.2224 C   0  0  0  0  0  0  0  0  0  0  0  0
   13.9998  -15.9636   23.3096 O   0  0  0  0  0  0  0  0  0  0  0  0
   14.2551  -15.0120   24.0811 O   0  0  0  0  0  0  0  0  0  0  0  0
  1  2  1  0
  2  3  2  0
  4  2  1  0
  4  5  1  0
  5  6  1  0
  6  7  1  0
  7  8  1  0
  8 10  1  0
  8  9  1  1
 10 11  2  0
 10 12  1  0
 12 13  1  0
 13 20  1  0
 13 14  1  6
 15 14  1  0
 16 15  2  0
 17 18  1  0
 17 16  1  0
 18 19  2  0
 19 15  1  0
 20 21  2  0
 20 22  1  0
 22 23  1  0
 23 29  1  0
 23 24  1  1
 25 24  1  0
 25 26  1  0
 27 26  1  0
 27 28  1  0
 29 31  1  0
 30 29  2  0
M  END
$$$$
