RHK.pdb
     RDKit          3D

 31 31  0  0  1  0  0  0  0  0999 V2000
    7.8337  -12.2391   17.6793 N   0  0  0  0  0  0  0  0  0  0  0  0
    8.7988  -13.2845   17.8928 C   0  0  0  0  0  0  0  0  0  0  0  0
    9.7918  -13.3717   17.0476 N   0  0  0  0  0  0  0  0  0  0  0  0
    8.6800  -14.1812   18.9632 N   0  0  0  0  0  0  0  0  0  0  0  0
    7.8929  -13.9093   20.1359 C   0  0  0  0  0  0  0  0  0  0  0  0
    6.6956  -14.8299   20.2184 C   0  0  0  0  0  0  0  0  0  0  0  0
    7.0252  -16.2626   19.9936 C   0  0  0  0  0  0  0  0  0  0  0  0
    7.3540  -17.0548   21.2149 C   0  0  2  0  0  0  0  0  0  0  0  0
    6.9737  -16.4075   22.4397 N   0  0  0  0  0  0  0  0  0  0  0  0
    8.8330  -17.2758   21.2268 C   0  0  0  0  0  0  0  0  0  0  0  0
    9.4322  -17.8015   20.2567 O   0  0  0  0  0  0  0  0  0  0  0  0
   10.5520  -14.0835   17.1945 N   0  0  0  0  0  0  0  0  0  0  0  0
    9.5697  -16.8839   22.3541 C   0  0  1  0  0  0  0  0  0  0  0  0
   10.9984  -16.9579   22.5312 C   0  0  0  0  0  0  0  0  0  0  0  0
   11.6147  -15.6270   22.3925 C   0  0  0  0  0  0  0  0  0  0  0  0
   12.0295  -15.2589   21.0169 C   0  0  0  0  0  0  0  0  0  0  0  0
   11.9207  -16.1700   19.9609 N   0  0  0  0  0  0  0  0  0  0  0  0
   12.3592  -15.5787   18.8505 C   0  0  0  0  0  0  0  0  0  0  0  0
   12.7269  -14.3419   19.2021 N   0  0  0  0  0  0  0  0  0  0  0  0
   12.5360  -14.1303   20.5065 C   0  0  0  0  0  0  0  0  0  0  0  0
   11.3525  -17.5792   23.8368 O   0  0  0  0  0  0  0  0  0  0  0  0
   11.0032  -17.0557   24.9527 N   0  0  0  0  0  0  0  0  0  0  0  0
   12.0928  -18.7808   23.9406 C   0  0  1  0  0  0  0  0  0  0  0  0
   12.4254  -19.3847   25.2056 C   0  0  0  0  0  0  0  0  0  0  0  0
   12.8382  -20.8331   25.1007 C   0  0  0  0  0  0  0  0  0  0  0  0
   11.7659  -21.7246   25.7010 C   0  0  0  0  0  0  0  0  0  0  0  0
   12.1935  -23.1573   25.5748 C   0  0  0  0  0  0  0  0  0  0  0  0
   11.1966  -24.1145   26.1798 N   0  0  0  0  0  0  0  0  0  0  0  0
   11.5893  -25.4904   26.0889 C   0  0  0  0  0  0  0  0  0  0  0  0
   13.5558  -18.6083   25.8431 O   0  0  0  0  0  0  0  0  0  0  0  0
   14.3891  -18.0467   25.0972 O   0  0  0  0  0  0  0  0  0  0  0  0
  1  2  1  0
  2  3  2  0
  4  2  1  0
  4  5  1  0
  5  6  1  0
  6  7  1  0
  7  8  1  0
  8 10  1  0
  8  9  1  1
 10 11  2  0
 10 12  1  0
 12 13  1  0
 13 20  1  0
 13 14  1  6
 15 14  1  0
 16 15  2  0
 17 18  1  0
 17 16  1  0
 18 19  2  0
 19 15  1  0
 20 21  2  0
 20 22  1  0
 22 23  1  0
 23 29  1  0
 23 24  1  1
 25 24  1  0
 25 26  1  0
 27 26  1  0
 27 28  1  0
 29 31  1  0
 30 29  2  0
M  END
$$$$
