RHK.pdb
     RDKit          3D

 31 31  0  0  1  0  0  0  0  0999 V2000
    8.9709  -11.4968   20.7426 N   0  0  0  0  0  0  0  0  0  0  0  0
    8.1647  -12.5490   20.1832 C   0  0  0  0  0  0  0  0  0  0  0  0
    7.4561  -12.2676   19.1218 N   0  0  0  0  0  0  0  0  0  0  0  0
    8.1336  -13.8282   20.7548 N   0  0  0  0  0  0  0  0  0  0  0  0
    7.2045  -14.8494   20.3519 C   0  0  0  0  0  0  0  0  0  0  0  0
    7.8319  -15.8003   19.3569 C   0  0  0  0  0  0  0  0  0  0  0  0
    9.2935  -15.5961   19.1732 C   0  0  0  0  0  0  0  0  0  0  0  0
    9.9477  -16.4584   18.1459 C   0  0  2  0  0  0  0  0  0  0  0  0
    9.4296  -17.7977   18.1051 N   0  0  0  0  0  0  0  0  0  0  0  0
   11.4072  -16.5169   18.4665 C   0  0  0  0  0  0  0  0  0  0  0  0
   11.9693  -17.5880   18.8030 O   0  0  0  0  0  0  0  0  0  0  0  0
    6.8375  -12.9993   18.6881 N   0  0  0  0  0  0  0  0  0  0  0  0
   12.1679  -15.3411   18.3883 C   0  0  2  0  0  0  0  0  0  0  0  0
   13.5940  -15.2124   18.5546 C   0  0  0  0  0  0  0  0  0  0  0  0
   14.1032  -14.0345   17.8309 C   0  0  0  0  0  0  0  0  0  0  0  0
   15.5782  -13.9619   17.6930 C   0  0  0  0  0  0  0  0  0  0  0  0
   16.4152  -14.8124   18.4232 N   0  0  0  0  0  0  0  0  0  0  0  0
   17.6781  -14.5318   18.1050 C   0  0  0  0  0  0  0  0  0  0  0  0
   17.6296  -13.5422   17.2068 N   0  0  0  0  0  0  0  0  0  0  0  0
   16.3702  -13.1839   16.9458 C   0  0  0  0  0  0  0  0  0  0  0  0
   13.9706  -15.1614   19.9938 O   0  0  0  0  0  0  0  0  0  0  0  0
   14.8510  -14.3418   20.4347 N   0  0  0  0  0  0  0  0  0  0  0  0
   13.3903  -16.0051   20.9707 C   0  0  1  0  0  0  0  0  0  0  0  0
   13.8089  -16.0045   22.3492 C   0  0  0  0  0  0  0  0  0  0  0  0
   12.9652  -16.8805   23.2436 C   0  0  0  0  0  0  0  0  0  0  0  0
   11.4918  -16.6452   22.9627 C   0  0  0  0  0  0  0  0  0  0  0  0
   10.6830  -17.6703   23.7017 C   0  0  0  0  0  0  0  0  0  0  0  0
    9.2012  -17.5235   23.4589 N   0  0  0  0  0  0  0  0  0  0  0  0
    8.4066  -18.5149   24.1233 C   0  0  0  0  0  0  0  0  0  0  0  0
   15.2438  -16.4752   22.4313 O   0  0  0  0  0  0  0  0  0  0  0  0
   15.5900  -17.4579   21.7380 O   0  0  0  0  0  0  0  0  0  0  0  0
  1  2  1  0
  2  3  2  0
  4  2  1  0
  4  5  1  0
  5  6  1  0
  6  7  1  0
  7  8  1  0
  8 10  1  0
  8  9  1  1
 10 11  2  0
 10 12  1  0
 12 13  1  0
 13 20  1  0
 13 14  1  6
 15 14  1  0
 16 15  2  0
 17 18  1  0
 17 16  1  0
 18 19  2  0
 19 15  1  0
 20 21  2  0
 20 22  1  0
 22 23  1  0
 23 29  1  0
 23 24  1  1
 25 24  1  0
 25 26  1  0
 27 26  1  0
 27 28  1  0
 29 31  1  0
 30 29  2  0
M  END
$$$$
