RHK.pdb
     RDKit          3D

 31 31  0  0  1  0  0  0  0  0999 V2000
    8.4567  -12.8518   17.9556 N   0  0  0  0  0  0  0  0  0  0  0  0
    8.5830  -12.4847   19.3410 C   0  0  0  0  0  0  0  0  0  0  0  0
    8.6234  -11.2101   19.6269 N   0  0  0  0  0  0  0  0  0  0  0  0
    8.6650  -13.4545   20.3493 N   0  0  0  0  0  0  0  0  0  0  0  0
    8.2776  -14.8262   20.1573 C   0  0  0  0  0  0  0  0  0  0  0  0
    6.7793  -14.9556   19.9953 C   0  0  0  0  0  0  0  0  0  0  0  0
    6.3174  -16.3548   19.7942 C   0  0  0  0  0  0  0  0  0  0  0  0
    7.2463  -17.4220   20.2689 C   0  0  2  0  0  0  0  0  0  0  0  0
    7.0004  -18.7054   19.6719 N   0  0  0  0  0  0  0  0  0  0  0  0
    7.0804  -17.5410   21.7503 C   0  0  0  0  0  0  0  0  0  0  0  0
    5.9622  -17.4046   22.3049 O   0  0  0  0  0  0  0  0  0  0  0  0
    8.6338  -10.8917   20.6292 N   0  0  0  0  0  0  0  0  0  0  0  0
    8.2067  -17.8127   22.5406 C   0  0  1  0  0  0  0  0  0  0  0  0
    8.2338  -18.0856   23.9558 C   0  0  0  0  0  0  0  0  0  0  0  0
    7.2917  -19.1643   24.3011 C   0  0  0  0  0  0  0  0  0  0  0  0
    7.3386  -19.6220   25.7112 C   0  0  0  0  0  0  0  0  0  0  0  0
    8.1904  -19.0150   26.6402 N   0  0  0  0  0  0  0  0  0  0  0  0
    8.0263  -19.6193   27.8162 C   0  0  0  0  0  0  0  0  0  0  0  0
    7.1034  -20.5684   27.6268 N   0  0  0  0  0  0  0  0  0  0  0  0
    6.6767  -20.5861   26.3618 C   0  0  0  0  0  0  0  0  0  0  0  0
    9.6108  -18.4072   24.4209 O   0  0  0  0  0  0  0  0  0  0  0  0
    9.9674  -19.6047   24.7040 N   0  0  0  0  0  0  0  0  0  0  0  0
   10.6166  -17.4249   24.5827 C   0  0  2  0  0  0  0  0  0  0  0  0
   11.1308  -17.0407   25.8725 C   0  0  0  0  0  0  0  0  0  0  0  0
   10.1922  -16.1654   26.6676 C   0  0  0  0  0  0  0  0  0  0  0  0
   10.7854  -15.8731   28.0342 C   0  0  0  0  0  0  0  0  0  0  0  0
    9.8559  -14.9677   28.7876 C   0  0  0  0  0  0  0  0  0  0  0  0
   10.4081  -14.5591   30.1309 N   0  0  0  0  0  0  0  0  0  0  0  0
    9.5210  -13.7277   30.8907 C   0  0  0  0  0  0  0  0  0  0  0  0
   11.4254  -18.2856   26.6790 O   0  0  0  0  0  0  0  0  0  0  0  0
   10.4670  -19.0089   27.0316 O   0  0  0  0  0  0  0  0  0  0  0  0
  1  2  1  0
  2  3  2  0
  4  2  1  0
  4  5  1  0
  5  6  1  0
  6  7  1  0
  7  8  1  0
  8 10  1  0
  8  9  1  6
 10 11  2  0
 10 12  1  0
 12 13  1  0
 13 20  1  0
 13 14  1  1
 15 14  1  0
 16 15  2  0
 17 18  1  0
 17 16  1  0
 18 19  2  0
 19 15  1  0
 20 21  2  0
 20 22  1  0
 22 23  1  0
 23 29  1  0
 23 24  1  6
 25 24  1  0
 25 26  1  0
 27 26  1  0
 27 28  1  0
 29 31  1  0
 30 29  2  0
M  END
$$$$
