RHK.pdb
     RDKit          3D

 31 31  0  0  1  0  0  0  0  0999 V2000
    8.0805  -13.4572   18.1638 N   0  0  0  0  0  0  0  0  0  0  0  0
    8.2046  -12.7696   19.4215 C   0  0  0  0  0  0  0  0  0  0  0  0
    8.8102  -11.6115   19.4196 N   0  0  0  0  0  0  0  0  0  0  0  0
    7.7006  -13.3198   20.6078 N   0  0  0  0  0  0  0  0  0  0  0  0
    7.0592  -14.6055   20.6706 C   0  0  0  0  0  0  0  0  0  0  0  0
    7.7708  -15.6166   19.7992 C   0  0  0  0  0  0  0  0  0  0  0  0
    7.2133  -16.9916   19.8999 C   0  0  0  0  0  0  0  0  0  0  0  0
    7.9261  -18.0426   19.1161 C   0  0  2  0  0  0  0  0  0  0  0  0
    7.2210  -19.2929   19.0569 N   0  0  0  0  0  0  0  0  0  0  0  0
    9.2539  -18.2696   19.7654 C   0  0  0  0  0  0  0  0  0  0  0  0
    9.3915  -19.0546   20.7356 O   0  0  0  0  0  0  0  0  0  0  0  0
    8.9588  -11.0896   20.3205 N   0  0  0  0  0  0  0  0  0  0  0  0
   10.3759  -17.5855   19.2753 C   0  0  2  0  0  0  0  0  0  0  0  0
   11.7475  -17.7525   19.6863 C   0  0  0  0  0  0  0  0  0  0  0  0
   12.6660  -17.5224   18.5577 C   0  0  0  0  0  0  0  0  0  0  0  0
   12.7704  -18.6377   17.5855 C   0  0  0  0  0  0  0  0  0  0  0  0
   12.3977  -19.9396   17.9363 N   0  0  0  0  0  0  0  0  0  0  0  0
   12.5919  -20.7296   16.8812 C   0  0  0  0  0  0  0  0  0  0  0  0
   13.0675  -19.9469   15.9067 N   0  0  0  0  0  0  0  0  0  0  0  0
   13.1829  -18.6804   16.3132 C   0  0  0  0  0  0  0  0  0  0  0  0
   12.0810  -16.8697   20.8375 O   0  0  0  0  0  0  0  0  0  0  0  0
   12.2698  -15.6109   20.6931 N   0  0  0  0  0  0  0  0  0  0  0  0
   12.2127  -17.3505   22.1621 C   0  0  1  0  0  0  0  0  0  0  0  0
   12.5029  -16.4882   23.2791 C   0  0  0  0  0  0  0  0  0  0  0  0
   11.8298  -16.9066   24.5641 C   0  0  0  0  0  0  0  0  0  0  0  0
   10.3311  -16.6864   24.4621 C   0  0  0  0  0  0  0  0  0  0  0  0
    9.6806  -17.1524   25.7313 C   0  0  0  0  0  0  0  0  0  0  0  0
    8.1860  -16.9468   25.7252 N   0  0  0  0  0  0  0  0  0  0  0  0
    7.5425  -17.3544   26.9399 C   0  0  0  0  0  0  0  0  0  0  0  0
   13.9977  -16.4595   23.5073 O   0  0  0  0  0  0  0  0  0  0  0  0
   14.6883  -17.4009   23.0568 O   0  0  0  0  0  0  0  0  0  0  0  0
  1  2  1  0
  2  3  2  0
  4  2  1  0
  4  5  1  0
  5  6  1  0
  6  7  1  0
  7  8  1  0
  8 10  1  0
  8  9  1  1
 10 11  2  0
 10 12  1  0
 12 13  1  0
 13 20  1  0
 13 14  1  6
 15 14  1  0
 16 15  2  0
 17 18  1  0
 17 16  1  0
 18 19  2  0
 19 15  1  0
 20 21  2  0
 20 22  1  0
 22 23  1  0
 23 29  1  0
 23 24  1  1
 25 24  1  0
 25 26  1  0
 27 26  1  0
 27 28  1  0
 29 31  1  0
 30 29  2  0
M  END
$$$$
