RHK.pdb
     RDKit          3D

 31 31  0  0  1  0  0  0  0  0999 V2000
    8.9817  -11.7250   19.7852 N   0  0  0  0  0  0  0  0  0  0  0  0
    8.3059  -12.9935   19.8495 C   0  0  0  0  0  0  0  0  0  0  0  0
    7.0011  -12.9797   19.9236 N   0  0  0  0  0  0  0  0  0  0  0  0
    9.0164  -14.2014   19.8384 N   0  0  0  0  0  0  0  0  0  0  0  0
    8.3799  -15.4909   19.8620 C   0  0  0  0  0  0  0  0  0  0  0  0
    7.7263  -15.7556   21.2001 C   0  0  0  0  0  0  0  0  0  0  0  0
    7.1345  -17.1148   21.3189 C   0  0  0  0  0  0  0  0  0  0  0  0
    7.6362  -18.1309   20.3479 C   0  0  2  0  0  0  0  0  0  0  0  0
    6.6128  -19.0118   19.8575 N   0  0  0  0  0  0  0  0  0  0  0  0
    8.6795  -18.9457   21.0434 C   0  0  0  0  0  0  0  0  0  0  0  0
    8.3913  -19.7328   21.9782 O   0  0  0  0  0  0  0  0  0  0  0  0
    6.4678  -13.8773   20.0502 N   0  0  0  0  0  0  0  0  0  0  0  0
   10.0170  -18.8261   20.6385 C   0  0  2  0  0  0  0  0  0  0  0  0
   11.1555  -19.5331   21.1695 C   0  0  0  0  0  0  0  0  0  0  0  0
   12.3084  -19.4325   20.2579 C   0  0  0  0  0  0  0  0  0  0  0  0
   13.5098  -20.2012   20.6652 C   0  0  0  0  0  0  0  0  0  0  0  0
   13.4014  -21.3345   21.4781 N   0  0  0  0  0  0  0  0  0  0  0  0
   14.6244  -21.8219   21.6825 C   0  0  0  0  0  0  0  0  0  0  0  0
   15.4651  -21.0212   21.0188 N   0  0  0  0  0  0  0  0  0  0  0  0
   14.8108  -20.0362   20.3988 C   0  0  0  0  0  0  0  0  0  0  0  0
   11.5068  -19.0510   22.5332 O   0  0  0  0  0  0  0  0  0  0  0  0
   11.6567  -17.8055   22.7934 N   0  0  0  0  0  0  0  0  0  0  0  0
   11.6990  -19.9231   23.6311 C   0  0  1  0  0  0  0  0  0  0  0  0
   12.0650  -19.4552   24.9436 C   0  0  0  0  0  0  0  0  0  0  0  0
   11.7966  -20.4532   26.0442 C   0  0  0  0  0  0  0  0  0  0  0  0
   12.2277  -19.8805   27.3825 C   0  0  0  0  0  0  0  0  0  0  0  0
   12.0293  -20.9200   28.4462 C   0  0  0  0  0  0  0  0  0  0  0  0
   12.4784  -20.4486   29.8072 N   0  0  0  0  0  0  0  0  0  0  0  0
   12.3570  -21.4443   30.8317 C   0  0  0  0  0  0  0  0  0  0  0  0
   13.5380  -19.1130   24.9545 O   0  0  0  0  0  0  0  0  0  0  0  0
   14.3425  -19.9226   24.4412 O   0  0  0  0  0  0  0  0  0  0  0  0
  1  2  1  0
  2  3  2  0
  4  2  1  0
  4  5  1  0
  5  6  1  0
  6  7  1  0
  7  8  1  0
  8 10  1  0
  8  9  1  1
 10 11  2  0
 10 12  1  0
 12 13  1  0
 13 20  1  0
 13 14  1  6
 15 14  1  0
 16 15  2  0
 17 18  1  0
 17 16  1  0
 18 19  2  0
 19 15  1  0
 20 21  2  0
 20 22  1  0
 22 23  1  0
 23 29  1  0
 23 24  1  6
 25 24  1  0
 25 26  1  0
 27 26  1  0
 27 28  1  0
 29 31  1  0
 30 29  2  0
M  END
$$$$
