RHK.pdb
     RDKit          3D

 31 31  0  0  1  0  0  0  0  0999 V2000
   10.4100  -18.3717   13.0929 N   0  0  0  0  0  0  0  0  0  0  0  0
    8.9739  -18.3928   13.1785 C   0  0  0  0  0  0  0  0  0  0  0  0
    8.3177  -18.9353   12.1870 N   0  0  0  0  0  0  0  0  0  0  0  0
    8.2995  -17.8486   14.2798 N   0  0  0  0  0  0  0  0  0  0  0  0
    8.9582  -17.1018   15.3176 C   0  0  0  0  0  0  0  0  0  0  0  0
   10.0613  -17.9125   15.9609 C   0  0  0  0  0  0  0  0  0  0  0  0
   10.7947  -17.1836   17.0298 C   0  0  0  0  0  0  0  0  0  0  0  0
   10.6720  -17.7486   18.4056 C   0  0  2  0  0  0  0  0  0  0  0  0
    9.3817  -18.3172   18.6806 N   0  0  0  0  0  0  0  0  0  0  0  0
   10.9251  -16.6387   19.3753 C   0  0  0  0  0  0  0  0  0  0  0  0
   11.9451  -15.9106   19.2975 O   0  0  0  0  0  0  0  0  0  0  0  0
    7.2660  -18.9375   12.1856 N   0  0  0  0  0  0  0  0  0  0  0  0
    9.9957  -16.4060   20.3996 C   0  0  1  0  0  0  0  0  0  0  0  0
   10.0092  -15.3330   21.3621 C   0  0  0  0  0  0  0  0  0  0  0  0
    8.6730  -14.7259   21.4910 C   0  0  0  0  0  0  0  0  0  0  0  0
    8.0375  -14.3115   20.2164 C   0  0  0  0  0  0  0  0  0  0  0  0
    8.2131  -13.0203   19.7076 N   0  0  0  0  0  0  0  0  0  0  0  0
    7.5382  -12.9258   18.5628 C   0  0  0  0  0  0  0  0  0  0  0  0
    6.9636  -14.1170   18.3645 N   0  0  0  0  0  0  0  0  0  0  0  0
    7.2529  -14.9668   19.3529 C   0  0  0  0  0  0  0  0  0  0  0  0
   10.5180  -15.7941   22.6828 O   0  0  0  0  0  0  0  0  0  0  0  0
    9.7291  -16.0687   23.6541 N   0  0  0  0  0  0  0  0  0  0  0  0
   11.8957  -15.9616   22.9599 C   0  0  1  0  0  0  0  0  0  0  0  0
   12.3793  -16.7805   24.0421 C   0  0  0  0  0  0  0  0  0  0  0  0
   12.4374  -18.2530   23.7144 C   0  0  0  0  0  0  0  0  0  0  0  0
   12.8434  -19.0444   24.9448 C   0  0  0  0  0  0  0  0  0  0  0  0
   12.8685  -20.5047   24.6011 C   0  0  0  0  0  0  0  0  0  0  0  0
   13.1379  -21.3775   25.8019 N   0  0  0  0  0  0  0  0  0  0  0  0
   13.2459  -22.7725   25.4886 C   0  0  0  0  0  0  0  0  0  0  0  0
   13.7666  -16.3198   24.4301 O   0  0  0  0  0  0  0  0  0  0  0  0
   14.3364  -16.8854   25.3900 O   0  0  0  0  0  0  0  0  0  0  0  0
  1  2  1  0
  2  3  2  0
  4  2  1  0
  4  5  1  0
  5  6  1  0
  6  7  1  0
  7  8  1  0
  8 10  1  0
  8  9  1  1
 10 11  2  0
 10 12  1  0
 12 13  1  0
 13 20  1  0
 13 14  1  6
 15 14  1  0
 16 15  2  0
 17 18  1  0
 17 16  1  0
 18 19  2  0
 19 15  1  0
 20 21  2  0
 20 22  1  0
 22 23  1  0
 23 29  1  0
 23 24  1  1
 25 24  1  0
 25 26  1  0
 27 26  1  0
 27 28  1  0
 29 31  1  0
 30 29  2  0
M  END
$$$$
