RHK.pdb
     RDKit          3D

 31 31  0  0  1  0  0  0  0  0999 V2000
    7.6085  -13.0665   17.9429 N   0  0  0  0  0  0  0  0  0  0  0  0
    8.6032  -13.4743   16.9868 C   0  0  0  0  0  0  0  0  0  0  0  0
    9.2830  -12.5347   16.3843 N   0  0  0  0  0  0  0  0  0  0  0  0
    8.8345  -14.8275   16.7052 N   0  0  0  0  0  0  0  0  0  0  0  0
    8.2752  -15.9013   17.4815 C   0  0  0  0  0  0  0  0  0  0  0  0
    8.6527  -15.7775   18.9410 C   0  0  0  0  0  0  0  0  0  0  0  0
    9.3692  -16.9653   19.4769 C   0  0  0  0  0  0  0  0  0  0  0  0
    8.8143  -17.5487   20.7335 C   0  0  2  0  0  0  0  0  0  0  0  0
    7.3916  -17.7442   20.6972 N   0  0  0  0  0  0  0  0  0  0  0  0
    9.1427  -16.6114   21.8516 C   0  0  0  0  0  0  0  0  0  0  0  0
   10.3283  -16.3236   22.1483 O   0  0  0  0  0  0  0  0  0  0  0  0
    9.9997  -12.7831   15.6558 N   0  0  0  0  0  0  0  0  0  0  0  0
    8.0955  -16.0387   22.5880 C   0  0  1  0  0  0  0  0  0  0  0  0
    8.2071  -15.1973   23.7532 C   0  0  0  0  0  0  0  0  0  0  0  0
    6.9703  -14.4252   23.9642 C   0  0  0  0  0  0  0  0  0  0  0  0
    6.9745  -13.5286   25.1458 C   0  0  0  0  0  0  0  0  0  0  0  0
    7.8823  -12.4689   25.2458 N   0  0  0  0  0  0  0  0  0  0  0  0
    7.6621  -11.8358   26.3972 C   0  0  0  0  0  0  0  0  0  0  0  0
    6.6513  -12.4777   26.9929 N   0  0  0  0  0  0  0  0  0  0  0  0
    6.2232  -13.5033   26.2529 C   0  0  0  0  0  0  0  0  0  0  0  0
    8.5576  -15.9894   24.9638 O   0  0  0  0  0  0  0  0  0  0  0  0
    7.8980  -17.0336   25.3042 N   0  0  0  0  0  0  0  0  0  0  0  0
    9.6337  -15.6514   25.8186 C   0  0  1  0  0  0  0  0  0  0  0  0
   10.0457  -16.4841   26.9197 C   0  0  0  0  0  0  0  0  0  0  0  0
   11.1693  -17.4334   26.5799 C   0  0  0  0  0  0  0  0  0  0  0  0
   11.5536  -18.2446   27.8044 C   0  0  0  0  0  0  0  0  0  0  0  0
   12.6726  -19.1764   27.4426 C   0  0  0  0  0  0  0  0  0  0  0  0
   13.0749  -20.0707   28.5892 N   0  0  0  0  0  0  0  0  0  0  0  0
   14.2288  -20.8763   28.3152 C   0  0  0  0  0  0  0  0  0  0  0  0
   10.4908  -15.6043   28.0665 O   0  0  0  0  0  0  0  0  0  0  0  0
   10.9102  -14.4539   27.8080 O   0  0  0  0  0  0  0  0  0  0  0  0
  1  2  1  0
  2  3  2  0
  4  2  1  0
  4  5  1  0
  5  6  1  0
  6  7  1  0
  7  8  1  0
  8 10  1  0
  8  9  1  6
 10 11  2  0
 10 12  1  0
 12 13  1  0
 13 20  1  0
 13 14  1  1
 15 14  1  0
 16 15  2  0
 17 18  1  0
 17 16  1  0
 18 19  2  0
 19 15  1  0
 20 21  2  0
 20 22  1  0
 22 23  1  0
 23 29  1  0
 23 24  1  1
 25 24  1  0
 25 26  1  0
 27 26  1  0
 27 28  1  0
 29 31  1  0
 30 29  2  0
M  END
$$$$
