RHK.pdb
     RDKit          3D

 31 31  0  0  1  0  0  0  0  0999 V2000
    7.0638  -13.2077   17.4394 N   0  0  0  0  0  0  0  0  0  0  0  0
    8.2236  -13.4759   18.2475 C   0  0  0  0  0  0  0  0  0  0  0  0
    9.1400  -12.5466   18.3161 N   0  0  0  0  0  0  0  0  0  0  0  0
    8.3717  -14.6891   18.9333 N   0  0  0  0  0  0  0  0  0  0  0  0
    8.7667  -15.9143   18.2919 C   0  0  0  0  0  0  0  0  0  0  0  0
   10.0741  -16.4296   18.8514 C   0  0  0  0  0  0  0  0  0  0  0  0
    9.9594  -16.9854   20.2260 C   0  0  0  0  0  0  0  0  0  0  0  0
    9.2375  -18.2861   20.3447 C   0  0  2  0  0  0  0  0  0  0  0  0
    8.3277  -18.5395   19.2622 N   0  0  0  0  0  0  0  0  0  0  0  0
    8.4661  -18.2607   21.6256 C   0  0  0  0  0  0  0  0  0  0  0  0
    7.2812  -18.6706   21.6936 O   0  0  0  0  0  0  0  0  0  0  0  0
   10.0105  -12.7016   18.8855 N   0  0  0  0  0  0  0  0  0  0  0  0
    9.0853  -17.7650   22.7822 C   0  0  2  0  0  0  0  0  0  0  0  0
    8.6088  -17.8678   24.1388 C   0  0  0  0  0  0  0  0  0  0  0  0
    8.3951  -19.2760   24.5154 C   0  0  0  0  0  0  0  0  0  0  0  0
    7.9702  -19.5013   25.9185 C   0  0  0  0  0  0  0  0  0  0  0  0
    7.3842  -18.4769   26.6696 N   0  0  0  0  0  0  0  0  0  0  0  0
    7.1039  -18.9539   27.8816 C   0  0  0  0  0  0  0  0  0  0  0  0
    7.4999  -20.2312   27.8849 N   0  0  0  0  0  0  0  0  0  0  0  0
    8.0264  -20.5800   26.7085 C   0  0  0  0  0  0  0  0  0  0  0  0
    9.5318  -17.1924   25.0915 O   0  0  0  0  0  0  0  0  0  0  0  0
   10.1281  -17.8338   26.0266 N   0  0  0  0  0  0  0  0  0  0  0  0
    9.8158  -15.8071   25.0353 C   0  0  2  0  0  0  0  0  0  0  0  0
    9.2505  -14.8573   25.9595 C   0  0  0  0  0  0  0  0  0  0  0  0
    7.8145  -14.4977   25.6630 C   0  0  0  0  0  0  0  0  0  0  0  0
    7.2754  -13.5759   26.7422 C   0  0  0  0  0  0  0  0  0  0  0  0
    6.9521  -12.2441   26.1315 C   0  0  0  0  0  0  0  0  0  0  0  0
    5.7467  -11.5942   26.7646 N   0  0  0  0  0  0  0  0  0  0  0  0
    5.4825  -10.2714   26.2787 C   0  0  0  0  0  0  0  0  0  0  0  0
    9.3243  -15.4245   27.3595 O   0  0  0  0  0  0  0  0  0  0  0  0
    9.7855  -14.7029   28.2720 O   0  0  0  0  0  0  0  0  0  0  0  0
  1  2  1  0
  2  3  2  0
  4  2  1  0
  4  5  1  0
  5  6  1  0
  6  7  1  0
  7  8  1  0
  8 10  1  0
  8  9  1  6
 10 11  2  0
 10 12  1  0
 12 13  1  0
 13 20  1  0
 13 14  1  1
 15 14  1  0
 16 15  2  0
 17 18  1  0
 17 16  1  0
 18 19  2  0
 19 15  1  0
 20 21  2  0
 20 22  1  0
 22 23  1  0
 23 29  1  0
 23 24  1  6
 25 24  1  0
 25 26  1  0
 27 26  1  0
 27 28  1  0
 29 31  1  0
 30 29  2  0
M  END
$$$$
