RRV.pdb
     RDKit          3D

 30 29  0  0  1  0  0  0  0  0999 V2000
   31.7011  -20.6308  -20.3915 N   0  0  0  0  0  0  0  0  0  0  0  0
   30.6424  -19.7666  -20.7835 C   0  0  0  0  0  0  0  0  0  0  0  0
   30.7886  -18.9983  -21.8118 N   0  0  0  0  0  0  0  0  0  0  0  0
   29.4429  -19.7584  -20.0435 N   0  0  0  0  0  0  0  0  0  0  0  0
   29.2998  -20.5587  -18.8481 C   0  0  0  0  0  0  0  0  0  0  0  0
   28.5087  -21.7946  -19.1368 C   0  0  0  0  0  0  0  0  0  0  0  0
   27.2861  -21.9062  -18.2635 C   0  0  0  0  0  0  0  0  0  0  0  0
   27.6788  -22.1370  -16.8192 C   0  0  2  0  0  0  0  0  0  0  0  0
   28.5005  -23.3094  -16.6745 N   0  0  0  0  0  0  0  0  0  0  0  0
   26.4730  -22.1894  -15.9399 C   0  0  0  0  0  0  0  0  0  0  0  0
   25.7652  -23.2103  -16.0460 O   0  0  0  0  0  0  0  0  0  0  0  0
   30.0239  -18.3631  -22.1259 N   0  0  0  0  0  0  0  0  0  0  0  0
   25.5031  -21.2797   -9.1734 C   0  0  0  0  0  0  0  0  0  0  0  0
   24.1317  -21.0522   -8.8934 N   0  0  0  0  0  0  0  0  0  0  0  0
   23.5895  -21.6103   -7.8457 N   0  0  0  0  0  0  0  0  0  0  0  0
   23.3545  -20.2218   -9.7489 C   0  0  0  0  0  0  0  0  0  0  0  0
   24.0131  -19.5837  -10.8414 C   0  0  0  0  0  0  0  0  0  0  0  0
   23.9196  -20.3585  -12.1313 C   0  0  0  0  0  0  0  0  0  0  0  0
   25.1705  -20.3298  -12.9345 C   0  0  2  0  0  0  0  0  0  0  0  0
   24.9971  -21.1154  -14.1866 N   0  0  0  0  0  0  0  0  0  0  0  0
   26.1404  -21.1651  -15.0444 C   0  0  0  0  0  0  0  0  0  0  0  0
   23.7467  -20.8549  -14.9275 O   0  0  0  0  0  0  0  0  0  0  0  0
   23.6215  -19.8272  -15.6120 C   0  0  0  0  0  0  0  0  0  0  0  0
   22.5879  -21.5021   -7.6601 C   0  0  1  0  0  0  0  0  0  0  0  0
   19.8058  -22.2154  -17.2929 C   0  0  0  0  0  0  0  0  0  0  0  0
   21.1098  -22.5205  -16.6092 C   0  0  1  0  0  0  0  0  0  0  0  0
   21.0139  -23.8442  -15.8583 N   0  0  0  0  0  0  0  0  0  0  0  0
   21.4202  -21.4392  -15.6254 C   0  0  0  0  0  0  0  0  0  0  0  0
   22.6379  -21.7542  -14.8957 O   0  0  0  0  0  0  0  0  0  0  0  0
   20.2797  -21.2138  -14.6878 O   0  0  0  0  0  0  0  0  0  0  0  0
  2  1  1  0
  2  3  2  0
  4  2  1  0
  5  4  1  0
  6  5  1  0
  7  6  1  0
  8  7  1  0
  8  9  1  6
 10  8  1  0
 10 11  2  0
 13 12  1  0
 13 14  2  0
 15 13  1  0
 16 15  1  0
 17 16  1  0
 19 18  1  1
 18 17  1  0
 19 20  1  0
 20 10  1  0
 21 19  1  0
 22 21  2  0
 24 23  1  1
 24 26  1  0
 25 24  1  0
 26 28  1  0
 26 27  1  6
 27 21  1  0
 28 30  1  0
 29 28  2  0
M  END
$$$$
