RRV.pdb
     RDKit          3D

 30 29  0  0  1  0  0  0  0  0999 V2000
   24.1630  -18.1062  -19.6490 N   0  0  0  0  0  0  0  0  0  0  0  0
   24.9262  -19.0692  -20.3642 C   0  0  0  0  0  0  0  0  0  0  0  0
   25.0790  -18.9469  -21.6412 N   0  0  0  0  0  0  0  0  0  0  0  0
   25.5082  -20.1486  -19.6696 N   0  0  0  0  0  0  0  0  0  0  0  0
   25.3267  -20.3013  -18.2436 C   0  0  0  0  0  0  0  0  0  0  0  0
   26.3462  -19.5012  -17.4971 C   0  0  0  0  0  0  0  0  0  0  0  0
   26.1067  -19.5179  -16.0098 C   0  0  0  0  0  0  0  0  0  0  0  0
   26.7847  -20.7122  -15.3713 C   0  0  2  0  0  0  0  0  0  0  0  0
   27.0654  -21.7409  -16.3375 N   0  0  0  0  0  0  0  0  0  0  0  0
   25.9833  -21.2300  -14.2226 C   0  0  0  0  0  0  0  0  0  0  0  0
   25.0426  -21.9942  -14.5150 O   0  0  0  0  0  0  0  0  0  0  0  0
   25.6607  -19.6209  -22.1837 N   0  0  0  0  0  0  0  0  0  0  0  0
   27.0796  -20.8317   -5.5965 C   0  0  0  0  0  0  0  0  0  0  0  0
   27.1920  -19.8065   -6.5697 N   0  0  0  0  0  0  0  0  0  0  0  0
   27.9213  -18.7551   -6.3128 N   0  0  0  0  0  0  0  0  0  0  0  0
   26.5145  -19.9246   -7.8156 C   0  0  0  0  0  0  0  0  0  0  0  0
   25.5895  -20.9986   -7.9754 C   0  0  0  0  0  0  0  0  0  0  0  0
   25.0053  -21.0834   -9.3627 C   0  0  0  0  0  0  0  0  0  0  0  0
   25.9869  -20.7903  -10.4404 C   0  0  2  0  0  0  0  0  0  0  0  0
   25.3719  -21.0248  -11.7752 N   0  0  0  0  0  0  0  0  0  0  0  0
   26.2557  -20.8901  -12.8915 C   0  0  0  0  0  0  0  0  0  0  0  0
   24.0744  -20.3563  -11.9990 O   0  0  0  0  0  0  0  0  0  0  0  0
   23.9875  -19.1188  -11.9609 C   0  0  0  0  0  0  0  0  0  0  0  0
   28.0117  -18.0048   -7.0044 C   0  0  2  0  0  0  0  0  0  0  0  0
   20.8029  -22.2264  -13.8753 C   0  0  0  0  0  0  0  0  0  0  0  0
   21.0646  -20.7464  -13.8359 C   0  0  2  0  0  0  0  0  0  0  0  0
   22.0756  -20.3613  -14.9105 N   0  0  0  0  0  0  0  0  0  0  0  0
   21.6274  -20.3764  -12.5018 C   0  0  0  0  0  0  0  0  0  0  0  0
   22.8753  -21.0845  -12.2657 O   0  0  0  0  0  0  0  0  0  0  0  0
   20.6478  -20.6422  -11.4062 O   0  0  0  0  0  0  0  0  0  0  0  0
  2  1  1  0
  2  3  2  0
  4  2  1  0
  5  4  1  0
  6  5  1  0
  7  6  1  0
  8  7  1  0
  8  9  1  6
 10  8  1  0
 10 11  2  0
 13 12  1  0
 13 14  2  0
 15 13  1  0
 16 15  1  0
 17 16  1  0
 19 18  1  1
 18 17  1  0
 19 20  1  0
 20 10  1  0
 21 19  1  0
 22 21  2  0
 24 23  1  6
 24 26  1  0
 25 24  1  0
 26 28  1  0
 26 27  1  6
 27 21  1  0
 28 30  1  0
 29 28  2  0
M  END
$$$$
