RRV.pdb
     RDKit          3D

 30 29  0  0  1  0  0  0  0  0999 V2000
   16.5948  -24.7315   -7.7859 N   0  0  0  0  0  0  0  0  0  0  0  0
   17.9723  -25.0532   -7.6436 C   0  0  0  0  0  0  0  0  0  0  0  0
   18.3172  -26.2218   -7.2142 N   0  0  0  0  0  0  0  0  0  0  0  0
   18.9475  -24.0907   -7.9737 N   0  0  0  0  0  0  0  0  0  0  0  0
   18.7204  -23.1330   -9.0325 C   0  0  0  0  0  0  0  0  0  0  0  0
   19.1749  -23.6862  -10.3455 C   0  0  0  0  0  0  0  0  0  0  0  0
   19.1483  -22.6514  -11.4402 C   0  0  0  0  0  0  0  0  0  0  0  0
   19.5042  -23.2735  -12.7743 C   0  0  2  0  0  0  0  0  0  0  0  0
   19.1755  -24.6740  -12.8102 N   0  0  0  0  0  0  0  0  0  0  0  0
   20.9380  -23.0287  -13.1120 C   0  0  0  0  0  0  0  0  0  0  0  0
   21.7647  -23.7773  -12.5544 O   0  0  0  0  0  0  0  0  0  0  0  0
   19.3194  -26.4731   -7.0749 N   0  0  0  0  0  0  0  0  0  0  0  0
   26.7432  -22.1158  -17.9871 C   0  0  0  0  0  0  0  0  0  0  0  0
   25.5363  -22.2577  -18.7178 N   0  0  0  0  0  0  0  0  0  0  0  0
   25.4436  -23.1867  -19.6297 N   0  0  0  0  0  0  0  0  0  0  0  0
   24.4360  -21.3933  -18.4576 C   0  0  0  0  0  0  0  0  0  0  0  0
   24.5760  -20.4253  -17.4193 C   0  0  0  0  0  0  0  0  0  0  0  0
   24.3160  -20.9827  -16.0429 C   0  0  0  0  0  0  0  0  0  0  0  0
   22.8826  -21.2795  -15.7824 C   0  0  2  0  0  0  0  0  0  0  0  0
   22.6938  -21.7096  -14.3702 N   0  0  0  0  0  0  0  0  0  0  0  0
   21.3494  -22.0251  -13.9981 C   0  0  0  0  0  0  0  0  0  0  0  0
   23.3785  -20.8784  -13.3599 O   0  0  0  0  0  0  0  0  0  0  0  0
   22.9066  -19.7820  -13.0202 C   0  0  0  0  0  0  0  0  0  0  0  0
   24.6096  -23.2522  -20.2208 C   0  0  2  0  0  0  0  0  0  0  0  0
   26.5982  -22.0638  -10.8224 C   0  0  0  0  0  0  0  0  0  0  0  0
   25.8137  -20.7867  -10.7019 C   0  0  2  0  0  0  0  0  0  0  0  0
   24.5369  -21.0261   -9.9034 N   0  0  0  0  0  0  0  0  0  0  0  0
   25.4365  -20.3044  -12.0652 C   0  0  0  0  0  0  0  0  0  0  0  0
   24.5957  -21.2848  -12.7334 O   0  0  0  0  0  0  0  0  0  0  0  0
   26.6453  -19.9915  -12.8846 O   0  0  0  0  0  0  0  0  0  0  0  0
  2  1  1  0
  2  3  2  0
  4  2  1  0
  5  4  1  0
  6  5  1  0
  7  6  1  0
  8  7  1  0
  8  9  1  1
 10  8  1  0
 10 11  2  0
 13 12  1  0
 13 14  2  0
 15 13  1  0
 16 15  1  0
 17 16  1  0
 19 18  1  6
 18 17  1  0
 19 20  1  0
 20 10  1  0
 21 19  1  0
 22 21  2  0
 24 23  1  1
 24 26  1  0
 25 24  1  0
 26 28  1  0
 26 27  1  1
 27 21  1  0
 28 30  1  0
 29 28  2  0
M  END
$$$$
