RRV.pdb
     RDKit          3D

 30 29  0  0  1  0  0  0  0  0999 V2000
   26.5148  -26.2315  -17.8825 N   0  0  0  0  0  0  0  0  0  0  0  0
   27.4320  -26.5275  -16.8373 C   0  0  0  0  0  0  0  0  0  0  0  0
   27.1454  -27.4433  -15.9724 N   0  0  0  0  0  0  0  0  0  0  0  0
   28.6462  -25.8163  -16.7572 N   0  0  0  0  0  0  0  0  0  0  0  0
   28.8993  -24.6763  -17.6093 C   0  0  0  0  0  0  0  0  0  0  0  0
   28.8735  -23.4108  -16.8126 C   0  0  0  0  0  0  0  0  0  0  0  0
   27.4984  -23.0992  -16.2818 C   0  0  0  0  0  0  0  0  0  0  0  0
   26.9667  -21.8185  -16.8905 C   0  0  2  0  0  0  0  0  0  0  0  0
   28.0184  -21.0400  -17.4892 N   0  0  0  0  0  0  0  0  0  0  0  0
   26.1930  -21.0305  -15.8853 C   0  0  0  0  0  0  0  0  0  0  0  0
   26.8649  -20.2958  -15.1346 O   0  0  0  0  0  0  0  0  0  0  0  0
   27.7906  -27.6638  -15.1837 N   0  0  0  0  0  0  0  0  0  0  0  0
   18.9496  -19.4092  -14.7214 C   0  0  0  0  0  0  0  0  0  0  0  0
   19.1645  -20.1439  -15.9150 N   0  0  0  0  0  0  0  0  0  0  0  0
   18.3519  -21.1171  -16.2245 N   0  0  0  0  0  0  0  0  0  0  0  0
   20.2577  -19.8215  -16.7672 C   0  0  0  0  0  0  0  0  0  0  0  0
   21.0543  -18.6862  -16.4338 C   0  0  0  0  0  0  0  0  0  0  0  0
   22.4697  -19.0395  -16.0536 C   0  0  0  0  0  0  0  0  0  0  0  0
   22.5685  -20.2320  -15.1709 C   0  0  2  0  0  0  0  0  0  0  0  0
   23.9853  -20.4694  -14.7821 N   0  0  0  0  0  0  0  0  0  0  0  0
   24.7984  -21.0986  -15.7764 C   0  0  0  0  0  0  0  0  0  0  0  0
   24.1827  -21.0526  -13.4400 O   0  0  0  0  0  0  0  0  0  0  0  0
   24.1402  -22.2817  -13.2738 C   0  0  0  0  0  0  0  0  0  0  0  0
   18.5225  -21.6911  -17.0556 C   0  0  2  0  0  0  0  0  0  0  0  0
   26.8801  -20.5438  -10.8418 C   0  0  0  0  0  0  0  0  0  0  0  0
   25.5703  -20.2799  -10.1520 C   0  0  1  0  0  0  0  0  0  0  0  0
   25.5566  -20.9394   -8.7773 N   0  0  0  0  0  0  0  0  0  0  0  0
   24.4558  -20.8553  -10.9646 C   0  0  0  0  0  0  0  0  0  0  0  0
   24.4281  -20.2483  -12.2858 O   0  0  0  0  0  0  0  0  0  0  0  0
   23.1408  -20.6928  -10.2753 O   0  0  0  0  0  0  0  0  0  0  0  0
  2  1  1  0
  2  3  2  0
  4  2  1  0
  5  4  1  0
  6  5  1  0
  7  6  1  0
  8  7  1  0
  8  9  1  1
 10  8  1  0
 10 11  2  0
 13 12  1  0
 13 14  2  0
 15 13  1  0
 16 15  1  0
 17 16  1  0
 19 18  1  6
 18 17  1  0
 19 20  1  0
 20 10  1  0
 21 19  1  0
 22 21  2  0
 24 23  1  1
 24 26  1  0
 25 24  1  0
 26 28  1  0
 26 27  1  6
 27 21  1  0
 28 30  1  0
 29 28  2  0
M  END
$$$$
