RRV.pdb
     RDKit          3D

 30 29  0  0  1  0  0  0  0  0999 V2000
   20.0366  -23.7633   -7.8717 N   0  0  0  0  0  0  0  0  0  0  0  0
   19.0724  -22.7865   -8.2427 C   0  0  0  0  0  0  0  0  0  0  0  0
   17.9981  -22.6459   -7.5390 N   0  0  0  0  0  0  0  0  0  0  0  0
   19.3009  -21.9812   -9.3766 N   0  0  0  0  0  0  0  0  0  0  0  0
   20.4542  -22.1948  -10.2217 C   0  0  0  0  0  0  0  0  0  0  0  0
   21.7075  -21.8009   -9.5069 C   0  0  0  0  0  0  0  0  0  0  0  0
   22.5051  -20.7795  -10.2752 C   0  0  0  0  0  0  0  0  0  0  0  0
   23.9400  -21.2346  -10.4411 C   0  0  2  0  0  0  0  0  0  0  0  0
   24.7901  -20.6907   -9.4154 N   0  0  0  0  0  0  0  0  0  0  0  0
   24.4457  -20.9181  -11.8100 C   0  0  0  0  0  0  0  0  0  0  0  0
   24.8505  -19.7519  -11.9853 O   0  0  0  0  0  0  0  0  0  0  0  0
   17.2660  -21.9517   -7.8018 N   0  0  0  0  0  0  0  0  0  0  0  0
   27.5102  -25.8757  -18.2911 C   0  0  0  0  0  0  0  0  0  0  0  0
   27.9812  -25.4715  -17.0162 N   0  0  0  0  0  0  0  0  0  0  0  0
   28.9193  -26.1637  -16.4296 N   0  0  0  0  0  0  0  0  0  0  0  0
   27.4344  -24.3203  -16.3828 C   0  0  0  0  0  0  0  0  0  0  0  0
   26.4205  -23.5937  -17.0746 C   0  0  0  0  0  0  0  0  0  0  0  0
   25.8653  -22.4384  -16.2808 C   0  0  0  0  0  0  0  0  0  0  0  0
   25.5037  -22.7960  -14.8836 C   0  0  1  0  0  0  0  0  0  0  0  0
   24.8772  -21.6322  -14.1995 N   0  0  0  0  0  0  0  0  0  0  0  0
   24.4719  -21.8593  -12.8469 C   0  0  0  0  0  0  0  0  0  0  0  0
   23.8509  -20.9163  -14.9834 O   0  0  0  0  0  0  0  0  0  0  0  0
   22.6705  -21.2994  -14.9760 C   0  0  0  0  0  0  0  0  0  0  0  0
   29.2524  -25.9005  -15.4973 C   0  0  1  0  0  0  0  0  0  0  0  0
   22.3285  -16.8214  -17.1721 C   0  0  0  0  0  0  0  0  0  0  0  0
   23.4790  -17.5895  -16.5831 C   0  0  1  0  0  0  0  0  0  0  0  0
   24.6904  -17.5143  -17.5061 N   0  0  0  0  0  0  0  0  0  0  0  0
   23.0908  -19.0242  -16.4268 C   0  0  0  0  0  0  0  0  0  0  0  0
   24.1571  -19.7682  -15.7755 O   0  0  0  0  0  0  0  0  0  0  0  0
   22.7385  -19.6381  -17.7419 O   0  0  0  0  0  0  0  0  0  0  0  0
  2  1  1  0
  2  3  2  0
  4  2  1  0
  5  4  1  0
  6  5  1  0
  7  6  1  0
  8  7  1  0
  8  9  1  1
 10  8  1  0
 10 11  2  0
 13 12  1  0
 13 14  2  0
 15 13  1  0
 16 15  1  0
 17 16  1  0
 19 18  1  1
 18 17  1  0
 19 20  1  0
 20 10  1  0
 21 19  1  0
 22 21  2  0
 24 23  1  6
 24 26  1  0
 25 24  1  0
 26 28  1  0
 26 27  1  1
 27 21  1  0
 28 30  1  0
 29 28  2  0
M  END
$$$$
