RRV.pdb
     RDKit          3D

 30 29  0  0  1  0  0  0  0  0999 V2000
   24.2540  -33.2828  -14.0807 N   0  0  0  0  0  0  0  0  0  0  0  0
   22.8950  -33.3926  -14.4836 C   0  0  0  0  0  0  0  0  0  0  0  0
   22.4095  -34.5487  -14.7948 N   0  0  0  0  0  0  0  0  0  0  0  0
   22.0917  -32.2358  -14.5388 N   0  0  0  0  0  0  0  0  0  0  0  0
   22.6141  -30.9467  -14.1448 C   0  0  0  0  0  0  0  0  0  0  0  0
   21.5857  -29.8803  -14.3491 C   0  0  0  0  0  0  0  0  0  0  0  0
   21.7266  -29.2009  -15.6864 C   0  0  0  0  0  0  0  0  0  0  0  0
   21.8790  -27.7041  -15.5136 C   0  0  2  0  0  0  0  0  0  0  0  0
   23.1122  -27.3702  -14.8515 N   0  0  0  0  0  0  0  0  0  0  0  0
   20.6951  -27.1244  -14.8121 C   0  0  0  0  0  0  0  0  0  0  0  0
   19.5912  -27.3106  -15.3612 O   0  0  0  0  0  0  0  0  0  0  0  0
   21.4176  -34.6554  -15.0975 N   0  0  0  0  0  0  0  0  0  0  0  0
   18.5786  -24.5445   -6.3870 C   0  0  0  0  0  0  0  0  0  0  0  0
   17.4850  -25.0614   -7.1269 N   0  0  0  0  0  0  0  0  0  0  0  0
   16.4485  -25.5370   -6.4923 N   0  0  0  0  0  0  0  0  0  0  0  0
   17.5191  -25.0611   -8.5497 C   0  0  0  0  0  0  0  0  0  0  0  0
   18.6882  -25.5670   -9.1914 C   0  0  0  0  0  0  0  0  0  0  0  0
   18.6390  -25.4604  -10.6945 C   0  0  0  0  0  0  0  0  0  0  0  0
   19.8334  -26.0322  -11.3707 C   0  0  2  0  0  0  0  0  0  0  0  0
   19.7202  -25.8647  -12.8452 N   0  0  0  0  0  0  0  0  0  0  0  0
   20.7973  -26.4120  -13.6106 C   0  0  0  0  0  0  0  0  0  0  0  0
   19.3347  -24.5136  -13.2996 O   0  0  0  0  0  0  0  0  0  0  0  0
   20.1233  -23.5618  -13.1883 C   0  0  0  0  0  0  0  0  0  0  0  0
   15.6315  -25.8727   -7.0112 C   0  0  1  0  0  0  0  0  0  0  0  0
   16.3360  -21.4958  -15.7499 C   0  0  0  0  0  0  0  0  0  0  0  0
   16.7177  -22.9051  -15.3908 C   0  0  2  0  0  0  0  0  0  0  0  0
   15.4911  -23.6800  -14.9218 N   0  0  0  0  0  0  0  0  0  0  0  0
   17.7168  -22.8818  -14.2795 C   0  0  0  0  0  0  0  0  0  0  0  0
   18.0593  -24.2372  -13.8794 O   0  0  0  0  0  0  0  0  0  0  0  0
   17.2157  -22.0924  -13.1149 O   0  0  0  0  0  0  0  0  0  0  0  0
  2  1  1  0
  2  3  2  0
  4  2  1  0
  5  4  1  0
  6  5  1  0
  7  6  1  0
  8  7  1  0
  8  9  1  1
 10  8  1  0
 10 11  2  0
 13 12  1  0
 13 14  2  0
 15 13  1  0
 16 15  1  0
 17 16  1  0
 19 18  1  6
 18 17  1  0
 19 20  1  0
 20 10  1  0
 21 19  1  0
 22 21  2  0
 24 23  1  6
 24 26  1  0
 25 24  1  0
 26 28  1  0
 26 27  1  6
 27 21  1  0
 28 30  1  0
 29 28  2  0
M  END
$$$$
