RRV.pdb
     RDKit          3D

 30 29  0  0  1  0  0  0  0  0999 V2000
   18.9413  -17.7835  -15.8448 N   0  0  0  0  0  0  0  0  0  0  0  0
   18.0987  -18.9230  -15.7309 C   0  0  0  0  0  0  0  0  0  0  0  0
   17.0195  -18.9961  -16.4373 N   0  0  0  0  0  0  0  0  0  0  0  0
   18.4519  -19.9618  -14.8463 N   0  0  0  0  0  0  0  0  0  0  0  0
   19.6513  -19.8808  -14.0433 C   0  0  0  0  0  0  0  0  0  0  0  0
   19.4366  -18.9774  -12.8709 C   0  0  0  0  0  0  0  0  0  0  0  0
   20.6764  -18.8343  -12.0268 C   0  0  0  0  0  0  0  0  0  0  0  0
   21.4194  -20.1511  -11.9388 C   0  0  2  0  0  0  0  0  0  0  0  0
   21.4532  -20.6510  -10.5899 N   0  0  0  0  0  0  0  0  0  0  0  0
   22.7882  -20.0319  -12.5236 C   0  0  0  0  0  0  0  0  0  0  0  0
   23.6850  -19.6619  -11.7404 O   0  0  0  0  0  0  0  0  0  0  0  0
   16.3689  -19.8060  -16.3494 N   0  0  0  0  0  0  0  0  0  0  0  0
   27.8230  -25.3351  -17.0100 C   0  0  0  0  0  0  0  0  0  0  0  0
   28.5868  -24.1407  -16.9809 N   0  0  0  0  0  0  0  0  0  0  0  0
   29.8068  -24.1478  -17.4444 N   0  0  0  0  0  0  0  0  0  0  0  0
   28.0262  -22.9450  -16.4504 C   0  0  0  0  0  0  0  0  0  0  0  0
   26.7082  -23.0067  -15.9085 C   0  0  0  0  0  0  0  0  0  0  0  0
   26.1944  -21.6718  -15.4319 C   0  0  0  0  0  0  0  0  0  0  0  0
   24.8496  -21.7427  -14.8016 C   0  0  1  0  0  0  0  0  0  0  0  0
   24.3596  -20.3752  -14.4777 N   0  0  0  0  0  0  0  0  0  0  0  0
   23.0679  -20.3137  -13.8667 C   0  0  0  0  0  0  0  0  0  0  0  0
   24.5241  -19.3747  -15.5512 O   0  0  0  0  0  0  0  0  0  0  0  0
   23.7047  -19.3063  -16.4807 C   0  0  0  0  0  0  0  0  0  0  0  0
   30.3454  -23.2783  -17.5010 C   0  0  2  0  0  0  0  0  0  0  0  0
   27.7005  -16.4935  -15.5876 C   0  0  0  0  0  0  0  0  0  0  0  0
   26.3103  -16.1876  -16.0720 C   0  0  2  0  0  0  0  0  0  0  0  0
   25.4516  -15.6763  -14.9204 N   0  0  0  0  0  0  0  0  0  0  0  0
   25.6862  -17.4339  -16.6112 C   0  0  0  0  0  0  0  0  0  0  0  0
   25.6135  -18.4517  -15.5752 O   0  0  0  0  0  0  0  0  0  0  0  0
   26.4273  -17.9400  -17.8051 O   0  0  0  0  0  0  0  0  0  0  0  0
  2  1  1  0
  2  3  2  0
  4  2  1  0
  5  4  1  0
  6  5  1  0
  7  6  1  0
  8  7  1  0
  8  9  1  1
 10  8  1  0
 10 11  2  0
 13 12  1  0
 13 14  2  0
 15 13  1  0
 16 15  1  0
 17 16  1  0
 19 18  1  1
 18 17  1  0
 19 20  1  0
 20 10  1  0
 21 19  1  0
 22 21  2  0
 24 23  1  1
 24 26  1  0
 25 24  1  0
 26 28  1  0
 26 27  1  1
 27 21  1  0
 28 30  1  0
 29 28  2  0
M  END
$$$$
