RRV.pdb
     RDKit          3D

 30 29  0  0  1  0  0  0  0  0999 V2000
   26.9155  -14.8693  -20.3599 N   0  0  0  0  0  0  0  0  0  0  0  0
   25.7230  -14.3328  -20.9182 C   0  0  0  0  0  0  0  0  0  0  0  0
   25.7006  -13.9736  -22.1589 N   0  0  0  0  0  0  0  0  0  0  0  0
   24.5769  -14.1992  -20.1090 N   0  0  0  0  0  0  0  0  0  0  0  0
   24.0899  -15.3071  -19.3183 C   0  0  0  0  0  0  0  0  0  0  0  0
   23.4536  -16.3373  -20.1961 C   0  0  0  0  0  0  0  0  0  0  0  0
   22.8502  -17.4677  -19.4035 C   0  0  0  0  0  0  0  0  0  0  0  0
   23.9318  -18.2917  -18.7369 C   0  0  2  0  0  0  0  0  0  0  0  0
   24.7290  -19.0004  -19.7028 N   0  0  0  0  0  0  0  0  0  0  0  0
   23.3491  -19.2101  -17.7137 C   0  0  0  0  0  0  0  0  0  0  0  0
   22.7554  -20.2130  -18.1568 O   0  0  0  0  0  0  0  0  0  0  0  0
   24.8465  -13.5549  -22.5857 N   0  0  0  0  0  0  0  0  0  0  0  0
   25.4217  -20.6465   -9.3474 C   0  0  0  0  0  0  0  0  0  0  0  0
   24.0394  -20.9559   -9.4129 N   0  0  0  0  0  0  0  0  0  0  0  0
   23.4006  -21.2743   -8.3203 N   0  0  0  0  0  0  0  0  0  0  0  0
   23.3558  -20.9191  -10.6606 C   0  0  0  0  0  0  0  0  0  0  0  0
   24.1362  -20.9731  -11.8534 C   0  0  0  0  0  0  0  0  0  0  0  0
   23.3127  -20.8712  -13.1121 C   0  0  0  0  0  0  0  0  0  0  0  0
   23.7491  -19.7788  -14.0215 C   0  0  2  0  0  0  0  0  0  0  0  0
   22.9665  -19.8181  -15.2868 N   0  0  0  0  0  0  0  0  0  0  0  0
   23.4523  -18.9769  -16.3366 C   0  0  0  0  0  0  0  0  0  0  0  0
   21.5012  -19.7305  -15.1261 O   0  0  0  0  0  0  0  0  0  0  0  0
   20.9626  -18.6528  -14.8284 C   0  0  0  0  0  0  0  0  0  0  0  0
   22.4111  -21.5370   -8.3556 C   0  0  2  0  0  0  0  0  0  0  0  0
   18.9204  -20.9303  -17.5984 C   0  0  0  0  0  0  0  0  0  0  0  0
   18.5070  -21.4716  -16.2580 C   0  0  1  0  0  0  0  0  0  0  0  0
   17.0022  -21.3145  -16.0677 N   0  0  0  0  0  0  0  0  0  0  0  0
   19.2033  -20.7091  -15.1776 C   0  0  0  0  0  0  0  0  0  0  0  0
   20.6443  -20.8594  -15.3013 O   0  0  0  0  0  0  0  0  0  0  0  0
   18.7367  -21.1355  -13.8244 O   0  0  0  0  0  0  0  0  0  0  0  0
  2  1  1  0
  2  3  2  0
  4  2  1  0
  5  4  1  0
  6  5  1  0
  7  6  1  0
  8  7  1  0
  8  9  1  6
 10  8  1  0
 10 11  2  0
 13 12  1  0
 13 14  2  0
 15 13  1  0
 16 15  1  0
 17 16  1  0
 19 18  1  6
 18 17  1  0
 19 20  1  0
 20 10  1  0
 21 19  1  0
 22 21  2  0
 24 23  1  1
 24 26  1  0
 25 24  1  0
 26 28  1  0
 26 27  1  6
 27 21  1  0
 28 30  1  0
 29 28  2  0
M  END
$$$$
