RRV.pdb
     RDKit          3D

 30 29  0  0  1  0  0  0  0  0999 V2000
   19.0692  -27.0000    1.7129 N   0  0  0  0  0  0  0  0  0  0  0  0
   18.7736  -28.3890    1.7801 C   0  0  0  0  0  0  0  0  0  0  0  0
   18.7002  -28.9744    2.9294 N   0  0  0  0  0  0  0  0  0  0  0  0
   18.5637  -29.1124    0.5889 N   0  0  0  0  0  0  0  0  0  0  0  0
   18.5335  -28.4445   -0.6928 C   0  0  0  0  0  0  0  0  0  0  0  0
   17.1264  -28.3131   -1.1820 C   0  0  0  0  0  0  0  0  0  0  0  0
   17.0565  -27.7175   -2.5641 C   0  0  0  0  0  0  0  0  0  0  0  0
   15.6190  -27.4556   -2.9625 C   0  0  2  0  0  0  0  0  0  0  0  0
   14.8517  -28.6721   -3.0072 N   0  0  0  0  0  0  0  0  0  0  0  0
   15.5505  -26.7056   -4.2519 C   0  0  0  0  0  0  0  0  0  0  0  0
   15.7148  -27.3831   -5.2857 O   0  0  0  0  0  0  0  0  0  0  0  0
   18.4791  -29.9904    3.0062 N   0  0  0  0  0  0  0  0  0  0  0  0
   11.4959  -19.2146   -6.6948 C   0  0  0  0  0  0  0  0  0  0  0  0
   11.9708  -19.8025   -7.8946 N   0  0  0  0  0  0  0  0  0  0  0  0
   11.5757  -19.3253   -9.0432 N   0  0  0  0  0  0  0  0  0  0  0  0
   12.8707  -20.9040   -7.8449 C   0  0  0  0  0  0  0  0  0  0  0  0
   13.2086  -21.4351   -6.5649 C   0  0  0  0  0  0  0  0  0  0  0  0
   14.1199  -22.6339   -6.6364 C   0  0  0  0  0  0  0  0  0  0  0  0
   14.3285  -23.3017   -5.3243 C   0  0  2  0  0  0  0  0  0  0  0  0
   15.1277  -24.5448   -5.5001 N   0  0  0  0  0  0  0  0  0  0  0  0
   15.3171  -25.3262   -4.3173 C   0  0  0  0  0  0  0  0  0  0  0  0
   16.3722  -24.3906   -6.2798 O   0  0  0  0  0  0  0  0  0  0  0  0
   17.3742  -23.8641   -5.7709 C   0  0  0  0  0  0  0  0  0  0  0  0
   11.9414  -19.7112   -9.9189 C   0  0  2  0  0  0  0  0  0  0  0  0
   16.9806  -26.3442   -9.9552 C   0  0  0  0  0  0  0  0  0  0  0  0
   18.1119  -25.9082   -9.0660 C   0  0  2  0  0  0  0  0  0  0  0  0
   18.4026  -26.9789   -8.0200 N   0  0  0  0  0  0  0  0  0  0  0  0
   17.7317  -24.6471   -8.3599 C   0  0  0  0  0  0  0  0  0  0  0  0
   16.4853  -24.8306   -7.6336 O   0  0  0  0  0  0  0  0  0  0  0  0
   17.6304  -23.5007   -9.3118 O   0  0  0  0  0  0  0  0  0  0  0  0
  2  1  1  0
  2  3  2  0
  4  2  1  0
  5  4  1  0
  6  5  1  0
  7  6  1  0
  8  7  1  0
  8  9  1  6
 10  8  1  0
 10 11  2  0
 13 12  1  0
 13 14  2  0
 15 13  1  0
 16 15  1  0
 17 16  1  0
 19 18  1  6
 18 17  1  0
 19 20  1  0
 20 10  1  0
 21 19  1  0
 22 21  2  0
 24 23  1  1
 24 26  1  0
 25 24  1  0
 26 28  1  0
 26 27  1  1
 27 21  1  0
 28 30  1  0
 29 28  2  0
M  END
$$$$
