RRV.pdb
     RDKit          3D

 30 29  0  0  1  0  0  0  0  0999 V2000
   28.2155  -21.0487  -19.0999 N   0  0  0  0  0  0  0  0  0  0  0  0
   29.4370  -20.3291  -19.2066 C   0  0  0  0  0  0  0  0  0  0  0  0
   30.5047  -20.9338  -19.6108 N   0  0  0  0  0  0  0  0  0  0  0  0
   29.4684  -18.9610  -18.8693 N   0  0  0  0  0  0  0  0  0  0  0  0
   28.2550  -18.1765  -18.8259 C   0  0  0  0  0  0  0  0  0  0  0  0
   27.6271  -18.2575  -17.4709 C   0  0  0  0  0  0  0  0  0  0  0  0
   26.2948  -17.5561  -17.4170 C   0  0  0  0  0  0  0  0  0  0  0  0
   25.1596  -18.5555  -17.4957 C   0  0  2  0  0  0  0  0  0  0  0  0
   24.3530  -18.3496  -18.6694 N   0  0  0  0  0  0  0  0  0  0  0  0
   24.3418  -18.5340  -16.2465 C   0  0  0  0  0  0  0  0  0  0  0  0
   23.6159  -17.5327  -16.0876 O   0  0  0  0  0  0  0  0  0  0  0  0
   31.3994  -20.4171  -19.7503 N   0  0  0  0  0  0  0  0  0  0  0  0
   19.3711  -23.5924  -14.2950 C   0  0  0  0  0  0  0  0  0  0  0  0
   19.0873  -22.4773  -13.4664 N   0  0  0  0  0  0  0  0  0  0  0  0
   18.4045  -22.6514  -12.3679 N   0  0  0  0  0  0  0  0  0  0  0  0
   19.5440  -21.1796  -13.8311 C   0  0  0  0  0  0  0  0  0  0  0  0
   20.2535  -21.0406  -15.0607 C   0  0  0  0  0  0  0  0  0  0  0  0
   21.7455  -20.9214  -14.8801 C   0  0  0  0  0  0  0  0  0  0  0  0
   22.1643  -19.6647  -14.2048 C   0  0  1  0  0  0  0  0  0  0  0  0
   23.6458  -19.6214  -14.0696 N   0  0  0  0  0  0  0  0  0  0  0  0
   24.3739  -19.5651  -15.2993 C   0  0  0  0  0  0  0  0  0  0  0  0
   24.2216  -20.5915  -13.1168 O   0  0  0  0  0  0  0  0  0  0  0  0
   24.3798  -21.7783  -13.4432 C   0  0  0  0  0  0  0  0  0  0  0  0
   18.1719  -21.8531  -11.7695 C   0  0  2  0  0  0  0  0  0  0  0  0
   26.4627  -19.5365   -9.7110 C   0  0  0  0  0  0  0  0  0  0  0  0
   26.5083  -20.8594  -10.4242 C   0  0  2  0  0  0  0  0  0  0  0  0
   27.4136  -20.7674  -11.6477 N   0  0  0  0  0  0  0  0  0  0  0  0
   25.1329  -21.2266  -10.8792 C   0  0  0  0  0  0  0  0  0  0  0  0
   24.6187  -20.2217  -11.7959 O   0  0  0  0  0  0  0  0  0  0  0  0
   24.2093  -21.4141   -9.7205 O   0  0  0  0  0  0  0  0  0  0  0  0
  2  1  1  0
  2  3  2  0
  4  2  1  0
  5  4  1  0
  6  5  1  0
  7  6  1  0
  8  7  1  0
  8  9  1  6
 10  8  1  0
 10 11  2  0
 13 12  1  0
 13 14  2  0
 15 13  1  0
 16 15  1  0
 17 16  1  0
 19 18  1  1
 18 17  1  0
 19 20  1  0
 20 10  1  0
 21 19  1  0
 22 21  2  0
 24 23  1  6
 24 26  1  0
 25 24  1  0
 26 28  1  0
 26 27  1  6
 27 21  1  0
 28 30  1  0
 29 28  2  0
M  END
$$$$
