RRV.pdb
     RDKit          3D

 30 29  0  0  1  0  0  0  0  0999 V2000
   30.4801  -25.0065  -17.5806 N   0  0  0  0  0  0  0  0  0  0  0  0
   30.3447  -24.4013  -18.8600 C   0  0  0  0  0  0  0  0  0  0  0  0
   30.0814  -25.1334  -19.8914 N   0  0  0  0  0  0  0  0  0  0  0  0
   30.4998  -23.0063  -18.9879 N   0  0  0  0  0  0  0  0  0  0  0  0
   30.6683  -22.1658  -17.8239 C   0  0  0  0  0  0  0  0  0  0  0  0
   29.7678  -20.9743  -17.9034 C   0  0  0  0  0  0  0  0  0  0  0  0
   28.9161  -20.8200  -16.6702 C   0  0  0  0  0  0  0  0  0  0  0  0
   27.5359  -21.4007  -16.8964 C   0  0  2  0  0  0  0  0  0  0  0  0
   26.7489  -20.5713  -17.7701 N   0  0  0  0  0  0  0  0  0  0  0  0
   26.8445  -21.6556  -15.5976 C   0  0  0  0  0  0  0  0  0  0  0  0
   27.4382  -22.4114  -14.8033 O   0  0  0  0  0  0  0  0  0  0  0  0
   29.9910  -24.7159  -20.8424 N   0  0  0  0  0  0  0  0  0  0  0  0
   22.8125  -19.9738   -9.6661 C   0  0  0  0  0  0  0  0  0  0  0  0
   23.6121  -20.9168   -8.9718 N   0  0  0  0  0  0  0  0  0  0  0  0
   23.1009  -21.5761   -7.9682 N   0  0  0  0  0  0  0  0  0  0  0  0
   24.9607  -21.1411   -9.3673 C   0  0  0  0  0  0  0  0  0  0  0  0
   25.4981  -20.3250  -10.4065 C   0  0  0  0  0  0  0  0  0  0  0  0
   24.7935  -20.4984  -11.7281 C   0  0  0  0  0  0  0  0  0  0  0  0
   25.6728  -21.0220  -12.8067 C   0  0  1  0  0  0  0  0  0  0  0  0
   24.8845  -21.2520  -14.0479 N   0  0  0  0  0  0  0  0  0  0  0  0
   25.6050  -21.0900  -15.2727 C   0  0  0  0  0  0  0  0  0  0  0  0
   23.5585  -20.6031  -14.0833 O   0  0  0  0  0  0  0  0  0  0  0  0
   23.4498  -19.3801  -13.9028 C   0  0  0  0  0  0  0  0  0  0  0  0
   23.6611  -22.2700   -7.4641 C   0  0  2  0  0  0  0  0  0  0  0  0
   20.2060  -22.6171  -15.6577 C   0  0  0  0  0  0  0  0  0  0  0  0
   20.4370  -21.1368  -15.7846 C   0  0  2  0  0  0  0  0  0  0  0  0
   21.3430  -20.8451  -16.9759 N   0  0  0  0  0  0  0  0  0  0  0  0
   21.1039  -20.6298  -14.5469 C   0  0  0  0  0  0  0  0  0  0  0  0
   22.3557  -21.3348  -14.3224 O   0  0  0  0  0  0  0  0  0  0  0  0
   20.2058  -20.7460  -13.3593 O   0  0  0  0  0  0  0  0  0  0  0  0
  2  1  1  0
  2  3  2  0
  4  2  1  0
  5  4  1  0
  6  5  1  0
  7  6  1  0
  8  7  1  0
  8  9  1  6
 10  8  1  0
 10 11  2  0
 13 12  1  0
 13 14  2  0
 15 13  1  0
 16 15  1  0
 17 16  1  0
 19 18  1  1
 18 17  1  0
 19 20  1  0
 20 10  1  0
 21 19  1  0
 22 21  2  0
 24 23  1  6
 24 26  1  0
 25 24  1  0
 26 28  1  0
 26 27  1  6
 27 21  1  0
 28 30  1  0
 29 28  2  0
M  END
$$$$
