RRV.pdb
     RDKit          3D

 30 29  0  0  1  0  0  0  0  0999 V2000
   28.1783  -16.5640  -17.9151 N   0  0  0  0  0  0  0  0  0  0  0  0
   28.6803  -15.9308  -19.0849 C   0  0  0  0  0  0  0  0  0  0  0  0
   28.9735  -14.6729  -19.0579 N   0  0  0  0  0  0  0  0  0  0  0  0
   28.8525  -16.6852  -20.2629 N   0  0  0  0  0  0  0  0  0  0  0  0
   28.8013  -18.1296  -20.2366 C   0  0  0  0  0  0  0  0  0  0  0  0
   27.3995  -18.6000  -20.0118 C   0  0  0  0  0  0  0  0  0  0  0  0
   27.3163  -20.0978  -19.8714 C   0  0  0  0  0  0  0  0  0  0  0  0
   28.1535  -20.5735  -18.7025 C   0  0  2  0  0  0  0  0  0  0  0  0
   28.8216  -21.8130  -18.9991 N   0  0  0  0  0  0  0  0  0  0  0  0
   27.3309  -20.6672  -17.4597 C   0  0  0  0  0  0  0  0  0  0  0  0
   26.5705  -21.6523  -17.3825 O   0  0  0  0  0  0  0  0  0  0  0  0
   29.2882  -14.1721  -19.9164 N   0  0  0  0  0  0  0  0  0  0  0  0
   24.0021  -20.4405  -11.2945 C   0  0  0  0  0  0  0  0  0  0  0  0
   24.8953  -21.4659  -11.6961 N   0  0  0  0  0  0  0  0  0  0  0  0
   24.4266  -22.6503  -11.9803 N   0  0  0  0  0  0  0  0  0  0  0  0
   26.2912  -21.2041  -11.7881 C   0  0  0  0  0  0  0  0  0  0  0  0
   26.7204  -19.8440  -11.7611 C   0  0  0  0  0  0  0  0  0  0  0  0
   26.2252  -19.0372  -12.9345 C   0  0  0  0  0  0  0  0  0  0  0  0
   27.1738  -19.0083  -14.0791 C   0  0  2  0  0  0  0  0  0  0  0  0
   26.5611  -19.6527  -15.2725 N   0  0  0  0  0  0  0  0  0  0  0  0
   27.3952  -19.7173  -16.4325 C   0  0  0  0  0  0  0  0  0  0  0  0
   25.1863  -19.2169  -15.5896 O   0  0  0  0  0  0  0  0  0  0  0  0
   24.9543  -18.0381  -15.9007 C   0  0  0  0  0  0  0  0  0  0  0  0
   25.0645  -23.4277  -12.1756 C   0  0  1  0  0  0  0  0  0  0  0  0
   20.7075  -19.9394  -17.1706 C   0  0  0  0  0  0  0  0  0  0  0  0
   22.1348  -20.3723  -16.9804 C   0  0  1  0  0  0  0  0  0  0  0  0
   22.1958  -21.8632  -16.6663 N   0  0  0  0  0  0  0  0  0  0  0  0
   22.7335  -19.6220  -15.8349 C   0  0  0  0  0  0  0  0  0  0  0  0
   24.0739  -20.1116  -15.5555 O   0  0  0  0  0  0  0  0  0  0  0  0
   21.8703  -19.7071  -14.6191 O   0  0  0  0  0  0  0  0  0  0  0  0
  2  1  1  0
  2  3  2  0
  4  2  1  0
  5  4  1  0
  6  5  1  0
  7  6  1  0
  8  7  1  0
  8  9  1  6
 10  8  1  0
 10 11  2  0
 13 12  1  0
 13 14  2  0
 15 13  1  0
 16 15  1  0
 17 16  1  0
 19 18  1  1
 18 17  1  0
 19 20  1  0
 20 10  1  0
 21 19  1  0
 22 21  2  0
 24 23  1  6
 24 26  1  0
 25 24  1  0
 26 28  1  0
 26 27  1  6
 27 21  1  0
 28 30  1  0
 29 28  2  0
M  END
$$$$
