RRV.pdb
     RDKit          3D

 30 29  0  0  1  0  0  0  0  0999 V2000
   25.0946  -15.2700  -15.7123 N   0  0  0  0  0  0  0  0  0  0  0  0
   25.0831  -15.9273  -16.9729 C   0  0  0  0  0  0  0  0  0  0  0  0
   23.9922  -15.9714  -17.6636 N   0  0  0  0  0  0  0  0  0  0  0  0
   26.2651  -16.5245  -17.4551 N   0  0  0  0  0  0  0  0  0  0  0  0
   27.4644  -16.5599  -16.6486 C   0  0  0  0  0  0  0  0  0  0  0  0
   27.6948  -17.9370  -16.1129 C   0  0  0  0  0  0  0  0  0  0  0  0
   28.0502  -18.9192  -17.1986 C   0  0  0  0  0  0  0  0  0  0  0  0
   28.2835  -20.2983  -16.6180 C   0  0  2  0  0  0  0  0  0  0  0  0
   28.6486  -21.2470  -17.6365 N   0  0  0  0  0  0  0  0  0  0  0  0
   27.0990  -20.7537  -15.8309 C   0  0  0  0  0  0  0  0  0  0  0  0
   26.1174  -21.1381  -16.4967 O   0  0  0  0  0  0  0  0  0  0  0  0
   23.9685  -16.4065  -18.6107 N   0  0  0  0  0  0  0  0  0  0  0  0
   24.3655  -19.6227   -8.3928 C   0  0  0  0  0  0  0  0  0  0  0  0
   24.2896  -21.0387   -8.3859 N   0  0  0  0  0  0  0  0  0  0  0  0
   23.3249  -21.6264   -7.7322 N   0  0  0  0  0  0  0  0  0  0  0  0
   25.2581  -21.8110   -9.0865 C   0  0  0  0  0  0  0  0  0  0  0  0
   26.2807  -21.1166   -9.7983 C   0  0  0  0  0  0  0  0  0  0  0  0
   25.8816  -20.7394  -11.2023 C   0  0  0  0  0  0  0  0  0  0  0  0
   26.4012  -21.6704  -12.2387 C   0  0  1  0  0  0  0  0  0  0  0  0
   26.0023  -21.2059  -13.5952 N   0  0  0  0  0  0  0  0  0  0  0  0
   27.0726  -20.7564  -14.4306 C   0  0  0  0  0  0  0  0  0  0  0  0
   24.8368  -20.3000  -13.6352 O   0  0  0  0  0  0  0  0  0  0  0  0
   24.9235  -19.1410  -13.2000 C   0  0  0  0  0  0  0  0  0  0  0  0
   23.2687  -22.6487   -7.6984 C   0  0  1  0  0  0  0  0  0  0  0  0
   20.8262  -18.6699  -15.6839 C   0  0  0  0  0  0  0  0  0  0  0  0
   21.9932  -19.6171  -15.6435 C   0  0  2  0  0  0  0  0  0  0  0  0
   21.5722  -20.9938  -16.1461 N   0  0  0  0  0  0  0  0  0  0  0  0
   22.4741  -19.7536  -14.2350 C   0  0  0  0  0  0  0  0  0  0  0  0
   23.5738  -20.7025  -14.1662 O   0  0  0  0  0  0  0  0  0  0  0  0
   21.3651  -20.1551  -13.3188 O   0  0  0  0  0  0  0  0  0  0  0  0
  2  1  1  0
  2  3  2  0
  4  2  1  0
  5  4  1  0
  6  5  1  0
  7  6  1  0
  8  7  1  0
  8  9  1  6
 10  8  1  0
 10 11  2  0
 13 12  1  0
 13 14  2  0
 15 13  1  0
 16 15  1  0
 17 16  1  0
 19 18  1  6
 18 17  1  0
 19 20  1  0
 20 10  1  0
 21 19  1  0
 22 21  2  0
 24 23  1  6
 24 26  1  0
 25 24  1  0
 26 28  1  0
 26 27  1  6
 27 21  1  0
 28 30  1  0
 29 28  2  0
M  END
$$$$
