RRV.pdb
     RDKit          3D

 30 29  0  0  1  0  0  0  0  0999 V2000
   30.6591  -22.8913  -11.3853 N   0  0  0  0  0  0  0  0  0  0  0  0
   31.1090  -21.6983  -10.7561 C   0  0  0  0  0  0  0  0  0  0  0  0
   32.3186  -21.6261  -10.3083 N   0  0  0  0  0  0  0  0  0  0  0  0
   30.2274  -20.6061  -10.6282 N   0  0  0  0  0  0  0  0  0  0  0  0
   28.7949  -20.8009  -10.6303 C   0  0  0  0  0  0  0  0  0  0  0  0
   28.3458  -21.3719  -11.9375 C   0  0  0  0  0  0  0  0  0  0  0  0
   26.9807  -20.8757  -12.3376 C   0  0  0  0  0  0  0  0  0  0  0  0
   25.8984  -21.7744  -11.7766 C   0  0  2  0  0  0  0  0  0  0  0  0
   26.2938  -23.1577  -11.8000 N   0  0  0  0  0  0  0  0  0  0  0  0
   24.6016  -21.5533  -12.4831 C   0  0  0  0  0  0  0  0  0  0  0  0
   24.5420  -21.9713  -13.6563 O   0  0  0  0  0  0  0  0  0  0  0  0
   32.6429  -20.8036   -9.7559 N   0  0  0  0  0  0  0  0  0  0  0  0
   18.8578  -23.9642   -9.9628 C   0  0  0  0  0  0  0  0  0  0  0  0
   19.3035  -23.4296   -8.7274 N   0  0  0  0  0  0  0  0  0  0  0  0
   19.3765  -24.2063   -7.6811 N   0  0  0  0  0  0  0  0  0  0  0  0
   19.6677  -22.0572   -8.6308 C   0  0  0  0  0  0  0  0  0  0  0  0
   19.5915  -21.2597   -9.8111 C   0  0  0  0  0  0  0  0  0  0  0  0
   20.7164  -21.5180  -10.7811 C   0  0  0  0  0  0  0  0  0  0  0  0
   21.1415  -20.3087  -11.5345 C   0  0  2  0  0  0  0  0  0  0  0  0
   22.2370  -20.6507  -12.4821 N   0  0  0  0  0  0  0  0  0  0  0  0
   23.5076  -20.9178  -11.8823 C   0  0  0  0  0  0  0  0  0  0  0  0
   22.3448  -19.7743  -13.6657 O   0  0  0  0  0  0  0  0  0  0  0  0
   22.9861  -18.7133  -13.6086 C   0  0  0  0  0  0  0  0  0  0  0  0
   19.6808  -23.8321   -6.7773 C   0  0  1  0  0  0  0  0  0  0  0  0
   22.2900  -18.9697  -18.4351 C   0  0  0  0  0  0  0  0  0  0  0  0
   22.1490  -19.9359  -17.2916 C   0  0  1  0  0  0  0  0  0  0  0  0
   21.0091  -20.9115  -17.5637 N   0  0  0  0  0  0  0  0  0  0  0  0
   21.8384  -19.1819  -16.0392 C   0  0  0  0  0  0  0  0  0  0  0  0
   21.7288  -20.0957  -14.9133 O   0  0  0  0  0  0  0  0  0  0  0  0
   20.5949  -18.3684  -16.1889 O   0  0  0  0  0  0  0  0  0  0  0  0
  2  1  1  0
  2  3  2  0
  4  2  1  0
  5  4  1  0
  6  5  1  0
  7  6  1  0
  8  7  1  0
  8  9  1  6
 10  8  1  0
 10 11  2  0
 13 12  1  0
 13 14  2  0
 15 13  1  0
 16 15  1  0
 17 16  1  0
 19 18  1  1
 18 17  1  0
 19 20  1  0
 20 10  1  0
 21 19  1  0
 22 21  2  0
 24 23  1  6
 24 26  1  0
 25 24  1  0
 26 28  1  0
 26 27  1  1
 27 21  1  0
 28 30  1  0
 29 28  2  0
M  END
$$$$
