HQR.pdb
     RDKit          3D

 31 31  0  0  1  0  0  0  0  0999 V2000
   27.9061  -21.1586  -15.2950 N   0  0  0  0  0  0  0  0  0  0  0  0
   27.3089  -20.3170  -14.2621 C   0  0  1  0  0  0  0  0  0  0  0  0
   26.8213  -19.0782  -14.8491 C   0  0  0  0  0  0  0  0  0  0  0  0
   27.7842  -18.3521  -15.7098 C   0  0  0  0  0  0  0  0  0  0  0  0
   29.0622  -18.7922  -16.0295 C   0  0  0  0  0  0  0  0  0  0  0  0
   29.6240  -17.8806  -16.8048 N   0  0  0  0  0  0  0  0  0  0  0  0
   28.7291  -16.8940  -16.9708 C   0  0  0  0  0  0  0  0  0  0  0  0
   27.5895  -17.1760  -16.2987 N   0  0  0  0  0  0  0  0  0  0  0  0
   26.5410  -21.0528  -13.2834 C   0  0  0  0  0  0  0  0  0  0  0  0
   25.7392  -21.9323  -13.6882 O   0  0  0  0  0  0  0  0  0  0  0  0
   26.2764  -20.0985   -6.7584 N   0  0  0  0  0  0  0  0  0  0  0  0
   27.2812  -19.8244   -7.7608 C   0  0  0  0  0  0  0  0  0  0  0  0
   28.2421  -19.1434   -7.3742 O   0  0  0  0  0  0  0  0  0  0  0  0
   27.1604  -20.3134   -9.1203 C   0  0  0  0  0  0  0  0  0  0  0  0
   25.9768  -21.1200   -9.5042 C   0  0  0  0  0  0  0  0  0  0  0  0
   25.5906  -21.1159  -10.9237 C   0  0  2  0  0  0  0  0  0  0  0  0
   26.6024  -20.8672  -11.8658 N   0  0  0  0  0  0  0  0  0  0  0  0
   24.3649  -20.2732  -11.1716 C   0  0  0  0  0  0  0  0  0  0  0  0
   24.4982  -19.0773  -11.5393 O   0  0  0  0  0  0  0  0  0  0  0  0
   21.8474  -21.9198  -18.3124 N   0  0  0  0  0  0  0  0  0  0  0  0
   20.9197  -20.8939  -18.0065 C   0  0  0  0  0  0  0  0  0  0  0  0
   20.2118  -20.3643  -18.9697 N   0  0  0  0  0  0  0  0  0  0  0  0
   20.7605  -20.4490  -16.6877 N   0  0  0  0  0  0  0  0  0  0  0  0
   21.5710  -20.9387  -15.6099 C   0  0  0  0  0  0  0  0  0  0  0  0
   21.2410  -20.4293  -14.2692 C   0  0  0  0  0  0  0  0  0  0  0  0
   21.9686  -20.7504  -13.0800 C   0  0  0  0  0  0  0  0  0  0  0  0
   21.8754  -20.2230  -11.7208 C   0  0  2  0  0  0  0  0  0  0  0  0
   23.0869  -20.8049  -10.9979 N   0  0  0  0  0  0  0  0  0  0  0  0
   20.7335  -20.6441  -10.8695 C   0  0  0  0  0  0  0  0  0  0  0  0
   19.5465  -20.0463  -10.6557 O   0  0  0  0  0  0  0  0  0  0  0  0
   20.9172  -21.7645  -10.2283 O   0  0  0  0  0  0  0  0  0  0  0  0
  2  1  1  6
  2  3  1  0
  3  4  1  0
  4  5  2  0
  4  8  1  0
  5  6  1  0
  6  7  1  0
  8  7  2  0
  9  2  1  0
 10  9  2  0
 12 14  1  0
 12 11  1  0
 13 12  2  0
 15 14  1  0
 16 15  1  1
 16 17  1  0
 17  9  1  0
 18 28  1  0
 18 16  1  0
 19 18  2  0
 21 20  1  0
 21 23  1  0
 22 21  2  0
 24 23  1  0
 25 24  1  0
 26 25  1  0
 27 26  1  6
 27 28  1  0
 29 27  1  0
 30 29  1  0
 31 29  2  0
M  END
$$$$
