HQR.pdb
     RDKit          3D

 31 31  0  0  1  0  0  0  0  0999 V2000
   25.5011  -20.7955  -16.2697 N   0  0  0  0  0  0  0  0  0  0  0  0
   25.4593  -21.3911  -14.9373 C   0  0  1  0  0  0  0  0  0  0  0  0
   26.8067  -21.7144  -14.4936 C   0  0  0  0  0  0  0  0  0  0  0  0
   27.6422  -22.4585  -15.4650 C   0  0  0  0  0  0  0  0  0  0  0  0
   28.5558  -21.8849  -16.3398 C   0  0  0  0  0  0  0  0  0  0  0  0
   29.1000  -22.8556  -17.0533 N   0  0  0  0  0  0  0  0  0  0  0  0
   28.5480  -24.0082  -16.6426 C   0  0  0  0  0  0  0  0  0  0  0  0
   27.6465  -23.7735  -15.6617 N   0  0  0  0  0  0  0  0  0  0  0  0
   24.4910  -20.7791  -14.0559 C   0  0  0  0  0  0  0  0  0  0  0  0
   24.7212  -19.6212  -13.6238 O   0  0  0  0  0  0  0  0  0  0  0  0
   20.5473  -17.8658  -16.4026 N   0  0  0  0  0  0  0  0  0  0  0  0
   19.8153  -18.1485  -15.1886 C   0  0  0  0  0  0  0  0  0  0  0  0
   18.7554  -17.5204  -15.0515 O   0  0  0  0  0  0  0  0  0  0  0  0
   20.2990  -19.0986  -14.2061 C   0  0  0  0  0  0  0  0  0  0  0  0
   21.6241  -19.7362  -14.3969 C   0  0  0  0  0  0  0  0  0  0  0  0
   22.0280  -20.7564  -13.4169 C   0  0  2  0  0  0  0  0  0  0  0  0
   23.2708  -21.3812  -13.6126 N   0  0  0  0  0  0  0  0  0  0  0  0
   20.9270  -21.7529  -13.1549 C   0  0  0  0  0  0  0  0  0  0  0  0
   20.5314  -22.4997  -14.0871 O   0  0  0  0  0  0  0  0  0  0  0  0
   18.6314  -24.9973   -6.1485 N   0  0  0  0  0  0  0  0  0  0  0  0
   17.5949  -25.6227   -6.8842 C   0  0  0  0  0  0  0  0  0  0  0  0
   16.4683  -25.9077   -6.2851 N   0  0  0  0  0  0  0  0  0  0  0  0
   17.7720  -25.9342   -8.2385 N   0  0  0  0  0  0  0  0  0  0  0  0
   18.7081  -25.2344   -9.0705 C   0  0  0  0  0  0  0  0  0  0  0  0
   18.4685  -23.7926   -9.2430 C   0  0  0  0  0  0  0  0  0  0  0  0
   19.2111  -22.9494  -10.1286 C   0  0  0  0  0  0  0  0  0  0  0  0
   19.2793  -22.9058  -11.5872 C   0  0  2  0  0  0  0  0  0  0  0  0
   20.3435  -21.8553  -11.8918 N   0  0  0  0  0  0  0  0  0  0  0  0
   18.0949  -22.4226  -12.3422 C   0  0  0  0  0  0  0  0  0  0  0  0
   17.6337  -21.1706  -12.5205 O   0  0  0  0  0  0  0  0  0  0  0  0
   17.3944  -23.3617  -12.9144 O   0  0  0  0  0  0  0  0  0  0  0  0
  2  1  1  6
  2  3  1  0
  3  4  1  0
  4  5  2  0
  4  8  1  0
  5  6  1  0
  6  7  1  0
  8  7  2  0
  9  2  1  0
 10  9  2  0
 12 14  1  0
 12 11  1  0
 13 12  2  0
 15 14  1  0
 16 15  1  6
 16 17  1  0
 17  9  1  0
 18 28  1  0
 18 16  1  0
 19 18  2  0
 21 20  1  0
 21 23  1  0
 22 21  2  0
 24 23  1  0
 25 24  1  0
 26 25  1  0
 27 26  1  1
 27 28  1  0
 29 27  1  0
 30 29  1  0
 31 29  2  0
M  END
$$$$
