HQR.pdb
     RDKit          3D

 31 31  0  0  1  0  0  0  0  0999 V2000
   24.4697  -26.7525  -16.7386 N   0  0  0  0  0  0  0  0  0  0  0  0
   23.1324  -26.1697  -16.6767 C   0  0  1  0  0  0  0  0  0  0  0  0
   22.1724  -27.1708  -16.2376 C   0  0  0  0  0  0  0  0  0  0  0  0
   22.2133  -28.4622  -16.9629 C   0  0  0  0  0  0  0  0  0  0  0  0
   21.3459  -28.8363  -17.9811 C   0  0  0  0  0  0  0  0  0  0  0  0
   21.6822  -30.0526  -18.3751 N   0  0  0  0  0  0  0  0  0  0  0  0
   22.7302  -30.4364  -17.6294 C   0  0  0  0  0  0  0  0  0  0  0  0
   23.0659  -29.4609  -16.7543 N   0  0  0  0  0  0  0  0  0  0  0  0
   23.1100  -24.8161  -16.1706 C   0  0  0  0  0  0  0  0  0  0  0  0
   23.6400  -24.5843  -15.0545 O   0  0  0  0  0  0  0  0  0  0  0  0
   24.5081  -19.0036  -16.6666 N   0  0  0  0  0  0  0  0  0  0  0  0
   25.0150  -20.1153  -17.4392 C   0  0  0  0  0  0  0  0  0  0  0  0
   26.2113  -20.0384  -17.7547 O   0  0  0  0  0  0  0  0  0  0  0  0
   24.1728  -21.2336  -17.8160 C   0  0  0  0  0  0  0  0  0  0  0  0
   22.7767  -21.2965  -17.3200 C   0  0  0  0  0  0  0  0  0  0  0  0
   22.4488  -22.3665  -16.3651 C   0  0  2  0  0  0  0  0  0  0  0  0
   22.5230  -23.6899  -16.8302 N   0  0  0  0  0  0  0  0  0  0  0  0
   21.1583  -22.0934  -15.6345 C   0  0  0  0  0  0  0  0  0  0  0  0
   20.0664  -22.4462  -16.1507 O   0  0  0  0  0  0  0  0  0  0  0  0
   15.5384  -24.7105  -11.7177 N   0  0  0  0  0  0  0  0  0  0  0  0
   16.0562  -24.2773  -10.4723 C   0  0  0  0  0  0  0  0  0  0  0  0
   15.5208  -24.7252   -9.3669 N   0  0  0  0  0  0  0  0  0  0  0  0
   17.1297  -23.3786  -10.4222 N   0  0  0  0  0  0  0  0  0  0  0  0
   18.0343  -23.2021  -11.5216 C   0  0  0  0  0  0  0  0  0  0  0  0
   19.0561  -22.1558  -11.3571 C   0  0  0  0  0  0  0  0  0  0  0  0
   20.0183  -21.8008  -12.3545 C   0  0  0  0  0  0  0  0  0  0  0  0
   19.8656  -21.1457  -13.6514 C   0  0  2  0  0  0  0  0  0  0  0  0
   21.1625  -21.4547  -14.3941 N   0  0  0  0  0  0  0  0  0  0  0  0
   19.7898  -19.6630  -13.6966 C   0  0  0  0  0  0  0  0  0  0  0  0
   18.7162  -18.8510  -13.7065 O   0  0  0  0  0  0  0  0  0  0  0  0
   20.9453  -19.0603  -13.7385 O   0  0  0  0  0  0  0  0  0  0  0  0
  2  1  1  1
  2  3  1  0
  3  4  1  0
  4  5  2  0
  4  8  1  0
  5  6  1  0
  6  7  1  0
  8  7  2  0
  9  2  1  0
 10  9  2  0
 12 14  1  0
 12 11  1  0
 13 12  2  0
 15 14  1  0
 16 15  1  6
 16 17  1  0
 17  9  1  0
 18 28  1  0
 18 16  1  0
 19 18  2  0
 21 20  1  0
 21 23  1  0
 22 21  2  0
 24 23  1  0
 25 24  1  0
 26 25  1  0
 27 26  1  1
 27 28  1  0
 29 27  1  0
 30 29  1  0
 31 29  2  0
M  END
$$$$
