HQR.pdb
     RDKit          3D

 31 31  0  0  1  0  0  0  0  0999 V2000
   28.1358  -21.4229  -16.6679 N   0  0  0  0  0  0  0  0  0  0  0  0
   27.3957  -20.4002  -15.9342 C   0  0  1  0  0  0  0  0  0  0  0  0
   27.0113  -19.3224  -16.8328 C   0  0  0  0  0  0  0  0  0  0  0  0
   28.1263  -18.6315  -17.5218 C   0  0  0  0  0  0  0  0  0  0  0  0
   29.0503  -17.7948  -16.9092 C   0  0  0  0  0  0  0  0  0  0  0  0
   29.8827  -17.3585  -17.8389 N   0  0  0  0  0  0  0  0  0  0  0  0
   29.4975  -17.9024  -19.0041 C   0  0  0  0  0  0  0  0  0  0  0  0
   28.4137  -18.6904  -18.8187 N   0  0  0  0  0  0  0  0  0  0  0  0
   26.4835  -20.9356  -14.9493 C   0  0  0  0  0  0  0  0  0  0  0  0
   25.7165  -21.8720  -15.2887 O   0  0  0  0  0  0  0  0  0  0  0  0
   26.1283  -19.9589   -8.3750 N   0  0  0  0  0  0  0  0  0  0  0  0
   25.0412  -20.8134   -8.7964 C   0  0  0  0  0  0  0  0  0  0  0  0
   24.3220  -21.2438   -7.8830 O   0  0  0  0  0  0  0  0  0  0  0  0
   24.8202  -21.1401  -10.1915 C   0  0  0  0  0  0  0  0  0  0  0  0
   25.7647  -20.6374  -11.2181 C   0  0  0  0  0  0  0  0  0  0  0  0
   25.4475  -20.9279  -12.6250 C   0  0  2  0  0  0  0  0  0  0  0  0
   26.3623  -20.4872  -13.5957 N   0  0  0  0  0  0  0  0  0  0  0  0
   24.0285  -20.5537  -12.9714 C   0  0  0  0  0  0  0  0  0  0  0  0
   23.7553  -19.3610  -13.2647 O   0  0  0  0  0  0  0  0  0  0  0  0
   17.7323  -26.6631  -14.3696 N   0  0  0  0  0  0  0  0  0  0  0  0
   17.0249  -25.4559  -14.5912 C   0  0  0  0  0  0  0  0  0  0  0  0
   15.7623  -25.5074  -14.9263 N   0  0  0  0  0  0  0  0  0  0  0  0
   17.6684  -24.2191  -14.4541 N   0  0  0  0  0  0  0  0  0  0  0  0
   19.0571  -24.1108  -14.1109 C   0  0  0  0  0  0  0  0  0  0  0  0
   19.5509  -22.7525  -13.8330 C   0  0  0  0  0  0  0  0  0  0  0  0
   20.9140  -22.4312  -13.5411 C   0  0  0  0  0  0  0  0  0  0  0  0
   21.5698  -21.1503  -13.2891 C   0  0  2  0  0  0  0  0  0  0  0  0
   23.0171  -21.5146  -12.9702 N   0  0  0  0  0  0  0  0  0  0  0  0
   21.1488  -20.3540  -12.1081 C   0  0  0  0  0  0  0  0  0  0  0  0
   20.2465  -19.3596  -12.0115 O   0  0  0  0  0  0  0  0  0  0  0  0
   21.7541  -20.6676  -10.9966 O   0  0  0  0  0  0  0  0  0  0  0  0
  2  1  1  6
  2  3  1  0
  3  4  1  0
  4  5  2  0
  4  8  1  0
  5  6  1  0
  6  7  1  0
  8  7  2  0
  9  2  1  0
 10  9  2  0
 12 14  1  0
 12 11  1  0
 13 12  2  0
 15 14  1  0
 16 15  1  1
 16 17  1  0
 17  9  1  0
 18 28  1  0
 18 16  1  0
 19 18  2  0
 21 20  1  0
 21 23  1  0
 22 21  2  0
 24 23  1  0
 25 24  1  0
 26 25  1  0
 27 26  1  1
 27 28  1  0
 29 27  1  0
 30 29  1  0
 31 29  2  0
M  END
$$$$
