HQR.pdb
     RDKit          3D

 31 31  0  0  1  0  0  0  0  0999 V2000
   25.6774  -24.5966  -16.0671 N   0  0  0  0  0  0  0  0  0  0  0  0
   25.8781  -23.2559  -15.5248 C   0  0  1  0  0  0  0  0  0  0  0  0
   26.6586  -22.4541  -16.4547 C   0  0  0  0  0  0  0  0  0  0  0  0
   27.9518  -23.0394  -16.8796 C   0  0  0  0  0  0  0  0  0  0  0  0
   29.0649  -23.1986  -16.0644 C   0  0  0  0  0  0  0  0  0  0  0  0
   30.0264  -23.7421  -16.7908 N   0  0  0  0  0  0  0  0  0  0  0  0
   29.5368  -23.9216  -18.0277 C   0  0  0  0  0  0  0  0  0  0  0  0
   28.2561  -23.4909  -18.0927 N   0  0  0  0  0  0  0  0  0  0  0  0
   24.7198  -22.7241  -14.8432 C   0  0  0  0  0  0  0  0  0  0  0  0
   23.5796  -23.1001  -15.2158 O   0  0  0  0  0  0  0  0  0  0  0  0
   24.5892  -20.6259   -8.7418 N   0  0  0  0  0  0  0  0  0  0  0  0
   25.5116  -21.3081   -9.6212 C   0  0  0  0  0  0  0  0  0  0  0  0
   26.5944  -21.6263   -9.1083 O   0  0  0  0  0  0  0  0  0  0  0  0
   25.1838  -21.5909  -11.0049 C   0  0  0  0  0  0  0  0  0  0  0  0
   23.8903  -21.1238  -11.5595 C   0  0  0  0  0  0  0  0  0  0  0  0
   23.6622  -21.3260  -12.9987 C   0  0  2  0  0  0  0  0  0  0  0  0
   24.7470  -21.7839  -13.7646 N   0  0  0  0  0  0  0  0  0  0  0  0
   22.9802  -20.1402  -13.6330 C   0  0  0  0  0  0  0  0  0  0  0  0
   23.6348  -19.0859  -13.8409 O   0  0  0  0  0  0  0  0  0  0  0  0
   24.6378  -21.4812  -18.6151 N   0  0  0  0  0  0  0  0  0  0  0  0
   23.7346  -20.8269  -19.4885 C   0  0  0  0  0  0  0  0  0  0  0  0
   23.9591  -20.8522  -20.7762 N   0  0  0  0  0  0  0  0  0  0  0  0
   22.6127  -20.1586  -18.9813 N   0  0  0  0  0  0  0  0  0  0  0  0
   22.2459  -20.2180  -17.5956 C   0  0  0  0  0  0  0  0  0  0  0  0
   20.9884  -19.5467  -17.2298 C   0  0  0  0  0  0  0  0  0  0  0  0
   20.4247  -19.5455  -15.9149 C   0  0  0  0  0  0  0  0  0  0  0  0
   20.9296  -19.0167  -14.6502 C   0  0  2  0  0  0  0  0  0  0  0  0
   21.6331  -20.1998  -13.9913 N   0  0  0  0  0  0  0  0  0  0  0  0
   19.9532  -18.5811  -13.6190 C   0  0  0  0  0  0  0  0  0  0  0  0
   19.2742  -17.4246  -13.5035 O   0  0  0  0  0  0  0  0  0  0  0  0
   19.7267  -19.4570  -12.6800 O   0  0  0  0  0  0  0  0  0  0  0  0
  2  1  1  6
  2  3  1  0
  3  4  1  0
  4  5  2  0
  4  8  1  0
  5  6  1  0
  6  7  1  0
  8  7  2  0
  9  2  1  0
 10  9  2  0
 12 14  1  0
 12 11  1  0
 13 12  2  0
 15 14  1  0
 16 15  1  1
 16 17  1  0
 17  9  1  0
 18 28  1  0
 18 16  1  0
 19 18  2  0
 21 20  1  0
 21 23  1  0
 22 21  2  0
 24 23  1  0
 25 24  1  0
 26 25  1  0
 27 26  1  6
 27 28  1  0
 29 27  1  0
 30 29  1  0
 31 29  2  0
M  END
$$$$
