HQR.pdb
     RDKit          3D

 31 31  0  0  1  0  0  0  0  0999 V2000
   28.2723  -20.3639  -13.2697 N   0  0  0  0  0  0  0  0  0  0  0  0
   27.1098  -20.7028  -12.4538 C   0  0  1  0  0  0  0  0  0  0  0  0
   27.3551  -20.3464  -11.0647 C   0  0  0  0  0  0  0  0  0  0  0  0
   28.6467  -20.8050  -10.5018 C   0  0  0  0  0  0  0  0  0  0  0  0
   29.6024  -21.5427  -11.1885 C   0  0  0  0  0  0  0  0  0  0  0  0
   30.6089  -21.7726  -10.3628 N   0  0  0  0  0  0  0  0  0  0  0  0
   30.2998  -21.1981   -9.1897 C   0  0  0  0  0  0  0  0  0  0  0  0
   29.0899  -20.5977   -9.2655 N   0  0  0  0  0  0  0  0  0  0  0  0
   25.8458  -20.4320  -13.1002 C   0  0  0  0  0  0  0  0  0  0  0  0
   25.7563  -19.4216  -13.8428 O   0  0  0  0  0  0  0  0  0  0  0  0
   24.9990  -24.7833  -14.2938 N   0  0  0  0  0  0  0  0  0  0  0  0
   25.2457  -23.8982  -15.4098 C   0  0  0  0  0  0  0  0  0  0  0  0
   26.1723  -24.2382  -16.1598 O   0  0  0  0  0  0  0  0  0  0  0  0
   24.4609  -22.6982  -15.6239 C   0  0  0  0  0  0  0  0  0  0  0  0
   23.3507  -22.3759  -14.6952 C   0  0  0  0  0  0  0  0  0  0  0  0
   23.5307  -21.2173  -13.8066 C   0  0  2  0  0  0  0  0  0  0  0  0
   24.6573  -21.2181  -12.9676 N   0  0  0  0  0  0  0  0  0  0  0  0
   22.2660  -20.8797  -13.0581 C   0  0  0  0  0  0  0  0  0  0  0  0
   22.0535  -21.4003  -11.9324 O   0  0  0  0  0  0  0  0  0  0  0  0
   18.3277  -13.7636  -15.5023 N   0  0  0  0  0  0  0  0  0  0  0  0
   17.6844  -15.0104  -15.3064 C   0  0  0  0  0  0  0  0  0  0  0  0
   16.4474  -15.1604  -15.7020 N   0  0  0  0  0  0  0  0  0  0  0  0
   18.3630  -16.0727  -14.6952 N   0  0  0  0  0  0  0  0  0  0  0  0
   19.6868  -15.9310  -14.1608 C   0  0  0  0  0  0  0  0  0  0  0  0
   20.2558  -17.1258  -13.5167 C   0  0  0  0  0  0  0  0  0  0  0  0
   19.5998  -18.3950  -13.4429 C   0  0  0  0  0  0  0  0  0  0  0  0
   20.0288  -19.6703  -12.8739 C   0  0  2  0  0  0  0  0  0  0  0  0
   21.3308  -19.9974  -13.5996 N   0  0  0  0  0  0  0  0  0  0  0  0
   19.1922  -20.8744  -13.1115 C   0  0  0  0  0  0  0  0  0  0  0  0
   18.0647  -21.2799  -12.4980 O   0  0  0  0  0  0  0  0  0  0  0  0
   19.6249  -21.6591  -14.0586 O   0  0  0  0  0  0  0  0  0  0  0  0
  2  1  1  6
  2  3  1  0
  3  4  1  0
  4  5  2  0
  4  8  1  0
  5  6  1  0
  6  7  1  0
  8  7  2  0
  9  2  1  0
 10  9  2  0
 12 14  1  0
 12 11  1  0
 13 12  2  0
 15 14  1  0
 16 15  1  1
 16 17  1  0
 17  9  1  0
 18 28  1  0
 18 16  1  0
 19 18  2  0
 21 20  1  0
 21 23  1  0
 22 21  2  0
 24 23  1  0
 25 24  1  0
 26 25  1  0
 27 26  1  6
 27 28  1  0
 29 27  1  0
 30 29  1  0
 31 29  2  0
M  END
$$$$
