HQR.pdb
     RDKit          3D

 31 31  0  0  1  0  0  0  0  0999 V2000
   35.0701  -32.5723  -18.3797 N   0  0  0  0  0  0  0  0  0  0  0  0
   33.7065  -32.9397  -18.7504 C   0  0  1  0  0  0  0  0  0  0  0  0
   33.6185  -34.3758  -18.9661 C   0  0  0  0  0  0  0  0  0  0  0  0
   34.5110  -34.9243  -20.0138 C   0  0  0  0  0  0  0  0  0  0  0  0
   34.2309  -34.9443  -21.3741 C   0  0  0  0  0  0  0  0  0  0  0  0
   35.2506  -35.5166  -21.9907 N   0  0  0  0  0  0  0  0  0  0  0  0
   36.1486  -35.8485  -21.0497 C   0  0  0  0  0  0  0  0  0  0  0  0
   35.7011  -35.4866  -19.8255 N   0  0  0  0  0  0  0  0  0  0  0  0
   32.6898  -32.2124  -18.0248 C   0  0  0  0  0  0  0  0  0  0  0  0
   32.9177  -31.8940  -16.8302 O   0  0  0  0  0  0  0  0  0  0  0  0
   27.3367  -29.5895  -19.6073 N   0  0  0  0  0  0  0  0  0  0  0  0
   27.7229  -28.8343  -18.4367 C   0  0  0  0  0  0  0  0  0  0  0  0
   26.8387  -28.1076  -17.9606 O   0  0  0  0  0  0  0  0  0  0  0  0
   29.0548  -28.9255  -17.8713 C   0  0  0  0  0  0  0  0  0  0  0  0
   30.0802  -29.7564  -18.5473 C   0  0  0  0  0  0  0  0  0  0  0  0
   30.4369  -31.0348  -17.9126 C   0  0  2  0  0  0  0  0  0  0  0  0
   31.4170  -31.8168  -18.5457 N   0  0  0  0  0  0  0  0  0  0  0  0
   29.2168  -31.8414  -17.5461 C   0  0  0  0  0  0  0  0  0  0  0  0
   28.7574  -32.6786  -18.3654 O   0  0  0  0  0  0  0  0  0  0  0  0
   23.1953  -33.6857  -11.8381 N   0  0  0  0  0  0  0  0  0  0  0  0
   23.9193  -34.9030  -11.8649 C   0  0  0  0  0  0  0  0  0  0  0  0
   23.4382  -35.9465  -11.2414 N   0  0  0  0  0  0  0  0  0  0  0  0
   25.1379  -34.9908  -12.5503 N   0  0  0  0  0  0  0  0  0  0  0  0
   25.6777  -33.8926  -13.2991 C   0  0  0  0  0  0  0  0  0  0  0  0
   27.0000  -34.1118  -13.9069 C   0  0  0  0  0  0  0  0  0  0  0  0
   27.7025  -33.1405  -14.6877 C   0  0  0  0  0  0  0  0  0  0  0  0
   27.3442  -32.4598  -15.9296 C   0  0  2  0  0  0  0  0  0  0  0  0
   28.5930  -31.6695  -16.3101 N   0  0  0  0  0  0  0  0  0  0  0  0
   26.2808  -31.4234  -15.8934 C   0  0  0  0  0  0  0  0  0  0  0  0
   24.9419  -31.5579  -15.8540 O   0  0  0  0  0  0  0  0  0  0  0  0
   26.7177  -30.1950  -15.9073 O   0  0  0  0  0  0  0  0  0  0  0  0
  2  1  1  1
  2  3  1  0
  3  4  1  0
  4  5  2  0
  4  8  1  0
  5  6  1  0
  6  7  1  0
  8  7  2  0
  9  2  1  0
 10  9  2  0
 12 14  1  0
 12 11  1  0
 13 12  2  0
 15 14  1  0
 16 15  1  6
 16 17  1  0
 17  9  1  0
 18 28  1  0
 18 16  1  0
 19 18  2  0
 21 20  1  0
 21 23  1  0
 22 21  2  0
 24 23  1  0
 25 24  1  0
 26 25  1  0
 27 26  1  1
 27 28  1  0
 29 27  1  0
 30 29  1  0
 31 29  2  0
M  END
$$$$
