HQR.pdb
     RDKit          3D

 31 31  0  0  1  0  0  0  0  0999 V2000
   27.6242  -22.3671  -16.8065 N   0  0  0  0  0  0  0  0  0  0  0  0
   27.1193  -21.1902  -16.1052 C   0  0  1  0  0  0  0  0  0  0  0  0
   26.8450  -20.1234  -17.0557 C   0  0  0  0  0  0  0  0  0  0  0  0
   27.9843  -19.7158  -17.9109 C   0  0  0  0  0  0  0  0  0  0  0  0
   28.0962  -19.9727  -19.2713 C   0  0  0  0  0  0  0  0  0  0  0  0
   29.2458  -19.4693  -19.6867 N   0  0  0  0  0  0  0  0  0  0  0  0
   29.8430  -18.9109  -18.6222 C   0  0  0  0  0  0  0  0  0  0  0  0
   29.0717  -19.0577  -17.5206 N   0  0  0  0  0  0  0  0  0  0  0  0
   26.2127  -21.5013  -15.0234 C   0  0  0  0  0  0  0  0  0  0  0  0
   25.2178  -22.2305  -15.2657 O   0  0  0  0  0  0  0  0  0  0  0  0
   26.6304  -20.4038   -8.4658 N   0  0  0  0  0  0  0  0  0  0  0  0
   25.2862  -20.8154   -8.8024 C   0  0  0  0  0  0  0  0  0  0  0  0
   24.5264  -20.9816   -7.8372 O   0  0  0  0  0  0  0  0  0  0  0  0
   24.8691  -21.0203  -10.1758 C   0  0  0  0  0  0  0  0  0  0  0  0
   25.8716  -20.9319  -11.2648 C   0  0  0  0  0  0  0  0  0  0  0  0
   25.3951  -21.1549  -12.6387 C   0  0  2  0  0  0  0  0  0  0  0  0
   26.3383  -21.0428  -13.6736 N   0  0  0  0  0  0  0  0  0  0  0  0
   24.1365  -20.3778  -12.9314 C   0  0  0  0  0  0  0  0  0  0  0  0
   24.2200  -19.1786  -13.3032 O   0  0  0  0  0  0  0  0  0  0  0  0
   23.6902  -17.7818  -18.5198 N   0  0  0  0  0  0  0  0  0  0  0  0
   22.5453  -17.0355  -18.1469 C   0  0  0  0  0  0  0  0  0  0  0  0
   21.9338  -16.3108  -19.0470 N   0  0  0  0  0  0  0  0  0  0  0  0
   22.0714  -17.0710  -16.8291 N   0  0  0  0  0  0  0  0  0  0  0  0
   22.4697  -18.0870  -15.8978 C   0  0  0  0  0  0  0  0  0  0  0  0
   21.4432  -19.0817  -15.5474 C   0  0  0  0  0  0  0  0  0  0  0  0
   21.6487  -20.1730  -14.6454 C   0  0  0  0  0  0  0  0  0  0  0  0
   21.6032  -20.2397  -13.1868 C   0  0  2  0  0  0  0  0  0  0  0  0
   22.8825  -20.9736  -12.7946 N   0  0  0  0  0  0  0  0  0  0  0  0
   20.5346  -21.0459  -12.5429 C   0  0  0  0  0  0  0  0  0  0  0  0
   19.2989  -20.6870  -12.1474 O   0  0  0  0  0  0  0  0  0  0  0  0
   20.8501  -22.2920  -12.3248 O   0  0  0  0  0  0  0  0  0  0  0  0
  2  1  1  6
  2  3  1  0
  3  4  1  0
  4  5  2  0
  4  8  1  0
  5  6  1  0
  6  7  1  0
  8  7  2  0
  9  2  1  0
 10  9  2  0
 12 14  1  0
 12 11  1  0
 13 12  2  0
 15 14  1  0
 16 15  1  1
 16 17  1  0
 17  9  1  0
 18 28  1  0
 18 16  1  0
 19 18  2  0
 21 20  1  0
 21 23  1  0
 22 21  2  0
 24 23  1  0
 25 24  1  0
 26 25  1  0
 27 26  1  6
 27 28  1  0
 29 27  1  0
 30 29  1  0
 31 29  2  0
M  END
$$$$
