HQR.pdb
     RDKit          3D

 31 31  0  0  1  0  0  0  0  0999 V2000
   25.0336  -18.5419  -17.5854 N   0  0  0  0  0  0  0  0  0  0  0  0
   24.7787  -19.9508  -17.2994 C   0  0  1  0  0  0  0  0  0  0  0  0
   26.0167  -20.7096  -17.3899 C   0  0  0  0  0  0  0  0  0  0  0  0
   26.8335  -20.4648  -18.6017 C   0  0  0  0  0  0  0  0  0  0  0  0
   26.5179  -19.5652  -19.6116 C   0  0  0  0  0  0  0  0  0  0  0  0
   27.4705  -19.6298  -20.5259 N   0  0  0  0  0  0  0  0  0  0  0  0
   28.3618  -20.5421  -20.1074 C   0  0  0  0  0  0  0  0  0  0  0  0
   27.9774  -21.0634  -18.9198 N   0  0  0  0  0  0  0  0  0  0  0  0
   23.8273  -20.1656  -16.2328 C   0  0  0  0  0  0  0  0  0  0  0  0
   24.1883  -20.8373  -15.2335 O   0  0  0  0  0  0  0  0  0  0  0  0
   19.4126  -16.3536  -13.5791 N   0  0  0  0  0  0  0  0  0  0  0  0
   19.2427  -17.6684  -13.0029 C   0  0  0  0  0  0  0  0  0  0  0  0
   18.4330  -17.7350  -12.0666 O   0  0  0  0  0  0  0  0  0  0  0  0
   19.9763  -18.8195  -13.4914 C   0  0  0  0  0  0  0  0  0  0  0  0
   20.9998  -18.6386  -14.5491 C   0  0  0  0  0  0  0  0  0  0  0  0
   21.5267  -19.8528  -15.1912 C   0  0  2  0  0  0  0  0  0  0  0  0
   22.4808  -19.6815  -16.2078 N   0  0  0  0  0  0  0  0  0  0  0  0
   20.4247  -20.7970  -15.6006 C   0  0  0  0  0  0  0  0  0  0  0  0
   19.8402  -20.6281  -16.7020 O   0  0  0  0  0  0  0  0  0  0  0  0
   21.0553  -28.7429  -12.7417 N   0  0  0  0  0  0  0  0  0  0  0  0
   21.2776  -27.3847  -12.4056 C   0  0  0  0  0  0  0  0  0  0  0  0
   22.0916  -27.0941  -11.4248 N   0  0  0  0  0  0  0  0  0  0  0  0
   20.6333  -26.3622  -13.1140 N   0  0  0  0  0  0  0  0  0  0  0  0
   19.3676  -26.5567  -13.7608 C   0  0  0  0  0  0  0  0  0  0  0  0
   18.8791  -25.4342  -14.5776 C   0  0  0  0  0  0  0  0  0  0  0  0
   19.3271  -24.0821  -14.4450 C   0  0  0  0  0  0  0  0  0  0  0  0
   19.0074  -22.8810  -15.2127 C   0  0  2  0  0  0  0  0  0  0  0  0
   20.0470  -21.8542  -14.7723 N   0  0  0  0  0  0  0  0  0  0  0  0
   17.7163  -22.1931  -14.9556 C   0  0  0  0  0  0  0  0  0  0  0  0
   16.4848  -22.4580  -15.4304 O   0  0  0  0  0  0  0  0  0  0  0  0
   17.7952  -21.1721  -14.1485 O   0  0  0  0  0  0  0  0  0  0  0  0
  2  1  1  1
  2  3  1  0
  3  4  1  0
  4  5  2  0
  4  8  1  0
  5  6  1  0
  6  7  1  0
  8  7  2  0
  9  2  1  0
 10  9  2  0
 12 14  1  0
 12 11  1  0
 13 12  2  0
 15 14  1  0
 16 15  1  6
 16 17  1  0
 17  9  1  0
 18 28  1  0
 18 16  1  0
 19 18  2  0
 21 20  1  0
 21 23  1  0
 22 21  2  0
 24 23  1  0
 25 24  1  0
 26 25  1  0
 27 26  1  1
 27 28  1  0
 29 27  1  0
 30 29  1  0
 31 29  2  0
M  END
$$$$
