HQR.pdb
     RDKit          3D

 31 31  0  0  1  0  0  0  0  0999 V2000
   25.0543  -16.1639  -20.4336 N   0  0  0  0  0  0  0  0  0  0  0  0
   25.2407  -16.2609  -18.9887 C   0  0  1  0  0  0  0  0  0  0  0  0
   24.7041  -15.0762  -18.3365 C   0  0  0  0  0  0  0  0  0  0  0  0
   25.2330  -13.7800  -18.8217 C   0  0  0  0  0  0  0  0  0  0  0  0
   26.4771  -13.2525  -18.5010 C   0  0  0  0  0  0  0  0  0  0  0  0
   26.5918  -12.0837  -19.1079 N   0  0  0  0  0  0  0  0  0  0  0  0
   25.4553  -11.8779  -19.7919 C   0  0  0  0  0  0  0  0  0  0  0  0
   24.6098  -12.9200  -19.6218 N   0  0  0  0  0  0  0  0  0  0  0  0
   25.0219  -17.5886  -18.4612 C   0  0  0  0  0  0  0  0  0  0  0  0
   23.8688  -18.0829  -18.5405 O   0  0  0  0  0  0  0  0  0  0  0  0
   29.3677  -22.2998  -16.7375 N   0  0  0  0  0  0  0  0  0  0  0  0
   28.0276  -22.7570  -16.4469 C   0  0  0  0  0  0  0  0  0  0  0  0
   27.9450  -23.9197  -16.0253 O   0  0  0  0  0  0  0  0  0  0  0  0
   26.8690  -21.9076  -16.6428 C   0  0  0  0  0  0  0  0  0  0  0  0
   27.0551  -20.5183  -17.1268 C   0  0  0  0  0  0  0  0  0  0  0  0
   25.8462  -19.6983  -17.3015 C   0  0  2  0  0  0  0  0  0  0  0  0
   26.0133  -18.4106  -17.8371 N   0  0  0  0  0  0  0  0  0  0  0  0
   24.9870  -19.6904  -16.0624 C   0  0  0  0  0  0  0  0  0  0  0  0
   25.2532  -18.8909  -15.1279 O   0  0  0  0  0  0  0  0  0  0  0  0
   16.4232  -21.0144  -16.5054 N   0  0  0  0  0  0  0  0  0  0  0  0
   16.6226  -21.1668  -15.1112 C   0  0  0  0  0  0  0  0  0  0  0  0
   15.5866  -21.3380  -14.3324 N   0  0  0  0  0  0  0  0  0  0  0  0
   17.9142  -21.1343  -14.5697 N   0  0  0  0  0  0  0  0  0  0  0  0
   19.0818  -20.9449  -15.3815 C   0  0  0  0  0  0  0  0  0  0  0  0
   20.3620  -20.8506  -14.6616 C   0  0  0  0  0  0  0  0  0  0  0  0
   21.6309  -20.6482  -15.2907 C   0  0  0  0  0  0  0  0  0  0  0  0
   22.9734  -20.5121  -14.7311 C   0  0  2  0  0  0  0  0  0  0  0  0
   23.9018  -20.5588  -15.9414 N   0  0  0  0  0  0  0  0  0  0  0  0
   23.4948  -21.5942  -13.8574 C   0  0  0  0  0  0  0  0  0  0  0  0
   24.2355  -22.6750  -14.1664 O   0  0  0  0  0  0  0  0  0  0  0  0
   23.1784  -21.4765  -12.5980 O   0  0  0  0  0  0  0  0  0  0  0  0
  2  1  1  6
  2  3  1  0
  3  4  1  0
  4  5  2  0
  4  8  1  0
  5  6  1  0
  6  7  1  0
  8  7  2  0
  9  2  1  0
 10  9  2  0
 12 14  1  0
 12 11  1  0
 13 12  2  0
 15 14  1  0
 16 15  1  1
 16 17  1  0
 17  9  1  0
 18 28  1  0
 18 16  1  0
 19 18  2  0
 21 20  1  0
 21 23  1  0
 22 21  2  0
 24 23  1  0
 25 24  1  0
 26 25  1  0
 27 26  1  6
 27 28  1  0
 29 27  1  0
 30 29  1  0
 31 29  2  0
M  END
$$$$
