WFY.pdb
     RDKit          3D

 38 41  0  0  1  0  0  0  0  0999 V2000
   28.3243  -21.5529  -14.8072 N   0  0  0  0  0  0  0  0  0  0  0  0
   27.3565  -20.7028  -14.1730 C   0  0  1  0  0  0  0  0  0  0  0  0
   26.2486  -20.2694  -15.0998 C   0  0  0  0  0  0  0  0  0  0  0  0
   26.8417  -19.4441  -16.1820 C   0  0  0  0  0  0  0  0  0  0  0  0
   27.0480  -19.8754  -17.4973 C   0  0  0  0  0  0  0  0  0  0  0  0
   27.5738  -18.8811  -18.2337 N   0  0  0  0  0  0  0  0  0  0  0  0
   27.7227  -17.8029  -17.4446 C   0  0  0  0  0  0  0  0  0  0  0  0
   28.2186  -16.5469  -17.7169 C   0  0  0  0  0  0  0  0  0  0  0  0
   28.2570  -15.6330  -16.6881 C   0  0  0  0  0  0  0  0  0  0  0  0
   27.8252  -15.9223  -15.4160 C   0  0  0  0  0  0  0  0  0  0  0  0
   27.3263  -17.1971  -15.1573 C   0  0  0  0  0  0  0  0  0  0  0  0
   27.2733  -18.1353  -16.1664 C   0  0  0  0  0  0  0  0  0  0  0  0
   26.8320  -21.3062  -12.9190 C   0  0  0  0  0  0  0  0  0  0  0  0
   26.4435  -22.4883  -12.9216 O   0  0  0  0  0  0  0  0  0  0  0  0
   26.7982  -20.4921  -11.7555 N   0  0  0  0  0  0  0  0  0  0  0  0
   25.7351  -20.7123  -10.8029 C   0  0  1  0  0  0  0  0  0  0  0  0
   25.9636  -19.8081   -9.5763 C   0  0  0  0  0  0  0  0  0  0  0  0
   26.9930  -20.3890   -8.6886 C   0  0  0  0  0  0  0  0  0  0  0  0
   28.1617  -20.9132   -9.1924 C   0  0  0  0  0  0  0  0  0  0  0  0
   29.1264  -21.4572   -8.3504 C   0  0  0  0  0  0  0  0  0  0  0  0
   28.9494  -21.4918   -6.9850 C   0  0  0  0  0  0  0  0  0  0  0  0
   27.7771  -20.9665   -6.4741 C   0  0  0  0  0  0  0  0  0  0  0  0
   26.8128  -20.4219   -7.3255 C   0  0  0  0  0  0  0  0  0  0  0  0
   24.4633  -20.2343  -11.3887 C   0  0  0  0  0  0  0  0  0  0  0  0
   24.5008  -19.6768  -12.5078 O   0  0  0  0  0  0  0  0  0  0  0  0
   16.9382  -19.3638  -15.1442 O   0  0  0  0  0  0  0  0  0  0  0  0
   18.1993  -19.5421  -14.5749 C   0  0  0  0  0  0  0  0  0  0  0  0
   18.8177  -20.7735  -14.5466 C   0  0  0  0  0  0  0  0  0  0  0  0
   20.0635  -20.8677  -13.9664 C   0  0  0  0  0  0  0  0  0  0  0  0
   20.6890  -19.7608  -13.4220 C   0  0  0  0  0  0  0  0  0  0  0  0
   22.0489  -19.9778  -12.8168 C   0  0  0  0  0  0  0  0  0  0  0  0
   21.9453  -20.0982  -11.3200 C   0  0  2  0  0  0  0  0  0  0  0  0
   23.2246  -20.3976  -10.7086 N   0  0  0  0  0  0  0  0  0  0  0  0
   20.9830  -21.1516  -10.9196 C   0  0  0  0  0  0  0  0  0  0  0  0
   19.7821  -21.1411  -11.2920 O   0  0  0  0  0  0  0  0  0  0  0  0
   20.0770  -18.5464  -13.4509 C   0  0  0  0  0  0  0  0  0  0  0  0
   18.8352  -18.4307  -14.0244 C   0  0  0  0  0  0  0  0  0  0  0  0
   21.3656  -22.2219  -10.0987 O   0  0  0  0  0  0  0  0  0  0  0  0
  2  1  1  6
  2  3  1  0
  4  3  1  0
  4  5  2  0
  6  5  1  0
  7  6  1  0
  8  7  2  0
  9  8  1  0
 10  9  2  0
 10 11  1  0
 11 12  2  0
 12  7  1  0
 12  4  1  0
 13  2  1  0
 13 14  2  0
 15 13  1  0
 16 17  1  1
 16 15  1  0
 18 17  1  0
 18 23  1  0
 19 18  2  0
 20 19  1  0
 20 21  2  0
 21 22  1  0
 22 23  2  0
 24 16  1  0
 25 24  2  0
 27 26  1  0
 27 28  2  0
 29 28  1  0
 30 29  2  0
 32 31  1  6
 31 30  1  0
 32 33  1  0
 33 24  1  0
 34 38  1  0
 34 32  1  0
 35 34  2  0
 36 37  2  0
 36 30  1  0
 37 27  1  0
M  END
$$$$
