WFY.pdb
     RDKit          3D

 38 41  0  0  1  0  0  0  0  0999 V2000
   27.6113  -22.2511  -16.3375 N   0  0  0  0  0  0  0  0  0  0  0  0
   27.1686  -21.0913  -15.6161 C   0  0  1  0  0  0  0  0  0  0  0  0
   26.3643  -20.1366  -16.4623 C   0  0  0  0  0  0  0  0  0  0  0  0
   27.2548  -19.5792  -17.5112 C   0  0  0  0  0  0  0  0  0  0  0  0
   27.0794  -19.7561  -18.8884 C   0  0  0  0  0  0  0  0  0  0  0  0
   28.0380  -19.1005  -19.5654 N   0  0  0  0  0  0  0  0  0  0  0  0
   28.8446  -18.4942  -18.6769 C   0  0  0  0  0  0  0  0  0  0  0  0
   29.9641  -17.7129  -18.8609 C   0  0  0  0  0  0  0  0  0  0  0  0
   30.6011  -17.2271  -17.7413 C   0  0  0  0  0  0  0  0  0  0  0  0
   30.1683  -17.4887  -16.4636 C   0  0  0  0  0  0  0  0  0  0  0  0
   29.0344  -18.2803  -16.2949 C   0  0  0  0  0  0  0  0  0  0  0  0
   28.3728  -18.7816  -17.3959 C   0  0  0  0  0  0  0  0  0  0  0  0
   26.4587  -21.4610  -14.3626 C   0  0  0  0  0  0  0  0  0  0  0  0
   25.8800  -22.5598  -14.2853 O   0  0  0  0  0  0  0  0  0  0  0  0
   26.4743  -20.5272  -13.2923 N   0  0  0  0  0  0  0  0  0  0  0  0
   25.6150  -20.7786  -12.1589 C   0  0  1  0  0  0  0  0  0  0  0  0
   26.1529  -20.0062  -10.9389 C   0  0  0  0  0  0  0  0  0  0  0  0
   27.4592  -20.5522  -10.5143 C   0  0  0  0  0  0  0  0  0  0  0  0
   27.6918  -20.9230   -9.2093 C   0  0  0  0  0  0  0  0  0  0  0  0
   28.9236  -21.4373   -8.8174 C   0  0  0  0  0  0  0  0  0  0  0  0
   29.9541  -21.5948   -9.7175 C   0  0  0  0  0  0  0  0  0  0  0  0
   29.7255  -21.2238  -11.0295 C   0  0  0  0  0  0  0  0  0  0  0  0
   28.4861  -20.7080  -11.4158 C   0  0  0  0  0  0  0  0  0  0  0  0
   24.2878  -20.1814  -12.4249 C   0  0  0  0  0  0  0  0  0  0  0  0
   24.2426  -19.0869  -13.0289 O   0  0  0  0  0  0  0  0  0  0  0  0
   17.1689  -20.1678  -16.9733 O   0  0  0  0  0  0  0  0  0  0  0  0
   18.3702  -20.3621  -16.2910 C   0  0  0  0  0  0  0  0  0  0  0  0
   19.2539  -19.3290  -16.0644 C   0  0  0  0  0  0  0  0  0  0  0  0
   20.4194  -19.6017  -15.3828 C   0  0  0  0  0  0  0  0  0  0  0  0
   20.7072  -20.8770  -14.9315 C   0  0  0  0  0  0  0  0  0  0  0  0
   22.0067  -21.0606  -14.1963 C   0  0  0  0  0  0  0  0  0  0  0  0
   21.8418  -20.7107  -12.7416 C   0  0  2  0  0  0  0  0  0  0  0  0
   23.0879  -20.8234  -12.0105 N   0  0  0  0  0  0  0  0  0  0  0  0
   20.8369  -21.5756  -12.0797 C   0  0  0  0  0  0  0  0  0  0  0  0
   19.7280  -21.1350  -11.6835 O   0  0  0  0  0  0  0  0  0  0  0  0
   19.8337  -21.8951  -15.1561 C   0  0  0  0  0  0  0  0  0  0  0  0
   18.6664  -21.6449  -15.8336 C   0  0  0  0  0  0  0  0  0  0  0  0
   21.0734  -22.9401  -11.8599 O   0  0  0  0  0  0  0  0  0  0  0  0
  2  1  1  6
  2  3  1  0
  4  3  1  0
  4  5  2  0
  6  5  1  0
  7  6  1  0
  8  7  2  0
  9  8  1  0
 10  9  2  0
 10 11  1  0
 11 12  2  0
 12  7  1  0
 12  4  1  0
 13  2  1  0
 13 14  2  0
 15 13  1  0
 16 17  1  1
 16 15  1  0
 18 17  1  0
 18 23  1  0
 19 18  2  0
 20 19  1  0
 20 21  2  0
 21 22  1  0
 22 23  2  0
 24 16  1  0
 25 24  2  0
 27 26  1  0
 27 28  2  0
 29 28  1  0
 30 29  2  0
 32 31  1  6
 31 30  1  0
 32 33  1  0
 33 24  1  0
 34 38  1  0
 34 32  1  0
 35 34  2  0
 36 37  2  0
 36 30  1  0
 37 27  1  0
M  END
$$$$
