WFY.pdb
     RDKit          3D

 38 41  0  0  1  0  0  0  0  0999 V2000
   26.5775  -17.9266  -17.5295 N   0  0  0  0  0  0  0  0  0  0  0  0
   25.4912  -18.1630  -16.6208 C   0  0  1  0  0  0  0  0  0  0  0  0
   24.1477  -17.7792  -17.1884 C   0  0  0  0  0  0  0  0  0  0  0  0
   24.0147  -16.3025  -17.1144 C   0  0  0  0  0  0  0  0  0  0  0  0
   24.8090  -15.3900  -17.8182 C   0  0  0  0  0  0  0  0  0  0  0  0
   24.4143  -14.1324  -17.5542 N   0  0  0  0  0  0  0  0  0  0  0  0
   23.3814  -14.1842  -16.6953 C   0  0  0  0  0  0  0  0  0  0  0  0
   22.6351  -13.1796  -16.1196 C   0  0  0  0  0  0  0  0  0  0  0  0
   21.6262  -13.5415  -15.2557 C   0  0  0  0  0  0  0  0  0  0  0  0
   21.3389  -14.8500  -14.9495 C   0  0  0  0  0  0  0  0  0  0  0  0
   22.1030  -15.8539  -15.5404 C   0  0  0  0  0  0  0  0  0  0  0  0
   23.1203  -15.5248  -16.4111 C   0  0  0  0  0  0  0  0  0  0  0  0
   25.5012  -19.5568  -16.1023 C   0  0  0  0  0  0  0  0  0  0  0  0
   25.3308  -20.5062  -16.8884 O   0  0  0  0  0  0  0  0  0  0  0  0
   25.7088  -19.7442  -14.7096 N   0  0  0  0  0  0  0  0  0  0  0  0
   25.4490  -21.0518  -14.1539 C   0  0  1  0  0  0  0  0  0  0  0  0
   26.5620  -21.4005  -13.1469 C   0  0  0  0  0  0  0  0  0  0  0  0
   26.3956  -20.6233  -11.9006 C   0  0  0  0  0  0  0  0  0  0  0  0
   26.6477  -19.2709  -11.8595 C   0  0  0  0  0  0  0  0  0  0  0  0
   26.4876  -18.5458  -10.6830 C   0  0  0  0  0  0  0  0  0  0  0  0
   26.0720  -19.1519   -9.5182 C   0  0  0  0  0  0  0  0  0  0  0  0
   25.8175  -20.5103   -9.5542 C   0  0  0  0  0  0  0  0  0  0  0  0
   25.9804  -21.2318  -10.7392 C   0  0  0  0  0  0  0  0  0  0  0  0
   24.2148  -20.9878  -13.3406 C   0  0  0  0  0  0  0  0  0  0  0  0
   24.2008  -20.2286  -12.3466 O   0  0  0  0  0  0  0  0  0  0  0  0
   16.1800  -20.2464  -10.4511 O   0  0  0  0  0  0  0  0  0  0  0  0
   17.4380  -20.2602  -11.0541 C   0  0  0  0  0  0  0  0  0  0  0  0
   17.5912  -20.4121  -12.4153 C   0  0  0  0  0  0  0  0  0  0  0  0
   18.8670  -20.4153  -12.9346 C   0  0  0  0  0  0  0  0  0  0  0  0
   19.9754  -20.2704  -12.1203 C   0  0  0  0  0  0  0  0  0  0  0  0
   21.3203  -20.2855  -12.7940 C   0  0  0  0  0  0  0  0  0  0  0  0
   21.8310  -21.6961  -12.9167 C   0  0  2  0  0  0  0  0  0  0  0  0
   23.0681  -21.7632  -13.6686 N   0  0  0  0  0  0  0  0  0  0  0  0
   20.8417  -22.5827  -13.5732 C   0  0  0  0  0  0  0  0  0  0  0  0
   20.8223  -22.7625  -14.8175 O   0  0  0  0  0  0  0  0  0  0  0  0
   19.8222  -20.1205  -10.7771 C   0  0  0  0  0  0  0  0  0  0  0  0
   18.5593  -20.1146  -10.2391 C   0  0  0  0  0  0  0  0  0  0  0  0
   19.8693  -23.2718  -12.8346 O   0  0  0  0  0  0  0  0  0  0  0  0
  2  1  1  6
  2  3  1  0
  4  3  1  0
  4  5  2  0
  6  5  1  0
  7  6  1  0
  8  7  2  0
  9  8  1  0
 10  9  2  0
 10 11  1  0
 11 12  2  0
 12  7  1  0
 12  4  1  0
 13  2  1  0
 13 14  2  0
 15 13  1  0
 16 17  1  1
 16 15  1  0
 18 17  1  0
 18 23  1  0
 19 18  2  0
 20 19  1  0
 20 21  2  0
 21 22  1  0
 22 23  2  0
 24 16  1  0
 25 24  2  0
 27 26  1  0
 27 28  2  0
 29 28  1  0
 30 29  2  0
 32 31  1  6
 31 30  1  0
 32 33  1  0
 33 24  1  0
 34 38  1  0
 34 32  1  0
 35 34  2  0
 36 37  2  0
 36 30  1  0
 37 27  1  0
M  END
$$$$
