WFY.pdb
     RDKit          3D

 38 41  0  0  1  0  0  0  0  0999 V2000
   19.2222   -8.4018  -14.4277 N   0  0  0  0  0  0  0  0  0  0  0  0
   17.7985   -8.4398  -14.2449 C   0  0  1  0  0  0  0  0  0  0  0  0
   17.1891   -9.7721  -14.6024 C   0  0  0  0  0  0  0  0  0  0  0  0
   16.8682   -9.7645  -16.0518 C   0  0  0  0  0  0  0  0  0  0  0  0
   17.8131   -9.6897  -17.0816 C   0  0  0  0  0  0  0  0  0  0  0  0
   17.1999   -9.7341  -18.2770 N   0  0  0  0  0  0  0  0  0  0  0  0
   15.8754   -9.8357  -18.0700 C   0  0  0  0  0  0  0  0  0  0  0  0
   14.8259   -9.9083  -18.9594 C   0  0  0  0  0  0  0  0  0  0  0  0
   13.5520   -9.9996  -18.4458 C   0  0  0  0  0  0  0  0  0  0  0  0
   13.2906  -10.0206  -17.0968 C   0  0  0  0  0  0  0  0  0  0  0  0
   14.3631   -9.9466  -16.2108 C   0  0  0  0  0  0  0  0  0  0  0  0
   15.6517   -9.8554  -16.6931 C   0  0  0  0  0  0  0  0  0  0  0  0
   17.4069   -7.9941  -12.8812 C   0  0  0  0  0  0  0  0  0  0  0  0
   18.0132   -8.4411  -11.8908 O   0  0  0  0  0  0  0  0  0  0  0  0
   16.3407   -7.0621  -12.7694 N   0  0  0  0  0  0  0  0  0  0  0  0
   15.9110   -6.6771  -11.4453 C   0  0  1  0  0  0  0  0  0  0  0  0
   15.7703   -5.1437  -11.3882 C   0  0  0  0  0  0  0  0  0  0  0  0
   15.3154   -4.7143  -10.0489 C   0  0  0  0  0  0  0  0  0  0  0  0
   14.0105   -4.3408   -9.8202 C   0  0  0  0  0  0  0  0  0  0  0  0
   13.5895   -3.9389   -8.5566 C   0  0  0  0  0  0  0  0  0  0  0  0
   14.4595   -3.8998   -7.4897 C   0  0  0  0  0  0  0  0  0  0  0  0
   15.7713   -4.2740   -7.7143 C   0  0  0  0  0  0  0  0  0  0  0  0
   16.1870   -4.6763   -8.9858 C   0  0  0  0  0  0  0  0  0  0  0  0
   14.5405   -7.1874  -11.2214 C   0  0  0  0  0  0  0  0  0  0  0  0
   13.6688   -6.9379  -12.0832 O   0  0  0  0  0  0  0  0  0  0  0  0
    7.6424  -11.2322   -7.5995 O   0  0  0  0  0  0  0  0  0  0  0  0
    8.9457  -10.8300   -7.8929 C   0  0  0  0  0  0  0  0  0  0  0  0
    9.7038  -11.4631   -8.8542 C   0  0  0  0  0  0  0  0  0  0  0  0
   10.9826  -11.0064   -9.0856 C   0  0  0  0  0  0  0  0  0  0  0  0
   11.5045   -9.9394   -8.3772 C   0  0  0  0  0  0  0  0  0  0  0  0
   12.9102   -9.5226   -8.7136 C   0  0  0  0  0  0  0  0  0  0  0  0
   12.9100   -8.5536   -9.8654 C   0  0  2  0  0  0  0  0  0  0  0  0
   14.2092   -7.9424  -10.0621 N   0  0  0  0  0  0  0  0  0  0  0  0
   11.9144   -7.4730   -9.6731 C   0  0  0  0  0  0  0  0  0  0  0  0
   12.1846   -6.4131   -9.0530 O   0  0  0  0  0  0  0  0  0  0  0  0
   10.7547   -9.3159   -7.4289 C   0  0  0  0  0  0  0  0  0  0  0  0
    9.4777   -9.7554   -7.1826 C   0  0  0  0  0  0  0  0  0  0  0  0
   10.6101   -7.5782  -10.1768 O   0  0  0  0  0  0  0  0  0  0  0  0
  2  1  1  1
  2  3  1  0
  4  3  1  0
  4  5  2  0
  6  5  1  0
  7  6  1  0
  8  7  2  0
  9  8  1  0
 10  9  2  0
 10 11  1  0
 11 12  2  0
 12  7  1  0
 12  4  1  0
 13  2  1  0
 13 14  2  0
 15 13  1  0
 16 17  1  6
 16 15  1  0
 18 17  1  0
 18 23  1  0
 19 18  2  0
 20 19  1  0
 20 21  2  0
 21 22  1  0
 22 23  2  0
 24 16  1  0
 25 24  2  0
 27 26  1  0
 27 28  2  0
 29 28  1  0
 30 29  2  0
 32 31  1  1
 31 30  1  0
 32 33  1  0
 33 24  1  0
 34 38  1  0
 34 32  1  0
 35 34  2  0
 36 37  2  0
 36 30  1  0
 37 27  1  0
M  END
$$$$
