WFY.pdb
     RDKit          3D

 38 41  0  0  1  0  0  0  0  0999 V2000
   27.0822  -21.8584  -17.8926 N   0  0  0  0  0  0  0  0  0  0  0  0
   26.8341  -20.7906  -16.9654 C   0  0  1  0  0  0  0  0  0  0  0  0
   25.5361  -20.0679  -17.2250 C   0  0  0  0  0  0  0  0  0  0  0  0
   25.6231  -19.4167  -18.5564 C   0  0  0  0  0  0  0  0  0  0  0  0
   25.0080  -19.8892  -19.7213 C   0  0  0  0  0  0  0  0  0  0  0  0
   25.2573  -19.0568  -20.7470 N   0  0  0  0  0  0  0  0  0  0  0  0
   26.0205  -18.0460  -20.2962 C   0  0  0  0  0  0  0  0  0  0  0  0
   26.5448  -16.9512  -20.9474 C   0  0  0  0  0  0  0  0  0  0  0  0
   27.3097  -16.0718  -20.2147 C   0  0  0  0  0  0  0  0  0  0  0  0
   27.5670  -16.2425  -18.8757 C   0  0  0  0  0  0  0  0  0  0  0  0
   27.0291  -17.3548  -18.2320 C   0  0  0  0  0  0  0  0  0  0  0  0
   26.2576  -18.2541  -18.9373 C   0  0  0  0  0  0  0  0  0  0  0  0
   26.9456  -21.2494  -15.5552 C   0  0  0  0  0  0  0  0  0  0  0  0
   26.4384  -22.3353  -15.2203 O   0  0  0  0  0  0  0  0  0  0  0  0
   27.6383  -20.4135  -14.6391 N   0  0  0  0  0  0  0  0  0  0  0  0
   27.5742  -20.7450  -13.2347 C   0  0  1  0  0  0  0  0  0  0  0  0
   28.5859  -19.8735  -12.4657 C   0  0  0  0  0  0  0  0  0  0  0  0
   28.4670  -20.1032  -11.0103 C   0  0  0  0  0  0  0  0  0  0  0  0
   27.6768  -19.3002  -10.2196 C   0  0  0  0  0  0  0  0  0  0  0  0
   27.5689  -19.5233   -8.8506 C   0  0  0  0  0  0  0  0  0  0  0  0
   28.2464  -20.5531   -8.2363 C   0  0  0  0  0  0  0  0  0  0  0  0
   29.0415  -21.3625   -9.0262 C   0  0  0  0  0  0  0  0  0  0  0  0
   29.1451  -21.1325  -10.4001 C   0  0  0  0  0  0  0  0  0  0  0  0
   26.2529  -20.3378  -12.7083 C   0  0  0  0  0  0  0  0  0  0  0  0
   25.7734  -19.2486  -13.0934 O   0  0  0  0  0  0  0  0  0  0  0  0
   18.2321  -18.9150  -10.6598 O   0  0  0  0  0  0  0  0  0  0  0  0
   19.4411  -19.5254  -10.9944 C   0  0  0  0  0  0  0  0  0  0  0  0
   20.2621  -19.0223  -11.9806 C   0  0  0  0  0  0  0  0  0  0  0  0
   21.4400  -19.6827  -12.2523 C   0  0  0  0  0  0  0  0  0  0  0  0
   21.8013  -20.8237  -11.5594 C   0  0  0  0  0  0  0  0  0  0  0  0
   23.1104  -21.4618  -11.9363 C   0  0  0  0  0  0  0  0  0  0  0  0
   24.2515  -20.7740  -11.2360 C   0  0  2  0  0  0  0  0  0  0  0  0
   25.5364  -21.1530  -11.7887 N   0  0  0  0  0  0  0  0  0  0  0  0
   24.2652  -21.0735   -9.7848 C   0  0  0  0  0  0  0  0  0  0  0  0
   25.1367  -21.8121   -9.2595 O   0  0  0  0  0  0  0  0  0  0  0  0
   20.9897  -21.3186  -10.5865 C   0  0  0  0  0  0  0  0  0  0  0  0
   19.8112  -20.6757  -10.3000 C   0  0  0  0  0  0  0  0  0  0  0  0
   23.2997  -20.5444   -8.9167 O   0  0  0  0  0  0  0  0  0  0  0  0
  2  1  1  6
  2  3  1  0
  4  3  1  0
  4  5  2  0
  6  5  1  0
  7  6  1  0
  8  7  2  0
  9  8  1  0
 10  9  2  0
 10 11  1  0
 11 12  2  0
 12  7  1  0
 12  4  1  0
 13  2  1  0
 13 14  2  0
 15 13  1  0
 16 17  1  1
 16 15  1  0
 18 17  1  0
 18 23  1  0
 19 18  2  0
 20 19  1  0
 20 21  2  0
 21 22  1  0
 22 23  2  0
 24 16  1  0
 25 24  2  0
 27 26  1  0
 27 28  2  0
 29 28  1  0
 30 29  2  0
 32 31  1  6
 31 30  1  0
 32 33  1  0
 33 24  1  0
 34 38  1  0
 34 32  1  0
 35 34  2  0
 36 37  2  0
 36 30  1  0
 37 27  1  0
M  END
$$$$
