WFY.pdb
     RDKit          3D

 38 41  0  0  1  0  0  0  0  0999 V2000
   23.8770  -11.0439  -15.4409 N   0  0  0  0  0  0  0  0  0  0  0  0
   23.0463  -10.1963  -16.2490 C   0  0  1  0  0  0  0  0  0  0  0  0
   21.7819  -10.8734  -16.7149 C   0  0  0  0  0  0  0  0  0  0  0  0
   22.1523  -11.9433  -17.6751 C   0  0  0  0  0  0  0  0  0  0  0  0
   22.1761  -13.3114  -17.3806 C   0  0  0  0  0  0  0  0  0  0  0  0
   22.5242  -14.0142  -18.4724 N   0  0  0  0  0  0  0  0  0  0  0  0
   22.7324  -13.1518  -19.4826 C   0  0  0  0  0  0  0  0  0  0  0  0
   23.1082  -13.3673  -20.7902 C   0  0  0  0  0  0  0  0  0  0  0  0
   23.2539  -12.2692  -21.6075 C   0  0  0  0  0  0  0  0  0  0  0  0
   23.0417  -10.9825  -21.1740 C   0  0  0  0  0  0  0  0  0  0  0  0
   22.6619  -10.7818  -19.8488 C   0  0  0  0  0  0  0  0  0  0  0  0
   22.5063  -11.8609  -19.0045 C   0  0  0  0  0  0  0  0  0  0  0  0
   22.7705   -8.8970  -15.5802 C   0  0  0  0  0  0  0  0  0  0  0  0
   22.5376   -8.8721  -14.3581 O   0  0  0  0  0  0  0  0  0  0  0  0
   22.7862   -7.7234  -16.3802 N   0  0  0  0  0  0  0  0  0  0  0  0
   22.5907   -6.4514  -15.7244 C   0  0  1  0  0  0  0  0  0  0  0  0
   23.3652   -5.3643  -16.4943 C   0  0  0  0  0  0  0  0  0  0  0  0
   23.1670   -4.0419  -15.8641 C   0  0  0  0  0  0  0  0  0  0  0  0
   23.4937   -2.8778  -16.5216 C   0  0  0  0  0  0  0  0  0  0  0  0
   23.3032   -1.6367  -15.9225 C   0  0  0  0  0  0  0  0  0  0  0  0
   22.7819   -1.5261  -14.6525 C   0  0  0  0  0  0  0  0  0  0  0  0
   22.4522   -2.6926  -13.9878 C   0  0  0  0  0  0  0  0  0  0  0  0
   22.6463   -3.9352  -14.5956 C   0  0  0  0  0  0  0  0  0  0  0  0
   21.1694   -6.0614  -15.8541 C   0  0  0  0  0  0  0  0  0  0  0  0
   20.6763   -5.9981  -17.0019 O   0  0  0  0  0  0  0  0  0  0  0  0
   18.0611  -11.4423  -16.6299 O   0  0  0  0  0  0  0  0  0  0  0  0
   18.0641  -10.1958  -16.0033 C   0  0  0  0  0  0  0  0  0  0  0  0
   17.4662   -9.0928  -16.5740 C   0  0  0  0  0  0  0  0  0  0  0  0
   17.5121   -7.8968  -15.8922 C   0  0  0  0  0  0  0  0  0  0  0  0
   18.1396   -7.7924  -14.6642 C   0  0  0  0  0  0  0  0  0  0  0  0
   18.1269   -6.4391  -14.0074 C   0  0  0  0  0  0  0  0  0  0  0  0
   18.9584   -5.4638  -14.7966 C   0  0  2  0  0  0  0  0  0  0  0  0
   20.3738   -5.7636  -14.7131 N   0  0  0  0  0  0  0  0  0  0  0  0
   18.7526   -4.0700  -14.3376 C   0  0  0  0  0  0  0  0  0  0  0  0
   17.6217   -3.5205  -14.3446 O   0  0  0  0  0  0  0  0  0  0  0  0
   18.7290   -8.8821  -14.1028 C   0  0  0  0  0  0  0  0  0  0  0  0
   18.6949  -10.0837  -14.7656 C   0  0  0  0  0  0  0  0  0  0  0  0
   19.8167   -3.2868  -13.8683 O   0  0  0  0  0  0  0  0  0  0  0  0
  2  1  1  1
  2  3  1  0
  4  3  1  0
  4  5  2  0
  6  5  1  0
  7  6  1  0
  8  7  2  0
  9  8  1  0
 10  9  2  0
 10 11  1  0
 11 12  2  0
 12  7  1  0
 12  4  1  0
 13  2  1  0
 13 14  2  0
 15 13  1  0
 16 17  1  6
 16 15  1  0
 18 17  1  0
 18 23  1  0
 19 18  2  0
 20 19  1  0
 20 21  2  0
 21 22  1  0
 22 23  2  0
 24 16  1  0
 25 24  2  0
 27 26  1  0
 27 28  2  0
 29 28  1  0
 30 29  2  0
 32 31  1  1
 31 30  1  0
 32 33  1  0
 33 24  1  0
 34 38  1  0
 34 32  1  0
 35 34  2  0
 36 37  2  0
 36 30  1  0
 37 27  1  0
M  END
$$$$
