WFY.pdb
     RDKit          3D

 38 41  0  0  1  0  0  0  0  0999 V2000
   27.2932  -21.3119  -13.6794 N   0  0  0  0  0  0  0  0  0  0  0  0
   26.6456  -20.3862  -12.7933 C   0  0  1  0  0  0  0  0  0  0  0  0
   25.2549  -20.0105  -13.2395 C   0  0  0  0  0  0  0  0  0  0  0  0
   25.3494  -19.3807  -14.5805 C   0  0  0  0  0  0  0  0  0  0  0  0
   24.7456  -19.8749  -15.7424 C   0  0  0  0  0  0  0  0  0  0  0  0
   24.9993  -19.0581  -16.7795 N   0  0  0  0  0  0  0  0  0  0  0  0
   25.7544  -18.0366  -16.3392 C   0  0  0  0  0  0  0  0  0  0  0  0
   26.2790  -16.9501  -17.0040 C   0  0  0  0  0  0  0  0  0  0  0  0
   27.0343  -16.0555  -16.2798 C   0  0  0  0  0  0  0  0  0  0  0  0
   27.2818  -16.2033  -14.9362 C   0  0  0  0  0  0  0  0  0  0  0  0
   26.7437  -17.3074  -14.2788 C   0  0  0  0  0  0  0  0  0  0  0  0
   25.9818  -18.2215  -14.9753 C   0  0  0  0  0  0  0  0  0  0  0  0
   26.6708  -20.8633  -11.3849 C   0  0  0  0  0  0  0  0  0  0  0  0
   26.6685  -22.0853  -11.1500 O   0  0  0  0  0  0  0  0  0  0  0  0
   26.6971  -19.8860  -10.3545 N   0  0  0  0  0  0  0  0  0  0  0  0
   26.7405  -20.3435   -8.9852 C   0  0  1  0  0  0  0  0  0  0  0  0
   27.5298  -19.3255   -8.1396 C   0  0  0  0  0  0  0  0  0  0  0  0
   27.6148  -19.7743   -6.7338 C   0  0  0  0  0  0  0  0  0  0  0  0
   28.6049  -20.6332   -6.3136 C   0  0  0  0  0  0  0  0  0  0  0  0
   28.6791  -21.0503   -4.9884 C   0  0  0  0  0  0  0  0  0  0  0  0
   27.7676  -20.6210   -4.0494 C   0  0  0  0  0  0  0  0  0  0  0  0
   26.7711  -19.7583   -4.4666 C   0  0  0  0  0  0  0  0  0  0  0  0
   26.7028  -19.3437   -5.7987 C   0  0  0  0  0  0  0  0  0  0  0  0
   25.3704  -20.3109   -8.4278 C   0  0  0  0  0  0  0  0  0  0  0  0
   24.5543  -19.4962   -8.9127 O   0  0  0  0  0  0  0  0  0  0  0  0
   17.4727  -23.0721   -6.9047 O   0  0  0  0  0  0  0  0  0  0  0  0
   18.8153  -22.8564   -7.2164 C   0  0  0  0  0  0  0  0  0  0  0  0
   19.8083  -23.7112   -6.7887 C   0  0  0  0  0  0  0  0  0  0  0  0
   21.1105  -23.4294   -7.1382 C   0  0  0  0  0  0  0  0  0  0  0  0
   21.4268  -22.3189   -7.8994 C   0  0  0  0  0  0  0  0  0  0  0  0
   22.8805  -22.1096   -8.2248 C   0  0  0  0  0  0  0  0  0  0  0  0
   23.5921  -21.4686   -7.0636 C   0  0  2  0  0  0  0  0  0  0  0  0
   24.9783  -21.1765   -7.3694 N   0  0  0  0  0  0  0  0  0  0  0  0
   23.5554  -22.3268   -5.8561 C   0  0  0  0  0  0  0  0  0  0  0  0
   24.2804  -23.3468   -5.7345 O   0  0  0  0  0  0  0  0  0  0  0  0
   20.4454  -21.4766   -8.3205 C   0  0  0  0  0  0  0  0  0  0  0  0
   19.1409  -21.7390   -7.9832 C   0  0  0  0  0  0  0  0  0  0  0  0
   22.7036  -22.0429   -4.7792 O   0  0  0  0  0  0  0  0  0  0  0  0
  2  1  1  6
  2  3  1  0
  4  3  1  0
  4  5  2  0
  6  5  1  0
  7  6  1  0
  8  7  2  0
  9  8  1  0
 10  9  2  0
 10 11  1  0
 11 12  2  0
 12  7  1  0
 12  4  1  0
 13  2  1  0
 13 14  2  0
 15 13  1  0
 16 17  1  1
 16 15  1  0
 18 17  1  0
 18 23  1  0
 19 18  2  0
 20 19  1  0
 20 21  2  0
 21 22  1  0
 22 23  2  0
 24 16  1  0
 25 24  2  0
 27 26  1  0
 27 28  2  0
 29 28  1  0
 30 29  2  0
 32 31  1  6
 31 30  1  0
 32 33  1  0
 33 24  1  0
 34 38  1  0
 34 32  1  0
 35 34  2  0
 36 37  2  0
 36 30  1  0
 37 27  1  0
M  END
$$$$
