WFY.pdb
     RDKit          3D

 38 41  0  0  1  0  0  0  0  0999 V2000
   27.0524  -21.8512  -18.6075 N   0  0  0  0  0  0  0  0  0  0  0  0
   26.5689  -20.7801  -17.7827 C   0  0  1  0  0  0  0  0  0  0  0  0
   25.3605  -20.0855  -18.3588 C   0  0  0  0  0  0  0  0  0  0  0  0
   25.7732  -19.3854  -19.6012 C   0  0  0  0  0  0  0  0  0  0  0  0
   25.6844  -19.9220  -20.8907 C   0  0  0  0  0  0  0  0  0  0  0  0
   26.1109  -19.0246  -21.7962 N   0  0  0  0  0  0  0  0  0  0  0  0
   26.4805  -17.9083  -21.1445 C   0  0  0  0  0  0  0  0  0  0  0  0
   26.9869  -16.7159  -21.6125 C   0  0  0  0  0  0  0  0  0  0  0  0
   27.2867  -15.7379  -20.6912 C   0  0  0  0  0  0  0  0  0  0  0  0
   27.1025  -15.9039  -19.3395 C   0  0  0  0  0  0  0  0  0  0  0  0
   26.5892  -17.1157  -18.8826 C   0  0  0  0  0  0  0  0  0  0  0  0
   26.2778  -18.1154  -19.7798 C   0  0  0  0  0  0  0  0  0  0  0  0
   26.3430  -21.2238  -16.3813 C   0  0  0  0  0  0  0  0  0  0  0  0
   25.9123  -22.3704  -16.1616 O   0  0  0  0  0  0  0  0  0  0  0  0
   26.6344  -20.3032  -15.3396 N   0  0  0  0  0  0  0  0  0  0  0  0
   26.1594  -20.6088  -14.0102 C   0  0  1  0  0  0  0  0  0  0  0  0
   27.1564  -20.0469  -12.9784 C   0  0  0  0  0  0  0  0  0  0  0  0
   26.6524  -20.2544  -11.6043 C   0  0  0  0  0  0  0  0  0  0  0  0
   25.9823  -19.2603  -10.9282 C   0  0  0  0  0  0  0  0  0  0  0  0
   25.5099  -19.4635   -9.6355 C   0  0  0  0  0  0  0  0  0  0  0  0
   25.6940  -20.6634   -8.9851 C   0  0  0  0  0  0  0  0  0  0  0  0
   26.3666  -21.6652   -9.6600 C   0  0  0  0  0  0  0  0  0  0  0  0
   26.8382  -21.4540  -10.9578 C   0  0  0  0  0  0  0  0  0  0  0  0
   24.9069  -19.8596  -13.7673 C   0  0  0  0  0  0  0  0  0  0  0  0
   24.7375  -18.7790  -14.3742 O   0  0  0  0  0  0  0  0  0  0  0  0
   16.8615  -21.9486  -15.6900 O   0  0  0  0  0  0  0  0  0  0  0  0
   18.2137  -21.8219  -15.3708 C   0  0  0  0  0  0  0  0  0  0  0  0
   18.8601  -22.7347  -14.5654 C   0  0  0  0  0  0  0  0  0  0  0  0
   20.1969  -22.5398  -14.2965 C   0  0  0  0  0  0  0  0  0  0  0  0
   20.8850  -21.4585  -14.8162 C   0  0  0  0  0  0  0  0  0  0  0  0
   22.3421  -21.3454  -14.4602 C   0  0  0  0  0  0  0  0  0  0  0  0
   22.5198  -20.4821  -13.2401 C   0  0  2  0  0  0  0  0  0  0  0  0
   23.9142  -20.3432  -12.8705 N   0  0  0  0  0  0  0  0  0  0  0  0
   21.7833  -21.0226  -12.0734 C   0  0  0  0  0  0  0  0  0  0  0  0
   22.1987  -22.0103  -11.4156 O   0  0  0  0  0  0  0  0  0  0  0  0
   20.2453  -20.5589  -15.6109 C   0  0  0  0  0  0  0  0  0  0  0  0
   18.9130  -20.7345  -15.8912 C   0  0  0  0  0  0  0  0  0  0  0  0
   20.5763  -20.4557  -11.6402 O   0  0  0  0  0  0  0  0  0  0  0  0
  2  1  1  6
  2  3  1  0
  4  3  1  0
  4  5  2  0
  6  5  1  0
  7  6  1  0
  8  7  2  0
  9  8  1  0
 10  9  2  0
 10 11  1  0
 11 12  2  0
 12  7  1  0
 12  4  1  0
 13  2  1  0
 13 14  2  0
 15 13  1  0
 16 17  1  1
 16 15  1  0
 18 17  1  0
 18 23  1  0
 19 18  2  0
 20 19  1  0
 20 21  2  0
 21 22  1  0
 22 23  2  0
 24 16  1  0
 25 24  2  0
 27 26  1  0
 27 28  2  0
 29 28  1  0
 30 29  2  0
 32 31  1  6
 31 30  1  0
 32 33  1  0
 33 24  1  0
 34 38  1  0
 34 32  1  0
 35 34  2  0
 36 37  2  0
 36 30  1  0
 37 27  1  0
M  END
$$$$
