WFY.pdb
     RDKit          3D

 38 41  0  0  1  0  0  0  0  0999 V2000
   19.7198  -12.5048  -17.2384 N   0  0  0  0  0  0  0  0  0  0  0  0
   19.8279  -11.0828  -17.4053 C   0  0  1  0  0  0  0  0  0  0  0  0
   18.5992  -10.4618  -18.0209 C   0  0  0  0  0  0  0  0  0  0  0  0
   18.4714  -10.9618  -19.4129 C   0  0  0  0  0  0  0  0  0  0  0  0
   17.7763  -12.1168  -19.7889 C   0  0  0  0  0  0  0  0  0  0  0  0
   17.8263  -12.2738  -21.1231 N   0  0  0  0  0  0  0  0  0  0  0  0
   18.5351  -11.2565  -21.6429 C   0  0  0  0  0  0  0  0  0  0  0  0
   18.8744  -10.9661  -22.9460 C   0  0  0  0  0  0  0  0  0  0  0  0
   19.6296   -9.8388  -23.1786 C   0  0  0  0  0  0  0  0  0  0  0  0
   20.0525   -9.0029  -22.1732 C   0  0  0  0  0  0  0  0  0  0  0  0
   19.7005   -9.3107  -20.8609 C   0  0  0  0  0  0  0  0  0  0  0  0
   18.9439  -10.4322  -20.5943 C   0  0  0  0  0  0  0  0  0  0  0  0
   20.2200  -10.4086  -16.1390 C   0  0  0  0  0  0  0  0  0  0  0  0
   19.6415  -10.7078  -15.0787 O   0  0  0  0  0  0  0  0  0  0  0  0
   21.2550   -9.4375  -16.1984 N   0  0  0  0  0  0  0  0  0  0  0  0
   21.5995   -8.7367  -14.9833 C   0  0  1  0  0  0  0  0  0  0  0  0
   23.1053   -8.9152  -14.7094 C   0  0  0  0  0  0  0  0  0  0  0  0
   23.8962   -8.5529  -15.9045 C   0  0  0  0  0  0  0  0  0  0  0  0
   24.2759   -7.2521  -16.1461 C   0  0  0  0  0  0  0  0  0  0  0  0
   25.0213   -6.9190  -17.2726 C   0  0  0  0  0  0  0  0  0  0  0  0
   25.4065   -7.8750  -18.1860 C   0  0  0  0  0  0  0  0  0  0  0  0
   25.0276   -9.1831  -17.9478 C   0  0  0  0  0  0  0  0  0  0  0  0
   24.2791   -9.5102  -16.8146 C   0  0  0  0  0  0  0  0  0  0  0  0
   21.4290   -7.2840  -15.2058 C   0  0  0  0  0  0  0  0  0  0  0  0
   21.3029   -6.8771  -16.3820 O   0  0  0  0  0  0  0  0  0  0  0  0
   17.2417   -5.9998   -9.4067 O   0  0  0  0  0  0  0  0  0  0  0  0
   17.8414   -5.6447  -10.6153 C   0  0  0  0  0  0  0  0  0  0  0  0
   18.3340   -4.3770  -10.8386 C   0  0  0  0  0  0  0  0  0  0  0  0
   18.9122   -4.1045  -12.0588 C   0  0  0  0  0  0  0  0  0  0  0  0
   19.0023   -5.0710  -13.0440 C   0  0  0  0  0  0  0  0  0  0  0  0
   19.6554   -4.6649  -14.3368 C   0  0  0  0  0  0  0  0  0  0  0  0
   21.1325   -4.9513  -14.2923 C   0  0  2  0  0  0  0  0  0  0  0  0
   21.4076   -6.3639  -14.1212 N   0  0  0  0  0  0  0  0  0  0  0  0
   21.8018   -4.2132  -13.1956 C   0  0  0  0  0  0  0  0  0  0  0  0
   22.4140   -4.7995  -12.2669 O   0  0  0  0  0  0  0  0  0  0  0  0
   18.5155   -6.3215  -12.8216 C   0  0  0  0  0  0  0  0  0  0  0  0
   17.9354   -6.6140  -11.6124 C   0  0  0  0  0  0  0  0  0  0  0  0
   21.7866   -2.8123  -13.1371 O   0  0  0  0  0  0  0  0  0  0  0  0
  2  1  1  1
  2  3  1  0
  4  3  1  0
  4  5  2  0
  6  5  1  0
  7  6  1  0
  8  7  2  0
  9  8  1  0
 10  9  2  0
 10 11  1  0
 11 12  2  0
 12  7  1  0
 12  4  1  0
 13  2  1  0
 13 14  2  0
 15 13  1  0
 16 17  1  6
 16 15  1  0
 18 17  1  0
 18 23  1  0
 19 18  2  0
 20 19  1  0
 20 21  2  0
 21 22  1  0
 22 23  2  0
 24 16  1  0
 25 24  2  0
 27 26  1  0
 27 28  2  0
 29 28  1  0
 30 29  2  0
 32 31  1  1
 31 30  1  0
 32 33  1  0
 33 24  1  0
 34 38  1  0
 34 32  1  0
 35 34  2  0
 36 37  2  0
 36 30  1  0
 37 27  1  0
M  END
$$$$
