WFY.pdb
     RDKit          3D

 38 41  0  0  1  0  0  0  0  0999 V2000
   27.1234  -21.7631  -16.7895 N   0  0  0  0  0  0  0  0  0  0  0  0
   26.9955  -20.7563  -15.7739 C   0  0  1  0  0  0  0  0  0  0  0  0
   26.1609  -19.5775  -16.2077 C   0  0  0  0  0  0  0  0  0  0  0  0
   26.8595  -18.8984  -17.3279 C   0  0  0  0  0  0  0  0  0  0  0  0
   26.2950  -18.6320  -18.5806 C   0  0  0  0  0  0  0  0  0  0  0  0
   27.1780  -17.9810  -19.3575 N   0  0  0  0  0  0  0  0  0  0  0  0
   28.3122  -17.8084  -18.6565 C   0  0  0  0  0  0  0  0  0  0  0  0
   29.5044  -17.2108  -19.0018 C   0  0  0  0  0  0  0  0  0  0  0  0
   30.5100  -17.1902  -18.0619 C   0  0  0  0  0  0  0  0  0  0  0  0
   30.3717  -17.7361  -16.8084 C   0  0  0  0  0  0  0  0  0  0  0  0
   29.1595  -18.3364  -16.4750 C   0  0  0  0  0  0  0  0  0  0  0  0
   28.1318  -18.3728  -17.3936 C   0  0  0  0  0  0  0  0  0  0  0  0
   26.5238  -21.3310  -14.4859 C   0  0  0  0  0  0  0  0  0  0  0  0
   25.6966  -22.2606  -14.4940 O   0  0  0  0  0  0  0  0  0  0  0  0
   27.0481  -20.7837  -13.2845 N   0  0  0  0  0  0  0  0  0  0  0  0
   26.3751  -21.0960  -12.0453 C   0  0  1  0  0  0  0  0  0  0  0  0
   27.2387  -20.6065  -10.8667 C   0  0  0  0  0  0  0  0  0  0  0  0
   26.4711  -20.6590   -9.6046 C   0  0  0  0  0  0  0  0  0  0  0  0
   26.0923  -21.8580   -9.0447 C   0  0  0  0  0  0  0  0  0  0  0  0
   25.3710  -21.8994   -7.8558 C   0  0  0  0  0  0  0  0  0  0  0  0
   25.0096  -20.7459   -7.1958 C   0  0  0  0  0  0  0  0  0  0  0  0
   25.3877  -19.5390   -7.7541 C   0  0  0  0  0  0  0  0  0  0  0  0
   26.1119  -19.5051   -8.9482 C   0  0  0  0  0  0  0  0  0  0  0  0
   25.1355  -20.2928  -11.9601 C   0  0  0  0  0  0  0  0  0  0  0  0
   25.2418  -19.0591  -11.7823 O   0  0  0  0  0  0  0  0  0  0  0  0
   21.4990  -21.0708  -18.0457 O   0  0  0  0  0  0  0  0  0  0  0  0
   21.7134  -20.5677  -16.7622 C   0  0  0  0  0  0  0  0  0  0  0  0
   20.6797  -20.3887  -15.8684 C   0  0  0  0  0  0  0  0  0  0  0  0
   20.9729  -19.8869  -14.6196 C   0  0  0  0  0  0  0  0  0  0  0  0
   22.2692  -19.5667  -14.2593 C   0  0  0  0  0  0  0  0  0  0  0  0
   22.4752  -19.0289  -12.8696 C   0  0  0  0  0  0  0  0  0  0  0  0
   22.6176  -20.1581  -11.8846 C   0  0  2  0  0  0  0  0  0  0  0  0
   23.8515  -20.8939  -12.0754 N   0  0  0  0  0  0  0  0  0  0  0  0
   21.4893  -21.1141  -11.9789 C   0  0  0  0  0  0  0  0  0  0  0  0
   21.6591  -22.3284  -12.2573 O   0  0  0  0  0  0  0  0  0  0  0  0
   23.2881  -19.7440  -15.1429 C   0  0  0  0  0  0  0  0  0  0  0  0
   23.0175  -20.2428  -16.3928 C   0  0  0  0  0  0  0  0  0  0  0  0
   20.1645  -20.7100  -11.7607 O   0  0  0  0  0  0  0  0  0  0  0  0
  2  1  1  6
  2  3  1  0
  4  3  1  0
  4  5  2  0
  6  5  1  0
  7  6  1  0
  8  7  2  0
  9  8  1  0
 10  9  2  0
 10 11  1  0
 11 12  2  0
 12  7  1  0
 12  4  1  0
 13  2  1  0
 13 14  2  0
 15 13  1  0
 16 17  1  1
 16 15  1  0
 18 17  1  0
 18 23  1  0
 19 18  2  0
 20 19  1  0
 20 21  2  0
 21 22  1  0
 22 23  2  0
 24 16  1  0
 25 24  2  0
 27 26  1  0
 27 28  2  0
 29 28  1  0
 30 29  2  0
 32 31  1  6
 31 30  1  0
 32 33  1  0
 33 24  1  0
 34 38  1  0
 34 32  1  0
 35 34  2  0
 36 37  2  0
 36 30  1  0
 37 27  1  0
M  END
$$$$
