WFY.pdb
     RDKit          3D

 38 41  0  0  1  0  0  0  0  0999 V2000
   28.1475  -21.1254  -15.4428 N   0  0  0  0  0  0  0  0  0  0  0  0
   27.0964  -20.6410  -14.5930 C   0  0  1  0  0  0  0  0  0  0  0  0
   25.9791  -19.9712  -15.3529 C   0  0  0  0  0  0  0  0  0  0  0  0
   26.5466  -18.8191  -16.0976 C   0  0  0  0  0  0  0  0  0  0  0  0
   26.9232  -18.8430  -17.4454 C   0  0  0  0  0  0  0  0  0  0  0  0
   27.3712  -17.6330  -17.8226 N   0  0  0  0  0  0  0  0  0  0  0  0
   27.3032  -16.8073  -16.7639 C   0  0  0  0  0  0  0  0  0  0  0  0
   27.6458  -15.4796  -16.6314 C   0  0  0  0  0  0  0  0  0  0  0  0
   27.4702  -14.8892  -15.4002 C   0  0  0  0  0  0  0  0  0  0  0  0
   26.9726  -15.5653  -14.3122 C   0  0  0  0  0  0  0  0  0  0  0  0
   26.6307  -16.9074  -14.4631 C   0  0  0  0  0  0  0  0  0  0  0  0
   26.7936  -17.5280  -15.6836 C   0  0  0  0  0  0  0  0  0  0  0  0
   26.5937  -21.7022  -13.6804 C   0  0  0  0  0  0  0  0  0  0  0  0
   26.2964  -22.8191  -14.1415 O   0  0  0  0  0  0  0  0  0  0  0  0
   26.4742  -21.3875  -12.3004 N   0  0  0  0  0  0  0  0  0  0  0  0
   25.3179  -21.8804  -11.5889 C   0  0  1  0  0  0  0  0  0  0  0  0
   25.7411  -22.2928  -10.1658 C   0  0  0  0  0  0  0  0  0  0  0  0
   26.7172  -21.3288   -9.6154 C   0  0  0  0  0  0  0  0  0  0  0  0
   26.3387  -20.3609   -8.7129 C   0  0  0  0  0  0  0  0  0  0  0  0
   27.2634  -19.4578   -8.1982 C   0  0  0  0  0  0  0  0  0  0  0  0
   28.5886  -19.4977   -8.5710 C   0  0  0  0  0  0  0  0  0  0  0  0
   28.9738  -20.4680   -9.4773 C   0  0  0  0  0  0  0  0  0  0  0  0
   28.0398  -21.3715   -9.9899 C   0  0  0  0  0  0  0  0  0  0  0  0
   24.3692  -20.7629  -11.3884 C   0  0  0  0  0  0  0  0  0  0  0  0
   24.8349  -19.6107  -11.2463 O   0  0  0  0  0  0  0  0  0  0  0  0
   18.9316  -18.4151  -17.4746 O   0  0  0  0  0  0  0  0  0  0  0  0
   19.8238  -18.9710  -16.5575 C   0  0  0  0  0  0  0  0  0  0  0  0
   21.0071  -18.3481  -16.2238 C   0  0  0  0  0  0  0  0  0  0  0  0
   21.8350  -18.9614  -15.3096 C   0  0  0  0  0  0  0  0  0  0  0  0
   21.4983  -20.1727  -14.7334 C   0  0  0  0  0  0  0  0  0  0  0  0
   22.4748  -20.7504  -13.7457 C   0  0  0  0  0  0  0  0  0  0  0  0
   22.0578  -20.4178  -12.3382 C   0  0  2  0  0  0  0  0  0  0  0  0
   22.9635  -20.9787  -11.3557 N   0  0  0  0  0  0  0  0  0  0  0  0
   20.6912  -20.9073  -12.0406 C   0  0  0  0  0  0  0  0  0  0  0  0
   20.4461  -22.1199  -11.8157 O   0  0  0  0  0  0  0  0  0  0  0  0
   20.3301  -20.7859  -15.0641 C   0  0  0  0  0  0  0  0  0  0  0  0
   19.4906  -20.1917  -15.9733 C   0  0  0  0  0  0  0  0  0  0  0  0
   19.5932  -20.0366  -11.9943 O   0  0  0  0  0  0  0  0  0  0  0  0
  2  1  1  6
  2  3  1  0
  4  3  1  0
  4  5  2  0
  6  5  1  0
  7  6  1  0
  8  7  2  0
  9  8  1  0
 10  9  2  0
 10 11  1  0
 11 12  2  0
 12  7  1  0
 12  4  1  0
 13  2  1  0
 13 14  2  0
 15 13  1  0
 16 17  1  1
 16 15  1  0
 18 17  1  0
 18 23  1  0
 19 18  2  0
 20 19  1  0
 20 21  2  0
 21 22  1  0
 22 23  2  0
 24 16  1  0
 25 24  2  0
 27 26  1  0
 27 28  2  0
 29 28  1  0
 30 29  2  0
 32 31  1  6
 31 30  1  0
 32 33  1  0
 33 24  1  0
 34 38  1  0
 34 32  1  0
 35 34  2  0
 36 37  2  0
 36 30  1  0
 37 27  1  0
M  END
$$$$
