WFY.pdb
     RDKit          3D

 38 41  0  0  1  0  0  0  0  0999 V2000
   26.9893  -21.7359  -20.5049 N   0  0  0  0  0  0  0  0  0  0  0  0
   26.4814  -20.4776  -20.0357 C   0  0  1  0  0  0  0  0  0  0  0  0
   25.6119  -19.7736  -21.0471 C   0  0  0  0  0  0  0  0  0  0  0  0
   26.3946  -19.6032  -22.2970 C   0  0  0  0  0  0  0  0  0  0  0  0
   26.2221  -20.3619  -23.4603 C   0  0  0  0  0  0  0  0  0  0  0  0
   27.0647  -19.9387  -24.4185 N   0  0  0  0  0  0  0  0  0  0  0  0
   27.7915  -18.9214  -23.9241 C   0  0  0  0  0  0  0  0  0  0  0  0
   28.7839  -18.1584  -24.4990 C   0  0  0  0  0  0  0  0  0  0  0  0
   29.3643  -17.1733  -23.7323 C   0  0  0  0  0  0  0  0  0  0  0  0
   28.9961  -16.9254  -22.4317 C   0  0  0  0  0  0  0  0  0  0  0  0
   27.9907  -17.7059  -21.8653 C   0  0  0  0  0  0  0  0  0  0  0  0
   27.3885  -18.7002  -22.6070 C   0  0  0  0  0  0  0  0  0  0  0  0
   25.8069  -20.6136  -18.7173 C   0  0  0  0  0  0  0  0  0  0  0  0
   25.3329  -21.7136  -18.3802 O   0  0  0  0  0  0  0  0  0  0  0  0
   25.7336  -19.4623  -17.8886 N   0  0  0  0  0  0  0  0  0  0  0  0
   25.0239  -19.5715  -16.6353 C   0  0  1  0  0  0  0  0  0  0  0  0
   25.8856  -18.9587  -15.5144 C   0  0  0  0  0  0  0  0  0  0  0  0
   26.4724  -17.6753  -15.9543 C   0  0  0  0  0  0  0  0  0  0  0  0
   27.5301  -17.6343  -16.8342 C   0  0  0  0  0  0  0  0  0  0  0  0
   28.0763  -16.4224  -17.2447 C   0  0  0  0  0  0  0  0  0  0  0  0
   27.5809  -15.2213  -16.7878 C   0  0  0  0  0  0  0  0  0  0  0  0
   26.5186  -15.2571  -15.9038 C   0  0  0  0  0  0  0  0  0  0  0  0
   25.9753  -16.4777  -15.4960 C   0  0  0  0  0  0  0  0  0  0  0  0
   23.8195  -18.7141  -16.6929 C   0  0  0  0  0  0  0  0  0  0  0  0
   23.8343  -17.7251  -17.4587 O   0  0  0  0  0  0  0  0  0  0  0  0
   18.5151  -23.7684  -16.1863 O   0  0  0  0  0  0  0  0  0  0  0  0
   19.0360  -22.4939  -16.4114 C   0  0  0  0  0  0  0  0  0  0  0  0
   20.1676  -22.2940  -17.1724 C   0  0  0  0  0  0  0  0  0  0  0  0
   20.6194  -21.0046  -17.3482 C   0  0  0  0  0  0  0  0  0  0  0  0
   19.9622  -19.9284  -16.7801 C   0  0  0  0  0  0  0  0  0  0  0  0
   20.5413  -18.5645  -17.0396 C   0  0  0  0  0  0  0  0  0  0  0  0
   21.4776  -18.1709  -15.9288 C   0  0  2  0  0  0  0  0  0  0  0  0
   22.6694  -18.9950  -15.9044 N   0  0  0  0  0  0  0  0  0  0  0  0
   20.8242  -18.2625  -14.6019 C   0  0  0  0  0  0  0  0  0  0  0  0
   21.3159  -18.9283  -13.6555 O   0  0  0  0  0  0  0  0  0  0  0  0
   18.8456  -20.1278  -16.0294 C   0  0  0  0  0  0  0  0  0  0  0  0
   18.3786  -21.4049  -15.8417 C   0  0  0  0  0  0  0  0  0  0  0  0
   19.6148  -17.6062  -14.3322 O   0  0  0  0  0  0  0  0  0  0  0  0
  2  1  1  6
  2  3  1  0
  4  3  1  0
  4  5  2  0
  6  5  1  0
  7  6  1  0
  8  7  2  0
  9  8  1  0
 10  9  2  0
 10 11  1  0
 11 12  2  0
 12  7  1  0
 12  4  1  0
 13  2  1  0
 13 14  2  0
 15 13  1  0
 16 17  1  1
 16 15  1  0
 18 17  1  0
 18 23  1  0
 19 18  2  0
 20 19  1  0
 20 21  2  0
 21 22  1  0
 22 23  2  0
 24 16  1  0
 25 24  2  0
 27 26  1  0
 27 28  2  0
 29 28  1  0
 30 29  2  0
 32 31  1  6
 31 30  1  0
 32 33  1  0
 33 24  1  0
 34 38  1  0
 34 32  1  0
 35 34  2  0
 36 37  2  0
 36 30  1  0
 37 27  1  0
M  END
$$$$
