WFY.pdb
     RDKit          3D

 38 41  0  0  1  0  0  0  0  0999 V2000
   27.2931  -21.4837  -18.2447 N   0  0  0  0  0  0  0  0  0  0  0  0
   26.6661  -20.6256  -17.2793 C   0  0  1  0  0  0  0  0  0  0  0  0
   25.2081  -20.3711  -17.5689 C   0  0  0  0  0  0  0  0  0  0  0  0
   25.1174  -19.3774  -18.6681 C   0  0  0  0  0  0  0  0  0  0  0  0
   24.7626  -19.6737  -19.9891 C   0  0  0  0  0  0  0  0  0  0  0  0
   24.7455  -18.5502  -20.7271 N   0  0  0  0  0  0  0  0  0  0  0  0
   25.0793  -17.5173  -19.9340 C   0  0  0  0  0  0  0  0  0  0  0  0
   25.2092  -16.1737  -20.2087 C   0  0  0  0  0  0  0  0  0  0  0  0
   25.5788  -15.3388  -19.1784 C   0  0  0  0  0  0  0  0  0  0  0  0
   25.8201  -15.7889  -17.9027 C   0  0  0  0  0  0  0  0  0  0  0  0
   25.6840  -17.1506  -17.6415 C   0  0  0  0  0  0  0  0  0  0  0  0
   25.3142  -18.0134  -18.6514 C   0  0  0  0  0  0  0  0  0  0  0  0
   26.8837  -21.1093  -15.8899 C   0  0  0  0  0  0  0  0  0  0  0  0
   26.9159  -22.3323  -15.6629 O   0  0  0  0  0  0  0  0  0  0  0  0
   27.0481  -20.1366  -14.8678 N   0  0  0  0  0  0  0  0  0  0  0  0
   27.1746  -20.5980  -13.5050 C   0  0  1  0  0  0  0  0  0  0  0  0
   28.1435  -19.6696  -12.7476 C   0  0  0  0  0  0  0  0  0  0  0  0
   28.2617  -20.0857  -11.3341 C   0  0  0  0  0  0  0  0  0  0  0  0
   29.1674  -21.0452  -10.9422 C   0  0  0  0  0  0  0  0  0  0  0  0
   29.2738  -21.4308   -9.6097 C   0  0  0  0  0  0  0  0  0  0  0  0
   28.4795  -20.8688   -8.6350 C   0  0  0  0  0  0  0  0  0  0  0  0
   27.5681  -19.9046   -9.0236 C   0  0  0  0  0  0  0  0  0  0  0  0
   27.4668  -19.5225  -10.3634 C   0  0  0  0  0  0  0  0  0  0  0  0
   25.8752  -20.4227  -12.8196 C   0  0  0  0  0  0  0  0  0  0  0  0
   25.2394  -19.3642  -13.0200 O   0  0  0  0  0  0  0  0  0  0  0  0
   20.4857  -19.3232  -16.1428 O   0  0  0  0  0  0  0  0  0  0  0  0
   21.2086  -19.4776  -14.9596 C   0  0  0  0  0  0  0  0  0  0  0  0
   20.6315  -19.9835  -13.8148 C   0  0  0  0  0  0  0  0  0  0  0  0
   21.4122  -20.1054  -12.6865 C   0  0  0  0  0  0  0  0  0  0  0  0
   22.7440  -19.7326  -12.6896 C   0  0  0  0  0  0  0  0  0  0  0  0
   23.5028  -19.9114  -11.4031 C   0  0  0  0  0  0  0  0  0  0  0  0
   24.0581  -21.3073  -11.3098 C   0  0  2  0  0  0  0  0  0  0  0  0
   25.3514  -21.4222  -11.9535 N   0  0  0  0  0  0  0  0  0  0  0  0
   23.1465  -22.3025  -11.9216 C   0  0  0  0  0  0  0  0  0  0  0  0
   21.9288  -22.0631  -12.1238 O   0  0  0  0  0  0  0  0  0  0  0  0
   23.3117  -19.2336  -13.8204 C   0  0  0  0  0  0  0  0  0  0  0  0
   22.5512  -19.1038  -14.9559 C   0  0  0  0  0  0  0  0  0  0  0  0
   23.5988  -23.5718  -12.3092 O   0  0  0  0  0  0  0  0  0  0  0  0
  2  1  1  6
  2  3  1  0
  4  3  1  0
  4  5  2  0
  6  5  1  0
  7  6  1  0
  8  7  2  0
  9  8  1  0
 10  9  2  0
 10 11  1  0
 11 12  2  0
 12  7  1  0
 12  4  1  0
 13  2  1  0
 13 14  2  0
 15 13  1  0
 16 17  1  1
 16 15  1  0
 18 17  1  0
 18 23  1  0
 19 18  2  0
 20 19  1  0
 20 21  2  0
 21 22  1  0
 22 23  2  0
 24 16  1  0
 25 24  2  0
 27 26  1  0
 27 28  2  0
 29 28  1  0
 30 29  2  0
 32 31  1  6
 31 30  1  0
 32 33  1  0
 33 24  1  0
 34 38  1  0
 34 32  1  0
 35 34  2  0
 36 37  2  0
 36 30  1  0
 37 27  1  0
M  END
$$$$
