WFY.pdb
     RDKit          3D

 38 41  0  0  1  0  0  0  0  0999 V2000
   26.3562  -18.5453  -18.8882 N   0  0  0  0  0  0  0  0  0  0  0  0
   25.0924  -19.0930  -19.2935 C   0  0  1  0  0  0  0  0  0  0  0  0
   25.2116  -20.4564  -19.9270 C   0  0  0  0  0  0  0  0  0  0  0  0
   25.7319  -20.2858  -21.3069 C   0  0  0  0  0  0  0  0  0  0  0  0
   27.0438  -19.9202  -21.6292 C   0  0  0  0  0  0  0  0  0  0  0  0
   27.1992  -19.8815  -22.9639 N   0  0  0  0  0  0  0  0  0  0  0  0
   26.0281  -20.2104  -23.5363 C   0  0  0  0  0  0  0  0  0  0  0  0
   25.6680  -20.3096  -24.8623 C   0  0  0  0  0  0  0  0  0  0  0  0
   24.3701  -20.6655  -25.1520 C   0  0  0  0  0  0  0  0  0  0  0  0
   23.4319  -20.9222  -24.1812 C   0  0  0  0  0  0  0  0  0  0  0  0
   23.8123  -20.8177  -22.8451 C   0  0  0  0  0  0  0  0  0  0  0  0
   25.1052  -20.4642  -22.5213 C   0  0  0  0  0  0  0  0  0  0  0  0
   24.1044  -19.0778  -18.1820 C   0  0  0  0  0  0  0  0  0  0  0  0
   24.4532  -19.4426  -17.0447 O   0  0  0  0  0  0  0  0  0  0  0  0
   22.7852  -18.6396  -18.4741 N   0  0  0  0  0  0  0  0  0  0  0  0
   21.8110  -18.6597  -17.4079 C   0  0  1  0  0  0  0  0  0  0  0  0
   21.6699  -17.2388  -16.8287 C   0  0  0  0  0  0  0  0  0  0  0  0
   21.5068  -16.2499  -17.9152 C   0  0  0  0  0  0  0  0  0  0  0  0
   20.2761  -15.9989  -18.4780 C   0  0  0  0  0  0  0  0  0  0  0  0
   20.1303  -15.0657  -19.4994 C   0  0  0  0  0  0  0  0  0  0  0  0
   21.2085  -14.3595  -19.9848 C   0  0  0  0  0  0  0  0  0  0  0  0
   22.4469  -14.6081  -19.4228 C   0  0  0  0  0  0  0  0  0  0  0  0
   22.5858  -15.5465  -18.3975 C   0  0  0  0  0  0  0  0  0  0  0  0
   20.4818  -18.9637  -17.9821 C   0  0  0  0  0  0  0  0  0  0  0  0
   20.3007  -18.7465  -19.2006 O   0  0  0  0  0  0  0  0  0  0  0  0
   18.6108  -24.2833  -13.1524 O   0  0  0  0  0  0  0  0  0  0  0  0
   18.5218  -23.5742  -14.3506 C   0  0  0  0  0  0  0  0  0  0  0  0
   19.6363  -23.2769  -15.1051 C   0  0  0  0  0  0  0  0  0  0  0  0
   19.4654  -22.5730  -16.2767 C   0  0  0  0  0  0  0  0  0  0  0  0
   18.2113  -22.1687  -16.6966 C   0  0  0  0  0  0  0  0  0  0  0  0
   18.1408  -21.4085  -17.9927 C   0  0  0  0  0  0  0  0  0  0  0  0
   18.1630  -19.9258  -17.7344 C   0  0  2  0  0  0  0  0  0  0  0  0
   19.4294  -19.4888  -17.1819 N   0  0  0  0  0  0  0  0  0  0  0  0
   17.0855  -19.5147  -16.8039 C   0  0  0  0  0  0  0  0  0  0  0  0
   17.3232  -18.9231  -15.7202 O   0  0  0  0  0  0  0  0  0  0  0  0
   17.1127  -22.4631  -15.9506 C   0  0  0  0  0  0  0  0  0  0  0  0
   17.2608  -23.1638  -14.7795 C   0  0  0  0  0  0  0  0  0  0  0  0
   15.7354  -19.7665  -17.0867 O   0  0  0  0  0  0  0  0  0  0  0  0
  2  1  1  1
  2  3  1  0
  4  3  1  0
  4  5  2  0
  6  5  1  0
  7  6  1  0
  8  7  2  0
  9  8  1  0
 10  9  2  0
 10 11  1  0
 11 12  2  0
 12  7  1  0
 12  4  1  0
 13  2  1  0
 13 14  2  0
 15 13  1  0
 16 17  1  6
 16 15  1  0
 18 17  1  0
 18 23  1  0
 19 18  2  0
 20 19  1  0
 20 21  2  0
 21 22  1  0
 22 23  2  0
 24 16  1  0
 25 24  2  0
 27 26  1  0
 27 28  2  0
 29 28  1  0
 30 29  2  0
 32 31  1  1
 31 30  1  0
 32 33  1  0
 33 24  1  0
 34 38  1  0
 34 32  1  0
 35 34  2  0
 36 37  2  0
 36 30  1  0
 37 27  1  0
M  END
$$$$
