PSP.pdb
     RDKit          3D

 21 22  0  0  1  0  0  0  0  0999 V2000
    3.6756  -19.2769   20.1242 N   0  0  0  0  0  0  0  0  0  0  0  0
    2.4254  -19.8358   20.5748 C   0  0  0  0  0  0  0  0  0  0  0  0
    2.5471  -19.7598   22.0691 C   0  0  0  0  0  0  0  0  0  0  0  0
    3.3768  -18.4874   22.2601 C   0  0  0  0  0  0  0  0  0  0  0  0
    3.7765  -18.0548   20.8805 C   0  0  1  0  0  0  0  0  0  0  0  0
    5.1470  -17.4743   20.8316 C   0  0  0  0  0  0  0  0  0  0  0  0
    6.0612  -18.2268   20.4564 O   0  0  0  0  0  0  0  0  0  0  0  0
    7.7820  -13.3552   21.2843 O   0  0  0  0  0  0  0  0  0  0  0  0
    6.6245  -14.0500   21.2126 C   0  0  0  0  0  0  0  0  0  0  0  0
    6.7324  -15.5611   21.2510 C   0  0  2  0  0  0  0  0  0  0  0  0
    5.3674  -16.1222   21.2023 N   0  0  0  0  0  0  0  0  0  0  0  0
    7.4650  -16.0993   22.3987 C   0  0  0  0  0  0  0  0  0  0  0  0
    6.7348  -16.4286   23.4116 O   0  0  0  0  0  0  0  0  0  0  0  0
    8.8742  -16.2974   22.5080 N   0  0  0  0  0  0  0  0  0  0  0  0
    9.8189  -16.0762   21.4421 C   0  0  0  0  0  0  0  0  0  0  0  0
   10.9226  -17.1215   21.7500 C   0  0  0  0  0  0  0  0  0  0  0  0
   11.0215  -16.8890   23.2434 C   0  0  0  0  0  0  0  0  0  0  0  0
    9.6000  -16.7601   23.6593 C   0  0  1  0  0  0  0  0  0  0  0  0
    9.4127  -15.8837   24.8396 C   0  0  0  0  0  0  0  0  0  0  0  0
    9.3839  -16.4854   26.0839 O   0  0  0  0  0  0  0  0  0  0  0  0
    9.2824  -14.6506   24.7588 O   0  0  0  0  0  0  0  0  0  0  0  0
  2  1  1  0
  3  2  1  0
  4  3  1  0
  4  5  1  0
  5  1  1  0
  6 11  1  0
  5  6  1  1
  7  6  2  0
  9  8  1  0
 10  9  1  1
 10 11  1  0
 10 12  1  0
 12 13  2  0
 14 12  1  0
 14 15  1  0
 16 15  1  0
 17 16  1  0
 18 17  1  0
 18 14  1  0
 18 19  1  1
 19 20  1  0
 21 19  2  0
M  END
$$$$
