PSP.pdb
     RDKit          3D

 21 22  0  0  1  0  0  0  0  0999 V2000
    8.8670  -15.0689   19.8564 N   0  0  0  0  0  0  0  0  0  0  0  0
    9.0936  -14.7539   18.4680 C   0  0  0  0  0  0  0  0  0  0  0  0
    7.8344  -14.0342   18.0809 C   0  0  0  0  0  0  0  0  0  0  0  0
    7.4622  -13.3155   19.3804 C   0  0  0  0  0  0  0  0  0  0  0  0
    8.4357  -13.8101   20.4089 C   0  0  1  0  0  0  0  0  0  0  0  0
    7.8219  -13.9679   21.7565 C   0  0  0  0  0  0  0  0  0  0  0  0
    7.2779  -12.9640   22.2454 O   0  0  0  0  0  0  0  0  0  0  0  0
    6.3931  -17.2915   25.0679 O   0  0  0  0  0  0  0  0  0  0  0  0
    6.8803  -16.8918   23.8718 C   0  0  0  0  0  0  0  0  0  0  0  0
    7.1854  -15.4154   23.7184 C   0  0  2  0  0  0  0  0  0  0  0  0
    7.8717  -15.2183   22.4259 N   0  0  0  0  0  0  0  0  0  0  0  0
    7.9696  -14.8301   24.8074 C   0  0  0  0  0  0  0  0  0  0  0  0
    9.2084  -15.1926   24.8491 O   0  0  0  0  0  0  0  0  0  0  0  0
    7.5152  -13.9150   25.8040 N   0  0  0  0  0  0  0  0  0  0  0  0
    6.2132  -13.2969   25.8176 C   0  0  0  0  0  0  0  0  0  0  0  0
    6.4976  -11.9311   26.4954 C   0  0  0  0  0  0  0  0  0  0  0  0
    7.3821  -12.4334   27.6175 C   0  0  0  0  0  0  0  0  0  0  0  0
    8.2510  -13.4319   26.9405 C   0  0  1  0  0  0  0  0  0  0  0  0
    8.6947  -14.5253   27.8372 C   0  0  0  0  0  0  0  0  0  0  0  0
    9.6653  -14.2277   28.7755 O   0  0  0  0  0  0  0  0  0  0  0  0
    8.2382  -15.6796   27.7816 O   0  0  0  0  0  0  0  0  0  0  0  0
  2  1  1  0
  3  2  1  0
  4  3  1  0
  4  5  1  0
  5  1  1  0
  6 11  1  0
  5  6  1  1
  7  6  2  0
  9  8  1  0
 10  9  1  1
 10 11  1  0
 10 12  1  0
 12 13  2  0
 14 12  1  0
 14 15  1  0
 16 15  1  0
 17 16  1  0
 18 17  1  0
 18 14  1  0
 18 19  1  1
 19 20  1  0
 21 19  2  0
M  END
$$$$
