PSP.pdb
     RDKit          3D

 21 22  0  0  1  0  0  0  0  0999 V2000
    8.5083  -15.4524   20.3723 N   0  0  0  0  0  0  0  0  0  0  0  0
    8.5139  -15.1428   18.9643 C   0  0  0  0  0  0  0  0  0  0  0  0
    7.4772  -14.0625   18.8577 C   0  0  0  0  0  0  0  0  0  0  0  0
    7.6280  -13.3383   20.1980 C   0  0  0  0  0  0  0  0  0  0  0  0
    8.6056  -14.1547   20.9906 C   0  0  1  0  0  0  0  0  0  0  0  0
    8.2787  -14.1975   22.4428 C   0  0  0  0  0  0  0  0  0  0  0  0
    8.3127  -13.1183   23.0569 O   0  0  0  0  0  0  0  0  0  0  0  0
    7.2238  -17.8837   24.7407 O   0  0  0  0  0  0  0  0  0  0  0  0
    6.6765  -16.6475   24.7326 C   0  0  0  0  0  0  0  0  0  0  0  0
    7.6216  -15.4845   24.5072 C   0  0  2  0  0  0  0  0  0  0  0  0
    7.9477  -15.4278   23.0681 N   0  0  0  0  0  0  0  0  0  0  0  0
    8.8471  -15.5202   25.3074 C   0  0  0  0  0  0  0  0  0  0  0  0
    9.7887  -16.2688   24.8377 O   0  0  0  0  0  0  0  0  0  0  0  0
    9.1036  -14.8224   26.5258 N   0  0  0  0  0  0  0  0  0  0  0  0
    8.2775  -13.7672   27.0564 C   0  0  0  0  0  0  0  0  0  0  0  0
    9.3061  -12.8816   27.8069 C   0  0  0  0  0  0  0  0  0  0  0  0
   10.0798  -13.9903   28.4895 C   0  0  0  0  0  0  0  0  0  0  0  0
   10.2107  -15.0167   27.4219 C   0  0  1  0  0  0  0  0  0  0  0  0
   10.2817  -16.4010   27.9463 C   0  0  0  0  0  0  0  0  0  0  0  0
   11.4139  -16.7585   28.6544 O   0  0  0  0  0  0  0  0  0  0  0  0
    9.3807  -17.2401   27.7788 O   0  0  0  0  0  0  0  0  0  0  0  0
  2  1  1  0
  3  2  1  0
  4  3  1  0
  4  5  1  0
  5  1  1  0
  6 11  1  0
  5  6  1  1
  7  6  2  0
  9  8  1  0
 10  9  1  6
 10 11  1  0
 10 12  1  0
 12 13  2  0
 14 12  1  0
 14 15  1  0
 16 15  1  0
 17 16  1  0
 18 17  1  0
 18 14  1  0
 18 19  1  1
 19 20  1  0
 21 19  2  0
M  END
$$$$
