PSP.pdb
     RDKit          3D

 21 22  0  0  1  0  0  0  0  0999 V2000
    7.5642  -15.0972   19.0542 N   0  0  0  0  0  0  0  0  0  0  0  0
    8.3358  -14.4722   18.0090 C   0  0  0  0  0  0  0  0  0  0  0  0
    8.4030  -13.0408   18.4565 C   0  0  0  0  0  0  0  0  0  0  0  0
    8.4271  -13.1811   19.9808 C   0  0  0  0  0  0  0  0  0  0  0  0
    8.2149  -14.6404   20.2557 C   0  0  1  0  0  0  0  0  0  0  0  0
    7.3891  -14.8852   21.4706 C   0  0  0  0  0  0  0  0  0  0  0  0
    6.1561  -14.8327   21.3300 O   0  0  0  0  0  0  0  0  0  0  0  0
    7.7439  -17.5290   24.4294 O   0  0  0  0  0  0  0  0  0  0  0  0
    6.7738  -16.6121   24.2150 C   0  0  0  0  0  0  0  0  0  0  0  0
    7.2251  -15.1868   23.9670 C   0  0  2  0  0  0  0  0  0  0  0  0
    8.0099  -15.1628   22.7163 N   0  0  0  0  0  0  0  0  0  0  0  0
    7.9878  -14.5811   25.0601 C   0  0  0  0  0  0  0  0  0  0  0  0
    9.2613  -14.7920   25.0246 O   0  0  0  0  0  0  0  0  0  0  0  0
    7.4783  -13.7934   26.1358 N   0  0  0  0  0  0  0  0  0  0  0  0
    6.1163  -13.3341   26.2430 C   0  0  0  0  0  0  0  0  0  0  0  0
    6.2740  -11.9924   27.0049 C   0  0  0  0  0  0  0  0  0  0  0  0
    7.2608  -12.4611   28.0540 C   0  0  0  0  0  0  0  0  0  0  0  0
    8.2058  -13.3041   27.2750 C   0  0  1  0  0  0  0  0  0  0  0  0
    8.8121  -14.3950   28.0740 C   0  0  0  0  0  0  0  0  0  0  0  0
    9.7521  -14.0439   29.0249 O   0  0  0  0  0  0  0  0  0  0  0  0
    8.5157  -15.5928   27.9273 O   0  0  0  0  0  0  0  0  0  0  0  0
  2  1  1  0
  3  2  1  0
  4  3  1  0
  4  5  1  0
  5  1  1  0
  6 11  1  0
  5  6  1  1
  7  6  2  0
  9  8  1  0
 10  9  1  1
 10 11  1  0
 10 12  1  0
 12 13  2  0
 14 12  1  0
 14 15  1  0
 16 15  1  0
 17 16  1  0
 18 17  1  0
 18 14  1  0
 18 19  1  1
 19 20  1  0
 21 19  2  0
M  END
$$$$
