PSP.pdb
     RDKit          3D

 21 22  0  0  1  0  0  0  0  0999 V2000
    7.5838  -14.9900   19.0153 N   0  0  0  0  0  0  0  0  0  0  0  0
    8.3823  -14.3489   18.0005 C   0  0  0  0  0  0  0  0  0  0  0  0
    8.5455  -12.9564   18.5368 C   0  0  0  0  0  0  0  0  0  0  0  0
    8.5772  -13.1956   20.0486 C   0  0  0  0  0  0  0  0  0  0  0  0
    8.2754  -14.6533   20.2335 C   0  0  1  0  0  0  0  0  0  0  0  0
    7.4490  -14.9232   21.4426 C   0  0  0  0  0  0  0  0  0  0  0  0
    6.2163  -14.8585   21.3047 O   0  0  0  0  0  0  0  0  0  0  0  0
    7.9191  -17.5430   24.5156 O   0  0  0  0  0  0  0  0  0  0  0  0
    6.9088  -16.6894   24.2355 C   0  0  0  0  0  0  0  0  0  0  0  0
    7.2918  -15.2541   23.9357 C   0  0  2  0  0  0  0  0  0  0  0  0
    8.0689  -15.2369   22.6802 N   0  0  0  0  0  0  0  0  0  0  0  0
    8.0303  -14.5759   25.0026 C   0  0  0  0  0  0  0  0  0  0  0  0
    9.3097  -14.7501   24.9820 O   0  0  0  0  0  0  0  0  0  0  0  0
    7.4919  -13.7549   26.0386 N   0  0  0  0  0  0  0  0  0  0  0  0
    6.1022  -13.3920   26.1591 C   0  0  0  0  0  0  0  0  0  0  0  0
    6.1776  -11.9922   26.8227 C   0  0  0  0  0  0  0  0  0  0  0  0
    7.2261  -12.3114   27.8681 C   0  0  0  0  0  0  0  0  0  0  0  0
    8.2110  -13.1341   27.1175 C   0  0  1  0  0  0  0  0  0  0  0  0
    8.9209  -14.1182   27.9683 C   0  0  0  0  0  0  0  0  0  0  0  0
    9.8807  -13.6356   28.8382 O   0  0  0  0  0  0  0  0  0  0  0  0
    8.6931  -15.3392   27.9328 O   0  0  0  0  0  0  0  0  0  0  0  0
  2  1  1  0
  3  2  1  0
  4  3  1  0
  4  5  1  0
  5  1  1  0
  6 11  1  0
  5  6  1  1
  7  6  2  0
  9  8  1  0
 10  9  1  1
 10 11  1  0
 10 12  1  0
 12 13  2  0
 14 12  1  0
 14 15  1  0
 16 15  1  0
 17 16  1  0
 18 17  1  0
 18 14  1  0
 18 19  1  1
 19 20  1  0
 21 19  2  0
M  END
$$$$
