PSP.pdb
     RDKit          3D

 21 22  0  0  1  0  0  0  0  0999 V2000
    7.7636  -15.2014   18.8838 N   0  0  0  0  0  0  0  0  0  0  0  0
    8.3840  -14.4707   17.8071 C   0  0  0  0  0  0  0  0  0  0  0  0
    8.0738  -13.0432   18.1525 C   0  0  0  0  0  0  0  0  0  0  0  0
    8.0857  -13.0726   19.6831 C   0  0  0  0  0  0  0  0  0  0  0  0
    8.2407  -14.5167   20.0583 C   0  0  1  0  0  0  0  0  0  0  0  0
    7.4666  -14.8832   21.2766 C   0  0  0  0  0  0  0  0  0  0  0  0
    6.3914  -15.4791   21.0991 O   0  0  0  0  0  0  0  0  0  0  0  0
    6.6535  -17.0961   24.8556 O   0  0  0  0  0  0  0  0  0  0  0  0
    7.0491  -16.4824   23.7178 C   0  0  0  0  0  0  0  0  0  0  0  0
    7.2431  -14.9809   23.7846 C   0  0  2  0  0  0  0  0  0  0  0  0
    7.9596  -14.5539   22.5661 N   0  0  0  0  0  0  0  0  0  0  0  0
    7.9378  -14.5002   24.9803 C   0  0  0  0  0  0  0  0  0  0  0  0
    9.1820  -14.8358   25.0653 O   0  0  0  0  0  0  0  0  0  0  0  0
    7.3928  -13.7108   26.0372 N   0  0  0  0  0  0  0  0  0  0  0  0
    6.0687  -13.1415   26.0370 C   0  0  0  0  0  0  0  0  0  0  0  0
    6.2608  -11.8460   26.8679 C   0  0  0  0  0  0  0  0  0  0  0  0
    7.1005  -12.4339   27.9828 C   0  0  0  0  0  0  0  0  0  0  0  0
    8.0445  -13.3259   27.2593 C   0  0  1  0  0  0  0  0  0  0  0  0
    8.4803  -14.4922   28.0631 C   0  0  0  0  0  0  0  0  0  0  0  0
    9.4197  -14.2708   29.0528 O   0  0  0  0  0  0  0  0  0  0  0  0
    8.0435  -15.6422   27.8874 O   0  0  0  0  0  0  0  0  0  0  0  0
  2  1  1  0
  3  2  1  0
  4  3  1  0
  4  5  1  0
  5  1  1  0
  6 11  1  0
  5  6  1  1
  7  6  2  0
  9  8  1  0
 10  9  1  1
 10 11  1  0
 10 12  1  0
 12 13  2  0
 14 12  1  0
 14 15  1  0
 16 15  1  0
 17 16  1  0
 18 17  1  0
 18 14  1  0
 18 19  1  1
 19 20  1  0
 21 19  2  0
M  END
$$$$
