PSP.pdb
     RDKit          3D

 21 22  0  0  1  0  0  0  0  0999 V2000
    8.4244  -15.2030   19.8439 N   0  0  0  0  0  0  0  0  0  0  0  0
    8.7058  -14.8173   18.4836 C   0  0  0  0  0  0  0  0  0  0  0  0
    7.7491  -13.6833   18.2553 C   0  0  0  0  0  0  0  0  0  0  0  0
    7.6732  -13.0420   19.6434 C   0  0  0  0  0  0  0  0  0  0  0  0
    8.4530  -13.9475   20.5501 C   0  0  1  0  0  0  0  0  0  0  0  0
    7.8580  -14.0538   21.9111 C   0  0  0  0  0  0  0  0  0  0  0  0
    7.7541  -13.0004   22.5610 O   0  0  0  0  0  0  0  0  0  0  0  0
    5.9106  -17.1913   25.1758 O   0  0  0  0  0  0  0  0  0  0  0  0
    6.4078  -16.8689   23.9606 C   0  0  0  0  0  0  0  0  0  0  0  0
    6.8496  -15.4327   23.7635 C   0  0  2  0  0  0  0  0  0  0  0  0
    7.4388  -15.3127   22.4148 N   0  0  0  0  0  0  0  0  0  0  0  0
    7.7808  -14.9284   24.7744 C   0  0  0  0  0  0  0  0  0  0  0  0
    8.9972  -15.3463   24.6583 O   0  0  0  0  0  0  0  0  0  0  0  0
    7.4884  -14.0366   25.8497 N   0  0  0  0  0  0  0  0  0  0  0  0
    6.2019  -13.4318   26.0872 C   0  0  0  0  0  0  0  0  0  0  0  0
    6.5835  -12.0763   26.7370 C   0  0  0  0  0  0  0  0  0  0  0  0
    7.6422  -12.5907   27.6902 C   0  0  0  0  0  0  0  0  0  0  0  0
    8.3961  -13.5677   26.8610 C   0  0  1  0  0  0  0  0  0  0  0  0
    8.9871  -14.6732   27.6515 C   0  0  0  0  0  0  0  0  0  0  0  0
    8.3367  -15.8928   27.6298 O   0  0  0  0  0  0  0  0  0  0  0  0
   10.0261  -14.5516   28.3221 O   0  0  0  0  0  0  0  0  0  0  0  0
  2  1  1  0
  3  2  1  0
  4  3  1  0
  4  5  1  0
  5  1  1  0
  6 11  1  0
  5  6  1  1
  7  6  2  0
  9  8  1  0
 10  9  1  1
 10 11  1  0
 10 12  1  0
 12 13  2  0
 14 12  1  0
 14 15  1  0
 16 15  1  0
 17 16  1  0
 18 17  1  0
 18 14  1  0
 18 19  1  1
 19 20  1  0
 21 19  2  0
M  END
$$$$
