PSP.pdb
     RDKit          3D

 21 22  0  0  1  0  0  0  0  0999 V2000
    8.4403  -15.1585   19.6219 N   0  0  0  0  0  0  0  0  0  0  0  0
    8.7521  -14.9047   18.2374 C   0  0  0  0  0  0  0  0  0  0  0  0
    7.8565  -13.7477   17.9020 C   0  0  0  0  0  0  0  0  0  0  0  0
    7.8021  -12.9875   19.2298 C   0  0  0  0  0  0  0  0  0  0  0  0
    8.5273  -13.8505   20.2195 C   0  0  1  0  0  0  0  0  0  0  0  0
    7.9166  -13.8104   21.5772 C   0  0  0  0  0  0  0  0  0  0  0  0
    7.8722  -12.7037   22.1392 O   0  0  0  0  0  0  0  0  0  0  0  0
    6.6896  -17.3251   24.0386 O   0  0  0  0  0  0  0  0  0  0  0  0
    5.9541  -16.2662   23.6315 C   0  0  0  0  0  0  0  0  0  0  0  0
    6.6884  -14.9519   23.4582 C   0  0  2  0  0  0  0  0  0  0  0  0
    7.4176  -14.9970   22.1749 N   0  0  0  0  0  0  0  0  0  0  0  0
    7.5988  -14.6039   24.5508 C   0  0  0  0  0  0  0  0  0  0  0  0
    8.7875  -15.0993   24.4547 O   0  0  0  0  0  0  0  0  0  0  0  0
    7.3136  -13.7860   25.6852 N   0  0  0  0  0  0  0  0  0  0  0  0
    6.0812  -13.0670   25.8892 C   0  0  0  0  0  0  0  0  0  0  0  0
    6.5466  -11.8260   26.6947 C   0  0  0  0  0  0  0  0  0  0  0  0
    7.4659  -12.5379   27.6653 C   0  0  0  0  0  0  0  0  0  0  0  0
    8.1798  -13.5133   26.7996 C   0  0  1  0  0  0  0  0  0  0  0  0
    8.5877  -14.7440   27.5174 C   0  0  0  0  0  0  0  0  0  0  0  0
    9.6846  -14.6613   28.3546 O   0  0  0  0  0  0  0  0  0  0  0  0
    7.9945  -15.8295   27.3999 O   0  0  0  0  0  0  0  0  0  0  0  0
  2  1  1  0
  3  2  1  0
  4  3  1  0
  4  5  1  0
  5  1  1  0
  6 11  1  0
  5  6  1  1
  7  6  2  0
  9  8  1  0
 10  9  1  1
 10 11  1  0
 10 12  1  0
 12 13  2  0
 14 12  1  0
 14 15  1  0
 16 15  1  0
 17 16  1  0
 18 17  1  0
 18 14  1  0
 18 19  1  1
 19 20  1  0
 21 19  2  0
M  END
$$$$
