CED.pdb
     RDKit          3D

 24 23  0  0  1  0  0  0  0  0999 V2000
   15.3850  -18.7614   14.0587 N   0  0  0  0  0  0  0  0  0  0  0  0
   16.0201  -19.4734   15.1723 C   0  0  1  0  0  0  0  0  0  0  0  0
   17.5219  -19.3110   14.9887 C   0  0  0  0  0  0  0  0  0  0  0  0
   18.4526  -20.0740   16.3265 S   0  0  0  0  0  0  0  0  0  0  0  0
   15.6739  -18.7839   16.4567 C   0  0  0  0  0  0  0  0  0  0  0  0
   15.7784  -17.5358   16.5643 O   0  0  0  0  0  0  0  0  0  0  0  0
   15.2164  -19.4958   17.6022 N   0  0  0  0  0  0  0  0  0  0  0  0
   14.8563  -18.8434   18.8431 C   0  0  1  0  0  0  0  0  0  0  0  0
   13.4698  -19.1878   19.2803 C   0  0  0  0  0  0  0  0  0  0  0  0
   12.4347  -18.9182   18.2113 C   0  0  0  0  0  0  0  0  0  0  0  0
   11.0875  -19.3367   18.6698 C   0  0  0  0  0  0  0  0  0  0  0  0
   10.4375  -20.1558   17.9871 O   0  0  0  0  0  0  0  0  0  0  0  0
   15.8741  -19.0743   19.9011 C   0  0  0  0  0  0  0  0  0  0  0  0
   16.4583  -20.1866   19.9609 O   0  0  0  0  0  0  0  0  0  0  0  0
   10.5286  -18.8390   19.8434 O   0  0  0  0  0  0  0  0  0  0  0  0
   16.2264  -18.0927   20.8606 N   0  0  0  0  0  0  0  0  0  0  0  0
   17.1892  -18.3179   21.9105 C   0  0  1  0  0  0  0  0  0  0  0  0
   17.7969  -17.0760   22.4652 C   0  0  0  0  0  0  0  0  0  0  0  0
   18.6209  -16.3172   21.5414 C   0  0  0  0  0  0  0  0  0  0  0  0
   19.1165  -15.2230   21.8855 O   0  0  0  0  0  0  0  0  0  0  0  0
   16.6250  -19.2015   22.9819 C   0  0  0  0  0  0  0  0  0  0  0  0
   17.4222  -19.7920   23.9532 O   0  0  0  0  0  0  0  0  0  0  0  0
   18.8772  -16.7804   20.2678 O   0  0  0  0  0  0  0  0  0  0  0  0
   15.3918  -19.4404   23.0366 O   0  0  0  0  0  0  0  0  0  0  0  0
  2  3  1  0
  2  5  1  0
  2  1  1  6
  4  3  1  0
  5  6  2  0
  7  8  1  0
  7  5  1  0
  8 13  1  0
  8  9  1  1
 10  9  1  0
 10 11  1  0
 11 12  2  0
 13 14  2  0
 13 16  1  0
 15 11  1  0
 16 17  1  0
 17 21  1  0
 17 18  1  1
 19 18  1  0
 20 19  2  0
 21 24  2  0
 21 22  1  0
 23 19  1  0
M  END
$$$$
