CED.pdb
     RDKit          3D

 24 23  0  0  1  0  0  0  0  0999 V2000
    7.8166  -13.9905   17.1212 N   0  0  0  0  0  0  0  0  0  0  0  0
    8.6523  -13.4464   18.1964 C   0  0  1  0  0  0  0  0  0  0  0  0
    7.7829  -13.4136   19.4448 C   0  0  0  0  0  0  0  0  0  0  0  0
    8.7019  -12.8721   20.8941 S   0  0  0  0  0  0  0  0  0  0  0  0
    9.7682  -14.4042   18.4830 C   0  0  0  0  0  0  0  0  0  0  0  0
    9.5808  -15.6457   18.4223 O   0  0  0  0  0  0  0  0  0  0  0  0
   11.0767  -13.9640   18.8330 N   0  0  0  0  0  0  0  0  0  0  0  0
   12.1913  -14.8701   19.0109 C   0  0  1  0  0  0  0  0  0  0  0  0
   13.2837  -14.6220   18.0224 C   0  0  0  0  0  0  0  0  0  0  0  0
   13.1681  -15.4922   16.7910 C   0  0  0  0  0  0  0  0  0  0  0  0
   14.4370  -15.4835   16.0229 C   0  0  0  0  0  0  0  0  0  0  0  0
   14.7945  -16.5188   15.4230 O   0  0  0  0  0  0  0  0  0  0  0  0
   12.6712  -14.8819   20.4174 C   0  0  0  0  0  0  0  0  0  0  0  0
   13.0628  -13.8085   20.9432 O   0  0  0  0  0  0  0  0  0  0  0  0
   15.2406  -14.3491   15.9536 O   0  0  0  0  0  0  0  0  0  0  0  0
   12.7114  -16.0564   21.2093 N   0  0  0  0  0  0  0  0  0  0  0  0
   13.1998  -16.0832   22.5661 C   0  0  1  0  0  0  0  0  0  0  0  0
   12.5980  -17.1482   23.4161 C   0  0  0  0  0  0  0  0  0  0  0  0
   13.1357  -17.2527   24.7608 C   0  0  0  0  0  0  0  0  0  0  0  0
   14.0704  -16.5101   25.1295 O   0  0  0  0  0  0  0  0  0  0  0  0
   14.6982  -16.1074   22.6015 C   0  0  0  0  0  0  0  0  0  0  0  0
   15.4327  -15.3223   23.4800 O   0  0  0  0  0  0  0  0  0  0  0  0
   12.6327  -18.1683   25.6614 O   0  0  0  0  0  0  0  0  0  0  0  0
   15.3489  -16.8513   21.8243 O   0  0  0  0  0  0  0  0  0  0  0  0
  2  3  1  0
  2  5  1  0
  2  1  1  6
  4  3  1  0
  5  6  2  0
  7  8  1  0
  7  5  1  0
  8 13  1  0
  8  9  1  6
 10  9  1  0
 10 11  1  0
 11 12  2  0
 13 14  2  0
 13 16  1  0
 15 11  1  0
 16 17  1  0
 17 21  1  0
 17 18  1  6
 19 18  1  0
 20 19  2  0
 21 24  2  0
 21 22  1  0
 23 19  1  0
M  END
$$$$
