CED.pdb
     RDKit          3D

 24 23  0  0  1  0  0  0  0  0999 V2000
    5.6176  -13.9059   26.1751 N   0  0  0  0  0  0  0  0  0  0  0  0
    6.6893  -13.5307   25.2472 C   0  0  1  0  0  0  0  0  0  0  0  0
    7.8708  -13.0988   26.1034 C   0  0  0  0  0  0  0  0  0  0  0  0
    7.6119  -11.4797   26.8446 S   0  0  0  0  0  0  0  0  0  0  0  0
    7.1347  -14.7471   24.4943 C   0  0  0  0  0  0  0  0  0  0  0  0
    7.1359  -15.8779   25.0435 O   0  0  0  0  0  0  0  0  0  0  0  0
    7.5722  -14.6853   23.1404 N   0  0  0  0  0  0  0  0  0  0  0  0
    7.9566  -15.8570   22.3825 C   0  0  1  0  0  0  0  0  0  0  0  0
    7.6399  -15.7181   20.9291 C   0  0  0  0  0  0  0  0  0  0  0  0
    7.9223  -16.9799   20.1449 C   0  0  0  0  0  0  0  0  0  0  0  0
    7.6581  -16.7688   18.7006 C   0  0  0  0  0  0  0  0  0  0  0  0
    8.6038  -16.4599   17.9459 O   0  0  0  0  0  0  0  0  0  0  0  0
    9.3711  -16.2359   22.6359 C   0  0  0  0  0  0  0  0  0  0  0  0
   10.1437  -16.4184   21.6603 O   0  0  0  0  0  0  0  0  0  0  0  0
    6.3810  -16.9065   18.1644 O   0  0  0  0  0  0  0  0  0  0  0  0
    9.9033  -16.4050   23.9384 N   0  0  0  0  0  0  0  0  0  0  0  0
   11.2804  -16.7480   24.1953 C   0  0  1  0  0  0  0  0  0  0  0  0
   12.2706  -15.9051   23.4684 C   0  0  0  0  0  0  0  0  0  0  0  0
   13.6577  -16.3113   23.6065 C   0  0  0  0  0  0  0  0  0  0  0  0
   13.9574  -17.3315   24.2626 O   0  0  0  0  0  0  0  0  0  0  0  0
   11.5578  -16.8080   25.6672 C   0  0  0  0  0  0  0  0  0  0  0  0
   12.6986  -17.4074   26.1838 O   0  0  0  0  0  0  0  0  0  0  0  0
   14.6751  -15.5871   23.0210 O   0  0  0  0  0  0  0  0  0  0  0  0
   10.7534  -16.3095   26.4951 O   0  0  0  0  0  0  0  0  0  0  0  0
  2  3  1  0
  2  5  1  0
  2  1  1  1
  4  3  1  0
  5  6  2  0
  7  8  1  0
  7  5  1  0
  8 13  1  0
  8  9  1  6
 10  9  1  0
 10 11  1  0
 11 12  2  0
 13 14  2  0
 13 16  1  0
 15 11  1  0
 16 17  1  0
 17 21  1  0
 17 18  1  6
 19 18  1  0
 20 19  2  0
 21 24  2  0
 21 22  1  0
 23 19  1  0
M  END
$$$$
