CED.pdb
     RDKit          3D

 24 23  0  0  1  0  0  0  0  0999 V2000
    6.1209  -16.1401   19.1551 N   0  0  0  0  0  0  0  0  0  0  0  0
    7.3225  -15.3312   19.3840 C   0  0  1  0  0  0  0  0  0  0  0  0
    6.8919  -14.1511   20.2426 C   0  0  0  0  0  0  0  0  0  0  0  0
    8.2844  -13.1112   20.7092 S   0  0  0  0  0  0  0  0  0  0  0  0
    8.2956  -16.1199   20.2063 C   0  0  0  0  0  0  0  0  0  0  0  0
    7.8964  -16.8521   21.1470 O   0  0  0  0  0  0  0  0  0  0  0  0
    9.6991  -16.0807   19.9680 N   0  0  0  0  0  0  0  0  0  0  0  0
   10.6450  -16.8984   20.6973 C   0  0  1  0  0  0  0  0  0  0  0  0
   11.5043  -17.7148   19.7877 C   0  0  0  0  0  0  0  0  0  0  0  0
   12.4039  -18.6730   20.5356 C   0  0  0  0  0  0  0  0  0  0  0  0
   13.2899  -19.4014   19.5950 C   0  0  0  0  0  0  0  0  0  0  0  0
   12.7895  -19.9731   18.6038 O   0  0  0  0  0  0  0  0  0  0  0  0
   11.4284  -16.0958   21.6724 C   0  0  0  0  0  0  0  0  0  0  0  0
   12.4711  -15.5067   21.2879 O   0  0  0  0  0  0  0  0  0  0  0  0
   14.6668  -19.4641   19.7893 O   0  0  0  0  0  0  0  0  0  0  0  0
   11.0569  -15.9571   23.0329 N   0  0  0  0  0  0  0  0  0  0  0  0
   11.8405  -16.4757   24.1269 C   0  0  1  0  0  0  0  0  0  0  0  0
   11.2870  -17.7108   24.7493 C   0  0  0  0  0  0  0  0  0  0  0  0
   11.8886  -18.0971   26.0131 C   0  0  0  0  0  0  0  0  0  0  0  0
   12.8721  -17.4725   26.4645 O   0  0  0  0  0  0  0  0  0  0  0  0
   13.2790  -16.6327   23.7357 C   0  0  0  0  0  0  0  0  0  0  0  0
   14.2482  -15.7006   24.0811 O   0  0  0  0  0  0  0  0  0  0  0  0
   11.3942  -19.1568   26.7444 O   0  0  0  0  0  0  0  0  0  0  0  0
   13.6607  -17.6296   23.0712 O   0  0  0  0  0  0  0  0  0  0  0  0
  2  3  1  0
  2  5  1  0
  2  1  1  1
  4  3  1  0
  5  6  2  0
  7  8  1  0
  7  5  1  0
  8 13  1  0
  8  9  1  6
 10  9  1  0
 10 11  1  0
 11 12  2  0
 13 14  2  0
 13 16  1  0
 15 11  1  0
 16 17  1  0
 17 21  1  0
 17 18  1  6
 19 18  1  0
 20 19  2  0
 21 24  2  0
 21 22  1  0
 23 19  1  0
M  END
$$$$
