CED.pdb
     RDKit          3D

 24 23  0  0  1  0  0  0  0  0999 V2000
    6.2451  -14.8281   18.9691 N   0  0  0  0  0  0  0  0  0  0  0  0
    7.6280  -14.4141   19.2276 C   0  0  1  0  0  0  0  0  0  0  0  0
    7.5771  -13.4459   20.4003 C   0  0  0  0  0  0  0  0  0  0  0  0
    8.3012  -11.8502   19.9909 S   0  0  0  0  0  0  0  0  0  0  0  0
    8.4166  -15.6003   19.6922 C   0  0  0  0  0  0  0  0  0  0  0  0
    7.9083  -16.4436   20.4738 O   0  0  0  0  0  0  0  0  0  0  0  0
    9.7601  -15.8291   19.2788 N   0  0  0  0  0  0  0  0  0  0  0  0
   10.5298  -16.9791   19.7033 C   0  0  1  0  0  0  0  0  0  0  0  0
   11.3525  -17.5485   18.5938 C   0  0  0  0  0  0  0  0  0  0  0  0
   12.0329  -18.8442   18.9746 C   0  0  0  0  0  0  0  0  0  0  0  0
   12.7616  -19.4133   17.8146 C   0  0  0  0  0  0  0  0  0  0  0  0
   12.1793  -20.2272   17.0676 O   0  0  0  0  0  0  0  0  0  0  0  0
   11.3233  -16.6887   20.9259 C   0  0  0  0  0  0  0  0  0  0  0  0
   12.0250  -15.6458   20.9709 O   0  0  0  0  0  0  0  0  0  0  0  0
   14.0798  -19.0628   17.5373 O   0  0  0  0  0  0  0  0  0  0  0  0
   11.3311  -17.5375   22.0607 N   0  0  0  0  0  0  0  0  0  0  0  0
   12.0371  -17.2275   23.2795 C   0  0  1  0  0  0  0  0  0  0  0  0
   11.3544  -17.6886   24.5206 C   0  0  0  0  0  0  0  0  0  0  0  0
   12.0185  -17.3423   25.7644 C   0  0  0  0  0  0  0  0  0  0  0  0
   13.0985  -16.7141   25.7532 O   0  0  0  0  0  0  0  0  0  0  0  0
   13.4623  -17.6871   23.2112 C   0  0  0  0  0  0  0  0  0  0  0  0
   14.5304  -16.8291   23.4361 O   0  0  0  0  0  0  0  0  0  0  0  0
   11.4789  -17.6949   26.9838 O   0  0  0  0  0  0  0  0  0  0  0  0
   13.7412  -18.8836   22.9438 O   0  0  0  0  0  0  0  0  0  0  0  0
  2  3  1  0
  2  5  1  0
  2  1  1  1
  4  3  1  0
  5  6  2  0
  7  8  1  0
  7  5  1  0
  8 13  1  0
  8  9  1  6
 10  9  1  0
 10 11  1  0
 11 12  2  0
 13 14  2  0
 13 16  1  0
 15 11  1  0
 16 17  1  0
 17 21  1  0
 17 18  1  1
 19 18  1  0
 20 19  2  0
 21 24  2  0
 21 22  1  0
 23 19  1  0
M  END
$$$$
