CED.pdb
     RDKit          3D

 24 23  0  0  1  0  0  0  0  0999 V2000
    7.6033  -13.6803   17.1722 N   0  0  0  0  0  0  0  0  0  0  0  0
    8.4195  -13.2874   18.3254 C   0  0  1  0  0  0  0  0  0  0  0  0
    7.4545  -13.0551   19.4788 C   0  0  0  0  0  0  0  0  0  0  0  0
    8.3155  -12.7442   21.0280 S   0  0  0  0  0  0  0  0  0  0  0  0
    9.2888  -14.4398   18.7267 C   0  0  0  0  0  0  0  0  0  0  0  0
    9.3586  -15.4714   18.0117 O   0  0  0  0  0  0  0  0  0  0  0  0
   10.0675  -14.4255   19.9191 N   0  0  0  0  0  0  0  0  0  0  0  0
   11.3658  -15.0576   20.0197 C   0  0  1  0  0  0  0  0  0  0  0  0
   12.3266  -14.5390   18.9999 C   0  0  0  0  0  0  0  0  0  0  0  0
   13.6379  -15.2921   18.9943 C   0  0  0  0  0  0  0  0  0  0  0  0
   14.5730  -14.7077   18.0021 C   0  0  0  0  0  0  0  0  0  0  0  0
   14.6028  -15.1730   16.8436 O   0  0  0  0  0  0  0  0  0  0  0  0
   11.9000  -14.9986   21.4052 C   0  0  0  0  0  0  0  0  0  0  0  0
   11.6205  -14.0103   22.1312 O   0  0  0  0  0  0  0  0  0  0  0  0
   15.4192  -13.6524   18.3300 O   0  0  0  0  0  0  0  0  0  0  0  0
   12.7202  -16.0125   21.9599 N   0  0  0  0  0  0  0  0  0  0  0  0
   12.4366  -16.6658   23.2140 C   0  0  1  0  0  0  0  0  0  0  0  0
   11.0391  -17.1644   23.3461 C   0  0  0  0  0  0  0  0  0  0  0  0
   10.7549  -17.9136   24.5570 C   0  0  0  0  0  0  0  0  0  0  0  0
   11.6615  -18.1510   25.3834 O   0  0  0  0  0  0  0  0  0  0  0  0
   13.4496  -17.7300   23.5111 C   0  0  0  0  0  0  0  0  0  0  0  0
   13.7986  -18.7024   22.5836 O   0  0  0  0  0  0  0  0  0  0  0  0
    9.4852  -18.3803   24.8260 O   0  0  0  0  0  0  0  0  0  0  0  0
   14.0255  -17.7774   24.6278 O   0  0  0  0  0  0  0  0  0  0  0  0
  2  3  1  0
  2  5  1  0
  2  1  1  6
  4  3  1  0
  5  6  2  0
  7  8  1  0
  7  5  1  0
  8 13  1  0
  8  9  1  6
 10  9  1  0
 10 11  1  0
 11 12  2  0
 13 14  2  0
 13 16  1  0
 15 11  1  0
 16 17  1  0
 17 21  1  0
 17 18  1  6
 19 18  1  0
 20 19  2  0
 21 24  2  0
 21 22  1  0
 23 19  1  0
M  END
$$$$
