CED.pdb
     RDKit          3D

 24 23  0  0  1  0  0  0  0  0999 V2000
    7.2993  -18.8109   17.6661 N   0  0  0  0  0  0  0  0  0  0  0  0
    8.1891  -17.7631   18.1769 C   0  0  1  0  0  0  0  0  0  0  0  0
    7.5435  -17.2292   19.4471 C   0  0  0  0  0  0  0  0  0  0  0  0
    8.6069  -16.0580   20.3047 S   0  0  0  0  0  0  0  0  0  0  0  0
    9.4891  -18.3822   18.5911 C   0  0  0  0  0  0  0  0  0  0  0  0
    9.5098  -19.4005   19.3279 O   0  0  0  0  0  0  0  0  0  0  0  0
   10.7469  -17.8572   18.1778 N   0  0  0  0  0  0  0  0  0  0  0  0
   12.0073  -18.3045   18.7314 C   0  0  1  0  0  0  0  0  0  0  0  0
   13.0757  -18.4064   17.6921 C   0  0  0  0  0  0  0  0  0  0  0  0
   12.7432  -19.4050   16.6062 C   0  0  0  0  0  0  0  0  0  0  0  0
   13.8018  -19.4205   15.5673 C   0  0  0  0  0  0  0  0  0  0  0  0
   13.5369  -19.0054   14.4196 O   0  0  0  0  0  0  0  0  0  0  0  0
   12.4132  -17.4877   19.9047 C   0  0  0  0  0  0  0  0  0  0  0  0
   12.4695  -16.2361   19.7936 O   0  0  0  0  0  0  0  0  0  0  0  0
   15.0848  -19.8866   15.8394 O   0  0  0  0  0  0  0  0  0  0  0  0
   12.7450  -18.0532   21.1611 N   0  0  0  0  0  0  0  0  0  0  0  0
   13.0787  -17.2664   22.3228 C   0  0  1  0  0  0  0  0  0  0  0  0
   12.4795  -17.7607   23.5939 C   0  0  0  0  0  0  0  0  0  0  0  0
   12.7607  -16.9583   24.7708 C   0  0  0  0  0  0  0  0  0  0  0  0
   13.4686  -15.9323   24.6845 O   0  0  0  0  0  0  0  0  0  0  0  0
   14.5602  -17.0663   22.4337 C   0  0  0  0  0  0  0  0  0  0  0  0
   15.4543  -17.6248   21.5301 O   0  0  0  0  0  0  0  0  0  0  0  0
   12.2576  -17.3043   26.0075 O   0  0  0  0  0  0  0  0  0  0  0  0
   15.0491  -16.3753   23.3634 O   0  0  0  0  0  0  0  0  0  0  0  0
  2  3  1  0
  2  5  1  0
  2  1  1  1
  4  3  1  0
  5  6  2  0
  7  8  1  0
  7  5  1  0
  8 13  1  0
  8  9  1  6
 10  9  1  0
 10 11  1  0
 11 12  2  0
 13 14  2  0
 13 16  1  0
 15 11  1  0
 16 17  1  0
 17 21  1  0
 17 18  1  1
 19 18  1  0
 20 19  2  0
 21 24  2  0
 21 22  1  0
 23 19  1  0
M  END
$$$$
