CED.pdb
     RDKit          3D

 24 23  0  0  1  0  0  0  0  0999 V2000
    7.2141  -13.5070   19.1125 N   0  0  0  0  0  0  0  0  0  0  0  0
    8.6046  -13.9727   19.1218 C   0  0  1  0  0  0  0  0  0  0  0  0
    9.4206  -12.8830   19.8016 C   0  0  0  0  0  0  0  0  0  0  0  0
    9.6119  -11.4308   18.7563 S   0  0  0  0  0  0  0  0  0  0  0  0
    8.7097  -15.1863   19.9942 C   0  0  0  0  0  0  0  0  0  0  0  0
    7.9421  -15.3389   20.9780 O   0  0  0  0  0  0  0  0  0  0  0  0
    9.6690  -16.2120   19.7571 N   0  0  0  0  0  0  0  0  0  0  0  0
    9.8679  -17.3278   20.6575 C   0  0  1  0  0  0  0  0  0  0  0  0
    9.5476  -18.6371   20.0132 C   0  0  0  0  0  0  0  0  0  0  0  0
   10.5643  -19.0401   18.9688 C   0  0  0  0  0  0  0  0  0  0  0  0
   10.1787  -20.3223   18.3304 C   0  0  0  0  0  0  0  0  0  0  0  0
   10.9663  -21.2902   18.3805 O   0  0  0  0  0  0  0  0  0  0  0  0
   11.2181  -17.2996   21.2779 C   0  0  0  0  0  0  0  0  0  0  0  0
   12.1806  -17.8483   20.6825 O   0  0  0  0  0  0  0  0  0  0  0  0
    8.9597  -20.4744   17.6760 O   0  0  0  0  0  0  0  0  0  0  0  0
   11.4823  -16.6777   22.5235 N   0  0  0  0  0  0  0  0  0  0  0  0
   12.6598  -16.9467   23.3116 C   0  0  1  0  0  0  0  0  0  0  0  0
   13.6743  -15.8560   23.2946 C   0  0  0  0  0  0  0  0  0  0  0  0
   14.5632  -15.8473   22.1466 C   0  0  0  0  0  0  0  0  0  0  0  0
   14.4735  -16.7315   21.2684 O   0  0  0  0  0  0  0  0  0  0  0  0
   12.2953  -17.3616   24.7052 C   0  0  0  0  0  0  0  0  0  0  0  0
   10.9913  -17.3075   25.1786 O   0  0  0  0  0  0  0  0  0  0  0  0
   15.5242  -14.8695   21.9955 O   0  0  0  0  0  0  0  0  0  0  0  0
   13.1727  -17.7786   25.5033 O   0  0  0  0  0  0  0  0  0  0  0  0
  2  3  1  0
  2  5  1  0
  2  1  1  1
  4  3  1  0
  5  6  2  0
  7  8  1  0
  7  5  1  0
  8 13  1  0
  8  9  1  6
 10  9  1  0
 10 11  1  0
 11 12  2  0
 13 14  2  0
 13 16  1  0
 15 11  1  0
 16 17  1  0
 17 21  1  0
 17 18  1  1
 19 18  1  0
 20 19  2  0
 21 24  2  0
 21 22  1  0
 23 19  1  0
M  END
$$$$
