CED.pdb
     RDKit          3D

 24 23  0  0  1  0  0  0  0  0999 V2000
    7.1507  -15.7943   20.6487 N   0  0  0  0  0  0  0  0  0  0  0  0
    7.8917  -15.0968   21.7045 C   0  0  1  0  0  0  0  0  0  0  0  0
    6.9255  -14.9211   22.8668 C   0  0  0  0  0  0  0  0  0  0  0  0
    7.7032  -14.1170   24.2763 S   0  0  0  0  0  0  0  0  0  0  0  0
    8.9924  -15.9845   22.1999 C   0  0  0  0  0  0  0  0  0  0  0  0
    8.8195  -17.2254   22.3036 O   0  0  0  0  0  0  0  0  0  0  0  0
   10.2696  -15.4761   22.5723 N   0  0  0  0  0  0  0  0  0  0  0  0
   11.3818  -16.3288   22.9343 C   0  0  1  0  0  0  0  0  0  0  0  0
   12.6923  -15.7667   22.4885 C   0  0  0  0  0  0  0  0  0  0  0  0
   13.8631  -16.6533   22.8494 C   0  0  0  0  0  0  0  0  0  0  0  0
   15.1428  -16.0190   22.4494 C   0  0  0  0  0  0  0  0  0  0  0  0
   15.8936  -15.5505   23.3305 O   0  0  0  0  0  0  0  0  0  0  0  0
   11.3597  -16.6778   24.3787 C   0  0  0  0  0  0  0  0  0  0  0  0
   11.4980  -15.7663   25.2343 O   0  0  0  0  0  0  0  0  0  0  0  0
   15.5288  -15.9325   21.1148 O   0  0  0  0  0  0  0  0  0  0  0  0
   11.1884  -18.0032   24.8499 N   0  0  0  0  0  0  0  0  0  0  0  0
   11.2686  -18.3674   26.2431 C   0  0  1  0  0  0  0  0  0  0  0  0
   10.6535  -19.6838   26.5717 C   0  0  0  0  0  0  0  0  0  0  0  0
    9.7845  -19.6943   27.7348 C   0  0  0  0  0  0  0  0  0  0  0  0
    9.7749  -18.7290   28.5281 O   0  0  0  0  0  0  0  0  0  0  0  0
   12.6742  -18.2547   26.7518 C   0  0  0  0  0  0  0  0  0  0  0  0
   13.7772  -18.5090   25.9480 O   0  0  0  0  0  0  0  0  0  0  0  0
    8.9518  -20.7629   27.9939 O   0  0  0  0  0  0  0  0  0  0  0  0
   12.9035  -17.9207   27.9421 O   0  0  0  0  0  0  0  0  0  0  0  0
  2  3  1  0
  2  5  1  0
  2  1  1  6
  4  3  1  0
  5  6  2  0
  7  8  1  0
  7  5  1  0
  8 13  1  0
  8  9  1  1
 10  9  1  0
 10 11  1  0
 11 12  2  0
 13 14  2  0
 13 16  1  0
 15 11  1  0
 16 17  1  0
 17 21  1  0
 17 18  1  6
 19 18  1  0
 20 19  2  0
 21 24  2  0
 21 22  1  0
 23 19  1  0
M  END
$$$$
