CED.pdb
     RDKit          3D

 24 23  0  0  1  0  0  0  0  0999 V2000
    5.2954  -13.8409   26.2152 N   0  0  0  0  0  0  0  0  0  0  0  0
    6.6307  -13.4478   25.7539 C   0  0  1  0  0  0  0  0  0  0  0  0
    7.3743  -12.9279   26.9754 C   0  0  0  0  0  0  0  0  0  0  0  0
    9.1164  -12.6356   26.6323 S   0  0  0  0  0  0  0  0  0  0  0  0
    7.3704  -14.6677   25.2959 C   0  0  0  0  0  0  0  0  0  0  0  0
    7.3112  -15.7388   25.9515 O   0  0  0  0  0  0  0  0  0  0  0  0
    8.1651  -14.6759   24.1141 N   0  0  0  0  0  0  0  0  0  0  0  0
    8.8644  -15.8525   23.6432 C   0  0  1  0  0  0  0  0  0  0  0  0
    9.3898  -15.6791   22.2554 C   0  0  0  0  0  0  0  0  0  0  0  0
   10.1009  -16.9104   21.7403 C   0  0  0  0  0  0  0  0  0  0  0  0
   10.0120  -16.9860   20.2616 C   0  0  0  0  0  0  0  0  0  0  0  0
    9.9397  -15.9296   19.5996 O   0  0  0  0  0  0  0  0  0  0  0  0
    9.9042  -16.2968   24.6076 C   0  0  0  0  0  0  0  0  0  0  0  0
   10.7587  -15.4692   25.0161 O   0  0  0  0  0  0  0  0  0  0  0  0
   10.0071  -18.2064   19.5921 O   0  0  0  0  0  0  0  0  0  0  0  0
    9.9849  -17.6237   25.0985 N   0  0  0  0  0  0  0  0  0  0  0  0
   11.0598  -18.0967   25.9357 C   0  0  1  0  0  0  0  0  0  0  0  0
   10.7140  -19.2806   26.7711 C   0  0  0  0  0  0  0  0  0  0  0  0
   10.0319  -18.9871   28.0188 C   0  0  0  0  0  0  0  0  0  0  0  0
   10.1143  -17.8522   28.5349 O   0  0  0  0  0  0  0  0  0  0  0  0
   12.3122  -18.3096   25.1399 C   0  0  0  0  0  0  0  0  0  0  0  0
   13.5622  -17.9253   25.6061 O   0  0  0  0  0  0  0  0  0  0  0  0
    9.2797  -19.9465   28.6638 O   0  0  0  0  0  0  0  0  0  0  0  0
   12.2705  -18.8517   24.0062 O   0  0  0  0  0  0  0  0  0  0  0  0
  2  3  1  0
  2  5  1  0
  2  1  1  1
  4  3  1  0
  5  6  2  0
  7  8  1  0
  7  5  1  0
  8 13  1  0
  8  9  1  6
 10  9  1  0
 10 11  1  0
 11 12  2  0
 13 14  2  0
 13 16  1  0
 15 11  1  0
 16 17  1  0
 17 21  1  0
 17 18  1  6
 19 18  1  0
 20 19  2  0
 21 24  2  0
 21 22  1  0
 23 19  1  0
M  END
$$$$
