CED.pdb
     RDKit          3D

 24 23  0  0  1  0  0  0  0  0999 V2000
   15.2890  -18.7784   17.2026 N   0  0  0  0  0  0  0  0  0  0  0  0
   16.5482  -18.6785   17.9475 C   0  0  1  0  0  0  0  0  0  0  0  0
   17.5833  -18.1321   16.9751 C   0  0  0  0  0  0  0  0  0  0  0  0
   18.9866  -19.2426   16.7875 S   0  0  0  0  0  0  0  0  0  0  0  0
   16.3990  -17.6513   19.0279 C   0  0  0  0  0  0  0  0  0  0  0  0
   15.3222  -17.0179   19.1679 O   0  0  0  0  0  0  0  0  0  0  0  0
   17.4522  -17.3451   19.9364 N   0  0  0  0  0  0  0  0  0  0  0  0
   17.3177  -16.3716   20.9991 C   0  0  1  0  0  0  0  0  0  0  0  0
   16.1136  -16.6240   21.8466 C   0  0  0  0  0  0  0  0  0  0  0  0
   15.9691  -18.0767   22.2412 C   0  0  0  0  0  0  0  0  0  0  0  0
   14.7859  -18.2665   23.1154 C   0  0  0  0  0  0  0  0  0  0  0  0
   14.0131  -19.2229   22.8976 O   0  0  0  0  0  0  0  0  0  0  0  0
   18.5695  -16.2447   21.7900 C   0  0  0  0  0  0  0  0  0  0  0  0
   19.1613  -17.2849   22.1768 O   0  0  0  0  0  0  0  0  0  0  0  0
   14.5147  -17.4044   24.1741 O   0  0  0  0  0  0  0  0  0  0  0  0
   19.1401  -14.9946   22.1365 N   0  0  0  0  0  0  0  0  0  0  0  0
   20.3756  -14.8611   22.8684 C   0  0  1  0  0  0  0  0  0  0  0  0
   21.2255  -13.7160   22.4378 C   0  0  0  0  0  0  0  0  0  0  0  0
   21.5276  -13.6611   21.0187 C   0  0  0  0  0  0  0  0  0  0  0  0
   21.4605  -14.6918   20.3157 O   0  0  0  0  0  0  0  0  0  0  0  0
   20.1314  -14.8624   24.3474 C   0  0  0  0  0  0  0  0  0  0  0  0
   18.8532  -14.8932   24.8887 O   0  0  0  0  0  0  0  0  0  0  0  0
   21.8943  -12.4778   20.4124 O   0  0  0  0  0  0  0  0  0  0  0  0
   21.0915  -14.8351   25.1588 O   0  0  0  0  0  0  0  0  0  0  0  0
  2  3  1  0
  2  5  1  0
  2  1  1  6
  4  3  1  0
  5  6  2  0
  7  8  1  0
  7  5  1  0
  8 13  1  0
  8  9  1  1
 10  9  1  0
 10 11  1  0
 11 12  2  0
 13 14  2  0
 13 16  1  0
 15 11  1  0
 16 17  1  0
 17 21  1  0
 17 18  1  6
 19 18  1  0
 20 19  2  0
 21 24  2  0
 21 22  1  0
 23 19  1  0
M  END
$$$$
