CED.pdb
     RDKit          3D

 24 23  0  0  1  0  0  0  0  0999 V2000
    7.7121  -14.4460   17.2198 N   0  0  0  0  0  0  0  0  0  0  0  0
    8.5628  -13.7051   18.1567 C   0  0  1  0  0  0  0  0  0  0  0  0
    7.7263  -13.4689   19.4057 C   0  0  0  0  0  0  0  0  0  0  0  0
    7.7624  -11.7471   19.9274 S   0  0  0  0  0  0  0  0  0  0  0  0
    9.7084  -14.5762   18.5733 C   0  0  0  0  0  0  0  0  0  0  0  0
    9.5591  -15.8183   18.6973 O   0  0  0  0  0  0  0  0  0  0  0  0
   11.0036  -14.0501   18.8455 N   0  0  0  0  0  0  0  0  0  0  0  0
   12.1039  -14.8673   19.3109 C   0  0  1  0  0  0  0  0  0  0  0  0
   13.4184  -14.4031   18.7737 C   0  0  0  0  0  0  0  0  0  0  0  0
   14.5746  -15.2645   19.2298 C   0  0  0  0  0  0  0  0  0  0  0  0
   15.8454  -14.7995   18.6220 C   0  0  0  0  0  0  0  0  0  0  0  0
   16.7679  -14.4029   19.3644 O   0  0  0  0  0  0  0  0  0  0  0  0
   12.0970  -15.0077   20.7904 C   0  0  0  0  0  0  0  0  0  0  0  0
   11.2286  -14.3947   21.4628 O   0  0  0  0  0  0  0  0  0  0  0  0
   16.0360  -14.7941   17.2432 O   0  0  0  0  0  0  0  0  0  0  0  0
   13.0313  -15.8079   21.4941 N   0  0  0  0  0  0  0  0  0  0  0  0
   12.7399  -16.4469   22.7537 C   0  0  1  0  0  0  0  0  0  0  0  0
   11.5092  -17.2861   22.7481 C   0  0  0  0  0  0  0  0  0  0  0  0
   11.1432  -17.8670   24.0275 C   0  0  0  0  0  0  0  0  0  0  0  0
   11.8687  -17.6993   25.0309 O   0  0  0  0  0  0  0  0  0  0  0  0
   13.9331  -17.1922   23.2713 C   0  0  0  0  0  0  0  0  0  0  0  0
   14.6948  -16.7271   24.3348 O   0  0  0  0  0  0  0  0  0  0  0  0
    9.9926  -18.6144   24.1690 O   0  0  0  0  0  0  0  0  0  0  0  0
   14.2884  -18.2802   22.7508 O   0  0  0  0  0  0  0  0  0  0  0  0
  2  3  1  0
  2  5  1  0
  2  1  1  6
  4  3  1  0
  5  6  2  0
  7  8  1  0
  7  5  1  0
  8 13  1  0
  8  9  1  1
 10  9  1  0
 10 11  1  0
 11 12  2  0
 13 14  2  0
 13 16  1  0
 15 11  1  0
 16 17  1  0
 17 21  1  0
 17 18  1  6
 19 18  1  0
 20 19  2  0
 21 24  2  0
 21 22  1  0
 23 19  1  0
M  END
$$$$
