QYL.pdb
     RDKit          3D

 30 30  0  0  1  0  0  0  0  0999 V2000
   24.3196  -32.8228  -18.3422 N   0  0  0  0  0  0  0  0  0  0  0  0
   25.2527  -33.7151  -17.7482 C   0  0  0  0  0  0  0  0  0  0  0  0
   25.4289  -34.8195  -18.3102 O   0  0  0  0  0  0  0  0  0  0  0  0
   25.9560  -33.3336  -16.5359 C   0  0  0  0  0  0  0  0  0  0  0  0
   25.7113  -31.9886  -15.9833 C   0  0  0  0  0  0  0  0  0  0  0  0
   26.2891  -30.8162  -16.7144 C   0  0  2  0  0  0  0  0  0  0  0  0
   27.6964  -30.6488  -16.6399 N   0  0  0  0  0  0  0  0  0  0  0  0
   25.6110  -29.5865  -16.2250 C   0  0  0  0  0  0  0  0  0  0  0  0
   26.1095  -29.0119  -15.1814 O   0  0  0  0  0  0  0  0  0  0  0  0
   29.5619  -24.7242  -17.2589 O   0  0  0  0  0  0  0  0  0  0  0  0
   28.2499  -25.2163  -17.3015 C   0  0  0  0  0  0  0  0  0  0  0  0
   27.9319  -26.3324  -18.0421 C   0  0  0  0  0  0  0  0  0  0  0  0
   26.6371  -26.8196  -18.0853 C   0  0  0  0  0  0  0  0  0  0  0  0
   25.6090  -26.2125  -17.3918 C   0  0  0  0  0  0  0  0  0  0  0  0
   24.2264  -26.7373  -17.4459 C   0  0  0  0  0  0  0  0  0  0  0  0
   23.9399  -27.7442  -16.3546 C   0  0  2  0  0  0  0  0  0  0  0  0
   24.4768  -29.0188  -16.8235 N   0  0  0  0  0  0  0  0  0  0  0  0
   22.5204  -27.8839  -16.0285 C   0  0  0  0  0  0  0  0  0  0  0  0
   21.7453  -28.6350  -16.6976 O   0  0  0  0  0  0  0  0  0  0  0  0
   25.9440  -25.0955  -16.6545 C   0  0  0  0  0  0  0  0  0  0  0  0
   27.2304  -24.5998  -16.6029 C   0  0  0  0  0  0  0  0  0  0  0  0
   20.1914  -29.3518  -12.5626 C   0  0  0  0  0  0  0  0  0  0  0  0
   20.5982  -27.9308  -12.2189 C   0  0  2  0  0  0  0  0  0  0  0  0
   20.2925  -27.6292  -10.8060 C   0  0  0  0  0  0  0  0  0  0  0  0
   20.2531  -26.9309  -13.2476 C   0  0  0  0  0  0  0  0  0  0  0  0
   20.5205  -27.2338  -14.6725 C   0  0  2  0  0  0  0  0  0  0  0  0
   21.9823  -27.1631  -14.9332 N   0  0  0  0  0  0  0  0  0  0  0  0
   19.7996  -26.4468  -15.6816 C   0  0  0  0  0  0  0  0  0  0  0  0
   20.3714  -25.3818  -16.1206 O   0  0  0  0  0  0  0  0  0  0  0  0
   18.5759  -26.7101  -16.2266 O   0  0  0  0  0  0  0  0  0  0  0  0
  1  2  1  0
  2  3  2  0
  2  4  1  0
  4  5  1  0
  6  7  1  1
  6  5  1  0
  8  6  1  0
  9  8  2  0
 10 11  1  0
 11 12  2  0
 11 21  1  0
 12 13  1  0
 13 14  2  0
 14 15  1  0
 16 15  1  6
 16 17  1  0
 17  8  1  0
 18 27  1  0
 18 16  1  0
 19 18  2  0
 20 14  1  0
 21 20  2  0
 23 22  1  6
 23 25  1  0
 24 23  1  0
 26 25  1  1
 26 27  1  0
 28 26  1  0
 28 30  1  0
 29 28  2  0
M  END
$$$$
