QYL.pdb
     RDKit          3D

 30 30  0  0  1  0  0  0  0  0999 V2000
   28.6365  -18.5228  -18.3367 N   0  0  0  0  0  0  0  0  0  0  0  0
   28.1518  -19.0447  -19.5665 C   0  0  0  0  0  0  0  0  0  0  0  0
   28.6862  -18.6264  -20.6182 O   0  0  0  0  0  0  0  0  0  0  0  0
   27.0763  -20.0210  -19.5708 C   0  0  0  0  0  0  0  0  0  0  0  0
   26.5531  -20.4857  -18.2729 C   0  0  0  0  0  0  0  0  0  0  0  0
   27.4600  -21.3029  -17.4053 C   0  0  2  0  0  0  0  0  0  0  0  0
   27.8602  -22.5663  -17.9129 N   0  0  0  0  0  0  0  0  0  0  0  0
   26.8003  -21.4792  -16.0842 C   0  0  0  0  0  0  0  0  0  0  0  0
   25.9674  -22.4588  -15.9653 O   0  0  0  0  0  0  0  0  0  0  0  0
   24.6627  -20.4593   -7.5067 O   0  0  0  0  0  0  0  0  0  0  0  0
   25.2876  -20.4422   -8.7616 C   0  0  0  0  0  0  0  0  0  0  0  0
   25.3770  -19.2815   -9.4966 C   0  0  0  0  0  0  0  0  0  0  0  0
   25.9936  -19.2627  -10.7356 C   0  0  0  0  0  0  0  0  0  0  0  0
   26.5449  -20.4008  -11.2899 C   0  0  0  0  0  0  0  0  0  0  0  0
   27.1994  -20.3735  -12.6168 C   0  0  0  0  0  0  0  0  0  0  0  0
   26.2932  -20.8584  -13.7260 C   0  0  2  0  0  0  0  0  0  0  0  0
   27.0277  -20.6558  -14.9719 N   0  0  0  0  0  0  0  0  0  0  0  0
   25.0016  -20.1733  -13.7846 C   0  0  0  0  0  0  0  0  0  0  0  0
   24.8815  -18.9990  -14.2527 O   0  0  0  0  0  0  0  0  0  0  0  0
   26.4473  -21.5554  -10.5410 C   0  0  0  0  0  0  0  0  0  0  0  0
   25.8355  -21.5876   -9.3049 C   0  0  0  0  0  0  0  0  0  0  0  0
   22.4344  -20.0798  -17.1615 C   0  0  0  0  0  0  0  0  0  0  0  0
   22.2865  -20.6805  -15.7758 C   0  0  2  0  0  0  0  0  0  0  0  0
   21.3206  -21.7974  -15.7931 C   0  0  0  0  0  0  0  0  0  0  0  0
   22.2042  -19.6894  -14.6860 C   0  0  0  0  0  0  0  0  0  0  0  0
   22.5470  -20.0995  -13.3047 C   0  0  2  0  0  0  0  0  0  0  0  0
   23.8409  -20.8314  -13.3067 N   0  0  0  0  0  0  0  0  0  0  0  0
   21.5449  -20.8686  -12.5555 C   0  0  0  0  0  0  0  0  0  0  0  0
   21.8601  -22.0642  -12.2015 O   0  0  0  0  0  0  0  0  0  0  0  0
   20.2969  -20.4658  -12.1761 O   0  0  0  0  0  0  0  0  0  0  0  0
  1  2  1  0
  2  3  2  0
  2  4  1  0
  4  5  1  0
  6  7  1  6
  6  5  1  0
  8  6  1  0
  9  8  2  0
 10 11  1  0
 11 12  2  0
 11 21  1  0
 12 13  1  0
 13 14  2  0
 14 15  1  0
 16 15  1  1
 16 17  1  0
 17  8  1  0
 18 27  1  0
 18 16  1  0
 19 18  2  0
 20 14  1  0
 21 20  2  0
 23 22  1  6
 23 25  1  0
 24 23  1  0
 26 25  1  6
 26 27  1  0
 28 26  1  0
 28 30  1  0
 29 28  2  0
M  END
$$$$
