QYL.pdb
     RDKit          3D

 30 30  0  0  1  0  0  0  0  0999 V2000
   29.1465  -21.6633  -16.6889 N   0  0  0  0  0  0  0  0  0  0  0  0
   29.6908  -20.4926  -17.2829 C   0  0  0  0  0  0  0  0  0  0  0  0
   30.6518  -20.6420  -18.0708 O   0  0  0  0  0  0  0  0  0  0  0  0
   29.1346  -19.1885  -16.9664 C   0  0  0  0  0  0  0  0  0  0  0  0
   28.0417  -19.1191  -15.9790 C   0  0  0  0  0  0  0  0  0  0  0  0
   26.7832  -19.8755  -16.2741 C   0  0  2  0  0  0  0  0  0  0  0  0
   26.0368  -19.4548  -17.4054 N   0  0  0  0  0  0  0  0  0  0  0  0
   25.9234  -19.8329  -15.0616 C   0  0  0  0  0  0  0  0  0  0  0  0
   25.3806  -18.7003  -14.7612 O   0  0  0  0  0  0  0  0  0  0  0  0
   19.9937  -19.6899  -17.2715 O   0  0  0  0  0  0  0  0  0  0  0  0
   20.8810  -20.1944  -16.3104 C   0  0  0  0  0  0  0  0  0  0  0  0
   21.8282  -21.1372  -16.6413 C   0  0  0  0  0  0  0  0  0  0  0  0
   22.7049  -21.6364  -15.6938 C   0  0  0  0  0  0  0  0  0  0  0  0
   22.6710  -21.2150  -14.3793 C   0  0  0  0  0  0  0  0  0  0  0  0
   23.6094  -21.7562  -13.3712 C   0  0  0  0  0  0  0  0  0  0  0  0
   24.7676  -20.8251  -13.0910 C   0  0  2  0  0  0  0  0  0  0  0  0
   25.6679  -20.9371  -14.2354 N   0  0  0  0  0  0  0  0  0  0  0  0
   25.4869  -21.1226  -11.8520 C   0  0  0  0  0  0  0  0  0  0  0  0
   26.6429  -21.6483  -11.8528 O   0  0  0  0  0  0  0  0  0  0  0  0
   21.7164  -20.2701  -14.0640 C   0  0  0  0  0  0  0  0  0  0  0  0
   20.8368  -19.7644  -14.9987 C   0  0  0  0  0  0  0  0  0  0  0  0
   28.5073  -21.3055   -7.9331 C   0  0  0  0  0  0  0  0  0  0  0  0
   27.8422  -20.0055   -8.3459 C   0  0  2  0  0  0  0  0  0  0  0  0
   27.3907  -19.2520   -7.1589 C   0  0  0  0  0  0  0  0  0  0  0  0
   26.9288  -20.1259   -9.4984 C   0  0  0  0  0  0  0  0  0  0  0  0
   25.6958  -20.9357   -9.3656 C   0  0  2  0  0  0  0  0  0  0  0  0
   24.8844  -20.8187  -10.6057 N   0  0  0  0  0  0  0  0  0  0  0  0
   24.8453  -20.6918   -8.1933 C   0  0  0  0  0  0  0  0  0  0  0  0
   25.0062  -21.4611   -7.1753 O   0  0  0  0  0  0  0  0  0  0  0  0
   23.8883  -19.7298   -8.0428 O   0  0  0  0  0  0  0  0  0  0  0  0
  1  2  1  0
  2  3  2  0
  2  4  1  0
  4  5  1  0
  6  7  1  6
  6  5  1  0
  8  6  1  0
  9  8  2  0
 10 11  1  0
 11 12  2  0
 11 21  1  0
 12 13  1  0
 13 14  2  0
 14 15  1  0
 16 15  1  6
 16 17  1  0
 17  8  1  0
 18 27  1  0
 18 16  1  0
 19 18  2  0
 20 14  1  0
 21 20  2  0
 23 22  1  1
 23 25  1  0
 24 23  1  0
 26 25  1  6
 26 27  1  0
 28 26  1  0
 28 30  1  0
 29 28  2  0
M  END
$$$$
