QYL.pdb
     RDKit          3D

 30 30  0  0  1  0  0  0  0  0999 V2000
   24.2709  -17.8931  -17.9296 N   0  0  0  0  0  0  0  0  0  0  0  0
   24.2128  -18.9126  -18.9180 C   0  0  0  0  0  0  0  0  0  0  0  0
   23.0917  -19.4132  -19.1614 O   0  0  0  0  0  0  0  0  0  0  0  0
   25.4233  -19.3375  -19.5992 C   0  0  0  0  0  0  0  0  0  0  0  0
   26.7135  -18.8080  -19.1205 C   0  0  0  0  0  0  0  0  0  0  0  0
   27.6697  -19.7676  -18.4817 C   0  0  2  0  0  0  0  0  0  0  0  0
   28.1319  -20.8395  -19.2888 N   0  0  0  0  0  0  0  0  0  0  0  0
   27.0317  -20.3053  -17.2508 C   0  0  0  0  0  0  0  0  0  0  0  0
   26.4644  -21.4622  -17.3359 O   0  0  0  0  0  0  0  0  0  0  0  0
   24.7109  -21.5146   -8.7601 O   0  0  0  0  0  0  0  0  0  0  0  0
   25.2680  -21.0483   -9.9592 C   0  0  0  0  0  0  0  0  0  0  0  0
   26.2609  -21.7514  -10.6036 C   0  0  0  0  0  0  0  0  0  0  0  0
   26.8120  -21.2925  -11.7875 C   0  0  0  0  0  0  0  0  0  0  0  0
   26.3945  -20.1146  -12.3745 C   0  0  0  0  0  0  0  0  0  0  0  0
   26.9912  -19.6287  -13.6386 C   0  0  0  0  0  0  0  0  0  0  0  0
   26.3286  -20.2190  -14.8630 C   0  0  2  0  0  0  0  0  0  0  0  0
   27.0113  -19.6395  -16.0165 N   0  0  0  0  0  0  0  0  0  0  0  0
   24.8905  -19.9622  -14.9462 C   0  0  0  0  0  0  0  0  0  0  0  0
   24.4259  -18.8280  -15.2782 O   0  0  0  0  0  0  0  0  0  0  0  0
   25.3991  -19.4220  -11.7166 C   0  0  0  0  0  0  0  0  0  0  0  0
   24.8414  -19.8683  -10.5363 C   0  0  0  0  0  0  0  0  0  0  0  0
   21.1222  -19.8106  -17.3163 C   0  0  0  0  0  0  0  0  0  0  0  0
   21.8325  -21.1190  -17.0226 C   0  0  2  0  0  0  0  0  0  0  0  0
   21.5115  -22.1278  -18.0522 C   0  0  0  0  0  0  0  0  0  0  0  0
   21.8079  -21.5223  -15.6036 C   0  0  0  0  0  0  0  0  0  0  0  0
   22.5239  -20.6982  -14.6025 C   0  0  2  0  0  0  0  0  0  0  0  0
   23.9776  -21.0050  -14.6495 N   0  0  0  0  0  0  0  0  0  0  0  0
   22.0513  -20.7538  -13.2130 C   0  0  0  0  0  0  0  0  0  0  0  0
   22.6822  -21.5294  -12.4041 O   0  0  0  0  0  0  0  0  0  0  0  0
   21.0079  -20.0696  -12.6589 O   0  0  0  0  0  0  0  0  0  0  0  0
  1  2  1  0
  2  3  2  0
  2  4  1  0
  4  5  1  0
  6  7  1  6
  6  5  1  0
  8  6  1  0
  9  8  2  0
 10 11  1  0
 11 12  2  0
 11 21  1  0
 12 13  1  0
 13 14  2  0
 14 15  1  0
 16 15  1  1
 16 17  1  0
 17  8  1  0
 18 27  1  0
 18 16  1  0
 19 18  2  0
 20 14  1  0
 21 20  2  0
 23 22  1  1
 23 25  1  0
 24 23  1  0
 26 25  1  6
 26 27  1  0
 28 26  1  0
 28 30  1  0
 29 28  2  0
M  END
$$$$
