QYL.pdb
     RDKit          3D

 30 30  0  0  1  0  0  0  0  0999 V2000
   17.4629   -6.3994  -16.4277 N   0  0  0  0  0  0  0  0  0  0  0  0
   17.1624   -7.6070  -17.1141 C   0  0  0  0  0  0  0  0  0  0  0  0
   16.9931   -7.5369  -18.3523 O   0  0  0  0  0  0  0  0  0  0  0  0
   17.0598   -8.8565  -16.3804 C   0  0  0  0  0  0  0  0  0  0  0  0
   17.1867   -8.8137  -14.9120 C   0  0  0  0  0  0  0  0  0  0  0  0
   18.5658   -8.8312  -14.3283 C   0  0  2  0  0  0  0  0  0  0  0  0
   19.2881  -10.0481  -14.4354 N   0  0  0  0  0  0  0  0  0  0  0  0
   18.4681   -8.4299  -12.8997 C   0  0  0  0  0  0  0  0  0  0  0  0
   18.2164   -9.3603  -12.0402 O   0  0  0  0  0  0  0  0  0  0  0  0
   21.7856   -2.4214  -14.4070 O   0  0  0  0  0  0  0  0  0  0  0  0
   21.2975   -3.3407  -13.4678 C   0  0  0  0  0  0  0  0  0  0  0  0
   21.7595   -4.6371  -13.4340 C   0  0  0  0  0  0  0  0  0  0  0  0
   21.2788   -5.5461  -12.5074 C   0  0  0  0  0  0  0  0  0  0  0  0
   20.3184   -5.1975  -11.5786 C   0  0  0  0  0  0  0  0  0  0  0  0
   19.8067   -6.1759  -10.5934 C   0  0  0  0  0  0  0  0  0  0  0  0
   18.4961   -6.8006  -11.0161 C   0  0  2  0  0  0  0  0  0  0  0  0
   18.6329   -7.1169  -12.4352 N   0  0  0  0  0  0  0  0  0  0  0  0
   17.3292   -5.9445  -10.8001 C   0  0  0  0  0  0  0  0  0  0  0  0
   16.7525   -5.3369  -11.7545 O   0  0  0  0  0  0  0  0  0  0  0  0
   19.8659   -3.8950  -11.6255 C   0  0  0  0  0  0  0  0  0  0  0  0
   20.3368   -2.9793  -12.5437 C   0  0  0  0  0  0  0  0  0  0  0  0
   13.7820   -3.3263   -7.4846 C   0  0  0  0  0  0  0  0  0  0  0  0
   13.5610   -4.7999   -7.7713 C   0  0  2  0  0  0  0  0  0  0  0  0
   12.7129   -5.4115   -6.7286 C   0  0  0  0  0  0  0  0  0  0  0  0
   14.7672   -5.5229   -8.2178 C   0  0  0  0  0  0  0  0  0  0  0  0
   15.6099   -4.9381   -9.2863 C   0  0  2  0  0  0  0  0  0  0  0  0
   16.8175   -5.7809   -9.4886 N   0  0  0  0  0  0  0  0  0  0  0  0
   16.0067   -3.5310   -9.1455 C   0  0  0  0  0  0  0  0  0  0  0  0
   17.0559   -3.2794   -8.4457 O   0  0  0  0  0  0  0  0  0  0  0  0
   15.3924   -2.4340   -9.6774 O   0  0  0  0  0  0  0  0  0  0  0  0
  1  2  1  0
  2  3  2  0
  2  4  1  0
  4  5  1  0
  6  7  1  1
  6  5  1  0
  8  6  1  0
  9  8  2  0
 10 11  1  0
 11 12  2  0
 11 21  1  0
 12 13  1  0
 13 14  2  0
 14 15  1  0
 16 15  1  6
 16 17  1  0
 17  8  1  0
 18 27  1  0
 18 16  1  0
 19 18  2  0
 20 14  1  0
 21 20  2  0
 23 22  1  1
 23 25  1  0
 24 23  1  0
 26 25  1  1
 26 27  1  0
 28 26  1  0
 28 30  1  0
 29 28  2  0
M  END
$$$$
