QYL.pdb
     RDKit          3D

 30 30  0  0  1  0  0  0  0  0999 V2000
   29.8673  -23.3292  -17.8471 N   0  0  0  0  0  0  0  0  0  0  0  0
   29.1970  -22.5625  -16.8558 C   0  0  0  0  0  0  0  0  0  0  0  0
   28.8159  -23.1629  -15.8259 O   0  0  0  0  0  0  0  0  0  0  0  0
   28.9754  -21.1415  -17.0597 C   0  0  0  0  0  0  0  0  0  0  0  0
   28.2650  -20.3901  -16.0085 C   0  0  0  0  0  0  0  0  0  0  0  0
   26.7912  -20.6135  -15.8636 C   0  0  2  0  0  0  0  0  0  0  0  0
   25.9745  -20.2049  -16.9499 N   0  0  0  0  0  0  0  0  0  0  0  0
   26.3420  -19.9390  -14.6167 C   0  0  0  0  0  0  0  0  0  0  0  0
   26.1349  -18.6656  -14.6750 O   0  0  0  0  0  0  0  0  0  0  0  0
   20.7031  -23.6595  -13.8976 O   0  0  0  0  0  0  0  0  0  0  0  0
   21.5769  -22.6110  -13.5771 C   0  0  0  0  0  0  0  0  0  0  0  0
   21.6194  -22.0830  -12.3064 C   0  0  0  0  0  0  0  0  0  0  0  0
   22.4815  -21.0478  -11.9883 C   0  0  0  0  0  0  0  0  0  0  0  0
   23.3344  -20.4990  -12.9251 C   0  0  0  0  0  0  0  0  0  0  0  0
   24.2507  -19.3899  -12.5783 C   0  0  0  0  0  0  0  0  0  0  0  0
   25.6416  -19.8684  -12.2276 C   0  0  2  0  0  0  0  0  0  0  0  0
   26.1302  -20.5959  -13.3958 N   0  0  0  0  0  0  0  0  0  0  0  0
   25.6979  -20.7228  -11.0411 C   0  0  0  0  0  0  0  0  0  0  0  0
   25.5514  -21.9824  -11.1093 O   0  0  0  0  0  0  0  0  0  0  0  0
   23.2797  -21.0391  -14.1935 C   0  0  0  0  0  0  0  0  0  0  0  0
   22.4253  -22.0708  -14.5235 C   0  0  0  0  0  0  0  0  0  0  0  0
   28.9869  -20.5334   -8.1777 C   0  0  0  0  0  0  0  0  0  0  0  0
   27.8629  -19.6302   -7.7049 C   0  0  2  0  0  0  0  0  0  0  0  0
   28.3585  -18.6617   -6.7064 C   0  0  0  0  0  0  0  0  0  0  0  0
   26.5882  -20.3263   -7.4449 C   0  0  0  0  0  0  0  0  0  0  0  0
   25.8899  -21.0030   -8.5621 C   0  0  2  0  0  0  0  0  0  0  0  0
   25.9228  -20.1373   -9.7701 N   0  0  0  0  0  0  0  0  0  0  0  0
   24.5171  -21.4675   -8.3238 C   0  0  0  0  0  0  0  0  0  0  0  0
   24.3359  -22.3151   -7.3737 O   0  0  0  0  0  0  0  0  0  0  0  0
   23.3851  -21.1034   -8.9945 O   0  0  0  0  0  0  0  0  0  0  0  0
  1  2  1  0
  2  3  2  0
  2  4  1  0
  4  5  1  0
  6  7  1  6
  6  5  1  0
  8  6  1  0
  9  8  2  0
 10 11  1  0
 11 12  2  0
 11 21  1  0
 12 13  1  0
 13 14  2  0
 14 15  1  0
 16 15  1  6
 16 17  1  0
 17  8  1  0
 18 27  1  0
 18 16  1  0
 19 18  2  0
 20 14  1  0
 21 20  2  0
 23 22  1  1
 23 25  1  0
 24 23  1  0
 26 25  1  1
 26 27  1  0
 28 26  1  0
 28 30  1  0
 29 28  2  0
M  END
$$$$
