QYL.pdb
     RDKit          3D

 30 30  0  0  1  0  0  0  0  0999 V2000
   19.5520  -24.5883  -10.2032 N   0  0  0  0  0  0  0  0  0  0  0  0
   18.7657  -24.3310  -11.3587 C   0  0  0  0  0  0  0  0  0  0  0  0
   18.8312  -23.1835  -11.8540 O   0  0  0  0  0  0  0  0  0  0  0  0
   17.9272  -25.3772  -11.9176 C   0  0  0  0  0  0  0  0  0  0  0  0
   17.9849  -26.7171  -11.3048 C   0  0  0  0  0  0  0  0  0  0  0  0
   18.8848  -27.7358  -11.9337 C   0  0  2  0  0  0  0  0  0  0  0  0
   18.4657  -28.2757  -13.1775 N   0  0  0  0  0  0  0  0  0  0  0  0
   19.0938  -28.8352  -10.9544 C   0  0  0  0  0  0  0  0  0  0  0  0
   18.1163  -29.6594  -10.7734 O   0  0  0  0  0  0  0  0  0  0  0  0
   23.4349  -33.9364  -13.3507 O   0  0  0  0  0  0  0  0  0  0  0  0
   23.0420  -33.0779  -12.3143 C   0  0  0  0  0  0  0  0  0  0  0  0
   22.5538  -33.5732  -11.1262 C   0  0  0  0  0  0  0  0  0  0  0  0
   22.1654  -32.7270  -10.1019 C   0  0  0  0  0  0  0  0  0  0  0  0
   22.2487  -31.3541  -10.2229 C   0  0  0  0  0  0  0  0  0  0  0  0
   21.8281  -30.4559   -9.1247 C   0  0  0  0  0  0  0  0  0  0  0  0
   20.3674  -30.0736   -9.2086 C   0  0  2  0  0  0  0  0  0  0  0  0
   20.2762  -29.0294  -10.2255 N   0  0  0  0  0  0  0  0  0  0  0  0
   19.8006  -29.5991   -7.9459 C   0  0  0  0  0  0  0  0  0  0  0  0
   19.5824  -28.3678   -7.7248 O   0  0  0  0  0  0  0  0  0  0  0  0
   22.7399  -30.8738  -11.4193 C   0  0  0  0  0  0  0  0  0  0  0  0
   23.1305  -31.7061  -12.4479 C   0  0  0  0  0  0  0  0  0  0  0  0
   15.2312  -28.4540   -5.6145 C   0  0  0  0  0  0  0  0  0  0  0  0
   16.6336  -28.7592   -5.1217 C   0  0  2  0  0  0  0  0  0  0  0  0
   17.1294  -27.6708   -4.2557 C   0  0  0  0  0  0  0  0  0  0  0  0
   17.5353  -29.3131   -6.1500 C   0  0  0  0  0  0  0  0  0  0  0  0
   18.7381  -30.0683   -5.7297 C   0  0  2  0  0  0  0  0  0  0  0  0
   19.4809  -30.5343   -6.9300 N   0  0  0  0  0  0  0  0  0  0  0  0
   18.5464  -31.1896   -4.8006 C   0  0  0  0  0  0  0  0  0  0  0  0
   18.0833  -32.2871   -5.2854 O   0  0  0  0  0  0  0  0  0  0  0  0
   18.8064  -31.2162   -3.4606 O   0  0  0  0  0  0  0  0  0  0  0  0
  1  2  1  0
  2  3  2  0
  2  4  1  0
  4  5  1  0
  6  7  1  6
  6  5  1  0
  8  6  1  0
  9  8  2  0
 10 11  1  0
 11 12  2  0
 11 21  1  0
 12 13  1  0
 13 14  2  0
 14 15  1  0
 16 15  1  1
 16 17  1  0
 17  8  1  0
 18 27  1  0
 18 16  1  0
 19 18  2  0
 20 14  1  0
 21 20  2  0
 23 22  1  6
 23 25  1  0
 24 23  1  0
 26 25  1  6
 26 27  1  0
 28 26  1  0
 28 30  1  0
 29 28  2  0
M  END
$$$$
