QYL.pdb
     RDKit          3D

 30 30  0  0  1  0  0  0  0  0999 V2000
   19.0047  -22.2501  -15.9913 N   0  0  0  0  0  0  0  0  0  0  0  0
   19.7283  -21.0289  -16.0623 C   0  0  0  0  0  0  0  0  0  0  0  0
   20.6152  -20.9372  -16.9406 O   0  0  0  0  0  0  0  0  0  0  0  0
   19.4296  -19.9498  -15.1370 C   0  0  0  0  0  0  0  0  0  0  0  0
   20.5233  -19.4337  -14.2935 C   0  0  0  0  0  0  0  0  0  0  0  0
   21.0605  -20.3288  -13.2196 C   0  0  2  0  0  0  0  0  0  0  0  0
   20.4943  -20.1840  -11.9264 N   0  0  0  0  0  0  0  0  0  0  0  0
   22.5327  -20.1320  -13.1476 C   0  0  0  0  0  0  0  0  0  0  0  0
   22.9563  -18.9890  -12.7210 O   0  0  0  0  0  0  0  0  0  0  0  0
   26.0831  -19.7274   -7.0738 O   0  0  0  0  0  0  0  0  0  0  0  0
   25.9010  -20.2643   -8.3561 C   0  0  0  0  0  0  0  0  0  0  0  0
   26.9682  -20.4628   -9.2028 C   0  0  0  0  0  0  0  0  0  0  0  0
   26.7903  -20.9928  -10.4691 C   0  0  0  0  0  0  0  0  0  0  0  0
   25.5411  -21.3452  -10.9400 C   0  0  0  0  0  0  0  0  0  0  0  0
   25.3585  -21.9079  -12.2964 C   0  0  0  0  0  0  0  0  0  0  0  0
   24.9053  -20.8739  -13.3025 C   0  0  2  0  0  0  0  0  0  0  0  0
   23.4779  -21.1030  -13.5092 N   0  0  0  0  0  0  0  0  0  0  0  0
   25.6160  -20.9321  -14.5802 C   0  0  0  0  0  0  0  0  0  0  0  0
   25.2441  -21.6950  -15.5248 O   0  0  0  0  0  0  0  0  0  0  0  0
   24.4824  -21.1403  -10.0795 C   0  0  0  0  0  0  0  0  0  0  0  0
   24.6461  -20.6130   -8.8152 C   0  0  0  0  0  0  0  0  0  0  0  0
   26.5604  -17.5769  -17.3628 C   0  0  0  0  0  0  0  0  0  0  0  0
   27.6799  -17.6644  -16.3422 C   0  0  2  0  0  0  0  0  0  0  0  0
   28.5367  -16.4633  -16.4052 C   0  0  0  0  0  0  0  0  0  0  0  0
   28.3228  -18.9894  -16.2528 C   0  0  0  0  0  0  0  0  0  0  0  0
   27.4799  -20.1946  -16.0778 C   0  0  2  0  0  0  0  0  0  0  0  0
   26.7568  -20.1154  -14.7814 N   0  0  0  0  0  0  0  0  0  0  0  0
   28.1328  -21.5045  -16.2007 C   0  0  0  0  0  0  0  0  0  0  0  0
   28.4005  -22.1364  -15.1130 O   0  0  0  0  0  0  0  0  0  0  0  0
   28.4958  -22.1512  -17.3469 O   0  0  0  0  0  0  0  0  0  0  0  0
  1  2  1  0
  2  3  2  0
  2  4  1  0
  4  5  1  0
  6  7  1  1
  6  5  1  0
  8  6  1  0
  9  8  2  0
 10 11  1  0
 11 12  2  0
 11 21  1  0
 12 13  1  0
 13 14  2  0
 14 15  1  0
 16 15  1  1
 16 17  1  0
 17  8  1  0
 18 27  1  0
 18 16  1  0
 19 18  2  0
 20 14  1  0
 21 20  2  0
 23 22  1  6
 23 25  1  0
 24 23  1  0
 26 25  1  1
 26 27  1  0
 28 26  1  0
 28 30  1  0
 29 28  2  0
M  END
$$$$
