QYL.pdb
     RDKit          3D

 30 30  0  0  1  0  0  0  0  0999 V2000
   29.2711  -18.4429  -18.2198 N   0  0  0  0  0  0  0  0  0  0  0  0
   29.2613  -19.1157  -19.4716 C   0  0  0  0  0  0  0  0  0  0  0  0
   30.0772  -18.7284  -20.3381 O   0  0  0  0  0  0  0  0  0  0  0  0
   28.3280  -20.2035  -19.7072 C   0  0  0  0  0  0  0  0  0  0  0  0
   27.4936  -20.6608  -18.5808 C   0  0  0  0  0  0  0  0  0  0  0  0
   28.1639  -21.4179  -17.4760 C   0  0  2  0  0  0  0  0  0  0  0  0
   28.6013  -22.7337  -17.7786 N   0  0  0  0  0  0  0  0  0  0  0  0
   27.2392  -21.4519  -16.3118 C   0  0  0  0  0  0  0  0  0  0  0  0
   26.0824  -21.9971  -16.4913 O   0  0  0  0  0  0  0  0  0  0  0  0
   24.0709  -20.5822   -8.0310 O   0  0  0  0  0  0  0  0  0  0  0  0
   24.8826  -20.6225   -9.1734 C   0  0  0  0  0  0  0  0  0  0  0  0
   25.4394  -19.4751   -9.6919 C   0  0  0  0  0  0  0  0  0  0  0  0
   26.2410  -19.5129  -10.8197 C   0  0  0  0  0  0  0  0  0  0  0  0
   26.5182  -20.6966  -11.4744 C   0  0  0  0  0  0  0  0  0  0  0  0
   27.3732  -20.7285  -12.6817 C   0  0  0  0  0  0  0  0  0  0  0  0
   26.5966  -21.0451  -13.9401 C   0  0  2  0  0  0  0  0  0  0  0  0
   27.5457  -20.9350  -15.0446 N   0  0  0  0  0  0  0  0  0  0  0  0
   25.4495  -20.1665  -14.1710 C   0  0  0  0  0  0  0  0  0  0  0  0
   25.5684  -19.0372  -14.7394 O   0  0  0  0  0  0  0  0  0  0  0  0
   25.9529  -21.8371  -10.9424 C   0  0  0  0  0  0  0  0  0  0  0  0
   25.1524  -21.8131   -9.8191 C   0  0  0  0  0  0  0  0  0  0  0  0
   21.4649  -19.0259  -17.5233 C   0  0  0  0  0  0  0  0  0  0  0  0
   21.8298  -18.6768  -16.0923 C   0  0  2  0  0  0  0  0  0  0  0  0
   21.8426  -17.2126  -15.9008 C   0  0  0  0  0  0  0  0  0  0  0  0
   22.9378  -19.4743  -15.5325 C   0  0  0  0  0  0  0  0  0  0  0  0
   22.9893  -19.7207  -14.0730 C   0  0  2  0  0  0  0  0  0  0  0  0
   24.1599  -20.5786  -13.7515 N   0  0  0  0  0  0  0  0  0  0  0  0
   21.7855  -20.2665  -13.4327 C   0  0  0  0  0  0  0  0  0  0  0  0
   21.7749  -21.5251  -13.1685 O   0  0  0  0  0  0  0  0  0  0  0  0
   20.6543  -19.5926  -13.0718 O   0  0  0  0  0  0  0  0  0  0  0  0
  1  2  1  0
  2  3  2  0
  2  4  1  0
  4  5  1  0
  6  7  1  6
  6  5  1  0
  8  6  1  0
  9  8  2  0
 10 11  1  0
 11 12  2  0
 11 21  1  0
 12 13  1  0
 13 14  2  0
 14 15  1  0
 16 15  1  1
 16 17  1  0
 17  8  1  0
 18 27  1  0
 18 16  1  0
 19 18  2  0
 20 14  1  0
 21 20  2  0
 23 22  1  6
 23 25  1  0
 24 23  1  0
 26 25  1  6
 26 27  1  0
 28 26  1  0
 28 30  1  0
 29 28  2  0
M  END
$$$$
