QYL.pdb
     RDKit          3D

 30 30  0  0  1  0  0  0  0  0999 V2000
   16.6338  -14.3372  -15.3673 N   0  0  0  0  0  0  0  0  0  0  0  0
   16.2178  -14.9623  -16.5739 C   0  0  0  0  0  0  0  0  0  0  0  0
   15.5253  -16.0002  -16.4738 O   0  0  0  0  0  0  0  0  0  0  0  0
   16.5991  -14.3975  -17.8567 C   0  0  0  0  0  0  0  0  0  0  0  0
   17.3883  -13.1520  -17.8616 C   0  0  0  0  0  0  0  0  0  0  0  0
   17.8353  -12.6123  -19.1852 C   0  0  2  0  0  0  0  0  0  0  0  0
   18.6162  -13.4770  -19.9955 N   0  0  0  0  0  0  0  0  0  0  0  0
   18.5776  -11.3470  -18.9415 C   0  0  0  0  0  0  0  0  0  0  0  0
   19.8396  -11.4418  -18.6851 O   0  0  0  0  0  0  0  0  0  0  0  0
   20.6549   -2.7386  -18.2102 O   0  0  0  0  0  0  0  0  0  0  0  0
   20.0254   -3.9619  -18.4798 C   0  0  0  0  0  0  0  0  0  0  0  0
   18.9317   -4.3751  -17.7528 C   0  0  0  0  0  0  0  0  0  0  0  0
   18.3090   -5.5826  -18.0175 C   0  0  0  0  0  0  0  0  0  0  0  0
   18.7529   -6.4249  -19.0175 C   0  0  0  0  0  0  0  0  0  0  0  0
   18.0840   -7.7160  -19.2922 C   0  0  0  0  0  0  0  0  0  0  0  0
   18.7696   -8.8845  -18.6206 C   0  0  2  0  0  0  0  0  0  0  0  0
   17.9959  -10.0712  -18.9752 N   0  0  0  0  0  0  0  0  0  0  0  0
   18.8690   -8.7630  -17.1658 C   0  0  0  0  0  0  0  0  0  0  0  0
   18.3083   -9.5882  -16.3801 O   0  0  0  0  0  0  0  0  0  0  0  0
   19.8495   -5.9965  -19.7367 C   0  0  0  0  0  0  0  0  0  0  0  0
   20.4792   -4.7955  -19.4831 C   0  0  0  0  0  0  0  0  0  0  0  0
   22.1001   -8.0559  -13.0376 C   0  0  0  0  0  0  0  0  0  0  0  0
   21.3098   -9.2389  -13.5655 C   0  0  2  0  0  0  0  0  0  0  0  0
   22.0317  -10.5019  -13.3120 C   0  0  0  0  0  0  0  0  0  0  0  0
   20.7022   -9.0242  -14.8928 C   0  0  0  0  0  0  0  0  0  0  0  0
   19.9885   -7.7558  -15.1676 C   0  0  2  0  0  0  0  0  0  0  0  0
   19.6121   -7.6947  -16.6044 N   0  0  0  0  0  0  0  0  0  0  0  0
   20.6508   -6.5046  -14.7763 C   0  0  0  0  0  0  0  0  0  0  0  0
   21.5427   -6.0328  -15.5737 O   0  0  0  0  0  0  0  0  0  0  0  0
   20.4325   -5.7616  -13.6519 O   0  0  0  0  0  0  0  0  0  0  0  0
  1  2  1  0
  2  3  2  0
  2  4  1  0
  4  5  1  0
  6  7  1  1
  6  5  1  0
  8  6  1  0
  9  8  2  0
 10 11  1  0
 11 12  2  0
 11 21  1  0
 12 13  1  0
 13 14  2  0
 14 15  1  0
 16 15  1  1
 16 17  1  0
 17  8  1  0
 18 27  1  0
 18 16  1  0
 19 18  2  0
 20 14  1  0
 21 20  2  0
 23 22  1  6
 23 25  1  0
 24 23  1  0
 26 25  1  6
 26 27  1  0
 28 26  1  0
 28 30  1  0
 29 28  2  0
M  END
$$$$
