QYL.pdb
     RDKit          3D

 30 30  0  0  1  0  0  0  0  0999 V2000
   28.3889  -20.0531  -17.5525 N   0  0  0  0  0  0  0  0  0  0  0  0
   28.6956  -18.7201  -17.1665 C   0  0  0  0  0  0  0  0  0  0  0  0
   29.5687  -18.1166  -17.8298 O   0  0  0  0  0  0  0  0  0  0  0  0
   28.0085  -18.1107  -16.0411 C   0  0  0  0  0  0  0  0  0  0  0  0
   27.1510  -18.9681  -15.2021 C   0  0  0  0  0  0  0  0  0  0  0  0
   27.7522  -19.5629  -13.9661 C   0  0  2  0  0  0  0  0  0  0  0  0
   28.3599  -20.8381  -14.1027 N   0  0  0  0  0  0  0  0  0  0  0  0
   26.6967  -19.6196  -12.9201 C   0  0  0  0  0  0  0  0  0  0  0  0
   26.1707  -18.4999  -12.5496 O   0  0  0  0  0  0  0  0  0  0  0  0
   21.9360  -19.8941  -17.1543 O   0  0  0  0  0  0  0  0  0  0  0  0
   22.4658  -20.3671  -15.9456 C   0  0  0  0  0  0  0  0  0  0  0  0
   23.4413  -21.3384  -15.9276 C   0  0  0  0  0  0  0  0  0  0  0  0
   23.9655  -21.8066  -14.7352 C   0  0  0  0  0  0  0  0  0  0  0  0
   23.5370  -21.3245  -13.5144 C   0  0  0  0  0  0  0  0  0  0  0  0
   24.0997  -21.8327  -12.2436 C   0  0  0  0  0  0  0  0  0  0  0  0
   24.9969  -20.8270  -11.5576 C   0  0  2  0  0  0  0  0  0  0  0  0
   26.2420  -20.8031  -12.3203 N   0  0  0  0  0  0  0  0  0  0  0  0
   25.2713  -21.1318  -10.1530 C   0  0  0  0  0  0  0  0  0  0  0  0
   24.3747  -21.5773   -9.3718 O   0  0  0  0  0  0  0  0  0  0  0  0
   22.5594  -20.3517  -13.5495 C   0  0  0  0  0  0  0  0  0  0  0  0
   22.0287  -19.8764  -14.7309 C   0  0  0  0  0  0  0  0  0  0  0  0
   27.7254  -20.1582   -5.4760 C   0  0  0  0  0  0  0  0  0  0  0  0
   28.6651  -20.8410   -6.4525 C   0  0  2  0  0  0  0  0  0  0  0  0
   30.0699  -20.5074   -6.1426 C   0  0  0  0  0  0  0  0  0  0  0  0
   28.2206  -20.7992   -7.8587 C   0  0  0  0  0  0  0  0  0  0  0  0
   26.8199  -21.1507   -8.1878 C   0  0  2  0  0  0  0  0  0  0  0  0
   26.5754  -20.9274   -9.6370 N   0  0  0  0  0  0  0  0  0  0  0  0
   25.7562  -20.5113   -7.4024 C   0  0  0  0  0  0  0  0  0  0  0  0
   25.4521  -19.2968   -7.6966 O   0  0  0  0  0  0  0  0  0  0  0  0
   25.0317  -21.0552   -6.3811 O   0  0  0  0  0  0  0  0  0  0  0  0
  1  2  1  0
  2  3  2  0
  2  4  1  0
  4  5  1  0
  6  7  1  6
  6  5  1  0
  8  6  1  0
  9  8  2  0
 10 11  1  0
 11 12  2  0
 11 21  1  0
 12 13  1  0
 13 14  2  0
 14 15  1  0
 16 15  1  6
 16 17  1  0
 17  8  1  0
 18 27  1  0
 18 16  1  0
 19 18  2  0
 20 14  1  0
 21 20  2  0
 23 22  1  1
 23 25  1  0
 24 23  1  0
 26 25  1  1
 26 27  1  0
 28 26  1  0
 28 30  1  0
 29 28  2  0
M  END
$$$$
