QYL.pdb
     RDKit          3D

 30 30  0  0  1  0  0  0  0  0999 V2000
   28.1660  -22.5986  -17.4010 N   0  0  0  0  0  0  0  0  0  0  0  0
   28.8844  -21.6367  -18.1616 C   0  0  0  0  0  0  0  0  0  0  0  0
   29.7359  -22.0655  -18.9726 O   0  0  0  0  0  0  0  0  0  0  0  0
   28.6208  -20.2198  -17.9807 C   0  0  0  0  0  0  0  0  0  0  0  0
   27.5733  -19.8237  -17.0215 C   0  0  0  0  0  0  0  0  0  0  0  0
   26.1445  -20.0192  -17.4257 C   0  0  2  0  0  0  0  0  0  0  0  0
   25.6520  -19.1758  -18.4552 N   0  0  0  0  0  0  0  0  0  0  0  0
   25.2973  -19.8765  -16.2119 C   0  0  0  0  0  0  0  0  0  0  0  0
   25.0782  -18.6789  -15.7812 O   0  0  0  0  0  0  0  0  0  0  0  0
   19.0813  -18.1209  -17.4532 O   0  0  0  0  0  0  0  0  0  0  0  0
   19.9601  -18.9159  -16.7040 C   0  0  0  0  0  0  0  0  0  0  0  0
   20.6832  -19.9280  -17.2940 C   0  0  0  0  0  0  0  0  0  0  0  0
   21.5513  -20.7139  -16.5559 C   0  0  0  0  0  0  0  0  0  0  0  0
   21.7317  -20.5210  -15.2006 C   0  0  0  0  0  0  0  0  0  0  0  0
   22.6590  -21.3676  -14.4176 C   0  0  0  0  0  0  0  0  0  0  0  0
   24.0253  -20.7411  -14.2528 C   0  0  2  0  0  0  0  0  0  0  0  0
   24.7268  -20.9524  -15.5161 N   0  0  0  0  0  0  0  0  0  0  0  0
   24.8053  -21.2921  -13.1442 C   0  0  0  0  0  0  0  0  0  0  0  0
   25.0786  -22.5294  -13.0611 O   0  0  0  0  0  0  0  0  0  0  0  0
   21.0002  -19.5030  -14.6245 C   0  0  0  0  0  0  0  0  0  0  0  0
   20.1318  -18.7125  -15.3488 C   0  0  0  0  0  0  0  0  0  0  0  0
   28.5047  -21.9442  -12.4447 C   0  0  0  0  0  0  0  0  0  0  0  0
   28.3253  -20.5152  -11.9666 C   0  0  2  0  0  0  0  0  0  0  0  0
   29.6313  -19.8344  -11.8595 C   0  0  0  0  0  0  0  0  0  0  0  0
   27.3511  -20.3557  -10.8701 C   0  0  0  0  0  0  0  0  0  0  0  0
   26.0243  -21.0051  -10.9780 C   0  0  2  0  0  0  0  0  0  0  0  0
   25.2762  -20.4270  -12.1251 N   0  0  0  0  0  0  0  0  0  0  0  0
   25.1706  -21.0099   -9.7828 C   0  0  0  0  0  0  0  0  0  0  0  0
   24.0782  -20.3331   -9.8333 O   0  0  0  0  0  0  0  0  0  0  0  0
   25.3926  -21.6582   -8.6020 O   0  0  0  0  0  0  0  0  0  0  0  0
  1  2  1  0
  2  3  2  0
  2  4  1  0
  4  5  1  0
  6  7  1  6
  6  5  1  0
  8  6  1  0
  9  8  2  0
 10 11  1  0
 11 12  2  0
 11 21  1  0
 12 13  1  0
 13 14  2  0
 14 15  1  0
 16 15  1  6
 16 17  1  0
 17  8  1  0
 18 27  1  0
 18 16  1  0
 19 18  2  0
 20 14  1  0
 21 20  2  0
 23 22  1  1
 23 25  1  0
 24 23  1  0
 26 25  1  1
 26 27  1  0
 28 26  1  0
 28 30  1  0
 29 28  2  0
M  END
$$$$
