QYL.pdb
     RDKit          3D

 30 30  0  0  1  0  0  0  0  0999 V2000
   26.3790  -21.7448  -18.5406 N   0  0  0  0  0  0  0  0  0  0  0  0
   26.4524  -23.0558  -19.0844 C   0  0  0  0  0  0  0  0  0  0  0  0
   27.2410  -23.2383  -20.0390 O   0  0  0  0  0  0  0  0  0  0  0  0
   25.6304  -24.1200  -18.5348 C   0  0  0  0  0  0  0  0  0  0  0  0
   24.7810  -23.8121  -17.3695 C   0  0  0  0  0  0  0  0  0  0  0  0
   25.4508  -23.6446  -16.0405 C   0  0  2  0  0  0  0  0  0  0  0  0
   26.0732  -24.7953  -15.4905 N   0  0  0  0  0  0  0  0  0  0  0  0
   24.4476  -23.1102  -15.0816 C   0  0  0  0  0  0  0  0  0  0  0  0
   23.9393  -23.9409  -14.2336 O   0  0  0  0  0  0  0  0  0  0  0  0
   25.9802  -20.8883   -8.2597 O   0  0  0  0  0  0  0  0  0  0  0  0
   25.4288  -20.6825   -9.5322 C   0  0  0  0  0  0  0  0  0  0  0  0
   24.1082  -20.3253   -9.6865 C   0  0  0  0  0  0  0  0  0  0  0  0
   23.5622  -20.1217  -10.9420 C   0  0  0  0  0  0  0  0  0  0  0  0
   24.3120  -20.2665  -12.0924 C   0  0  0  0  0  0  0  0  0  0  0  0
   23.7201  -20.0506  -13.4314 C   0  0  0  0  0  0  0  0  0  0  0  0
   23.1065  -21.3062  -14.0090 C   0  0  2  0  0  0  0  0  0  0  0  0
   24.0269  -21.7728  -15.0423 N   0  0  0  0  0  0  0  0  0  0  0  0
   21.7703  -21.1129  -14.5732 C   0  0  0  0  0  0  0  0  0  0  0  0
   21.5837  -20.5046  -15.6722 O   0  0  0  0  0  0  0  0  0  0  0  0
   25.6333  -20.6245  -11.9207 C   0  0  0  0  0  0  0  0  0  0  0  0
   26.1897  -20.8303  -10.6752 C   0  0  0  0  0  0  0  0  0  0  0  0
   18.7539  -23.1466  -16.6519 C   0  0  0  0  0  0  0  0  0  0  0  0
   18.6076  -23.5357  -15.1925 C   0  0  2  0  0  0  0  0  0  0  0  0
   17.7596  -24.7370  -15.0567 C   0  0  0  0  0  0  0  0  0  0  0  0
   18.3801  -22.4008  -14.2776 C   0  0  0  0  0  0  0  0  0  0  0  0
   19.2818  -21.2273  -14.3389 C   0  0  2  0  0  0  0  0  0  0  0  0
   20.6412  -21.6166  -13.8803 N   0  0  0  0  0  0  0  0  0  0  0  0
   18.8561  -20.0058  -13.6432 C   0  0  0  0  0  0  0  0  0  0  0  0
   17.7786  -19.4362  -14.0537 O   0  0  0  0  0  0  0  0  0  0  0  0
   19.4698  -19.3878  -12.5919 O   0  0  0  0  0  0  0  0  0  0  0  0
  1  2  1  0
  2  3  2  0
  2  4  1  0
  4  5  1  0
  6  7  1  1
  6  5  1  0
  8  6  1  0
  9  8  2  0
 10 11  1  0
 11 12  2  0
 11 21  1  0
 12 13  1  0
 13 14  2  0
 14 15  1  0
 16 15  1  6
 16 17  1  0
 17  8  1  0
 18 27  1  0
 18 16  1  0
 19 18  2  0
 20 14  1  0
 21 20  2  0
 23 22  1  6
 23 25  1  0
 24 23  1  0
 26 25  1  1
 26 27  1  0
 28 26  1  0
 28 30  1  0
 29 28  2  0
M  END
$$$$
