QYL.pdb
     RDKit          3D

 30 30  0  0  1  0  0  0  0  0999 V2000
   28.7735  -20.3508  -18.1889 N   0  0  0  0  0  0  0  0  0  0  0  0
   29.2041  -19.0470  -18.5557 C   0  0  0  0  0  0  0  0  0  0  0  0
   29.7433  -18.9147  -19.6774 O   0  0  0  0  0  0  0  0  0  0  0  0
   29.0148  -17.9331  -17.6429 C   0  0  0  0  0  0  0  0  0  0  0  0
   27.9016  -18.0049  -16.6786 C   0  0  0  0  0  0  0  0  0  0  0  0
   26.5212  -18.2200  -17.2185 C   0  0  2  0  0  0  0  0  0  0  0  0
   25.9797  -17.1794  -18.0172 N   0  0  0  0  0  0  0  0  0  0  0  0
   25.6147  -18.4964  -16.0726 C   0  0  0  0  0  0  0  0  0  0  0  0
   25.2486  -17.4892  -15.3520 O   0  0  0  0  0  0  0  0  0  0  0  0
   19.3381  -16.9575  -17.1057 O   0  0  0  0  0  0  0  0  0  0  0  0
   20.2606  -17.8658  -16.5678 C   0  0  0  0  0  0  0  0  0  0  0  0
   20.3421  -18.0776  -15.2099 C   0  0  0  0  0  0  0  0  0  0  0  0
   21.2524  -18.9739  -14.6770 C   0  0  0  0  0  0  0  0  0  0  0  0
   22.1168  -19.6937  -15.4777 C   0  0  0  0  0  0  0  0  0  0  0  0
   23.0897  -20.6476  -14.9003 C   0  0  0  0  0  0  0  0  0  0  0  0
   24.3887  -19.9863  -14.4976 C   0  0  2  0  0  0  0  0  0  0  0  0
   25.1374  -19.7707  -15.7327 N   0  0  0  0  0  0  0  0  0  0  0  0
   25.1881  -20.7663  -13.5524 C   0  0  0  0  0  0  0  0  0  0  0  0
   26.1026  -21.5594  -13.9362 O   0  0  0  0  0  0  0  0  0  0  0  0
   22.0225  -19.4703  -16.8359 C   0  0  0  0  0  0  0  0  0  0  0  0
   21.1198  -18.5799  -17.3797 C   0  0  0  0  0  0  0  0  0  0  0  0
   28.0977  -20.7793   -9.1306 C   0  0  0  0  0  0  0  0  0  0  0  0
   28.4108  -20.9178  -10.6090 C   0  0  2  0  0  0  0  0  0  0  0  0
   29.7336  -20.3384  -10.9173 C   0  0  0  0  0  0  0  0  0  0  0  0
   27.2781  -20.6138  -11.5043 C   0  0  0  0  0  0  0  0  0  0  0  0
   25.9429  -21.1795  -11.2029 C   0  0  2  0  0  0  0  0  0  0  0  0
   24.9432  -20.6408  -12.1621 N   0  0  0  0  0  0  0  0  0  0  0  0
   25.4383  -21.0374   -9.8309 C   0  0  0  0  0  0  0  0  0  0  0  0
   24.8579  -19.9311   -9.5256 O   0  0  0  0  0  0  0  0  0  0  0  0
   25.5055  -21.9511   -8.8187 O   0  0  0  0  0  0  0  0  0  0  0  0
  1  2  1  0
  2  3  2  0
  2  4  1  0
  4  5  1  0
  6  7  1  1
  6  5  1  0
  8  6  1  0
  9  8  2  0
 10 11  1  0
 11 12  2  0
 11 21  1  0
 12 13  1  0
 13 14  2  0
 14 15  1  0
 16 15  1  6
 16 17  1  0
 17  8  1  0
 18 27  1  0
 18 16  1  0
 19 18  2  0
 20 14  1  0
 21 20  2  0
 23 22  1  1
 23 25  1  0
 24 23  1  0
 26 25  1  1
 26 27  1  0
 28 26  1  0
 28 30  1  0
 29 28  2  0
M  END
$$$$
