QYL.pdb
     RDKit          3D

 30 30  0  0  1  0  0  0  0  0999 V2000
   19.5985  -17.9836  -15.4230 N   0  0  0  0  0  0  0  0  0  0  0  0
   20.5317  -18.8374  -14.7748 C   0  0  0  0  0  0  0  0  0  0  0  0
   20.2285  -19.2603  -13.6365 O   0  0  0  0  0  0  0  0  0  0  0  0
   21.7799  -19.1849  -15.4313 C   0  0  0  0  0  0  0  0  0  0  0  0
   22.0614  -18.5902  -16.7508 C   0  0  0  0  0  0  0  0  0  0  0  0
   23.2086  -17.6332  -16.8565 C   0  0  2  0  0  0  0  0  0  0  0  0
   23.4202  -17.0288  -18.1229 N   0  0  0  0  0  0  0  0  0  0  0  0
   24.4429  -18.3423  -16.4264 C   0  0  0  0  0  0  0  0  0  0  0  0
   24.9075  -19.2524  -17.2160 O   0  0  0  0  0  0  0  0  0  0  0  0
   28.8752  -14.4214  -18.9906 O   0  0  0  0  0  0  0  0  0  0  0  0
   28.5065  -15.2233  -17.9014 C   0  0  0  0  0  0  0  0  0  0  0  0
   27.6327  -14.7632  -16.9422 C   0  0  0  0  0  0  0  0  0  0  0  0
   27.2675  -15.5536  -15.8661 C   0  0  0  0  0  0  0  0  0  0  0  0
   27.7598  -16.8335  -15.7048 C   0  0  0  0  0  0  0  0  0  0  0  0
   27.3675  -17.6711  -14.5497 C   0  0  0  0  0  0  0  0  0  0  0  0
   26.3844  -18.7580  -14.9225 C   0  0  2  0  0  0  0  0  0  0  0  0
   25.1261  -18.0832  -15.2292 N   0  0  0  0  0  0  0  0  0  0  0  0
   26.1776  -19.7606  -13.8771 C   0  0  0  0  0  0  0  0  0  0  0  0
   27.1249  -20.4842  -13.4396 O   0  0  0  0  0  0  0  0  0  0  0  0
   28.6340  -17.2797  -16.6744 C   0  0  0  0  0  0  0  0  0  0  0  0
   29.0059  -16.5022  -17.7516 C   0  0  0  0  0  0  0  0  0  0  0  0
   24.0482  -21.0938   -9.1911 C   0  0  0  0  0  0  0  0  0  0  0  0
   25.4671  -21.0191   -9.7239 C   0  0  2  0  0  0  0  0  0  0  0  0
   26.4037  -20.6170   -8.6554 C   0  0  0  0  0  0  0  0  0  0  0  0
   25.5890  -20.3828  -11.0495 C   0  0  0  0  0  0  0  0  0  0  0  0
   24.7153  -20.8374  -12.1557 C   0  0  2  0  0  0  0  0  0  0  0  0
   24.8833  -19.9384  -13.3276 N   0  0  0  0  0  0  0  0  0  0  0  0
   23.2859  -21.0103  -11.8659 C   0  0  0  0  0  0  0  0  0  0  0  0
   22.5333  -19.9717  -11.9602 O   0  0  0  0  0  0  0  0  0  0  0  0
   22.6409  -22.1582  -11.5052 O   0  0  0  0  0  0  0  0  0  0  0  0
  1  2  1  0
  2  3  2  0
  2  4  1  0
  4  5  1  0
  6  7  1  6
  6  5  1  0
  8  6  1  0
  9  8  2  0
 10 11  1  0
 11 12  2  0
 11 21  1  0
 12 13  1  0
 13 14  2  0
 14 15  1  0
 16 15  1  1
 16 17  1  0
 17  8  1  0
 18 27  1  0
 18 16  1  0
 19 18  2  0
 20 14  1  0
 21 20  2  0
 23 22  1  1
 23 25  1  0
 24 23  1  0
 26 25  1  1
 26 27  1  0
 28 26  1  0
 28 30  1  0
 29 28  2  0
M  END
$$$$
