QYL.pdb
     RDKit          3D

 30 30  0  0  1  0  0  0  0  0999 V2000
   28.8958  -19.7737  -17.8358 N   0  0  0  0  0  0  0  0  0  0  0  0
   28.7532  -20.4935  -19.0529 C   0  0  0  0  0  0  0  0  0  0  0  0
   29.6063  -20.2875  -19.9453 O   0  0  0  0  0  0  0  0  0  0  0  0
   27.6496  -21.4220  -19.2256 C   0  0  0  0  0  0  0  0  0  0  0  0
   26.7616  -21.6693  -18.0747 C   0  0  0  0  0  0  0  0  0  0  0  0
   27.2995  -22.4830  -16.9382 C   0  0  2  0  0  0  0  0  0  0  0  0
   27.5846  -23.8466  -17.2092 N   0  0  0  0  0  0  0  0  0  0  0  0
   26.3403  -22.3864  -15.8060 C   0  0  0  0  0  0  0  0  0  0  0  0
   25.4786  -23.3397  -15.6781 O   0  0  0  0  0  0  0  0  0  0  0  0
   23.1423  -20.6530   -7.7427 O   0  0  0  0  0  0  0  0  0  0  0  0
   23.8646  -20.6415   -8.9442 C   0  0  0  0  0  0  0  0  0  0  0  0
   25.1285  -21.1821   -9.0202 C   0  0  0  0  0  0  0  0  0  0  0  0
   25.8431  -21.1716  -10.2056 C   0  0  0  0  0  0  0  0  0  0  0  0
   25.3251  -20.6213  -11.3611 C   0  0  0  0  0  0  0  0  0  0  0  0
   26.0967  -20.6106  -12.6238 C   0  0  0  0  0  0  0  0  0  0  0  0
   25.4030  -21.3594  -13.7395 C   0  0  2  0  0  0  0  0  0  0  0  0
   26.3171  -21.3349  -14.8782 N   0  0  0  0  0  0  0  0  0  0  0  0
   24.1070  -20.7971  -14.1206 C   0  0  0  0  0  0  0  0  0  0  0  0
   23.9941  -19.6263  -14.5991 O   0  0  0  0  0  0  0  0  0  0  0  0
   24.0578  -20.0839  -11.2685 C   0  0  0  0  0  0  0  0  0  0  0  0
   23.3350  -20.0880  -10.0934 C   0  0  0  0  0  0  0  0  0  0  0  0
   20.6483  -21.5457  -17.9988 C   0  0  0  0  0  0  0  0  0  0  0  0
   21.1478  -20.7963  -16.7775 C   0  0  2  0  0  0  0  0  0  0  0  0
   22.3876  -20.0579  -17.0910 C   0  0  0  0  0  0  0  0  0  0  0  0
   21.0794  -21.5641  -15.5194 C   0  0  0  0  0  0  0  0  0  0  0  0
   21.6154  -20.9667  -14.2746 C   0  0  2  0  0  0  0  0  0  0  0  0
   22.9337  -21.5748  -13.9552 N   0  0  0  0  0  0  0  0  0  0  0  0
   20.7568  -20.9934  -13.0832 C   0  0  0  0  0  0  0  0  0  0  0  0
   19.6477  -20.3446  -13.1386 O   0  0  0  0  0  0  0  0  0  0  0  0
   20.9898  -21.6360  -11.9015 O   0  0  0  0  0  0  0  0  0  0  0  0
  1  2  1  0
  2  3  2  0
  2  4  1  0
  4  5  1  0
  6  7  1  6
  6  5  1  0
  8  6  1  0
  9  8  2  0
 10 11  1  0
 11 12  2  0
 11 21  1  0
 12 13  1  0
 13 14  2  0
 14 15  1  0
 16 15  1  1
 16 17  1  0
 17  8  1  0
 18 27  1  0
 18 16  1  0
 19 18  2  0
 20 14  1  0
 21 20  2  0
 23 22  1  6
 23 25  1  0
 24 23  1  0
 26 25  1  6
 26 27  1  0
 28 26  1  0
 28 30  1  0
 29 28  2  0
M  END
$$$$
