PKA.pdb
     RDKit          3D

 22 22  0  0  1  0  0  0  0  0999 V2000
    8.5639  -15.1173   20.0004 N   0  0  0  0  0  0  0  0  0  0  0  0
    8.3442  -14.6431   18.6288 C   0  0  0  0  0  0  0  0  0  0  0  0
    7.1672  -13.7216   18.8458 C   0  0  0  0  0  0  0  0  0  0  0  0
    7.6030  -12.9584   20.0944 C   0  0  0  0  0  0  0  0  0  0  0  0
    8.5617  -13.8839   20.7672 C   0  0  1  0  0  0  0  0  0  0  0  0
    8.1135  -14.2055   22.1327 C   0  0  0  0  0  0  0  0  0  0  0  0
    7.7860  -13.3253   22.9775 O   0  0  0  0  0  0  0  0  0  0  0  0
    8.0381  -15.5615   22.5380 N   0  0  0  0  0  0  0  0  0  0  0  0
    7.6257  -15.8945   23.8880 C   0  0  1  0  0  0  0  0  0  0  0  0
    7.5248  -17.4025   23.9344 C   0  0  0  0  0  0  0  0  0  0  0  0
    7.1839  -17.9397   25.2884 C   0  0  0  0  0  0  0  0  0  0  0  0
    7.0795  -19.4454   25.2278 C   0  0  0  0  0  0  0  0  0  0  0  0
    6.7072  -20.0385   26.5598 C   0  0  0  0  0  0  0  0  0  0  0  0
    6.6968  -21.5044   26.5009 N   0  0  0  0  0  0  0  0  0  0  0  0
    8.6168  -15.3417   24.8247 C   0  0  0  0  0  0  0  0  0  0  0  0
    9.8678  -15.5369   24.6990 O   0  0  0  0  0  0  0  0  0  0  0  0
    8.7857  -12.6279   27.3703 C   0  0  0  0  0  0  0  0  0  0  0  0
    9.1892  -13.9930   26.8756 C   0  0  2  0  0  0  0  0  0  0  0  0
    8.2338  -14.5475   25.9380 N   0  0  0  0  0  0  0  0  0  0  0  0
    9.4716  -14.9323   27.9919 C   0  0  0  0  0  0  0  0  0  0  0  0
   10.3090  -14.7168   28.8967 O   0  0  0  0  0  0  0  0  0  0  0  0
    8.7583  -16.1220   28.0278 O   0  0  0  0  0  0  0  0  0  0  0  0
  1  5  1  0
  2  1  1  0
  2  3  1  0
  3  4  1  0
  4  5  1  0
  5  6  1  1
  6  7  2  0
  8  9  1  0
  8  6  1  0
  9 15  1  0
  9 10  1  6
 11 10  1  0
 11 12  1  0
 13 12  1  0
 14 13  1  0
 15 16  2  0
 18 17  1  1
 18 20  1  0
 19 15  1  0
 19 18  1  0
 20 21  2  0
 20 22  1  0
M  END
$$$$
