PKA.pdb
     RDKit          3D

 22 22  0  0  1  0  0  0  0  0999 V2000
    8.5749  -15.1215   19.9695 N   0  0  0  0  0  0  0  0  0  0  0  0
    8.3349  -14.6283   18.6081 C   0  0  0  0  0  0  0  0  0  0  0  0
    7.1869  -13.6800   18.8618 C   0  0  0  0  0  0  0  0  0  0  0  0
    7.6710  -12.9404   20.1067 C   0  0  0  0  0  0  0  0  0  0  0  0
    8.6217  -13.8961   20.7477 C   0  0  1  0  0  0  0  0  0  0  0  0
    8.1979  -14.2201   22.1205 C   0  0  0  0  0  0  0  0  0  0  0  0
    7.9367  -13.3403   22.9885 O   0  0  0  0  0  0  0  0  0  0  0  0
    8.0700  -15.5780   22.5060 N   0  0  0  0  0  0  0  0  0  0  0  0
    7.5709  -15.9147   23.8254 C   0  0  1  0  0  0  0  0  0  0  0  0
    7.4904  -17.4240   23.8694 C   0  0  0  0  0  0  0  0  0  0  0  0
    7.0625  -17.9637   25.1975 C   0  0  0  0  0  0  0  0  0  0  0  0
    7.0052  -19.4720   25.1402 C   0  0  0  0  0  0  0  0  0  0  0  0
    6.6580  -20.0739   26.4750 C   0  0  0  0  0  0  0  0  0  0  0  0
    6.8198  -21.5319   26.4552 N   0  0  0  0  0  0  0  0  0  0  0  0
    8.4867  -15.3446   24.8263 C   0  0  0  0  0  0  0  0  0  0  0  0
    9.7392  -15.5685   24.8213 O   0  0  0  0  0  0  0  0  0  0  0  0
    8.3629  -12.6233   27.4205 C   0  0  0  0  0  0  0  0  0  0  0  0
    8.9067  -13.9105   26.8560 C   0  0  2  0  0  0  0  0  0  0  0  0
    8.0237  -14.5003   25.8702 N   0  0  0  0  0  0  0  0  0  0  0  0
    9.2664  -14.8815   27.9218 C   0  0  0  0  0  0  0  0  0  0  0  0
    8.7376  -16.0081   28.0535 O   0  0  0  0  0  0  0  0  0  0  0  0
   10.2519  -14.5095   28.8251 O   0  0  0  0  0  0  0  0  0  0  0  0
  1  5  1  0
  2  1  1  0
  2  3  1  0
  3  4  1  0
  4  5  1  0
  5  6  1  1
  6  7  2  0
  8  9  1  0
  8  6  1  0
  9 15  1  0
  9 10  1  6
 11 10  1  0
 11 12  1  0
 13 12  1  0
 14 13  1  0
 15 16  2  0
 18 17  1  1
 18 20  1  0
 19 15  1  0
 19 18  1  0
 20 21  2  0
 20 22  1  0
M  END
$$$$
