PKA.pdb
     RDKit          3D

 22 22  0  0  1  0  0  0  0  0999 V2000
    8.4463  -14.9803   19.9671 N   0  0  0  0  0  0  0  0  0  0  0  0
    8.1363  -14.4330   18.6411 C   0  0  0  0  0  0  0  0  0  0  0  0
    6.9799  -13.5247   18.9863 C   0  0  0  0  0  0  0  0  0  0  0  0
    7.5016  -12.8298   20.2418 C   0  0  0  0  0  0  0  0  0  0  0  0
    8.5002  -13.7900   20.7975 C   0  0  1  0  0  0  0  0  0  0  0  0
    8.1441  -14.1847   22.1710 C   0  0  0  0  0  0  0  0  0  0  0  0
    7.8850  -13.3511   23.0840 O   0  0  0  0  0  0  0  0  0  0  0  0
    8.0826  -15.5608   22.5046 N   0  0  0  0  0  0  0  0  0  0  0  0
    7.7094  -15.9672   23.8459 C   0  0  1  0  0  0  0  0  0  0  0  0
    7.6718  -17.4787   23.8296 C   0  0  0  0  0  0  0  0  0  0  0  0
    7.3466  -18.0853   25.1579 C   0  0  0  0  0  0  0  0  0  0  0  0
    7.2420  -19.5859   25.0210 C   0  0  0  0  0  0  0  0  0  0  0  0
    6.7544  -20.2348   26.2882 C   0  0  0  0  0  0  0  0  0  0  0  0
    6.5814  -21.6806   26.1087 N   0  0  0  0  0  0  0  0  0  0  0  0
    8.6941  -15.4130   24.7886 C   0  0  0  0  0  0  0  0  0  0  0  0
    9.9487  -15.4609   24.5822 O   0  0  0  0  0  0  0  0  0  0  0  0
    8.7295  -13.0799   27.7180 C   0  0  0  0  0  0  0  0  0  0  0  0
    9.2505  -14.2801   26.9702 C   0  0  2  0  0  0  0  0  0  0  0  0
    8.3002  -14.7836   25.9993 N   0  0  0  0  0  0  0  0  0  0  0  0
    9.7183  -15.3516   27.8874 C   0  0  0  0  0  0  0  0  0  0  0  0
    9.2447  -16.5097   27.9144 O   0  0  0  0  0  0  0  0  0  0  0  0
   10.7456  -15.0421   28.7674 O   0  0  0  0  0  0  0  0  0  0  0  0
  1  5  1  0
  2  1  1  0
  2  3  1  0
  3  4  1  0
  4  5  1  0
  5  6  1  1
  6  7  2  0
  8  9  1  0
  8  6  1  0
  9 15  1  0
  9 10  1  6
 11 10  1  0
 11 12  1  0
 13 12  1  0
 14 13  1  0
 15 16  2  0
 18 17  1  1
 18 20  1  0
 19 15  1  0
 19 18  1  0
 20 21  2  0
 20 22  1  0
M  END
$$$$
