PKA.pdb
     RDKit          3D

 22 22  0  0  1  0  0  0  0  0999 V2000
    7.6044  -14.9508   19.7923 N   0  0  0  0  0  0  0  0  0  0  0  0
    7.7097  -14.0543   18.6350 C   0  0  0  0  0  0  0  0  0  0  0  0
    7.3299  -12.7398   19.2749 C   0  0  0  0  0  0  0  0  0  0  0  0
    8.1440  -12.7820   20.5659 C   0  0  0  0  0  0  0  0  0  0  0  0
    8.3516  -14.2392   20.8144 C   0  0  1  0  0  0  0  0  0  0  0  0
    7.8065  -14.6332   22.1247 C   0  0  0  0  0  0  0  0  0  0  0  0
    6.7487  -14.1410   22.6090 O   0  0  0  0  0  0  0  0  0  0  0  0
    8.4857  -15.6105   22.8943 N   0  0  0  0  0  0  0  0  0  0  0  0
    7.9948  -15.9680   24.2114 C   0  0  1  0  0  0  0  0  0  0  0  0
    7.9635  -17.4793   24.2499 C   0  0  0  0  0  0  0  0  0  0  0  0
    7.5957  -18.0379   25.5881 C   0  0  0  0  0  0  0  0  0  0  0  0
    7.5161  -19.5442   25.5071 C   0  0  0  0  0  0  0  0  0  0  0  0
    7.1534  -20.1613   26.8308 C   0  0  0  0  0  0  0  0  0  0  0  0
    7.0025  -21.6158   26.7119 N   0  0  0  0  0  0  0  0  0  0  0  0
    8.8891  -15.3719   25.2165 C   0  0  0  0  0  0  0  0  0  0  0  0
   10.1556  -15.3657   25.0950 O   0  0  0  0  0  0  0  0  0  0  0  0
    8.5220  -12.9119   28.0108 C   0  0  0  0  0  0  0  0  0  0  0  0
    9.2344  -14.0576   27.3392 C   0  0  2  0  0  0  0  0  0  0  0  0
    8.3880  -14.7602   26.3962 N   0  0  0  0  0  0  0  0  0  0  0  0
    9.8510  -14.9865   28.3216 C   0  0  0  0  0  0  0  0  0  0  0  0
    9.5688  -16.2025   28.4118 O   0  0  0  0  0  0  0  0  0  0  0  0
   10.7991  -14.4667   29.1913 O   0  0  0  0  0  0  0  0  0  0  0  0
  1  5  1  0
  2  1  1  0
  2  3  1  0
  3  4  1  0
  4  5  1  0
  5  6  1  1
  6  7  2  0
  8  9  1  0
  8  6  1  0
  9 15  1  0
  9 10  1  6
 11 10  1  0
 11 12  1  0
 13 12  1  0
 14 13  1  0
 15 16  2  0
 18 17  1  1
 18 20  1  0
 19 15  1  0
 19 18  1  0
 20 21  2  0
 20 22  1  0
M  END
$$$$
