PKA.pdb
     RDKit          3D

 22 22  0  0  1  0  0  0  0  0999 V2000
    8.9503  -14.7268   19.5885 N   0  0  0  0  0  0  0  0  0  0  0  0
    8.8795  -14.3100   18.1830 C   0  0  0  0  0  0  0  0  0  0  0  0
    7.4718  -13.7647   18.1324 C   0  0  0  0  0  0  0  0  0  0  0  0
    7.4208  -12.9318   19.4111 C   0  0  0  0  0  0  0  0  0  0  0  0
    8.4499  -13.5588   20.2919 C   0  0  1  0  0  0  0  0  0  0  0  0
    7.8516  -14.0189   21.5566 C   0  0  0  0  0  0  0  0  0  0  0  0
    6.9806  -13.3581   22.1893 O   0  0  0  0  0  0  0  0  0  0  0  0
    8.2582  -15.2603   22.1064 N   0  0  0  0  0  0  0  0  0  0  0  0
    7.7209  -15.7021   23.3790 C   0  0  1  0  0  0  0  0  0  0  0  0
    8.1609  -17.1395   23.5424 C   0  0  0  0  0  0  0  0  0  0  0  0
    9.5521  -17.2846   24.0729 C   0  0  0  0  0  0  0  0  0  0  0  0
    9.8646  -18.7463   24.2907 C   0  0  0  0  0  0  0  0  0  0  0  0
   11.2815  -18.9572   24.7515 C   0  0  0  0  0  0  0  0  0  0  0  0
   11.5186  -20.3611   25.1054 N   0  0  0  0  0  0  0  0  0  0  0  0
    8.2286  -14.8078   24.4316 C   0  0  0  0  0  0  0  0  0  0  0  0
    9.4379  -14.4147   24.4779 O   0  0  0  0  0  0  0  0  0  0  0  0
    6.7425  -12.5295   27.0214 C   0  0  0  0  0  0  0  0  0  0  0  0
    7.8518  -13.3984   26.4869 C   0  0  2  0  0  0  0  0  0  0  0  0
    7.3911  -14.3231   25.4711 N   0  0  0  0  0  0  0  0  0  0  0  0
    8.5881  -14.0971   27.5722 C   0  0  0  0  0  0  0  0  0  0  0  0
    8.6579  -15.3415   27.6857 O   0  0  0  0  0  0  0  0  0  0  0  0
    9.2373  -13.3146   28.5165 O   0  0  0  0  0  0  0  0  0  0  0  0
  1  5  1  0
  2  1  1  0
  2  3  1  0
  3  4  1  0
  4  5  1  0
  5  6  1  1
  6  7  2  0
  8  9  1  0
  8  6  1  0
  9 15  1  0
  9 10  1  1
 11 10  1  0
 11 12  1  0
 13 12  1  0
 14 13  1  0
 15 16  2  0
 18 17  1  1
 18 20  1  0
 19 15  1  0
 19 18  1  0
 20 21  2  0
 20 22  1  0
M  END
$$$$
