PKA.pdb
     RDKit          3D

 22 22  0  0  1  0  0  0  0  0999 V2000
    7.6910  -14.6415   19.6583 N   0  0  0  0  0  0  0  0  0  0  0  0
    7.6500  -13.5201   18.7122 C   0  0  0  0  0  0  0  0  0  0  0  0
    7.4827  -12.3637   19.6695 C   0  0  0  0  0  0  0  0  0  0  0  0
    8.5093  -12.7076   20.7461 C   0  0  0  0  0  0  0  0  0  0  0  0
    8.6562  -14.1896   20.6450 C   0  0  1  0  0  0  0  0  0  0  0  0
    8.3277  -14.8403   21.9247 C   0  0  0  0  0  0  0  0  0  0  0  0
    7.1495  -14.9304   22.3714 O   0  0  0  0  0  0  0  0  0  0  0  0
    9.3687  -15.3993   22.7073 N   0  0  0  0  0  0  0  0  0  0  0  0
    9.0614  -16.0536   23.9646 C   0  0  1  0  0  0  0  0  0  0  0  0
    9.6810  -17.4304   23.8820 C   0  0  0  0  0  0  0  0  0  0  0  0
    9.0693  -18.3017   22.8310 C   0  0  0  0  0  0  0  0  0  0  0  0
    9.7295  -19.6602   22.8476 C   0  0  0  0  0  0  0  0  0  0  0  0
    9.1108  -20.5997   21.8480 C   0  0  0  0  0  0  0  0  0  0  0  0
    9.7569  -21.9162   21.8902 N   0  0  0  0  0  0  0  0  0  0  0  0
    9.6001  -15.2303   25.0589 C   0  0  0  0  0  0  0  0  0  0  0  0
   10.7990  -14.8046   25.0753 O   0  0  0  0  0  0  0  0  0  0  0  0
    8.2769  -13.1777   27.8913 C   0  0  0  0  0  0  0  0  0  0  0  0
    9.3221  -14.0766   27.2825 C   0  0  2  0  0  0  0  0  0  0  0  0
    8.8062  -14.8561   26.1755 N   0  0  0  0  0  0  0  0  0  0  0  0
    9.9821  -14.9364   28.2991 C   0  0  0  0  0  0  0  0  0  0  0  0
   10.6000  -14.4985   29.2954 O   0  0  0  0  0  0  0  0  0  0  0  0
    9.9047  -16.3111   28.1270 O   0  0  0  0  0  0  0  0  0  0  0  0
  1  5  1  0
  2  1  1  0
  2  3  1  0
  3  4  1  0
  4  5  1  0
  5  6  1  1
  6  7  2  0
  8  9  1  0
  8  6  1  0
  9 15  1  0
  9 10  1  6
 11 10  1  0
 11 12  1  0
 13 12  1  0
 14 13  1  0
 15 16  2  0
 18 17  1  1
 18 20  1  0
 19 15  1  0
 19 18  1  0
 20 21  2  0
 20 22  1  0
M  END
$$$$
