PKA.pdb
     RDKit          3D

 22 22  0  0  1  0  0  0  0  0999 V2000
    7.5505  -15.1709   19.1855 N   0  0  0  0  0  0  0  0  0  0  0  0
    7.8406  -14.3408   18.0104 C   0  0  0  0  0  0  0  0  0  0  0  0
    7.5245  -12.9705   18.5617 C   0  0  0  0  0  0  0  0  0  0  0  0
    8.2112  -13.0238   19.9244 C   0  0  0  0  0  0  0  0  0  0  0  0
    8.2631  -14.4805   20.2460 C   0  0  1  0  0  0  0  0  0  0  0  0
    7.5681  -14.7656   21.5129 C   0  0  0  0  0  0  0  0  0  0  0  0
    6.3589  -14.4648   21.7202 O   0  0  0  0  0  0  0  0  0  0  0  0
    8.2718  -15.4083   22.5619 N   0  0  0  0  0  0  0  0  0  0  0  0
    7.6049  -15.6887   23.8190 C   0  0  1  0  0  0  0  0  0  0  0  0
    8.0597  -17.0695   24.2348 C   0  0  0  0  0  0  0  0  0  0  0  0
    7.5539  -17.4885   25.5788 C   0  0  0  0  0  0  0  0  0  0  0  0
    8.0414  -18.8828   25.8949 C   0  0  0  0  0  0  0  0  0  0  0  0
    7.4627  -19.4038   27.1825 C   0  0  0  0  0  0  0  0  0  0  0  0
    7.8607  -20.7967   27.4152 N   0  0  0  0  0  0  0  0  0  0  0  0
    7.9672  -14.6352   24.7804 C   0  0  0  0  0  0  0  0  0  0  0  0
    9.1590  -14.2135   24.9242 O   0  0  0  0  0  0  0  0  0  0  0  0
    6.1709  -12.1322   26.9573 C   0  0  0  0  0  0  0  0  0  0  0  0
    7.3374  -13.0212   26.6110 C   0  0  2  0  0  0  0  0  0  0  0  0
    6.9984  -14.0178   25.6155 N   0  0  0  0  0  0  0  0  0  0  0  0
    7.9502  -13.6361   27.8171 C   0  0  0  0  0  0  0  0  0  0  0  0
    7.9599  -14.8654   28.0511 O   0  0  0  0  0  0  0  0  0  0  0  0
    8.5480  -12.7880   28.7384 O   0  0  0  0  0  0  0  0  0  0  0  0
  1  5  1  0
  2  1  1  0
  2  3  1  0
  3  4  1  0
  4  5  1  0
  5  6  1  1
  6  7  2  0
  8  9  1  0
  8  6  1  0
  9 15  1  0
  9 10  1  1
 11 10  1  0
 11 12  1  0
 13 12  1  0
 14 13  1  0
 15 16  2  0
 18 17  1  1
 18 20  1  0
 19 15  1  0
 19 18  1  0
 20 21  2  0
 20 22  1  0
M  END
$$$$
