PKA.pdb
     RDKit          3D

 22 22  0  0  1  0  0  0  0  0999 V2000
    8.7765  -15.0235   19.9402 N   0  0  0  0  0  0  0  0  0  0  0  0
    8.8413  -14.6639   18.5187 C   0  0  0  0  0  0  0  0  0  0  0  0
    7.5090  -13.9717   18.3532 C   0  0  0  0  0  0  0  0  0  0  0  0
    7.4706  -13.0825   19.5938 C   0  0  0  0  0  0  0  0  0  0  0  0
    8.3659  -13.7781   20.5646 C   0  0  1  0  0  0  0  0  0  0  0  0
    7.6416  -14.1142   21.8022 C   0  0  0  0  0  0  0  0  0  0  0  0
    6.9913  -13.2651   22.4742 O   0  0  0  0  0  0  0  0  0  0  0  0
    7.6619  -15.4490   22.2784 N   0  0  0  0  0  0  0  0  0  0  0  0
    7.1597  -15.7551   23.6041 C   0  0  1  0  0  0  0  0  0  0  0  0
    7.4039  -17.2326   23.8130 C   0  0  0  0  0  0  0  0  0  0  0  0
    6.9653  -17.7297   25.1540 C   0  0  0  0  0  0  0  0  0  0  0  0
    7.2842  -19.2006   25.2817 C   0  0  0  0  0  0  0  0  0  0  0  0
    6.9522  -19.7326   26.6496 C   0  0  0  0  0  0  0  0  0  0  0  0
    7.1109  -21.1902   26.7024 N   0  0  0  0  0  0  0  0  0  0  0  0
    7.8615  -14.8995   24.5741 C   0  0  0  0  0  0  0  0  0  0  0  0
    9.1297  -14.8630   24.6700 O   0  0  0  0  0  0  0  0  0  0  0  0
    7.0149  -11.9977   26.8125 C   0  0  0  0  0  0  0  0  0  0  0  0
    7.8249  -13.2154   26.4489 C   0  0  2  0  0  0  0  0  0  0  0  0
    7.1588  -14.0528   25.4721 N   0  0  0  0  0  0  0  0  0  0  0  0
    8.2378  -13.9914   27.6471 C   0  0  0  0  0  0  0  0  0  0  0  0
    8.9827  -13.5473   28.5494 O   0  0  0  0  0  0  0  0  0  0  0  0
    7.7640  -15.2901   27.7672 O   0  0  0  0  0  0  0  0  0  0  0  0
  1  5  1  0
  2  1  1  0
  2  3  1  0
  3  4  1  0
  4  5  1  0
  5  6  1  1
  6  7  2  0
  8  9  1  0
  8  6  1  0
  9 15  1  0
  9 10  1  1
 11 10  1  0
 11 12  1  0
 13 12  1  0
 14 13  1  0
 15 16  2  0
 18 17  1  1
 18 20  1  0
 19 15  1  0
 19 18  1  0
 20 21  2  0
 20 22  1  0
M  END
$$$$
