PKA.pdb
     RDKit          3D

 22 22  0  0  1  0  0  0  0  0999 V2000
    8.6605  -14.9045   20.2870 N   0  0  0  0  0  0  0  0  0  0  0  0
    8.4989  -14.3475   18.9387 C   0  0  0  0  0  0  0  0  0  0  0  0
    7.3144  -13.4371   19.1617 C   0  0  0  0  0  0  0  0  0  0  0  0
    7.6979  -12.7523   20.4713 C   0  0  0  0  0  0  0  0  0  0  0  0
    8.6268  -13.7198   21.1264 C   0  0  1  0  0  0  0  0  0  0  0  0
    8.1215  -14.1219   22.4500 C   0  0  0  0  0  0  0  0  0  0  0  0
    7.5808  -13.3148   23.2573 O   0  0  0  0  0  0  0  0  0  0  0  0
    8.2370  -15.4749   22.8561 N   0  0  0  0  0  0  0  0  0  0  0  0
    7.8515  -15.8660   24.1984 C   0  0  1  0  0  0  0  0  0  0  0  0
    7.6107  -17.3579   24.1464 C   0  0  0  0  0  0  0  0  0  0  0  0
    6.3750  -17.7405   23.3952 C   0  0  0  0  0  0  0  0  0  0  0  0
    6.3052  -19.2434   23.2605 C   0  0  0  0  0  0  0  0  0  0  0  0
    5.1022  -19.6832   22.4707 C   0  0  0  0  0  0  0  0  0  0  0  0
    5.1040  -21.1367   22.2708 N   0  0  0  0  0  0  0  0  0  0  0  0
    8.9285  -15.4753   25.1219 C   0  0  0  0  0  0  0  0  0  0  0  0
   10.1613  -15.6303   24.8480 O   0  0  0  0  0  0  0  0  0  0  0  0
    9.2769  -13.2643   28.1197 C   0  0  0  0  0  0  0  0  0  0  0  0
    9.6967  -14.4530   27.2938 C   0  0  2  0  0  0  0  0  0  0  0  0
    8.6551  -14.8948   26.3889 N   0  0  0  0  0  0  0  0  0  0  0  0
   10.2030  -15.5685   28.1349 C   0  0  0  0  0  0  0  0  0  0  0  0
    9.6962  -16.7124   28.1642 O   0  0  0  0  0  0  0  0  0  0  0  0
   11.3080  -15.3196   28.9365 O   0  0  0  0  0  0  0  0  0  0  0  0
  1  5  1  0
  2  1  1  0
  2  3  1  0
  3  4  1  0
  4  5  1  0
  5  6  1  1
  6  7  2  0
  8  9  1  0
  8  6  1  0
  9 15  1  0
  9 10  1  6
 11 10  1  0
 11 12  1  0
 13 12  1  0
 14 13  1  0
 15 16  2  0
 18 17  1  1
 18 20  1  0
 19 15  1  0
 19 18  1  0
 20 21  2  0
 20 22  1  0
M  END
$$$$
