PKA.pdb
     RDKit          3D

 22 22  0  0  1  0  0  0  0  0999 V2000
    8.5559  -15.0989   20.1773 N   0  0  0  0  0  0  0  0  0  0  0  0
    8.2852  -14.5936   18.8261 C   0  0  0  0  0  0  0  0  0  0  0  0
    7.1346  -13.6577   19.1121 C   0  0  0  0  0  0  0  0  0  0  0  0
    7.6370  -12.9270   20.3550 C   0  0  0  0  0  0  0  0  0  0  0  0
    8.6079  -13.8813   20.9673 C   0  0  1  0  0  0  0  0  0  0  0  0
    8.2138  -14.2230   22.3446 C   0  0  0  0  0  0  0  0  0  0  0  0
    7.9362  -13.3549   23.2192 O   0  0  0  0  0  0  0  0  0  0  0  0
    8.1354  -15.5855   22.7270 N   0  0  0  0  0  0  0  0  0  0  0  0
    7.6864  -15.9414   24.0593 C   0  0  1  0  0  0  0  0  0  0  0  0
    7.5550  -17.4478   24.0679 C   0  0  0  0  0  0  0  0  0  0  0  0
    7.1791  -18.0098   25.4024 C   0  0  0  0  0  0  0  0  0  0  0  0
    7.0817  -19.5145   25.3125 C   0  0  0  0  0  0  0  0  0  0  0  0
    6.7114  -20.1350   26.6325 C   0  0  0  0  0  0  0  0  0  0  0  0
    6.5933  -21.5928   26.5162 N   0  0  0  0  0  0  0  0  0  0  0  0
    8.6670  -15.4305   25.0304 C   0  0  0  0  0  0  0  0  0  0  0  0
    9.9182  -15.6312   24.9169 O   0  0  0  0  0  0  0  0  0  0  0  0
    8.6919  -12.8481   27.7568 C   0  0  0  0  0  0  0  0  0  0  0  0
    9.2220  -14.0930   27.0932 C   0  0  2  0  0  0  0  0  0  0  0  0
    8.2726  -14.6739   26.1657 N   0  0  0  0  0  0  0  0  0  0  0  0
    9.7055  -15.0917   28.0816 C   0  0  0  0  0  0  0  0  0  0  0  0
    9.2348  -16.2449   28.2029 O   0  0  0  0  0  0  0  0  0  0  0  0
   10.7452  -14.7158   28.9202 O   0  0  0  0  0  0  0  0  0  0  0  0
  1  5  1  0
  2  1  1  0
  2  3  1  0
  3  4  1  0
  4  5  1  0
  5  6  1  1
  6  7  2  0
  8  9  1  0
  8  6  1  0
  9 15  1  0
  9 10  1  6
 11 10  1  0
 11 12  1  0
 13 12  1  0
 14 13  1  0
 15 16  2  0
 18 17  1  1
 18 20  1  0
 19 15  1  0
 19 18  1  0
 20 21  2  0
 20 22  1  0
M  END
$$$$
