PKA.pdb
     RDKit          3D

 22 22  0  0  1  0  0  0  0  0999 V2000
    8.6439  -14.9150   20.1099 N   0  0  0  0  0  0  0  0  0  0  0  0
    8.4878  -14.3675   18.7571 C   0  0  0  0  0  0  0  0  0  0  0  0
    7.2844  -13.4779   18.9618 C   0  0  0  0  0  0  0  0  0  0  0  0
    7.6401  -12.7798   20.2724 C   0  0  0  0  0  0  0  0  0  0  0  0
    8.5789  -13.7270   20.9429 C   0  0  1  0  0  0  0  0  0  0  0  0
    8.0657  -14.1320   22.2626 C   0  0  0  0  0  0  0  0  0  0  0  0
    7.5976  -13.3130   23.1028 O   0  0  0  0  0  0  0  0  0  0  0  0
    8.0883  -15.5016   22.6264 N   0  0  0  0  0  0  0  0  0  0  0  0
    7.5974  -15.9162   23.9267 C   0  0  1  0  0  0  0  0  0  0  0  0
    7.4205  -17.4158   23.8483 C   0  0  0  0  0  0  0  0  0  0  0  0
    6.6202  -17.8647   22.6668 C   0  0  0  0  0  0  0  0  0  0  0  0
    5.5843  -18.8725   23.1061 C   0  0  0  0  0  0  0  0  0  0  0  0
    4.7358  -19.3460   21.9570 C   0  0  0  0  0  0  0  0  0  0  0  0
    3.8170  -20.4081   22.3813 N   0  0  0  0  0  0  0  0  0  0  0  0
    8.5698  -15.4906   24.9459 C   0  0  0  0  0  0  0  0  0  0  0  0
    9.8097  -15.7667   24.8735 O   0  0  0  0  0  0  0  0  0  0  0  0
    8.5708  -13.1866   27.9514 C   0  0  0  0  0  0  0  0  0  0  0  0
    9.1169  -14.3052   27.1019 C   0  0  2  0  0  0  0  0  0  0  0  0
    8.1797  -14.7372   26.0850 N   0  0  0  0  0  0  0  0  0  0  0  0
    9.6018  -15.4456   27.9220 C   0  0  0  0  0  0  0  0  0  0  0  0
    9.0943  -16.5895   27.9044 O   0  0  0  0  0  0  0  0  0  0  0  0
   10.6862  -15.2216   28.7583 O   0  0  0  0  0  0  0  0  0  0  0  0
  1  5  1  0
  2  1  1  0
  2  3  1  0
  3  4  1  0
  4  5  1  0
  5  6  1  1
  6  7  2  0
  8  9  1  0
  8  6  1  0
  9 15  1  0
  9 10  1  6
 11 10  1  0
 11 12  1  0
 13 12  1  0
 14 13  1  0
 15 16  2  0
 18 17  1  1
 18 20  1  0
 19 15  1  0
 19 18  1  0
 20 21  2  0
 20 22  1  0
M  END
$$$$
