PKA.pdb
     RDKit          3D

 22 22  0  0  1  0  0  0  0  0999 V2000
    8.4950  -14.9796   20.3112 N   0  0  0  0  0  0  0  0  0  0  0  0
    8.2661  -14.4627   18.9567 C   0  0  0  0  0  0  0  0  0  0  0  0
    7.1147  -13.5204   19.2170 C   0  0  0  0  0  0  0  0  0  0  0  0
    7.5870  -12.8024   20.4790 C   0  0  0  0  0  0  0  0  0  0  0  0
    8.5334  -13.7682   21.1113 C   0  0  1  0  0  0  0  0  0  0  0  0
    8.0981  -14.1169   22.4744 C   0  0  0  0  0  0  0  0  0  0  0  0
    7.6136  -13.2746   23.2815 O   0  0  0  0  0  0  0  0  0  0  0  0
    8.2194  -15.4565   22.9211 N   0  0  0  0  0  0  0  0  0  0  0  0
    7.8085  -15.8141   24.2653 C   0  0  1  0  0  0  0  0  0  0  0  0
    7.5785  -17.3085   24.2486 C   0  0  0  0  0  0  0  0  0  0  0  0
    6.5869  -17.7516   23.2198 C   0  0  0  0  0  0  0  0  0  0  0  0
    6.4146  -19.2506   23.2906 C   0  0  0  0  0  0  0  0  0  0  0  0
    5.3356  -19.7383   22.3618 C   0  0  0  0  0  0  0  0  0  0  0  0
    5.2825  -21.2043   22.3373 N   0  0  0  0  0  0  0  0  0  0  0  0
    8.8635  -15.3912   25.2000 C   0  0  0  0  0  0  0  0  0  0  0  0
   10.1010  -15.5836   24.9754 O   0  0  0  0  0  0  0  0  0  0  0  0
    9.1703  -13.1442   28.1949 C   0  0  0  0  0  0  0  0  0  0  0  0
    9.5787  -14.3426   27.3775 C   0  0  2  0  0  0  0  0  0  0  0  0
    8.5619  -14.7351   26.4229 N   0  0  0  0  0  0  0  0  0  0  0  0
   10.0015  -15.4841   28.2299 C   0  0  0  0  0  0  0  0  0  0  0  0
    9.4474  -16.6062   28.2270 O   0  0  0  0  0  0  0  0  0  0  0  0
   11.0797  -15.2868   29.0808 O   0  0  0  0  0  0  0  0  0  0  0  0
  1  5  1  0
  2  1  1  0
  2  3  1  0
  3  4  1  0
  4  5  1  0
  5  6  1  1
  6  7  2  0
  8  9  1  0
  8  6  1  0
  9 15  1  0
  9 10  1  6
 11 10  1  0
 11 12  1  0
 13 12  1  0
 14 13  1  0
 15 16  2  0
 18 17  1  1
 18 20  1  0
 19 15  1  0
 19 18  1  0
 20 21  2  0
 20 22  1  0
M  END
$$$$
