PKA.pdb
     RDKit          3D

 22 22  0  0  1  0  0  0  0  0999 V2000
    7.2688  -14.9550   19.6665 N   0  0  0  0  0  0  0  0  0  0  0  0
    6.7452  -14.3859   18.4190 C   0  0  0  0  0  0  0  0  0  0  0  0
    7.2311  -12.9613   18.5460 C   0  0  0  0  0  0  0  0  0  0  0  0
    8.6722  -13.1700   19.0052 C   0  0  0  0  0  0  0  0  0  0  0  0
    8.6512  -14.5097   19.6631 C   0  0  1  0  0  0  0  0  0  0  0  0
    9.0957  -14.4159   21.0641 C   0  0  0  0  0  0  0  0  0  0  0  0
   10.2932  -14.1878   21.3950 O   0  0  0  0  0  0  0  0  0  0  0  0
    8.1499  -14.5855   22.1059 N   0  0  0  0  0  0  0  0  0  0  0  0
    8.5470  -14.3888   23.4869 C   0  0  1  0  0  0  0  0  0  0  0  0
    7.3627  -13.7488   24.1755 C   0  0  0  0  0  0  0  0  0  0  0  0
    7.5976  -13.4541   25.6232 C   0  0  0  0  0  0  0  0  0  0  0  0
    6.4057  -12.7227   26.1943 C   0  0  0  0  0  0  0  0  0  0  0  0
    6.6118  -12.3500   27.6376 C   0  0  0  0  0  0  0  0  0  0  0  0
    5.4795  -11.5694   28.1485 N   0  0  0  0  0  0  0  0  0  0  0  0
    8.9211  -15.6952   24.0517 C   0  0  0  0  0  0  0  0  0  0  0  0
    8.1091  -16.6719   24.1262 O   0  0  0  0  0  0  0  0  0  0  0  0
   12.0725  -17.5528   24.7892 C   0  0  0  0  0  0  0  0  0  0  0  0
   10.6289  -17.2352   25.0833 C   0  0  2  0  0  0  0  0  0  0  0  0
   10.2254  -15.9486   24.5534 N   0  0  0  0  0  0  0  0  0  0  0  0
   10.3123  -17.3571   26.5300 C   0  0  0  0  0  0  0  0  0  0  0  0
   10.4733  -18.4025   27.1989 O   0  0  0  0  0  0  0  0  0  0  0  0
    9.8062  -16.2372   27.1744 O   0  0  0  0  0  0  0  0  0  0  0  0
  1  5  1  0
  2  1  1  0
  2  3  1  0
  3  4  1  0
  4  5  1  0
  5  6  1  1
  6  7  2  0
  8  9  1  0
  8  6  1  0
  9 15  1  0
  9 10  1  1
 11 10  1  0
 11 12  1  0
 13 12  1  0
 14 13  1  0
 15 16  2  0
 18 17  1  1
 18 20  1  0
 19 15  1  0
 19 18  1  0
 20 21  2  0
 20 22  1  0
M  END
$$$$
