PKA.pdb
     RDKit          3D

 22 22  0  0  1  0  0  0  0  0999 V2000
    8.4500  -15.1062   20.2088 N   0  0  0  0  0  0  0  0  0  0  0  0
    8.2653  -14.6401   18.8294 C   0  0  0  0  0  0  0  0  0  0  0  0
    7.1069  -13.6890   19.0174 C   0  0  0  0  0  0  0  0  0  0  0  0
    7.5392  -12.9244   20.2663 C   0  0  0  0  0  0  0  0  0  0  0  0
    8.4639  -13.8657   20.9641 C   0  0  1  0  0  0  0  0  0  0  0  0
    7.9848  -14.1635   22.3246 C   0  0  0  0  0  0  0  0  0  0  0  0
    7.5674  -13.2753   23.1198 O   0  0  0  0  0  0  0  0  0  0  0  0
    7.9830  -15.5048   22.7824 N   0  0  0  0  0  0  0  0  0  0  0  0
    7.5936  -15.8063   24.1466 C   0  0  1  0  0  0  0  0  0  0  0  0
    7.3942  -17.3041   24.2033 C   0  0  0  0  0  0  0  0  0  0  0  0
    6.2475  -17.7887   23.3736 C   0  0  0  0  0  0  0  0  0  0  0  0
    6.1343  -19.2906   23.4885 C   0  0  0  0  0  0  0  0  0  0  0  0
    5.1011  -19.8513   22.5490 C   0  0  0  0  0  0  0  0  0  0  0  0
    5.1754  -21.3156   22.4950 N   0  0  0  0  0  0  0  0  0  0  0  0
    8.6494  -15.3184   25.0481 C   0  0  0  0  0  0  0  0  0  0  0  0
    9.8879  -15.5028   24.8225 O   0  0  0  0  0  0  0  0  0  0  0  0
    9.0034  -12.9154   27.8989 C   0  0  0  0  0  0  0  0  0  0  0  0
    9.3604  -14.1965   27.1901 C   0  0  2  0  0  0  0  0  0  0  0  0
    8.3474  -14.6040   26.2378 N   0  0  0  0  0  0  0  0  0  0  0  0
    9.6911  -15.2892   28.1413 C   0  0  0  0  0  0  0  0  0  0  0  0
    9.0537  -16.3627   28.2273 O   0  0  0  0  0  0  0  0  0  0  0  0
   10.7766  -15.1012   28.9850 O   0  0  0  0  0  0  0  0  0  0  0  0
  1  5  1  0
  2  1  1  0
  2  3  1  0
  3  4  1  0
  4  5  1  0
  5  6  1  1
  6  7  2  0
  8  9  1  0
  8  6  1  0
  9 15  1  0
  9 10  1  6
 11 10  1  0
 11 12  1  0
 13 12  1  0
 14 13  1  0
 15 16  2  0
 18 17  1  1
 18 20  1  0
 19 15  1  0
 19 18  1  0
 20 21  2  0
 20 22  1  0
M  END
$$$$
