KFQ.pdb
     RDKit          3D

 30 30  0  0  1  0  0  0  0  0999 V2000
   27.8271  -22.1163  -15.5429 N   0  0  0  0  0  0  0  0  0  0  0  0
   27.8261  -20.9408  -14.6738 C   0  0  1  0  0  0  0  0  0  0  0  0
   26.9916  -19.8312  -15.3152 C   0  0  0  0  0  0  0  0  0  0  0  0
   27.5281  -19.6207  -16.7078 C   0  0  0  0  0  0  0  0  0  0  0  0
   26.8734  -18.4151  -17.3171 C   0  0  0  0  0  0  0  0  0  0  0  0
   27.4036  -18.1752  -18.6955 C   0  0  0  0  0  0  0  0  0  0  0  0
   26.6940  -17.0388  -19.2727 N   0  0  0  0  0  0  0  0  0  0  0  0
   27.0750  -21.3198  -13.4319 C   0  0  0  0  0  0  0  0  0  0  0  0
   26.0520  -22.0778  -13.4745 O   0  0  0  0  0  0  0  0  0  0  0  0
   27.4578  -20.8601  -12.1555 N   0  0  0  0  0  0  0  0  0  0  0  0
   26.6854  -21.1994  -10.9253 C   0  0  1  0  0  0  0  0  0  0  0  0
   27.6864  -21.0313   -9.8411 C   0  0  0  0  0  0  0  0  0  0  0  0
   27.2469  -20.6037   -8.5310 C   0  0  0  0  0  0  0  0  0  0  0  0
   27.5195  -19.3543   -7.9872 C   0  0  0  0  0  0  0  0  0  0  0  0
   27.0307  -18.9995   -6.7324 C   0  0  0  0  0  0  0  0  0  0  0  0
   26.2714  -19.8655   -6.0008 C   0  0  0  0  0  0  0  0  0  0  0  0
   25.9879  -21.0948   -6.5045 C   0  0  0  0  0  0  0  0  0  0  0  0
   26.4795  -21.4502   -7.7654 C   0  0  0  0  0  0  0  0  0  0  0  0
   25.5625  -20.2734  -10.9350 C   0  0  0  0  0  0  0  0  0  0  0  0
   25.7437  -19.0482  -11.1003 O   0  0  0  0  0  0  0  0  0  0  0  0
   22.8784  -18.5459  -14.9405 N   0  0  0  0  0  0  0  0  0  0  0  0
   22.5209  -19.8817  -14.6554 C   0  0  0  0  0  0  0  0  0  0  0  0
   22.1813  -20.6589  -15.5735 O   0  0  0  0  0  0  0  0  0  0  0  0
   22.5486  -20.3640  -13.2639 C   0  0  0  0  0  0  0  0  0  0  0  0
   23.0794  -19.2726  -12.3404 C   0  0  0  0  0  0  0  0  0  0  0  0
   23.1075  -19.7759  -10.8832 C   0  0  2  0  0  0  0  0  0  0  0  0
   24.2324  -20.7211  -10.7649 N   0  0  0  0  0  0  0  0  0  0  0  0
   21.8674  -20.5112  -10.5764 C   0  0  0  0  0  0  0  0  0  0  0  0
   20.6338  -19.8752  -10.5366 O   0  0  0  0  0  0  0  0  0  0  0  0
   21.8566  -21.7531  -10.3328 O   0  0  0  0  0  0  0  0  0  0  0  0
  2  1  1  6
  2  8  1  0
  2  3  1  0
  3  4  1  0
  4  5  1  0
  5  6  1  0
  7  6  1  0
  8  9  2  0
 10 11  1  0
 10  8  1  0
 11 12  1  1
 12 13  1  0
 13 18  2  0
 13 14  1  0
 14 15  2  0
 15 16  1  0
 17 16  2  0
 18 17  1  0
 19 11  1  0
 20 19  2  0
 22 21  1  0
 22 23  2  0
 24 22  1  0
 26 25  1  6
 25 24  1  0
 26 27  1  0
 27 19  1  0
 28 29  1  0
 28 26  1  0
 30 28  2  0
M  END
$$$$
