KFQ.pdb
     RDKit          3D

 30 30  0  0  1  0  0  0  0  0999 V2000
   21.6700  -13.1453  -18.5164 N   0  0  0  0  0  0  0  0  0  0  0  0
   20.8767  -12.0399  -19.0508 C   0  0  1  0  0  0  0  0  0  0  0  0
   19.5460  -12.5752  -19.5816 C   0  0  0  0  0  0  0  0  0  0  0  0
   19.6575  -12.6313  -21.0836 C   0  0  0  0  0  0  0  0  0  0  0  0
   19.3256  -11.2849  -21.6587 C   0  0  0  0  0  0  0  0  0  0  0  0
   19.3133  -11.3457  -23.1536 C   0  0  0  0  0  0  0  0  0  0  0  0
   19.0915   -9.9992  -23.6694 N   0  0  0  0  0  0  0  0  0  0  0  0
   20.5057  -11.1693  -17.8869 C   0  0  0  0  0  0  0  0  0  0  0  0
   19.4793  -11.4108  -17.1720 O   0  0  0  0  0  0  0  0  0  0  0  0
   21.2686  -10.0416  -17.5220 N   0  0  0  0  0  0  0  0  0  0  0  0
   20.8748   -9.1482  -16.3942 C   0  0  1  0  0  0  0  0  0  0  0  0
   22.0852   -9.1373  -15.5336 C   0  0  0  0  0  0  0  0  0  0  0  0
   22.1731   -8.1871  -14.4465 C   0  0  0  0  0  0  0  0  0  0  0  0
   22.5327   -6.8541  -14.6040 C   0  0  0  0  0  0  0  0  0  0  0  0
   22.5597   -5.9881  -13.5138 C   0  0  0  0  0  0  0  0  0  0  0  0
   22.2347   -6.4208  -12.2614 C   0  0  0  0  0  0  0  0  0  0  0  0
   21.8794   -7.7186  -12.0743 C   0  0  0  0  0  0  0  0  0  0  0  0
   21.8527   -8.5879  -13.1705 C   0  0  0  0  0  0  0  0  0  0  0  0
   20.5106   -7.8934  -17.0354 C   0  0  0  0  0  0  0  0  0  0  0  0
   21.1469   -7.4708  -18.0243 O   0  0  0  0  0  0  0  0  0  0  0  0
   14.9984   -4.9245  -16.7852 N   0  0  0  0  0  0  0  0  0  0  0  0
   15.7973   -3.9586  -17.4350 C   0  0  0  0  0  0  0  0  0  0  0  0
   15.2911   -2.9000  -17.8654 O   0  0  0  0  0  0  0  0  0  0  0  0
   17.2401   -4.2002  -17.6071 C   0  0  0  0  0  0  0  0  0  0  0  0
   17.6064   -5.5853  -17.0845 C   0  0  0  0  0  0  0  0  0  0  0  0
   19.1279   -5.8101  -17.1943 C   0  0  2  0  0  0  0  0  0  0  0  0
   19.4273   -7.1123  -16.5719 N   0  0  0  0  0  0  0  0  0  0  0  0
   19.8502   -4.7723  -16.4366 C   0  0  0  0  0  0  0  0  0  0  0  0
   19.9829   -4.8374  -15.0561 O   0  0  0  0  0  0  0  0  0  0  0  0
   20.3850   -3.7710  -16.9963 O   0  0  0  0  0  0  0  0  0  0  0  0
  2  1  1  1
  2  8  1  0
  2  3  1  0
  3  4  1  0
  4  5  1  0
  5  6  1  0
  7  6  1  0
  8  9  2  0
 10 11  1  0
 10  8  1  0
 11 12  1  1
 12 13  1  0
 13 18  2  0
 13 14  1  0
 14 15  2  0
 15 16  1  0
 17 16  2  0
 18 17  1  0
 19 11  1  0
 20 19  2  0
 22 21  1  0
 22 23  2  0
 24 22  1  0
 26 25  1  1
 25 24  1  0
 26 27  1  0
 27 19  1  0
 28 29  1  0
 28 26  1  0
 30 28  2  0
M  END
$$$$
