KFQ.pdb
     RDKit          3D

 30 30  0  0  1  0  0  0  0  0999 V2000
   27.3583  -21.2188  -18.3366 N   0  0  0  0  0  0  0  0  0  0  0  0
   26.5989  -20.1865  -17.6334 C   0  0  1  0  0  0  0  0  0  0  0  0
   25.4296  -19.7280  -18.5059 C   0  0  0  0  0  0  0  0  0  0  0  0
   26.0156  -18.9861  -19.6797 C   0  0  0  0  0  0  0  0  0  0  0  0
   25.7339  -19.7482  -20.9419 C   0  0  0  0  0  0  0  0  0  0  0  0
   26.3298  -19.0436  -22.1197 C   0  0  0  0  0  0  0  0  0  0  0  0
   26.1225  -19.8680  -23.3053 N   0  0  0  0  0  0  0  0  0  0  0  0
   25.9600  -20.8487  -16.4487 C   0  0  0  0  0  0  0  0  0  0  0  0
   25.4734  -22.0238  -16.5216 O   0  0  0  0  0  0  0  0  0  0  0  0
   25.8632  -20.2103  -15.1957 N   0  0  0  0  0  0  0  0  0  0  0  0
   25.2178  -20.8633  -14.0201 C   0  0  1  0  0  0  0  0  0  0  0  0
   25.8992  -20.2268  -12.8641 C   0  0  0  0  0  0  0  0  0  0  0  0
   25.4150  -20.4858  -11.5258 C   0  0  0  0  0  0  0  0  0  0  0  0
   24.2065  -20.0122  -11.0293 C   0  0  0  0  0  0  0  0  0  0  0  0
   23.7887  -20.3339   -9.7405 C   0  0  0  0  0  0  0  0  0  0  0  0
   24.5510  -21.1217   -8.9282 C   0  0  0  0  0  0  0  0  0  0  0  0
   25.7380  -21.5999   -9.3840 C   0  0  0  0  0  0  0  0  0  0  0  0
   26.1569  -21.2760  -10.6792 C   0  0  0  0  0  0  0  0  0  0  0  0
   23.7987  -20.5846  -14.1839 C   0  0  0  0  0  0  0  0  0  0  0  0
   23.4113  -19.5143  -14.6993 O   0  0  0  0  0  0  0  0  0  0  0  0
   19.7777  -23.5079  -17.1397 N   0  0  0  0  0  0  0  0  0  0  0  0
   18.9134  -22.5740  -16.5280 C   0  0  0  0  0  0  0  0  0  0  0  0
   17.7391  -22.4344  -16.9327 O   0  0  0  0  0  0  0  0  0  0  0  0
   19.3994  -21.7570  -15.4029 C   0  0  0  0  0  0  0  0  0  0  0  0
   20.8716  -22.0531  -15.1366 C   0  0  0  0  0  0  0  0  0  0  0  0
   21.3808  -21.2006  -13.9570 C   0  0  2  0  0  0  0  0  0  0  0  0
   22.8106  -21.5092  -13.7748 N   0  0  0  0  0  0  0  0  0  0  0  0
   20.6774  -21.5775  -12.7177 C   0  0  0  0  0  0  0  0  0  0  0  0
   19.8614  -20.6808  -12.0412 O   0  0  0  0  0  0  0  0  0  0  0  0
   20.7772  -22.7297  -12.2035 O   0  0  0  0  0  0  0  0  0  0  0  0
  2  1  1  6
  2  8  1  0
  2  3  1  0
  3  4  1  0
  4  5  1  0
  5  6  1  0
  7  6  1  0
  8  9  2  0
 10 11  1  0
 10  8  1  0
 11 12  1  1
 12 13  1  0
 13 18  2  0
 13 14  1  0
 14 15  2  0
 15 16  1  0
 17 16  2  0
 18 17  1  0
 19 11  1  0
 20 19  2  0
 22 21  1  0
 22 23  2  0
 24 22  1  0
 26 25  1  6
 25 24  1  0
 26 27  1  0
 27 19  1  0
 28 29  1  0
 28 26  1  0
 30 28  2  0
M  END
$$$$
