KFQ.pdb
     RDKit          3D

 30 30  0  0  1  0  0  0  0  0999 V2000
   26.6524  -20.4126  -16.5183 N   0  0  0  0  0  0  0  0  0  0  0  0
   26.4830  -21.8576  -16.3762 C   0  0  1  0  0  0  0  0  0  0  0  0
   27.8115  -22.5590  -16.6627 C   0  0  0  0  0  0  0  0  0  0  0  0
   28.1710  -22.2608  -18.0957 C   0  0  0  0  0  0  0  0  0  0  0  0
   28.9499  -20.9791  -18.1578 C   0  0  0  0  0  0  0  0  0  0  0  0
   29.3111  -20.6571  -19.5736 C   0  0  0  0  0  0  0  0  0  0  0  0
   30.0793  -19.4170  -19.5844 N   0  0  0  0  0  0  0  0  0  0  0  0
   26.2121  -22.1223  -14.9247 C   0  0  0  0  0  0  0  0  0  0  0  0
   26.0601  -23.3056  -14.4782 O   0  0  0  0  0  0  0  0  0  0  0  0
   26.1111  -21.0813  -13.9797 N   0  0  0  0  0  0  0  0  0  0  0  0
   25.8493  -21.3438  -12.5348 C   0  0  1  0  0  0  0  0  0  0  0  0
   26.9259  -20.5814  -11.8526 C   0  0  0  0  0  0  0  0  0  0  0  0
   26.8753  -20.4147  -10.4167 C   0  0  0  0  0  0  0  0  0  0  0  0
   25.9992  -19.5573   -9.7622 C   0  0  0  0  0  0  0  0  0  0  0  0
   25.9832  -19.4772   -8.3721 C   0  0  0  0  0  0  0  0  0  0  0  0
   26.8250  -20.2360   -7.6124 C   0  0  0  0  0  0  0  0  0  0  0  0
   27.6938  -21.0837   -8.2223 C   0  0  0  0  0  0  0  0  0  0  0  0
   27.7091  -21.1633   -9.6192 C   0  0  0  0  0  0  0  0  0  0  0  0
   24.4834  -20.8871  -12.3248 C   0  0  0  0  0  0  0  0  0  0  0  0
   24.0351  -19.9001  -12.9461 O   0  0  0  0  0  0  0  0  0  0  0  0
   19.7752  -24.6375  -11.0338 N   0  0  0  0  0  0  0  0  0  0  0  0
   19.1064  -23.3950  -11.0801 C   0  0  0  0  0  0  0  0  0  0  0  0
   17.8575  -23.3444  -11.0745 O   0  0  0  0  0  0  0  0  0  0  0  0
   19.8869  -22.1470  -11.1354 C   0  0  0  0  0  0  0  0  0  0  0  0
   21.3784  -22.4622  -11.1797 C   0  0  0  0  0  0  0  0  0  0  0  0
   22.1918  -21.1635  -11.3503 C   0  0  2  0  0  0  0  0  0  0  0  0
   23.6151  -21.5406  -11.4207 N   0  0  0  0  0  0  0  0  0  0  0  0
   22.0140  -20.2950  -10.1727 C   0  0  0  0  0  0  0  0  0  0  0  0
   22.6260  -20.5782   -8.9590 O   0  0  0  0  0  0  0  0  0  0  0  0
   21.2987  -19.2512  -10.2002 O   0  0  0  0  0  0  0  0  0  0  0  0
  2  1  1  1
  2  8  1  0
  2  3  1  0
  3  4  1  0
  4  5  1  0
  5  6  1  0
  7  6  1  0
  8  9  2  0
 10 11  1  0
 10  8  1  0
 11 12  1  1
 12 13  1  0
 13 18  2  0
 13 14  1  0
 14 15  2  0
 15 16  1  0
 17 16  2  0
 18 17  1  0
 19 11  1  0
 20 19  2  0
 22 21  1  0
 22 23  2  0
 24 22  1  0
 26 25  1  1
 25 24  1  0
 26 27  1  0
 27 19  1  0
 28 29  1  0
 28 26  1  0
 30 28  2  0
M  END
$$$$
