KFQ.pdb
     RDKit          3D

 30 30  0  0  1  0  0  0  0  0999 V2000
   27.6201  -22.2722  -17.6508 N   0  0  0  0  0  0  0  0  0  0  0  0
   27.7704  -21.1480  -16.7286 C   0  0  1  0  0  0  0  0  0  0  0  0
   27.1291  -19.8993  -17.3356 C   0  0  0  0  0  0  0  0  0  0  0  0
   26.2747  -20.3555  -18.4903 C   0  0  0  0  0  0  0  0  0  0  0  0
   24.8291  -20.3130  -18.0879 C   0  0  0  0  0  0  0  0  0  0  0  0
   23.9542  -20.6576  -19.2517 C   0  0  0  0  0  0  0  0  0  0  0  0
   22.5630  -20.6079  -18.8152 N   0  0  0  0  0  0  0  0  0  0  0  0
   26.9368  -21.4620  -15.5217 C   0  0  0  0  0  0  0  0  0  0  0  0
   26.0059  -22.3308  -15.5599 O   0  0  0  0  0  0  0  0  0  0  0  0
   27.1367  -20.8163  -14.2848 N   0  0  0  0  0  0  0  0  0  0  0  0
   26.3623  -21.1830  -13.0638 C   0  0  1  0  0  0  0  0  0  0  0  0
   27.2009  -20.6509  -11.9595 C   0  0  0  0  0  0  0  0  0  0  0  0
   26.6614  -20.6068  -10.6181 C   0  0  0  0  0  0  0  0  0  0  0  0
   26.7041  -21.6713   -9.7258 C   0  0  0  0  0  0  0  0  0  0  0  0
   26.1962  -21.5424   -8.4356 C   0  0  0  0  0  0  0  0  0  0  0  0
   25.6427  -20.3704   -8.0095 C   0  0  0  0  0  0  0  0  0  0  0  0
   25.5855  -19.3113   -8.8583 C   0  0  0  0  0  0  0  0  0  0  0  0
   26.0961  -19.4419  -10.1545 C   0  0  0  0  0  0  0  0  0  0  0  0
   25.0602  -20.5630  -13.2601 C   0  0  0  0  0  0  0  0  0  0  0  0
   24.9621  -19.4260  -13.7690 O   0  0  0  0  0  0  0  0  0  0  0  0
   18.4243  -21.3191  -12.8880 N   0  0  0  0  0  0  0  0  0  0  0  0
   19.3740  -21.7046  -13.8590 C   0  0  0  0  0  0  0  0  0  0  0  0
   19.3621  -22.8595  -14.3368 O   0  0  0  0  0  0  0  0  0  0  0  0
   20.3878  -20.7374  -14.3134 C   0  0  0  0  0  0  0  0  0  0  0  0
   21.7854  -21.3247  -14.1472 C   0  0  0  0  0  0  0  0  0  0  0  0
   22.5625  -20.5503  -13.0638 C   0  0  2  0  0  0  0  0  0  0  0  0
   23.8641  -21.2201  -12.8911 N   0  0  0  0  0  0  0  0  0  0  0  0
   21.8460  -20.6204  -11.7775 C   0  0  0  0  0  0  0  0  0  0  0  0
   22.1431  -21.5904  -10.8296 O   0  0  0  0  0  0  0  0  0  0  0  0
   20.9264  -19.8081  -11.4670 O   0  0  0  0  0  0  0  0  0  0  0  0
  2  1  1  6
  2  8  1  0
  2  3  1  0
  3  4  1  0
  4  5  1  0
  5  6  1  0
  7  6  1  0
  8  9  2  0
 10 11  1  0
 10  8  1  0
 11 12  1  1
 12 13  1  0
 13 18  2  0
 13 14  1  0
 14 15  2  0
 15 16  1  0
 17 16  2  0
 18 17  1  0
 19 11  1  0
 20 19  2  0
 22 21  1  0
 22 23  2  0
 24 22  1  0
 26 25  1  6
 25 24  1  0
 26 27  1  0
 27 19  1  0
 28 29  1  0
 28 26  1  0
 30 28  2  0
M  END
$$$$
