KFQ.pdb
     RDKit          3D

 30 30  0  0  1  0  0  0  0  0999 V2000
   27.6514  -21.8850  -17.8038 N   0  0  0  0  0  0  0  0  0  0  0  0
   26.9507  -20.7767  -17.1575 C   0  0  1  0  0  0  0  0  0  0  0  0
   25.7395  -20.3761  -18.0009 C   0  0  0  0  0  0  0  0  0  0  0  0
   26.2645  -19.8711  -19.3203 C   0  0  0  0  0  0  0  0  0  0  0  0
   25.9712  -20.8800  -20.3924 C   0  0  0  0  0  0  0  0  0  0  0  0
   26.4283  -20.3730  -21.7239 C   0  0  0  0  0  0  0  0  0  0  0  0
   26.3809  -21.4745  -22.6792 N   0  0  0  0  0  0  0  0  0  0  0  0
   26.3722  -21.3136  -15.8819 C   0  0  0  0  0  0  0  0  0  0  0  0
   25.8769  -22.4853  -15.8137 O   0  0  0  0  0  0  0  0  0  0  0  0
   26.3449  -20.5549  -14.6943 N   0  0  0  0  0  0  0  0  0  0  0  0
   25.8291  -21.1102  -13.4095 C   0  0  1  0  0  0  0  0  0  0  0  0
   26.6401  -20.4028  -12.3860 C   0  0  0  0  0  0  0  0  0  0  0  0
   26.2463  -20.4747  -10.9960 C   0  0  0  0  0  0  0  0  0  0  0  0
   25.3628  -19.5898  -10.3898 C   0  0  0  0  0  0  0  0  0  0  0  0
   25.0014  -19.7443   -9.0539 C   0  0  0  0  0  0  0  0  0  0  0  0
   25.5024  -20.7663   -8.3016 C   0  0  0  0  0  0  0  0  0  0  0  0
   26.3689  -21.6479   -8.8649 C   0  0  0  0  0  0  0  0  0  0  0  0
   26.7314  -21.4917  -10.2074 C   0  0  0  0  0  0  0  0  0  0  0  0
   24.4029  -20.8208  -13.4358 C   0  0  0  0  0  0  0  0  0  0  0  0
   23.9818  -19.7079  -13.8169 O   0  0  0  0  0  0  0  0  0  0  0  0
   19.6160  -24.9090  -13.2899 N   0  0  0  0  0  0  0  0  0  0  0  0
   18.9404  -23.6789  -13.1356 C   0  0  0  0  0  0  0  0  0  0  0  0
   17.6923  -23.6413  -13.0814 O   0  0  0  0  0  0  0  0  0  0  0  0
   19.7130  -22.4287  -13.0373 C   0  0  0  0  0  0  0  0  0  0  0  0
   21.2075  -22.7325  -13.0533 C   0  0  0  0  0  0  0  0  0  0  0  0
   22.0174  -21.4235  -12.9630 C   0  0  2  0  0  0  0  0  0  0  0  0
   23.4450  -21.7822  -13.0397 N   0  0  0  0  0  0  0  0  0  0  0  0
   21.7861  -20.7725  -11.6609 C   0  0  0  0  0  0  0  0  0  0  0  0
   20.8087  -19.8003  -11.4955 O   0  0  0  0  0  0  0  0  0  0  0  0
   22.4600  -21.0594  -10.6287 O   0  0  0  0  0  0  0  0  0  0  0  0
  2  1  1  6
  2  8  1  0
  2  3  1  0
  3  4  1  0
  4  5  1  0
  5  6  1  0
  7  6  1  0
  8  9  2  0
 10 11  1  0
 10  8  1  0
 11 12  1  1
 12 13  1  0
 13 18  2  0
 13 14  1  0
 14 15  2  0
 15 16  1  0
 17 16  2  0
 18 17  1  0
 19 11  1  0
 20 19  2  0
 22 21  1  0
 22 23  2  0
 24 22  1  0
 26 25  1  1
 25 24  1  0
 26 27  1  0
 27 19  1  0
 28 29  1  0
 28 26  1  0
 30 28  2  0
M  END
$$$$
