KFQ.pdb
     RDKit          3D

 30 30  0  0  1  0  0  0  0  0999 V2000
   28.3688  -21.8604  -14.5364 N   0  0  0  0  0  0  0  0  0  0  0  0
   28.3496  -20.6487  -13.7190 C   0  0  1  0  0  0  0  0  0  0  0  0
   27.4872  -19.5855  -14.4006 C   0  0  0  0  0  0  0  0  0  0  0  0
   27.4872  -19.8926  -15.8761 C   0  0  0  0  0  0  0  0  0  0  0  0
   26.1752  -20.5155  -16.2556 C   0  0  0  0  0  0  0  0  0  0  0  0
   26.0501  -20.6004  -17.7442 C   0  0  0  0  0  0  0  0  0  0  0  0
   24.8169  -21.3107  -18.0648 N   0  0  0  0  0  0  0  0  0  0  0  0
   27.6161  -20.9888  -12.4555 C   0  0  0  0  0  0  0  0  0  0  0  0
   26.5710  -21.7171  -12.4648 O   0  0  0  0  0  0  0  0  0  0  0  0
   28.0408  -20.5235  -11.1945 N   0  0  0  0  0  0  0  0  0  0  0  0
   27.2958  -20.8370   -9.9408 C   0  0  1  0  0  0  0  0  0  0  0  0
   28.2515  -20.4460   -8.8734 C   0  0  0  0  0  0  0  0  0  0  0  0
   27.7755  -20.2983   -7.5154 C   0  0  0  0  0  0  0  0  0  0  0  0
   27.4284  -21.3621   -6.6915 C   0  0  0  0  0  0  0  0  0  0  0  0
   27.0126  -21.1440   -5.3805 C   0  0  0  0  0  0  0  0  0  0  0  0
   26.9335  -19.8826   -4.8665 C   0  0  0  0  0  0  0  0  0  0  0  0
   27.2654  -18.8214   -5.6469 C   0  0  0  0  0  0  0  0  0  0  0  0
   27.6831  -19.0417   -6.9641 C   0  0  0  0  0  0  0  0  0  0  0  0
   26.0691  -20.0606  -10.0440 C   0  0  0  0  0  0  0  0  0  0  0  0
   26.0920  -18.8758  -10.4402 O   0  0  0  0  0  0  0  0  0  0  0  0
   24.1367  -20.5183  -13.8297 N   0  0  0  0  0  0  0  0  0  0  0  0
   22.9812  -21.1220  -13.2876 C   0  0  0  0  0  0  0  0  0  0  0  0
   22.3808  -22.0219  -13.9136 O   0  0  0  0  0  0  0  0  0  0  0  0
   22.4789  -20.6880  -11.9728 C   0  0  0  0  0  0  0  0  0  0  0  0
   23.3841  -19.6044  -11.3965 C   0  0  0  0  0  0  0  0  0  0  0  0
   23.5800  -19.8242   -9.8830 C   0  0  2  0  0  0  0  0  0  0  0  0
   24.8123  -20.6139   -9.7080 N   0  0  0  0  0  0  0  0  0  0  0  0
   22.4599  -20.6104   -9.3353 C   0  0  0  0  0  0  0  0  0  0  0  0
   21.1473  -20.1657   -9.4196 O   0  0  0  0  0  0  0  0  0  0  0  0
   22.6294  -21.7255   -8.7611 O   0  0  0  0  0  0  0  0  0  0  0  0
  2  1  1  6
  2  8  1  0
  2  3  1  0
  3  4  1  0
  4  5  1  0
  5  6  1  0
  7  6  1  0
  8  9  2  0
 10 11  1  0
 10  8  1  0
 11 12  1  1
 12 13  1  0
 13 18  2  0
 13 14  1  0
 14 15  2  0
 15 16  1  0
 17 16  2  0
 18 17  1  0
 19 11  1  0
 20 19  2  0
 22 21  1  0
 22 23  2  0
 24 22  1  0
 26 25  1  6
 25 24  1  0
 26 27  1  0
 27 19  1  0
 28 29  1  0
 28 26  1  0
 30 28  2  0
M  END
$$$$
