KFQ.pdb
     RDKit          3D

 30 30  0  0  1  0  0  0  0  0999 V2000
   27.6557  -22.1859  -16.4682 N   0  0  0  0  0  0  0  0  0  0  0  0
   26.2834  -22.5123  -16.8518 C   0  0  1  0  0  0  0  0  0  0  0  0
   26.2437  -23.9109  -17.4692 C   0  0  0  0  0  0  0  0  0  0  0  0
   27.0568  -23.8598  -18.7372 C   0  0  0  0  0  0  0  0  0  0  0  0
   28.4979  -23.6147  -18.3957 C   0  0  0  0  0  0  0  0  0  0  0  0
   29.3212  -23.5282  -19.6420 C   0  0  0  0  0  0  0  0  0  0  0  0
   30.7068  -23.2724  -19.2642 N   0  0  0  0  0  0  0  0  0  0  0  0
   25.4935  -22.6284  -15.5819 C   0  0  0  0  0  0  0  0  0  0  0  0
   25.0860  -23.7551  -15.1489 O   0  0  0  0  0  0  0  0  0  0  0  0
   25.1602  -21.5029  -14.8016 N   0  0  0  0  0  0  0  0  0  0  0  0
   24.4083  -21.6211  -13.5187 C   0  0  1  0  0  0  0  0  0  0  0  0
   25.2175  -20.8062  -12.5769 C   0  0  0  0  0  0  0  0  0  0  0  0
   24.7467  -20.6122  -11.2229 C   0  0  0  0  0  0  0  0  0  0  0  0
   23.4868  -20.1236  -10.8987 C   0  0  0  0  0  0  0  0  0  0  0  0
   23.0896  -19.9986   -9.5698 C   0  0  0  0  0  0  0  0  0  0  0  0
   23.9231  -20.3509   -8.5486 C   0  0  0  0  0  0  0  0  0  0  0  0
   25.1616  -20.8313   -8.8328 C   0  0  0  0  0  0  0  0  0  0  0  0
   25.5596  -20.9565  -10.1684 C   0  0  0  0  0  0  0  0  0  0  0  0
   23.0739  -21.1330  -13.8338 C   0  0  0  0  0  0  0  0  0  0  0  0
   22.9144  -20.1006  -14.5193 O   0  0  0  0  0  0  0  0  0  0  0  0
   19.9610  -23.6483  -16.9562 N   0  0  0  0  0  0  0  0  0  0  0  0
   19.5748  -22.2977  -17.0977 C   0  0  0  0  0  0  0  0  0  0  0  0
   19.3496  -21.8159  -18.2288 O   0  0  0  0  0  0  0  0  0  0  0  0
   19.4358  -21.4487  -15.9021 C   0  0  0  0  0  0  0  0  0  0  0  0
   19.8852  -22.2123  -14.6608 C   0  0  0  0  0  0  0  0  0  0  0  0
   20.5768  -21.2555  -13.6690 C   0  0  2  0  0  0  0  0  0  0  0  0
   21.9144  -21.8060  -13.3852 N   0  0  0  0  0  0  0  0  0  0  0  0
   19.8289  -21.2129  -12.3996 C   0  0  0  0  0  0  0  0  0  0  0  0
   19.0206  -20.1345  -12.0656 O   0  0  0  0  0  0  0  0  0  0  0  0
   19.8810  -22.1484  -11.5487 O   0  0  0  0  0  0  0  0  0  0  0  0
  2  1  1  1
  2  8  1  0
  2  3  1  0
  3  4  1  0
  4  5  1  0
  5  6  1  0
  7  6  1  0
  8  9  2  0
 10 11  1  0
 10  8  1  0
 11 12  1  1
 12 13  1  0
 13 18  2  0
 13 14  1  0
 14 15  2  0
 15 16  1  0
 17 16  2  0
 18 17  1  0
 19 11  1  0
 20 19  2  0
 22 21  1  0
 22 23  2  0
 24 22  1  0
 26 25  1  6
 25 24  1  0
 26 27  1  0
 27 19  1  0
 28 29  1  0
 28 26  1  0
 30 28  2  0
M  END
$$$$
