KFQ.pdb
     RDKit          3D

 30 30  0  0  1  0  0  0  0  0999 V2000
   28.0855  -22.1439  -15.5315 N   0  0  0  0  0  0  0  0  0  0  0  0
   27.6949  -20.8476  -14.9803 C   0  0  1  0  0  0  0  0  0  0  0  0
   26.8754  -20.0771  -16.0165 C   0  0  0  0  0  0  0  0  0  0  0  0
   27.8354  -19.2013  -16.7799 C   0  0  0  0  0  0  0  0  0  0  0  0
   28.5322  -20.0204  -17.8272 C   0  0  0  0  0  0  0  0  0  0  0  0
   29.5054  -19.1754  -18.5872 C   0  0  0  0  0  0  0  0  0  0  0  0
   30.3180  -20.0481  -19.4275 N   0  0  0  0  0  0  0  0  0  0  0  0
   26.7377  -21.1233  -13.8587 C   0  0  0  0  0  0  0  0  0  0  0  0
   26.0112  -22.1696  -13.8419 O   0  0  0  0  0  0  0  0  0  0  0  0
   26.5901  -20.2440  -12.7669 N   0  0  0  0  0  0  0  0  0  0  0  0
   25.6074  -20.4950  -11.6731 C   0  0  1  0  0  0  0  0  0  0  0  0
   26.0855  -19.6105  -10.5801 C   0  0  0  0  0  0  0  0  0  0  0  0
   27.1451  -20.0698   -9.7091 C   0  0  0  0  0  0  0  0  0  0  0  0
   27.1171  -19.9615   -8.3240 C   0  0  0  0  0  0  0  0  0  0  0  0
   28.1595  -20.4609   -7.5473 C   0  0  0  0  0  0  0  0  0  0  0  0
   29.2371  -21.0700   -8.1212 C   0  0  0  0  0  0  0  0  0  0  0  0
   29.2946  -21.1908   -9.4730 C   0  0  0  0  0  0  0  0  0  0  0  0
   28.2466  -20.6887  -10.2524 C   0  0  0  0  0  0  0  0  0  0  0  0
   24.3167  -20.1737  -12.2642 C   0  0  0  0  0  0  0  0  0  0  0  0
   24.2225  -19.3213  -13.1729 O   0  0  0  0  0  0  0  0  0  0  0  0
   22.4896  -20.3181  -16.5016 N   0  0  0  0  0  0  0  0  0  0  0  0
   21.1760  -20.7279  -16.1856 C   0  0  0  0  0  0  0  0  0  0  0  0
   20.2566  -20.6188  -17.0253 O   0  0  0  0  0  0  0  0  0  0  0  0
   20.8862  -21.2890  -14.8550 C   0  0  0  0  0  0  0  0  0  0  0  0
   22.1554  -21.3188  -14.0099 C   0  0  0  0  0  0  0  0  0  0  0  0
   21.8910  -20.6829  -12.6304 C   0  0  2  0  0  0  0  0  0  0  0  0
   23.1289  -20.8126  -11.8406 N   0  0  0  0  0  0  0  0  0  0  0  0
   20.8281  -21.4223  -11.9260 C   0  0  0  0  0  0  0  0  0  0  0  0
   21.0614  -22.6658  -11.3540 O   0  0  0  0  0  0  0  0  0  0  0  0
   19.6522  -20.9703  -11.8045 O   0  0  0  0  0  0  0  0  0  0  0  0
  2  1  1  6
  2  8  1  0
  2  3  1  0
  3  4  1  0
  4  5  1  0
  5  6  1  0
  7  6  1  0
  8  9  2  0
 10 11  1  0
 10  8  1  0
 11 12  1  1
 12 13  1  0
 13 18  2  0
 13 14  1  0
 14 15  2  0
 15 16  1  0
 17 16  2  0
 18 17  1  0
 19 11  1  0
 20 19  2  0
 22 21  1  0
 22 23  2  0
 24 22  1  0
 26 25  1  6
 25 24  1  0
 26 27  1  0
 27 19  1  0
 28 29  1  0
 28 26  1  0
 30 28  2  0
M  END
$$$$
