KFQ.pdb
     RDKit          3D

 30 30  0  0  1  0  0  0  0  0999 V2000
   27.9752  -21.9212  -14.1823 N   0  0  0  0  0  0  0  0  0  0  0  0
   28.2376  -20.7857  -13.2999 C   0  0  1  0  0  0  0  0  0  0  0  0
   27.4749  -19.5595  -13.8036 C   0  0  0  0  0  0  0  0  0  0  0  0
   27.9746  -19.2663  -15.1949 C   0  0  0  0  0  0  0  0  0  0  0  0
   27.2466  -18.0744  -15.7451 C   0  0  0  0  0  0  0  0  0  0  0  0
   27.7807  -17.7157  -17.0960 C   0  0  0  0  0  0  0  0  0  0  0  0
   27.0115  -16.5892  -17.6132 N   0  0  0  0  0  0  0  0  0  0  0  0
   27.6131  -21.1115  -11.9755 C   0  0  0  0  0  0  0  0  0  0  0  0
   26.6212  -21.9053  -11.8816 O   0  0  0  0  0  0  0  0  0  0  0  0
   28.0870  -20.5599  -10.7681 N   0  0  0  0  0  0  0  0  0  0  0  0
   27.4505  -20.8629   -9.4534 C   0  0  1  0  0  0  0  0  0  0  0  0
   28.4793  -20.4319   -8.4729 C   0  0  0  0  0  0  0  0  0  0  0  0
   28.1135  -20.2829   -7.0814 C   0  0  0  0  0  0  0  0  0  0  0  0
   26.9553  -19.6519   -6.6436 C   0  0  0  0  0  0  0  0  0  0  0  0
   26.6510  -19.5791   -5.2866 C   0  0  0  0  0  0  0  0  0  0  0  0
   27.4784  -20.1236   -4.3483 C   0  0  0  0  0  0  0  0  0  0  0  0
   28.6187  -20.7468   -4.7442 C   0  0  0  0  0  0  0  0  0  0  0  0
   28.9235  -20.8193   -6.1079 C   0  0  0  0  0  0  0  0  0  0  0  0
   26.2033  -20.1131   -9.4728 C   0  0  0  0  0  0  0  0  0  0  0  0
   26.1588  -18.9553   -9.9404 O   0  0  0  0  0  0  0  0  0  0  0  0
   23.2383  -21.1860  -13.5703 N   0  0  0  0  0  0  0  0  0  0  0  0
   22.1182  -20.6253  -12.9190 C   0  0  0  0  0  0  0  0  0  0  0  0
   21.0432  -20.4572  -13.5341 O   0  0  0  0  0  0  0  0  0  0  0  0
   22.2169  -20.2349  -11.5022 C   0  0  0  0  0  0  0  0  0  0  0  0
   23.5944  -20.5924  -10.9539 C   0  0  0  0  0  0  0  0  0  0  0  0
   23.6988  -20.1847   -9.4705 C   0  0  2  0  0  0  0  0  0  0  0  0
   25.0009  -20.6633   -8.9724 N   0  0  0  0  0  0  0  0  0  0  0  0
   22.6440  -20.8512   -8.6857 C   0  0  0  0  0  0  0  0  0  0  0  0
   21.3053  -20.5116   -8.8277 O   0  0  0  0  0  0  0  0  0  0  0  0
   22.8964  -21.7623   -7.8443 O   0  0  0  0  0  0  0  0  0  0  0  0
  2  1  1  6
  2  8  1  0
  2  3  1  0
  3  4  1  0
  4  5  1  0
  5  6  1  0
  7  6  1  0
  8  9  2  0
 10 11  1  0
 10  8  1  0
 11 12  1  1
 12 13  1  0
 13 18  2  0
 13 14  1  0
 14 15  2  0
 15 16  1  0
 17 16  2  0
 18 17  1  0
 19 11  1  0
 20 19  2  0
 22 21  1  0
 22 23  2  0
 24 22  1  0
 26 25  1  6
 25 24  1  0
 26 27  1  0
 27 19  1  0
 28 29  1  0
 28 26  1  0
 30 28  2  0
M  END
$$$$
