KFQ.pdb
     RDKit          3D

 30 30  0  0  1  0  0  0  0  0999 V2000
   28.0067  -21.8164  -14.2268 N   0  0  0  0  0  0  0  0  0  0  0  0
   27.9520  -20.6028  -13.4137 C   0  0  1  0  0  0  0  0  0  0  0  0
   26.8228  -19.7016  -13.9152 C   0  0  0  0  0  0  0  0  0  0  0  0
   27.0508  -19.4824  -15.3888 C   0  0  0  0  0  0  0  0  0  0  0  0
   27.3839  -18.0391  -15.6323 C   0  0  0  0  0  0  0  0  0  0  0  0
   27.6434  -17.8026  -17.0867 C   0  0  0  0  0  0  0  0  0  0  0  0
   27.9508  -16.3894  -17.2779 N   0  0  0  0  0  0  0  0  0  0  0  0
   27.5289  -21.0215  -12.0367 C   0  0  0  0  0  0  0  0  0  0  0  0
   26.8022  -22.0500  -11.8446 O   0  0  0  0  0  0  0  0  0  0  0  0
   27.9103  -20.3034  -10.8853 N   0  0  0  0  0  0  0  0  0  0  0  0
   27.4574  -20.6956   -9.5192 C   0  0  1  0  0  0  0  0  0  0  0  0
   28.4086  -19.9812   -8.6301 C   0  0  0  0  0  0  0  0  0  0  0  0
   28.1344  -19.9087   -7.2116 C   0  0  0  0  0  0  0  0  0  0  0  0
   27.3029  -18.9616   -6.6263 C   0  0  0  0  0  0  0  0  0  0  0  0
   27.0567  -18.9768   -5.2558 C   0  0  0  0  0  0  0  0  0  0  0  0
   27.6230  -19.9195   -4.4482 C   0  0  0  0  0  0  0  0  0  0  0  0
   28.4412  -20.8588   -4.9899 C   0  0  0  0  0  0  0  0  0  0  0  0
   28.6879  -20.8425   -6.3672 C   0  0  0  0  0  0  0  0  0  0  0  0
   26.0641  -20.2781   -9.4652 C   0  0  0  0  0  0  0  0  0  0  0  0
   25.7191  -19.1442   -9.8607 O   0  0  0  0  0  0  0  0  0  0  0  0
   23.7642  -21.0269  -12.8047 N   0  0  0  0  0  0  0  0  0  0  0  0
   22.5767  -20.3763  -12.4047 C   0  0  0  0  0  0  0  0  0  0  0  0
   21.9278  -19.6818  -13.2163 O   0  0  0  0  0  0  0  0  0  0  0  0
   22.0981  -20.5172  -11.0188 C   0  0  0  0  0  0  0  0  0  0  0  0
   23.0073  -21.4644  -10.2430 C   0  0  0  0  0  0  0  0  0  0  0  0
   23.6369  -20.7321   -9.0410 C   0  0  2  0  0  0  0  0  0  0  0  0
   25.0533  -21.1346   -8.9721 N   0  0  0  0  0  0  0  0  0  0  0  0
   22.9862  -21.1590   -7.7892 C   0  0  0  0  0  0  0  0  0  0  0  0
   23.2036  -22.4188   -7.2476 O   0  0  0  0  0  0  0  0  0  0  0  0
   22.1983  -20.4084   -7.1429 O   0  0  0  0  0  0  0  0  0  0  0  0
  2  1  1  6
  2  8  1  0
  2  3  1  0
  3  4  1  0
  4  5  1  0
  5  6  1  0
  7  6  1  0
  8  9  2  0
 10 11  1  0
 10  8  1  0
 11 12  1  1
 12 13  1  0
 13 18  2  0
 13 14  1  0
 14 15  2  0
 15 16  1  0
 17 16  2  0
 18 17  1  0
 19 11  1  0
 20 19  2  0
 22 21  1  0
 22 23  2  0
 24 22  1  0
 26 25  1  6
 25 24  1  0
 26 27  1  0
 27 19  1  0
 28 29  1  0
 28 26  1  0
 30 28  2  0
M  END
$$$$
