KFQ.pdb
     RDKit          3D

 30 30  0  0  1  0  0  0  0  0999 V2000
   21.1609  -20.3134  -11.3439 N   0  0  0  0  0  0  0  0  0  0  0  0
   22.1442  -21.2978  -11.7923 C   0  0  1  0  0  0  0  0  0  0  0  0
   21.9587  -21.5617  -13.2872 C   0  0  0  0  0  0  0  0  0  0  0  0
   21.3200  -22.9202  -13.4224 C   0  0  0  0  0  0  0  0  0  0  0  0
   22.2449  -23.8332  -14.1736 C   0  0  0  0  0  0  0  0  0  0  0  0
   21.5921  -25.1592  -14.4065 C   0  0  0  0  0  0  0  0  0  0  0  0
   22.4825  -25.9758  -15.2242 N   0  0  0  0  0  0  0  0  0  0  0  0
   23.4916  -20.6481  -11.6794 C   0  0  0  0  0  0  0  0  0  0  0  0
   23.6398  -19.3897  -11.8100 O   0  0  0  0  0  0  0  0  0  0  0  0
   24.6621  -21.3908  -11.4238 N   0  0  0  0  0  0  0  0  0  0  0  0
   25.9988  -20.7431  -11.2868 C   0  0  1  0  0  0  0  0  0  0  0  0
   26.6547  -21.5443  -10.2221 C   0  0  0  0  0  0  0  0  0  0  0  0
   26.9111  -20.9369   -8.9346 C   0  0  0  0  0  0  0  0  0  0  0  0
   25.9290  -20.6761   -7.9868 C   0  0  0  0  0  0  0  0  0  0  0  0
   26.2572  -20.1220   -6.7521 C   0  0  0  0  0  0  0  0  0  0  0  0
   27.5496  -19.8192   -6.4363 C   0  0  0  0  0  0  0  0  0  0  0  0
   28.5328  -20.0616   -7.3418 C   0  0  0  0  0  0  0  0  0  0  0  0
   28.2018  -20.6184   -8.5821 C   0  0  0  0  0  0  0  0  0  0  0  0
   26.5773  -20.8194  -12.6201 C   0  0  0  0  0  0  0  0  0  0  0  0
   26.4747  -21.8598  -13.3046 O   0  0  0  0  0  0  0  0  0  0  0  0
   29.8102  -16.8386  -16.5778 N   0  0  0  0  0  0  0  0  0  0  0  0
   28.4210  -16.8747  -16.8267 C   0  0  0  0  0  0  0  0  0  0  0  0
   27.9233  -16.1999  -17.7536 O   0  0  0  0  0  0  0  0  0  0  0  0
   27.5501  -17.7150  -15.9869 C   0  0  0  0  0  0  0  0  0  0  0  0
   28.3766  -18.4263  -14.9207 C   0  0  0  0  0  0  0  0  0  0  0  0
   27.7472  -19.7929  -14.5835 C   0  0  2  0  0  0  0  0  0  0  0  0
   27.2678  -19.7260  -13.1913 N   0  0  0  0  0  0  0  0  0  0  0  0
   28.7677  -20.8538  -14.6578 C   0  0  0  0  0  0  0  0  0  0  0  0
   29.0310  -21.5303  -15.8414 O   0  0  0  0  0  0  0  0  0  0  0  0
   29.4555  -21.2063  -13.6555 O   0  0  0  0  0  0  0  0  0  0  0  0
  2  1  1  6
  2  8  1  0
  2  3  1  0
  3  4  1  0
  4  5  1  0
  5  6  1  0
  7  6  1  0
  8  9  2  0
 10 11  1  0
 10  8  1  0
 11 12  1  1
 12 13  1  0
 13 18  2  0
 13 14  1  0
 14 15  2  0
 15 16  1  0
 17 16  2  0
 18 17  1  0
 19 11  1  0
 20 19  2  0
 22 21  1  0
 22 23  2  0
 24 22  1  0
 26 25  1  1
 25 24  1  0
 26 27  1  0
 27 19  1  0
 28 29  1  0
 28 26  1  0
 30 28  2  0
M  END
$$$$
