ALY.pdb
     RDKit          3D

 26 26  0  0  1  0  0  0  0  0999 V2000
   20.9776  -20.3830  -18.0196 C   0  0  0  0  0  0  0  0  0  0  0  0
   21.3693  -19.0429  -17.4102 C   0  0  2  0  0  0  0  0  0  0  0  0
   21.2147  -17.9928  -18.3931 N   0  0  0  0  0  0  0  0  0  0  0  0
   22.8016  -19.1230  -17.0417 C   0  0  0  0  0  0  0  0  0  0  0  0
   23.4450  -20.1194  -17.5088 O   0  0  0  0  0  0  0  0  0  0  0  0
   26.9480  -15.1217  -15.1603 C   0  0  0  0  0  0  0  0  0  0  0  0
   26.7472  -16.6077  -15.5244 C   0  0  2  0  0  0  0  0  0  0  0  0
   27.7925  -16.9575  -16.5167 C   0  0  0  0  0  0  0  0  0  0  0  0
   25.3548  -16.8520  -15.9206 C   0  0  0  0  0  0  0  0  0  0  0  0
   24.8286  -18.2394  -15.8893 C   0  0  2  0  0  0  0  0  0  0  0  0
   23.3909  -18.1382  -16.2198 N   0  0  0  0  0  0  0  0  0  0  0  0
   24.8645  -18.8762  -14.5476 C   0  0  0  0  0  0  0  0  0  0  0  0
   24.0472  -18.5378  -13.6169 O   0  0  0  0  0  0  0  0  0  0  0  0
   25.4546  -21.2424   -6.5051 O   0  0  0  0  0  0  0  0  0  0  0  0
   25.4033  -20.7882   -7.8199 C   0  0  0  0  0  0  0  0  0  0  0  0
   24.3942  -21.2002   -8.6354 C   0  0  0  0  0  0  0  0  0  0  0  0
   24.3262  -20.7604   -9.9433 C   0  0  0  0  0  0  0  0  0  0  0  0
   25.2629  -19.9108  -10.4392 C   0  0  0  0  0  0  0  0  0  0  0  0
   25.2351  -19.4219  -11.8312 C   0  0  0  0  0  0  0  0  0  0  0  0
   25.8068  -20.4166  -12.7890 C   0  0  2  0  0  0  0  0  0  0  0  0
   25.7665  -19.8913  -14.1580 N   0  0  0  0  0  0  0  0  0  0  0  0
   25.0694  -21.6993  -12.8020 C   0  0  0  0  0  0  0  0  0  0  0  0
   23.8426  -21.8608  -13.4501 O   0  0  0  0  0  0  0  0  0  0  0  0
   26.2971  -19.4878   -9.6054 C   0  0  0  0  0  0  0  0  0  0  0  0
   26.3543  -19.9287   -8.3145 C   0  0  0  0  0  0  0  0  0  0  0  0
   25.5115  -22.7448  -12.2162 O   0  0  0  0  0  0  0  0  0  0  0  0
  2  3  1  0
  2  1  1  6
  4  2  1  0
  5  4  2  0
  7  6  1  6
  7  8  1  0
  9  7  1  0
 10  9  1  1
 10 11  1  0
 11  4  1  0
 12 21  1  0
 12 10  1  0
 13 12  2  0
 15 14  1  0
 16 15  2  0
 17 16  1  0
 18 17  2  0
 18 24  1  0
 19 18  1  0
 20 19  1  1
 20 22  1  0
 20 21  1  0
 22 23  1  0
 24 25  2  0
 25 15  1  0
 26 22  2  0
M  END
$$$$
