ALY.pdb
     RDKit          3D

 26 26  0  0  1  0  0  0  0  0999 V2000
   27.4482  -18.9409  -14.8272 C   0  0  0  0  0  0  0  0  0  0  0  0
   28.0109  -20.1106  -14.0300 C   0  0  2  0  0  0  0  0  0  0  0  0
   28.2196  -21.2448  -14.9034 N   0  0  0  0  0  0  0  0  0  0  0  0
   26.9978  -20.4880  -13.0176 C   0  0  0  0  0  0  0  0  0  0  0  0
   26.1715  -21.3951  -13.3635 O   0  0  0  0  0  0  0  0  0  0  0  0
   27.0546  -19.6971   -7.0956 C   0  0  0  0  0  0  0  0  0  0  0  0
   26.7315  -20.5399   -8.3471 C   0  0  2  0  0  0  0  0  0  0  0  0
   27.8740  -21.4620   -8.5574 C   0  0  0  0  0  0  0  0  0  0  0  0
   26.3744  -19.6664   -9.4718 C   0  0  0  0  0  0  0  0  0  0  0  0
   25.9622  -20.2798  -10.7589 C   0  0  2  0  0  0  0  0  0  0  0  0
   26.9742  -19.8617  -11.7528 N   0  0  0  0  0  0  0  0  0  0  0  0
   24.6735  -19.7695  -11.2937 C   0  0  0  0  0  0  0  0  0  0  0  0
   24.5643  -18.5854  -11.7780 O   0  0  0  0  0  0  0  0  0  0  0  0
   19.2205  -20.1214  -17.8186 O   0  0  0  0  0  0  0  0  0  0  0  0
   20.1648  -20.2587  -16.8053 C   0  0  0  0  0  0  0  0  0  0  0  0
   20.8265  -21.4391  -16.6573 C   0  0  0  0  0  0  0  0  0  0  0  0
   21.7672  -21.5948  -15.6576 C   0  0  0  0  0  0  0  0  0  0  0  0
   22.0489  -20.5754  -14.8052 C   0  0  0  0  0  0  0  0  0  0  0  0
   23.0393  -20.6989  -13.7183 C   0  0  0  0  0  0  0  0  0  0  0  0
   22.4704  -20.3124  -12.3913 C   0  0  2  0  0  0  0  0  0  0  0  0
   23.4666  -20.5028  -11.3317 N   0  0  0  0  0  0  0  0  0  0  0  0
   21.2857  -21.1139  -12.0126 C   0  0  0  0  0  0  0  0  0  0  0  0
   19.9838  -20.6099  -12.0601 O   0  0  0  0  0  0  0  0  0  0  0  0
   21.3723  -19.3657  -14.9552 C   0  0  0  0  0  0  0  0  0  0  0  0
   20.4448  -19.2230  -15.9468 C   0  0  0  0  0  0  0  0  0  0  0  0
   21.3812  -22.3240  -11.6148 O   0  0  0  0  0  0  0  0  0  0  0  0
  2  3  1  0
  2  1  1  6
  4  2  1  0
  5  4  2  0
  7  6  1  1
  7  8  1  0
  9  7  1  0
 10  9  1  1
 10 11  1  0
 11  4  1  0
 12 21  1  0
 12 10  1  0
 13 12  2  0
 15 14  1  0
 16 15  2  0
 17 16  1  0
 18 17  2  0
 18 24  1  0
 19 18  1  0
 20 19  1  6
 20 22  1  0
 20 21  1  0
 22 23  1  0
 24 25  2  0
 25 15  1  0
 26 22  2  0
M  END
$$$$
