ALY.pdb
     RDKit          3D

 26 26  0  0  1  0  0  0  0  0999 V2000
   27.2838  -19.9247  -16.8671 C   0  0  0  0  0  0  0  0  0  0  0  0
   27.9374  -20.9513  -15.9510 C   0  0  2  0  0  0  0  0  0  0  0  0
   28.2725  -22.1393  -16.7053 N   0  0  0  0  0  0  0  0  0  0  0  0
   26.9425  -21.3250  -14.9194 C   0  0  0  0  0  0  0  0  0  0  0  0
   26.1475  -22.2732  -15.2257 O   0  0  0  0  0  0  0  0  0  0  0  0
   24.2124  -20.4934  -10.2619 C   0  0  0  0  0  0  0  0  0  0  0  0
   25.6887  -20.9247  -10.1371 C   0  0  2  0  0  0  0  0  0  0  0  0
   26.2048  -20.3483   -8.8718 C   0  0  0  0  0  0  0  0  0  0  0  0
   26.4237  -20.5878  -11.3625 C   0  0  0  0  0  0  0  0  0  0  0  0
   25.9011  -21.0581  -12.6696 C   0  0  2  0  0  0  0  0  0  0  0  0
   26.9019  -20.6517  -13.6794 N   0  0  0  0  0  0  0  0  0  0  0  0
   24.6416  -20.3965  -13.0976 C   0  0  0  0  0  0  0  0  0  0  0  0
   24.5863  -19.1351  -13.3308 O   0  0  0  0  0  0  0  0  0  0  0  0
   17.5632  -17.7519  -17.2061 O   0  0  0  0  0  0  0  0  0  0  0  0
   18.7210  -18.3556  -16.7241 C   0  0  0  0  0  0  0  0  0  0  0  0
   18.8251  -19.7129  -16.7302 C   0  0  0  0  0  0  0  0  0  0  0  0
   19.9663  -20.3305  -16.2560 C   0  0  0  0  0  0  0  0  0  0  0  0
   21.0036  -19.5968  -15.7756 C   0  0  0  0  0  0  0  0  0  0  0  0
   22.2377  -20.2133  -15.2518 C   0  0  0  0  0  0  0  0  0  0  0  0
   22.2111  -20.3502  -13.7637 C   0  0  2  0  0  0  0  0  0  0  0  0
   23.4076  -21.0560  -13.2927 N   0  0  0  0  0  0  0  0  0  0  0  0
   21.0434  -21.1146  -13.2724 C   0  0  0  0  0  0  0  0  0  0  0  0
   19.8432  -20.5059  -12.8977 O   0  0  0  0  0  0  0  0  0  0  0  0
   20.8989  -18.2066  -15.7687 C   0  0  0  0  0  0  0  0  0  0  0  0
   19.7665  -17.6070  -16.2399 C   0  0  0  0  0  0  0  0  0  0  0  0
   21.0614  -22.3867  -13.1585 O   0  0  0  0  0  0  0  0  0  0  0  0
  2  3  1  0
  2  1  1  6
  4  2  1  0
  5  4  2  0
  7  6  1  6
  7  8  1  0
  9  7  1  0
 10  9  1  1
 10 11  1  0
 11  4  1  0
 12 21  1  0
 12 10  1  0
 13 12  2  0
 15 14  1  0
 16 15  2  0
 17 16  1  0
 18 17  2  0
 18 24  1  0
 19 18  1  0
 20 19  1  6
 20 22  1  0
 20 21  1  0
 22 23  1  0
 24 25  2  0
 25 15  1  0
 26 22  2  0
M  END
$$$$
