ALY.pdb
     RDKit          3D

 26 26  0  0  1  0  0  0  0  0999 V2000
   22.8267  -20.8215  -16.7898 C   0  0  0  0  0  0  0  0  0  0  0  0
   24.2290  -20.3255  -16.4610 C   0  0  2  0  0  0  0  0  0  0  0  0
   24.7463  -21.0405  -15.3148 N   0  0  0  0  0  0  0  0  0  0  0  0
   24.1217  -18.8927  -16.1013 C   0  0  0  0  0  0  0  0  0  0  0  0
   23.6354  -18.6393  -14.9506 O   0  0  0  0  0  0  0  0  0  0  0  0
   26.7281  -14.9662  -15.2901 C   0  0  0  0  0  0  0  0  0  0  0  0
   26.8423  -15.6806  -16.6530 C   0  0  2  0  0  0  0  0  0  0  0  0
   27.9178  -14.9984  -17.4129 C   0  0  0  0  0  0  0  0  0  0  0  0
   25.5265  -15.7586  -17.2997 C   0  0  0  0  0  0  0  0  0  0  0  0
   24.4233  -16.4697  -16.6069 C   0  0  2  0  0  0  0  0  0  0  0  0
   24.5419  -17.8899  -17.0015 N   0  0  0  0  0  0  0  0  0  0  0  0
   23.0637  -16.0664  -17.0494 C   0  0  0  0  0  0  0  0  0  0  0  0
   22.5846  -16.4351  -18.1822 O   0  0  0  0  0  0  0  0  0  0  0  0
   14.8768  -12.9319  -17.5974 O   0  0  0  0  0  0  0  0  0  0  0  0
   16.1330  -13.3061  -17.1291 C   0  0  0  0  0  0  0  0  0  0  0  0
   17.0356  -12.3474  -16.7837 C   0  0  0  0  0  0  0  0  0  0  0  0
   18.2875  -12.6990  -16.3170 C   0  0  0  0  0  0  0  0  0  0  0  0
   18.6407  -14.0048  -16.1944 C   0  0  0  0  0  0  0  0  0  0  0  0
   19.9686  -14.4268  -15.7086 C   0  0  0  0  0  0  0  0  0  0  0  0
   20.8695  -14.8463  -16.8248 C   0  0  2  0  0  0  0  0  0  0  0  0
   22.1745  -15.2634  -16.3008 N   0  0  0  0  0  0  0  0  0  0  0  0
   21.1273  -13.7640  -17.8002 C   0  0  0  0  0  0  0  0  0  0  0  0
   20.4380  -13.6553  -19.0103 O   0  0  0  0  0  0  0  0  0  0  0  0
   17.7176  -14.9881  -16.5475 C   0  0  0  0  0  0  0  0  0  0  0  0
   16.4833  -14.6291  -17.0075 C   0  0  0  0  0  0  0  0  0  0  0  0
   22.0029  -12.8568  -17.5950 O   0  0  0  0  0  0  0  0  0  0  0  0
  2  3  1  0
  2  1  1  1
  4  2  1  0
  5  4  2  0
  7  6  1  1
  7  8  1  0
  9  7  1  0
 10  9  1  6
 10 11  1  0
 11  4  1  0
 12 21  1  0
 12 10  1  0
 13 12  2  0
 15 14  1  0
 16 15  2  0
 17 16  1  0
 18 17  2  0
 18 24  1  0
 19 18  1  0
 20 19  1  1
 20 22  1  0
 20 21  1  0
 22 23  1  0
 24 25  2  0
 25 15  1  0
 26 22  2  0
M  END
$$$$
