ALY.pdb
     RDKit          3D

 26 26  0  0  1  0  0  0  0  0999 V2000
   26.7890  -21.4339  -13.6375 C   0  0  0  0  0  0  0  0  0  0  0  0
   26.1393  -21.0058  -14.9471 C   0  0  2  0  0  0  0  0  0  0  0  0
   26.9517  -19.9968  -15.5912 N   0  0  0  0  0  0  0  0  0  0  0  0
   24.8282  -20.4011  -14.6170 C   0  0  0  0  0  0  0  0  0  0  0  0
   24.8644  -19.3143  -13.9517 O   0  0  0  0  0  0  0  0  0  0  0  0
   21.4043  -17.6727  -15.7238 C   0  0  0  0  0  0  0  0  0  0  0  0
   21.8546  -18.8147  -16.6587 C   0  0  2  0  0  0  0  0  0  0  0  0
   21.1597  -18.6162  -17.9539 C   0  0  0  0  0  0  0  0  0  0  0  0
   21.6667  -20.1147  -16.0029 C   0  0  0  0  0  0  0  0  0  0  0  0
   22.3364  -20.3705  -14.7033 C   0  0  2  0  0  0  0  0  0  0  0  0
   23.6263  -21.0161  -15.0290 N   0  0  0  0  0  0  0  0  0  0  0  0
   21.6320  -21.3492  -13.8354 C   0  0  0  0  0  0  0  0  0  0  0  0
   21.6167  -22.6042  -14.1063 O   0  0  0  0  0  0  0  0  0  0  0  0
   17.3754  -25.2489   -7.1849 O   0  0  0  0  0  0  0  0  0  0  0  0
   18.0377  -24.3240   -7.9871 C   0  0  0  0  0  0  0  0  0  0  0  0
   17.3200  -23.3959   -8.6774 C   0  0  0  0  0  0  0  0  0  0  0  0
   17.9593  -22.4697   -9.4788 C   0  0  0  0  0  0  0  0  0  0  0  0
   19.3128  -22.4678   -9.5929 C   0  0  0  0  0  0  0  0  0  0  0  0
   20.0374  -21.5035  -10.4430 C   0  0  0  0  0  0  0  0  0  0  0  0
   20.3055  -22.0472  -11.8090 C   0  0  2  0  0  0  0  0  0  0  0  0
   20.9275  -21.0231  -12.6552 N   0  0  0  0  0  0  0  0  0  0  0  0
   19.0789  -22.4910  -12.5077 C   0  0  0  0  0  0  0  0  0  0  0  0
   18.6637  -23.8244  -12.5353 O   0  0  0  0  0  0  0  0  0  0  0  0
   20.0495  -23.4175   -8.8865 C   0  0  0  0  0  0  0  0  0  0  0  0
   19.4072  -24.3280   -8.0975 C   0  0  0  0  0  0  0  0  0  0  0  0
   18.3198  -21.6767  -13.1341 O   0  0  0  0  0  0  0  0  0  0  0  0
  2  3  1  0
  2  1  1  1
  4  2  1  0
  5  4  2  0
  7  6  1  1
  7  8  1  0
  9  7  1  0
 10  9  1  6
 10 11  1  0
 11  4  1  0
 12 21  1  0
 12 10  1  0
 13 12  2  0
 15 14  1  0
 16 15  2  0
 17 16  1  0
 18 17  2  0
 18 24  1  0
 19 18  1  0
 20 19  1  1
 20 22  1  0
 20 21  1  0
 22 23  1  0
 24 25  2  0
 25 15  1  0
 26 22  2  0
M  END
$$$$
