ALY.pdb
     RDKit          3D

 26 26  0  0  1  0  0  0  0  0999 V2000
   14.8822  -18.9063    5.3142 C   0  0  0  0  0  0  0  0  0  0  0  0
   15.8335  -17.7328    5.5095 C   0  0  2  0  0  0  0  0  0  0  0  0
   15.7964  -16.8722    4.3472 N   0  0  0  0  0  0  0  0  0  0  0  0
   17.2026  -18.2848    5.6314 C   0  0  0  0  0  0  0  0  0  0  0  0
   17.8341  -18.4621    4.5384 O   0  0  0  0  0  0  0  0  0  0  0  0
   21.8253  -18.0055    7.8036 C   0  0  0  0  0  0  0  0  0  0  0  0
   20.5158  -17.7777    8.5873 C   0  0  2  0  0  0  0  0  0  0  0  0
   20.8934  -17.5043    9.9953 C   0  0  0  0  0  0  0  0  0  0  0  0
   19.5848  -18.8897    8.3591 C   0  0  0  0  0  0  0  0  0  0  0  0
   19.1087  -19.1603    6.9796 C   0  0  2  0  0  0  0  0  0  0  0  0
   17.7481  -18.5867    6.8977 N   0  0  0  0  0  0  0  0  0  0  0  0
   18.9311  -20.6016    6.6664 C   0  0  0  0  0  0  0  0  0  0  0  0
   17.8216  -21.2093    6.8865 O   0  0  0  0  0  0  0  0  0  0  0  0
   19.2100  -28.5716    3.1467 O   0  0  0  0  0  0  0  0  0  0  0  0
   19.4052  -27.2278    3.4525 C   0  0  0  0  0  0  0  0  0  0  0  0
   19.6052  -26.3311    2.4480 C   0  0  0  0  0  0  0  0  0  0  0  0
   19.8007  -24.9931    2.7315 C   0  0  0  0  0  0  0  0  0  0  0  0
   19.7974  -24.5482    4.0149 C   0  0  0  0  0  0  0  0  0  0  0  0
   20.0101  -23.1306    4.3652 C   0  0  0  0  0  0  0  0  0  0  0  0
   19.6731  -22.8467    5.7933 C   0  0  2  0  0  0  0  0  0  0  0  0
   19.9249  -21.4364    6.1085 N   0  0  0  0  0  0  0  0  0  0  0  0
   20.4720  -23.6467    6.7479 C   0  0  0  0  0  0  0  0  0  0  0  0
   21.4508  -23.0862    7.5720 O   0  0  0  0  0  0  0  0  0  0  0  0
   19.5926  -25.4651    5.0450 C   0  0  0  0  0  0  0  0  0  0  0  0
   19.4003  -26.7849    4.7532 C   0  0  0  0  0  0  0  0  0  0  0  0
   20.3159  -24.9079    6.8769 O   0  0  0  0  0  0  0  0  0  0  0  0
  2  3  1  0
  2  1  1  6
  4  2  1  0
  5  4  2  0
  7  6  1  6
  7  8  1  0
  9  7  1  0
 10  9  1  1
 10 11  1  0
 11  4  1  0
 12 21  1  0
 12 10  1  0
 13 12  2  0
 15 14  1  0
 16 15  2  0
 17 16  1  0
 18 17  2  0
 18 24  1  0
 19 18  1  0
 20 19  1  6
 20 22  1  0
 20 21  1  0
 22 23  1  0
 24 25  2  0
 25 15  1  0
 26 22  2  0
M  END
$$$$
