ALY.pdb
     RDKit          3D

 26 26  0  0  1  0  0  0  0  0999 V2000
   28.1529  -22.8723  -16.9446 C   0  0  0  0  0  0  0  0  0  0  0  0
   27.7584  -21.9789  -18.1136 C   0  0  2  0  0  0  0  0  0  0  0  0
   28.9328  -21.3287  -18.6526 N   0  0  0  0  0  0  0  0  0  0  0  0
   26.8516  -20.9323  -17.5880 C   0  0  0  0  0  0  0  0  0  0  0  0
   27.4016  -20.0053  -16.9075 O   0  0  0  0  0  0  0  0  0  0  0  0
   21.2837  -18.9491  -19.0557 C   0  0  0  0  0  0  0  0  0  0  0  0
   22.3839  -18.8453  -17.9787 C   0  0  2  0  0  0  0  0  0  0  0  0
   22.7292  -17.4090  -17.8468 C   0  0  0  0  0  0  0  0  0  0  0  0
   23.4878  -19.7625  -18.2874 C   0  0  0  0  0  0  0  0  0  0  0  0
   24.5900  -19.9208  -17.3061 C   0  0  2  0  0  0  0  0  0  0  0  0
   25.4643  -20.9859  -17.8427 N   0  0  0  0  0  0  0  0  0  0  0  0
   24.1567  -20.4214  -15.9762 C   0  0  0  0  0  0  0  0  0  0  0  0
   23.7701  -21.6335  -15.8035 O   0  0  0  0  0  0  0  0  0  0  0  0
   22.5273  -21.2677   -7.3543 O   0  0  0  0  0  0  0  0  0  0  0  0
   22.9838  -20.8286   -8.5938 C   0  0  0  0  0  0  0  0  0  0  0  0
   22.1830  -20.0451   -9.3670 C   0  0  0  0  0  0  0  0  0  0  0  0
   22.6183  -19.5995  -10.6001 C   0  0  0  0  0  0  0  0  0  0  0  0
   23.8506  -19.9341  -11.0633 C   0  0  0  0  0  0  0  0  0  0  0  0
   24.3540  -19.4882  -12.3769 C   0  0  0  0  0  0  0  0  0  0  0  0
   23.6950  -20.2104  -13.5073 C   0  0  2  0  0  0  0  0  0  0  0  0
   24.1245  -19.6501  -14.7930 N   0  0  0  0  0  0  0  0  0  0  0  0
   22.2186  -20.1173  -13.4729 C   0  0  0  0  0  0  0  0  0  0  0  0
   21.4082  -21.1284  -12.9512 O   0  0  0  0  0  0  0  0  0  0  0  0
   24.6722  -20.7363  -10.2727 C   0  0  0  0  0  0  0  0  0  0  0  0
   24.2317  -21.1709   -9.0557 C   0  0  0  0  0  0  0  0  0  0  0  0
   21.5899  -19.1003  -13.9225 O   0  0  0  0  0  0  0  0  0  0  0  0
  2  3  1  0
  2  1  1  1
  4  2  1  0
  5  4  2  0
  7  6  1  6
  7  8  1  0
  9  7  1  0
 10  9  1  6
 10 11  1  0
 11  4  1  0
 12 21  1  0
 12 10  1  0
 13 12  2  0
 15 14  1  0
 16 15  2  0
 17 16  1  0
 18 17  2  0
 18 24  1  0
 19 18  1  0
 20 19  1  1
 20 22  1  0
 20 21  1  0
 22 23  1  0
 24 25  2  0
 25 15  1  0
 26 22  2  0
M  END
$$$$
