ALY.pdb
     RDKit          3D

 26 26  0  0  1  0  0  0  0  0999 V2000
   27.5528  -21.6516  -20.1164 C   0  0  0  0  0  0  0  0  0  0  0  0
   29.0629  -21.8379  -20.1904 C   0  0  2  0  0  0  0  0  0  0  0  0
   29.4772  -21.9438  -21.5724 N   0  0  0  0  0  0  0  0  0  0  0  0
   29.3880  -23.1138  -19.5121 C   0  0  0  0  0  0  0  0  0  0  0  0
   29.2468  -24.1709  -20.2104 O   0  0  0  0  0  0  0  0  0  0  0  0
   32.8282  -26.0259  -16.8211 C   0  0  0  0  0  0  0  0  0  0  0  0
   31.8307  -25.3179  -15.8805 C   0  0  2  0  0  0  0  0  0  0  0  0
   30.9138  -26.3589  -15.3558 C   0  0  0  0  0  0  0  0  0  0  0  0
   31.2093  -24.1759  -16.5626 C   0  0  0  0  0  0  0  0  0  0  0  0
   30.0932  -24.4215  -17.5096 C   0  0  2  0  0  0  0  0  0  0  0  0
   29.8261  -23.1258  -18.1703 N   0  0  0  0  0  0  0  0  0  0  0  0
   28.8086  -24.7861  -16.8585 C   0  0  0  0  0  0  0  0  0  0  0  0
   28.3955  -24.1909  -15.7985 O   0  0  0  0  0  0  0  0  0  0  0  0
   20.7051  -26.4450  -14.4986 O   0  0  0  0  0  0  0  0  0  0  0  0
   21.9168  -26.1295  -15.1065 C   0  0  0  0  0  0  0  0  0  0  0  0
   22.7363  -25.2052  -14.5344 C   0  0  0  0  0  0  0  0  0  0  0  0
   23.9429  -24.8786  -15.1227 C   0  0  0  0  0  0  0  0  0  0  0  0
   24.3334  -25.4721  -16.2805 C   0  0  0  0  0  0  0  0  0  0  0  0
   25.6089  -25.1487  -16.9485 C   0  0  0  0  0  0  0  0  0  0  0  0
   26.6877  -26.1244  -16.6050 C   0  0  2  0  0  0  0  0  0  0  0  0
   27.9263  -25.7900  -17.3162 N   0  0  0  0  0  0  0  0  0  0  0  0
   26.3480  -27.5172  -16.9708 C   0  0  0  0  0  0  0  0  0  0  0  0
   25.8131  -28.4305  -16.0593 O   0  0  0  0  0  0  0  0  0  0  0  0
   23.4956  -26.4190  -16.8677 C   0  0  0  0  0  0  0  0  0  0  0  0
   22.3055  -26.7341  -16.2775 C   0  0  0  0  0  0  0  0  0  0  0  0
   26.5256  -27.9740  -18.1505 O   0  0  0  0  0  0  0  0  0  0  0  0
  2  3  1  0
  2  1  1  6
  4  2  1  0
  5  4  2  0
  7  6  1  6
  7  8  1  0
  9  7  1  0
 10  9  1  1
 10 11  1  0
 11  4  1  0
 12 21  1  0
 12 10  1  0
 13 12  2  0
 15 14  1  0
 16 15  2  0
 17 16  1  0
 18 17  2  0
 18 24  1  0
 19 18  1  0
 20 19  1  6
 20 22  1  0
 20 21  1  0
 22 23  1  0
 24 25  2  0
 25 15  1  0
 26 22  2  0
M  END
$$$$
