ALY.pdb
     RDKit          3D

 26 26  0  0  1  0  0  0  0  0999 V2000
   26.3806  -20.2019  -18.4459 C   0  0  0  0  0  0  0  0  0  0  0  0
   27.2769  -20.4560  -17.2407 C   0  0  2  0  0  0  0  0  0  0  0  0
   28.3402  -21.3674  -17.6034 N   0  0  0  0  0  0  0  0  0  0  0  0
   26.4483  -21.1049  -16.1985 C   0  0  0  0  0  0  0  0  0  0  0  0
   26.0862  -22.3036  -16.4371 O   0  0  0  0  0  0  0  0  0  0  0  0
   25.6707  -20.0898  -10.2550 C   0  0  0  0  0  0  0  0  0  0  0  0
   25.1675  -20.9572  -11.4279 C   0  0  2  0  0  0  0  0  0  0  0  0
   25.3015  -22.3739  -11.0099 C   0  0  0  0  0  0  0  0  0  0  0  0
   25.8419  -20.5712  -12.6735 C   0  0  0  0  0  0  0  0  0  0  0  0
   25.3475  -21.1192  -13.9612 C   0  0  2  0  0  0  0  0  0  0  0  0
   26.0969  -20.4105  -15.0208 N   0  0  0  0  0  0  0  0  0  0  0  0
   23.9198  -20.8214  -14.2438 C   0  0  0  0  0  0  0  0  0  0  0  0
   23.4955  -19.6177  -14.3842 O   0  0  0  0  0  0  0  0  0  0  0  0
   16.7745  -24.1645  -11.3716 O   0  0  0  0  0  0  0  0  0  0  0  0
   17.7539  -23.7835  -12.2843 C   0  0  0  0  0  0  0  0  0  0  0  0
   17.4519  -22.8819  -13.2585 C   0  0  0  0  0  0  0  0  0  0  0  0
   18.4105  -22.4913  -14.1735 C   0  0  0  0  0  0  0  0  0  0  0  0
   19.6694  -22.9985  -14.1187 C   0  0  0  0  0  0  0  0  0  0  0  0
   20.7226  -22.6169  -15.0793 C   0  0  0  0  0  0  0  0  0  0  0  0
   21.5021  -21.4283  -14.6177 C   0  0  2  0  0  0  0  0  0  0  0  0
   22.9042  -21.7928  -14.3880 N   0  0  0  0  0  0  0  0  0  0  0  0
   20.9955  -20.8595  -13.3491 C   0  0  0  0  0  0  0  0  0  0  0  0
   21.5150  -21.2111  -12.1010 O   0  0  0  0  0  0  0  0  0  0  0  0
   19.9806  -23.9219  -13.1216 C   0  0  0  0  0  0  0  0  0  0  0  0
   19.0254  -24.3006  -12.2226 C   0  0  0  0  0  0  0  0  0  0  0  0
   20.0445  -20.0074  -13.3168 O   0  0  0  0  0  0  0  0  0  0  0  0
  2  3  1  0
  2  1  1  6
  4  2  1  0
  5  4  2  0
  7  6  1  1
  7  8  1  0
  9  7  1  0
 10  9  1  1
 10 11  1  0
 11  4  1  0
 12 21  1  0
 12 10  1  0
 13 12  2  0
 15 14  1  0
 16 15  2  0
 17 16  1  0
 18 17  2  0
 18 24  1  0
 19 18  1  0
 20 19  1  1
 20 22  1  0
 20 21  1  0
 22 23  1  0
 24 25  2  0
 25 15  1  0
 26 22  2  0
M  END
$$$$
