ALY.pdb
     RDKit          3D

 26 26  0  0  1  0  0  0  0  0999 V2000
   27.6344  -19.1545  -15.6847 C   0  0  0  0  0  0  0  0  0  0  0  0
   28.3083  -20.2716  -14.8982 C   0  0  2  0  0  0  0  0  0  0  0  0
   28.8189  -21.2735  -15.8081 N   0  0  0  0  0  0  0  0  0  0  0  0
   27.2736  -20.9045  -14.0481 C   0  0  0  0  0  0  0  0  0  0  0  0
   26.6141  -21.8552  -14.5832 O   0  0  0  0  0  0  0  0  0  0  0  0
   27.4149  -21.0123   -8.3054 C   0  0  0  0  0  0  0  0  0  0  0  0
   27.2188  -21.5965   -9.7201 C   0  0  2  0  0  0  0  0  0  0  0  0
   28.5699  -21.8209  -10.2892 C   0  0  0  0  0  0  0  0  0  0  0  0
   26.3080  -20.7492  -10.4999 C   0  0  0  0  0  0  0  0  0  0  0  0
   26.0116  -21.1135  -11.9078 C   0  0  2  0  0  0  0  0  0  0  0  0
   27.0542  -20.4588  -12.7269 N   0  0  0  0  0  0  0  0  0  0  0  0
   24.7288  -20.5691  -12.4225 C   0  0  0  0  0  0  0  0  0  0  0  0
   24.5588  -19.3117  -12.6194 O   0  0  0  0  0  0  0  0  0  0  0  0
   16.9362  -19.6640  -16.4010 O   0  0  0  0  0  0  0  0  0  0  0  0
   18.1798  -20.0899  -15.9434 C   0  0  0  0  0  0  0  0  0  0  0  0
   19.2828  -19.3301  -16.1865 C   0  0  0  0  0  0  0  0  0  0  0  0
   20.5257  -19.7361  -15.7404 C   0  0  0  0  0  0  0  0  0  0  0  0
   20.6705  -20.8985  -15.0528 C   0  0  0  0  0  0  0  0  0  0  0  0
   21.9788  -21.3756  -14.5647 C   0  0  0  0  0  0  0  0  0  0  0  0
   22.3596  -20.7436  -13.2650 C   0  0  2  0  0  0  0  0  0  0  0  0
   23.5926  -21.3443  -12.7451 N   0  0  0  0  0  0  0  0  0  0  0  0
   21.3291  -20.9083  -12.2161 C   0  0  0  0  0  0  0  0  0  0  0  0
   20.2380  -20.0460  -12.0846 O   0  0  0  0  0  0  0  0  0  0  0  0
   19.5419  -21.6780  -14.8029 C   0  0  0  0  0  0  0  0  0  0  0  0
   18.3186  -21.2670  -15.2483 C   0  0  0  0  0  0  0  0  0  0  0  0
   21.3749  -21.8546  -11.3593 O   0  0  0  0  0  0  0  0  0  0  0  0
  2  3  1  0
  2  1  1  6
  4  2  1  0
  5  4  2  0
  7  6  1  1
  7  8  1  0
  9  7  1  0
 10  9  1  1
 10 11  1  0
 11  4  1  0
 12 21  1  0
 12 10  1  0
 13 12  2  0
 15 14  1  0
 16 15  2  0
 17 16  1  0
 18 17  2  0
 18 24  1  0
 19 18  1  0
 20 19  1  6
 20 22  1  0
 20 21  1  0
 22 23  1  0
 24 25  2  0
 25 15  1  0
 26 22  2  0
M  END
$$$$
