ALY.pdb
     RDKit          3D

 26 26  0  0  1  0  0  0  0  0999 V2000
   22.9767  -16.0523  -18.7514 C   0  0  0  0  0  0  0  0  0  0  0  0
   24.3821  -16.6188  -18.9071 C   0  0  2  0  0  0  0  0  0  0  0  0
   24.5797  -17.0750  -20.2656 N   0  0  0  0  0  0  0  0  0  0  0  0
   24.4928  -17.7894  -18.0064 C   0  0  0  0  0  0  0  0  0  0  0  0
   23.8735  -18.8406  -18.3759 O   0  0  0  0  0  0  0  0  0  0  0  0
   28.3801  -19.5076  -13.6366 C   0  0  0  0  0  0  0  0  0  0  0  0
   27.0636  -19.8852  -14.3476 C   0  0  2  0  0  0  0  0  0  0  0  0
   27.2504  -21.2418  -14.9170 C   0  0  0  0  0  0  0  0  0  0  0  0
   26.6684  -18.8263  -15.2846 C   0  0  0  0  0  0  0  0  0  0  0  0
   25.3412  -18.9052  -15.9443 C   0  0  2  0  0  0  0  0  0  0  0  0
   25.2471  -17.7143  -16.8157 N   0  0  0  0  0  0  0  0  0  0  0  0
   24.1888  -18.7856  -15.0143 C   0  0  0  0  0  0  0  0  0  0  0  0
   23.9658  -17.7100  -14.3495 O   0  0  0  0  0  0  0  0  0  0  0  0
   19.1883  -19.7435  -19.6568 O   0  0  0  0  0  0  0  0  0  0  0  0
   19.6944  -19.4253  -18.3998 C   0  0  0  0  0  0  0  0  0  0  0  0
   19.3078  -20.1511  -17.3150 C   0  0  0  0  0  0  0  0  0  0  0  0
   19.7992  -19.8505  -16.0593 C   0  0  0  0  0  0  0  0  0  0  0  0
   20.6751  -18.8273  -15.8837 C   0  0  0  0  0  0  0  0  0  0  0  0
   21.2192  -18.4651  -14.5607 C   0  0  0  0  0  0  0  0  0  0  0  0
   22.0342  -19.5677  -13.9658 C   0  0  2  0  0  0  0  0  0  0  0  0
   23.2403  -19.8029  -14.7669 N   0  0  0  0  0  0  0  0  0  0  0  0
   21.3078  -20.8550  -13.8997 C   0  0  0  0  0  0  0  0  0  0  0  0
   21.7024  -21.9849  -14.6202 O   0  0  0  0  0  0  0  0  0  0  0  0
   21.0723  -18.0829  -16.9935 C   0  0  0  0  0  0  0  0  0  0  0  0
   20.5804  -18.3889  -18.2298 C   0  0  0  0  0  0  0  0  0  0  0  0
   20.2672  -21.0133  -13.1760 O   0  0  0  0  0  0  0  0  0  0  0  0
  2  3  1  0
  2  1  1  6
  4  2  1  0
  5  4  2  0
  7  6  1  6
  7  8  1  0
  9  7  1  0
 10  9  1  1
 10 11  1  0
 11  4  1  0
 12 21  1  0
 12 10  1  0
 13 12  2  0
 15 14  1  0
 16 15  2  0
 17 16  1  0
 18 17  2  0
 18 24  1  0
 19 18  1  0
 20 19  1  6
 20 22  1  0
 20 21  1  0
 22 23  1  0
 24 25  2  0
 25 15  1  0
 26 22  2  0
M  END
$$$$
