ALY.pdb
     RDKit          3D

 26 26  0  0  1  0  0  0  0  0999 V2000
   18.3356  -13.8943  -15.9717 C   0  0  0  0  0  0  0  0  0  0  0  0
   19.0312  -13.7292  -17.3168 C   0  0  2  0  0  0  0  0  0  0  0  0
   20.0241  -14.7675  -17.4867 N   0  0  0  0  0  0  0  0  0  0  0  0
   19.7283  -12.4224  -17.3002 C   0  0  0  0  0  0  0  0  0  0  0  0
   20.8858  -12.4120  -16.7663 O   0  0  0  0  0  0  0  0  0  0  0  0
   19.0011   -7.1732  -20.3565 C   0  0  0  0  0  0  0  0  0  0  0  0
   19.7718   -7.8296  -19.1920 C   0  0  2  0  0  0  0  0  0  0  0  0
   21.2170   -7.6331  -19.4613 C   0  0  0  0  0  0  0  0  0  0  0  0
   19.3203   -9.2130  -18.9974 C   0  0  0  0  0  0  0  0  0  0  0  0
   19.8656   -9.9967  -17.8611 C   0  0  2  0  0  0  0  0  0  0  0  0
   19.1202  -11.2738  -17.8511 N   0  0  0  0  0  0  0  0  0  0  0  0
   19.6076   -9.3977  -16.5263 C   0  0  0  0  0  0  0  0  0  0  0  0
   18.4875   -9.5571  -15.9191 O   0  0  0  0  0  0  0  0  0  0  0  0
   24.7496   -3.9518  -16.1031 O   0  0  0  0  0  0  0  0  0  0  0  0
   23.9424   -4.9142  -15.5033 C   0  0  0  0  0  0  0  0  0  0  0  0
   24.1196   -6.2283  -15.8115 C   0  0  0  0  0  0  0  0  0  0  0  0
   23.3284   -7.1981  -15.2266 C   0  0  0  0  0  0  0  0  0  0  0  0
   22.3607   -6.8596  -14.3355 C   0  0  0  0  0  0  0  0  0  0  0  0
   21.4870   -7.8602  -13.6927 C   0  0  0  0  0  0  0  0  0  0  0  0
   20.2274   -8.0867  -14.4646 C   0  0  2  0  0  0  0  0  0  0  0  0
   20.5320   -8.6158  -15.7984 N   0  0  0  0  0  0  0  0  0  0  0  0
   19.4399   -6.8502  -14.6654 C   0  0  0  0  0  0  0  0  0  0  0  0
   18.7267   -6.2312  -13.6361 O   0  0  0  0  0  0  0  0  0  0  0  0
   22.1779   -5.5144  -14.0186 C   0  0  0  0  0  0  0  0  0  0  0  0
   22.9657   -4.5644  -14.6025 C   0  0  0  0  0  0  0  0  0  0  0  0
   19.3620   -6.2694  -15.8005 O   0  0  0  0  0  0  0  0  0  0  0  0
  2  3  1  0
  2  1  1  1
  4  2  1  0
  5  4  2  0
  7  6  1  6
  7  8  1  0
  9  7  1  0
 10  9  1  6
 10 11  1  0
 11  4  1  0
 12 21  1  0
 12 10  1  0
 13 12  2  0
 15 14  1  0
 16 15  2  0
 17 16  1  0
 18 17  2  0
 18 24  1  0
 19 18  1  0
 20 19  1  6
 20 22  1  0
 20 21  1  0
 22 23  1  0
 24 25  2  0
 25 15  1  0
 26 22  2  0
M  END
$$$$
