ALY.pdb
     RDKit          3D

 26 26  0  0  1  0  0  0  0  0999 V2000
   23.4005  -17.1029  -15.9896 C   0  0  0  0  0  0  0  0  0  0  0  0
   24.6004  -18.0033  -15.7250 C   0  0  2  0  0  0  0  0  0  0  0  0
   25.2377  -18.3521  -16.9760 N   0  0  0  0  0  0  0  0  0  0  0  0
   24.0943  -19.2481  -15.1021 C   0  0  0  0  0  0  0  0  0  0  0  0
   23.6786  -20.1470  -15.9048 O   0  0  0  0  0  0  0  0  0  0  0  0
   26.2041  -22.4146  -12.6315 C   0  0  0  0  0  0  0  0  0  0  0  0
   25.9108  -21.0691  -11.9355 C   0  0  2  0  0  0  0  0  0  0  0  0
   26.6532  -21.0726  -10.6516 C   0  0  0  0  0  0  0  0  0  0  0  0
   24.4627  -20.8398  -11.8585 C   0  0  0  0  0  0  0  0  0  0  0  0
   23.6867  -20.6995  -13.1159 C   0  0  2  0  0  0  0  0  0  0  0  0
   24.0856  -19.4003  -13.6988 N   0  0  0  0  0  0  0  0  0  0  0  0
   22.2183  -20.5906  -12.9185 C   0  0  0  0  0  0  0  0  0  0  0  0
   21.7129  -19.8453  -12.0033 O   0  0  0  0  0  0  0  0  0  0  0  0
   20.1719  -14.8194  -14.3301 O   0  0  0  0  0  0  0  0  0  0  0  0
   19.9282  -16.1881  -14.3993 C   0  0  0  0  0  0  0  0  0  0  0  0
   19.0019  -16.7493  -13.5746 C   0  0  0  0  0  0  0  0  0  0  0  0
   18.7460  -18.1059  -13.6283 C   0  0  0  0  0  0  0  0  0  0  0  0
   19.4124  -18.9035  -14.5027 C   0  0  0  0  0  0  0  0  0  0  0  0
   19.1781  -20.3579  -14.5894 C   0  0  0  0  0  0  0  0  0  0  0  0
   19.8083  -21.0985  -13.4545 C   0  0  2  0  0  0  0  0  0  0  0  0
   21.2464  -21.2674  -13.6887 N   0  0  0  0  0  0  0  0  0  0  0  0
   19.2451  -22.4531  -13.2619 C   0  0  0  0  0  0  0  0  0  0  0  0
   17.9457  -22.6741  -12.7991 O   0  0  0  0  0  0  0  0  0  0  0  0
   20.3614  -18.3305  -15.3482 C   0  0  0  0  0  0  0  0  0  0  0  0
   20.6060  -16.9888  -15.2866 C   0  0  0  0  0  0  0  0  0  0  0  0
   19.9173  -23.5112  -13.5072 O   0  0  0  0  0  0  0  0  0  0  0  0
  2  3  1  0
  2  1  1  6
  4  2  1  0
  5  4  2  0
  7  6  1  1
  7  8  1  0
  9  7  1  0
 10  9  1  1
 10 11  1  0
 11  4  1  0
 12 21  1  0
 12 10  1  0
 13 12  2  0
 15 14  1  0
 16 15  2  0
 17 16  1  0
 18 17  2  0
 18 24  1  0
 19 18  1  0
 20 19  1  6
 20 22  1  0
 20 21  1  0
 22 23  1  0
 24 25  2  0
 25 15  1  0
 26 22  2  0
M  END
$$$$
