ALY.pdb
     RDKit          3D

 26 26  0  0  1  0  0  0  0  0999 V2000
   25.7652  -18.0493  -17.8010 C   0  0  0  0  0  0  0  0  0  0  0  0
   27.2489  -18.3904  -17.7504 C   0  0  2  0  0  0  0  0  0  0  0  0
   27.7075  -18.7824  -19.0653 N   0  0  0  0  0  0  0  0  0  0  0  0
   27.4087  -19.5490  -16.8415 C   0  0  0  0  0  0  0  0  0  0  0  0
   27.3656  -20.6997  -17.3884 O   0  0  0  0  0  0  0  0  0  0  0  0
   30.0866  -20.3464  -11.4575 C   0  0  0  0  0  0  0  0  0  0  0  0
   29.2157  -21.0490  -12.5200 C   0  0  2  0  0  0  0  0  0  0  0  0
   29.9936  -22.2071  -13.0233 C   0  0  0  0  0  0  0  0  0  0  0  0
   28.7533  -20.0806  -13.5219 C   0  0  0  0  0  0  0  0  0  0  0  0
   27.8267  -20.5336  -14.5892 C   0  0  2  0  0  0  0  0  0  0  0  0
   27.5961  -19.3577  -15.4556 N   0  0  0  0  0  0  0  0  0  0  0  0
   26.4759  -20.9162  -14.1033 C   0  0  0  0  0  0  0  0  0  0  0  0
   26.2709  -22.0156  -13.4725 O   0  0  0  0  0  0  0  0  0  0  0  0
   22.4004  -21.8774   -7.6734 O   0  0  0  0  0  0  0  0  0  0  0  0
   22.7082  -21.2870   -8.8957 C   0  0  0  0  0  0  0  0  0  0  0  0
   21.7615  -21.2284   -9.8722 C   0  0  0  0  0  0  0  0  0  0  0  0
   22.0480  -20.6464  -11.0920 C   0  0  0  0  0  0  0  0  0  0  0  0
   23.2768  -20.1233  -11.3396 C   0  0  0  0  0  0  0  0  0  0  0  0
   23.6300  -19.4999  -12.6297 C   0  0  0  0  0  0  0  0  0  0  0  0
   24.0287  -20.5125  -13.6540 C   0  0  2  0  0  0  0  0  0  0  0  0
   25.3066  -20.1413  -14.2711 N   0  0  0  0  0  0  0  0  0  0  0  0
   23.0464  -20.6440  -14.7527 C   0  0  0  0  0  0  0  0  0  0  0  0
   23.3625  -20.3773  -16.0869 O   0  0  0  0  0  0  0  0  0  0  0  0
   24.2476  -20.1823  -10.3408 C   0  0  0  0  0  0  0  0  0  0  0  0
   23.9534  -20.7596   -9.1390 C   0  0  0  0  0  0  0  0  0  0  0  0
   21.8401  -21.0106  -14.5472 O   0  0  0  0  0  0  0  0  0  0  0  0
  2  3  1  0
  2  1  1  6
  4  2  1  0
  5  4  2  0
  7  6  1  1
  7  8  1  0
  9  7  1  0
 10  9  1  1
 10 11  1  0
 11  4  1  0
 12 21  1  0
 12 10  1  0
 13 12  2  0
 15 14  1  0
 16 15  2  0
 17 16  1  0
 18 17  2  0
 18 24  1  0
 19 18  1  0
 20 19  1  1
 20 22  1  0
 20 21  1  0
 22 23  1  0
 24 25  2  0
 25 15  1  0
 26 22  2  0
M  END
$$$$
