RPI.pdb
     RDKit          3D

 27 27  0  0  1  0  0  0  0  0999 V2000
   11.5500  -18.2874   14.4641 N   0  0  0  0  0  0  0  0  0  0  0  0
   11.7441  -18.5146   15.8645 C   0  0  0  0  0  0  0  0  0  0  0  0
   12.9262  -18.6396   16.3386 N   0  0  0  0  0  0  0  0  0  0  0  0
   10.6033  -18.6026   16.7300 N   0  0  0  0  0  0  0  0  0  0  0  0
    9.2577  -18.4788   16.2536 C   0  0  0  0  0  0  0  0  0  0  0  0
    9.1323  -17.4919   15.0908 C   0  0  0  0  0  0  0  0  0  0  0  0
    8.0936  -16.4863   15.5055 C   0  0  0  0  0  0  0  0  0  0  0  0
    8.5982  -15.0538   15.4250 C   0  0  2  0  0  0  0  0  0  0  0  0
    9.2478  -14.7850   14.1715 N   0  0  0  0  0  0  0  0  0  0  0  0
    9.3257  -14.6428   16.6237 C   0  0  0  0  0  0  0  0  0  0  0  0
   10.5941  -14.5001   16.5077 O   0  0  0  0  0  0  0  0  0  0  0  0
   13.0430  -18.9258   17.3338 N   0  0  0  0  0  0  0  0  0  0  0  0
    8.7698  -14.3858   17.9104 C   0  0  0  0  0  0  0  0  0  0  0  0
    7.4590  -14.6734   18.4345 C   0  0  0  0  0  0  0  0  0  0  0  0
    7.1653  -13.4776   19.2998 C   0  0  0  0  0  0  0  0  0  0  0  0
    8.4979  -12.8450   19.6186 C   0  0  2  0  0  0  0  0  0  0  0  0
    9.4854  -13.7457   18.9928 C   0  0  0  0  0  0  0  0  0  0  0  0
   10.1243  -14.7169   19.9044 O   0  0  0  0  0  0  0  0  0  0  0  0
    9.6099  -15.8551   20.0000 C   0  0  0  0  0  0  0  0  0  0  0  0
   15.4796  -13.6347   21.4691 C   0  0  0  0  0  0  0  0  0  0  0  0
   14.0645  -14.0032   21.7551 C   0  0  2  0  0  0  0  0  0  0  0  0
   13.5407  -15.1851   21.0104 C   0  0  0  0  0  0  0  0  0  0  0  0
   13.7316  -14.9186   19.5228 C   0  0  1  0  0  0  0  0  0  0  0  0
   12.1066  -15.5094   21.2389 N   0  0  0  0  0  0  0  0  0  0  0  0
   11.2843  -14.4520   20.6843 C   0  0  0  0  0  0  0  0  0  0  0  0
   11.7470  -15.8279   22.6309 O   0  0  0  0  0  0  0  0  0  0  0  0
   10.8506  -15.0325   23.3040 O   0  0  0  0  0  0  0  0  0  0  0  0
  2  4  1  0
  2  1  1  0
  3  2  2  0
  5  4  1  0
  6  5  1  0
  7  6  1  0
  8  7  1  0
  8  9  1  6
 10  8  1  0
 11 10  2  0
 12 16  1  0
 12 10  1  0
 13 14  1  0
 13 12  1  0
 14 15  1  0
 15 16  1  0
 16 17  1  1
 18 17  2  0
 19 20  1  0
 20 21  1  0
 21 22  1  1
 23 21  1  0
 23 24  1  6
 24 17  1  0
 25 26  1  0
 25 23  1  0
 27 25  2  0
M  END
$$$$
