RPI.pdb
     RDKit          3D

 27 27  0  0  1  0  0  0  0  0999 V2000
   10.1779  -19.3640   20.5971 N   0  0  0  0  0  0  0  0  0  0  0  0
    9.7625  -19.6312   21.9412 C   0  0  0  0  0  0  0  0  0  0  0  0
   10.4719  -20.3820   22.6969 N   0  0  0  0  0  0  0  0  0  0  0  0
    8.5451  -19.0524   22.4321 N   0  0  0  0  0  0  0  0  0  0  0  0
    7.6527  -18.3022   21.5991 C   0  0  0  0  0  0  0  0  0  0  0  0
    8.2832  -17.0114   21.0718 C   0  0  0  0  0  0  0  0  0  0  0  0
    7.4008  -15.8901   21.5472 C   0  0  0  0  0  0  0  0  0  0  0  0
    8.1686  -14.5986   21.7837 C   0  0  2  0  0  0  0  0  0  0  0  0
    9.1810  -14.3876   20.7857 N   0  0  0  0  0  0  0  0  0  0  0  0
    8.5963  -14.4417   23.1720 C   0  0  0  0  0  0  0  0  0  0  0  0
    9.8565  -14.5028   23.3975 O   0  0  0  0  0  0  0  0  0  0  0  0
   10.1432  -20.5764   23.6665 N   0  0  0  0  0  0  0  0  0  0  0  0
    7.7555  -14.2295   24.3029 C   0  0  0  0  0  0  0  0  0  0  0  0
    6.3373  -13.9872   24.3782 C   0  0  0  0  0  0  0  0  0  0  0  0
    6.2178  -12.9956   25.5041 C   0  0  0  0  0  0  0  0  0  0  0  0
    7.4817  -13.1223   26.3190 C   0  0  2  0  0  0  0  0  0  0  0  0
    8.2204  -14.2246   25.6729 C   0  0  0  0  0  0  0  0  0  0  0  0
    8.0861  -15.5442   26.3234 O   0  0  0  0  0  0  0  0  0  0  0  0
    7.4799  -16.4451   25.6987 C   0  0  0  0  0  0  0  0  0  0  0  0
   13.1680  -14.0893   27.2684 C   0  0  0  0  0  0  0  0  0  0  0  0
   12.3115  -15.2485   27.6460 C   0  0  2  0  0  0  0  0  0  0  0  0
   10.8408  -15.0373   27.5110 C   0  0  0  0  0  0  0  0  0  0  0  0
   10.4473  -13.8997   28.4444 C   0  0  2  0  0  0  0  0  0  0  0  0
    9.9868  -16.2125   27.8332 N   0  0  0  0  0  0  0  0  0  0  0  0
    8.5963  -15.8666   27.6116 C   0  0  0  0  0  0  0  0  0  0  0  0
   10.2115  -16.8094   29.1604 O   0  0  0  0  0  0  0  0  0  0  0  0
    9.3668  -16.5015   30.1999 O   0  0  0  0  0  0  0  0  0  0  0  0
  2  4  1  0
  2  1  1  0
  3  2  2  0
  5  4  1  0
  6  5  1  0
  7  6  1  0
  8  7  1  0
  8  9  1  6
 10  8  1  0
 11 10  2  0
 12 16  1  0
 12 10  1  0
 13 14  1  0
 13 12  1  0
 14 15  1  0
 15 16  1  0
 16 17  1  1
 18 17  2  0
 19 20  1  0
 20 21  1  0
 21 22  1  6
 23 21  1  0
 23 24  1  1
 24 17  1  0
 25 26  1  0
 25 23  1  0
 27 25  2  0
M  END
$$$$
