RPI.pdb
     RDKit          3D

 27 27  0  0  1  0  0  0  0  0999 V2000
   11.0058  -21.5040   21.7038 N   0  0  0  0  0  0  0  0  0  0  0  0
   10.3732  -21.4801   22.9881 C   0  0  0  0  0  0  0  0  0  0  0  0
   10.9521  -22.0068   24.0007 N   0  0  0  0  0  0  0  0  0  0  0  0
    9.0856  -20.8632   23.1295 N   0  0  0  0  0  0  0  0  0  0  0  0
    8.3925  -20.2564   22.0321 C   0  0  0  0  0  0  0  0  0  0  0  0
    9.2250  -19.1806   21.3313 C   0  0  0  0  0  0  0  0  0  0  0  0
    8.3430  -18.6007   20.2598 C   0  0  0  0  0  0  0  0  0  0  0  0
    8.9950  -17.4373   19.5285 C   0  0  2  0  0  0  0  0  0  0  0  0
   10.0989  -17.8678   18.7152 N   0  0  0  0  0  0  0  0  0  0  0  0
    9.2510  -16.2936   20.4011 C   0  0  0  0  0  0  0  0  0  0  0  0
   10.4521  -16.1486   20.8240 O   0  0  0  0  0  0  0  0  0  0  0  0
   10.4756  -21.9757   24.9270 N   0  0  0  0  0  0  0  0  0  0  0  0
    8.3011  -15.3227   20.8324 C   0  0  0  0  0  0  0  0  0  0  0  0
    6.8808  -15.2423   20.6050 C   0  0  0  0  0  0  0  0  0  0  0  0
    6.6438  -13.7661   20.4327 C   0  0  0  0  0  0  0  0  0  0  0  0
    7.8219  -13.0687   21.0677 C   0  0  2  0  0  0  0  0  0  0  0  0
    8.6285  -14.1657   21.6370 C   0  0  0  0  0  0  0  0  0  0  0  0
    8.4400  -14.4068   23.0823 O   0  0  0  0  0  0  0  0  0  0  0  0
    7.4852  -15.1378   23.4336 C   0  0  0  0  0  0  0  0  0  0  0  0
    6.5432  -11.5409   27.1702 C   0  0  0  0  0  0  0  0  0  0  0  0
    7.7506  -12.3938   26.9837 C   0  0  2  0  0  0  0  0  0  0  0  0
    7.6965  -13.3506   25.8404 C   0  0  0  0  0  0  0  0  0  0  0  0
    6.6565  -14.4129   26.1726 C   0  0  2  0  0  0  0  0  0  0  0  0
    8.9731  -14.0428   25.5158 N   0  0  0  0  0  0  0  0  0  0  0  0
    9.2661  -13.8668   24.1068 C   0  0  0  0  0  0  0  0  0  0  0  0
    9.0483  -15.4532   25.9322 O   0  0  0  0  0  0  0  0  0  0  0  0
    9.2248  -16.4359   24.9877 O   0  0  0  0  0  0  0  0  0  0  0  0
  2  4  1  0
  2  1  1  0
  3  2  2  0
  5  4  1  0
  6  5  1  0
  7  6  1  0
  8  7  1  0
  8  9  1  1
 10  8  1  0
 11 10  2  0
 12 16  1  0
 12 10  1  0
 13 14  1  0
 13 12  1  0
 14 15  1  0
 15 16  1  0
 16 17  1  1
 18 17  2  0
 19 20  1  0
 20 21  1  0
 21 22  1  6
 23 21  1  0
 23 24  1  1
 24 17  1  0
 25 26  1  0
 25 23  1  0
 27 25  2  0
M  END
$$$$
