RPI.pdb
     RDKit          3D

 27 27  0  0  1  0  0  0  0  0999 V2000
   14.1152  -21.8176   23.8831 N   0  0  0  0  0  0  0  0  0  0  0  0
   13.2362  -21.4324   22.8203 C   0  0  0  0  0  0  0  0  0  0  0  0
   13.6957  -21.2460   21.6405 N   0  0  0  0  0  0  0  0  0  0  0  0
   11.8381  -21.2558   23.0896 N   0  0  0  0  0  0  0  0  0  0  0  0
   10.8890  -20.9202   22.0701 C   0  0  0  0  0  0  0  0  0  0  0  0
   11.3137  -19.7021   21.2470 C   0  0  0  0  0  0  0  0  0  0  0  0
   10.0934  -18.8310   21.1283 C   0  0  0  0  0  0  0  0  0  0  0  0
   10.3714  -17.5277   20.3952 C   0  0  2  0  0  0  0  0  0  0  0  0
   11.7299  -17.4535   19.9322 N   0  0  0  0  0  0  0  0  0  0  0  0
    9.8764  -16.3572   21.1162 C   0  0  0  0  0  0  0  0  0  0  0  0
   10.7567  -15.5961   21.6533 O   0  0  0  0  0  0  0  0  0  0  0  0
   13.0521  -20.9006   20.8972 N   0  0  0  0  0  0  0  0  0  0  0  0
    8.5140  -15.9752   21.2857 C   0  0  0  0  0  0  0  0  0  0  0  0
    7.3040  -16.6076   20.8257 C   0  0  0  0  0  0  0  0  0  0  0  0
    6.4232  -15.4419   20.4648 C   0  0  0  0  0  0  0  0  0  0  0  0
    6.9734  -14.2472   21.2048 C   0  0  1  0  0  0  0  0  0  0  0  0
    8.0828  -14.7978   22.0075 C   0  0  0  0  0  0  0  0  0  0  0  0
    7.7613  -15.0837   23.4208 O   0  0  0  0  0  0  0  0  0  0  0  0
    7.7545  -16.2812   23.7884 C   0  0  0  0  0  0  0  0  0  0  0  0
    5.6065  -11.4423   27.2440 C   0  0  0  0  0  0  0  0  0  0  0  0
    6.0522  -12.5439   26.3452 C   0  0  2  0  0  0  0  0  0  0  0  0
    7.4631  -12.9941   26.5242 C   0  0  0  0  0  0  0  0  0  0  0  0
    8.3736  -11.8658   26.0566 C   0  0  1  0  0  0  0  0  0  0  0  0
    7.8461  -14.2289   25.7874 N   0  0  0  0  0  0  0  0  0  0  0  0
    7.4573  -14.0946   24.3971 C   0  0  0  0  0  0  0  0  0  0  0  0
    7.3729  -15.4898   26.3827 O   0  0  0  0  0  0  0  0  0  0  0  0
    6.4478  -16.2558   25.7145 O   0  0  0  0  0  0  0  0  0  0  0  0
  2  4  1  0
  2  1  1  0
  3  2  2  0
  5  4  1  0
  6  5  1  0
  7  6  1  0
  8  7  1  0
  8  9  1  1
 10  8  1  0
 11 10  2  0
 12 16  1  0
 12 10  1  0
 13 14  1  0
 13 12  1  0
 14 15  1  0
 15 16  1  0
 16 17  1  1
 18 17  2  0
 19 20  1  0
 20 21  1  0
 21 22  1  1
 23 21  1  0
 23 24  1  6
 24 17  1  0
 25 26  1  0
 25 23  1  0
 27 25  2  0
M  END
$$$$
