RPI.pdb
     RDKit          3D

 27 27  0  0  1  0  0  0  0  0999 V2000
    8.0695  -20.4606   24.4379 N   0  0  0  0  0  0  0  0  0  0  0  0
    6.8646  -19.8930   23.9121 C   0  0  0  0  0  0  0  0  0  0  0  0
    5.8817  -19.6352   24.6900 N   0  0  0  0  0  0  0  0  0  0  0  0
    6.7684  -19.6177   22.5074 N   0  0  0  0  0  0  0  0  0  0  0  0
    7.8300  -19.9009   21.5878 C   0  0  0  0  0  0  0  0  0  0  0  0
    8.7942  -18.7246   21.4200 C   0  0  0  0  0  0  0  0  0  0  0  0
    8.8942  -18.4732   19.9404 C   0  0  0  0  0  0  0  0  0  0  0  0
    9.7833  -17.2855   19.6054 C   0  0  2  0  0  0  0  0  0  0  0  0
   11.1163  -17.6960   19.2588 N   0  0  0  0  0  0  0  0  0  0  0  0
    9.6806  -16.2082   20.5871 C   0  0  0  0  0  0  0  0  0  0  0  0
   10.7369  -15.9405   21.2619 O   0  0  0  0  0  0  0  0  0  0  0  0
    5.0152  -19.2192   24.2873 N   0  0  0  0  0  0  0  0  0  0  0  0
    8.5251  -15.4249   20.8734 C   0  0  0  0  0  0  0  0  0  0  0  0
    7.1677  -15.5614   20.4105 C   0  0  0  0  0  0  0  0  0  0  0  0
    6.7199  -14.1354   20.2344 C   0  0  0  0  0  0  0  0  0  0  0  0
    7.6459  -13.2914   21.0757 C   0  0  2  0  0  0  0  0  0  0  0  0
    8.5197  -14.2725   21.7481 C   0  0  0  0  0  0  0  0  0  0  0  0
    8.1403  -14.6132   23.1347 O   0  0  0  0  0  0  0  0  0  0  0  0
    7.7472  -15.7805   23.3634 C   0  0  0  0  0  0  0  0  0  0  0  0
    5.7110  -11.5635   27.1239 C   0  0  0  0  0  0  0  0  0  0  0  0
    6.3633  -12.4004   26.0779 C   0  0  2  0  0  0  0  0  0  0  0  0
    7.6616  -13.0247   26.4656 C   0  0  0  0  0  0  0  0  0  0  0  0
    8.7302  -11.9399   26.4211 C   0  0  1  0  0  0  0  0  0  0  0  0
    8.1169  -14.1537   25.6099 N   0  0  0  0  0  0  0  0  0  0  0  0
    8.1886  -13.7089   24.2318 C   0  0  0  0  0  0  0  0  0  0  0  0
    7.3522  -15.4035   25.7567 O   0  0  0  0  0  0  0  0  0  0  0  0
    6.6106  -15.8786   24.7016 O   0  0  0  0  0  0  0  0  0  0  0  0
  2  4  1  0
  2  1  1  0
  3  2  2  0
  5  4  1  0
  6  5  1  0
  7  6  1  0
  8  7  1  0
  8  9  1  1
 10  8  1  0
 11 10  2  0
 12 16  1  0
 12 10  1  0
 13 14  1  0
 13 12  1  0
 14 15  1  0
 15 16  1  0
 16 17  1  1
 18 17  2  0
 19 20  1  0
 20 21  1  0
 21 22  1  1
 23 21  1  0
 23 24  1  6
 24 17  1  0
 25 26  1  0
 25 23  1  0
 27 25  2  0
M  END
$$$$
