RPI.pdb
     RDKit          3D

 27 27  0  0  1  0  0  0  0  0999 V2000
    8.6001  -19.1018   27.3661 N   0  0  0  0  0  0  0  0  0  0  0  0
    7.2838  -19.6445   27.2136 C   0  0  0  0  0  0  0  0  0  0  0  0
    6.6030  -19.9810   28.2436 N   0  0  0  0  0  0  0  0  0  0  0  0
    6.7362  -19.8091   25.8977 N   0  0  0  0  0  0  0  0  0  0  0  0
    7.5539  -19.9926   24.7356 C   0  0  0  0  0  0  0  0  0  0  0  0
    7.4600  -18.8197   23.7573 C   0  0  0  0  0  0  0  0  0  0  0  0
    7.7098  -19.3941   22.3899 C   0  0  0  0  0  0  0  0  0  0  0  0
    7.6501  -18.3434   21.2918 C   0  0  2  0  0  0  0  0  0  0  0  0
    8.0076  -18.8876   20.0106 N   0  0  0  0  0  0  0  0  0  0  0  0
    8.3151  -17.0972   21.6656 C   0  0  0  0  0  0  0  0  0  0  0  0
    9.5643  -17.1707   21.9424 O   0  0  0  0  0  0  0  0  0  0  0  0
    5.5947  -20.2174   28.1268 N   0  0  0  0  0  0  0  0  0  0  0  0
    7.7165  -15.8071   21.7561 C   0  0  0  0  0  0  0  0  0  0  0  0
    6.3310  -15.4159   21.7019 C   0  0  0  0  0  0  0  0  0  0  0  0
    6.3706  -14.1164   20.9438 C   0  0  0  0  0  0  0  0  0  0  0  0
    7.7837  -13.5991   21.0589 C   0  0  2  0  0  0  0  0  0  0  0  0
    8.4573  -14.5772   21.9351 C   0  0  0  0  0  0  0  0  0  0  0  0
    8.5709  -14.1836   23.3545 O   0  0  0  0  0  0  0  0  0  0  0  0
    8.3283  -12.9910   23.6518 C   0  0  0  0  0  0  0  0  0  0  0  0
    6.4838  -11.7627   25.5421 C   0  0  0  0  0  0  0  0  0  0  0  0
    7.6431  -12.6291   25.1880 C   0  0  2  0  0  0  0  0  0  0  0  0
    7.9321  -13.7428   26.1377 C   0  0  0  0  0  0  0  0  0  0  0  0
    8.2112  -13.1281   27.5033 C   0  0  2  0  0  0  0  0  0  0  0  0
    9.0850  -14.6134   25.7813 N   0  0  0  0  0  0  0  0  0  0  0  0
    8.9374  -15.0631   24.4109 C   0  0  0  0  0  0  0  0  0  0  0  0
    9.3460  -15.7250   26.7112 O   0  0  0  0  0  0  0  0  0  0  0  0
    9.2479  -17.0227   26.2692 O   0  0  0  0  0  0  0  0  0  0  0  0
  2  4  1  0
  2  1  1  0
  3  2  2  0
  5  4  1  0
  6  5  1  0
  7  6  1  0
  8  7  1  0
  8  9  1  6
 10  8  1  0
 11 10  2  0
 12 16  1  0
 12 10  1  0
 13 14  1  0
 13 12  1  0
 14 15  1  0
 15 16  1  0
 16 17  1  1
 18 17  2  0
 19 20  1  0
 20 21  1  0
 21 22  1  6
 23 21  1  0
 23 24  1  6
 24 17  1  0
 25 26  1  0
 25 23  1  0
 27 25  2  0
M  END
$$$$
