RPI.pdb
     RDKit          3D

 27 27  0  0  1  0  0  0  0  0999 V2000
    8.5561  -21.5538   17.9565 N   0  0  0  0  0  0  0  0  0  0  0  0
    7.7167  -21.3864   19.1044 C   0  0  0  0  0  0  0  0  0  0  0  0
    6.4458  -21.3217   18.9685 N   0  0  0  0  0  0  0  0  0  0  0  0
    8.3119  -21.2903   20.4062 N   0  0  0  0  0  0  0  0  0  0  0  0
    9.3613  -20.3640   20.7119 C   0  0  0  0  0  0  0  0  0  0  0  0
    9.1382  -18.9896   20.0770 C   0  0  0  0  0  0  0  0  0  0  0  0
    8.8334  -18.0494   21.2108 C   0  0  0  0  0  0  0  0  0  0  0  0
    9.3297  -16.6355   20.9506 C   0  0  2  0  0  0  0  0  0  0  0  0
   10.3796  -16.6090   19.9694 N   0  0  0  0  0  0  0  0  0  0  0  0
    9.5857  -15.8910   22.1816 C   0  0  0  0  0  0  0  0  0  0  0  0
   10.7931  -15.5129   22.3862 O   0  0  0  0  0  0  0  0  0  0  0  0
    5.8515  -21.2293   19.8196 N   0  0  0  0  0  0  0  0  0  0  0  0
    8.6304  -15.5434   23.1802 C   0  0  0  0  0  0  0  0  0  0  0  0
    7.2334  -15.8778   23.2912 C   0  0  0  0  0  0  0  0  0  0  0  0
    6.6242  -14.6238   23.8580 C   0  0  0  0  0  0  0  0  0  0  0  0
    7.7525  -13.8556   24.5017 C   0  0  1  0  0  0  0  0  0  0  0  0
    8.9266  -14.7357   24.3434 C   0  0  0  0  0  0  0  0  0  0  0  0
    9.2728  -15.5492   25.5270 O   0  0  0  0  0  0  0  0  0  0  0  0
    8.6584  -16.6278   25.6953 C   0  0  0  0  0  0  0  0  0  0  0  0
    9.9134  -12.8772   29.4947 C   0  0  0  0  0  0  0  0  0  0  0  0
   10.8300  -13.8459   28.8302 C   0  0  2  0  0  0  0  0  0  0  0  0
   10.4074  -15.2757   28.8812 C   0  0  0  0  0  0  0  0  0  0  0  0
   11.2237  -15.9629   29.9684 C   0  0  1  0  0  0  0  0  0  0  0  0
   10.5806  -16.0463   27.6201 N   0  0  0  0  0  0  0  0  0  0  0  0
   10.2558  -15.1949   26.4925 C   0  0  0  0  0  0  0  0  0  0  0  0
    9.8750  -17.3378   27.5692 O   0  0  0  0  0  0  0  0  0  0  0  0
    8.5281  -17.3701   27.2975 O   0  0  0  0  0  0  0  0  0  0  0  0
  2  4  1  0
  2  1  1  0
  3  2  2  0
  5  4  1  0
  6  5  1  0
  7  6  1  0
  8  7  1  0
  8  9  1  1
 10  8  1  0
 11 10  2  0
 12 16  1  0
 12 10  1  0
 13 14  1  0
 13 12  1  0
 14 15  1  0
 15 16  1  0
 16 17  1  1
 18 17  2  0
 19 20  1  0
 20 21  1  0
 21 22  1  6
 23 21  1  0
 23 24  1  6
 24 17  1  0
 25 26  1  0
 25 23  1  0
 27 25  2  0
M  END
$$$$
