RPI.pdb
     RDKit          3D

 27 27  0  0  1  0  0  0  0  0999 V2000
    5.8790  -20.9182   27.2036 N   0  0  0  0  0  0  0  0  0  0  0  0
    7.3092  -20.8684   27.1552 C   0  0  0  0  0  0  0  0  0  0  0  0
    8.0043  -21.4368   28.0672 N   0  0  0  0  0  0  0  0  0  0  0  0
    7.9553  -20.1753   26.0780 N   0  0  0  0  0  0  0  0  0  0  0  0
    7.2435  -19.3413   25.1557 C   0  0  0  0  0  0  0  0  0  0  0  0
    8.1297  -18.8309   24.0173 C   0  0  0  0  0  0  0  0  0  0  0  0
    7.2668  -18.8255   22.7854 C   0  0  0  0  0  0  0  0  0  0  0  0
    7.9935  -18.2887   21.5619 C   0  0  2  0  0  0  0  0  0  0  0  0
    8.8861  -19.2643   20.9988 N   0  0  0  0  0  0  0  0  0  0  0  0
    8.5548  -16.9570   21.7773 C   0  0  0  0  0  0  0  0  0  0  0  0
    9.8331  -16.8676   21.8045 O   0  0  0  0  0  0  0  0  0  0  0  0
    9.0432  -21.3647   28.0282 N   0  0  0  0  0  0  0  0  0  0  0  0
    7.8266  -15.7461   21.9623 C   0  0  0  0  0  0  0  0  0  0  0  0
    6.4155  -15.5262   22.1525 C   0  0  0  0  0  0  0  0  0  0  0  0
    6.1603  -14.2548   21.3887 C   0  0  0  0  0  0  0  0  0  0  0  0
    7.4966  -13.5680   21.2461 C   0  0  2  0  0  0  0  0  0  0  0  0
    8.4293  -14.4313   21.9964 C   0  0  0  0  0  0  0  0  0  0  0  0
    8.7409  -13.9843   23.3696 O   0  0  0  0  0  0  0  0  0  0  0  0
    8.7945  -12.7515   23.5853 C   0  0  0  0  0  0  0  0  0  0  0  0
    5.8881  -11.9993   26.0181 C   0  0  0  0  0  0  0  0  0  0  0  0
    7.2313  -12.5311   25.6532 C   0  0  2  0  0  0  0  0  0  0  0  0
    7.5264  -13.9175   26.1185 C   0  0  0  0  0  0  0  0  0  0  0  0
    7.3015  -13.9596   27.6246 C   0  0  2  0  0  0  0  0  0  0  0  0
    8.9031  -14.4117   25.8454 N   0  0  0  0  0  0  0  0  0  0  0  0
    8.9860  -14.8551   24.4675 C   0  0  0  0  0  0  0  0  0  0  0  0
    9.4090  -15.4210   26.7907 O   0  0  0  0  0  0  0  0  0  0  0  0
    9.9149  -15.0258   28.0060 O   0  0  0  0  0  0  0  0  0  0  0  0
  2  4  1  0
  2  1  1  0
  3  2  2  0
  5  4  1  0
  6  5  1  0
  7  6  1  0
  8  7  1  0
  8  9  1  1
 10  8  1  0
 11 10  2  0
 12 16  1  0
 12 10  1  0
 13 14  1  0
 13 12  1  0
 14 15  1  0
 15 16  1  0
 16 17  1  1
 18 17  2  0
 19 20  1  0
 20 21  1  0
 21 22  1  6
 23 21  1  0
 23 24  1  1
 24 17  1  0
 25 26  1  0
 25 23  1  0
 27 25  2  0
M  END
$$$$
