RPI.pdb
     RDKit          3D

 27 27  0  0  1  0  0  0  0  0999 V2000
    8.9928  -15.2273   14.4036 N   0  0  0  0  0  0  0  0  0  0  0  0
    8.5250  -16.3371   15.1781 C   0  0  0  0  0  0  0  0  0  0  0  0
    7.9377  -17.3195   14.6056 N   0  0  0  0  0  0  0  0  0  0  0  0
    8.7186  -16.3374   16.5997 N   0  0  0  0  0  0  0  0  0  0  0  0
    8.5698  -17.5153   17.4017 C   0  0  0  0  0  0  0  0  0  0  0  0
    8.9207  -17.2759   18.8718 C   0  0  0  0  0  0  0  0  0  0  0  0
   10.4113  -17.4456   18.9793 C   0  0  0  0  0  0  0  0  0  0  0  0
   11.1160  -16.1749   19.4287 C   0  0  2  0  0  0  0  0  0  0  0  0
   12.5340  -16.3677   19.5612 N   0  0  0  0  0  0  0  0  0  0  0  0
   10.4501  -15.5285   20.5573 C   0  0  0  0  0  0  0  0  0  0  0  0
   11.0837  -15.5176   21.6713 O   0  0  0  0  0  0  0  0  0  0  0  0
    7.8433  -18.2205   15.1208 N   0  0  0  0  0  0  0  0  0  0  0  0
    9.1663  -14.9099   20.5474 C   0  0  0  0  0  0  0  0  0  0  0  0
    8.0850  -15.0206   19.6019 C   0  0  0  0  0  0  0  0  0  0  0  0
    7.5240  -13.6248   19.5570 C   0  0  0  0  0  0  0  0  0  0  0  0
    7.9729  -12.9444   20.8271 C   0  0  1  0  0  0  0  0  0  0  0  0
    8.6948  -13.9979   21.5668 C   0  0  0  0  0  0  0  0  0  0  0  0
    7.9161  -14.6782   22.6219 O   0  0  0  0  0  0  0  0  0  0  0  0
    7.6371  -15.8880   22.4548 C   0  0  0  0  0  0  0  0  0  0  0  0
    5.8643  -11.8335   27.0881 C   0  0  0  0  0  0  0  0  0  0  0  0
    6.1508  -12.7493   25.9482 C   0  0  2  0  0  0  0  0  0  0  0  0
    7.2272  -13.7555   26.1816 C   0  0  0  0  0  0  0  0  0  0  0  0
    8.5345  -12.9995   26.3815 C   0  0  1  0  0  0  0  0  0  0  0  0
    7.4321  -14.7476   25.0916 N   0  0  0  0  0  0  0  0  0  0  0  0
    7.4584  -14.0570   23.8171 C   0  0  0  0  0  0  0  0  0  0  0  0
    6.4989  -15.8867   25.0931 O   0  0  0  0  0  0  0  0  0  0  0  0
    5.6688  -16.0912   24.0170 O   0  0  0  0  0  0  0  0  0  0  0  0
  2  4  1  0
  2  1  1  0
  3  2  2  0
  5  4  1  0
  6  5  1  0
  7  6  1  0
  8  7  1  0
  8  9  1  1
 10  8  1  0
 11 10  2  0
 12 16  1  0
 12 10  1  0
 13 14  1  0
 13 12  1  0
 14 15  1  0
 15 16  1  0
 16 17  1  1
 18 17  2  0
 19 20  1  0
 20 21  1  0
 21 22  1  1
 23 21  1  0
 23 24  1  6
 24 17  1  0
 25 26  1  0
 25 23  1  0
 27 25  2  0
M  END
$$$$
