RPI.pdb
     RDKit          3D

 27 27  0  0  1  0  0  0  0  0999 V2000
    6.2736  -21.2067   27.4753 N   0  0  0  0  0  0  0  0  0  0  0  0
    7.2099  -20.2664   26.9371 C   0  0  0  0  0  0  0  0  0  0  0  0
    8.4675  -20.4818   27.0361 N   0  0  0  0  0  0  0  0  0  0  0  0
    6.7267  -19.0814   26.2885 N   0  0  0  0  0  0  0  0  0  0  0  0
    6.0545  -19.1098   25.0235 C   0  0  0  0  0  0  0  0  0  0  0  0
    6.9701  -18.7221   23.8604 C   0  0  0  0  0  0  0  0  0  0  0  0
    6.0769  -18.5575   22.6615 C   0  0  0  0  0  0  0  0  0  0  0  0
    6.8398  -18.1399   21.4138 C   0  0  2  0  0  0  0  0  0  0  0  0
    7.3793  -19.2724   20.7124 N   0  0  0  0  0  0  0  0  0  0  0  0
    7.7682  -17.0390   21.6612 C   0  0  0  0  0  0  0  0  0  0  0  0
    9.0070  -17.3453   21.7806 O   0  0  0  0  0  0  0  0  0  0  0  0
    9.1313  -19.7958   26.6180 N   0  0  0  0  0  0  0  0  0  0  0  0
    7.4375  -15.6584   21.7856 C   0  0  0  0  0  0  0  0  0  0  0  0
    6.1581  -15.0171   21.9510 C   0  0  0  0  0  0  0  0  0  0  0  0
    6.2939  -13.7632   21.1298 C   0  0  0  0  0  0  0  0  0  0  0  0
    7.7743  -13.5161   20.9716 C   0  0  2  0  0  0  0  0  0  0  0  0
    8.4072  -14.5848   21.7686 C   0  0  0  0  0  0  0  0  0  0  0  0
    8.8427  -14.1909   23.1243 O   0  0  0  0  0  0  0  0  0  0  0  0
    9.7757  -13.3606   23.2206 C   0  0  0  0  0  0  0  0  0  0  0  0
    5.3456  -12.4054   26.1940 C   0  0  0  0  0  0  0  0  0  0  0  0
    6.6374  -12.7772   25.5513 C   0  0  2  0  0  0  0  0  0  0  0  0
    7.5330  -13.6548   26.3596 C   0  0  0  0  0  0  0  0  0  0  0  0
    8.0569  -12.8321   27.5297 C   0  0  2  0  0  0  0  0  0  0  0  0
    8.7030  -14.2243   25.6378 N   0  0  0  0  0  0  0  0  0  0  0  0
    8.2780  -14.6882   24.3316 C   0  0  0  0  0  0  0  0  0  0  0  0
    9.4618  -15.2474   26.3767 O   0  0  0  0  0  0  0  0  0  0  0  0
    9.4480  -16.5523   25.9453 O   0  0  0  0  0  0  0  0  0  0  0  0
  2  4  1  0
  2  1  1  0
  3  2  2  0
  5  4  1  0
  6  5  1  0
  7  6  1  0
  8  7  1  0
  8  9  1  1
 10  8  1  0
 11 10  2  0
 12 16  1  0
 12 10  1  0
 13 14  1  0
 13 12  1  0
 14 15  1  0
 15 16  1  0
 16 17  1  1
 18 17  2  0
 19 20  1  0
 20 21  1  0
 21 22  1  1
 23 21  1  0
 23 24  1  6
 24 17  1  0
 25 26  1  0
 25 23  1  0
 27 25  2  0
M  END
$$$$
