RPI.pdb
     RDKit          3D

 27 27  0  0  1  0  0  0  0  0999 V2000
    9.6960  -22.1037   20.9441 N   0  0  0  0  0  0  0  0  0  0  0  0
    8.9769  -22.6917   19.8543 C   0  0  0  0  0  0  0  0  0  0  0  0
    9.0830  -23.9443   19.6145 N   0  0  0  0  0  0  0  0  0  0  0  0
    8.1392  -21.8653   19.0336 N   0  0  0  0  0  0  0  0  0  0  0  0
    8.4381  -20.4915   18.7573 C   0  0  0  0  0  0  0  0  0  0  0  0
    9.2610  -19.8325   19.8664 C   0  0  0  0  0  0  0  0  0  0  0  0
    8.7151  -18.4396   20.0212 C   0  0  0  0  0  0  0  0  0  0  0  0
    9.8060  -17.3799   20.0384 C   0  0  2  0  0  0  0  0  0  0  0  0
   11.1128  -17.9546   19.8722 N   0  0  0  0  0  0  0  0  0  0  0  0
    9.6585  -16.4351   21.1432 C   0  0  0  0  0  0  0  0  0  0  0  0
   10.7015  -16.2112   21.8536 O   0  0  0  0  0  0  0  0  0  0  0  0
    8.6044  -24.3400   18.7775 N   0  0  0  0  0  0  0  0  0  0  0  0
    8.4724  -15.7374   21.5138 C   0  0  0  0  0  0  0  0  0  0  0  0
    7.1306  -15.8402   20.9995 C   0  0  0  0  0  0  0  0  0  0  0  0
    6.6415  -14.4173   21.0296 C   0  0  0  0  0  0  0  0  0  0  0  0
    7.5211  -13.6853   22.0135 C   0  0  1  0  0  0  0  0  0  0  0  0
    8.4108  -14.7322   22.5526 C   0  0  0  0  0  0  0  0  0  0  0  0
    8.0119  -15.2907   23.8609 O   0  0  0  0  0  0  0  0  0  0  0  0
    7.2711  -16.3009   23.8642 C   0  0  0  0  0  0  0  0  0  0  0  0
    9.6154  -12.8717   28.8354 C   0  0  0  0  0  0  0  0  0  0  0  0
    8.8085  -13.5882   27.8080 C   0  0  2  0  0  0  0  0  0  0  0  0
    9.3916  -14.8648   27.3022 C   0  0  0  0  0  0  0  0  0  0  0  0
   10.7386  -14.5413   26.6686 C   0  0  1  0  0  0  0  0  0  0  0  0
    8.5740  -15.5950   26.2960 N   0  0  0  0  0  0  0  0  0  0  0  0
    8.4087  -14.7623   25.1207 C   0  0  0  0  0  0  0  0  0  0  0  0
    7.2931  -16.1266   26.7913 O   0  0  0  0  0  0  0  0  0  0  0  0
    6.1111  -15.6515   26.2753 O   0  0  0  0  0  0  0  0  0  0  0  0
  2  4  1  0
  2  1  1  0
  3  2  2  0
  5  4  1  0
  6  5  1  0
  7  6  1  0
  8  7  1  0
  8  9  1  1
 10  8  1  0
 11 10  2  0
 12 16  1  0
 12 10  1  0
 13 14  1  0
 13 12  1  0
 14 15  1  0
 15 16  1  0
 16 17  1  1
 18 17  2  0
 19 20  1  0
 20 21  1  0
 21 22  1  1
 23 21  1  0
 23 24  1  6
 24 17  1  0
 25 26  1  0
 25 23  1  0
 27 25  2  0
M  END
$$$$
