RPI.pdb
     RDKit          3D

 27 27  0  0  1  0  0  0  0  0999 V2000
    9.2376  -21.8964   18.8343 N   0  0  0  0  0  0  0  0  0  0  0  0
    7.8094  -21.9848   18.7799 C   0  0  0  0  0  0  0  0  0  0  0  0
    7.2081  -23.0010   19.2734 N   0  0  0  0  0  0  0  0  0  0  0  0
    7.0596  -20.9265   18.1666 N   0  0  0  0  0  0  0  0  0  0  0  0
    7.1161  -19.5703   18.6251 C   0  0  0  0  0  0  0  0  0  0  0  0
    8.4620  -18.9040   18.3312 C   0  0  0  0  0  0  0  0  0  0  0  0
    8.8310  -18.1404   19.5733 C   0  0  0  0  0  0  0  0  0  0  0  0
    9.7453  -16.9592   19.2864 C   0  0  2  0  0  0  0  0  0  0  0  0
   11.0661  -17.3837   18.9112 N   0  0  0  0  0  0  0  0  0  0  0  0
    9.6741  -15.9262   20.3173 C   0  0  0  0  0  0  0  0  0  0  0  0
   10.7281  -15.7423   21.0230 O   0  0  0  0  0  0  0  0  0  0  0  0
    6.1662  -23.0210   19.2710 N   0  0  0  0  0  0  0  0  0  0  0  0
    8.5515  -15.1025   20.6207 C   0  0  0  0  0  0  0  0  0  0  0  0
    7.2487  -15.0393   20.0090 C   0  0  0  0  0  0  0  0  0  0  0  0
    6.9248  -13.5699   20.0422 C   0  0  0  0  0  0  0  0  0  0  0  0
    7.8070  -12.9633   21.1058 C   0  0  2  0  0  0  0  0  0  0  0  0
    8.5284  -14.1162   21.6790 C   0  0  0  0  0  0  0  0  0  0  0  0
    7.9723  -14.6485   22.9399 O   0  0  0  0  0  0  0  0  0  0  0  0
    7.2857  -15.6946   22.8806 C   0  0  0  0  0  0  0  0  0  0  0  0
    5.4796  -11.8405   26.9018 C   0  0  0  0  0  0  0  0  0  0  0  0
    6.2526  -12.5798   25.8645 C   0  0  2  0  0  0  0  0  0  0  0  0
    7.2481  -13.5646   26.3791 C   0  0  0  0  0  0  0  0  0  0  0  0
    8.5094  -12.7971   26.7542 C   0  0  1  0  0  0  0  0  0  0  0  0
    7.6333  -14.6480   25.4346 N   0  0  0  0  0  0  0  0  0  0  0  0
    8.1600  -14.0570   24.2200 C   0  0  0  0  0  0  0  0  0  0  0  0
    6.5873  -15.6485   25.1635 O   0  0  0  0  0  0  0  0  0  0  0  0
    6.0699  -15.7696   23.8960 O   0  0  0  0  0  0  0  0  0  0  0  0
  2  4  1  0
  2  1  1  0
  3  2  2  0
  5  4  1  0
  6  5  1  0
  7  6  1  0
  8  7  1  0
  8  9  1  1
 10  8  1  0
 11 10  2  0
 12 16  1  0
 12 10  1  0
 13 14  1  0
 13 12  1  0
 14 15  1  0
 15 16  1  0
 16 17  1  1
 18 17  2  0
 19 20  1  0
 20 21  1  0
 21 22  1  1
 23 21  1  0
 23 24  1  6
 24 17  1  0
 25 26  1  0
 25 23  1  0
 27 25  2  0
M  END
$$$$
