SWA.pdb
     RDKit          3D

 26 27  0  0  1  0  0  0  0  0999 V2000
   13.1835  -17.6858   22.3180 O   0  0  0  0  0  0  0  0  0  0  0  0
   12.0386  -18.1653   21.7163 C   0  0  0  0  0  0  0  0  0  0  0  0
   11.2451  -16.9465   21.2325 C   0  0  2  0  0  0  0  0  0  0  0  0
   12.0843  -16.1251   20.3746 N   0  0  0  0  0  0  0  0  0  0  0  0
   10.8401  -16.1676   22.4421 C   0  0  0  0  0  0  0  0  0  0  0  0
   11.5769  -15.2166   22.8105 O   0  0  0  0  0  0  0  0  0  0  0  0
    9.6565  -16.5197   23.1256 N   0  0  0  0  0  0  0  0  0  0  0  0
    9.2338  -15.7920   24.2962 C   0  0  1  0  0  0  0  0  0  0  0  0
    7.8223  -16.2588   24.5775 C   0  0  0  0  0  0  0  0  0  0  0  0
    6.9602  -15.2399   25.1789 C   0  0  0  0  0  0  0  0  0  0  0  0
    5.6560  -15.4588   25.5985 C   0  0  0  0  0  0  0  0  0  0  0  0
    5.1533  -14.3072   26.1045 N   0  0  0  0  0  0  0  0  0  0  0  0
    6.0766  -13.3396   26.0337 C   0  0  0  0  0  0  0  0  0  0  0  0
    6.0668  -12.0123   26.4062 C   0  0  0  0  0  0  0  0  0  0  0  0
    7.2037  -11.2629   26.1951 C   0  0  0  0  0  0  0  0  0  0  0  0
    8.3252  -11.8101   25.6294 C   0  0  0  0  0  0  0  0  0  0  0  0
    8.3193  -13.1333   25.2640 C   0  0  0  0  0  0  0  0  0  0  0  0
    7.2057  -13.9196   25.4562 C   0  0  0  0  0  0  0  0  0  0  0  0
   10.1302  -15.9822   25.4436 C   0  0  0  0  0  0  0  0  0  0  0  0
   10.8874  -16.9808   25.4672 O   0  0  0  0  0  0  0  0  0  0  0  0
   10.8850  -14.0867   28.6241 C   0  0  0  0  0  0  0  0  0  0  0  0
   11.0289  -15.2609   27.6726 C   0  0  2  0  0  0  0  0  0  0  0  0
   10.1696  -15.0751   26.5266 N   0  0  0  0  0  0  0  0  0  0  0  0
   10.7283  -16.4929   28.3972 C   0  0  0  0  0  0  0  0  0  0  0  0
    9.5747  -17.1964   28.0578 O   0  0  0  0  0  0  0  0  0  0  0  0
   11.4310  -16.9813   29.3148 O   0  0  0  0  0  0  0  0  0  0  0  0
  2  1  1  0
  3  2  1  0
  3  4  1  6
  5  7  1  0
  5  3  1  0
  6  5  2  0
  8  7  1  0
  8  9  1  1
  9 10  1  0
 10 18  1  0
 11 10  2  0
 11 12  1  0
 12 13  1  0
 13 14  1  0
 14 15  2  0
 16 15  1  0
 17 16  2  0
 18 13  2  0
 18 17  1  0
 19 23  1  0
 19  8  1  0
 20 19  2  0
 22 21  1  1
 22 24  1  0
 22 23  1  0
 24 25  1  0
 26 24  2  0
M  END
$$$$
