SWA.pdb
     RDKit          3D

 26 27  0  0  1  0  0  0  0  0999 V2000
    8.2353  -20.0063   22.0235 O   0  0  0  0  0  0  0  0  0  0  0  0
    9.0026  -19.7896   20.8979 C   0  0  0  0  0  0  0  0  0  0  0  0
    8.9757  -18.2819   20.6233 C   0  0  2  0  0  0  0  0  0  0  0  0
    9.8858  -17.9665   19.5337 N   0  0  0  0  0  0  0  0  0  0  0  0
    9.4210  -17.5918   21.8721 C   0  0  0  0  0  0  0  0  0  0  0  0
   10.6566  -17.4840   22.0828 O   0  0  0  0  0  0  0  0  0  0  0  0
    8.4516  -17.0883   22.7658 N   0  0  0  0  0  0  0  0  0  0  0  0
    8.8418  -16.3552   23.9443 C   0  0  1  0  0  0  0  0  0  0  0  0
    7.6977  -15.4075   24.2309 C   0  0  0  0  0  0  0  0  0  0  0  0
    7.8835  -14.5842   25.4271 C   0  0  0  0  0  0  0  0  0  0  0  0
    8.8701  -14.7907   26.3804 C   0  0  0  0  0  0  0  0  0  0  0  0
    8.7549  -13.8508   27.3492 N   0  0  0  0  0  0  0  0  0  0  0  0
    7.7306  -13.0344   27.0695 C   0  0  0  0  0  0  0  0  0  0  0  0
    7.2048  -11.9405   27.7231 C   0  0  0  0  0  0  0  0  0  0  0  0
    6.1202  -11.3004   27.1638 C   0  0  0  0  0  0  0  0  0  0  0  0
    5.5667  -11.7295   25.9863 C   0  0  0  0  0  0  0  0  0  0  0  0
    6.1018  -12.8203   25.3474 C   0  0  0  0  0  0  0  0  0  0  0  0
    7.1850  -13.4904   25.8697 C   0  0  0  0  0  0  0  0  0  0  0  0
    9.1517  -17.2269   25.0847 C   0  0  0  0  0  0  0  0  0  0  0  0
    9.3946  -16.7091   26.2000 O   0  0  0  0  0  0  0  0  0  0  0  0
    9.5790  -20.9472   25.5905 C   0  0  0  0  0  0  0  0  0  0  0  0
    9.6005  -19.4998   26.0483 C   0  0  2  0  0  0  0  0  0  0  0  0
    9.1855  -18.6350   24.9684 N   0  0  0  0  0  0  0  0  0  0  0  0
   10.9411  -19.1794   26.5315 C   0  0  0  0  0  0  0  0  0  0  0  0
   11.8485  -18.6114   25.6398 O   0  0  0  0  0  0  0  0  0  0  0  0
   11.3537  -19.3746   27.7003 O   0  0  0  0  0  0  0  0  0  0  0  0
  2  1  1  0
  3  2  1  0
  3  4  1  6
  5  7  1  0
  5  3  1  0
  6  5  2  0
  8  7  1  0
  8  9  1  1
  9 10  1  0
 10 18  1  0
 11 10  2  0
 11 12  1  0
 12 13  1  0
 13 14  1  0
 14 15  2  0
 16 15  1  0
 17 16  2  0
 18 13  2  0
 18 17  1  0
 19 23  1  0
 19  8  1  0
 20 19  2  0
 22 21  1  6
 22 24  1  0
 22 23  1  0
 24 25  1  0
 26 24  2  0
M  END
$$$$
