SWA.pdb
     RDKit          3D

 26 27  0  0  1  0  0  0  0  0999 V2000
   11.9610  -18.2530   22.4591 O   0  0  0  0  0  0  0  0  0  0  0  0
   11.8676  -17.3132   21.4537 C   0  0  0  0  0  0  0  0  0  0  0  0
   10.4280  -16.7873   21.4672 C   0  0  2  0  0  0  0  0  0  0  0  0
   10.2231  -15.8925   20.3393 N   0  0  0  0  0  0  0  0  0  0  0  0
   10.2363  -16.0412   22.7481 C   0  0  0  0  0  0  0  0  0  0  0  0
   10.7013  -14.8751   22.8315 O   0  0  0  0  0  0  0  0  0  0  0  0
    9.5472  -16.6617   23.8121 N   0  0  0  0  0  0  0  0  0  0  0  0
    9.3166  -15.9626   25.0517 C   0  0  1  0  0  0  0  0  0  0  0  0
    7.9156  -16.3427   25.4783 C   0  0  0  0  0  0  0  0  0  0  0  0
    6.9301  -15.2702   25.3317 C   0  0  0  0  0  0  0  0  0  0  0  0
    5.6654  -15.4313   24.7845 C   0  0  0  0  0  0  0  0  0  0  0  0
    5.0191  -14.2409   24.8020 N   0  0  0  0  0  0  0  0  0  0  0  0
    5.8102  -13.3033   25.3396 C   0  0  0  0  0  0  0  0  0  0  0  0
    5.6306  -11.9579   25.5806 C   0  0  0  0  0  0  0  0  0  0  0  0
    6.6620  -11.2514   26.1602 C   0  0  0  0  0  0  0  0  0  0  0  0
    7.8439  -11.8581   26.4947 C   0  0  0  0  0  0  0  0  0  0  0  0
    8.0074  -13.1987   26.2485 C   0  0  0  0  0  0  0  0  0  0  0  0
    7.0040  -13.9436   25.6711 C   0  0  0  0  0  0  0  0  0  0  0  0
   10.3215  -16.2691   26.0777 C   0  0  0  0  0  0  0  0  0  0  0  0
   11.0364  -17.2902   25.9456 O   0  0  0  0  0  0  0  0  0  0  0  0
   11.3455  -14.7438   29.3801 C   0  0  0  0  0  0  0  0  0  0  0  0
   11.3791  -15.8182   28.3080 C   0  0  2  0  0  0  0  0  0  0  0  0
   10.5119  -15.4496   27.2133 N   0  0  0  0  0  0  0  0  0  0  0  0
   11.0013  -17.0945   28.9093 C   0  0  0  0  0  0  0  0  0  0  0  0
   11.8761  -17.6822   29.8204 O   0  0  0  0  0  0  0  0  0  0  0  0
    9.9388  -17.7184   28.6724 O   0  0  0  0  0  0  0  0  0  0  0  0
  2  1  1  0
  3  2  1  0
  3  4  1  6
  5  7  1  0
  5  3  1  0
  6  5  2  0
  8  7  1  0
  8  9  1  1
  9 10  1  0
 10 18  1  0
 11 10  2  0
 11 12  1  0
 12 13  1  0
 13 14  1  0
 14 15  2  0
 16 15  1  0
 17 16  2  0
 18 13  2  0
 18 17  1  0
 19 23  1  0
 19  8  1  0
 20 19  2  0
 22 21  1  1
 22 24  1  0
 22 23  1  0
 24 25  1  0
 26 24  2  0
M  END
$$$$
