SWA.pdb
     RDKit          3D

 26 27  0  0  1  0  0  0  0  0999 V2000
    8.6087  -17.1816   19.5392 O   0  0  0  0  0  0  0  0  0  0  0  0
    7.3228  -17.1849   20.0383 C   0  0  0  0  0  0  0  0  0  0  0  0
    7.0861  -15.8085   20.6698 C   0  0  2  0  0  0  0  0  0  0  0  0
    7.1109  -14.7851   19.6369 N   0  0  0  0  0  0  0  0  0  0  0  0
    8.1908  -15.5692   21.6477 C   0  0  0  0  0  0  0  0  0  0  0  0
    9.1209  -14.7903   21.3144 O   0  0  0  0  0  0  0  0  0  0  0  0
    8.1561  -16.2176   22.9009 N   0  0  0  0  0  0  0  0  0  0  0  0
    9.1825  -15.9806   23.8852 C   0  0  1  0  0  0  0  0  0  0  0  0
    8.5178  -16.1997   25.2266 C   0  0  0  0  0  0  0  0  0  0  0  0
    7.4540  -15.2423   25.5345 C   0  0  0  0  0  0  0  0  0  0  0  0
    6.0987  -15.5384   25.5197 C   0  0  0  0  0  0  0  0  0  0  0  0
    5.3979  -14.4276   25.8514 N   0  0  0  0  0  0  0  0  0  0  0  0
    6.2403  -13.4126   26.0838 C   0  0  0  0  0  0  0  0  0  0  0  0
    6.0387  -12.0978   26.4458 C   0  0  0  0  0  0  0  0  0  0  0  0
    7.1399  -11.2860   26.6104 C   0  0  0  0  0  0  0  0  0  0  0  0
    8.4114  -11.7602   26.4223 C   0  0  0  0  0  0  0  0  0  0  0  0
    8.5957  -13.0719   26.0621 C   0  0  0  0  0  0  0  0  0  0  0  0
    7.5247  -13.9189   25.8866 C   0  0  0  0  0  0  0  0  0  0  0  0
   10.3649  -16.8306   23.6958 C   0  0  0  0  0  0  0  0  0  0  0  0
   10.2169  -18.0727   23.6158 O   0  0  0  0  0  0  0  0  0  0  0  0
   13.9416  -16.3351   22.7495 C   0  0  0  0  0  0  0  0  0  0  0  0
   12.8449  -17.1201   23.4466 C   0  0  2  0  0  0  0  0  0  0  0  0
   11.6693  -16.2951   23.5999 N   0  0  0  0  0  0  0  0  0  0  0  0
   13.3540  -17.6035   24.7274 C   0  0  0  0  0  0  0  0  0  0  0  0
   12.6743  -17.2435   25.8889 O   0  0  0  0  0  0  0  0  0  0  0  0
   14.3681  -18.3275   24.8749 O   0  0  0  0  0  0  0  0  0  0  0  0
  2  1  1  0
  3  2  1  0
  3  4  1  6
  5  7  1  0
  5  3  1  0
  6  5  2  0
  8  7  1  0
  8  9  1  1
  9 10  1  0
 10 18  1  0
 11 10  2  0
 11 12  1  0
 12 13  1  0
 13 14  1  0
 14 15  2  0
 16 15  1  0
 17 16  2  0
 18 13  2  0
 18 17  1  0
 19 23  1  0
 19  8  1  0
 20 19  2  0
 22 21  1  1
 22 24  1  0
 22 23  1  0
 24 25  1  0
 26 24  2  0
M  END
$$$$
