SWA.pdb
     RDKit          3D

 26 27  0  0  1  0  0  0  0  0999 V2000
    8.6233  -16.2526   19.4011 O   0  0  0  0  0  0  0  0  0  0  0  0
    7.4502  -16.5263   20.0731 C   0  0  0  0  0  0  0  0  0  0  0  0
    7.1128  -15.2841   20.9051 C   0  0  2  0  0  0  0  0  0  0  0  0
    7.0396  -14.1190   20.0378 N   0  0  0  0  0  0  0  0  0  0  0  0
    8.2090  -15.1041   21.9051 C   0  0  0  0  0  0  0  0  0  0  0  0
    9.0725  -14.2156   21.6864 O   0  0  0  0  0  0  0  0  0  0  0  0
    8.2404  -15.9277   23.0508 N   0  0  0  0  0  0  0  0  0  0  0  0
    9.2638  -15.7625   24.0528 C   0  0  1  0  0  0  0  0  0  0  0  0
    8.5712  -15.9781   25.3807 C   0  0  0  0  0  0  0  0  0  0  0  0
    7.5136  -15.0088   25.6722 C   0  0  0  0  0  0  0  0  0  0  0  0
    6.1561  -15.2945   25.6552 C   0  0  0  0  0  0  0  0  0  0  0  0
    5.4627  -14.1743   25.9701 N   0  0  0  0  0  0  0  0  0  0  0  0
    6.3120  -13.1630   26.1935 C   0  0  0  0  0  0  0  0  0  0  0  0
    6.1191  -11.8423   26.5384 C   0  0  0  0  0  0  0  0  0  0  0  0
    7.2259  -11.0371   26.6977 C   0  0  0  0  0  0  0  0  0  0  0  0
    8.4945  -11.5235   26.5210 C   0  0  0  0  0  0  0  0  0  0  0  0
    8.6701  -12.8410   26.1778 C   0  0  0  0  0  0  0  0  0  0  0  0
    7.5932  -13.6817   26.0081 C   0  0  0  0  0  0  0  0  0  0  0  0
   10.4061  -16.6647   23.8591 C   0  0  0  0  0  0  0  0  0  0  0  0
   10.1996  -17.8965   23.7536 O   0  0  0  0  0  0  0  0  0  0  0  0
   14.0883  -16.2735   23.1988 C   0  0  0  0  0  0  0  0  0  0  0  0
   12.8727  -17.0692   23.6391 C   0  0  2  0  0  0  0  0  0  0  0  0
   11.7356  -16.1908   23.7869 N   0  0  0  0  0  0  0  0  0  0  0  0
   13.1947  -17.7728   24.8778 C   0  0  0  0  0  0  0  0  0  0  0  0
   12.4179  -17.5176   26.0058 O   0  0  0  0  0  0  0  0  0  0  0  0
   14.1265  -18.6016   25.0168 O   0  0  0  0  0  0  0  0  0  0  0  0
  2  1  1  0
  3  2  1  0
  3  4  1  6
  5  7  1  0
  5  3  1  0
  6  5  2  0
  8  7  1  0
  8  9  1  1
  9 10  1  0
 10 18  1  0
 11 10  2  0
 11 12  1  0
 12 13  1  0
 13 14  1  0
 14 15  2  0
 16 15  1  0
 17 16  2  0
 18 13  2  0
 18 17  1  0
 19 23  1  0
 19  8  1  0
 20 19  2  0
 22 21  1  1
 22 24  1  0
 22 23  1  0
 24 25  1  0
 26 24  2  0
M  END
$$$$
