SWA.pdb
     RDKit          3D

 26 27  0  0  1  0  0  0  0  0999 V2000
   11.5048  -19.1575   21.8461 O   0  0  0  0  0  0  0  0  0  0  0  0
   10.3784  -19.1635   21.0499 C   0  0  0  0  0  0  0  0  0  0  0  0
   10.3411  -17.8162   20.3201 C   0  0  2  0  0  0  0  0  0  0  0  0
   11.5138  -17.6876   19.4696 N   0  0  0  0  0  0  0  0  0  0  0  0
   10.3490  -16.7434   21.3607 C   0  0  0  0  0  0  0  0  0  0  0  0
   11.4186  -16.1090   21.5518 O   0  0  0  0  0  0  0  0  0  0  0  0
    9.1690  -16.4787   22.0884 N   0  0  0  0  0  0  0  0  0  0  0  0
    9.0792  -15.3350   22.9616 C   0  0  1  0  0  0  0  0  0  0  0  0
    7.6120  -14.9674   23.0006 C   0  0  0  0  0  0  0  0  0  0  0  0
    7.1152  -14.6143   24.3316 C   0  0  0  0  0  0  0  0  0  0  0  0
    6.5248  -15.5066   25.2147 C   0  0  0  0  0  0  0  0  0  0  0  0
    6.1840  -14.8488   26.3488 N   0  0  0  0  0  0  0  0  0  0  0  0
    6.5277  -13.5585   26.2454 C   0  0  0  0  0  0  0  0  0  0  0  0
    6.4011  -12.4880   27.1047 C   0  0  0  0  0  0  0  0  0  0  0  0
    6.8641  -11.2572   26.6929 C   0  0  0  0  0  0  0  0  0  0  0  0
    7.4392  -11.0860   25.4612 C   0  0  0  0  0  0  0  0  0  0  0  0
    7.5581  -12.1618   24.6168 C   0  0  0  0  0  0  0  0  0  0  0  0
    7.1093  -13.4096   24.9866 C   0  0  0  0  0  0  0  0  0  0  0  0
    9.6328  -15.5895   24.2977 C   0  0  0  0  0  0  0  0  0  0  0  0
   10.0137  -14.6201   24.9950 O   0  0  0  0  0  0  0  0  0  0  0  0
    9.2659  -17.3784   27.1548 C   0  0  0  0  0  0  0  0  0  0  0  0
   10.3499  -17.1659   26.1134 C   0  0  2  0  0  0  0  0  0  0  0  0
    9.7514  -16.8945   24.8272 N   0  0  0  0  0  0  0  0  0  0  0  0
   11.2130  -18.3439   26.0860 C   0  0  0  0  0  0  0  0  0  0  0  0
   11.3083  -19.0679   24.8995 O   0  0  0  0  0  0  0  0  0  0  0  0
   11.8879  -18.7679   27.0551 O   0  0  0  0  0  0  0  0  0  0  0  0
  2  1  1  0
  3  2  1  0
  3  4  1  6
  5  7  1  0
  5  3  1  0
  6  5  2  0
  8  7  1  0
  8  9  1  1
  9 10  1  0
 10 18  1  0
 11 10  2  0
 11 12  1  0
 12 13  1  0
 13 14  1  0
 14 15  2  0
 16 15  1  0
 17 16  2  0
 18 13  2  0
 18 17  1  0
 19 23  1  0
 19  8  1  0
 20 19  2  0
 22 21  1  1
 22 24  1  0
 22 23  1  0
 24 25  1  0
 26 24  2  0
M  END
$$$$
