SWA.pdb
     RDKit          3D

 26 27  0  0  1  0  0  0  0  0999 V2000
    8.8086  -15.8583   19.2392 O   0  0  0  0  0  0  0  0  0  0  0  0
    7.5490  -16.1235   19.7349 C   0  0  0  0  0  0  0  0  0  0  0  0
    7.1619  -14.9382   20.6262 C   0  0  2  0  0  0  0  0  0  0  0  0
    7.1510  -13.7161   19.8379 N   0  0  0  0  0  0  0  0  0  0  0  0
    8.1900  -14.8361   21.7062 C   0  0  0  0  0  0  0  0  0  0  0  0
    9.0887  -13.9633   21.5903 O   0  0  0  0  0  0  0  0  0  0  0  0
    8.1209  -15.7128   22.8102 N   0  0  0  0  0  0  0  0  0  0  0  0
    9.1660  -15.7357   23.8032 C   0  0  1  0  0  0  0  0  0  0  0  0
    8.4843  -16.1059   25.1023 C   0  0  0  0  0  0  0  0  0  0  0  0
    7.4746  -15.1439   25.5475 C   0  0  0  0  0  0  0  0  0  0  0  0
    6.1131  -15.4028   25.6103 C   0  0  0  0  0  0  0  0  0  0  0  0
    5.4717  -14.2989   26.0632 N   0  0  0  0  0  0  0  0  0  0  0  0
    6.3591  -13.3243   26.3006 C   0  0  0  0  0  0  0  0  0  0  0  0
    6.2239  -12.0320   26.7613 C   0  0  0  0  0  0  0  0  0  0  0  0
    7.3585  -11.2622   26.8995 C   0  0  0  0  0  0  0  0  0  0  0  0
    8.5986  -11.7558   26.5904 C   0  0  0  0  0  0  0  0  0  0  0  0
    8.7167  -13.0447   26.1329 C   0  0  0  0  0  0  0  0  0  0  0  0
    7.6105  -13.8495   25.9794 C   0  0  0  0  0  0  0  0  0  0  0  0
   10.2620  -16.6507   23.4603 C   0  0  0  0  0  0  0  0  0  0  0  0
    9.9901  -17.8186   23.0952 O   0  0  0  0  0  0  0  0  0  0  0  0
   13.9771  -16.4089   22.9781 C   0  0  0  0  0  0  0  0  0  0  0  0
   12.7103  -17.1784   23.3065 C   0  0  2  0  0  0  0  0  0  0  0  0
   11.6183  -16.2592   23.5275 N   0  0  0  0  0  0  0  0  0  0  0  0
   12.9637  -18.0278   24.4674 C   0  0  0  0  0  0  0  0  0  0  0  0
   13.9392  -19.0171   24.3641 O   0  0  0  0  0  0  0  0  0  0  0  0
   12.3688  -17.9423   25.5689 O   0  0  0  0  0  0  0  0  0  0  0  0
  2  1  1  0
  3  2  1  0
  3  4  1  6
  5  7  1  0
  5  3  1  0
  6  5  2  0
  8  7  1  0
  8  9  1  1
  9 10  1  0
 10 18  1  0
 11 10  2  0
 11 12  1  0
 12 13  1  0
 13 14  1  0
 14 15  2  0
 16 15  1  0
 17 16  2  0
 18 13  2  0
 18 17  1  0
 19 23  1  0
 19  8  1  0
 20 19  2  0
 22 21  1  1
 22 24  1  0
 22 23  1  0
 24 25  1  0
 26 24  2  0
M  END
$$$$
