SWA.pdb
     RDKit          3D

 26 27  0  0  1  0  0  0  0  0999 V2000
    8.4670  -16.1033   19.0087 O   0  0  0  0  0  0  0  0  0  0  0  0
    7.2605  -16.1439   19.6760 C   0  0  0  0  0  0  0  0  0  0  0  0
    7.1612  -14.8532   20.4967 C   0  0  2  0  0  0  0  0  0  0  0  0
    7.3478  -13.7037   19.6256 N   0  0  0  0  0  0  0  0  0  0  0  0
    8.2455  -14.8922   21.5246 C   0  0  0  0  0  0  0  0  0  0  0  0
    9.2559  -14.1631   21.3501 O   0  0  0  0  0  0  0  0  0  0  0  0
    8.1032  -15.7365   22.6466 N   0  0  0  0  0  0  0  0  0  0  0  0
    9.0793  -15.7278   23.7076 C   0  0  1  0  0  0  0  0  0  0  0  0
    8.3133  -16.0669   24.9676 C   0  0  0  0  0  0  0  0  0  0  0  0
    7.3545  -15.0417   25.3832 C   0  0  0  0  0  0  0  0  0  0  0  0
    5.9864  -15.2418   25.4967 C   0  0  0  0  0  0  0  0  0  0  0  0
    5.4013  -14.0893   25.9022 N   0  0  0  0  0  0  0  0  0  0  0  0
    6.3320  -13.1392   26.0598 C   0  0  0  0  0  0  0  0  0  0  0  0
    6.2599  -11.8187   26.4489 C   0  0  0  0  0  0  0  0  0  0  0  0
    7.4268  -11.0885   26.5127 C   0  0  0  0  0  0  0  0  0  0  0  0
    8.6376  -11.6480   26.1999 C   0  0  0  0  0  0  0  0  0  0  0  0
    8.6929  -12.9643   25.8142 C   0  0  0  0  0  0  0  0  0  0  0  0
    7.5525  -13.7315   25.7363 C   0  0  0  0  0  0  0  0  0  0  0  0
   10.1989  -16.6461   23.4635 C   0  0  0  0  0  0  0  0  0  0  0  0
    9.9556  -17.8352   23.1508 O   0  0  0  0  0  0  0  0  0  0  0  0
   13.8376  -16.3213   22.7737 C   0  0  0  0  0  0  0  0  0  0  0  0
   12.6582  -17.1175   23.3025 C   0  0  2  0  0  0  0  0  0  0  0  0
   11.5468  -16.2344   23.5690 N   0  0  0  0  0  0  0  0  0  0  0  0
   13.0815  -17.8509   24.4925 C   0  0  0  0  0  0  0  0  0  0  0  0
   12.4269  -17.5958   25.6956 O   0  0  0  0  0  0  0  0  0  0  0  0
   13.9996  -18.7055   24.5260 O   0  0  0  0  0  0  0  0  0  0  0  0
  2  1  1  0
  3  2  1  0
  3  4  1  6
  5  7  1  0
  5  3  1  0
  6  5  2  0
  8  7  1  0
  8  9  1  1
  9 10  1  0
 10 18  1  0
 11 10  2  0
 11 12  1  0
 12 13  1  0
 13 14  1  0
 14 15  2  0
 16 15  1  0
 17 16  2  0
 18 13  2  0
 18 17  1  0
 19 23  1  0
 19  8  1  0
 20 19  2  0
 22 21  1  1
 22 24  1  0
 22 23  1  0
 24 25  1  0
 26 24  2  0
M  END
$$$$
