SWA.pdb
     RDKit          3D

 26 27  0  0  1  0  0  0  0  0999 V2000
    9.0177  -16.6787   19.4780 O   0  0  0  0  0  0  0  0  0  0  0  0
    8.6592  -15.3703   19.2282 C   0  0  0  0  0  0  0  0  0  0  0  0
    7.6961  -14.9510   20.3444 C   0  0  2  0  0  0  0  0  0  0  0  0
    7.1548  -13.6328   20.0543 N   0  0  0  0  0  0  0  0  0  0  0  0
    8.4779  -14.9095   21.6176 C   0  0  0  0  0  0  0  0  0  0  0  0
    9.2384  -13.9270   21.8159 O   0  0  0  0  0  0  0  0  0  0  0  0
    8.3398  -15.9625   22.5473 N   0  0  0  0  0  0  0  0  0  0  0  0
    9.1251  -15.9899   23.7560 C   0  0  1  0  0  0  0  0  0  0  0  0
    8.1440  -16.2759   24.8718 C   0  0  0  0  0  0  0  0  0  0  0  0
    7.2326  -15.1697   25.1700 C   0  0  0  0  0  0  0  0  0  0  0  0
    5.8860  -15.1466   24.8373 C   0  0  0  0  0  0  0  0  0  0  0  0
    5.3444  -13.9788   25.2593 N   0  0  0  0  0  0  0  0  0  0  0  0
    6.2832  -13.2333   25.8566 C   0  0  0  0  0  0  0  0  0  0  0  0
    6.2494  -11.9871   26.4451 C   0  0  0  0  0  0  0  0  0  0  0  0
    7.4137  -11.4834   26.9831 C   0  0  0  0  0  0  0  0  0  0  0  0
    8.5851  -12.1928   26.9417 C   0  0  0  0  0  0  0  0  0  0  0  0
    8.6025  -13.4325   26.3523 C   0  0  0  0  0  0  0  0  0  0  0  0
    7.4630  -13.9748   25.8021 C   0  0  0  0  0  0  0  0  0  0  0  0
   10.2215  -16.9654   23.7048 C   0  0  0  0  0  0  0  0  0  0  0  0
    9.9761  -18.1405   23.3444 O   0  0  0  0  0  0  0  0  0  0  0  0
   13.9627  -16.8740   24.0336 C   0  0  0  0  0  0  0  0  0  0  0  0
   12.6240  -17.5888   24.0730 C   0  0  2  0  0  0  0  0  0  0  0  0
   11.5492  -16.6243   24.0488 N   0  0  0  0  0  0  0  0  0  0  0  0
   12.5796  -18.4389   25.2599 C   0  0  0  0  0  0  0  0  0  0  0  0
   13.5541  -19.4237   25.4062 O   0  0  0  0  0  0  0  0  0  0  0  0
   11.7251  -18.3578   26.1752 O   0  0  0  0  0  0  0  0  0  0  0  0
  2  1  1  0
  3  2  1  0
  3  4  1  6
  5  7  1  0
  5  3  1  0
  6  5  2  0
  8  7  1  0
  8  9  1  1
  9 10  1  0
 10 18  1  0
 11 10  2  0
 11 12  1  0
 12 13  1  0
 13 14  1  0
 14 15  2  0
 16 15  1  0
 17 16  2  0
 18 13  2  0
 18 17  1  0
 19 23  1  0
 19  8  1  0
 20 19  2  0
 22 21  1  1
 22 24  1  0
 22 23  1  0
 24 25  1  0
 26 24  2  0
M  END
$$$$
