SWA.pdb
     RDKit          3D

 26 27  0  0  1  0  0  0  0  0999 V2000
    8.7404  -16.9006   19.6181 O   0  0  0  0  0  0  0  0  0  0  0  0
    7.4264  -16.9191   20.0373 C   0  0  0  0  0  0  0  0  0  0  0  0
    7.1579  -15.5745   20.7222 C   0  0  2  0  0  0  0  0  0  0  0  0
    7.1594  -14.5110   19.7303 N   0  0  0  0  0  0  0  0  0  0  0  0
    8.2565  -15.3484   21.7102 C   0  0  0  0  0  0  0  0  0  0  0  0
    9.1930  -14.5718   21.3897 O   0  0  0  0  0  0  0  0  0  0  0  0
    8.2090  -16.0063   22.9580 N   0  0  0  0  0  0  0  0  0  0  0  0
    9.2594  -15.8270   23.9292 C   0  0  1  0  0  0  0  0  0  0  0  0
    8.6152  -16.0763   25.2754 C   0  0  0  0  0  0  0  0  0  0  0  0
    7.5397  -15.1413   25.6101 C   0  0  0  0  0  0  0  0  0  0  0  0
    6.1960  -15.4790   25.6831 C   0  0  0  0  0  0  0  0  0  0  0  0
    5.4791  -14.3788   26.0155 N   0  0  0  0  0  0  0  0  0  0  0  0
    6.2996  -13.3307   26.1639 C   0  0  0  0  0  0  0  0  0  0  0  0
    6.0758  -12.0103   26.4910 C   0  0  0  0  0  0  0  0  0  0  0  0
    7.1575  -11.1597   26.5642 C   0  0  0  0  0  0  0  0  0  0  0  0
    8.4313  -11.6014   26.3203 C   0  0  0  0  0  0  0  0  0  0  0  0
    8.6378  -12.9192   25.9960 C   0  0  0  0  0  0  0  0  0  0  0  0
    7.5868  -13.8043   25.9114 C   0  0  0  0  0  0  0  0  0  0  0  0
   10.4172  -16.6973   23.6879 C   0  0  0  0  0  0  0  0  0  0  0  0
   10.2312  -17.9231   23.5034 O   0  0  0  0  0  0  0  0  0  0  0  0
   14.0582  -16.2276   22.9413 C   0  0  0  0  0  0  0  0  0  0  0  0
   12.8913  -17.0485   23.4601 C   0  0  2  0  0  0  0  0  0  0  0  0
   11.7395  -16.1993   23.6561 N   0  0  0  0  0  0  0  0  0  0  0  0
   13.2999  -17.7215   24.6903 C   0  0  0  0  0  0  0  0  0  0  0  0
   14.3508  -18.6340   24.6285 O   0  0  0  0  0  0  0  0  0  0  0  0
   12.7776  -17.5461   25.8176 O   0  0  0  0  0  0  0  0  0  0  0  0
  2  1  1  0
  3  2  1  0
  3  4  1  6
  5  7  1  0
  5  3  1  0
  6  5  2  0
  8  7  1  0
  8  9  1  1
  9 10  1  0
 10 18  1  0
 11 10  2  0
 11 12  1  0
 12 13  1  0
 13 14  1  0
 14 15  2  0
 16 15  1  0
 17 16  2  0
 18 13  2  0
 18 17  1  0
 19 23  1  0
 19  8  1  0
 20 19  2  0
 22 21  1  1
 22 24  1  0
 22 23  1  0
 24 25  1  0
 26 24  2  0
M  END
$$$$
