SWA.pdb
     RDKit          3D

 26 27  0  0  1  0  0  0  0  0999 V2000
    8.5201  -16.8016   19.4147 O   0  0  0  0  0  0  0  0  0  0  0  0
    7.2803  -16.9870   19.9903 C   0  0  0  0  0  0  0  0  0  0  0  0
    6.9393  -15.6946   20.7405 C   0  0  2  0  0  0  0  0  0  0  0  0
    6.8603  -14.5886   19.7995 N   0  0  0  0  0  0  0  0  0  0  0  0
    8.0363  -15.4460   21.7248 C   0  0  0  0  0  0  0  0  0  0  0  0
    8.9416  -14.6304   21.4118 O   0  0  0  0  0  0  0  0  0  0  0  0
    8.0220  -16.1268   22.9611 N   0  0  0  0  0  0  0  0  0  0  0  0
    9.0718  -15.9256   23.9286 C   0  0  1  0  0  0  0  0  0  0  0  0
    8.4076  -16.0543   25.2819 C   0  0  0  0  0  0  0  0  0  0  0  0
    7.4096  -15.0208   25.5631 C   0  0  0  0  0  0  0  0  0  0  0  0
    6.0373  -15.2071   25.4804 C   0  0  0  0  0  0  0  0  0  0  0  0
    5.4119  -14.0502   25.8052 N   0  0  0  0  0  0  0  0  0  0  0  0
    6.3202  -13.1105   26.0983 C   0  0  0  0  0  0  0  0  0  0  0  0
    6.2065  -11.7909   26.4805 C   0  0  0  0  0  0  0  0  0  0  0  0
    7.3596  -11.0732   26.7130 C   0  0  0  0  0  0  0  0  0  0  0  0
    8.5971  -11.6441   26.5719 C   0  0  0  0  0  0  0  0  0  0  0  0
    8.6936  -12.9593   26.1907 C   0  0  0  0  0  0  0  0  0  0  0  0
    7.5683  -13.7142   25.9478 C   0  0  0  0  0  0  0  0  0  0  0  0
   10.1932  -16.8585   23.7594 C   0  0  0  0  0  0  0  0  0  0  0  0
    9.9527  -18.0761   23.5842 O   0  0  0  0  0  0  0  0  0  0  0  0
   13.7693  -16.5200   22.8338 C   0  0  0  0  0  0  0  0  0  0  0  0
   12.6467  -17.3072   23.4857 C   0  0  2  0  0  0  0  0  0  0  0  0
   11.5396  -16.4299   23.7869 N   0  0  0  0  0  0  0  0  0  0  0  0
   13.1685  -17.9710   24.6775 C   0  0  0  0  0  0  0  0  0  0  0  0
   12.5352  -17.7379   25.8964 O   0  0  0  0  0  0  0  0  0  0  0  0
   14.1547  -18.7464   24.6994 O   0  0  0  0  0  0  0  0  0  0  0  0
  2  1  1  0
  3  2  1  0
  3  4  1  6
  5  7  1  0
  5  3  1  0
  6  5  2  0
  8  7  1  0
  8  9  1  1
  9 10  1  0
 10 18  1  0
 11 10  2  0
 11 12  1  0
 12 13  1  0
 13 14  1  0
 14 15  2  0
 16 15  1  0
 17 16  2  0
 18 13  2  0
 18 17  1  0
 19 23  1  0
 19  8  1  0
 20 19  2  0
 22 21  1  1
 22 24  1  0
 22 23  1  0
 24 25  1  0
 26 24  2  0
M  END
$$$$
