SWA.pdb
     RDKit          3D

 26 27  0  0  1  0  0  0  0  0999 V2000
   13.3353  -18.1615   22.7560 O   0  0  0  0  0  0  0  0  0  0  0  0
   12.0991  -18.4187   22.2005 C   0  0  0  0  0  0  0  0  0  0  0  0
   11.5478  -17.0791   21.6999 C   0  0  2  0  0  0  0  0  0  0  0  0
   12.5689  -16.3865   20.9299 N   0  0  0  0  0  0  0  0  0  0  0  0
   11.1818  -16.2689   22.9014 C   0  0  0  0  0  0  0  0  0  0  0  0
   11.9114  -15.2890   23.2019 O   0  0  0  0  0  0  0  0  0  0  0  0
   10.0413  -16.6250   23.6529 N   0  0  0  0  0  0  0  0  0  0  0  0
    9.6517  -15.8620   24.8125 C   0  0  1  0  0  0  0  0  0  0  0  0
    8.1522  -16.0301   24.9247 C   0  0  0  0  0  0  0  0  0  0  0  0
    7.3826  -14.8536   24.5166 C   0  0  0  0  0  0  0  0  0  0  0  0
    6.8229  -14.6751   23.2597 C   0  0  0  0  0  0  0  0  0  0  0  0
    6.1828  -13.4818   23.2242 N   0  0  0  0  0  0  0  0  0  0  0  0
    6.3001  -12.8688   24.4093 C   0  0  0  0  0  0  0  0  0  0  0  0
    5.8404  -11.6584   24.8826 C   0  0  0  0  0  0  0  0  0  0  0  0
    6.1374  -11.3057   26.1811 C   0  0  0  0  0  0  0  0  0  0  0  0
    6.8713  -12.1282   26.9947 C   0  0  0  0  0  0  0  0  0  0  0  0
    7.3218  -13.3304   26.5087 C   0  0  0  0  0  0  0  0  0  0  0  0
    7.0489  -13.7235   25.2179 C   0  0  0  0  0  0  0  0  0  0  0  0
   10.3584  -16.2728   26.0324 C   0  0  0  0  0  0  0  0  0  0  0  0
   10.8438  -17.4267   26.0970 O   0  0  0  0  0  0  0  0  0  0  0  0
   11.1270  -14.6771   29.3706 C   0  0  0  0  0  0  0  0  0  0  0  0
   11.1369  -15.8231   28.3750 C   0  0  2  0  0  0  0  0  0  0  0  0
   10.5114  -15.4093   27.1406 N   0  0  0  0  0  0  0  0  0  0  0  0
   10.4688  -16.9743   28.9764 C   0  0  0  0  0  0  0  0  0  0  0  0
    9.2371  -17.3701   28.4595 O   0  0  0  0  0  0  0  0  0  0  0  0
   10.9157  -17.6495   29.9350 O   0  0  0  0  0  0  0  0  0  0  0  0
  2  1  1  0
  3  2  1  0
  3  4  1  1
  5  7  1  0
  5  3  1  0
  6  5  2  0
  8  7  1  0
  8  9  1  1
  9 10  1  0
 10 18  1  0
 11 10  2  0
 11 12  1  0
 12 13  1  0
 13 14  1  0
 14 15  2  0
 16 15  1  0
 17 16  2  0
 18 13  2  0
 18 17  1  0
 19 23  1  0
 19  8  1  0
 20 19  2  0
 22 21  1  1
 22 24  1  0
 22 23  1  0
 24 25  1  0
 26 24  2  0
M  END
$$$$
