SWA.pdb
     RDKit          3D

 26 27  0  0  1  0  0  0  0  0999 V2000
    8.4234  -17.0054   19.4054 O   0  0  0  0  0  0  0  0  0  0  0  0
    7.2280  -17.0378   20.0930 C   0  0  0  0  0  0  0  0  0  0  0  0
    7.0424  -15.6562   20.7301 C   0  0  2  0  0  0  0  0  0  0  0  0
    7.0321  -14.6364   19.6933 N   0  0  0  0  0  0  0  0  0  0  0  0
    8.1966  -15.4303   21.6525 C   0  0  0  0  0  0  0  0  0  0  0  0
    9.1514  -14.7188   21.2461 O   0  0  0  0  0  0  0  0  0  0  0  0
    8.1793  -16.0160   22.9365 N   0  0  0  0  0  0  0  0  0  0  0  0
    9.2546  -15.7864   23.8690 C   0  0  1  0  0  0  0  0  0  0  0  0
    8.6497  -15.9785   25.2425 C   0  0  0  0  0  0  0  0  0  0  0  0
    7.5406  -15.0717   25.5437 C   0  0  0  0  0  0  0  0  0  0  0  0
    6.2022  -15.4370   25.5456 C   0  0  0  0  0  0  0  0  0  0  0  0
    5.4480  -14.3581   25.8649 N   0  0  0  0  0  0  0  0  0  0  0  0
    6.2389  -13.2975   26.0731 C   0  0  0  0  0  0  0  0  0  0  0  0
    5.9730  -11.9887   26.4151 C   0  0  0  0  0  0  0  0  0  0  0  0
    7.0324  -11.1189   26.5566 C   0  0  0  0  0  0  0  0  0  0  0  0
    8.3250  -11.5306   26.3654 C   0  0  0  0  0  0  0  0  0  0  0  0
    8.5736  -12.8371   26.0253 C   0  0  0  0  0  0  0  0  0  0  0  0
    7.5461  -13.7406   25.8732 C   0  0  0  0  0  0  0  0  0  0  0  0
   10.4119  -16.6593   23.6349 C   0  0  0  0  0  0  0  0  0  0  0  0
   10.2283  -17.8912   23.4940 O   0  0  0  0  0  0  0  0  0  0  0  0
   13.9621  -16.1853   22.6088 C   0  0  0  0  0  0  0  0  0  0  0  0
   12.8742  -16.9967   23.2891 C   0  0  2  0  0  0  0  0  0  0  0  0
   11.7310  -16.1572   23.5625 N   0  0  0  0  0  0  0  0  0  0  0  0
   13.4241  -17.5969   24.5018 C   0  0  0  0  0  0  0  0  0  0  0  0
   12.7902  -17.3382   25.7151 O   0  0  0  0  0  0  0  0  0  0  0  0
   14.4354  -18.3383   24.5465 O   0  0  0  0  0  0  0  0  0  0  0  0
  2  1  1  0
  3  2  1  0
  3  4  1  6
  5  7  1  0
  5  3  1  0
  6  5  2  0
  8  7  1  0
  8  9  1  1
  9 10  1  0
 10 18  1  0
 11 10  2  0
 11 12  1  0
 12 13  1  0
 13 14  1  0
 14 15  2  0
 16 15  1  0
 17 16  2  0
 18 13  2  0
 18 17  1  0
 19 23  1  0
 19  8  1  0
 20 19  2  0
 22 21  1  1
 22 24  1  0
 22 23  1  0
 24 25  1  0
 26 24  2  0
M  END
$$$$
