SWA.pdb
     RDKit          3D

 26 27  0  0  1  0  0  0  0  0999 V2000
    9.5832  -15.0328   17.7044 O   0  0  0  0  0  0  0  0  0  0  0  0
    8.2050  -15.0900   17.7154 C   0  0  0  0  0  0  0  0  0  0  0  0
    7.7131  -13.8450   18.4619 C   0  0  2  0  0  0  0  0  0  0  0  0
    8.2772  -12.6525   17.8499 N   0  0  0  0  0  0  0  0  0  0  0  0
    8.1801  -13.9584   19.8771 C   0  0  0  0  0  0  0  0  0  0  0  0
    9.2712  -13.4145   20.1880 O   0  0  0  0  0  0  0  0  0  0  0  0
    7.3908  -14.6643   20.8102 N   0  0  0  0  0  0  0  0  0  0  0  0
    7.7935  -14.7693   22.1906 C   0  0  1  0  0  0  0  0  0  0  0  0
    6.5097  -14.9063   22.9794 C   0  0  0  0  0  0  0  0  0  0  0  0
    6.6870  -14.8528   24.4315 C   0  0  0  0  0  0  0  0  0  0  0  0
    6.6662  -15.9585   25.2693 C   0  0  0  0  0  0  0  0  0  0  0  0
    6.8611  -15.5515   26.5465 N   0  0  0  0  0  0  0  0  0  0  0  0
    7.0092  -14.2208   26.5808 C   0  0  0  0  0  0  0  0  0  0  0  0
    7.2266  -13.3330   27.6129 C   0  0  0  0  0  0  0  0  0  0  0  0
    7.3356  -11.9924   27.3136 C   0  0  0  0  0  0  0  0  0  0  0  0
    7.2328  -11.5374   26.0253 C   0  0  0  0  0  0  0  0  0  0  0  0
    7.0164  -12.4340   25.0086 C   0  0  0  0  0  0  0  0  0  0  0  0
    6.9010  -13.7823   25.2614 C   0  0  0  0  0  0  0  0  0  0  0  0
    8.7256  -15.8779   22.4326 C   0  0  0  0  0  0  0  0  0  0  0  0
    8.4940  -16.9943   21.9120 O   0  0  0  0  0  0  0  0  0  0  0  0
   12.2253  -16.3021   22.9958 C   0  0  0  0  0  0  0  0  0  0  0  0
   10.8486  -16.7852   23.4153 C   0  0  2  0  0  0  0  0  0  0  0  0
    9.8795  -15.7295   23.2350 N   0  0  0  0  0  0  0  0  0  0  0  0
   10.9140  -17.2476   24.7992 C   0  0  0  0  0  0  0  0  0  0  0  0
   11.8012  -18.2748   25.1133 O   0  0  0  0  0  0  0  0  0  0  0  0
   10.2286  -16.7920   25.7464 O   0  0  0  0  0  0  0  0  0  0  0  0
  2  1  1  0
  3  2  1  0
  3  4  1  6
  5  7  1  0
  5  3  1  0
  6  5  2  0
  8  7  1  0
  8  9  1  1
  9 10  1  0
 10 18  1  0
 11 10  2  0
 11 12  1  0
 12 13  1  0
 13 14  1  0
 14 15  2  0
 16 15  1  0
 17 16  2  0
 18 13  2  0
 18 17  1  0
 19 23  1  0
 19  8  1  0
 20 19  2  0
 22 21  1  1
 22 24  1  0
 22 23  1  0
 24 25  1  0
 26 24  2  0
M  END
$$$$
