SWA.pdb
     RDKit          3D

 26 27  0  0  1  0  0  0  0  0999 V2000
    8.3167  -16.5577   19.0394 O   0  0  0  0  0  0  0  0  0  0  0  0
    7.3373  -16.7624   19.9890 C   0  0  0  0  0  0  0  0  0  0  0  0
    7.0967  -15.4151   20.6789 C   0  0  2  0  0  0  0  0  0  0  0  0
    7.1380  -14.3462   19.6936 N   0  0  0  0  0  0  0  0  0  0  0  0
    8.1893  -15.2241   21.6807 C   0  0  0  0  0  0  0  0  0  0  0  0
    9.0698  -14.3578   21.4415 O   0  0  0  0  0  0  0  0  0  0  0  0
    8.1987  -16.0131   22.8510 N   0  0  0  0  0  0  0  0  0  0  0  0
    9.1972  -15.8115   23.8712 C   0  0  1  0  0  0  0  0  0  0  0  0
    8.4965  -16.0809   25.1848 C   0  0  0  0  0  0  0  0  0  0  0  0
    7.4372  -15.1239   25.5091 C   0  0  0  0  0  0  0  0  0  0  0  0
    6.0856  -15.4324   25.5622 C   0  0  0  0  0  0  0  0  0  0  0  0
    5.3885  -14.3181   25.8898 N   0  0  0  0  0  0  0  0  0  0  0  0
    6.2297  -13.2889   26.0542 C   0  0  0  0  0  0  0  0  0  0  0  0
    6.0304  -11.9653   26.3841 C   0  0  0  0  0  0  0  0  0  0  0  0
    7.1293  -11.1390   26.4759 C   0  0  0  0  0  0  0  0  0  0  0  0
    8.3964  -11.6075   26.2475 C   0  0  0  0  0  0  0  0  0  0  0  0
    8.5784  -12.9281   25.9199 C   0  0  0  0  0  0  0  0  0  0  0  0
    7.5095  -13.7896   25.8170 C   0  0  0  0  0  0  0  0  0  0  0  0
   10.3863  -16.6524   23.6830 C   0  0  0  0  0  0  0  0  0  0  0  0
   10.2481  -17.8958   23.6059 O   0  0  0  0  0  0  0  0  0  0  0  0
   13.9587  -16.1192   22.7344 C   0  0  0  0  0  0  0  0  0  0  0  0
   12.8669  -16.9219   23.4188 C   0  0  2  0  0  0  0  0  0  0  0  0
   11.6863  -16.1067   23.5852 N   0  0  0  0  0  0  0  0  0  0  0  0
   13.3791  -17.4225   24.6918 C   0  0  0  0  0  0  0  0  0  0  0  0
   12.6884  -17.0982   25.8574 O   0  0  0  0  0  0  0  0  0  0  0  0
   14.4051  -18.1316   24.8291 O   0  0  0  0  0  0  0  0  0  0  0  0
  2  1  1  0
  3  2  1  0
  3  4  1  6
  5  7  1  0
  5  3  1  0
  6  5  2  0
  8  7  1  0
  8  9  1  1
  9 10  1  0
 10 18  1  0
 11 10  2  0
 11 12  1  0
 12 13  1  0
 13 14  1  0
 14 15  2  0
 16 15  1  0
 17 16  2  0
 18 13  2  0
 18 17  1  0
 19 23  1  0
 19  8  1  0
 20 19  2  0
 22 21  1  1
 22 24  1  0
 22 23  1  0
 24 25  1  0
 26 24  2  0
M  END
$$$$
