KKI.pdb
     RDKit          3D

 27 26  0  0  1  0  0  0  0  0999 V2000
    6.4785  -20.1567   22.7337 N   0  0  0  0  0  0  0  0  0  0  0  0
    6.3673  -18.8994   23.3712 C   0  0  1  0  0  0  0  0  0  0  0  0
    6.2764  -18.9886   24.8816 C   0  0  0  0  0  0  0  0  0  0  0  0
    7.4230  -19.6725   25.5326 C   0  0  0  0  0  0  0  0  0  0  0  0
    7.3966  -19.7340   27.0197 C   0  0  0  0  0  0  0  0  0  0  0  0
    8.6003  -20.4369   27.6084 C   0  0  0  0  0  0  0  0  0  0  0  0
    8.5877  -20.3916   29.0587 N   0  0  0  0  0  0  0  0  0  0  0  0
    7.3354  -17.8623   22.9458 C   0  0  0  0  0  0  0  0  0  0  0  0
    8.5863  -18.0980   23.1167 O   0  0  0  0  0  0  0  0  0  0  0  0
    7.0402  -16.6262   22.3659 N   0  0  0  0  0  0  0  0  0  0  0  0
    8.0489  -15.5965   22.1110 C   0  0  1  0  0  0  0  0  0  0  0  0
    7.3577  -14.5415   21.2807 C   0  0  0  0  0  0  0  0  0  0  0  0
    8.1833  -13.3623   20.9142 C   0  0  0  0  0  0  0  0  0  0  0  0
    8.5172  -13.4108   19.4076 C   0  0  0  0  0  0  0  0  0  0  0  0
    7.2512  -13.1927   18.6375 C   0  0  0  0  0  0  0  0  0  0  0  0
    7.5751  -13.1895   17.2229 N   0  0  0  0  0  0  0  0  0  0  0  0
    8.6460  -15.1037   23.3573 C   0  0  0  0  0  0  0  0  0  0  0  0
    9.8662  -14.7190   23.2921 O   0  0  0  0  0  0  0  0  0  0  0  0
    5.9792  -11.7609   26.4345 C   0  0  0  0  0  0  0  0  0  0  0  0
    7.0546  -12.5064   25.6873 C   0  0  0  0  0  0  0  0  0  0  0  0
    7.7698  -13.5251   26.5417 C   0  0  2  0  0  0  0  0  0  0  0  0
    8.6365  -12.8204   27.5680 C   0  0  0  0  0  0  0  0  0  0  0  0
    8.6706  -14.4296   25.7325 C   0  0  2  0  0  0  0  0  0  0  0  0
    7.9871  -15.0182   24.6077 N   0  0  0  0  0  0  0  0  0  0  0  0
    9.2000  -15.4735   26.6501 C   0  0  0  0  0  0  0  0  0  0  0  0
    8.8520  -16.6757   26.5781 O   0  0  0  0  0  0  0  0  0  0  0  0
   10.1169  -15.1483   27.6391 O   0  0  0  0  0  0  0  0  0  0  0  0
  2  1  1  1
  3  2  1  0
  3  4  1  0
  4  5  1  0
  5  6  1  0
  7  6  1  0
  8  9  2  0
  8  2  1  0
 10  8  1  0
 11 17  1  0
 11 10  1  0
 11 12  1  1
 13 12  1  0
 14 13  1  0
 15 14  1  0
 16 15  1  0
 17 24  1  0
 18 17  2  0
 19 20  1  0
 21 20  1  0
 21 22  1  1
 21 23  1  0
 23 25  1  0
 23 24  1  6
 25 26  2  0
 25 27  1  0
M  END
$$$$
