KKI.pdb
     RDKit          3D

 27 26  0  0  1  0  0  0  0  0999 V2000
   11.1718  -18.0614   19.3292 N   0  0  0  0  0  0  0  0  0  0  0  0
   11.1668  -18.0470   20.7432 C   0  0  1  0  0  0  0  0  0  0  0  0
   12.5126  -18.3724   21.3601 C   0  0  0  0  0  0  0  0  0  0  0  0
   13.5740  -18.7246   20.3826 C   0  0  0  0  0  0  0  0  0  0  0  0
   14.8880  -19.1298   20.9530 C   0  0  0  0  0  0  0  0  0  0  0  0
   15.9038  -19.5098   19.8978 C   0  0  0  0  0  0  0  0  0  0  0  0
   17.1929  -19.8213   20.4866 N   0  0  0  0  0  0  0  0  0  0  0  0
   10.5481  -16.8632   21.3832 C   0  0  0  0  0  0  0  0  0  0  0  0
   11.3221  -15.9182   21.7800 O   0  0  0  0  0  0  0  0  0  0  0  0
    9.1868  -16.6484   21.6119 N   0  0  0  0  0  0  0  0  0  0  0  0
    8.6420  -15.3735   22.0813 C   0  0  1  0  0  0  0  0  0  0  0  0
    7.3625  -15.1642   21.3073 C   0  0  0  0  0  0  0  0  0  0  0  0
    7.3165  -13.9538   20.4474 C   0  0  0  0  0  0  0  0  0  0  0  0
    7.6418  -14.3410   18.9887 C   0  0  0  0  0  0  0  0  0  0  0  0
    7.6667  -13.0910   18.1640 C   0  0  0  0  0  0  0  0  0  0  0  0
    7.9456  -13.4599   16.7885 N   0  0  0  0  0  0  0  0  0  0  0  0
    8.4876  -15.3553   23.5401 C   0  0  0  0  0  0  0  0  0  0  0  0
    8.2903  -16.4871   24.1070 O   0  0  0  0  0  0  0  0  0  0  0  0
    6.1264  -11.0919   25.9673 C   0  0  0  0  0  0  0  0  0  0  0  0
    7.2818  -11.9972   25.6267 C   0  0  0  0  0  0  0  0  0  0  0  0
    7.1282  -13.3889   26.1913 C   0  0  2  0  0  0  0  0  0  0  0  0
    7.1361  -13.3343   27.7072 C   0  0  0  0  0  0  0  0  0  0  0  0
    8.2457  -14.3132   25.7655 C   0  0  2  0  0  0  0  0  0  0  0  0
    8.5422  -14.2014   24.3589 N   0  0  0  0  0  0  0  0  0  0  0  0
    7.8434  -15.6992   26.1248 C   0  0  0  0  0  0  0  0  0  0  0  0
    7.9383  -16.1492   27.2910 O   0  0  0  0  0  0  0  0  0  0  0  0
    7.3383  -16.5620   25.1630 O   0  0  0  0  0  0  0  0  0  0  0  0
  2  1  1  6
  3  2  1  0
  3  4  1  0
  4  5  1  0
  5  6  1  0
  7  6  1  0
  8  9  2  0
  8  2  1  0
 10  8  1  0
 11 17  1  0
 11 10  1  0
 11 12  1  6
 13 12  1  0
 14 13  1  0
 15 14  1  0
 16 15  1  0
 17 24  1  0
 18 17  2  0
 19 20  1  0
 21 20  1  0
 21 22  1  1
 21 23  1  0
 23 25  1  0
 23 24  1  6
 25 26  2  0
 25 27  1  0
M  END
$$$$
