KKI.pdb
     RDKit          3D

 27 26  0  0  1  0  0  0  0  0999 V2000
    5.1960  -18.0725   20.3008 N   0  0  0  0  0  0  0  0  0  0  0  0
    6.1009  -17.1946   20.9411 C   0  0  1  0  0  0  0  0  0  0  0  0
    6.0206  -15.7661   20.4403 C   0  0  0  0  0  0  0  0  0  0  0  0
    6.9805  -15.4341   19.3565 C   0  0  0  0  0  0  0  0  0  0  0  0
    7.4762  -14.0308   19.3214 C   0  0  0  0  0  0  0  0  0  0  0  0
    8.2917  -13.7178   18.0858 C   0  0  0  0  0  0  0  0  0  0  0  0
    8.6928  -12.3237   18.0509 N   0  0  0  0  0  0  0  0  0  0  0  0
    6.1304  -17.2503   22.4208 C   0  0  0  0  0  0  0  0  0  0  0  0
    5.1469  -16.7321   23.0640 O   0  0  0  0  0  0  0  0  0  0  0  0
    7.1279  -17.8147   23.2195 N   0  0  0  0  0  0  0  0  0  0  0  0
    7.1646  -17.6775   24.6764 C   0  0  1  0  0  0  0  0  0  0  0  0
    7.6512  -19.0070   25.2016 C   0  0  0  0  0  0  0  0  0  0  0  0
    7.8103  -19.1019   26.6755 C   0  0  0  0  0  0  0  0  0  0  0  0
    8.4497  -20.4586   27.0420 C   0  0  0  0  0  0  0  0  0  0  0  0
    8.5673  -20.5362   28.5331 C   0  0  0  0  0  0  0  0  0  0  0  0
    9.1521  -21.8193   28.8763 N   0  0  0  0  0  0  0  0  0  0  0  0
    7.9678  -16.5220   25.0911 C   0  0  0  0  0  0  0  0  0  0  0  0
    9.1415  -16.4321   24.5857 O   0  0  0  0  0  0  0  0  0  0  0  0
    5.9077  -11.8788   27.7380 C   0  0  0  0  0  0  0  0  0  0  0  0
    6.6117  -13.1908   27.5067 C   0  0  0  0  0  0  0  0  0  0  0  0
    7.6883  -13.1055   26.4516 C   0  0  2  0  0  0  0  0  0  0  0  0
    7.0704  -12.7548   25.1114 C   0  0  0  0  0  0  0  0  0  0  0  0
    8.4347  -14.4084   26.2793 C   0  0  2  0  0  0  0  0  0  0  0  0
    7.5515  -15.5109   25.9908 N   0  0  0  0  0  0  0  0  0  0  0  0
    9.2111  -14.6491   27.5247 C   0  0  0  0  0  0  0  0  0  0  0  0
    9.0016  -15.6339   28.2716 O   0  0  0  0  0  0  0  0  0  0  0  0
   10.2159  -13.7750   27.9131 O   0  0  0  0  0  0  0  0  0  0  0  0
  2  1  1  1
  3  2  1  0
  3  4  1  0
  4  5  1  0
  5  6  1  0
  7  6  1  0
  8  9  2  0
  8  2  1  0
 10  8  1  0
 11 17  1  0
 11 10  1  0
 11 12  1  1
 13 12  1  0
 14 13  1  0
 15 14  1  0
 16 15  1  0
 17 24  1  0
 18 17  2  0
 19 20  1  0
 21 20  1  0
 21 22  1  6
 21 23  1  0
 23 25  1  0
 23 24  1  1
 25 26  2  0
 25 27  1  0
M  END
$$$$
