KKI.pdb
     RDKit          3D

 27 26  0  0  1  0  0  0  0  0999 V2000
    8.7572  -21.3091   22.9330 N   0  0  0  0  0  0  0  0  0  0  0  0
    7.7284  -20.4350   23.3538 C   0  0  1  0  0  0  0  0  0  0  0  0
    6.9706  -20.9280   24.5705 C   0  0  0  0  0  0  0  0  0  0  0  0
    6.4372  -22.3091   24.4514 C   0  0  0  0  0  0  0  0  0  0  0  0
    5.1135  -22.4499   23.7852 C   0  0  0  0  0  0  0  0  0  0  0  0
    4.5853  -23.8678   23.8031 C   0  0  0  0  0  0  0  0  0  0  0  0
    3.3078  -23.9694   23.1223 N   0  0  0  0  0  0  0  0  0  0  0  0
    8.0967  -19.0065   23.4855 C   0  0  0  0  0  0  0  0  0  0  0  0
    8.9487  -18.6840   24.3909 O   0  0  0  0  0  0  0  0  0  0  0  0
    7.6140  -17.9416   22.7212 N   0  0  0  0  0  0  0  0  0  0  0  0
    8.0144  -16.5503   22.9377 C   0  0  1  0  0  0  0  0  0  0  0  0
    7.7162  -15.8314   21.6437 C   0  0  0  0  0  0  0  0  0  0  0  0
    8.0179  -14.3770   21.6266 C   0  0  0  0  0  0  0  0  0  0  0  0
    7.8211  -13.8231   20.1990 C   0  0  0  0  0  0  0  0  0  0  0  0
    8.1933  -12.3723   20.2014 C   0  0  0  0  0  0  0  0  0  0  0  0
    7.9328  -11.8344   18.8790 N   0  0  0  0  0  0  0  0  0  0  0  0
    7.3646  -15.9783   24.1221 C   0  0  0  0  0  0  0  0  0  0  0  0
    6.1004  -16.1597   24.2228 O   0  0  0  0  0  0  0  0  0  0  0  0
    9.6926  -12.3932   28.1296 C   0  0  0  0  0  0  0  0  0  0  0  0
    8.7561  -12.8581   27.0447 C   0  0  0  0  0  0  0  0  0  0  0  0
    8.1045  -14.1842   27.3549 C   0  0  2  0  0  0  0  0  0  0  0  0
    9.1687  -15.2343   27.6112 C   0  0  0  0  0  0  0  0  0  0  0  0
    7.2391  -14.6836   26.2209 C   0  0  2  0  0  0  0  0  0  0  0  0
    8.0169  -15.2547   25.1496 N   0  0  0  0  0  0  0  0  0  0  0  0
    6.4199  -13.5379   25.7431 C   0  0  0  0  0  0  0  0  0  0  0  0
    5.5567  -12.9792   26.4602 O   0  0  0  0  0  0  0  0  0  0  0  0
    6.5846  -13.0356   24.4605 O   0  0  0  0  0  0  0  0  0  0  0  0
  2  1  1  1
  3  2  1  0
  3  4  1  0
  4  5  1  0
  5  6  1  0
  7  6  1  0
  8  9  2  0
  8  2  1  0
 10  8  1  0
 11 17  1  0
 11 10  1  0
 11 12  1  6
 13 12  1  0
 14 13  1  0
 15 14  1  0
 16 15  1  0
 17 24  1  0
 18 17  2  0
 19 20  1  0
 21 20  1  0
 21 22  1  6
 21 23  1  0
 23 25  1  0
 23 24  1  6
 25 26  2  0
 25 27  1  0
M  END
$$$$
