KKI.pdb
     RDKit          3D

 27 26  0  0  1  0  0  0  0  0999 V2000
    6.7038  -20.1277   21.0348 N   0  0  0  0  0  0  0  0  0  0  0  0
    6.4834  -19.2436   22.1161 C   0  0  1  0  0  0  0  0  0  0  0  0
    6.2804  -19.9451   23.4444 C   0  0  0  0  0  0  0  0  0  0  0  0
    5.2597  -21.0239   23.4264 C   0  0  0  0  0  0  0  0  0  0  0  0
    4.8814  -21.5964   24.7474 C   0  0  0  0  0  0  0  0  0  0  0  0
    3.9046  -22.7470   24.6405 C   0  0  0  0  0  0  0  0  0  0  0  0
    3.5350  -23.2558   25.9482 N   0  0  0  0  0  0  0  0  0  0  0  0
    7.4305  -18.1115   22.2391 C   0  0  0  0  0  0  0  0  0  0  0  0
    8.6856  -18.3780   22.2944 O   0  0  0  0  0  0  0  0  0  0  0  0
    7.1107  -16.7532   22.3038 N   0  0  0  0  0  0  0  0  0  0  0  0
    8.1136  -15.6976   22.4536 C   0  0  1  0  0  0  0  0  0  0  0  0
    7.6469  -14.5606   21.5764 C   0  0  0  0  0  0  0  0  0  0  0  0
    8.0912  -14.6112   20.1599 C   0  0  0  0  0  0  0  0  0  0  0  0
    7.4789  -13.4269   19.3814 C   0  0  0  0  0  0  0  0  0  0  0  0
    7.8953  -13.5405   17.9471 C   0  0  0  0  0  0  0  0  0  0  0  0
    7.2941  -12.4435   17.2115 N   0  0  0  0  0  0  0  0  0  0  0  0
    8.3190  -15.3423   23.8622 C   0  0  0  0  0  0  0  0  0  0  0  0
    7.5671  -14.4181   24.3330 O   0  0  0  0  0  0  0  0  0  0  0  0
    9.2622  -13.4615   29.0387 C   0  0  0  0  0  0  0  0  0  0  0  0
   10.0462  -13.8777   27.8211 C   0  0  0  0  0  0  0  0  0  0  0  0
    9.2303  -14.6856   26.8409 C   0  0  2  0  0  0  0  0  0  0  0  0
    8.7261  -15.9507   27.5089 C   0  0  0  0  0  0  0  0  0  0  0  0
   10.0290  -15.1018   25.6271 C   0  0  2  0  0  0  0  0  0  0  0  0
    9.2674  -15.9353   24.7304 N   0  0  0  0  0  0  0  0  0  0  0  0
   11.2490  -15.8014   26.1107 C   0  0  0  0  0  0  0  0  0  0  0  0
   11.4041  -17.0408   26.0036 O   0  0  0  0  0  0  0  0  0  0  0  0
   12.2807  -15.0937   26.7102 O   0  0  0  0  0  0  0  0  0  0  0  0
  2  1  1  6
  3  2  1  0
  3  4  1  0
  4  5  1  0
  5  6  1  0
  7  6  1  0
  8  9  2  0
  8  2  1  0
 10  8  1  0
 11 17  1  0
 11 10  1  0
 11 12  1  6
 13 12  1  0
 14 13  1  0
 15 14  1  0
 16 15  1  0
 17 24  1  0
 18 17  2  0
 19 20  1  0
 21 20  1  0
 21 22  1  1
 21 23  1  0
 23 25  1  0
 23 24  1  6
 25 26  2  0
 25 27  1  0
M  END
$$$$
