KKI.pdb
     RDKit          3D

 27 26  0  0  1  0  0  0  0  0999 V2000
    7.4931  -19.0496   21.8590 N   0  0  0  0  0  0  0  0  0  0  0  0
    8.8654  -18.8546   22.1386 C   0  0  1  0  0  0  0  0  0  0  0  0
    9.7831  -19.7677   21.3501 C   0  0  0  0  0  0  0  0  0  0  0  0
    9.2640  -21.1446   21.1481 C   0  0  0  0  0  0  0  0  0  0  0  0
   10.2097  -22.1247   20.5473 C   0  0  0  0  0  0  0  0  0  0  0  0
    9.5987  -23.4939   20.3430 C   0  0  0  0  0  0  0  0  0  0  0  0
   10.4872  -24.3687   19.6006 N   0  0  0  0  0  0  0  0  0  0  0  0
    9.3448  -17.4534   22.1177 C   0  0  0  0  0  0  0  0  0  0  0  0
   10.5828  -17.2351   22.3806 O   0  0  0  0  0  0  0  0  0  0  0  0
    8.5891  -16.3121   21.8385 N   0  0  0  0  0  0  0  0  0  0  0  0
    9.1309  -14.9538   21.9030 C   0  0  1  0  0  0  0  0  0  0  0  0
    8.2911  -14.1316   20.9549 C   0  0  0  0  0  0  0  0  0  0  0  0
    8.5944  -14.2985   19.5104 C   0  0  0  0  0  0  0  0  0  0  0  0
    7.6630  -13.3924   18.6766 C   0  0  0  0  0  0  0  0  0  0  0  0
    7.9467  -13.6335   17.2258 C   0  0  0  0  0  0  0  0  0  0  0  0
    7.0535  -12.7988   16.4437 N   0  0  0  0  0  0  0  0  0  0  0  0
    9.1709  -14.4521   23.2811 C   0  0  0  0  0  0  0  0  0  0  0  0
    9.5030  -13.2240   23.4317 O   0  0  0  0  0  0  0  0  0  0  0  0
    6.4355  -12.0351   27.3868 C   0  0  0  0  0  0  0  0  0  0  0  0
    7.6102  -12.9656   27.2300 C   0  0  0  0  0  0  0  0  0  0  0  0
    7.6296  -13.6728   25.8962 C   0  0  2  0  0  0  0  0  0  0  0  0
    6.4037  -14.5562   25.7629 C   0  0  0  0  0  0  0  0  0  0  0  0
    8.8446  -14.5556   25.7265 C   0  0  2  0  0  0  0  0  0  0  0  0
    8.8719  -15.2076   24.4407 N   0  0  0  0  0  0  0  0  0  0  0  0
    8.8379  -15.5468   26.8352 C   0  0  0  0  0  0  0  0  0  0  0  0
    8.8621  -15.2099   28.0425 O   0  0  0  0  0  0  0  0  0  0  0  0
    8.8038  -16.9078   26.5686 O   0  0  0  0  0  0  0  0  0  0  0  0
  2  1  1  6
  3  2  1  0
  3  4  1  0
  4  5  1  0
  5  6  1  0
  7  6  1  0
  8  9  2  0
  8  2  1  0
 10  8  1  0
 11 17  1  0
 11 10  1  0
 11 12  1  6
 13 12  1  0
 14 13  1  0
 15 14  1  0
 16 15  1  0
 17 24  1  0
 18 17  2  0
 19 20  1  0
 21 20  1  0
 21 22  1  1
 21 23  1  0
 23 25  1  0
 23 24  1  6
 25 26  2  0
 25 27  1  0
M  END
$$$$
