KKI.pdb
     RDKit          3D

 27 26  0  0  1  0  0  0  0  0999 V2000
    6.3616  -17.9103   19.1749 N   0  0  0  0  0  0  0  0  0  0  0  0
    7.1303  -17.0547   19.9974 C   0  0  1  0  0  0  0  0  0  0  0  0
    7.1869  -15.6232   19.5020 C   0  0  0  0  0  0  0  0  0  0  0  0
    7.6397  -15.4711   18.0956 C   0  0  0  0  0  0  0  0  0  0  0  0
    7.8164  -14.0762   17.6067 C   0  0  0  0  0  0  0  0  0  0  0  0
    8.1176  -13.9976   16.1259 C   0  0  0  0  0  0  0  0  0  0  0  0
    8.3085  -12.6259   15.6928 N   0  0  0  0  0  0  0  0  0  0  0  0
    6.8476  -17.1158   21.4500 C   0  0  0  0  0  0  0  0  0  0  0  0
    5.7397  -16.6205   21.8705 O   0  0  0  0  0  0  0  0  0  0  0  0
    7.6653  -17.6628   22.4417 N   0  0  0  0  0  0  0  0  0  0  0  0
    7.3305  -17.6329   23.8664 C   0  0  1  0  0  0  0  0  0  0  0  0
    7.7201  -18.9876   24.4079 C   0  0  0  0  0  0  0  0  0  0  0  0
    7.6033  -19.1547   25.8793 C   0  0  0  0  0  0  0  0  0  0  0  0
    8.1210  -20.5514   26.2855 C   0  0  0  0  0  0  0  0  0  0  0  0
    7.8161  -20.7629   27.7366 C   0  0  0  0  0  0  0  0  0  0  0  0
    8.1821  -22.1235   28.0839 N   0  0  0  0  0  0  0  0  0  0  0  0
    7.9598  -16.4954   24.5464 C   0  0  0  0  0  0  0  0  0  0  0  0
    9.1880  -16.2686   24.2614 O   0  0  0  0  0  0  0  0  0  0  0  0
    7.1429  -10.8010   26.5959 C   0  0  0  0  0  0  0  0  0  0  0  0
    7.9478  -12.0745   26.6191 C   0  0  0  0  0  0  0  0  0  0  0  0
    7.2109  -13.2501   26.0239 C   0  0  2  0  0  0  0  0  0  0  0  0
    5.9606  -13.5384   26.8331 C   0  0  0  0  0  0  0  0  0  0  0  0
    8.0443  -14.5110   26.0134 C   0  0  2  0  0  0  0  0  0  0  0  0
    7.3235  -15.6388   25.4772 N   0  0  0  0  0  0  0  0  0  0  0  0
    8.4884  -14.7673   27.4094 C   0  0  0  0  0  0  0  0  0  0  0  0
    8.0316  -15.7072   28.1018 O   0  0  0  0  0  0  0  0  0  0  0  0
    9.4439  -13.9592   28.0084 O   0  0  0  0  0  0  0  0  0  0  0  0
  2  1  1  6
  3  2  1  0
  3  4  1  0
  4  5  1  0
  5  6  1  0
  7  6  1  0
  8  9  2  0
  8  2  1  0
 10  8  1  0
 11 17  1  0
 11 10  1  0
 11 12  1  1
 13 12  1  0
 14 13  1  0
 15 14  1  0
 16 15  1  0
 17 24  1  0
 18 17  2  0
 19 20  1  0
 21 20  1  0
 21 22  1  1
 21 23  1  0
 23 25  1  0
 23 24  1  1
 25 26  2  0
 25 27  1  0
M  END
$$$$
