KKI.pdb
     RDKit          3D

 27 26  0  0  1  0  0  0  0  0999 V2000
    7.1050  -16.2508   18.8251 N   0  0  0  0  0  0  0  0  0  0  0  0
    7.7854  -15.4596   19.7794 C   0  0  1  0  0  0  0  0  0  0  0  0
    7.3779  -13.9997   19.7616 C   0  0  0  0  0  0  0  0  0  0  0  0
    8.0892  -13.1695   18.7562 C   0  0  0  0  0  0  0  0  0  0  0  0
    7.8124  -13.4825   17.3274 C   0  0  0  0  0  0  0  0  0  0  0  0
    8.5787  -12.6013   16.3652 C   0  0  0  0  0  0  0  0  0  0  0  0
    8.2848  -12.9379   14.9846 N   0  0  0  0  0  0  0  0  0  0  0  0
    7.8304  -15.9941   21.1600 C   0  0  0  0  0  0  0  0  0  0  0  0
    6.7155  -16.2337   21.7509 O   0  0  0  0  0  0  0  0  0  0  0  0
    8.9721  -16.2752   21.9142 N   0  0  0  0  0  0  0  0  0  0  0  0
    8.9246  -16.8276   23.2689 C   0  0  1  0  0  0  0  0  0  0  0  0
    9.8283  -18.0372   23.2507 C   0  0  0  0  0  0  0  0  0  0  0  0
    9.3388  -19.1993   22.4655 C   0  0  0  0  0  0  0  0  0  0  0  0
   10.3369  -20.3701   22.5946 C   0  0  0  0  0  0  0  0  0  0  0  0
    9.8668  -21.4887   21.7164 C   0  0  0  0  0  0  0  0  0  0  0  0
   10.8496  -22.5548   21.7737 N   0  0  0  0  0  0  0  0  0  0  0  0
    9.2688  -15.8188   24.2770 C   0  0  0  0  0  0  0  0  0  0  0  0
   10.3799  -15.2031   24.1117 O   0  0  0  0  0  0  0  0  0  0  0  0
    6.1191  -11.8957   26.0431 C   0  0  0  0  0  0  0  0  0  0  0  0
    7.2579  -12.7889   25.6241 C   0  0  0  0  0  0  0  0  0  0  0  0
    7.8771  -13.5378   26.7796 C   0  0  2  0  0  0  0  0  0  0  0  0
    8.5029  -12.5576   27.7536 C   0  0  0  0  0  0  0  0  0  0  0  0
    8.9628  -14.4914   26.3365 C   0  0  2  0  0  0  0  0  0  0  0  0
    8.4782  -15.4752   25.4003 N   0  0  0  0  0  0  0  0  0  0  0  0
    9.5209  -15.1343   27.5559 C   0  0  0  0  0  0  0  0  0  0  0  0
    9.2476  -16.3131   27.8834 O   0  0  0  0  0  0  0  0  0  0  0  0
   10.3819  -14.4388   28.3924 O   0  0  0  0  0  0  0  0  0  0  0  0
  2  1  1  6
  3  2  1  0
  3  4  1  0
  4  5  1  0
  5  6  1  0
  7  6  1  0
  8  9  2  0
  8  2  1  0
 10  8  1  0
 11 17  1  0
 11 10  1  0
 11 12  1  6
 13 12  1  0
 14 13  1  0
 15 14  1  0
 16 15  1  0
 17 24  1  0
 18 17  2  0
 19 20  1  0
 21 20  1  0
 21 22  1  1
 21 23  1  0
 23 25  1  0
 23 24  1  6
 25 26  2  0
 25 27  1  0
M  END
$$$$
