KKI.pdb
     RDKit          3D

 27 26  0  0  1  0  0  0  0  0999 V2000
    6.2197  -16.2463   19.0370 N   0  0  0  0  0  0  0  0  0  0  0  0
    7.2354  -15.6239   19.7988 C   0  0  1  0  0  0  0  0  0  0  0  0
    7.2520  -14.1135   19.6726 C   0  0  0  0  0  0  0  0  0  0  0  0
    7.9217  -13.6006   18.4500 C   0  0  0  0  0  0  0  0  0  0  0  0
    9.4048  -13.4864   18.5088 C   0  0  0  0  0  0  0  0  0  0  0  0
    9.9932  -12.7530   17.3232 C   0  0  0  0  0  0  0  0  0  0  0  0
   11.4263  -12.5741   17.4649 N   0  0  0  0  0  0  0  0  0  0  0  0
    7.3485  -16.0519   21.2122 C   0  0  0  0  0  0  0  0  0  0  0  0
    6.3233  -15.9037   21.9715 O   0  0  0  0  0  0  0  0  0  0  0  0
    8.4679  -16.6121   21.8323 N   0  0  0  0  0  0  0  0  0  0  0  0
    8.5036  -16.9762   23.2497 C   0  0  1  0  0  0  0  0  0  0  0  0
    9.5451  -18.0632   23.3680 C   0  0  0  0  0  0  0  0  0  0  0  0
    9.8465  -18.5235   24.7478 C   0  0  0  0  0  0  0  0  0  0  0  0
   10.9612  -19.5911   24.7066 C   0  0  0  0  0  0  0  0  0  0  0  0
   11.2084  -20.0679   26.1048 C   0  0  0  0  0  0  0  0  0  0  0  0
   12.1036  -21.2084   26.0440 N   0  0  0  0  0  0  0  0  0  0  0  0
    8.7372  -15.8060   24.1032 C   0  0  0  0  0  0  0  0  0  0  0  0
    9.7994  -15.1301   23.8665 O   0  0  0  0  0  0  0  0  0  0  0  0
    6.5505  -10.9364   26.9462 C   0  0  0  0  0  0  0  0  0  0  0  0
    7.5844  -12.0324   26.9306 C   0  0  0  0  0  0  0  0  0  0  0  0
    7.1840  -13.2100   26.0747 C   0  0  2  0  0  0  0  0  0  0  0  0
    5.9751  -13.8991   26.6786 C   0  0  0  0  0  0  0  0  0  0  0  0
    8.2825  -14.2416   25.9587 C   0  0  2  0  0  0  0  0  0  0  0  0
    7.8905  -15.3698   25.1509 N   0  0  0  0  0  0  0  0  0  0  0  0
    8.6487  -14.6644   27.3367 C   0  0  0  0  0  0  0  0  0  0  0  0
    9.1918  -13.8896   28.1591 O   0  0  0  0  0  0  0  0  0  0  0  0
    8.3975  -15.9578   27.7710 O   0  0  0  0  0  0  0  0  0  0  0  0
  2  1  1  1
  3  2  1  0
  3  4  1  0
  4  5  1  0
  5  6  1  0
  7  6  1  0
  8  9  2  0
  8  2  1  0
 10  8  1  0
 11 17  1  0
 11 10  1  0
 11 12  1  6
 13 12  1  0
 14 13  1  0
 15 14  1  0
 16 15  1  0
 17 24  1  0
 18 17  2  0
 19 20  1  0
 21 20  1  0
 21 22  1  1
 21 23  1  0
 23 25  1  0
 23 24  1  6
 25 26  2  0
 25 27  1  0
M  END
$$$$
