KKI.pdb
     RDKit          3D

 27 26  0  0  1  0  0  0  0  0999 V2000
   11.2021  -19.9247   22.6331 N   0  0  0  0  0  0  0  0  0  0  0  0
   11.9845  -18.7611   22.8161 C   0  0  1  0  0  0  0  0  0  0  0  0
   13.1720  -18.6723   21.8782 C   0  0  0  0  0  0  0  0  0  0  0  0
   13.1180  -19.6002   20.7197 C   0  0  0  0  0  0  0  0  0  0  0  0
   14.2261  -20.5885   20.6138 C   0  0  0  0  0  0  0  0  0  0  0  0
   14.1737  -21.4085   19.3431 C   0  0  0  0  0  0  0  0  0  0  0  0
   15.1694  -22.4641   19.3484 N   0  0  0  0  0  0  0  0  0  0  0  0
   11.2456  -17.4791   22.8795 C   0  0  0  0  0  0  0  0  0  0  0  0
   11.9066  -16.4150   23.1629 O   0  0  0  0  0  0  0  0  0  0  0  0
    9.8793  -17.2864   22.6618 N   0  0  0  0  0  0  0  0  0  0  0  0
    9.2176  -15.9887   22.8059 C   0  0  1  0  0  0  0  0  0  0  0  0
    8.3472  -15.8337   21.5817 C   0  0  0  0  0  0  0  0  0  0  0  0
    7.8848  -14.4533   21.2866 C   0  0  0  0  0  0  0  0  0  0  0  0
    7.9535  -14.1972   19.7656 C   0  0  0  0  0  0  0  0  0  0  0  0
    7.6055  -12.7623   19.5135 C   0  0  0  0  0  0  0  0  0  0  0  0
    7.7824  -12.4940   18.0983 N   0  0  0  0  0  0  0  0  0  0  0  0
    8.5046  -15.8837   24.0838 C   0  0  0  0  0  0  0  0  0  0  0  0
    7.9180  -16.9444   24.4986 O   0  0  0  0  0  0  0  0  0  0  0  0
    5.6467  -11.4742   25.9570 C   0  0  0  0  0  0  0  0  0  0  0  0
    6.2047  -12.8063   25.5273 C   0  0  0  0  0  0  0  0  0  0  0  0
    7.1711  -13.3926   26.5282 C   0  0  2  0  0  0  0  0  0  0  0  0
    8.3804  -12.4876   26.6687 C   0  0  0  0  0  0  0  0  0  0  0  0
    7.6724  -14.7581   26.1178 C   0  0  2  0  0  0  0  0  0  0  0  0
    8.4185  -14.7192   24.8846 N   0  0  0  0  0  0  0  0  0  0  0  0
    6.4915  -15.6554   26.0073 C   0  0  0  0  0  0  0  0  0  0  0  0
    6.0867  -16.1069   24.9101 O   0  0  0  0  0  0  0  0  0  0  0  0
    5.7806  -16.0330   27.1371 O   0  0  0  0  0  0  0  0  0  0  0  0
  2  1  1  6
  3  2  1  0
  3  4  1  0
  4  5  1  0
  5  6  1  0
  7  6  1  0
  8  9  2  0
  8  2  1  0
 10  8  1  0
 11 17  1  0
 11 10  1  0
 11 12  1  6
 13 12  1  0
 14 13  1  0
 15 14  1  0
 16 15  1  0
 17 24  1  0
 18 17  2  0
 19 20  1  0
 21 20  1  0
 21 22  1  6
 21 23  1  0
 23 25  1  0
 23 24  1  6
 25 26  2  0
 25 27  1  0
M  END
$$$$
