KKI.pdb
     RDKit          3D

 27 26  0  0  1  0  0  0  0  0999 V2000
    6.0412  -17.5375   19.9604 N   0  0  0  0  0  0  0  0  0  0  0  0
    6.7204  -16.4902   20.6248 C   0  0  1  0  0  0  0  0  0  0  0  0
    6.4015  -15.1135   20.0763 C   0  0  0  0  0  0  0  0  0  0  0  0
    7.5475  -14.4215   19.4330 C   0  0  0  0  0  0  0  0  0  0  0  0
    7.5564  -14.4038   17.9445 C   0  0  0  0  0  0  0  0  0  0  0  0
    8.8002  -13.7673   17.3636 C   0  0  0  0  0  0  0  0  0  0  0  0
    8.8457  -13.9065   15.9199 N   0  0  0  0  0  0  0  0  0  0  0  0
    6.6668  -16.5108   22.1048 C   0  0  0  0  0  0  0  0  0  0  0  0
    5.8227  -15.7389   22.6888 O   0  0  0  0  0  0  0  0  0  0  0  0
    7.4465  -17.2911   22.9618 N   0  0  0  0  0  0  0  0  0  0  0  0
    7.3023  -17.2743   24.4184 C   0  0  1  0  0  0  0  0  0  0  0  0
    7.7421  -18.6396   24.8902 C   0  0  0  0  0  0  0  0  0  0  0  0
    7.7593  -18.8417   26.3617 C   0  0  0  0  0  0  0  0  0  0  0  0
    8.1564  -20.2992   26.6806 C   0  0  0  0  0  0  0  0  0  0  0  0
    8.2276  -20.4530   28.1688 C   0  0  0  0  0  0  0  0  0  0  0  0
    8.6703  -21.8029   28.4651 N   0  0  0  0  0  0  0  0  0  0  0  0
    8.0301  -16.1521   25.0213 C   0  0  0  0  0  0  0  0  0  0  0  0
    9.2514  -16.0060   24.6633 O   0  0  0  0  0  0  0  0  0  0  0  0
    5.7162  -11.5969   27.5989 C   0  0  0  0  0  0  0  0  0  0  0  0
    6.3015  -12.9465   27.2725 C   0  0  0  0  0  0  0  0  0  0  0  0
    7.6321  -12.8578   26.5646 C   0  0  2  0  0  0  0  0  0  0  0  0
    7.4282  -12.3719   25.1422 C   0  0  0  0  0  0  0  0  0  0  0  0
    8.3387  -14.1918   26.4907 C   0  0  2  0  0  0  0  0  0  0  0  0
    7.4945  -15.2291   25.9520 N   0  0  0  0  0  0  0  0  0  0  0  0
    8.8031  -14.5305   27.8623 C   0  0  0  0  0  0  0  0  0  0  0  0
    8.3912  -15.5373   28.4855 O   0  0  0  0  0  0  0  0  0  0  0  0
    9.7277  -13.7285   28.5154 O   0  0  0  0  0  0  0  0  0  0  0  0
  2  1  1  6
  3  2  1  0
  3  4  1  0
  4  5  1  0
  5  6  1  0
  7  6  1  0
  8  9  2  0
  8  2  1  0
 10  8  1  0
 11 17  1  0
 11 10  1  0
 11 12  1  1
 13 12  1  0
 14 13  1  0
 15 14  1  0
 16 15  1  0
 17 24  1  0
 18 17  2  0
 19 20  1  0
 21 20  1  0
 21 22  1  6
 21 23  1  0
 23 25  1  0
 23 24  1  1
 25 26  2  0
 25 27  1  0
M  END
$$$$
