NSH.pdb
     RDKit          3D

 25 25  0  0  1  0  0  0  0  0999 V2000
   14.6679  -17.9786   11.8388 N   0  0  0  0  0  0  0  0  0  0  0  0
   13.4487  -17.9343   12.5629 C   0  0  0  0  0  0  0  0  0  0  0  0
   12.3552  -18.0503   11.9591 O   0  0  0  0  0  0  0  0  0  0  0  0
   13.5098  -17.7480   14.0355 C   0  0  0  0  0  0  0  0  0  0  0  0
   12.7097  -16.5289   14.3480 C   0  0  2  0  0  0  0  0  0  0  0  0
   13.3824  -15.3368   13.8092 N   0  0  0  0  0  0  0  0  0  0  0  0
   12.3062  -16.3454   15.7366 C   0  0  0  0  0  0  0  0  0  0  0  0
   13.2507  -16.1699   16.5889 O   0  0  0  0  0  0  0  0  0  0  0  0
    8.4178  -16.9991   16.9852 O   0  0  0  0  0  0  0  0  0  0  0  0
    9.0764  -15.9446   17.6349 C   0  0  0  0  0  0  0  0  0  0  0  0
   10.6012  -16.1605   17.5243 C   0  0  2  0  0  0  0  0  0  0  0  0
   10.9553  -16.3548   16.1406 N   0  0  0  0  0  0  0  0  0  0  0  0
   10.9047  -17.3082   18.3949 C   0  0  0  0  0  0  0  0  0  0  0  0
   11.0912  -18.4322   17.8671 O   0  0  0  0  0  0  0  0  0  0  0  0
   10.9885  -17.1732   19.8024 N   0  0  0  0  0  0  0  0  0  0  0  0
   11.2312  -18.2801   20.7186 C   0  0  1  0  0  0  0  0  0  0  0  0
   12.0879  -17.7506   21.8361 C   0  0  0  0  0  0  0  0  0  0  0  0
   12.4970  -18.7933   22.8015 C   0  0  0  0  0  0  0  0  0  0  0  0
   12.6551  -20.1335   22.5059 C   0  0  0  0  0  0  0  0  0  0  0  0
   13.0363  -20.7280   23.6486 N   0  0  0  0  0  0  0  0  0  0  0  0
   13.1200  -19.8219   24.6287 C   0  0  0  0  0  0  0  0  0  0  0  0
   12.7910  -18.6244   24.1247 N   0  0  0  0  0  0  0  0  0  0  0  0
    9.9438  -18.7413   21.3153 C   0  0  0  0  0  0  0  0  0  0  0  0
    9.8118  -19.9689   21.9357 O   0  0  0  0  0  0  0  0  0  0  0  0
    8.9580  -17.9649   21.2363 O   0  0  0  0  0  0  0  0  0  0  0  0
  1  2  1  0
  2  4  1  0
  3  2  2  0
  5  4  1  0
  5  7  1  0
  5  6  1  1
  7  8  2  0
 10  9  1  0
 11 10  1  6
 11 13  1  0
 12 11  1  0
 12  7  1  0
 13 15  1  0
 14 13  2  0
 15 16  1  0
 16 23  1  0
 16 17  1  1
 18 17  1  0
 19 18  2  0
 20 19  1  0
 21 20  1  0
 21 22  2  0
 22 18  1  0
 23 25  2  0
 23 24  1  0
M  END
$$$$
