NSH.pdb
     RDKit          3D

 25 25  0  0  1  0  0  0  0  0999 V2000
   17.0247  -14.0203   14.0952 N   0  0  0  0  0  0  0  0  0  0  0  0
   16.5484  -14.7829   15.1926 C   0  0  0  0  0  0  0  0  0  0  0  0
   16.6083  -16.0356   15.1599 O   0  0  0  0  0  0  0  0  0  0  0  0
   15.9849  -14.0600   16.3617 C   0  0  0  0  0  0  0  0  0  0  0  0
   14.6542  -14.6711   16.6442 C   0  0  2  0  0  0  0  0  0  0  0  0
   13.7324  -14.4009   15.5301 N   0  0  0  0  0  0  0  0  0  0  0  0
   14.0514  -14.3659   17.9358 C   0  0  0  0  0  0  0  0  0  0  0  0
   14.6287  -13.4580   18.6369 O   0  0  0  0  0  0  0  0  0  0  0  0
   10.7773  -16.4950   19.3115 O   0  0  0  0  0  0  0  0  0  0  0  0
   10.9328  -15.2039   19.8375 C   0  0  0  0  0  0  0  0  0  0  0  0
   12.4209  -14.8014   19.7493 C   0  0  2  0  0  0  0  0  0  0  0  0
   12.8946  -15.0211   18.4057 N   0  0  0  0  0  0  0  0  0  0  0  0
   13.1110  -15.6021   20.7741 C   0  0  0  0  0  0  0  0  0  0  0  0
   13.6515  -16.6825   20.4316 O   0  0  0  0  0  0  0  0  0  0  0  0
   13.1761  -15.1844   22.1259 N   0  0  0  0  0  0  0  0  0  0  0  0
   13.7263  -15.9916   23.2072 C   0  0  1  0  0  0  0  0  0  0  0  0
   14.8047  -15.1748   23.8654 C   0  0  0  0  0  0  0  0  0  0  0  0
   16.0733  -15.1636   23.1058 C   0  0  0  0  0  0  0  0  0  0  0  0
   16.1926  -14.8745   21.7601 C   0  0  0  0  0  0  0  0  0  0  0  0
   17.5009  -14.9682   21.4701 N   0  0  0  0  0  0  0  0  0  0  0  0
   18.1891  -15.2996   22.5678 C   0  0  0  0  0  0  0  0  0  0  0  0
   17.3256  -15.4241   23.5852 N   0  0  0  0  0  0  0  0  0  0  0  0
   12.6744  -16.2605   24.2305 C   0  0  0  0  0  0  0  0  0  0  0  0
   12.8813  -17.1085   25.3016 O   0  0  0  0  0  0  0  0  0  0  0  0
   11.5673  -15.6814   24.0889 O   0  0  0  0  0  0  0  0  0  0  0  0
  1  2  1  0
  2  4  1  0
  3  2  2  0
  5  4  1  0
  5  7  1  0
  5  6  1  6
  7  8  2  0
 10  9  1  0
 11 10  1  6
 11 13  1  0
 12 11  1  0
 12  7  1  0
 13 15  1  0
 14 13  2  0
 15 16  1  0
 16 23  1  0
 16 17  1  1
 18 17  1  0
 19 18  2  0
 20 19  1  0
 21 20  1  0
 21 22  2  0
 22 18  1  0
 23 25  2  0
 23 24  1  0
M  END
$$$$
