NSH.pdb
     RDKit          3D

 25 25  0  0  1  0  0  0  0  0999 V2000
    7.4451  -14.8349   12.4590 N   0  0  0  0  0  0  0  0  0  0  0  0
    8.5646  -15.1796   13.2595 C   0  0  0  0  0  0  0  0  0  0  0  0
    9.3112  -16.1286   12.9194 O   0  0  0  0  0  0  0  0  0  0  0  0
    8.8178  -14.3924   14.4936 C   0  0  0  0  0  0  0  0  0  0  0  0
    8.7751  -15.3538   15.6328 C   0  0  2  0  0  0  0  0  0  0  0  0
    7.4404  -15.9659   15.7218 N   0  0  0  0  0  0  0  0  0  0  0  0
    9.2359  -14.8625   16.9255 C   0  0  0  0  0  0  0  0  0  0  0  0
   10.4592  -14.4767   16.9884 O   0  0  0  0  0  0  0  0  0  0  0  0
    7.0188  -15.4906   20.3456 O   0  0  0  0  0  0  0  0  0  0  0  0
    7.7634  -14.3018   20.3544 C   0  0  0  0  0  0  0  0  0  0  0  0
    8.9245  -14.4289   19.3446 C   0  0  2  0  0  0  0  0  0  0  0  0
    8.3965  -14.8047   18.0570 N   0  0  0  0  0  0  0  0  0  0  0  0
    9.8541  -15.4098   19.9286 C   0  0  0  0  0  0  0  0  0  0  0  0
    9.8592  -16.5801   19.4737 O   0  0  0  0  0  0  0  0  0  0  0  0
   10.7335  -15.0651   20.9840 N   0  0  0  0  0  0  0  0  0  0  0  0
   11.7465  -15.9585   21.5312 C   0  0  1  0  0  0  0  0  0  0  0  0
   13.0453  -15.1995   21.5462 C   0  0  0  0  0  0  0  0  0  0  0  0
   13.6082  -14.9805   20.1964 C   0  0  0  0  0  0  0  0  0  0  0  0
   13.4207  -13.8462   19.4304 C   0  0  0  0  0  0  0  0  0  0  0  0
   14.0986  -14.0477   18.2882 N   0  0  0  0  0  0  0  0  0  0  0  0
   14.6915  -15.2462   18.3147 C   0  0  0  0  0  0  0  0  0  0  0  0
   14.4000  -15.8348   19.4830 N   0  0  0  0  0  0  0  0  0  0  0  0
   11.4108  -16.3083   22.9423 C   0  0  0  0  0  0  0  0  0  0  0  0
   10.2959  -15.8061   23.5857 O   0  0  0  0  0  0  0  0  0  0  0  0
   12.1885  -17.0909   23.5455 O   0  0  0  0  0  0  0  0  0  0  0  0
  1  2  1  0
  2  4  1  0
  3  2  2  0
  5  4  1  0
  5  7  1  0
  5  6  1  1
  7  8  2  0
 10  9  1  0
 11 10  1  1
 11 13  1  0
 12 11  1  0
 12  7  1  0
 13 15  1  0
 14 13  2  0
 15 16  1  0
 16 23  1  0
 16 17  1  1
 18 17  1  0
 19 18  2  0
 20 19  1  0
 21 20  1  0
 21 22  2  0
 22 18  1  0
 23 25  2  0
 23 24  1  0
M  END
$$$$
