NSH.pdb
     RDKit          3D

 25 25  0  0  1  0  0  0  0  0999 V2000
    9.0697  -13.2445   15.8778 N   0  0  0  0  0  0  0  0  0  0  0  0
    7.9836  -13.7932   16.6072 C   0  0  0  0  0  0  0  0  0  0  0  0
    7.1611  -14.5485   16.0355 O   0  0  0  0  0  0  0  0  0  0  0  0
    7.8551  -13.4482   18.0465 C   0  0  0  0  0  0  0  0  0  0  0  0
    8.2630  -14.6585   18.8165 C   0  0  2  0  0  0  0  0  0  0  0  0
    7.2306  -15.6996   18.6967 N   0  0  0  0  0  0  0  0  0  0  0  0
    8.6687  -14.4510   20.2011 C   0  0  0  0  0  0  0  0  0  0  0  0
    9.7414  -13.7698   20.3875 O   0  0  0  0  0  0  0  0  0  0  0  0
    6.2683  -15.2857   23.5463 O   0  0  0  0  0  0  0  0  0  0  0  0
    7.3283  -14.3671   23.5736 C   0  0  0  0  0  0  0  0  0  0  0  0
    8.4480  -14.8641   22.6337 C   0  0  2  0  0  0  0  0  0  0  0  0
    7.9337  -14.9616   21.2907 N   0  0  0  0  0  0  0  0  0  0  0  0
    8.9062  -16.1426   23.2020 C   0  0  0  0  0  0  0  0  0  0  0  0
    8.8185  -17.1799   22.4998 O   0  0  0  0  0  0  0  0  0  0  0  0
    9.4373  -16.2270   24.5123 N   0  0  0  0  0  0  0  0  0  0  0  0
   10.4786  -17.1632   24.9154 C   0  0  1  0  0  0  0  0  0  0  0  0
   11.7455  -16.7426   24.2215 C   0  0  0  0  0  0  0  0  0  0  0  0
   11.8998  -17.3393   22.8773 C   0  0  0  0  0  0  0  0  0  0  0  0
   10.9529  -18.1161   22.2380 C   0  0  0  0  0  0  0  0  0  0  0  0
   11.4804  -18.4482   21.0481 N   0  0  0  0  0  0  0  0  0  0  0  0
   12.7008  -17.9154   20.9252 C   0  0  0  0  0  0  0  0  0  0  0  0
   12.9756  -17.2290   22.0430 N   0  0  0  0  0  0  0  0  0  0  0  0
   10.7138  -17.0641   26.3854 C   0  0  0  0  0  0  0  0  0  0  0  0
   11.4555  -17.9986   27.0824 O   0  0  0  0  0  0  0  0  0  0  0  0
   10.2065  -16.0842   26.9882 O   0  0  0  0  0  0  0  0  0  0  0  0
  1  2  1  0
  2  4  1  0
  3  2  2  0
  5  4  1  0
  5  7  1  0
  5  6  1  1
  7  8  2  0
 10  9  1  0
 11 10  1  1
 11 13  1  0
 12 11  1  0
 12  7  1  0
 13 15  1  0
 14 13  2  0
 15 16  1  0
 16 23  1  0
 16 17  1  6
 18 17  1  0
 19 18  2  0
 20 19  1  0
 21 20  1  0
 21 22  2  0
 22 18  1  0
 23 25  2  0
 23 24  1  0
M  END
$$$$
