NSH.pdb
     RDKit          3D

 25 25  0  0  1  0  0  0  0  0999 V2000
    8.1238  -19.5749   15.6287 N   0  0  0  0  0  0  0  0  0  0  0  0
    7.5853  -18.8827   16.7439 C   0  0  0  0  0  0  0  0  0  0  0  0
    6.3438  -18.7411   16.8553 O   0  0  0  0  0  0  0  0  0  0  0  0
    8.5256  -18.3398   17.7577 C   0  0  0  0  0  0  0  0  0  0  0  0
    8.2865  -16.8691   17.8215 C   0  0  2  0  0  0  0  0  0  0  0  0
    8.7946  -16.2258   16.6000 N   0  0  0  0  0  0  0  0  0  0  0  0
    8.7353  -16.1816   19.0259 C   0  0  0  0  0  0  0  0  0  0  0  0
    9.9924  -15.9321   19.1080 O   0  0  0  0  0  0  0  0  0  0  0  0
    6.1781  -15.6346   22.2475 O   0  0  0  0  0  0  0  0  0  0  0  0
    7.1851  -14.6681   22.1063 C   0  0  0  0  0  0  0  0  0  0  0  0
    8.3535  -15.2744   21.2993 C   0  0  2  0  0  0  0  0  0  0  0  0
    7.8501  -15.8010   20.0554 N   0  0  0  0  0  0  0  0  0  0  0  0
    8.9654  -16.2821   22.1811 C   0  0  0  0  0  0  0  0  0  0  0  0
    8.8321  -17.4966   21.8916 O   0  0  0  0  0  0  0  0  0  0  0  0
    9.6932  -15.9142   23.3391 N   0  0  0  0  0  0  0  0  0  0  0  0
   10.5943  -16.8057   24.0580 C   0  0  1  0  0  0  0  0  0  0  0  0
   11.9911  -16.4899   23.5969 C   0  0  0  0  0  0  0  0  0  0  0  0
   12.4081  -17.2783   22.4174 C   0  0  0  0  0  0  0  0  0  0  0  0
   11.8797  -18.5009   22.0502 C   0  0  0  0  0  0  0  0  0  0  0  0
   12.5243  -18.8677   20.9301 N   0  0  0  0  0  0  0  0  0  0  0  0
   13.4197  -17.9336   20.5921 C   0  0  0  0  0  0  0  0  0  0  0  0
   13.3619  -16.9471   21.4975 N   0  0  0  0  0  0  0  0  0  0  0  0
   10.5277  -16.5277   25.5223 C   0  0  0  0  0  0  0  0  0  0  0  0
   11.1531  -17.3288   26.4584 O   0  0  0  0  0  0  0  0  0  0  0  0
    9.8709  -15.5210   25.8913 O   0  0  0  0  0  0  0  0  0  0  0  0
  1  2  1  0
  2  4  1  0
  3  2  2  0
  5  4  1  0
  5  7  1  0
  5  6  1  6
  7  8  2  0
 10  9  1  0
 11 10  1  1
 11 13  1  0
 12 11  1  0
 12  7  1  0
 13 15  1  0
 14 13  2  0
 15 16  1  0
 16 23  1  0
 16 17  1  6
 18 17  1  0
 19 18  2  0
 20 19  1  0
 21 20  1  0
 21 22  2  0
 22 18  1  0
 23 25  2  0
 23 24  1  0
M  END
$$$$
