NSH.pdb
     RDKit          3D

 25 25  0  0  1  0  0  0  0  0999 V2000
   14.1971  -14.0455   17.8848 N   0  0  0  0  0  0  0  0  0  0  0  0
   13.8516  -14.3541   19.2257 C   0  0  0  0  0  0  0  0  0  0  0  0
   14.7518  -14.5291   20.0817 O   0  0  0  0  0  0  0  0  0  0  0  0
   12.4119  -14.4620   19.5757 C   0  0  0  0  0  0  0  0  0  0  0  0
   12.2052  -15.8322   20.1268 C   0  0  2  0  0  0  0  0  0  0  0  0
   12.1905  -16.8151   19.0323 N   0  0  0  0  0  0  0  0  0  0  0  0
   11.0798  -16.0126   21.0355 C   0  0  0  0  0  0  0  0  0  0  0  0
   10.4739  -14.9460   21.4154 O   0  0  0  0  0  0  0  0  0  0  0  0
   10.2055  -19.7129   22.6428 O   0  0  0  0  0  0  0  0  0  0  0  0
    9.0931  -18.8843   22.4332 C   0  0  0  0  0  0  0  0  0  0  0  0
    9.5612  -17.4133   22.4027 C   0  0  2  0  0  0  0  0  0  0  0  0
   10.6631  -17.2834   21.4824 N   0  0  0  0  0  0  0  0  0  0  0  0
    9.8915  -17.0718   23.7962 C   0  0  0  0  0  0  0  0  0  0  0  0
   11.1002  -16.9934   24.1271 O   0  0  0  0  0  0  0  0  0  0  0  0
    8.8841  -16.8337   24.7629 N   0  0  0  0  0  0  0  0  0  0  0  0
    9.1484  -16.5151   26.1601 C   0  0  1  0  0  0  0  0  0  0  0  0
    7.9026  -15.8777   26.7125 C   0  0  0  0  0  0  0  0  0  0  0  0
    7.6017  -14.5634   26.1054 C   0  0  0  0  0  0  0  0  0  0  0  0
    8.5190  -13.7555   25.4614 C   0  0  0  0  0  0  0  0  0  0  0  0
    7.8428  -12.6675   25.0569 N   0  0  0  0  0  0  0  0  0  0  0  0
    6.5593  -12.7668   25.4194 C   0  0  0  0  0  0  0  0  0  0  0  0
    6.3928  -13.9286   26.0665 N   0  0  0  0  0  0  0  0  0  0  0  0
    9.3959  -17.7677   26.9319 C   0  0  0  0  0  0  0  0  0  0  0  0
    9.7933  -17.7569   28.2553 O   0  0  0  0  0  0  0  0  0  0  0  0
    9.2300  -18.8600   26.3318 O   0  0  0  0  0  0  0  0  0  0  0  0
  1  2  1  0
  2  4  1  0
  3  2  2  0
  5  4  1  0
  5  7  1  0
  5  6  1  6
  7  8  2  0
 10  9  1  0
 11 10  1  1
 11 13  1  0
 12 11  1  0
 12  7  1  0
 13 15  1  0
 14 13  2  0
 15 16  1  0
 16 23  1  0
 16 17  1  1
 18 17  1  0
 19 18  2  0
 20 19  1  0
 21 20  1  0
 21 22  2  0
 22 18  1  0
 23 25  2  0
 23 24  1  0
M  END
$$$$
