NSH.pdb
     RDKit          3D

 25 25  0  0  1  0  0  0  0  0999 V2000
   11.0075  -20.5083   16.9396 N   0  0  0  0  0  0  0  0  0  0  0  0
   12.0360  -19.7810   16.2869 C   0  0  0  0  0  0  0  0  0  0  0  0
   11.9202  -19.4806   15.0744 O   0  0  0  0  0  0  0  0  0  0  0  0
   13.2348  -19.3945   17.0745 C   0  0  0  0  0  0  0  0  0  0  0  0
   13.1891  -17.9117   17.2270 C   0  0  2  0  0  0  0  0  0  0  0  0
   12.7387  -17.2928   15.9707 N   0  0  0  0  0  0  0  0  0  0  0  0
   14.3864  -17.2675   17.7525 C   0  0  0  0  0  0  0  0  0  0  0  0
   15.4438  -17.9930   17.8209 O   0  0  0  0  0  0  0  0  0  0  0  0
   14.2966  -13.3220   18.5163 O   0  0  0  0  0  0  0  0  0  0  0  0
   15.6040  -13.8124   18.3816 C   0  0  0  0  0  0  0  0  0  0  0  0
   15.6070  -15.3256   18.6886 C   0  0  2  0  0  0  0  0  0  0  0  0
   14.4019  -15.9196   18.1664 N   0  0  0  0  0  0  0  0  0  0  0  0
   15.7531  -15.4348   20.1495 C   0  0  0  0  0  0  0  0  0  0  0  0
   14.7613  -15.1775   20.8752 O   0  0  0  0  0  0  0  0  0  0  0  0
   16.9779  -15.8190   20.7483 N   0  0  0  0  0  0  0  0  0  0  0  0
   17.1876  -15.9295   22.1862 C   0  0  1  0  0  0  0  0  0  0  0  0
   17.5891  -17.3518   22.4673 C   0  0  0  0  0  0  0  0  0  0  0  0
   16.4484  -18.2928   22.4558 C   0  0  0  0  0  0  0  0  0  0  0  0
   15.1330  -17.9459   22.2147 C   0  0  0  0  0  0  0  0  0  0  0  0
   14.4243  -19.0846   22.2896 N   0  0  0  0  0  0  0  0  0  0  0  0
   15.2368  -20.1108   22.5640 C   0  0  0  0  0  0  0  0  0  0  0  0
   16.4877  -19.6413   22.6699 N   0  0  0  0  0  0  0  0  0  0  0  0
   18.3163  -15.0493   22.6072 C   0  0  0  0  0  0  0  0  0  0  0  0
   18.6793  -14.8910   23.9309 O   0  0  0  0  0  0  0  0  0  0  0  0
   18.9435  -14.4399   21.7037 O   0  0  0  0  0  0  0  0  0  0  0  0
  1  2  1  0
  2  4  1  0
  3  2  2  0
  5  4  1  0
  5  7  1  0
  5  6  1  6
  7  8  2  0
 10  9  1  0
 11 10  1  1
 11 13  1  0
 12 11  1  0
 12  7  1  0
 13 15  1  0
 14 13  2  0
 15 16  1  0
 16 23  1  0
 16 17  1  6
 18 17  1  0
 19 18  2  0
 20 19  1  0
 21 20  1  0
 21 22  2  0
 22 18  1  0
 23 25  2  0
 23 24  1  0
M  END
$$$$
