NSH.pdb
     RDKit          3D

 25 25  0  0  1  0  0  0  0  0999 V2000
   13.2122  -17.0481   16.6511 N   0  0  0  0  0  0  0  0  0  0  0  0
   12.9918  -17.3691   18.0153 C   0  0  0  0  0  0  0  0  0  0  0  0
   13.3350  -18.4909   18.4597 O   0  0  0  0  0  0  0  0  0  0  0  0
   12.3508  -16.3493   18.8848 C   0  0  0  0  0  0  0  0  0  0  0  0
   11.1949  -17.0169   19.5498 C   0  0  2  0  0  0  0  0  0  0  0  0
   10.1796  -17.3757   18.5476 N   0  0  0  0  0  0  0  0  0  0  0  0
   10.6102  -16.3317   20.6958 C   0  0  0  0  0  0  0  0  0  0  0  0
   11.3854  -16.1315   21.6999 O   0  0  0  0  0  0  0  0  0  0  0  0
    6.5521  -16.3929   21.5087 O   0  0  0  0  0  0  0  0  0  0  0  0
    7.1727  -15.1506   21.7072 C   0  0  0  0  0  0  0  0  0  0  0  0
    8.6849  -15.3737   21.9255 C   0  0  2  0  0  0  0  0  0  0  0  0
    9.2672  -15.9024   20.7176 N   0  0  0  0  0  0  0  0  0  0  0  0
    8.7910  -16.2665   23.0913 C   0  0  0  0  0  0  0  0  0  0  0  0
    9.5619  -17.2554   23.0246 O   0  0  0  0  0  0  0  0  0  0  0  0
    8.0478  -16.0367   24.2749 N   0  0  0  0  0  0  0  0  0  0  0  0
    8.2904  -16.7184   25.5398 C   0  0  1  0  0  0  0  0  0  0  0  0
    9.6362  -16.2652   26.0365 C   0  0  0  0  0  0  0  0  0  0  0  0
    9.5536  -15.1727   27.0296 C   0  0  0  0  0  0  0  0  0  0  0  0
    8.9749  -13.9379   26.8080 C   0  0  0  0  0  0  0  0  0  0  0  0
    9.1047  -13.2508   27.9550 N   0  0  0  0  0  0  0  0  0  0  0  0
    9.7328  -14.0001   28.8674 C   0  0  0  0  0  0  0  0  0  0  0  0
   10.0169  -15.1875   28.3145 N   0  0  0  0  0  0  0  0  0  0  0  0
    7.2725  -16.3021   26.5482 C   0  0  0  0  0  0  0  0  0  0  0  0
    6.3569  -15.2960   26.3057 O   0  0  0  0  0  0  0  0  0  0  0  0
    7.2700  -16.9051   27.6515 O   0  0  0  0  0  0  0  0  0  0  0  0
  1  2  1  0
  2  4  1  0
  3  2  2  0
  5  4  1  0
  5  7  1  0
  5  6  1  6
  7  8  2  0
 10  9  1  0
 11 10  1  6
 11 13  1  0
 12 11  1  0
 12  7  1  0
 13 15  1  0
 14 13  2  0
 15 16  1  0
 16 23  1  0
 16 17  1  1
 18 17  1  0
 19 18  2  0
 20 19  1  0
 21 20  1  0
 21 22  2  0
 22 18  1  0
 23 25  2  0
 23 24  1  0
M  END
$$$$
