NSH.pdb
     RDKit          3D

 25 25  0  0  1  0  0  0  0  0999 V2000
    8.0245  -19.6618   19.1022 N   0  0  0  0  0  0  0  0  0  0  0  0
    7.5285  -19.6410   17.7731 C   0  0  0  0  0  0  0  0  0  0  0  0
    7.7192  -20.6232   17.0164 O   0  0  0  0  0  0  0  0  0  0  0  0
    6.7891  -18.4365   17.3155 C   0  0  0  0  0  0  0  0  0  0  0  0
    7.7994  -17.3542   17.1367 C   0  0  2  0  0  0  0  0  0  0  0  0
    8.7809  -17.7494   16.1147 N   0  0  0  0  0  0  0  0  0  0  0  0
    8.4431  -16.8497   18.3433 C   0  0  0  0  0  0  0  0  0  0  0  0
    9.6907  -17.1204   18.4826 O   0  0  0  0  0  0  0  0  0  0  0  0
    6.3820  -15.6510   21.7458 O   0  0  0  0  0  0  0  0  0  0  0  0
    7.4349  -14.8096   21.3568 C   0  0  0  0  0  0  0  0  0  0  0  0
    8.4278  -15.6149   20.4909 C   0  0  2  0  0  0  0  0  0  0  0  0
    7.7490  -16.1007   19.3156 N   0  0  0  0  0  0  0  0  0  0  0  0
    8.9534  -16.6735   21.3687 C   0  0  0  0  0  0  0  0  0  0  0  0
    8.7350  -17.8720   21.0646 O   0  0  0  0  0  0  0  0  0  0  0  0
    9.6920  -16.3715   22.5389 N   0  0  0  0  0  0  0  0  0  0  0  0
   10.8417  -17.1375   23.0024 C   0  0  1  0  0  0  0  0  0  0  0  0
   11.9316  -16.9631   21.9802 C   0  0  0  0  0  0  0  0  0  0  0  0
   13.1420  -17.7593   22.2766 C   0  0  0  0  0  0  0  0  0  0  0  0
   13.1623  -18.9382   22.9967 C   0  0  0  0  0  0  0  0  0  0  0  0
   14.4450  -19.3360   23.0301 N   0  0  0  0  0  0  0  0  0  0  0  0
   15.2112  -18.4624   22.3681 C   0  0  0  0  0  0  0  0  0  0  0  0
   14.4251  -17.4845   21.8972 N   0  0  0  0  0  0  0  0  0  0  0  0
   11.3397  -16.5808   24.2940 C   0  0  0  0  0  0  0  0  0  0  0  0
   10.7961  -15.4499   24.8727 O   0  0  0  0  0  0  0  0  0  0  0  0
   12.2906  -17.1820   24.8554 O   0  0  0  0  0  0  0  0  0  0  0  0
  1  2  1  0
  2  4  1  0
  3  2  2  0
  5  4  1  0
  5  7  1  0
  5  6  1  6
  7  8  2  0
 10  9  1  0
 11 10  1  1
 11 13  1  0
 12 11  1  0
 12  7  1  0
 13 15  1  0
 14 13  2  0
 15 16  1  0
 16 23  1  0
 16 17  1  6
 18 17  1  0
 19 18  2  0
 20 19  1  0
 21 20  1  0
 21 22  2  0
 22 18  1  0
 23 25  2  0
 23 24  1  0
M  END
$$$$
