NSH.pdb
     RDKit          3D

 25 25  0  0  1  0  0  0  0  0999 V2000
   16.4557  -18.1641   11.6703 N   0  0  0  0  0  0  0  0  0  0  0  0
   17.3515  -19.1489   12.1608 C   0  0  0  0  0  0  0  0  0  0  0  0
   17.8248  -20.0108   11.3818 O   0  0  0  0  0  0  0  0  0  0  0  0
   17.7034  -19.1256   13.6039 C   0  0  0  0  0  0  0  0  0  0  0  0
   16.8846  -18.0470   14.2285 C   0  0  2  0  0  0  0  0  0  0  0  0
   17.4043  -16.7296   13.8303 N   0  0  0  0  0  0  0  0  0  0  0  0
   16.6689  -18.1349   15.6674 C   0  0  0  0  0  0  0  0  0  0  0  0
   17.3791  -17.3564   16.4014 O   0  0  0  0  0  0  0  0  0  0  0  0
   13.6345  -20.4750   17.3062 O   0  0  0  0  0  0  0  0  0  0  0  0
   14.0483  -19.3133   17.9749 C   0  0  0  0  0  0  0  0  0  0  0  0
   15.5407  -19.0621   17.6685 C   0  0  2  0  0  0  0  0  0  0  0  0
   15.7329  -19.0201   16.2405 N   0  0  0  0  0  0  0  0  0  0  0  0
   16.2737  -20.1432   18.3476 C   0  0  0  0  0  0  0  0  0  0  0  0
   16.2687  -21.2893   17.8347 O   0  0  0  0  0  0  0  0  0  0  0  0
   16.9767  -19.9205   19.5568 N   0  0  0  0  0  0  0  0  0  0  0  0
   17.7438  -20.9417   20.2585 C   0  0  1  0  0  0  0  0  0  0  0  0
   18.5038  -20.2486   21.3565 C   0  0  0  0  0  0  0  0  0  0  0  0
   19.4440  -21.1410   22.0680 C   0  0  0  0  0  0  0  0  0  0  0  0
   19.6991  -22.4572   21.7340 C   0  0  0  0  0  0  0  0  0  0  0  0
   20.6083  -22.8998   22.6183 N   0  0  0  0  0  0  0  0  0  0  0  0
   20.9235  -21.9236   23.4763 C   0  0  0  0  0  0  0  0  0  0  0  0
   20.2155  -20.8328   23.1522 N   0  0  0  0  0  0  0  0  0  0  0  0
   16.8213  -21.9247   20.8978 C   0  0  0  0  0  0  0  0  0  0  0  0
   15.4530  -21.7377   20.9414 O   0  0  0  0  0  0  0  0  0  0  0  0
   17.3343  -22.9526   21.4089 O   0  0  0  0  0  0  0  0  0  0  0  0
  1  2  1  0
  2  4  1  0
  3  2  2  0
  5  4  1  0
  5  7  1  0
  5  6  1  1
  7  8  2  0
 10  9  1  0
 11 10  1  6
 11 13  1  0
 12 11  1  0
 12  7  1  0
 13 15  1  0
 14 13  2  0
 15 16  1  0
 16 23  1  0
 16 17  1  1
 18 17  1  0
 19 18  2  0
 20 19  1  0
 21 20  1  0
 21 22  2  0
 22 18  1  0
 23 25  2  0
 23 24  1  0
M  END
$$$$
