NSH.pdb
     RDKit          3D

 25 25  0  0  1  0  0  0  0  0999 V2000
    8.3713  -12.6396   16.0620 N   0  0  0  0  0  0  0  0  0  0  0  0
    7.8187  -13.7223   16.7937 C   0  0  0  0  0  0  0  0  0  0  0  0
    7.4880  -14.7771   16.2005 O   0  0  0  0  0  0  0  0  0  0  0  0
    7.6472  -13.5669   18.2611 C   0  0  0  0  0  0  0  0  0  0  0  0
    8.4382  -14.6555   18.9039 C   0  0  2  0  0  0  0  0  0  0  0  0
    7.6711  -15.9106   18.8837 N   0  0  0  0  0  0  0  0  0  0  0  0
    8.9900  -14.3759   20.2237 C   0  0  0  0  0  0  0  0  0  0  0  0
   10.1154  -13.7581   20.2547 O   0  0  0  0  0  0  0  0  0  0  0  0
    6.9918  -15.5372   23.6420 O   0  0  0  0  0  0  0  0  0  0  0  0
    7.9454  -14.5216   23.8068 C   0  0  0  0  0  0  0  0  0  0  0  0
    9.0021  -14.6382   22.6871 C   0  0  2  0  0  0  0  0  0  0  0  0
    8.3358  -14.7544   21.4141 N   0  0  0  0  0  0  0  0  0  0  0  0
    9.8340  -15.7991   23.0444 C   0  0  0  0  0  0  0  0  0  0  0  0
    9.4771  -16.9386   22.6559 O   0  0  0  0  0  0  0  0  0  0  0  0
   11.0165  -15.6595   23.8114 N   0  0  0  0  0  0  0  0  0  0  0  0
   11.8900  -16.7666   24.1789 C   0  0  1  0  0  0  0  0  0  0  0  0
   13.3059  -16.2734   24.0559 C   0  0  0  0  0  0  0  0  0  0  0  0
   13.6933  -15.9538   22.6650 C   0  0  0  0  0  0  0  0  0  0  0  0
   13.3797  -16.7163   21.5564 C   0  0  0  0  0  0  0  0  0  0  0  0
   13.9089  -16.0781   20.4994 N   0  0  0  0  0  0  0  0  0  0  0  0
   14.5301  -14.9645   20.9027 C   0  0  0  0  0  0  0  0  0  0  0  0
   14.4074  -14.8721   22.2341 N   0  0  0  0  0  0  0  0  0  0  0  0
   11.6647  -17.1437   25.6048 C   0  0  0  0  0  0  0  0  0  0  0  0
   12.3495  -18.1767   26.2156 O   0  0  0  0  0  0  0  0  0  0  0  0
   10.8142  -16.4810   26.2516 O   0  0  0  0  0  0  0  0  0  0  0  0
  1  2  1  0
  2  4  1  0
  3  2  2  0
  5  4  1  0
  5  7  1  0
  5  6  1  1
  7  8  2  0
 10  9  1  0
 11 10  1  1
 11 13  1  0
 12 11  1  0
 12  7  1  0
 13 15  1  0
 14 13  2  0
 15 16  1  0
 16 23  1  0
 16 17  1  1
 18 17  1  0
 19 18  2  0
 20 19  1  0
 21 20  1  0
 21 22  2  0
 22 18  1  0
 23 25  2  0
 23 24  1  0
M  END
$$$$
