NSH.pdb
     RDKit          3D

 25 25  0  0  1  0  0  0  0  0999 V2000
    6.8023  -16.1897   15.4649 N   0  0  0  0  0  0  0  0  0  0  0  0
    7.8949  -15.5599   14.8148 C   0  0  0  0  0  0  0  0  0  0  0  0
    8.0703  -15.7213   13.5832 O   0  0  0  0  0  0  0  0  0  0  0  0
    8.8091  -14.7180   15.6285 C   0  0  0  0  0  0  0  0  0  0  0  0
    8.0200  -14.2323   16.7971 C   0  0  2  0  0  0  0  0  0  0  0  0
    7.2709  -13.0215   16.4270 N   0  0  0  0  0  0  0  0  0  0  0  0
    8.7407  -14.0639   18.0529 C   0  0  0  0  0  0  0  0  0  0  0  0
    9.9793  -13.7369   17.9629 O   0  0  0  0  0  0  0  0  0  0  0  0
    7.1782  -15.3939   21.6085 O   0  0  0  0  0  0  0  0  0  0  0  0
    7.9359  -14.2203   21.7371 C   0  0  0  0  0  0  0  0  0  0  0  0
    8.8858  -14.1005   20.5257 C   0  0  2  0  0  0  0  0  0  0  0  0
    8.1261  -14.2441   19.3091 N   0  0  0  0  0  0  0  0  0  0  0  0
    9.9152  -15.1342   20.7234 C   0  0  0  0  0  0  0  0  0  0  0  0
    9.8170  -16.2119   20.0866 O   0  0  0  0  0  0  0  0  0  0  0  0
   11.0030  -14.9414   21.6098 N   0  0  0  0  0  0  0  0  0  0  0  0
   12.0480  -15.9280   21.8511 C   0  0  1  0  0  0  0  0  0  0  0  0
   13.3676  -15.2314   21.6602 C   0  0  0  0  0  0  0  0  0  0  0  0
   13.7130  -15.0160   20.2386 C   0  0  0  0  0  0  0  0  0  0  0  0
   13.1577  -15.6973   19.1727 C   0  0  0  0  0  0  0  0  0  0  0  0
   13.7361  -15.2006   18.0667 N   0  0  0  0  0  0  0  0  0  0  0  0
   14.6167  -14.2506   18.3995 C   0  0  0  0  0  0  0  0  0  0  0  0
   14.6156  -14.1237   19.7337 N   0  0  0  0  0  0  0  0  0  0  0  0
   11.9869  -16.4018   23.2646 C   0  0  0  0  0  0  0  0  0  0  0  0
   12.8118  -17.3991   23.7486 O   0  0  0  0  0  0  0  0  0  0  0  0
   11.1443  -15.8568   24.0221 O   0  0  0  0  0  0  0  0  0  0  0  0
  1  2  1  0
  2  4  1  0
  3  2  2  0
  5  4  1  0
  5  7  1  0
  5  6  1  6
  7  8  2  0
 10  9  1  0
 11 10  1  1
 11 13  1  0
 12 11  1  0
 12  7  1  0
 13 15  1  0
 14 13  2  0
 15 16  1  0
 16 23  1  0
 16 17  1  1
 18 17  1  0
 19 18  2  0
 20 19  1  0
 21 20  1  0
 21 22  2  0
 22 18  1  0
 23 25  2  0
 23 24  1  0
M  END
$$$$
