NSH.pdb
     RDKit          3D

 25 25  0  0  1  0  0  0  0  0999 V2000
    7.3832  -14.1380   14.8849 N   0  0  0  0  0  0  0  0  0  0  0  0
    8.0479  -13.8668   16.1086 C   0  0  0  0  0  0  0  0  0  0  0  0
    9.1331  -13.2373   16.1076 O   0  0  0  0  0  0  0  0  0  0  0  0
    7.4262  -14.3461   17.3698 C   0  0  0  0  0  0  0  0  0  0  0  0
    8.5427  -14.7365   18.2780 C   0  0  2  0  0  0  0  0  0  0  0  0
    9.5535  -15.4994   17.5295 N   0  0  0  0  0  0  0  0  0  0  0  0
    8.1760  -15.3962   19.5250 C   0  0  0  0  0  0  0  0  0  0  0  0
    6.9984  -15.1538   19.9763 O   0  0  0  0  0  0  0  0  0  0  0  0
   10.4344  -18.4718   21.0452 O   0  0  0  0  0  0  0  0  0  0  0  0
    9.0671  -18.4113   21.3532 C   0  0  0  0  0  0  0  0  0  0  0  0
    8.6312  -16.9314   21.4153 C   0  0  2  0  0  0  0  0  0  0  0  0
    9.0539  -16.2598   20.2119 N   0  0  0  0  0  0  0  0  0  0  0  0
    9.2248  -16.3933   22.6504 C   0  0  0  0  0  0  0  0  0  0  0  0
   10.3215  -15.7863   22.5772 O   0  0  0  0  0  0  0  0  0  0  0  0
    8.5916  -16.5456   23.9082 N   0  0  0  0  0  0  0  0  0  0  0  0
    9.1372  -16.0503   25.1654 C   0  0  1  0  0  0  0  0  0  0  0  0
    7.9713  -15.6441   26.0249 C   0  0  0  0  0  0  0  0  0  0  0  0
    7.4057  -14.3284   25.6564 C   0  0  0  0  0  0  0  0  0  0  0  0
    7.9505  -13.4589   24.7314 C   0  0  0  0  0  0  0  0  0  0  0  0
    7.1337  -12.3932   24.6907 N   0  0  0  0  0  0  0  0  0  0  0  0
    6.1170  -12.5646   25.5425 C   0  0  0  0  0  0  0  0  0  0  0  0
    6.2685  -13.7515   26.1462 N   0  0  0  0  0  0  0  0  0  0  0  0
    9.8621  -17.1448   25.8744 C   0  0  0  0  0  0  0  0  0  0  0  0
   10.5704  -16.9306   27.0413 O   0  0  0  0  0  0  0  0  0  0  0  0
    9.8108  -18.2952   25.3696 O   0  0  0  0  0  0  0  0  0  0  0  0
  1  2  1  0
  2  4  1  0
  3  2  2  0
  5  4  1  0
  5  7  1  0
  5  6  1  6
  7  8  2  0
 10  9  1  0
 11 10  1  6
 11 13  1  0
 12 11  1  0
 12  7  1  0
 13 15  1  0
 14 13  2  0
 15 16  1  0
 16 23  1  0
 16 17  1  1
 18 17  1  0
 19 18  2  0
 20 19  1  0
 21 20  1  0
 21 22  2  0
 22 18  1  0
 23 25  2  0
 23 24  1  0
M  END
$$$$
