NSH.pdb
     RDKit          3D

 25 25  0  0  1  0  0  0  0  0999 V2000
    9.0602  -15.5708   12.4269 N   0  0  0  0  0  0  0  0  0  0  0  0
    8.1382  -14.9058   13.2758 C   0  0  0  0  0  0  0  0  0  0  0  0
    7.2003  -14.2354   12.7813 O   0  0  0  0  0  0  0  0  0  0  0  0
    8.3189  -15.0273   14.7453 C   0  0  0  0  0  0  0  0  0  0  0  0
    9.4529  -15.9712   14.9623 C   0  0  2  0  0  0  0  0  0  0  0  0
    9.4358  -17.0199   13.9308 N   0  0  0  0  0  0  0  0  0  0  0  0
    9.5984  -16.5274   16.3017 C   0  0  0  0  0  0  0  0  0  0  0  0
    8.6031  -16.3709   17.0980 O   0  0  0  0  0  0  0  0  0  0  0  0
   13.1876  -18.0376   17.5111 O   0  0  0  0  0  0  0  0  0  0  0  0
   12.1003  -18.6512   18.1509 C   0  0  0  0  0  0  0  0  0  0  0  0
   10.8729  -17.7187   18.0606 C   0  0  2  0  0  0  0  0  0  0  0  0
   10.7621  -17.2064   16.7178 N   0  0  0  0  0  0  0  0  0  0  0  0
   11.0816  -16.6857   19.0885 C   0  0  0  0  0  0  0  0  0  0  0  0
   11.8172  -15.7051   18.8167 O   0  0  0  0  0  0  0  0  0  0  0  0
   10.4771  -16.7745   20.3664 N   0  0  0  0  0  0  0  0  0  0  0  0
   10.5761  -15.7447   21.3928 C   0  0  1  0  0  0  0  0  0  0  0  0
    9.1769  -15.2774   21.6879 C   0  0  0  0  0  0  0  0  0  0  0  0
    8.6201  -14.4019   20.6343 C   0  0  0  0  0  0  0  0  0  0  0  0
    9.3013  -13.9784   19.5093 C   0  0  0  0  0  0  0  0  0  0  0  0
    8.4426  -13.2124   18.8162 N   0  0  0  0  0  0  0  0  0  0  0  0
    7.2712  -13.1446   19.4577 C   0  0  0  0  0  0  0  0  0  0  0  0
    7.3625  -13.8715   20.5800 N   0  0  0  0  0  0  0  0  0  0  0  0
   11.1329  -16.3268   22.6486 C   0  0  0  0  0  0  0  0  0  0  0  0
   11.5381  -15.5440   23.7127 O   0  0  0  0  0  0  0  0  0  0  0  0
   11.2264  -17.5789   22.7147 O   0  0  0  0  0  0  0  0  0  0  0  0
  1  2  1  0
  2  4  1  0
  3  2  2  0
  5  4  1  0
  5  7  1  0
  5  6  1  6
  7  8  2  0
 10  9  1  0
 11 10  1  6
 11 13  1  0
 12 11  1  0
 12  7  1  0
 13 15  1  0
 14 13  2  0
 15 16  1  0
 16 23  1  0
 16 17  1  1
 18 17  1  0
 19 18  2  0
 20 19  1  0
 21 20  1  0
 21 22  2  0
 22 18  1  0
 23 25  2  0
 23 24  1  0
M  END
$$$$
