DPR.pdb
     RDKit          3D

 27 27  0  0  1  0  0  0  0  0999 V2000
   28.0585  -20.4435  -14.7692 N   0  0  0  0  0  0  0  0  0  0  0  0
   27.1003  -20.4255  -15.8251 C   0  0  1  0  0  0  0  0  0  0  0  0
   27.0783  -21.7855  -16.4938 C   0  0  0  0  0  0  0  0  0  0  0  0
   28.4056  -22.2779  -16.8632 C   0  0  0  0  0  0  0  0  0  0  0  0
   29.0848  -21.6797  -17.7125 O   0  0  0  0  0  0  0  0  0  0  0  0
   25.7584  -19.9549  -15.4765 C   0  0  0  0  0  0  0  0  0  0  0  0
   25.1953  -20.4704  -14.4871 O   0  0  0  0  0  0  0  0  0  0  0  0
   28.9598  -23.4149  -16.2939 O   0  0  0  0  0  0  0  0  0  0  0  0
   25.0522  -18.9364  -16.2073 N   0  0  0  0  0  0  0  0  0  0  0  0
   25.6697  -18.2074  -17.2662 C   0  0  0  0  0  0  0  0  0  0  0  0
   24.6444  -17.2002  -17.7114 C   0  0  0  0  0  0  0  0  0  0  0  0
   23.3286  -17.7501  -17.2591 C   0  0  0  0  0  0  0  0  0  0  0  0
   23.7181  -18.4830  -16.0042 C   0  0  1  0  0  0  0  0  0  0  0  0
   22.7195  -19.5796  -15.8167 C   0  0  0  0  0  0  0  0  0  0  0  0
   23.0104  -20.7123  -16.2522 O   0  0  0  0  0  0  0  0  0  0  0  0
   21.7233  -26.3447  -13.5883 N   0  0  0  0  0  0  0  0  0  0  0  0
   20.6535  -25.8863  -12.7916 C   0  0  0  0  0  0  0  0  0  0  0  0
   19.8141  -26.7400  -12.2666 N   0  0  0  0  0  0  0  0  0  0  0  0
   20.4593  -24.5013  -12.5409 N   0  0  0  0  0  0  0  0  0  0  0  0
   21.3047  -23.5011  -13.1593 C   0  0  0  0  0  0  0  0  0  0  0  0
   20.8383  -22.1503  -12.7309 C   0  0  0  0  0  0  0  0  0  0  0  0
   21.4833  -21.0093  -13.4466 C   0  0  0  0  0  0  0  0  0  0  0  0
   20.6879  -20.4588  -14.5931 C   0  0  2  0  0  0  0  0  0  0  0  0
   21.4847  -19.3956  -15.1807 N   0  0  0  0  0  0  0  0  0  0  0  0
   19.3861  -19.8845  -14.1854 C   0  0  0  0  0  0  0  0  0  0  0  0
   19.4217  -18.7266  -13.6530 O   0  0  0  0  0  0  0  0  0  0  0  0
   18.1683  -20.5301  -14.3519 O   0  0  0  0  0  0  0  0  0  0  0  0
  2  1  1  1
  2  3  1  0
  3  4  1  0
  4  8  1  0
  5  4  2  0
  6  2  1  0
  7  6  2  0
  9 13  1  0
  9  6  1  0
 10  9  1  0
 11 10  1  0
 11 12  1  0
 12 13  1  0
 14 15  2  0
 13 14  1  6
 16 17  1  0
 17 18  2  0
 19 17  1  0
 19 20  1  0
 21 20  1  0
 21 22  1  0
 23 22  1  1
 23 24  1  0
 23 25  1  0
 24 14  1  0
 25 27  1  0
 26 25  2  0
M  END
$$$$
