DPR.pdb
     RDKit          3D

 27 27  0  0  1  0  0  0  0  0999 V2000
   29.0704  -23.2309  -16.9972 N   0  0  0  0  0  0  0  0  0  0  0  0
   28.3860  -22.0347  -17.3632 C   0  0  1  0  0  0  0  0  0  0  0  0
   27.7725  -22.2186  -18.7369 C   0  0  0  0  0  0  0  0  0  0  0  0
   28.7543  -22.5052  -19.7831 C   0  0  0  0  0  0  0  0  0  0  0  0
   28.6268  -23.5035  -20.5094 O   0  0  0  0  0  0  0  0  0  0  0  0
   27.4252  -21.5123  -16.3898 C   0  0  0  0  0  0  0  0  0  0  0  0
   26.6091  -22.3125  -15.8845 O   0  0  0  0  0  0  0  0  0  0  0  0
   29.8544  -21.6917  -20.0108 O   0  0  0  0  0  0  0  0  0  0  0  0
   27.3661  -20.1332  -15.9841 N   0  0  0  0  0  0  0  0  0  0  0  0
   28.3544  -19.1882  -16.3895 C   0  0  0  0  0  0  0  0  0  0  0  0
   27.9844  -17.9011  -15.7038 C   0  0  0  0  0  0  0  0  0  0  0  0
   26.5300  -18.0312  -15.3785 C   0  0  0  0  0  0  0  0  0  0  0  0
   26.3999  -19.5115  -15.1434 C   0  0  1  0  0  0  0  0  0  0  0  0
   24.9853  -19.8767  -15.4605 C   0  0  0  0  0  0  0  0  0  0  0  0
   24.6367  -19.8676  -16.6587 O   0  0  0  0  0  0  0  0  0  0  0  0
   18.1958  -22.5549  -11.7653 N   0  0  0  0  0  0  0  0  0  0  0  0
   18.1432  -23.5026  -12.8086 C   0  0  0  0  0  0  0  0  0  0  0  0
   16.9945  -24.0004  -13.1850 N   0  0  0  0  0  0  0  0  0  0  0  0
   19.3220  -23.9386  -13.4711 N   0  0  0  0  0  0  0  0  0  0  0  0
   20.6241  -23.4219  -13.1034 C   0  0  0  0  0  0  0  0  0  0  0  0
   20.9403  -22.2563  -13.9793 C   0  0  0  0  0  0  0  0  0  0  0  0
   22.3203  -21.7087  -13.8186 C   0  0  0  0  0  0  0  0  0  0  0  0
   22.6629  -20.5884  -14.7555 C   0  0  2  0  0  0  0  0  0  0  0  0
   24.0431  -20.2253  -14.4840 N   0  0  0  0  0  0  0  0  0  0  0  0
   21.8255  -19.3831  -14.5643 C   0  0  0  0  0  0  0  0  0  0  0  0
   22.1492  -18.6183  -13.5970 O   0  0  0  0  0  0  0  0  0  0  0  0
   20.7388  -19.0595  -15.3657 O   0  0  0  0  0  0  0  0  0  0  0  0
  2  1  1  1
  2  3  1  0
  3  4  1  0
  4  8  1  0
  5  4  2  0
  6  2  1  0
  7  6  2  0
  9 13  1  0
  9  6  1  0
 10  9  1  0
 11 10  1  0
 11 12  1  0
 12 13  1  0
 14 15  2  0
 13 14  1  6
 16 17  1  0
 17 18  2  0
 19 17  1  0
 19 20  1  0
 21 20  1  0
 21 22  1  0
 23 22  1  1
 23 24  1  0
 23 25  1  0
 24 14  1  0
 25 27  1  0
 26 25  2  0
M  END
$$$$
