DPR.pdb
     RDKit          3D

 27 27  0  0  1  0  0  0  0  0999 V2000
   28.3655  -22.9431  -16.5937 N   0  0  0  0  0  0  0  0  0  0  0  0
   27.6875  -21.7255  -16.8954 C   0  0  1  0  0  0  0  0  0  0  0  0
   27.0366  -21.8486  -18.2587 C   0  0  0  0  0  0  0  0  0  0  0  0
   27.9803  -22.1620  -19.3320 C   0  0  0  0  0  0  0  0  0  0  0  0
   27.7459  -23.0865  -20.1261 O   0  0  0  0  0  0  0  0  0  0  0  0
   26.7587  -21.2298  -15.8778 C   0  0  0  0  0  0  0  0  0  0  0  0
   26.0153  -22.0583  -15.3098 O   0  0  0  0  0  0  0  0  0  0  0  0
   29.1603  -21.4554  -19.5118 O   0  0  0  0  0  0  0  0  0  0  0  0
   26.6523  -19.8466  -15.4968 N   0  0  0  0  0  0  0  0  0  0  0  0
   27.5840  -18.8681  -15.9536 C   0  0  0  0  0  0  0  0  0  0  0  0
   27.1805  -17.5844  -15.2804 C   0  0  0  0  0  0  0  0  0  0  0  0
   25.7448  -17.7708  -14.9034 C   0  0  0  0  0  0  0  0  0  0  0  0
   25.6881  -19.2503  -14.6358 C   0  0  1  0  0  0  0  0  0  0  0  0
   24.2813  -19.6830  -14.8975 C   0  0  0  0  0  0  0  0  0  0  0  0
   23.9160  -19.7867  -16.0862 O   0  0  0  0  0  0  0  0  0  0  0  0
   18.9748  -25.5150  -13.2784 N   0  0  0  0  0  0  0  0  0  0  0  0
   18.7633  -24.7569  -12.1080 C   0  0  0  0  0  0  0  0  0  0  0  0
   18.2459  -25.3189  -11.0472 N   0  0  0  0  0  0  0  0  0  0  0  0
   19.1012  -23.3781  -12.0496 N   0  0  0  0  0  0  0  0  0  0  0  0
   19.8130  -22.7334  -13.1337 C   0  0  0  0  0  0  0  0  0  0  0  0
   20.0479  -21.3060  -12.7688 C   0  0  0  0  0  0  0  0  0  0  0  0
   21.4815  -20.8878  -12.7684 C   0  0  0  0  0  0  0  0  0  0  0  0
   21.9979  -20.4192  -14.0966 C   0  0  2  0  0  0  0  0  0  0  0  0
   23.3638  -19.9748  -13.8795 N   0  0  0  0  0  0  0  0  0  0  0  0
   21.2310  -19.2859  -14.6606 C   0  0  0  0  0  0  0  0  0  0  0  0
   21.4934  -18.1333  -14.1830 O   0  0  0  0  0  0  0  0  0  0  0  0
   20.2702  -19.4185  -15.6540 O   0  0  0  0  0  0  0  0  0  0  0  0
  2  1  1  1
  2  3  1  0
  3  4  1  0
  4  8  1  0
  5  4  2  0
  6  2  1  0
  7  6  2  0
  9 13  1  0
  9  6  1  0
 10  9  1  0
 11 10  1  0
 11 12  1  0
 12 13  1  0
 14 15  2  0
 13 14  1  6
 16 17  1  0
 17 18  2  0
 19 17  1  0
 19 20  1  0
 21 20  1  0
 21 22  1  0
 23 22  1  1
 23 24  1  0
 23 25  1  0
 24 14  1  0
 25 27  1  0
 26 25  2  0
M  END
$$$$
