DPR.pdb
     RDKit          3D

 27 27  0  0  1  0  0  0  0  0999 V2000
   19.8354  -14.9807  -17.6389 N   0  0  0  0  0  0  0  0  0  0  0  0
   19.1449  -13.7605  -17.3789 C   0  0  1  0  0  0  0  0  0  0  0  0
   18.3920  -13.8896  -16.0697 C   0  0  0  0  0  0  0  0  0  0  0  0
   17.5550  -15.0871  -15.9913 C   0  0  0  0  0  0  0  0  0  0  0  0
   16.8766  -15.4457  -16.9668 O   0  0  0  0  0  0  0  0  0  0  0  0
   19.9443  -12.5355  -17.4428 C   0  0  0  0  0  0  0  0  0  0  0  0
   21.1006  -12.5651  -16.9700 O   0  0  0  0  0  0  0  0  0  0  0  0
   17.4797  -15.8656  -14.8458 O   0  0  0  0  0  0  0  0  0  0  0  0
   19.4748  -11.3022  -18.0161 N   0  0  0  0  0  0  0  0  0  0  0  0
   18.2426  -11.2273  -18.7303 C   0  0  0  0  0  0  0  0  0  0  0  0
   18.1530   -9.8105  -19.2287 C   0  0  0  0  0  0  0  0  0  0  0  0
   19.0573   -9.0203  -18.3366 C   0  0  0  0  0  0  0  0  0  0  0  0
   20.1189  -10.0326  -18.0024 C   0  0  1  0  0  0  0  0  0  0  0  0
   20.6823   -9.6451  -16.6730 C   0  0  0  0  0  0  0  0  0  0  0  0
   20.0877  -10.0431  -15.6506 O   0  0  0  0  0  0  0  0  0  0  0  0
   28.6076  -10.7444  -16.8087 N   0  0  0  0  0  0  0  0  0  0  0  0
   27.6305  -11.7316  -16.5637 C   0  0  0  0  0  0  0  0  0  0  0  0
   27.9404  -12.9983  -16.6561 N   0  0  0  0  0  0  0  0  0  0  0  0
   26.2982  -11.3823  -16.2150 N   0  0  0  0  0  0  0  0  0  0  0  0
   25.9332  -10.0107  -15.9263 C   0  0  0  0  0  0  0  0  0  0  0  0
   24.4620   -9.9482  -15.6868 C   0  0  0  0  0  0  0  0  0  0  0  0
   23.9249   -8.5758  -15.4456 C   0  0  0  0  0  0  0  0  0  0  0  0
   22.4390   -8.5098  -15.2509 C   0  0  2  0  0  0  0  0  0  0  0  0
   21.8357   -8.8637  -16.5242 N   0  0  0  0  0  0  0  0  0  0  0  0
   21.9534   -7.1641  -14.8717 C   0  0  0  0  0  0  0  0  0  0  0  0
   21.6387   -6.3861  -15.8314 O   0  0  0  0  0  0  0  0  0  0  0  0
   21.8296   -6.7262  -13.5599 O   0  0  0  0  0  0  0  0  0  0  0  0
  2  1  1  1
  2  3  1  0
  3  4  1  0
  4  8  1  0
  5  4  2  0
  6  2  1  0
  7  6  2  0
  9 13  1  0
  9  6  1  0
 10  9  1  0
 11 10  1  0
 11 12  1  0
 12 13  1  0
 14 15  2  0
 13 14  1  1
 16 17  1  0
 17 18  2  0
 19 17  1  0
 19 20  1  0
 21 20  1  0
 21 22  1  0
 23 22  1  6
 23 24  1  0
 23 25  1  0
 24 14  1  0
 25 27  1  0
 26 25  2  0
M  END
$$$$
