DPR.pdb
     RDKit          3D

 27 27  0  0  1  0  0  0  0  0999 V2000
   28.7765  -23.1709  -17.0380 N   0  0  0  0  0  0  0  0  0  0  0  0
   28.0762  -21.9313  -17.1163 C   0  0  1  0  0  0  0  0  0  0  0  0
   27.2846  -21.8932  -18.4084 C   0  0  0  0  0  0  0  0  0  0  0  0
   28.1171  -21.9861  -19.6080 C   0  0  0  0  0  0  0  0  0  0  0  0
   29.0350  -21.1734  -19.8015 O   0  0  0  0  0  0  0  0  0  0  0  0
   27.2621  -21.5705  -15.9541 C   0  0  0  0  0  0  0  0  0  0  0  0
   26.6401  -22.4826  -15.3686 O   0  0  0  0  0  0  0  0  0  0  0  0
   27.9259  -22.9675  -20.5694 O   0  0  0  0  0  0  0  0  0  0  0  0
   27.1366  -20.2288  -15.4499 N   0  0  0  0  0  0  0  0  0  0  0  0
   27.9587  -19.1666  -15.9294 C   0  0  0  0  0  0  0  0  0  0  0  0
   27.5785  -17.9634  -15.1098 C   0  0  0  0  0  0  0  0  0  0  0  0
   26.2093  -18.2600  -14.5849 C   0  0  0  0  0  0  0  0  0  0  0  0
   26.2559  -19.7564  -14.4361 C   0  0  1  0  0  0  0  0  0  0  0  0
   24.8500  -20.2476  -14.5673 C   0  0  0  0  0  0  0  0  0  0  0  0
   24.4198  -20.4806  -15.7152 O   0  0  0  0  0  0  0  0  0  0  0  0
   19.0890  -23.4358   -8.3944 N   0  0  0  0  0  0  0  0  0  0  0  0
   18.5269  -23.5957   -9.6781 C   0  0  0  0  0  0  0  0  0  0  0  0
   17.3605  -24.1696   -9.8164 N   0  0  0  0  0  0  0  0  0  0  0  0
   19.2040  -23.1446  -10.8428 N   0  0  0  0  0  0  0  0  0  0  0  0
   20.4968  -22.4974  -10.7558 C   0  0  0  0  0  0  0  0  0  0  0  0
   20.8833  -22.0177  -12.1146 C   0  0  0  0  0  0  0  0  0  0  0  0
   22.2624  -21.4529  -12.2101 C   0  0  0  0  0  0  0  0  0  0  0  0
   22.6271  -20.9156  -13.5624 C   0  0  2  0  0  0  0  0  0  0  0  0
   24.0023  -20.4564  -13.4714 N   0  0  0  0  0  0  0  0  0  0  0  0
   21.7891  -19.7724  -13.9881 C   0  0  0  0  0  0  0  0  0  0  0  0
   22.1831  -18.6164  -13.6225 O   0  0  0  0  0  0  0  0  0  0  0  0
   20.6309  -19.8995  -14.7433 O   0  0  0  0  0  0  0  0  0  0  0  0
  2  1  1  1
  2  3  1  0
  3  4  1  0
  4  8  1  0
  5  4  2  0
  6  2  1  0
  7  6  2  0
  9 13  1  0
  9  6  1  0
 10  9  1  0
 11 10  1  0
 11 12  1  0
 12 13  1  0
 14 15  2  0
 13 14  1  6
 16 17  1  0
 17 18  2  0
 19 17  1  0
 19 20  1  0
 21 20  1  0
 21 22  1  0
 23 22  1  1
 23 24  1  0
 23 25  1  0
 24 14  1  0
 25 27  1  0
 26 25  2  0
M  END
$$$$
