DPR.pdb
     RDKit          3D

 27 27  0  0  1  0  0  0  0  0999 V2000
   28.2974  -20.2862  -17.3720 N   0  0  0  0  0  0  0  0  0  0  0  0
   27.3953  -19.1964  -17.5501 C   0  0  1  0  0  0  0  0  0  0  0  0
   26.6977  -19.3477  -18.8872 C   0  0  0  0  0  0  0  0  0  0  0  0
   27.3952  -18.6856  -19.9899 C   0  0  0  0  0  0  0  0  0  0  0  0
   28.5352  -18.2231  -19.8260 O   0  0  0  0  0  0  0  0  0  0  0  0
   26.4545  -18.9465  -16.4565 C   0  0  0  0  0  0  0  0  0  0  0  0
   25.9308  -19.9336  -15.8970 O   0  0  0  0  0  0  0  0  0  0  0  0
   26.8285  -18.5449  -21.2480 O   0  0  0  0  0  0  0  0  0  0  0  0
   26.0981  -17.6324  -15.9915 N   0  0  0  0  0  0  0  0  0  0  0  0
   26.7670  -16.4632  -16.4600 C   0  0  0  0  0  0  0  0  0  0  0  0
   26.1659  -15.3202  -15.6879 C   0  0  0  0  0  0  0  0  0  0  0  0
   24.8361  -15.8181  -15.2171 C   0  0  0  0  0  0  0  0  0  0  0  0
   25.1075  -17.2860  -15.0296 C   0  0  1  0  0  0  0  0  0  0  0  0
   23.8029  -17.9932  -15.2108 C   0  0  0  0  0  0  0  0  0  0  0  0
   23.4084  -18.1966  -16.3771 O   0  0  0  0  0  0  0  0  0  0  0  0
   19.0222  -23.4555   -9.8499 N   0  0  0  0  0  0  0  0  0  0  0  0
   18.5064  -23.3394  -11.1575 C   0  0  0  0  0  0  0  0  0  0  0  0
   17.7304  -24.2734  -11.6417 N   0  0  0  0  0  0  0  0  0  0  0  0
   18.8124  -22.2190  -11.9758 N   0  0  0  0  0  0  0  0  0  0  0  0
   20.1248  -21.6069  -11.9497 C   0  0  0  0  0  0  0  0  0  0  0  0
   20.1119  -20.4110  -12.8417 C   0  0  0  0  0  0  0  0  0  0  0  0
   21.4067  -19.6704  -12.9143 C   0  0  0  0  0  0  0  0  0  0  0  0
   21.7622  -19.1625  -14.2802 C   0  0  2  0  0  0  0  0  0  0  0  0
   23.0113  -18.4337  -14.1419 N   0  0  0  0  0  0  0  0  0  0  0  0
   20.7533  -18.2398  -14.8470 C   0  0  0  0  0  0  0  0  0  0  0  0
   20.6956  -17.0774  -14.3266 O   0  0  0  0  0  0  0  0  0  0  0  0
   19.8953  -18.5735  -15.8863 O   0  0  0  0  0  0  0  0  0  0  0  0
  2  1  1  1
  2  3  1  0
  3  4  1  0
  4  8  1  0
  5  4  2  0
  6  2  1  0
  7  6  2  0
  9 13  1  0
  9  6  1  0
 10  9  1  0
 11 10  1  0
 11 12  1  0
 12 13  1  0
 14 15  2  0
 13 14  1  6
 16 17  1  0
 17 18  2  0
 19 17  1  0
 19 20  1  0
 21 20  1  0
 21 22  1  0
 23 22  1  1
 23 24  1  0
 23 25  1  0
 24 14  1  0
 25 27  1  0
 26 25  2  0
M  END
$$$$
