DPR.pdb
     RDKit          3D

 27 27  0  0  1  0  0  0  0  0999 V2000
   27.4620  -20.3625  -18.3787 N   0  0  0  0  0  0  0  0  0  0  0  0
   27.2957  -19.5919  -17.1904 C   0  0  1  0  0  0  0  0  0  0  0  0
   26.4405  -18.3805  -17.5043 C   0  0  0  0  0  0  0  0  0  0  0  0
   27.1925  -17.2672  -18.0838 C   0  0  0  0  0  0  0  0  0  0  0  0
   28.4280  -17.3275  -18.1852 O   0  0  0  0  0  0  0  0  0  0  0  0
   26.8239  -20.3151  -16.0080 C   0  0  0  0  0  0  0  0  0  0  0  0
   25.7296  -20.9137  -16.0852 O   0  0  0  0  0  0  0  0  0  0  0  0
   26.5743  -16.1122  -18.5396 O   0  0  0  0  0  0  0  0  0  0  0  0
   27.5457  -20.3743  -14.7649 N   0  0  0  0  0  0  0  0  0  0  0  0
   28.8914  -19.9150  -14.6554 C   0  0  0  0  0  0  0  0  0  0  0  0
   29.3050  -20.2173  -13.2407 C   0  0  0  0  0  0  0  0  0  0  0  0
   28.0266  -20.3388  -12.4732 C   0  0  0  0  0  0  0  0  0  0  0  0
   27.0939  -20.8899  -13.5171 C   0  0  1  0  0  0  0  0  0  0  0  0
   25.7149  -20.4553  -13.1371 C   0  0  0  0  0  0  0  0  0  0  0  0
   25.4116  -19.2583  -13.3175 O   0  0  0  0  0  0  0  0  0  0  0  0
   18.8162  -22.2995   -9.9960 N   0  0  0  0  0  0  0  0  0  0  0  0
   18.1536  -22.5558  -11.2144 C   0  0  0  0  0  0  0  0  0  0  0  0
   16.9912  -23.1539  -11.2156 N   0  0  0  0  0  0  0  0  0  0  0  0
   18.7237  -22.1772  -12.4595 N   0  0  0  0  0  0  0  0  0  0  0  0
   20.0556  -22.6041  -12.8358 C   0  0  0  0  0  0  0  0  0  0  0  0
   21.0444  -21.6457  -12.2618 C   0  0  0  0  0  0  0  0  0  0  0  0
   22.4514  -21.8490  -12.7195 C   0  0  0  0  0  0  0  0  0  0  0  0
   23.4509  -20.9134  -12.1065 C   0  0  2  0  0  0  0  0  0  0  0  0
   24.7573  -21.3217  -12.5936 N   0  0  0  0  0  0  0  0  0  0  0  0
   23.4764  -20.9644  -10.6276 C   0  0  0  0  0  0  0  0  0  0  0  0
   24.2050  -21.8715  -10.1063 O   0  0  0  0  0  0  0  0  0  0  0  0
   22.7651  -20.0965   -9.8099 O   0  0  0  0  0  0  0  0  0  0  0  0
  2  1  1  6
  2  3  1  0
  3  4  1  0
  4  8  1  0
  5  4  2  0
  6  2  1  0
  7  6  2  0
  9 13  1  0
  9  6  1  0
 10  9  1  0
 11 10  1  0
 11 12  1  0
 12 13  1  0
 14 15  2  0
 13 14  1  1
 16 17  1  0
 17 18  2  0
 19 17  1  0
 19 20  1  0
 21 20  1  0
 21 22  1  0
 23 22  1  6
 23 24  1  0
 23 25  1  0
 24 14  1  0
 25 27  1  0
 26 25  2  0
M  END
$$$$
