DPR.pdb
     RDKit          3D

 27 27  0  0  1  0  0  0  0  0999 V2000
   28.0331  -20.5529  -17.2313 N   0  0  0  0  0  0  0  0  0  0  0  0
   28.4128  -19.9476  -15.9973 C   0  0  1  0  0  0  0  0  0  0  0  0
   27.9843  -18.4937  -16.0092 C   0  0  0  0  0  0  0  0  0  0  0  0
   28.6124  -17.7069  -17.0709 C   0  0  0  0  0  0  0  0  0  0  0  0
   29.8188  -17.8454  -17.3272 O   0  0  0  0  0  0  0  0  0  0  0  0
   27.9945  -20.6412  -14.7777 C   0  0  0  0  0  0  0  0  0  0  0  0
   26.8305  -21.0936  -14.7308 O   0  0  0  0  0  0  0  0  0  0  0  0
   27.9048  -16.7854  -17.8286 O   0  0  0  0  0  0  0  0  0  0  0  0
   28.8445  -20.8298  -13.6323 N   0  0  0  0  0  0  0  0  0  0  0  0
   30.2615  -20.6923  -13.7181 C   0  0  0  0  0  0  0  0  0  0  0  0
   30.7822  -21.0407  -12.3501 C   0  0  0  0  0  0  0  0  0  0  0  0
   29.6244  -20.8398  -11.4242 C   0  0  0  0  0  0  0  0  0  0  0  0
   28.4597  -21.1898  -12.3098 C   0  0  1  0  0  0  0  0  0  0  0  0
   27.2786  -20.4361  -11.7882 C   0  0  0  0  0  0  0  0  0  0  0  0
   27.1485  -19.2448  -12.1363 O   0  0  0  0  0  0  0  0  0  0  0  0
   20.6780  -19.3336  -14.9209 N   0  0  0  0  0  0  0  0  0  0  0  0
   19.9847  -19.6106  -13.7243 C   0  0  0  0  0  0  0  0  0  0  0  0
   18.8256  -19.0519  -13.4936 N   0  0  0  0  0  0  0  0  0  0  0  0
   20.5197  -20.4927  -12.7474 N   0  0  0  0  0  0  0  0  0  0  0  0
   21.8489  -21.0505  -12.8878 C   0  0  0  0  0  0  0  0  0  0  0  0
   22.7208  -20.4825  -11.8186 C   0  0  0  0  0  0  0  0  0  0  0  0
   24.1440  -20.9322  -11.8670 C   0  0  0  0  0  0  0  0  0  0  0  0
   24.9875  -20.4668  -10.7171 C   0  0  2  0  0  0  0  0  0  0  0  0
   26.3209  -21.0005  -10.9354 N   0  0  0  0  0  0  0  0  0  0  0  0
   24.5098  -20.9499   -9.4022 C   0  0  0  0  0  0  0  0  0  0  0  0
   24.8553  -22.1328   -9.0756 O   0  0  0  0  0  0  0  0  0  0  0  0
   23.7277  -20.1962   -8.5372 O   0  0  0  0  0  0  0  0  0  0  0  0
  2  1  1  6
  2  3  1  0
  3  4  1  0
  4  8  1  0
  5  4  2  0
  6  2  1  0
  7  6  2  0
  9 13  1  0
  9  6  1  0
 10  9  1  0
 11 10  1  0
 11 12  1  0
 12 13  1  0
 14 15  2  0
 13 14  1  1
 16 17  1  0
 17 18  2  0
 19 17  1  0
 19 20  1  0
 21 20  1  0
 21 22  1  0
 23 22  1  6
 23 24  1  0
 23 25  1  0
 24 14  1  0
 25 27  1  0
 26 25  2  0
M  END
$$$$
