DPR.pdb
     RDKit          3D

 27 27  0  0  1  0  0  0  0  0999 V2000
   18.8505  -11.3593  -15.4711 N   0  0  0  0  0  0  0  0  0  0  0  0
   18.8297   -9.9359  -15.3875 C   0  0  1  0  0  0  0  0  0  0  0  0
   17.6470   -9.4131  -16.1783 C   0  0  0  0  0  0  0  0  0  0  0  0
   17.6694   -9.7992  -17.5893 C   0  0  0  0  0  0  0  0  0  0  0  0
   18.4713   -9.2689  -18.3742 O   0  0  0  0  0  0  0  0  0  0  0  0
   18.8964   -9.3633  -14.0416 C   0  0  0  0  0  0  0  0  0  0  0  0
   18.0358   -9.7213  -13.2092 O   0  0  0  0  0  0  0  0  0  0  0  0
   16.8127  -10.7581  -18.1096 O   0  0  0  0  0  0  0  0  0  0  0  0
   19.8927   -8.4130  -13.6244 N   0  0  0  0  0  0  0  0  0  0  0  0
   21.0129   -8.0900  -14.4460 C   0  0  0  0  0  0  0  0  0  0  0  0
   21.8452   -7.1359  -13.6330 C   0  0  0  0  0  0  0  0  0  0  0  0
   20.9060   -6.5533  -12.6247 C   0  0  0  0  0  0  0  0  0  0  0  0
   19.9549   -7.6964  -12.3959 C   0  0  1  0  0  0  0  0  0  0  0  0
   18.6536   -7.0967  -11.9691 C   0  0  0  0  0  0  0  0  0  0  0  0
   17.9499   -6.5510  -12.8433 O   0  0  0  0  0  0  0  0  0  0  0  0
   11.8026  -10.4031   -7.9817 N   0  0  0  0  0  0  0  0  0  0  0  0
   11.5919   -9.0085   -7.9835 C   0  0  0  0  0  0  0  0  0  0  0  0
   10.4502   -8.5172   -7.5786 N   0  0  0  0  0  0  0  0  0  0  0  0
   12.6011   -8.1092   -8.4210 N   0  0  0  0  0  0  0  0  0  0  0  0
   13.8737   -8.5925   -8.9157 C   0  0  0  0  0  0  0  0  0  0  0  0
   14.7237   -7.4197   -9.2734 C   0  0  0  0  0  0  0  0  0  0  0  0
   16.0941   -7.7642   -9.7568 C   0  0  0  0  0  0  0  0  0  0  0  0
   16.9141   -6.5905  -10.2042 C   0  0  2  0  0  0  0  0  0  0  0  0
   18.1928   -7.1196  -10.6462 N   0  0  0  0  0  0  0  0  0  0  0  0
   17.1718   -5.6072   -9.1284 C   0  0  0  0  0  0  0  0  0  0  0  0
   18.2139   -5.8044   -8.4209 O   0  0  0  0  0  0  0  0  0  0  0  0
   16.3555   -4.5155   -8.8646 O   0  0  0  0  0  0  0  0  0  0  0  0
  2  1  1  1
  2  3  1  0
  3  4  1  0
  4  8  1  0
  5  4  2  0
  6  2  1  0
  7  6  2  0
  9 13  1  0
  9  6  1  0
 10  9  1  0
 11 10  1  0
 11 12  1  0
 12 13  1  0
 14 15  2  0
 13 14  1  6
 16 17  1  0
 17 18  2  0
 19 17  1  0
 19 20  1  0
 21 20  1  0
 21 22  1  0
 23 22  1  1
 23 24  1  0
 23 25  1  0
 24 14  1  0
 25 27  1  0
 26 25  2  0
M  END
$$$$
