DPR.pdb
     RDKit          3D

 27 27  0  0  1  0  0  0  0  0999 V2000
   17.3549  -26.9850   -1.3863 N   0  0  0  0  0  0  0  0  0  0  0  0
   16.3439  -26.3879   -0.5771 C   0  0  1  0  0  0  0  0  0  0  0  0
   16.4168  -26.9774    0.8173 C   0  0  0  0  0  0  0  0  0  0  0  0
   16.1459  -28.4146    0.8604 C   0  0  0  0  0  0  0  0  0  0  0  0
   15.5125  -28.9633   -0.0551 O   0  0  0  0  0  0  0  0  0  0  0  0
   16.3046  -24.9244   -0.5615 C   0  0  0  0  0  0  0  0  0  0  0  0
   17.3498  -24.3135   -0.2517 O   0  0  0  0  0  0  0  0  0  0  0  0
   16.5751  -29.2193    1.9055 O   0  0  0  0  0  0  0  0  0  0  0  0
   15.1336  -24.1515   -0.8799 N   0  0  0  0  0  0  0  0  0  0  0  0
   13.9529  -24.7577   -1.4020 C   0  0  0  0  0  0  0  0  0  0  0  0
   13.0040  -23.6216   -1.6718 C   0  0  0  0  0  0  0  0  0  0  0  0
   13.4770  -22.4980   -0.8047 C   0  0  0  0  0  0  0  0  0  0  0  0
   14.9610  -22.7428   -0.7686 C   0  0  1  0  0  0  0  0  0  0  0  0
   15.4634  -22.1628    0.5145 C   0  0  0  0  0  0  0  0  0  0  0  0
   15.5546  -22.9227    1.5002 O   0  0  0  0  0  0  0  0  0  0  0  0
   18.9560  -14.0218    2.4560 N   0  0  0  0  0  0  0  0  0  0  0  0
   18.3926  -14.5868    3.6190 C   0  0  0  0  0  0  0  0  0  0  0  0
   18.2953  -13.8766    4.7122 N   0  0  0  0  0  0  0  0  0  0  0  0
   17.9217  -15.9272    3.6359 N   0  0  0  0  0  0  0  0  0  0  0  0
   17.6707  -16.6499    2.4061 C   0  0  0  0  0  0  0  0  0  0  0  0
   17.1282  -17.9974    2.7462 C   0  0  0  0  0  0  0  0  0  0  0  0
   16.7780  -18.8466    1.5687 C   0  0  0  0  0  0  0  0  0  0  0  0
   16.2206  -20.1960    1.9129 C   0  0  2  0  0  0  0  0  0  0  0  0
   15.8330  -20.8191    0.6592 N   0  0  0  0  0  0  0  0  0  0  0  0
   15.0252  -20.1353    2.7836 C   0  0  0  0  0  0  0  0  0  0  0  0
   15.2412  -20.1372    4.0401 O   0  0  0  0  0  0  0  0  0  0  0  0
   13.7221  -20.0785    2.3078 O   0  0  0  0  0  0  0  0  0  0  0  0
  2  1  1  6
  2  3  1  0
  3  4  1  0
  4  8  1  0
  5  4  2  0
  6  2  1  0
  7  6  2  0
  9 13  1  0
  9  6  1  0
 10  9  1  0
 11 10  1  0
 11 12  1  0
 12 13  1  0
 14 15  2  0
 13 14  1  1
 16 17  1  0
 17 18  2  0
 19 17  1  0
 19 20  1  0
 21 20  1  0
 21 22  1  0
 23 22  1  6
 23 24  1  0
 23 25  1  0
 24 14  1  0
 25 27  1  0
 26 25  2  0
M  END
$$$$
