DPR.pdb
     RDKit          3D

 27 27  0  0  1  0  0  0  0  0999 V2000
   14.9148  -18.7156    3.6943 N   0  0  0  0  0  0  0  0  0  0  0  0
   16.0144  -19.4007    4.2899 C   0  0  1  0  0  0  0  0  0  0  0  0
   17.1782  -19.4027    3.3188 C   0  0  0  0  0  0  0  0  0  0  0  0
   16.8323  -19.9120    1.9915 C   0  0  0  0  0  0  0  0  0  0  0  0
   17.3258  -19.4018    0.9735 O   0  0  0  0  0  0  0  0  0  0  0  0
   16.4075  -18.9576    5.6289 C   0  0  0  0  0  0  0  0  0  0  0  0
   16.3241  -17.7385    5.8907 O   0  0  0  0  0  0  0  0  0  0  0  0
   15.9533  -20.9693    1.8087 O   0  0  0  0  0  0  0  0  0  0  0  0
   16.8848  -19.8433    6.6573 N   0  0  0  0  0  0  0  0  0  0  0  0
   16.6741  -21.2524    6.5920 C   0  0  0  0  0  0  0  0  0  0  0  0
   17.2433  -21.8032    7.8712 C   0  0  0  0  0  0  0  0  0  0  0  0
   18.2136  -20.7694    8.3487 C   0  0  0  0  0  0  0  0  0  0  0  0
   17.5769  -19.4996    7.8530 C   0  0  1  0  0  0  0  0  0  0  0  0
   18.6805  -18.5098    7.6598 C   0  0  0  0  0  0  0  0  0  0  0  0
   19.1839  -18.4143    6.5220 O   0  0  0  0  0  0  0  0  0  0  0  0
   20.5050  -11.1754    5.8565 N   0  0  0  0  0  0  0  0  0  0  0  0
   21.4716  -11.2568    6.8804 C   0  0  0  0  0  0  0  0  0  0  0  0
   22.4058  -10.3471    6.9741 N   0  0  0  0  0  0  0  0  0  0  0  0
   21.4586  -12.3166    7.8265 N   0  0  0  0  0  0  0  0  0  0  0  0
   20.4284  -13.3344    7.7990 C   0  0  0  0  0  0  0  0  0  0  0  0
   20.6419  -14.2613    8.9483 C   0  0  0  0  0  0  0  0  0  0  0  0
   19.6826  -15.4038    9.0175 C   0  0  0  0  0  0  0  0  0  0  0  0
   20.2317  -16.7131    8.5334 C   0  0  2  0  0  0  0  0  0  0  0  0
   19.1700  -17.6928    8.6874 N   0  0  0  0  0  0  0  0  0  0  0  0
   21.4041  -17.1823    9.3053 C   0  0  0  0  0  0  0  0  0  0  0  0
   21.1643  -17.9940   10.2588 O   0  0  0  0  0  0  0  0  0  0  0  0
   22.7104  -16.7902    9.0453 O   0  0  0  0  0  0  0  0  0  0  0  0
  2  1  1  6
  2  3  1  0
  3  4  1  0
  4  8  1  0
  5  4  2  0
  6  2  1  0
  7  6  2  0
  9 13  1  0
  9  6  1  0
 10  9  1  0
 11 10  1  0
 11 12  1  0
 12 13  1  0
 14 15  2  0
 13 14  1  6
 16 17  1  0
 17 18  2  0
 19 17  1  0
 19 20  1  0
 21 20  1  0
 21 22  1  0
 23 22  1  1
 23 24  1  0
 23 25  1  0
 24 14  1  0
 25 27  1  0
 26 25  2  0
M  END
$$$$
