DPR.pdb
     RDKit          3D

 27 27  0  0  1  0  0  0  0  0999 V2000
   27.5626  -20.1773  -17.2682 N   0  0  0  0  0  0  0  0  0  0  0  0
   27.9462  -19.5487  -16.0471 C   0  0  1  0  0  0  0  0  0  0  0  0
   27.5304  -18.0918  -16.0910 C   0  0  0  0  0  0  0  0  0  0  0  0
   28.2114  -17.3196  -17.1306 C   0  0  0  0  0  0  0  0  0  0  0  0
   27.5707  -16.5518  -17.8657 O   0  0  0  0  0  0  0  0  0  0  0  0
   27.5203  -20.2121  -14.8133 C   0  0  0  0  0  0  0  0  0  0  0  0
   26.3119  -20.5071  -14.6937 O   0  0  0  0  0  0  0  0  0  0  0  0
   29.5796  -17.4056  -17.3421 O   0  0  0  0  0  0  0  0  0  0  0  0
   28.4114  -20.5415  -13.7328 N   0  0  0  0  0  0  0  0  0  0  0  0
   29.8262  -20.4159  -13.8615 C   0  0  0  0  0  0  0  0  0  0  0  0
   30.3940  -20.9244  -12.5642 C   0  0  0  0  0  0  0  0  0  0  0  0
   29.2780  -20.8126  -11.5742 C   0  0  0  0  0  0  0  0  0  0  0  0
   28.0725  -21.0430  -12.4443 C   0  0  1  0  0  0  0  0  0  0  0  0
   26.9278  -20.3360  -11.7925 C   0  0  0  0  0  0  0  0  0  0  0  0
   26.9259  -19.0883  -11.8147 O   0  0  0  0  0  0  0  0  0  0  0  0
   19.4804  -22.2687  -13.5665 N   0  0  0  0  0  0  0  0  0  0  0  0
   19.7801  -21.7879  -12.2749 C   0  0  0  0  0  0  0  0  0  0  0  0
   18.8789  -21.8423  -11.3295 N   0  0  0  0  0  0  0  0  0  0  0  0
   21.0532  -21.2367  -11.9685 N   0  0  0  0  0  0  0  0  0  0  0  0
   22.1029  -21.1737  -12.9644 C   0  0  0  0  0  0  0  0  0  0  0  0
   23.2964  -20.5139  -12.3593 C   0  0  0  0  0  0  0  0  0  0  0  0
   23.5189  -20.8249  -10.9158 C   0  0  0  0  0  0  0  0  0  0  0  0
   24.8364  -20.3590  -10.3703 C   0  0  2  0  0  0  0  0  0  0  0  0
   25.8678  -21.0035  -11.1648 N   0  0  0  0  0  0  0  0  0  0  0  0
   25.0514  -20.7282   -8.9532 C   0  0  0  0  0  0  0  0  0  0  0  0
   24.3441  -20.1062   -8.0940 O   0  0  0  0  0  0  0  0  0  0  0  0
   25.9596  -21.6904   -8.5324 O   0  0  0  0  0  0  0  0  0  0  0  0
  2  1  1  6
  2  3  1  0
  3  4  1  0
  4  8  1  0
  5  4  2  0
  6  2  1  0
  7  6  2  0
  9 13  1  0
  9  6  1  0
 10  9  1  0
 11 10  1  0
 11 12  1  0
 12 13  1  0
 14 15  2  0
 13 14  1  1
 16 17  1  0
 17 18  2  0
 19 17  1  0
 19 20  1  0
 21 20  1  0
 21 22  1  0
 23 22  1  6
 23 24  1  0
 23 25  1  0
 24 14  1  0
 25 27  1  0
 26 25  2  0
M  END
$$$$
