DPR.pdb
     RDKit          3D

 27 27  0  0  1  0  0  0  0  0999 V2000
   24.9443  -21.8406  -11.2654 N   0  0  0  0  0  0  0  0  0  0  0  0
   25.4427  -21.6943  -12.5933 C   0  0  1  0  0  0  0  0  0  0  0  0
   24.7095  -22.6590  -13.5039 C   0  0  0  0  0  0  0  0  0  0  0  0
   24.6971  -24.0361  -13.0096 C   0  0  0  0  0  0  0  0  0  0  0  0
   25.7199  -24.5368  -12.5162 O   0  0  0  0  0  0  0  0  0  0  0  0
   25.4693  -20.3326  -13.1308 C   0  0  0  0  0  0  0  0  0  0  0  0
   24.4510  -19.6238  -12.9816 O   0  0  0  0  0  0  0  0  0  0  0  0
   23.5642  -24.8344  -13.0666 O   0  0  0  0  0  0  0  0  0  0  0  0
   26.5976  -19.7662  -13.8207 N   0  0  0  0  0  0  0  0  0  0  0  0
   27.9027  -20.3317  -13.7165 C   0  0  0  0  0  0  0  0  0  0  0  0
   28.8003  -19.4184  -14.5064 C   0  0  0  0  0  0  0  0  0  0  0  0
   27.8936  -18.6926  -15.4493 C   0  0  0  0  0  0  0  0  0  0  0  0
   26.6230  -18.6079  -14.6481 C   0  0  1  0  0  0  0  0  0  0  0  0
   25.4978  -18.5304  -15.6294 C   0  0  0  0  0  0  0  0  0  0  0  0
   25.0554  -19.6012  -16.0931 O   0  0  0  0  0  0  0  0  0  0  0  0
   18.5702  -13.0662  -16.0270 N   0  0  0  0  0  0  0  0  0  0  0  0
   18.5085  -13.8986  -17.1639 C   0  0  0  0  0  0  0  0  0  0  0  0
   17.4839  -13.8291  -17.9727 N   0  0  0  0  0  0  0  0  0  0  0  0
   19.5443  -14.8255  -17.4582 N   0  0  0  0  0  0  0  0  0  0  0  0
   20.6219  -15.0689  -16.5216 C   0  0  0  0  0  0  0  0  0  0  0  0
   21.6049  -15.9955  -17.1547 C   0  0  0  0  0  0  0  0  0  0  0  0
   22.7949  -16.3168  -16.3116 C   0  0  0  0  0  0  0  0  0  0  0  0
   23.8043  -17.2118  -16.9676 C   0  0  2  0  0  0  0  0  0  0  0  0
   24.9231  -17.3230  -16.0475 N   0  0  0  0  0  0  0  0  0  0  0  0
   24.3168  -16.6813  -18.2507 C   0  0  0  0  0  0  0  0  0  0  0  0
   25.3431  -15.9282  -18.1808 O   0  0  0  0  0  0  0  0  0  0  0  0
   23.7477  -16.9587  -19.4864 O   0  0  0  0  0  0  0  0  0  0  0  0
  2  1  1  1
  2  3  1  0
  3  4  1  0
  4  8  1  0
  5  4  2  0
  6  2  1  0
  7  6  2  0
  9 13  1  0
  9  6  1  0
 10  9  1  0
 11 10  1  0
 11 12  1  0
 12 13  1  0
 14 15  2  0
 13 14  1  6
 16 17  1  0
 17 18  2  0
 19 17  1  0
 19 20  1  0
 21 20  1  0
 21 22  1  0
 23 22  1  1
 23 24  1  0
 23 25  1  0
 24 14  1  0
 25 27  1  0
 26 25  2  0
M  END
$$$$
