DPR.pdb
     RDKit          3D

 27 27  0  0  1  0  0  0  0  0999 V2000
   28.1651  -19.8783  -17.4109 N   0  0  0  0  0  0  0  0  0  0  0  0
   28.5532  -19.4568  -16.1051 C   0  0  1  0  0  0  0  0  0  0  0  0
   28.3610  -17.9575  -15.9938 C   0  0  0  0  0  0  0  0  0  0  0  0
   26.9618  -17.5385  -16.0802 C   0  0  0  0  0  0  0  0  0  0  0  0
   26.3671  -17.1197  -15.0746 O   0  0  0  0  0  0  0  0  0  0  0  0
   27.9512  -20.1801  -14.9834 C   0  0  0  0  0  0  0  0  0  0  0  0
   26.7456  -20.4974  -15.0703 O   0  0  0  0  0  0  0  0  0  0  0  0
   26.2449  -17.5875  -17.2666 O   0  0  0  0  0  0  0  0  0  0  0  0
   28.6663  -20.5437  -13.7891 N   0  0  0  0  0  0  0  0  0  0  0  0
   30.0847  -20.4255  -13.6978 C   0  0  0  0  0  0  0  0  0  0  0  0
   30.4467  -20.9714  -12.3433 C   0  0  0  0  0  0  0  0  0  0  0  0
   29.1935  -20.8767  -11.5318 C   0  0  0  0  0  0  0  0  0  0  0  0
   28.1336  -21.0756  -12.5808 C   0  0  1  0  0  0  0  0  0  0  0  0
   26.9055  -20.3770  -12.0922 C   0  0  0  0  0  0  0  0  0  0  0  0
   26.8260  -19.1449  -12.2734 O   0  0  0  0  0  0  0  0  0  0  0  0
   19.6021  -21.3573   -9.6679 N   0  0  0  0  0  0  0  0  0  0  0  0
   19.1544  -20.3980  -10.5999 C   0  0  0  0  0  0  0  0  0  0  0  0
   18.1010  -19.6698  -10.3367 N   0  0  0  0  0  0  0  0  0  0  0  0
   19.8259  -20.1988  -11.8359 N   0  0  0  0  0  0  0  0  0  0  0  0
   21.0237  -20.9425  -12.1675 C   0  0  0  0  0  0  0  0  0  0  0  0
   22.1663  -20.3784  -11.3915 C   0  0  0  0  0  0  0  0  0  0  0  0
   23.5053  -20.9266  -11.7613 C   0  0  0  0  0  0  0  0  0  0  0  0
   24.6479  -20.3886  -10.9518 C   0  0  2  0  0  0  0  0  0  0  0  0
   25.8506  -21.0357  -11.4469 N   0  0  0  0  0  0  0  0  0  0  0  0
   24.5334  -20.6789   -9.5050 C   0  0  0  0  0  0  0  0  0  0  0  0
   25.0976  -21.7469   -9.0969 O   0  0  0  0  0  0  0  0  0  0  0  0
   23.8608  -19.8660   -8.6024 O   0  0  0  0  0  0  0  0  0  0  0  0
  2  1  1  6
  2  3  1  0
  3  4  1  0
  4  8  1  0
  5  4  2  0
  6  2  1  0
  7  6  2  0
  9 13  1  0
  9  6  1  0
 10  9  1  0
 11 10  1  0
 11 12  1  0
 12 13  1  0
 14 15  2  0
 13 14  1  1
 16 17  1  0
 17 18  2  0
 19 17  1  0
 19 20  1  0
 21 20  1  0
 21 22  1  0
 23 22  1  6
 23 24  1  0
 23 25  1  0
 24 14  1  0
 25 27  1  0
 26 25  2  0
M  END
$$$$
