FPV.pdb
     RDKit          3D

 26 27  0  0  1  0  0  0  0  0999 V2000
    5.0726  -17.9989   23.8674 N   0  0  0  0  0  0  0  0  0  0  0  0
    5.8554  -16.9113   24.3346 C   0  0  1  0  0  0  0  0  0  0  0  0
    5.6484  -16.7514   25.8277 C   0  0  0  0  0  0  0  0  0  0  0  0
    6.1320  -15.4116   26.2482 C   0  0  0  0  0  0  0  0  0  0  0  0
    7.3489  -15.1944   26.8540 C   0  0  0  0  0  0  0  0  0  0  0  0
    7.7781  -13.9254   27.2421 C   0  0  0  0  0  0  0  0  0  0  0  0
    6.9901  -12.8373   27.0294 C   0  0  0  0  0  0  0  0  0  0  0  0
    5.7577  -13.0180   26.4215 C   0  0  0  0  0  0  0  0  0  0  0  0
    5.3399  -14.2765   26.0405 C   0  0  0  0  0  0  0  0  0  0  0  0
    7.2625  -16.8839   23.9483 C   0  0  0  0  0  0  0  0  0  0  0  0
    7.8035  -18.0406   23.7942 O   0  0  0  0  0  0  0  0  0  0  0  0
    8.0888  -15.7626   23.7274 N   0  0  0  0  0  0  0  0  0  0  0  0
    7.8525  -14.3441   23.8838 C   0  0  0  0  0  0  0  0  0  0  0  0
    8.4421  -13.8020   22.5741 C   0  0  0  0  0  0  0  0  0  0  0  0
    9.5042  -14.8026   22.1859 C   0  0  0  0  0  0  0  0  0  0  0  0
    9.4592  -15.8543   23.2621 C   0  0  1  0  0  0  0  0  0  0  0  0
   10.4508  -15.4809   24.3163 C   0  0  0  0  0  0  0  0  0  0  0  0
   11.2055  -14.4717   24.2260 O   0  0  0  0  0  0  0  0  0  0  0  0
   10.1822  -13.4007   26.1837 C   0  0  0  0  0  0  0  0  0  0  0  0
   10.2761  -14.5078   27.1990 C   0  0  2  0  0  0  0  0  0  0  0  0
   10.7698  -13.9304   28.4891 C   0  0  0  0  0  0  0  0  0  0  0  0
   11.1111  -15.6657   26.7165 C   0  0  2  0  0  0  0  0  0  0  0  0
   10.6073  -16.2475   25.4989 N   0  0  0  0  0  0  0  0  0  0  0  0
   11.1671  -16.6773   27.8190 C   0  0  0  0  0  0  0  0  0  0  0  0
   12.1759  -16.6654   28.7672 O   0  0  0  0  0  0  0  0  0  0  0  0
   10.2956  -17.5820   27.9276 O   0  0  0  0  0  0  0  0  0  0  0  0
  2 10  1  0
  2  1  1  1
  3  2  1  0
  4  3  1  0
  5  4  2  0
  6  5  1  0
  7  6  2  0
  7  8  1  0
  8  9  2  0
  9  4  1  0
 10 12  1  0
 11 10  2  0
 12 13  1  0
 12 16  1  0
 13 14  1  0
 14 15  1  0
 16 15  1  0
 17 18  2  0
 16 17  1  1
 20 19  1  6
 20 22  1  0
 21 20  1  0
 22 23  1  6
 23 17  1  0
 24 22  1  0
 25 24  1  0
 26 24  2  0
M  END
$$$$
