FPV.pdb
     RDKit          3D

 26 27  0  0  1  0  0  0  0  0999 V2000
    5.2512  -17.6543   25.2166 N   0  0  0  0  0  0  0  0  0  0  0  0
    6.1729  -16.5802   25.1139 C   0  0  1  0  0  0  0  0  0  0  0  0
    6.6439  -16.1913   26.5013 C   0  0  0  0  0  0  0  0  0  0  0  0
    6.6115  -14.7123   26.6326 C   0  0  0  0  0  0  0  0  0  0  0  0
    5.5156  -13.9414   26.3171 C   0  0  0  0  0  0  0  0  0  0  0  0
    5.5124  -12.5527   26.4469 C   0  0  0  0  0  0  0  0  0  0  0  0
    6.6174  -11.9012   26.8997 C   0  0  0  0  0  0  0  0  0  0  0  0
    7.7399  -12.6452   27.2273 C   0  0  0  0  0  0  0  0  0  0  0  0
    7.7354  -14.0187   27.0962 C   0  0  0  0  0  0  0  0  0  0  0  0
    7.2682  -16.7260   24.1605 C   0  0  0  0  0  0  0  0  0  0  0  0
    7.4848  -17.9309   23.7659 O   0  0  0  0  0  0  0  0  0  0  0  0
    8.1051  -15.7237   23.6275 N   0  0  0  0  0  0  0  0  0  0  0  0
    8.0410  -14.2800   23.6885 C   0  0  0  0  0  0  0  0  0  0  0  0
    8.3217  -13.9114   22.2249 C   0  0  0  0  0  0  0  0  0  0  0  0
    9.1582  -15.0507   21.6938 C   0  0  0  0  0  0  0  0  0  0  0  0
    9.2980  -16.0028   22.8515 C   0  0  1  0  0  0  0  0  0  0  0  0
   10.5544  -15.6593   23.5845 C   0  0  0  0  0  0  0  0  0  0  0  0
   11.3530  -14.7593   23.1990 O   0  0  0  0  0  0  0  0  0  0  0  0
   10.1859  -13.4499   25.4283 C   0  0  0  0  0  0  0  0  0  0  0  0
   10.3162  -14.5953   26.3961 C   0  0  2  0  0  0  0  0  0  0  0  0
   10.5982  -14.0392   27.7572 C   0  0  0  0  0  0  0  0  0  0  0  0
   11.3367  -15.6124   25.9545 C   0  0  2  0  0  0  0  0  0  0  0  0
   10.9323  -16.3321   24.7742 N   0  0  0  0  0  0  0  0  0  0  0  0
   11.5778  -16.5433   27.1022 C   0  0  0  0  0  0  0  0  0  0  0  0
   11.0144  -17.8073   27.1449 O   0  0  0  0  0  0  0  0  0  0  0  0
   12.3052  -16.2120   28.0774 O   0  0  0  0  0  0  0  0  0  0  0  0
  2 10  1  0
  2  1  1  1
  3  2  1  0
  4  3  1  0
  5  4  2  0
  6  5  1  0
  7  6  2  0
  7  8  1  0
  8  9  2  0
  9  4  1  0
 10 12  1  0
 11 10  2  0
 12 13  1  0
 12 16  1  0
 13 14  1  0
 14 15  1  0
 16 15  1  0
 17 18  2  0
 16 17  1  1
 20 19  1  6
 20 22  1  0
 21 20  1  0
 22 23  1  6
 23 17  1  0
 24 22  1  0
 25 24  1  0
 26 24  2  0
M  END
$$$$
