FPV.pdb
     RDKit          3D

 26 27  0  0  1  0  0  0  0  0999 V2000
    5.1649  -17.9742   24.2336 N   0  0  0  0  0  0  0  0  0  0  0  0
    5.9380  -16.8352   24.5783 C   0  0  1  0  0  0  0  0  0  0  0  0
    5.7159  -16.5043   26.0409 C   0  0  0  0  0  0  0  0  0  0  0  0
    5.9936  -15.0625   26.2642 C   0  0  0  0  0  0  0  0  0  0  0  0
    5.1470  -14.0515   25.8691 C   0  0  0  0  0  0  0  0  0  0  0  0
    5.4332  -12.7042   26.0885 C   0  0  0  0  0  0  0  0  0  0  0  0
    6.5841  -12.3381   26.7143 C   0  0  0  0  0  0  0  0  0  0  0  0
    7.4607  -13.3293   27.1264 C   0  0  0  0  0  0  0  0  0  0  0  0
    7.1707  -14.6601   26.9057 C   0  0  0  0  0  0  0  0  0  0  0  0
    7.3486  -16.8447   24.2042 C   0  0  0  0  0  0  0  0  0  0  0  0
    7.8758  -18.0143   24.1122 O   0  0  0  0  0  0  0  0  0  0  0  0
    8.1913  -15.7461   23.9360 N   0  0  0  0  0  0  0  0  0  0  0  0
    8.0006  -14.3214   24.0981 C   0  0  0  0  0  0  0  0  0  0  0  0
    8.5355  -13.7991   22.7573 C   0  0  0  0  0  0  0  0  0  0  0  0
    9.5495  -14.8283   22.3191 C   0  0  0  0  0  0  0  0  0  0  0  0
    9.5330  -15.8752   23.4008 C   0  0  1  0  0  0  0  0  0  0  0  0
   10.5873  -15.5248   24.4006 C   0  0  0  0  0  0  0  0  0  0  0  0
   11.3096  -14.4925   24.3072 O   0  0  0  0  0  0  0  0  0  0  0  0
    9.9195  -14.8352   28.0345 C   0  0  0  0  0  0  0  0  0  0  0  0
   11.1894  -14.6266   27.2537 C   0  0  2  0  0  0  0  0  0  0  0  0
   10.9668  -13.5215   26.2686 C   0  0  0  0  0  0  0  0  0  0  0  0
   11.6877  -15.8950   26.6104 C   0  0  2  0  0  0  0  0  0  0  0  0
   10.8448  -16.3413   25.5310 N   0  0  0  0  0  0  0  0  0  0  0  0
   11.7961  -16.9362   27.6809 C   0  0  0  0  0  0  0  0  0  0  0  0
   11.0307  -18.0896   27.6546 O   0  0  0  0  0  0  0  0  0  0  0  0
   12.5907  -16.8033   28.6508 O   0  0  0  0  0  0  0  0  0  0  0  0
  2 10  1  0
  2  1  1  1
  3  2  1  0
  4  3  1  0
  5  4  2  0
  6  5  1  0
  7  6  2  0
  7  8  1  0
  8  9  2  0
  9  4  1  0
 10 12  1  0
 11 10  2  0
 12 13  1  0
 12 16  1  0
 13 14  1  0
 14 15  1  0
 16 15  1  0
 17 18  2  0
 16 17  1  1
 20 19  1  6
 20 22  1  0
 21 20  1  0
 22 23  1  6
 23 17  1  0
 24 22  1  0
 25 24  1  0
 26 24  2  0
M  END
$$$$
