FPV.pdb
     RDKit          3D

 26 27  0  0  1  0  0  0  0  0999 V2000
    5.2772  -17.8810   25.1619 N   0  0  0  0  0  0  0  0  0  0  0  0
    6.1153  -16.7417   25.0475 C   0  0  1  0  0  0  0  0  0  0  0  0
    6.6516  -16.3760   26.4173 C   0  0  0  0  0  0  0  0  0  0  0  0
    6.8494  -14.9058   26.4891 C   0  0  0  0  0  0  0  0  0  0  0  0
    8.0846  -14.2989   26.4588 C   0  0  0  0  0  0  0  0  0  0  0  0
    8.2429  -12.9150   26.5308 C   0  0  0  0  0  0  0  0  0  0  0  0
    7.1570  -12.1026   26.6356 C   0  0  0  0  0  0  0  0  0  0  0  0
    5.8969  -12.6786   26.6689 C   0  0  0  0  0  0  0  0  0  0  0  0
    5.7483  -14.0485   26.5972 C   0  0  0  0  0  0  0  0  0  0  0  0
    7.1511  -16.7723   24.0197 C   0  0  0  0  0  0  0  0  0  0  0  0
    7.6119  -17.9428   23.7512 O   0  0  0  0  0  0  0  0  0  0  0  0
    7.7003  -15.6931   23.2968 N   0  0  0  0  0  0  0  0  0  0  0  0
    7.5451  -14.2615   23.4336 C   0  0  0  0  0  0  0  0  0  0  0  0
    7.3286  -13.8484   21.9710 C   0  0  0  0  0  0  0  0  0  0  0  0
    8.0461  -14.9023   21.1622 C   0  0  0  0  0  0  0  0  0  0  0  0
    8.6120  -15.8555   22.1808 C   0  0  1  0  0  0  0  0  0  0  0  0
   10.0027  -15.4143   22.5053 C   0  0  0  0  0  0  0  0  0  0  0  0
   10.3163  -14.2046   22.6908 O   0  0  0  0  0  0  0  0  0  0  0  0
   10.8331  -17.4556   25.3990 C   0  0  0  0  0  0  0  0  0  0  0  0
   11.5244  -16.1696   25.0331 C   0  0  2  0  0  0  0  0  0  0  0  0
   10.5730  -15.0361   25.2593 C   0  0  0  0  0  0  0  0  0  0  0  0
   12.0877  -16.1933   23.6356 C   0  0  2  0  0  0  0  0  0  0  0  0
   11.0702  -16.3398   22.6266 N   0  0  0  0  0  0  0  0  0  0  0  0
   13.0860  -17.3070   23.5658 C   0  0  0  0  0  0  0  0  0  0  0  0
   12.8306  -18.4703   22.8599 O   0  0  0  0  0  0  0  0  0  0  0  0
   14.2013  -17.2291   24.1487 O   0  0  0  0  0  0  0  0  0  0  0  0
  2 10  1  0
  2  1  1  1
  3  2  1  0
  4  3  1  0
  5  4  2  0
  6  5  1  0
  7  6  2  0
  7  8  1  0
  8  9  2  0
  9  4  1  0
 10 12  1  0
 11 10  2  0
 12 13  1  0
 12 16  1  0
 13 14  1  0
 14 15  1  0
 16 15  1  0
 17 18  2  0
 16 17  1  1
 20 19  1  6
 20 22  1  0
 21 20  1  0
 22 23  1  6
 23 17  1  0
 24 22  1  0
 25 24  1  0
 26 24  2  0
M  END
$$$$
