FPV.pdb
     RDKit          3D

 26 27  0  0  1  0  0  0  0  0999 V2000
    5.1408  -17.8857   23.5823 N   0  0  0  0  0  0  0  0  0  0  0  0
    5.9241  -16.8425   24.1408 C   0  0  1  0  0  0  0  0  0  0  0  0
    5.5671  -16.6783   25.6049 C   0  0  0  0  0  0  0  0  0  0  0  0
    6.1188  -15.3921   26.1020 C   0  0  0  0  0  0  0  0  0  0  0  0
    5.4565  -14.1891   26.0062 C   0  0  0  0  0  0  0  0  0  0  0  0
    5.9987  -12.9942   26.4788 C   0  0  0  0  0  0  0  0  0  0  0  0
    7.2272  -12.9792   27.0627 C   0  0  0  0  0  0  0  0  0  0  0  0
    7.9234  -14.1721   27.1765 C   0  0  0  0  0  0  0  0  0  0  0  0
    7.3805  -15.3502   26.7065 C   0  0  0  0  0  0  0  0  0  0  0  0
    7.3640  -16.8871   23.9071 C   0  0  0  0  0  0  0  0  0  0  0  0
    7.8765  -18.0668   23.9134 O   0  0  0  0  0  0  0  0  0  0  0  0
    8.2483  -15.8124   23.6792 N   0  0  0  0  0  0  0  0  0  0  0  0
    8.0523  -14.3795   23.7043 C   0  0  0  0  0  0  0  0  0  0  0  0
    8.7778  -13.9612   22.4177 C   0  0  0  0  0  0  0  0  0  0  0  0
    9.8323  -15.0212   22.2074 C   0  0  0  0  0  0  0  0  0  0  0  0
    9.6508  -15.9823   23.3517 C   0  0  1  0  0  0  0  0  0  0  0  0
   10.5564  -15.5568   24.4620 C   0  0  0  0  0  0  0  0  0  0  0  0
   11.3755  -14.6009   24.3552 O   0  0  0  0  0  0  0  0  0  0  0  0
   10.6678  -13.2751   26.0673 C   0  0  0  0  0  0  0  0  0  0  0  0
   10.5164  -14.2520   27.2024 C   0  0  2  0  0  0  0  0  0  0  0  0
   11.0780  -13.6309   28.4435 C   0  0  0  0  0  0  0  0  0  0  0  0
   11.1223  -15.5966   26.8929 C   0  0  2  0  0  0  0  0  0  0  0  0
   10.5514  -16.2092   25.7210 N   0  0  0  0  0  0  0  0  0  0  0  0
   10.9454  -16.4644   28.1002 C   0  0  0  0  0  0  0  0  0  0  0  0
   10.1125  -17.5703   28.0859 O   0  0  0  0  0  0  0  0  0  0  0  0
   11.5494  -16.2216   29.1801 O   0  0  0  0  0  0  0  0  0  0  0  0
  2 10  1  0
  2  1  1  1
  3  2  1  0
  4  3  1  0
  5  4  2  0
  6  5  1  0
  7  6  2  0
  7  8  1  0
  8  9  2  0
  9  4  1  0
 10 12  1  0
 11 10  2  0
 12 13  1  0
 12 16  1  0
 13 14  1  0
 14 15  1  0
 16 15  1  0
 17 18  2  0
 16 17  1  1
 20 19  1  6
 20 22  1  0
 21 20  1  0
 22 23  1  6
 23 17  1  0
 24 22  1  0
 25 24  1  0
 26 24  2  0
M  END
$$$$
