FPV.pdb
     RDKit          3D

 26 27  0  0  1  0  0  0  0  0999 V2000
    5.0157  -17.8143   24.5598 N   0  0  0  0  0  0  0  0  0  0  0  0
    5.9136  -16.7348   24.7655 C   0  0  1  0  0  0  0  0  0  0  0  0
    6.0285  -16.4563   26.2511 C   0  0  0  0  0  0  0  0  0  0  0  0
    6.2137  -14.9980   26.4629 C   0  0  0  0  0  0  0  0  0  0  0  0
    7.3841  -14.4351   26.9193 C   0  0  0  0  0  0  0  0  0  0  0  0
    7.5309  -13.0617   27.1125 C   0  0  0  0  0  0  0  0  0  0  0  0
    6.4988  -12.2154   26.8501 C   0  0  0  0  0  0  0  0  0  0  0  0
    5.3047  -12.7468   26.3888 C   0  0  0  0  0  0  0  0  0  0  0  0
    5.1670  -14.1066   26.2001 C   0  0  0  0  0  0  0  0  0  0  0  0
    7.2090  -16.8042   24.0970 C   0  0  0  0  0  0  0  0  0  0  0  0
    7.5949  -17.9915   23.7874 O   0  0  0  0  0  0  0  0  0  0  0  0
    8.0761  -15.7459   23.7547 N   0  0  0  0  0  0  0  0  0  0  0  0
    7.9906  -14.3188   23.9747 C   0  0  0  0  0  0  0  0  0  0  0  0
    8.3887  -13.7841   22.5918 C   0  0  0  0  0  0  0  0  0  0  0  0
    9.2797  -14.8533   22.0066 C   0  0  0  0  0  0  0  0  0  0  0  0
    9.3330  -15.9318   23.0555 C   0  0  1  0  0  0  0  0  0  0  0  0
   10.5196  -15.6726   23.9265 C   0  0  0  0  0  0  0  0  0  0  0  0
   11.3587  -14.7573   23.6935 O   0  0  0  0  0  0  0  0  0  0  0  0
   10.3809  -13.5693   25.8588 C   0  0  0  0  0  0  0  0  0  0  0  0
   10.4438  -14.7350   26.8089 C   0  0  2  0  0  0  0  0  0  0  0  0
   10.8861  -14.2342   28.1487 C   0  0  0  0  0  0  0  0  0  0  0  0
   11.3027  -15.8588   26.2894 C   0  0  2  0  0  0  0  0  0  0  0  0
   10.7798  -16.4492   25.0841 N   0  0  0  0  0  0  0  0  0  0  0  0
   11.4308  -16.8759   27.3809 C   0  0  0  0  0  0  0  0  0  0  0  0
   12.4350  -16.8012   28.3311 O   0  0  0  0  0  0  0  0  0  0  0  0
   10.6273  -17.8427   27.4778 O   0  0  0  0  0  0  0  0  0  0  0  0
  2 10  1  0
  2  1  1  1
  3  2  1  0
  4  3  1  0
  5  4  2  0
  6  5  1  0
  7  6  2  0
  7  8  1  0
  8  9  2  0
  9  4  1  0
 10 12  1  0
 11 10  2  0
 12 13  1  0
 12 16  1  0
 13 14  1  0
 14 15  1  0
 16 15  1  0
 17 18  2  0
 16 17  1  1
 20 19  1  6
 20 22  1  0
 21 20  1  0
 22 23  1  6
 23 17  1  0
 24 22  1  0
 25 24  1  0
 26 24  2  0
M  END
$$$$
