FPV.pdb
     RDKit          3D

 26 27  0  0  1  0  0  0  0  0999 V2000
    5.7132  -16.8084   25.6280 N   0  0  0  0  0  0  0  0  0  0  0  0
    6.1930  -16.4832   24.3327 C   0  0  1  0  0  0  0  0  0  0  0  0
    5.8682  -15.0342   24.0286 C   0  0  0  0  0  0  0  0  0  0  0  0
    6.4461  -14.1699   25.0892 C   0  0  0  0  0  0  0  0  0  0  0  0
    5.7983  -13.8680   26.2657 C   0  0  0  0  0  0  0  0  0  0  0  0
    6.3626  -13.0507   27.2449 C   0  0  0  0  0  0  0  0  0  0  0  0
    7.5993  -12.5138   27.0643 C   0  0  0  0  0  0  0  0  0  0  0  0
    8.2816  -12.7962   25.8915 C   0  0  0  0  0  0  0  0  0  0  0  0
    7.7167  -13.6056   24.9274 C   0  0  0  0  0  0  0  0  0  0  0  0
    7.5751  -16.8345   24.0224 C   0  0  0  0  0  0  0  0  0  0  0  0
    7.8296  -18.0952   24.0399 O   0  0  0  0  0  0  0  0  0  0  0  0
    8.6489  -15.9748   23.7110 N   0  0  0  0  0  0  0  0  0  0  0  0
    8.7081  -14.5470   23.4868 C   0  0  0  0  0  0  0  0  0  0  0  0
    9.5810  -14.4839   22.2255 C   0  0  0  0  0  0  0  0  0  0  0  0
   10.4431  -15.7217   22.2905 C   0  0  0  0  0  0  0  0  0  0  0  0
   10.0180  -16.4256   23.5515 C   0  0  1  0  0  0  0  0  0  0  0  0
   10.9078  -15.9660   24.6609 C   0  0  0  0  0  0  0  0  0  0  0  0
   11.7554  -15.0389   24.5255 O   0  0  0  0  0  0  0  0  0  0  0  0
   10.1890  -13.6243   26.1510 C   0  0  0  0  0  0  0  0  0  0  0  0
   10.0343  -14.6377   27.2532 C   0  0  2  0  0  0  0  0  0  0  0  0
   10.0998  -13.9250   28.5682 C   0  0  0  0  0  0  0  0  0  0  0  0
   11.0286  -15.7649   27.1461 C   0  0  2  0  0  0  0  0  0  0  0  0
   10.8544  -16.5508   25.9517 N   0  0  0  0  0  0  0  0  0  0  0  0
   10.8943  -16.6087   28.3757 C   0  0  0  0  0  0  0  0  0  0  0  0
   10.2805  -17.8493   28.3436 O   0  0  0  0  0  0  0  0  0  0  0  0
   11.3360  -16.2218   29.4915 O   0  0  0  0  0  0  0  0  0  0  0  0
  2 10  1  0
  2  1  1  1
  3  2  1  0
  4  3  1  0
  5  4  2  0
  6  5  1  0
  7  6  2  0
  7  8  1  0
  8  9  2  0
  9  4  1  0
 10 12  1  0
 11 10  2  0
 12 13  1  0
 12 16  1  0
 13 14  1  0
 14 15  1  0
 16 15  1  0
 17 18  2  0
 16 17  1  1
 20 19  1  6
 20 22  1  0
 21 20  1  0
 22 23  1  6
 23 17  1  0
 24 22  1  0
 25 24  1  0
 26 24  2  0
M  END
$$$$
