FPV.pdb
     RDKit          3D

 26 27  0  0  1  0  0  0  0  0999 V2000
    6.0760  -16.7309   23.5767 N   0  0  0  0  0  0  0  0  0  0  0  0
    6.9392  -15.7715   22.9866 C   0  0  1  0  0  0  0  0  0  0  0  0
    6.1181  -14.8011   22.1610 C   0  0  0  0  0  0  0  0  0  0  0  0
    7.0285  -13.9750   21.3277 C   0  0  0  0  0  0  0  0  0  0  0  0
    7.6474  -14.4344   20.1871 C   0  0  0  0  0  0  0  0  0  0  0  0
    8.5010  -13.6382   19.4237 C   0  0  0  0  0  0  0  0  0  0  0  0
    8.7547  -12.3531   19.7902 C   0  0  0  0  0  0  0  0  0  0  0  0
    8.1487  -11.8561   20.9333 C   0  0  0  0  0  0  0  0  0  0  0  0
    7.3056  -12.6499   21.6834 C   0  0  0  0  0  0  0  0  0  0  0  0
    7.8984  -15.1051   23.8618 C   0  0  0  0  0  0  0  0  0  0  0  0
    9.0714  -14.9478   23.3582 O   0  0  0  0  0  0  0  0  0  0  0  0
    7.7000  -14.6208   25.1714 N   0  0  0  0  0  0  0  0  0  0  0  0
    6.4990  -14.3969   25.9459 C   0  0  0  0  0  0  0  0  0  0  0  0
    6.7822  -13.0064   26.5316 C   0  0  0  0  0  0  0  0  0  0  0  0
    8.2876  -12.9182   26.6058 C   0  0  0  0  0  0  0  0  0  0  0  0
    8.7813  -14.2294   26.0551 C   0  0  1  0  0  0  0  0  0  0  0  0
    8.9598  -15.1744   27.1992 C   0  0  0  0  0  0  0  0  0  0  0  0
    7.9947  -15.6207   27.8814 O   0  0  0  0  0  0  0  0  0  0  0  0
   12.6154  -17.1727   26.7054 C   0  0  0  0  0  0  0  0  0  0  0  0
   11.2610  -17.7766   26.9634 C   0  0  2  0  0  0  0  0  0  0  0  0
   10.5464  -17.9199   25.6556 C   0  0  0  0  0  0  0  0  0  0  0  0
   10.4675  -17.0025   27.9842 C   0  0  2  0  0  0  0  0  0  0  0  0
   10.2417  -15.6344   27.5944 N   0  0  0  0  0  0  0  0  0  0  0  0
   11.2014  -17.0819   29.2869 C   0  0  0  0  0  0  0  0  0  0  0  0
   11.3009  -18.2673   29.9952 O   0  0  0  0  0  0  0  0  0  0  0  0
   11.7591  -16.0698   29.7914 O   0  0  0  0  0  0  0  0  0  0  0  0
  2 10  1  0
  2  1  1  1
  3  2  1  0
  4  3  1  0
  5  4  2  0
  6  5  1  0
  7  6  2  0
  7  8  1  0
  8  9  2  0
  9  4  1  0
 10 12  1  0
 11 10  2  0
 12 13  1  0
 12 16  1  0
 13 14  1  0
 14 15  1  0
 16 15  1  0
 17 18  2  0
 16 17  1  1
 20 19  1  6
 20 22  1  0
 21 20  1  0
 22 23  1  6
 23 17  1  0
 24 22  1  0
 25 24  1  0
 26 24  2  0
M  END
$$$$
