FPV.pdb
     RDKit          3D

 26 27  0  0  1  0  0  0  0  0999 V2000
    5.3988  -17.9352   25.1234 N   0  0  0  0  0  0  0  0  0  0  0  0
    6.1761  -16.7521   25.0244 C   0  0  1  0  0  0  0  0  0  0  0  0
    6.6000  -16.3149   26.4126 C   0  0  0  0  0  0  0  0  0  0  0  0
    6.6979  -14.8335   26.4507 C   0  0  0  0  0  0  0  0  0  0  0  0
    7.8886  -14.1450   26.3932 C   0  0  0  0  0  0  0  0  0  0  0  0
    7.9530  -12.7524   26.4338 C   0  0  0  0  0  0  0  0  0  0  0  0
    6.8154  -12.0133   26.5338 C   0  0  0  0  0  0  0  0  0  0  0  0
    5.5979  -12.6726   26.5939 C   0  0  0  0  0  0  0  0  0  0  0  0
    5.5421  -14.0506   26.5532 C   0  0  0  0  0  0  0  0  0  0  0  0
    7.2768  -16.7517   24.0661 C   0  0  0  0  0  0  0  0  0  0  0  0
    7.8381  -17.8950   23.8870 O   0  0  0  0  0  0  0  0  0  0  0  0
    7.7925  -15.6685   23.3246 N   0  0  0  0  0  0  0  0  0  0  0  0
    7.6042  -14.2395   23.4458 C   0  0  0  0  0  0  0  0  0  0  0  0
    7.3631  -13.8498   21.9806 C   0  0  0  0  0  0  0  0  0  0  0  0
    8.0977  -14.8960   21.1772 C   0  0  0  0  0  0  0  0  0  0  0  0
    8.6967  -15.8227   22.2013 C   0  0  1  0  0  0  0  0  0  0  0  0
   10.0795  -15.3443   22.5061 C   0  0  0  0  0  0  0  0  0  0  0  0
   10.3228  -14.2028   22.9898 O   0  0  0  0  0  0  0  0  0  0  0  0
   11.4090  -18.2026   24.3979 C   0  0  0  0  0  0  0  0  0  0  0  0
   11.9371  -16.7989   24.5249 C   0  0  2  0  0  0  0  0  0  0  0  0
   10.9288  -15.9757   25.2646 C   0  0  0  0  0  0  0  0  0  0  0  0
   12.3201  -16.2025   23.1951 C   0  0  2  0  0  0  0  0  0  0  0  0
   11.2190  -16.1540   22.2677 N   0  0  0  0  0  0  0  0  0  0  0  0
   13.4574  -17.0069   22.6460 C   0  0  0  0  0  0  0  0  0  0  0  0
   14.7626  -16.7970   23.0572 O   0  0  0  0  0  0  0  0  0  0  0  0
   13.2707  -17.9094   21.7854 O   0  0  0  0  0  0  0  0  0  0  0  0
  2 10  1  0
  2  1  1  1
  3  2  1  0
  4  3  1  0
  5  4  2  0
  6  5  1  0
  7  6  2  0
  7  8  1  0
  8  9  2  0
  9  4  1  0
 10 12  1  0
 11 10  2  0
 12 13  1  0
 12 16  1  0
 13 14  1  0
 14 15  1  0
 16 15  1  0
 17 18  2  0
 16 17  1  1
 20 19  1  6
 20 22  1  0
 21 20  1  0
 22 23  1  6
 23 17  1  0
 24 22  1  0
 25 24  1  0
 26 24  2  0
M  END
$$$$
