FPV.pdb
     RDKit          3D

 26 27  0  0  1  0  0  0  0  0999 V2000
    5.0119  -17.7162   23.9083 N   0  0  0  0  0  0  0  0  0  0  0  0
    5.8444  -16.6560   24.3519 C   0  0  1  0  0  0  0  0  0  0  0  0
    5.5306  -16.3474   25.8025 C   0  0  0  0  0  0  0  0  0  0  0  0
    6.0893  -15.0163   26.1517 C   0  0  0  0  0  0  0  0  0  0  0  0
    7.3789  -14.8208   26.5917 C   0  0  0  0  0  0  0  0  0  0  0  0
    7.8781  -13.5595   26.9161 C   0  0  0  0  0  0  0  0  0  0  0  0
    7.0885  -12.4574   26.8054 C   0  0  0  0  0  0  0  0  0  0  0  0
    5.7839  -12.6161   26.3652 C   0  0  0  0  0  0  0  0  0  0  0  0
    5.2972  -13.8671   26.0462 C   0  0  0  0  0  0  0  0  0  0  0  0
    7.2755  -16.7738   24.0912 C   0  0  0  0  0  0  0  0  0  0  0  0
    7.7320  -17.9761   24.1137 O   0  0  0  0  0  0  0  0  0  0  0  0
    8.2045  -15.7474   23.8222 N   0  0  0  0  0  0  0  0  0  0  0  0
    8.0881  -14.3061   23.8608 C   0  0  0  0  0  0  0  0  0  0  0  0
    8.7704  -13.9209   22.5407 C   0  0  0  0  0  0  0  0  0  0  0  0
    9.7540  -15.0352   22.2752 C   0  0  0  0  0  0  0  0  0  0  0  0
    9.5777  -15.9912   23.4246 C   0  0  1  0  0  0  0  0  0  0  0  0
   10.5591  -15.6212   24.4894 C   0  0  0  0  0  0  0  0  0  0  0  0
   11.3292  -14.6237   24.4003 O   0  0  0  0  0  0  0  0  0  0  0  0
   10.1740  -13.5475   26.3992 C   0  0  0  0  0  0  0  0  0  0  0  0
   10.2982  -14.6666   27.3980 C   0  0  2  0  0  0  0  0  0  0  0  0
   10.7651  -14.0935   28.6999 C   0  0  0  0  0  0  0  0  0  0  0  0
   11.1734  -15.7890   26.9031 C   0  0  2  0  0  0  0  0  0  0  0  0
   10.6877  -16.3781   25.6817 N   0  0  0  0  0  0  0  0  0  0  0  0
   11.2694  -16.8075   27.9965 C   0  0  0  0  0  0  0  0  0  0  0  0
   12.0546  -16.5999   29.1177 O   0  0  0  0  0  0  0  0  0  0  0  0
   10.6373  -17.8970   27.9390 O   0  0  0  0  0  0  0  0  0  0  0  0
  2 10  1  0
  2  1  1  1
  3  2  1  0
  4  3  1  0
  5  4  2  0
  6  5  1  0
  7  6  2  0
  7  8  1  0
  8  9  2  0
  9  4  1  0
 10 12  1  0
 11 10  2  0
 12 13  1  0
 12 16  1  0
 13 14  1  0
 14 15  1  0
 16 15  1  0
 17 18  2  0
 16 17  1  1
 20 19  1  6
 20 22  1  0
 21 20  1  0
 22 23  1  6
 23 17  1  0
 24 22  1  0
 25 24  1  0
 26 24  2  0
M  END
$$$$
