FPV.pdb
     RDKit          3D

 26 27  0  0  1  0  0  0  0  0999 V2000
    5.1293  -17.5950   24.0300 N   0  0  0  0  0  0  0  0  0  0  0  0
    6.0376  -16.5837   24.4375 C   0  0  1  0  0  0  0  0  0  0  0  0
    5.7488  -16.2023   25.8758 C   0  0  0  0  0  0  0  0  0  0  0  0
    6.2378  -14.8220   26.1239 C   0  0  0  0  0  0  0  0  0  0  0  0
    7.5360  -14.5224   26.4702 C   0  0  0  0  0  0  0  0  0  0  0  0
    7.9690  -13.2168   26.7008 C   0  0  0  0  0  0  0  0  0  0  0  0
    7.1026  -12.1743   26.5881 C   0  0  0  0  0  0  0  0  0  0  0  0
    5.7870  -12.4382   26.2408 C   0  0  0  0  0  0  0  0  0  0  0  0
    5.3661  -13.7324   26.0144 C   0  0  0  0  0  0  0  0  0  0  0  0
    7.4560  -16.8152   24.1833 C   0  0  0  0  0  0  0  0  0  0  0  0
    7.8385  -18.0351   24.3237 O   0  0  0  0  0  0  0  0  0  0  0  0
    8.4431  -15.8799   23.8090 N   0  0  0  0  0  0  0  0  0  0  0  0
    8.3983  -14.4436   23.6441 C   0  0  0  0  0  0  0  0  0  0  0  0
    9.1378  -14.2781   22.3090 C   0  0  0  0  0  0  0  0  0  0  0  0
   10.0714  -15.4625   22.2357 C   0  0  0  0  0  0  0  0  0  0  0  0
    9.8134  -16.2395   23.4990 C   0  0  1  0  0  0  0  0  0  0  0  0
   10.7803  -15.7698   24.5373 C   0  0  0  0  0  0  0  0  0  0  0  0
   12.0324  -15.7822   24.3690 O   0  0  0  0  0  0  0  0  0  0  0  0
    9.4631  -14.6253   28.6251 C   0  0  0  0  0  0  0  0  0  0  0  0
   10.7858  -14.2817   27.9944 C   0  0  2  0  0  0  0  0  0  0  0  0
   10.7129  -12.8824   27.4670 C   0  0  0  0  0  0  0  0  0  0  0  0
   11.2051  -15.2821   26.9484 C   0  0  2  0  0  0  0  0  0  0  0  0
   10.3453  -15.2743   25.7928 N   0  0  0  0  0  0  0  0  0  0  0  0
   11.2333  -16.6323   27.5952 C   0  0  0  0  0  0  0  0  0  0  0  0
   12.1709  -16.9574   28.5605 O   0  0  0  0  0  0  0  0  0  0  0  0
   10.4022  -17.5284   27.2853 O   0  0  0  0  0  0  0  0  0  0  0  0
  2 10  1  0
  2  1  1  1
  3  2  1  0
  4  3  1  0
  5  4  2  0
  6  5  1  0
  7  6  2  0
  7  8  1  0
  8  9  2  0
  9  4  1  0
 10 12  1  0
 11 10  2  0
 12 13  1  0
 12 16  1  0
 13 14  1  0
 14 15  1  0
 16 15  1  0
 17 18  2  0
 16 17  1  1
 20 19  1  6
 20 22  1  0
 21 20  1  0
 22 23  1  6
 23 17  1  0
 24 22  1  0
 25 24  1  0
 26 24  2  0
M  END
$$$$
