FPV.pdb
     RDKit          3D

 26 27  0  0  1  0  0  0  0  0999 V2000
    5.3617  -17.9759   25.3052 N   0  0  0  0  0  0  0  0  0  0  0  0
    6.1733  -16.8456   25.0269 C   0  0  1  0  0  0  0  0  0  0  0  0
    6.9337  -16.4557   26.2789 C   0  0  0  0  0  0  0  0  0  0  0  0
    7.0453  -14.9761   26.3430 C   0  0  0  0  0  0  0  0  0  0  0  0
    5.9640  -14.1257   26.2930 C   0  0  0  0  0  0  0  0  0  0  0  0
    6.0966  -12.7385   26.3522 C   0  0  0  0  0  0  0  0  0  0  0  0
    7.3269  -12.1689   26.4639 C   0  0  0  0  0  0  0  0  0  0  0  0
    8.4389  -12.9943   26.5172 C   0  0  0  0  0  0  0  0  0  0  0  0
    8.2997  -14.3657   26.4580 C   0  0  0  0  0  0  0  0  0  0  0  0
    7.0215  -16.9055   23.8407 C   0  0  0  0  0  0  0  0  0  0  0  0
    7.2251  -18.0894   23.3809 O   0  0  0  0  0  0  0  0  0  0  0  0
    7.6358  -15.8416   23.1482 N   0  0  0  0  0  0  0  0  0  0  0  0
    7.6875  -14.4203   23.4124 C   0  0  0  0  0  0  0  0  0  0  0  0
    7.3848  -13.8514   22.0190 C   0  0  0  0  0  0  0  0  0  0  0  0
    7.8717  -14.9081   21.0567 C   0  0  0  0  0  0  0  0  0  0  0  0
    8.4031  -16.0135   21.9296 C   0  0  1  0  0  0  0  0  0  0  0  0
    9.8654  -15.7807   22.1330 C   0  0  0  0  0  0  0  0  0  0  0  0
   10.4165  -14.6585   21.9506 O   0  0  0  0  0  0  0  0  0  0  0  0
   10.7442  -16.8976   25.6305 C   0  0  0  0  0  0  0  0  0  0  0  0
   11.4600  -15.9349   24.7214 C   0  0  2  0  0  0  0  0  0  0  0  0
   10.6041  -14.7192   24.5462 C   0  0  0  0  0  0  0  0  0  0  0  0
   11.8605  -16.5647   23.4123 C   0  0  2  0  0  0  0  0  0  0  0  0
   10.7359  -16.8198   22.5491 N   0  0  0  0  0  0  0  0  0  0  0  0
   12.6041  -17.8267   23.7227 C   0  0  0  0  0  0  0  0  0  0  0  0
   13.8758  -17.8063   24.2697 O   0  0  0  0  0  0  0  0  0  0  0  0
   12.1002  -18.9603   23.4977 O   0  0  0  0  0  0  0  0  0  0  0  0
  2 10  1  0
  2  1  1  1
  3  2  1  0
  4  3  1  0
  5  4  2  0
  6  5  1  0
  7  6  2  0
  7  8  1  0
  8  9  2  0
  9  4  1  0
 10 12  1  0
 11 10  2  0
 12 13  1  0
 12 16  1  0
 13 14  1  0
 14 15  1  0
 16 15  1  0
 17 18  2  0
 16 17  1  1
 20 19  1  1
 20 22  1  0
 21 20  1  0
 22 23  1  6
 23 17  1  0
 24 22  1  0
 25 24  1  0
 26 24  2  0
M  END
$$$$
