FPV.pdb
     RDKit          3D

 26 27  0  0  1  0  0  0  0  0999 V2000
    5.4921  -17.8897   25.3367 N   0  0  0  0  0  0  0  0  0  0  0  0
    6.2691  -16.7239   25.1107 C   0  0  1  0  0  0  0  0  0  0  0  0
    6.8404  -16.2406   26.4289 C   0  0  0  0  0  0  0  0  0  0  0  0
    6.8366  -14.7555   26.4489 C   0  0  0  0  0  0  0  0  0  0  0  0
    7.9799  -13.9888   26.4541 C   0  0  0  0  0  0  0  0  0  0  0  0
    7.9485  -12.5946   26.4760 C   0  0  0  0  0  0  0  0  0  0  0  0
    6.7601  -11.9331   26.4932 C   0  0  0  0  0  0  0  0  0  0  0  0
    5.5879  -12.6725   26.4885 C   0  0  0  0  0  0  0  0  0  0  0  0
    5.6270  -14.0515   26.4668 C   0  0  0  0  0  0  0  0  0  0  0  0
    7.2640  -16.7782   24.0443 C   0  0  0  0  0  0  0  0  0  0  0  0
    7.7849  -17.9379   23.8493 O   0  0  0  0  0  0  0  0  0  0  0  0
    7.7173  -15.7315   23.2149 N   0  0  0  0  0  0  0  0  0  0  0  0
    7.5146  -14.3003   23.2695 C   0  0  0  0  0  0  0  0  0  0  0  0
    7.1798  -13.9950   21.8026 C   0  0  0  0  0  0  0  0  0  0  0  0
    7.8808  -15.0750   21.0141 C   0  0  0  0  0  0  0  0  0  0  0  0
    8.5545  -15.9364   22.0487 C   0  0  1  0  0  0  0  0  0  0  0  0
    9.9456  -15.4252   22.2422 C   0  0  0  0  0  0  0  0  0  0  0  0
   10.1998  -14.2749   22.6987 O   0  0  0  0  0  0  0  0  0  0  0  0
   11.3078  -18.2837   24.0832 C   0  0  0  0  0  0  0  0  0  0  0  0
   11.8269  -16.8732   24.1640 C   0  0  2  0  0  0  0  0  0  0  0  0
   10.8137  -16.0329   24.8772 C   0  0  0  0  0  0  0  0  0  0  0  0
   12.2052  -16.3180   22.8151 C   0  0  2  0  0  0  0  0  0  0  0  0
   11.0812  -16.2112   21.9208 N   0  0  0  0  0  0  0  0  0  0  0  0
   13.2724  -17.1990   22.2433 C   0  0  0  0  0  0  0  0  0  0  0  0
   14.5982  -17.0765   22.6229 O   0  0  0  0  0  0  0  0  0  0  0  0
   13.0050  -18.0893   21.3914 O   0  0  0  0  0  0  0  0  0  0  0  0
  2 10  1  0
  2  1  1  1
  3  2  1  0
  4  3  1  0
  5  4  2  0
  6  5  1  0
  7  6  2  0
  7  8  1  0
  8  9  2  0
  9  4  1  0
 10 12  1  0
 11 10  2  0
 12 13  1  0
 12 16  1  0
 13 14  1  0
 14 15  1  0
 16 15  1  0
 17 18  2  0
 16 17  1  1
 20 19  1  6
 20 22  1  0
 21 20  1  0
 22 23  1  6
 23 17  1  0
 24 22  1  0
 25 24  1  0
 26 24  2  0
M  END
$$$$
