QAT.pdb
     RDKit          3D

 22 21  0  0  1  0  0  0  0  0999 V2000
   26.3462  -21.8122  -18.1960 N   0  0  0  0  0  0  0  0  0  0  0  0
   27.5987  -21.2114  -17.9112 C   0  0  0  0  0  0  0  0  0  0  0  0
   28.4743  -21.0203  -18.8034 O   0  0  0  0  0  0  0  0  0  0  0  0
   27.8619  -20.8029  -16.5064 C   0  0  0  0  0  0  0  0  0  0  0  0
   26.6211  -21.0321  -15.6708 C   0  0  0  0  0  0  0  0  0  0  0  0
   26.7844  -22.1407  -14.6839 C   0  0  2  0  0  0  0  0  0  0  0  0
   27.0536  -23.3843  -15.3685 N   0  0  0  0  0  0  0  0  0  0  0  0
   25.6884  -22.2434  -13.7155 C   0  0  0  0  0  0  0  0  0  0  0  0
   24.7163  -22.9900  -13.9621 O   0  0  0  0  0  0  0  0  0  0  0  0
   25.2164  -20.9025  -10.2198 C   0  0  0  0  0  0  0  0  0  0  0  0
   24.7164  -21.5750  -11.4972 C   0  0  2  0  0  0  0  0  0  0  0  0
   25.7276  -21.5006  -12.5040 N   0  0  0  0  0  0  0  0  0  0  0  0
   23.4519  -20.9148  -11.9684 C   0  0  0  0  0  0  0  0  0  0  0  0
   22.4491  -20.7887  -11.2160 O   0  0  0  0  0  0  0  0  0  0  0  0
   23.3536  -17.8895  -14.8347 C   0  0  0  0  0  0  0  0  0  0  0  0
   22.3750  -19.0207  -15.0578 C   0  0  1  0  0  0  0  0  0  0  0  0
   23.0327  -19.9362  -15.9120 O   0  0  0  0  0  0  0  0  0  0  0  0
   22.1349  -19.7667  -13.7630 C   0  0  2  0  0  0  0  0  0  0  0  0
   23.3427  -20.4086  -13.2818 N   0  0  0  0  0  0  0  0  0  0  0  0
   21.1042  -20.8073  -14.0516 C   0  0  0  0  0  0  0  0  0  0  0  0
   21.3761  -22.0313  -14.0730 O   0  0  0  0  0  0  0  0  0  0  0  0
   19.8091  -20.4352  -14.3051 O   0  0  0  0  0  0  0  0  0  0  0  0
  2  4  1  0
  2  1  1  0
  3  2  2  0
  5  4  1  0
  6  5  1  0
  6  7  1  6
  8  9  2  0
  8  6  1  0
 11 10  1  1
 11 12  1  0
 12  8  1  0
 13 11  1  0
 13 19  1  0
 14 13  2  0
 16 18  1  0
 16 15  1  1
 17 16  1  0
 18 19  1  6
 18 20  1  0
 20 22  1  0
 21 20  2  0
M  END
$$$$
