QAT.pdb
     RDKit          3D

 22 21  0  0  1  0  0  0  0  0999 V2000
   22.4362   -5.8657  -14.6694 N   0  0  0  0  0  0  0  0  0  0  0  0
   21.9109   -5.2039  -13.5306 C   0  0  0  0  0  0  0  0  0  0  0  0
   22.0367   -3.9579  -13.3559 O   0  0  0  0  0  0  0  0  0  0  0  0
   21.1926   -6.0306  -12.5254 C   0  0  0  0  0  0  0  0  0  0  0  0
   21.1720   -7.4746  -12.9779 C   0  0  0  0  0  0  0  0  0  0  0  0
   19.7893   -8.0280  -13.0846 C   0  0  2  0  0  0  0  0  0  0  0  0
   19.1842   -8.1185  -11.7758 N   0  0  0  0  0  0  0  0  0  0  0  0
   19.7047   -9.2791  -13.8446 C   0  0  0  0  0  0  0  0  0  0  0  0
   19.8089  -10.3718  -13.2460 O   0  0  0  0  0  0  0  0  0  0  0  0
   17.9834  -10.7740  -16.3505 C   0  0  0  0  0  0  0  0  0  0  0  0
   19.4434  -10.4273  -16.0639 C   0  0  2  0  0  0  0  0  0  0  0  0
   19.5056   -9.2533  -15.2520 N   0  0  0  0  0  0  0  0  0  0  0  0
   20.1881  -10.2192  -17.3520 C   0  0  0  0  0  0  0  0  0  0  0  0
   20.2512   -9.0897  -17.9070 O   0  0  0  0  0  0  0  0  0  0  0  0
   23.3369  -12.0143  -20.7379 C   0  0  0  0  0  0  0  0  0  0  0  0
   22.5393  -12.2642  -19.4775 C   0  0  1  0  0  0  0  0  0  0  0  0
   23.4734  -12.2248  -18.4163 O   0  0  0  0  0  0  0  0  0  0  0  0
   21.5847  -11.1166  -19.2273 C   0  0  2  0  0  0  0  0  0  0  0  0
   20.8485  -11.2912  -17.9904 N   0  0  0  0  0  0  0  0  0  0  0  0
   20.6277  -11.0965  -20.3729 C   0  0  0  0  0  0  0  0  0  0  0  0
   19.7157  -11.9480  -20.4985 O   0  0  0  0  0  0  0  0  0  0  0  0
   20.7304  -10.1228  -21.3326 O   0  0  0  0  0  0  0  0  0  0  0  0
  2  4  1  0
  2  1  1  0
  3  2  2  0
  5  4  1  0
  6  5  1  0
  6  7  1  1
  8  9  2  0
  8  6  1  0
 11 10  1  6
 11 12  1  0
 12  8  1  0
 13 11  1  0
 13 19  1  0
 14 13  2  0
 16 18  1  0
 16 15  1  6
 17 16  1  0
 18 19  1  1
 18 20  1  0
 20 22  1  0
 21 20  2  0
M  END
$$$$
