QAT.pdb
     RDKit          3D

 22 21  0  0  1  0  0  0  0  0999 V2000
   15.7949  -12.6617  -12.6434 N   0  0  0  0  0  0  0  0  0  0  0  0
   15.1179  -13.1264  -11.4873 C   0  0  0  0  0  0  0  0  0  0  0  0
   14.8918  -14.3539  -11.2850 O   0  0  0  0  0  0  0  0  0  0  0  0
   14.6710  -12.1112  -10.4976 C   0  0  0  0  0  0  0  0  0  0  0  0
   15.0868  -10.7324  -10.9626 C   0  0  0  0  0  0  0  0  0  0  0  0
   14.5804   -9.6446  -10.0738 C   0  0  2  0  0  0  0  0  0  0  0  0
   13.1357   -9.6422  -10.0595 N   0  0  0  0  0  0  0  0  0  0  0  0
   15.1546   -8.3259  -10.3587 C   0  0  0  0  0  0  0  0  0  0  0  0
   14.7078   -7.6525  -11.3127 O   0  0  0  0  0  0  0  0  0  0  0  0
   16.7362   -5.6915   -8.5297 C   0  0  0  0  0  0  0  0  0  0  0  0
   16.8387   -6.5509   -9.7887 C   0  0  2  0  0  0  0  0  0  0  0  0
   16.2118   -7.8138   -9.5580 N   0  0  0  0  0  0  0  0  0  0  0  0
   18.2794   -6.7380  -10.1714 C   0  0  0  0  0  0  0  0  0  0  0  0
   19.0958   -7.3280   -9.4143 O   0  0  0  0  0  0  0  0  0  0  0  0
   19.8373   -8.8752  -12.5023 C   0  0  0  0  0  0  0  0  0  0  0  0
   20.1823   -7.4856  -12.9889 C   0  0  1  0  0  0  0  0  0  0  0  0
   19.1331   -7.1107  -13.8599 O   0  0  0  0  0  0  0  0  0  0  0  0
   20.1328   -6.5022  -11.8393 C   0  0  2  0  0  0  0  0  0  0  0  0
   18.7724   -6.2551  -11.4030 N   0  0  0  0  0  0  0  0  0  0  0  0
   20.7306   -5.2284  -12.3377 C   0  0  0  0  0  0  0  0  0  0  0  0
   20.0431   -4.1983  -12.5351 O   0  0  0  0  0  0  0  0  0  0  0  0
   22.0755   -5.1589  -12.5954 O   0  0  0  0  0  0  0  0  0  0  0  0
  2  4  1  0
  2  1  1  0
  3  2  2  0
  5  4  1  0
  6  5  1  0
  6  7  1  6
  8  9  2  0
  8  6  1  0
 11 10  1  1
 11 12  1  0
 12  8  1  0
 13 11  1  0
 13 19  1  0
 14 13  2  0
 16 18  1  0
 16 15  1  1
 17 16  1  0
 18 19  1  6
 18 20  1  0
 20 22  1  0
 21 20  2  0
M  END
$$$$
