QAT.pdb
     RDKit          3D

 22 21  0  0  1  0  0  0  0  0999 V2000
   17.1381  -12.2689  -14.8936 N   0  0  0  0  0  0  0  0  0  0  0  0
   17.0245  -13.0261  -16.0872 C   0  0  0  0  0  0  0  0  0  0  0  0
   16.1820  -13.9602  -16.2166 O   0  0  0  0  0  0  0  0  0  0  0  0
   17.9413  -12.6863  -17.2069 C   0  0  0  0  0  0  0  0  0  0  0  0
   18.7476  -11.4573  -16.8469 C   0  0  0  0  0  0  0  0  0  0  0  0
   20.1994  -11.6042  -17.1637 C   0  0  2  0  0  0  0  0  0  0  0  0
   20.6901  -12.8756  -16.6837 N   0  0  0  0  0  0  0  0  0  0  0  0
   21.0219  -10.4703  -16.7310 C   0  0  0  0  0  0  0  0  0  0  0  0
   21.3873  -10.3941  -15.5376 O   0  0  0  0  0  0  0  0  0  0  0  0
   22.7997   -7.7370  -18.6112 C   0  0  0  0  0  0  0  0  0  0  0  0
   22.2559   -8.3651  -17.3291 C   0  0  2  0  0  0  0  0  0  0  0  0
   21.4031   -9.4630  -17.6589 N   0  0  0  0  0  0  0  0  0  0  0  0
   21.5090   -7.3381  -16.5264 C   0  0  0  0  0  0  0  0  0  0  0  0
   20.3492   -6.9623  -16.8446 O   0  0  0  0  0  0  0  0  0  0  0  0
   19.9335   -7.4956  -13.5479 C   0  0  0  0  0  0  0  0  0  0  0  0
   20.8864   -6.3532  -13.2762 C   0  0  1  0  0  0  0  0  0  0  0  0
   22.0185   -6.9342  -12.6590 O   0  0  0  0  0  0  0  0  0  0  0  0
   21.3847   -5.7672  -14.5798 C   0  0  2  0  0  0  0  0  0  0  0  0
   22.0859   -6.7538  -15.3780 N   0  0  0  0  0  0  0  0  0  0  0  0
   22.3236   -4.6628  -14.2231 C   0  0  0  0  0  0  0  0  0  0  0  0
   23.5523   -4.7238  -14.4663 O   0  0  0  0  0  0  0  0  0  0  0  0
   21.8486   -3.5333  -13.6078 O   0  0  0  0  0  0  0  0  0  0  0  0
  2  4  1  0
  2  1  1  0
  3  2  2  0
  5  4  1  0
  6  5  1  0
  6  7  1  1
  8  9  2  0
  8  6  1  0
 11 10  1  6
 11 12  1  0
 12  8  1  0
 13 11  1  0
 13 19  1  0
 14 13  2  0
 16 18  1  0
 16 15  1  6
 17 16  1  0
 18 19  1  1
 18 20  1  0
 20 22  1  0
 21 20  2  0
M  END
$$$$
