QAT.pdb
     RDKit          3D

 22 21  0  0  1  0  0  0  0  0999 V2000
   23.6476  -19.9562  -10.0189 N   0  0  0  0  0  0  0  0  0  0  0  0
   24.2703  -20.8428   -9.1039 C   0  0  0  0  0  0  0  0  0  0  0  0
   23.6434  -21.3672   -8.1390 O   0  0  0  0  0  0  0  0  0  0  0  0
   25.7103  -21.1467   -9.3128 C   0  0  0  0  0  0  0  0  0  0  0  0
   26.2546  -20.2810  -10.4283 C   0  0  0  0  0  0  0  0  0  0  0  0
   25.8845  -20.7842  -11.7846 C   0  0  2  0  0  0  0  0  0  0  0  0
   26.2393  -22.1787  -11.9149 N   0  0  0  0  0  0  0  0  0  0  0  0
   26.3890  -19.9576  -12.8855 C   0  0  0  0  0  0  0  0  0  0  0  0
   26.1935  -18.7227  -12.8685 O   0  0  0  0  0  0  0  0  0  0  0  0
   28.2405  -20.7832  -16.0809 C   0  0  0  0  0  0  0  0  0  0  0  0
   27.5368  -19.8297  -15.1167 C   0  0  2  0  0  0  0  0  0  0  0  0
   27.0958  -20.5526  -13.9660 N   0  0  0  0  0  0  0  0  0  0  0  0
   26.3756  -19.1660  -15.8010 C   0  0  0  0  0  0  0  0  0  0  0  0
   25.2542  -19.7314  -15.9033 O   0  0  0  0  0  0  0  0  0  0  0  0
   25.6604  -15.3793  -15.1140 C   0  0  0  0  0  0  0  0  0  0  0  0
   24.6832  -16.3499  -15.7385 C   0  0  1  0  0  0  0  0  0  0  0  0
   23.7015  -15.5536  -16.3730 O   0  0  0  0  0  0  0  0  0  0  0  0
   25.3579  -17.1302  -16.8462 C   0  0  2  0  0  0  0  0  0  0  0  0
   26.5021  -17.8748  -16.3577 N   0  0  0  0  0  0  0  0  0  0  0  0
   25.8138  -16.1322  -17.8584 C   0  0  0  0  0  0  0  0  0  0  0  0
   27.0191  -15.8098  -17.9851 O   0  0  0  0  0  0  0  0  0  0  0  0
   24.9011  -15.5346  -18.6890 O   0  0  0  0  0  0  0  0  0  0  0  0
  2  4  1  0
  2  1  1  0
  3  2  2  0
  5  4  1  0
  6  5  1  0
  6  7  1  6
  8  9  2  0
  8  6  1  0
 11 10  1  6
 11 12  1  0
 12  8  1  0
 13 11  1  0
 13 19  1  0
 14 13  2  0
 16 18  1  0
 16 15  1  6
 17 16  1  0
 18 19  1  1
 18 20  1  0
 20 22  1  0
 21 20  2  0
M  END
$$$$
