QAT.pdb
     RDKit          3D

 22 21  0  0  1  0  0  0  0  0999 V2000
   17.6336  -12.6445  -14.1531 N   0  0  0  0  0  0  0  0  0  0  0  0
   16.3303  -12.3778  -13.6621 C   0  0  0  0  0  0  0  0  0  0  0  0
   15.8653  -12.9506  -12.6351 O   0  0  0  0  0  0  0  0  0  0  0  0
   15.5065  -11.3857  -14.4018 C   0  0  0  0  0  0  0  0  0  0  0  0
   16.0508   -9.9944  -14.1607 C   0  0  0  0  0  0  0  0  0  0  0  0
   15.3394   -9.2771  -13.0610 C   0  0  2  0  0  0  0  0  0  0  0  0
   13.9363   -9.1416  -13.3778 N   0  0  0  0  0  0  0  0  0  0  0  0
   15.9659   -8.0097  -12.6727 C   0  0  0  0  0  0  0  0  0  0  0  0
   16.1401   -7.1194  -13.5331 O   0  0  0  0  0  0  0  0  0  0  0  0
   16.7994   -6.3878   -9.4087 C   0  0  0  0  0  0  0  0  0  0  0  0
   17.0727   -6.6238  -10.8932 C   0  0  2  0  0  0  0  0  0  0  0  0
   16.3736   -7.7914  -11.3283 N   0  0  0  0  0  0  0  0  0  0  0  0
   18.5488   -6.7725  -11.1301 C   0  0  0  0  0  0  0  0  0  0  0  0
   19.2443   -7.6014  -10.4845 O   0  0  0  0  0  0  0  0  0  0  0  0
   20.0203   -6.3950  -14.8538 C   0  0  0  0  0  0  0  0  0  0  0  0
   20.7300   -7.0558  -13.6934 C   0  0  1  0  0  0  0  0  0  0  0  0
   22.1047   -7.0441  -14.0254 O   0  0  0  0  0  0  0  0  0  0  0  0
   20.6008   -6.2043  -12.4488 C   0  0  2  0  0  0  0  0  0  0  0  0
   19.2130   -5.9818  -12.0927 N   0  0  0  0  0  0  0  0  0  0  0  0
   21.2480   -4.8944  -12.7554 C   0  0  0  0  0  0  0  0  0  0  0  0
   20.5860   -3.8410  -12.9122 O   0  0  0  0  0  0  0  0  0  0  0  0
   22.6117   -4.8167  -12.8744 O   0  0  0  0  0  0  0  0  0  0  0  0
  2  4  1  0
  2  1  1  0
  3  2  2  0
  5  4  1  0
  6  5  1  0
  6  7  1  6
  8  9  2  0
  8  6  1  0
 11 10  1  1
 11 12  1  0
 12  8  1  0
 13 11  1  0
 13 19  1  0
 14 13  2  0
 16 18  1  0
 16 15  1  6
 17 16  1  0
 18 19  1  6
 18 20  1  0
 20 22  1  0
 21 20  2  0
M  END
$$$$
