QAT.pdb
     RDKit          3D

 22 21  0  0  1  0  0  0  0  0999 V2000
   16.2391   -9.6145  -18.5032 N   0  0  0  0  0  0  0  0  0  0  0  0
   16.6244  -10.8036  -19.1728 C   0  0  0  0  0  0  0  0  0  0  0  0
   16.0103  -11.2346  -20.1906 O   0  0  0  0  0  0  0  0  0  0  0  0
   17.7945  -11.5468  -18.6357 C   0  0  0  0  0  0  0  0  0  0  0  0
   18.3407  -10.8247  -17.4231 C   0  0  0  0  0  0  0  0  0  0  0  0
   19.4800  -11.5476  -16.7834 C   0  0  2  0  0  0  0  0  0  0  0  0
   19.0421  -12.8320  -16.2873 N   0  0  0  0  0  0  0  0  0  0  0  0
   20.1984  -10.7579  -15.7785 C   0  0  0  0  0  0  0  0  0  0  0  0
   19.6263  -10.4545  -14.7090 O   0  0  0  0  0  0  0  0  0  0  0  0
   23.7636   -9.7880  -15.2597 C   0  0  0  0  0  0  0  0  0  0  0  0
   22.2702   -9.4953  -15.1258 C   0  0  2  0  0  0  0  0  0  0  0  0
   21.5360  -10.3386  -16.0154 N   0  0  0  0  0  0  0  0  0  0  0  0
   21.9979   -8.0483  -15.4240 C   0  0  0  0  0  0  0  0  0  0  0  0
   21.9846   -7.6049  -16.6033 O   0  0  0  0  0  0  0  0  0  0  0  0
   19.2617   -6.1273  -15.6248 C   0  0  0  0  0  0  0  0  0  0  0  0
   20.0307   -5.3819  -14.5571 C   0  0  1  0  0  0  0  0  0  0  0  0
   19.5851   -5.9088  -13.3226 O   0  0  0  0  0  0  0  0  0  0  0  0
   21.5034   -5.7213  -14.6410 C   0  0  2  0  0  0  0  0  0  0  0  0
   21.7453   -7.1276  -14.3840 N   0  0  0  0  0  0  0  0  0  0  0  0
   22.1925   -4.9033  -13.5996 C   0  0  0  0  0  0  0  0  0  0  0  0
   22.6629   -5.4099  -12.5532 O   0  0  0  0  0  0  0  0  0  0  0  0
   22.3275   -3.5498  -13.7717 O   0  0  0  0  0  0  0  0  0  0  0  0
  2  4  1  0
  2  1  1  0
  3  2  2  0
  5  4  1  0
  6  5  1  0
  6  7  1  1
  8  9  2  0
  8  6  1  0
 11 10  1  6
 11 12  1  0
 12  8  1  0
 13 11  1  0
 13 19  1  0
 14 13  2  0
 16 18  1  0
 16 15  1  6
 17 16  1  0
 18 19  1  1
 18 20  1  0
 20 22  1  0
 21 20  2  0
M  END
$$$$
