QAT.pdb
     RDKit          3D

 22 21  0  0  1  0  0  0  0  0999 V2000
   17.2741  -15.5264  -14.7472 N   0  0  0  0  0  0  0  0  0  0  0  0
   16.9860  -14.3125  -15.4212 C   0  0  0  0  0  0  0  0  0  0  0  0
   16.1693  -13.4630  -14.9627 O   0  0  0  0  0  0  0  0  0  0  0  0
   17.6841  -14.0586  -16.7089 C   0  0  0  0  0  0  0  0  0  0  0  0
   18.6754  -12.9286  -16.5340 C   0  0  0  0  0  0  0  0  0  0  0  0
   19.3984  -12.5922  -17.7965 C   0  0  2  0  0  0  0  0  0  0  0  0
   20.3607  -13.6228  -18.1117 N   0  0  0  0  0  0  0  0  0  0  0  0
   19.9741  -11.2439  -17.8129 C   0  0  0  0  0  0  0  0  0  0  0  0
   21.0518  -11.0268  -17.2172 O   0  0  0  0  0  0  0  0  0  0  0  0
   19.0586   -8.0628  -19.6188 C   0  0  0  0  0  0  0  0  0  0  0  0
   19.7924   -8.8427  -18.5292 C   0  0  2  0  0  0  0  0  0  0  0  0
   19.3144  -10.1888  -18.5002 N   0  0  0  0  0  0  0  0  0  0  0  0
   19.5912   -8.1815  -17.1952 C   0  0  0  0  0  0  0  0  0  0  0  0
   18.5270   -8.3267  -16.5364 O   0  0  0  0  0  0  0  0  0  0  0  0
   21.3631   -8.6136  -14.0344 C   0  0  0  0  0  0  0  0  0  0  0  0
   21.5041   -7.1439  -14.3613 C   0  0  1  0  0  0  0  0  0  0  0  0
   22.7294   -7.0195  -15.0564 O   0  0  0  0  0  0  0  0  0  0  0  0
   20.4310   -6.7215  -15.3417 C   0  0  2  0  0  0  0  0  0  0  0  0
   20.5963   -7.3676  -16.6291 N   0  0  0  0  0  0  0  0  0  0  0  0
   20.5611   -5.2439  -15.5105 C   0  0  0  0  0  0  0  0  0  0  0  0
   20.9567   -4.7246  -16.5812 O   0  0  0  0  0  0  0  0  0  0  0  0
   20.2428   -4.4064  -14.4726 O   0  0  0  0  0  0  0  0  0  0  0  0
  2  4  1  0
  2  1  1  0
  3  2  2  0
  5  4  1  0
  6  5  1  0
  6  7  1  1
  8  9  2  0
  8  6  1  0
 11 10  1  6
 11 12  1  0
 12  8  1  0
 13 11  1  0
 13 19  1  0
 14 13  2  0
 16 18  1  0
 16 15  1  6
 17 16  1  0
 18 19  1  6
 18 20  1  0
 20 22  1  0
 21 20  2  0
M  END
$$$$
