QAT.pdb
     RDKit          3D

 22 21  0  0  1  0  0  0  0  0999 V2000
   26.3652  -13.7400  -16.0001 N   0  0  0  0  0  0  0  0  0  0  0  0
   25.4053  -13.8002  -17.0420 C   0  0  0  0  0  0  0  0  0  0  0  0
   25.6563  -14.3323  -18.1614 O   0  0  0  0  0  0  0  0  0  0  0  0
   24.0670  -13.2090  -16.7790 C   0  0  0  0  0  0  0  0  0  0  0  0
   24.0424  -12.6076  -15.3905 C   0  0  0  0  0  0  0  0  0  0  0  0
   22.7645  -11.8958  -15.0906 C   0  0  2  0  0  0  0  0  0  0  0  0
   21.6360  -12.6993  -15.5010 N   0  0  0  0  0  0  0  0  0  0  0  0
   22.7109  -10.5241  -15.6056 C   0  0  0  0  0  0  0  0  0  0  0  0
   23.6513   -9.7371  -15.3613 O   0  0  0  0  0  0  0  0  0  0  0  0
   20.3279   -8.7088  -17.8992 C   0  0  0  0  0  0  0  0  0  0  0  0
   21.4432   -8.7516  -16.8560 C   0  0  2  0  0  0  0  0  0  0  0  0
   21.5992  -10.0888  -16.3774 N   0  0  0  0  0  0  0  0  0  0  0  0
   21.1272   -7.8179  -15.7222 C   0  0  0  0  0  0  0  0  0  0  0  0
   20.5299   -8.2118  -14.6851 O   0  0  0  0  0  0  0  0  0  0  0  0
   21.7854   -3.4438  -13.5201 C   0  0  0  0  0  0  0  0  0  0  0  0
   22.1301   -4.3630  -14.6704 C   0  0  1  0  0  0  0  0  0  0  0  0
   23.3852   -4.9296  -14.3482 O   0  0  0  0  0  0  0  0  0  0  0  0
   21.1576   -5.5217  -14.7227 C   0  0  2  0  0  0  0  0  0  0  0  0
   21.4918   -6.4553  -15.7805 N   0  0  0  0  0  0  0  0  0  0  0  0
   19.8088   -4.9388  -14.9865 C   0  0  0  0  0  0  0  0  0  0  0  0
   19.4488   -4.5754  -16.1315 O   0  0  0  0  0  0  0  0  0  0  0  0
   18.9165   -4.7861  -13.9568 O   0  0  0  0  0  0  0  0  0  0  0  0
  2  4  1  0
  2  1  1  0
  3  2  2  0
  5  4  1  0
  6  5  1  0
  6  7  1  6
  8  9  2  0
  8  6  1  0
 11 10  1  6
 11 12  1  0
 12  8  1  0
 13 11  1  0
 13 19  1  0
 14 13  2  0
 16 18  1  0
 16 15  1  1
 17 16  1  0
 18 19  1  6
 18 20  1  0
 20 22  1  0
 21 20  2  0
M  END
$$$$
