QAT.pdb
     RDKit          3D

 22 21  0  0  1  0  0  0  0  0999 V2000
   13.4688  -23.9915   -1.6236 N   0  0  0  0  0  0  0  0  0  0  0  0
   12.1917  -23.5057   -1.2444 C   0  0  0  0  0  0  0  0  0  0  0  0
   11.1779  -23.6160   -1.9921 O   0  0  0  0  0  0  0  0  0  0  0  0
   12.0725  -22.8490    0.0839 C   0  0  0  0  0  0  0  0  0  0  0  0
   13.4198  -22.8509    0.7731 C   0  0  0  0  0  0  0  0  0  0  0  0
   13.9912  -21.4804    0.9310 C   0  0  2  0  0  0  0  0  0  0  0  0
   14.2294  -20.8855   -0.3640 N   0  0  0  0  0  0  0  0  0  0  0  0
   15.1592  -21.4195    1.8151 C   0  0  0  0  0  0  0  0  0  0  0  0
   16.2722  -21.8021    1.3929 O   0  0  0  0  0  0  0  0  0  0  0  0
   17.1637  -19.8119    3.3385 C   0  0  0  0  0  0  0  0  0  0  0  0
   16.1394  -20.7181    4.0195 C   0  0  2  0  0  0  0  0  0  0  0  0
   15.0307  -20.9294    3.1434 N   0  0  0  0  0  0  0  0  0  0  0  0
   15.6823  -20.1025    5.3115 C   0  0  0  0  0  0  0  0  0  0  0  0
   14.8382  -19.1674    5.3388 O   0  0  0  0  0  0  0  0  0  0  0  0
   17.5513  -20.9451    9.1914 C   0  0  0  0  0  0  0  0  0  0  0  0
   16.0563  -20.9652    8.9647 C   0  0  1  0  0  0  0  0  0  0  0  0
   15.4838  -20.3801   10.1181 O   0  0  0  0  0  0  0  0  0  0  0  0
   15.6898  -20.0510    7.8154 C   0  0  2  0  0  0  0  0  0  0  0  0
   16.1871  -20.5545    6.5499 N   0  0  0  0  0  0  0  0  0  0  0  0
   16.3188  -18.7278    8.1018 C   0  0  0  0  0  0  0  0  0  0  0  0
   17.3919  -18.3659    7.5631 O   0  0  0  0  0  0  0  0  0  0  0  0
   15.7205  -17.8621    8.9807 O   0  0  0  0  0  0  0  0  0  0  0  0
  2  4  1  0
  2  1  1  0
  3  2  2  0
  5  4  1  0
  6  5  1  0
  6  7  1  6
  8  9  2  0
  8  6  1  0
 11 10  1  6
 11 12  1  0
 12  8  1  0
 13 11  1  0
 13 19  1  0
 14 13  2  0
 16 18  1  0
 16 15  1  1
 17 16  1  0
 18 19  1  6
 18 20  1  0
 20 22  1  0
 21 20  2  0
M  END
$$$$
