QAT.pdb
     RDKit          3D

 22 21  0  0  1  0  0  0  0  0999 V2000
   11.0111  -15.4061  -11.4194 N   0  0  0  0  0  0  0  0  0  0  0  0
   11.2157  -14.0746  -10.9766 C   0  0  0  0  0  0  0  0  0  0  0  0
   10.9125  -13.6975   -9.8084 O   0  0  0  0  0  0  0  0  0  0  0  0
   11.8088  -13.1124  -11.9421 C   0  0  0  0  0  0  0  0  0  0  0  0
   12.9733  -12.3959  -11.2933 C   0  0  0  0  0  0  0  0  0  0  0  0
   13.6446  -11.4307  -12.2140 C   0  0  2  0  0  0  0  0  0  0  0  0
   14.2150  -12.1298  -13.3424 N   0  0  0  0  0  0  0  0  0  0  0  0
   14.5986  -10.5376  -11.5492 C   0  0  0  0  0  0  0  0  0  0  0  0
   14.3316  -10.0856  -10.4144 O   0  0  0  0  0  0  0  0  0  0  0  0
   17.9033   -9.0472  -12.6303 C   0  0  0  0  0  0  0  0  0  0  0  0
   16.7653   -9.2688  -11.6353 C   0  0  2  0  0  0  0  0  0  0  0  0
   15.8192  -10.1860  -12.1876 N   0  0  0  0  0  0  0  0  0  0  0  0
   16.1036   -7.9607  -11.3066 C   0  0  0  0  0  0  0  0  0  0  0  0
   15.1928   -7.4774  -12.0308 O   0  0  0  0  0  0  0  0  0  0  0  0
   15.0830   -6.7159   -7.5797 C   0  0  0  0  0  0  0  0  0  0  0  0
   15.9162   -5.6991   -8.3272 C   0  0  1  0  0  0  0  0  0  0  0  0
   17.2566   -5.9477   -7.9509 O   0  0  0  0  0  0  0  0  0  0  0  0
   15.8517   -5.9639   -9.8161 C   0  0  2  0  0  0  0  0  0  0  0  0
   16.4828   -7.2217  -10.1650 N   0  0  0  0  0  0  0  0  0  0  0  0
   16.5798   -4.8443  -10.4833 C   0  0  0  0  0  0  0  0  0  0  0  0
   17.6673   -5.0165  -11.0835 O   0  0  0  0  0  0  0  0  0  0  0  0
   16.0605   -3.5758  -10.4516 O   0  0  0  0  0  0  0  0  0  0  0  0
  2  4  1  0
  2  1  1  0
  3  2  2  0
  5  4  1  0
  6  5  1  0
  6  7  1  6
  8  9  2  0
  8  6  1  0
 11 10  1  6
 11 12  1  0
 12  8  1  0
 13 11  1  0
 13 19  1  0
 14 13  2  0
 16 18  1  0
 16 15  1  1
 17 16  1  0
 18 19  1  1
 18 20  1  0
 20 22  1  0
 21 20  2  0
M  END
$$$$
