QAT.pdb
     RDKit          3D

 22 21  0  0  1  0  0  0  0  0999 V2000
   18.2542  -14.8640  -16.2048 N   0  0  0  0  0  0  0  0  0  0  0  0
   17.3864  -14.3274  -17.1896 C   0  0  0  0  0  0  0  0  0  0  0  0
   16.7023  -15.0616  -17.9591 O   0  0  0  0  0  0  0  0  0  0  0  0
   17.2995  -12.8473  -17.2967 C   0  0  0  0  0  0  0  0  0  0  0  0
   18.1811  -12.2103  -16.2445 C   0  0  0  0  0  0  0  0  0  0  0  0
   19.0200  -11.1004  -16.7870 C   0  0  2  0  0  0  0  0  0  0  0  0
   19.9058  -11.5986  -17.8139 N   0  0  0  0  0  0  0  0  0  0  0  0
   19.7144  -10.3201  -15.7581 C   0  0  0  0  0  0  0  0  0  0  0  0
   19.0700   -9.8727  -14.7844 O   0  0  0  0  0  0  0  0  0  0  0  0
   23.2941   -9.7903  -14.8696 C   0  0  0  0  0  0  0  0  0  0  0  0
   21.8495   -9.2954  -14.9194 C   0  0  2  0  0  0  0  0  0  0  0  0
   21.1103  -10.0721  -15.8636 N   0  0  0  0  0  0  0  0  0  0  0  0
   21.8140   -7.8397  -15.2894 C   0  0  0  0  0  0  0  0  0  0  0  0
   22.0558   -7.4469  -16.4619 O   0  0  0  0  0  0  0  0  0  0  0  0
   19.3828   -5.4134  -15.8146 C   0  0  0  0  0  0  0  0  0  0  0  0
   20.1829   -4.8175  -14.6781 C   0  0  1  0  0  0  0  0  0  0  0  0
   19.5348   -5.2327  -13.4916 O   0  0  0  0  0  0  0  0  0  0  0  0
   21.5633   -5.4365  -14.6303 C   0  0  2  0  0  0  0  0  0  0  0  0
   21.5057   -6.8533  -14.3276 N   0  0  0  0  0  0  0  0  0  0  0  0
   22.3132   -4.7308  -13.5494 C   0  0  0  0  0  0  0  0  0  0  0  0
   22.6044   -5.2867  -12.4637 O   0  0  0  0  0  0  0  0  0  0  0  0
   22.7072   -3.4297  -13.7278 O   0  0  0  0  0  0  0  0  0  0  0  0
  2  4  1  0
  2  1  1  0
  3  2  2  0
  5  4  1  0
  6  5  1  0
  6  7  1  6
  8  9  2  0
  8  6  1  0
 11 10  1  6
 11 12  1  0
 12  8  1  0
 13 11  1  0
 13 19  1  0
 14 13  2  0
 16 18  1  0
 16 15  1  6
 17 16  1  0
 18 19  1  1
 18 20  1  0
 20 22  1  0
 21 20  2  0
M  END
$$$$
