QAT.pdb
     RDKit          3D

 22 21  0  0  1  0  0  0  0  0999 V2000
   15.7119  -11.2383  -10.6019 N   0  0  0  0  0  0  0  0  0  0  0  0
   14.4527  -11.4425  -11.2212 C   0  0  0  0  0  0  0  0  0  0  0  0
   13.4612  -11.9156  -10.5950 O   0  0  0  0  0  0  0  0  0  0  0  0
   14.3252  -11.0781  -12.6567 C   0  0  0  0  0  0  0  0  0  0  0  0
   15.5773  -10.3594  -13.1105 C   0  0  0  0  0  0  0  0  0  0  0  0
   15.4947   -9.8901  -14.5256 C   0  0  2  0  0  0  0  0  0  0  0  0
   15.3478  -11.0165  -15.4184 N   0  0  0  0  0  0  0  0  0  0  0  0
   16.5785   -8.9837  -14.9175 C   0  0  0  0  0  0  0  0  0  0  0  0
   17.5768   -9.4397  -15.5165 O   0  0  0  0  0  0  0  0  0  0  0  0
   16.8262   -5.2589  -15.1372 C   0  0  0  0  0  0  0  0  0  0  0  0
   17.4734   -6.6392  -15.0380 C   0  0  2  0  0  0  0  0  0  0  0  0
   16.4979   -7.5959  -14.6201 N   0  0  0  0  0  0  0  0  0  0  0  0
   18.6247   -6.6026  -14.0735 C   0  0  0  0  0  0  0  0  0  0  0  0
   18.4517   -6.7031  -12.8295 O   0  0  0  0  0  0  0  0  0  0  0  0
   21.6824   -8.8596  -14.0706 C   0  0  0  0  0  0  0  0  0  0  0  0
   22.1663   -7.4280  -14.1300 C   0  0  1  0  0  0  0  0  0  0  0  0
   22.3267   -7.1323  -15.5037 O   0  0  0  0  0  0  0  0  0  0  0  0
   21.0874   -6.4909  -13.6314 C   0  0  2  0  0  0  0  0  0  0  0  0
   19.9516   -6.4530  -14.5319 N   0  0  0  0  0  0  0  0  0  0  0  0
   21.7011   -5.1323  -13.5533 C   0  0  0  0  0  0  0  0  0  0  0  0
   21.3911   -4.2110  -14.3456 O   0  0  0  0  0  0  0  0  0  0  0  0
   22.6383   -4.8596  -12.5903 O   0  0  0  0  0  0  0  0  0  0  0  0
  2  4  1  0
  2  1  1  0
  3  2  2  0
  5  4  1  0
  6  5  1  0
  6  7  1  6
  8  9  2  0
  8  6  1  0
 11 10  1  1
 11 12  1  0
 12  8  1  0
 13 11  1  0
 13 19  1  0
 14 13  2  0
 16 18  1  0
 16 15  1  6
 17 16  1  0
 18 19  1  6
 18 20  1  0
 20 22  1  0
 21 20  2  0
M  END
$$$$
