YPL.pdb
     RDKit          3D

 28 29  0  0  1  0  0  0  0  0999 V2000
   16.2902  -16.3007  -17.9541 O   0  0  0  0  0  0  0  0  0  0  0  0
   17.1762  -17.0973  -17.2266 C   0  0  0  0  0  0  0  0  0  0  0  0
   18.4508  -17.3577  -17.6426 C   0  0  0  0  0  0  0  0  0  0  0  0
   19.3041  -18.1465  -16.9063 C   0  0  0  0  0  0  0  0  0  0  0  0
   18.8834  -18.6943  -15.7220 C   0  0  0  0  0  0  0  0  0  0  0  0
   19.7635  -19.5423  -14.8955 C   0  0  0  0  0  0  0  0  0  0  0  0
   20.0430  -20.8475  -15.5660 C   0  0  2  0  0  0  0  0  0  0  0  0
   18.8936  -21.6751  -15.7377 N   0  0  0  0  0  0  0  0  0  0  0  0
   21.1990  -21.5576  -14.9402 C   0  0  0  0  0  0  0  0  0  0  0  0
   21.0176  -22.2187  -13.8632 O   0  0  0  0  0  0  0  0  0  0  0  0
   17.6025  -18.4432  -15.2867 C   0  0  0  0  0  0  0  0  0  0  0  0
   16.7640  -17.6515  -16.0379 C   0  0  0  0  0  0  0  0  0  0  0  0
   22.5075  -21.5466  -15.4711 N   0  0  0  0  0  0  0  0  0  0  0  0
   22.8860  -20.8456  -16.6913 C   0  0  0  0  0  0  0  0  0  0  0  0
   24.4137  -20.9772  -16.7369 C   0  0  0  0  0  0  0  0  0  0  0  0
   24.5746  -22.3740  -16.1356 C   0  0  0  0  0  0  0  0  0  0  0  0
   23.6724  -22.2150  -14.9092 C   0  0  1  0  0  0  0  0  0  0  0  0
   24.3535  -21.2566  -13.9962 C   0  0  0  0  0  0  0  0  0  0  0  0
   24.2827  -19.9936  -14.1745 O   0  0  0  0  0  0  0  0  0  0  0  0
   26.5200  -21.2530   -8.1923 C   0  0  0  0  0  0  0  0  0  0  0  0
   26.3174  -20.4977   -9.4901 C   0  0  2  0  0  0  0  0  0  0  0  0
   25.8615  -19.0963   -9.2752 C   0  0  0  0  0  0  0  0  0  0  0  0
   25.6991  -21.2740  -10.5795 C   0  0  0  0  0  0  0  0  0  0  0  0
   25.7543  -20.7171  -11.9499 C   0  0  2  0  0  0  0  0  0  0  0  0
   25.1185  -21.6786  -12.8794 N   0  0  0  0  0  0  0  0  0  0  0  0
   27.1011  -20.4922  -12.4575 C   0  0  0  0  0  0  0  0  0  0  0  0
   27.7880  -19.3036  -12.3658 O   0  0  0  0  0  0  0  0  0  0  0  0
   27.7245  -21.4365  -13.0404 O   0  0  0  0  0  0  0  0  0  0  0  0
  2 12  2  0
  2  1  1  0
  3  2  1  0
  4  5  1  0
  4  3  2  0
  5 11  2  0
  6  5  1  0
  7  6  1  0
  7  9  1  0
  7  8  1  1
  9 10  2  0
  9 13  1  0
 11 12  1  0
 13 14  1  0
 14 15  1  0
 16 15  1  0
 17 13  1  0
 17 16  1  0
 17 18  1  1
 19 18  2  0
 21 20  1  1
 21 22  1  0
 23 21  1  0
 24 23  1  1
 24 25  1  0
 25 18  1  0
 26 27  1  0
 26 24  1  0
 28 26  2  0
M  END
$$$$
