YPL.pdb
     RDKit          3D

 28 29  0  0  1  0  0  0  0  0999 V2000
   18.6461  -18.8170  -14.4872 O   0  0  0  0  0  0  0  0  0  0  0  0
   19.7121  -19.3904  -13.7917 C   0  0  0  0  0  0  0  0  0  0  0  0
   19.5888  -20.5384  -13.0622 C   0  0  0  0  0  0  0  0  0  0  0  0
   20.6559  -21.0828  -12.3858 C   0  0  0  0  0  0  0  0  0  0  0  0
   21.8828  -20.4725  -12.4330 C   0  0  0  0  0  0  0  0  0  0  0  0
   23.0574  -21.0211  -11.7285 C   0  0  0  0  0  0  0  0  0  0  0  0
   24.1227  -21.4323  -12.6914 C   0  0  2  0  0  0  0  0  0  0  0  0
   23.6903  -22.3677  -13.6781 N   0  0  0  0  0  0  0  0  0  0  0  0
   25.3765  -21.8437  -11.9909 C   0  0  0  0  0  0  0  0  0  0  0  0
   25.4635  -23.0213  -11.5054 O   0  0  0  0  0  0  0  0  0  0  0  0
   22.0263  -19.3150  -13.1629 C   0  0  0  0  0  0  0  0  0  0  0  0
   20.9463  -18.7862  -13.8325 C   0  0  0  0  0  0  0  0  0  0  0  0
   26.4964  -20.9995  -11.8256 N   0  0  0  0  0  0  0  0  0  0  0  0
   26.6411  -19.7017  -12.4723 C   0  0  0  0  0  0  0  0  0  0  0  0
   27.9071  -19.1101  -11.8392 C   0  0  0  0  0  0  0  0  0  0  0  0
   28.7313  -20.3857  -11.6602 C   0  0  0  0  0  0  0  0  0  0  0  0
   27.6681  -21.2710  -11.0053 C   0  0  1  0  0  0  0  0  0  0  0  0
   27.4173  -20.7096   -9.6496 C   0  0  0  0  0  0  0  0  0  0  0  0
   26.5332  -19.8096   -9.4486 O   0  0  0  0  0  0  0  0  0  0  0  0
   30.3041  -20.5678   -4.1374 C   0  0  0  0  0  0  0  0  0  0  0  0
   29.0032  -20.3975   -4.8954 C   0  0  2  0  0  0  0  0  0  0  0  0
   27.8050  -20.6212   -4.0396 C   0  0  0  0  0  0  0  0  0  0  0  0
   28.9963  -20.9450   -6.2635 C   0  0  0  0  0  0  0  0  0  0  0  0
   27.8772  -20.5717   -7.1575 C   0  0  2  0  0  0  0  0  0  0  0  0
   28.1364  -21.1328   -8.5031 N   0  0  0  0  0  0  0  0  0  0  0  0
   27.7038  -19.1372   -7.3428 C   0  0  0  0  0  0  0  0  0  0  0  0
   28.5641  -18.3251   -8.0453 O   0  0  0  0  0  0  0  0  0  0  0  0
   26.6981  -18.5490   -6.8300 O   0  0  0  0  0  0  0  0  0  0  0  0
  2 12  2  0
  2  1  1  0
  3  2  1  0
  4  5  1  0
  4  3  2  0
  5 11  2  0
  6  5  1  0
  7  6  1  0
  7  9  1  0
  7  8  1  1
  9 10  2  0
  9 13  1  0
 11 12  1  0
 13 14  1  0
 14 15  1  0
 16 15  1  0
 17 13  1  0
 17 16  1  0
 17 18  1  1
 19 18  2  0
 21 20  1  1
 21 22  1  0
 23 21  1  0
 24 23  1  1
 24 25  1  0
 25 18  1  0
 26 27  1  0
 26 24  1  0
 28 26  2  0
M  END
$$$$
