YPL.pdb
     RDKit          3D

 28 29  0  0  1  0  0  0  0  0999 V2000
   20.4913  -17.4863  -16.5621 O   0  0  0  0  0  0  0  0  0  0  0  0
   21.2188  -18.2067  -15.6131 C   0  0  0  0  0  0  0  0  0  0  0  0
   20.7251  -19.3154  -14.9866 C   0  0  0  0  0  0  0  0  0  0  0  0
   21.4633  -20.0075  -14.0546 C   0  0  0  0  0  0  0  0  0  0  0  0
   22.7290  -19.5898  -13.7328 C   0  0  0  0  0  0  0  0  0  0  0  0
   23.5603  -20.3020  -12.7436 C   0  0  0  0  0  0  0  0  0  0  0  0
   24.4772  -21.2761  -13.4082 C   0  0  2  0  0  0  0  0  0  0  0  0
   23.8091  -22.3263  -14.1056 N   0  0  0  0  0  0  0  0  0  0  0  0
   25.5405  -21.7622  -12.4781 C   0  0  0  0  0  0  0  0  0  0  0  0
   25.3964  -22.8912  -11.8996 O   0  0  0  0  0  0  0  0  0  0  0  0
   23.2433  -18.4748  -14.3536 C   0  0  0  0  0  0  0  0  0  0  0  0
   22.4887  -17.7960  -15.2832 C   0  0  0  0  0  0  0  0  0  0  0  0
   26.7199  -21.0415  -12.1891 N   0  0  0  0  0  0  0  0  0  0  0  0
   27.0378  -19.7374  -12.7565 C   0  0  0  0  0  0  0  0  0  0  0  0
   28.3019  -19.3027  -12.0039 C   0  0  0  0  0  0  0  0  0  0  0  0
   28.9839  -20.6604  -11.8309 C   0  0  0  0  0  0  0  0  0  0  0  0
   27.7935  -21.4636  -11.3009 C   0  0  1  0  0  0  0  0  0  0  0  0
   27.4936  -20.9398   -9.9401 C   0  0  0  0  0  0  0  0  0  0  0  0
   26.6915  -19.9622   -9.7586 O   0  0  0  0  0  0  0  0  0  0  0  0
   30.1589  -19.4807   -4.7920 C   0  0  0  0  0  0  0  0  0  0  0  0
   28.8645  -20.0118   -5.3737 C   0  0  2  0  0  0  0  0  0  0  0  0
   28.0217  -20.7078   -4.3621 C   0  0  0  0  0  0  0  0  0  0  0  0
   28.9763  -20.6061   -6.7176 C   0  0  0  0  0  0  0  0  0  0  0  0
   27.7288  -20.9938   -7.4137 C   0  0  2  0  0  0  0  0  0  0  0  0
   28.0732  -21.4863   -8.7670 N   0  0  0  0  0  0  0  0  0  0  0  0
   26.7808  -19.9048   -7.6075 C   0  0  0  0  0  0  0  0  0  0  0  0
   27.0096  -18.7914   -8.3828 O   0  0  0  0  0  0  0  0  0  0  0  0
   25.6461  -19.9424   -7.0319 O   0  0  0  0  0  0  0  0  0  0  0  0
  2 12  2  0
  2  1  1  0
  3  2  1  0
  4  5  1  0
  4  3  2  0
  5 11  2  0
  6  5  1  0
  7  6  1  0
  7  9  1  0
  7  8  1  1
  9 10  2  0
  9 13  1  0
 11 12  1  0
 13 14  1  0
 14 15  1  0
 16 15  1  0
 17 13  1  0
 17 16  1  0
 17 18  1  1
 19 18  2  0
 21 20  1  1
 21 22  1  0
 23 21  1  0
 24 23  1  6
 24 25  1  0
 25 18  1  0
 26 27  1  0
 26 24  1  0
 28 26  2  0
M  END
$$$$
