YPL.pdb
     RDKit          3D

 28 29  0  0  1  0  0  0  0  0999 V2000
   21.0455  -14.4716  -18.8498 O   0  0  0  0  0  0  0  0  0  0  0  0
   21.5387  -15.3172  -17.8546 C   0  0  0  0  0  0  0  0  0  0  0  0
   20.9403  -15.4529  -16.6343 C   0  0  0  0  0  0  0  0  0  0  0  0
   21.4471  -16.2937  -15.6707 C   0  0  0  0  0  0  0  0  0  0  0  0
   22.5807  -17.0229  -15.9222 C   0  0  0  0  0  0  0  0  0  0  0  0
   23.1587  -17.9410  -14.9224 C   0  0  0  0  0  0  0  0  0  0  0  0
   22.9456  -19.3676  -15.3106 C   0  0  2  0  0  0  0  0  0  0  0  0
   21.5743  -19.7454  -15.4209 N   0  0  0  0  0  0  0  0  0  0  0  0
   23.7533  -20.2997  -14.4675 C   0  0  0  0  0  0  0  0  0  0  0  0
   23.2045  -20.8719  -13.4667 O   0  0  0  0  0  0  0  0  0  0  0  0
   23.1975  -16.8992  -17.1460 C   0  0  0  0  0  0  0  0  0  0  0  0
   22.6747  -16.0525  -18.0968 C   0  0  0  0  0  0  0  0  0  0  0  0
   25.1127  -20.5971  -14.7077 N   0  0  0  0  0  0  0  0  0  0  0  0
   25.9204  -19.9471  -15.7318 C   0  0  0  0  0  0  0  0  0  0  0  0
   27.3398  -20.4676  -15.4716 C   0  0  0  0  0  0  0  0  0  0  0  0
   27.0175  -21.8915  -15.0163 C   0  0  0  0  0  0  0  0  0  0  0  0
   25.9206  -21.5770  -13.9960 C   0  0  1  0  0  0  0  0  0  0  0  0
   26.5806  -20.8841  -12.8556 C   0  0  0  0  0  0  0  0  0  0  0  0
   26.8017  -19.6260  -12.8716 O   0  0  0  0  0  0  0  0  0  0  0  0
   26.6461  -18.6465   -8.3536 C   0  0  0  0  0  0  0  0  0  0  0  0
   25.6282  -19.7175   -8.6895 C   0  0  2  0  0  0  0  0  0  0  0  0
   25.3151  -20.5978   -7.5297 C   0  0  0  0  0  0  0  0  0  0  0  0
   25.7845  -20.3395  -10.0163 C   0  0  0  0  0  0  0  0  0  0  0  0
   27.1092  -20.8950  -10.3734 C   0  0  2  0  0  0  0  0  0  0  0  0
   27.0032  -21.5686  -11.6879 N   0  0  0  0  0  0  0  0  0  0  0  0
   27.6155  -21.8963   -9.4443 C   0  0  0  0  0  0  0  0  0  0  0  0
   27.3458  -23.2436   -9.5160 O   0  0  0  0  0  0  0  0  0  0  0  0
   28.3629  -21.5425   -8.4766 O   0  0  0  0  0  0  0  0  0  0  0  0
  2 12  2  0
  2  1  1  0
  3  2  1  0
  4  5  1  0
  4  3  2  0
  5 11  2  0
  6  5  1  0
  7  6  1  0
  7  9  1  0
  7  8  1  1
  9 10  2  0
  9 13  1  0
 11 12  1  0
 13 14  1  0
 14 15  1  0
 16 15  1  0
 17 13  1  0
 17 16  1  0
 17 18  1  1
 19 18  2  0
 21 20  1  1
 21 22  1  0
 23 21  1  0
 24 23  1  1
 24 25  1  0
 25 18  1  0
 26 27  1  0
 26 24  1  0
 28 26  2  0
M  END
$$$$
