YPL.pdb
     RDKit          3D

 28 29  0  0  1  0  0  0  0  0999 V2000
   19.6713  -23.4692   -7.3442 O   0  0  0  0  0  0  0  0  0  0  0  0
   20.5848  -22.7224   -8.0903 C   0  0  0  0  0  0  0  0  0  0  0  0
   21.5163  -21.9044   -7.5171 C   0  0  0  0  0  0  0  0  0  0  0  0
   22.4054  -21.1790   -8.2758 C   0  0  0  0  0  0  0  0  0  0  0  0
   22.3719  -21.2657   -9.6438 C   0  0  0  0  0  0  0  0  0  0  0  0
   23.3077  -20.5110  -10.4990 C   0  0  0  0  0  0  0  0  0  0  0  0
   24.6807  -21.0970  -10.4474 C   0  0  2  0  0  0  0  0  0  0  0  0
   25.3112  -20.9989   -9.1713 N   0  0  0  0  0  0  0  0  0  0  0  0
   25.5354  -20.6104  -11.5720 C   0  0  0  0  0  0  0  0  0  0  0  0
   26.2232  -19.5457  -11.4189 O   0  0  0  0  0  0  0  0  0  0  0  0
   21.4402  -22.0846  -10.2393 C   0  0  0  0  0  0  0  0  0  0  0  0
   20.5593  -22.8022   -9.4625 C   0  0  0  0  0  0  0  0  0  0  0  0
   25.6360  -21.2627  -12.8204 N   0  0  0  0  0  0  0  0  0  0  0  0
   24.8602  -22.4396  -13.1898 C   0  0  0  0  0  0  0  0  0  0  0  0
   25.1832  -22.6466  -14.6752 C   0  0  0  0  0  0  0  0  0  0  0  0
   26.6466  -22.2032  -14.6894 C   0  0  0  0  0  0  0  0  0  0  0  0
   26.5078  -20.8851  -13.9236 C   0  0  1  0  0  0  0  0  0  0  0  0
   25.7523  -19.9536  -14.8053 C   0  0  0  0  0  0  0  0  0  0  0  0
   24.4780  -19.9915  -14.8870 O   0  0  0  0  0  0  0  0  0  0  0  0
   25.6345  -15.2071  -17.6326 C   0  0  0  0  0  0  0  0  0  0  0  0
   25.9156  -15.2602  -16.1446 C   0  0  2  0  0  0  0  0  0  0  0  0
   26.5930  -14.0324  -15.6428 C   0  0  0  0  0  0  0  0  0  0  0  0
   26.3716  -16.5663  -15.6370 C   0  0  0  0  0  0  0  0  0  0  0  0
   25.6746  -17.7814  -16.1155 C   0  0  2  0  0  0  0  0  0  0  0  0
   26.3913  -18.9724  -15.6050 N   0  0  0  0  0  0  0  0  0  0  0  0
   25.6327  -17.9235  -17.5647 C   0  0  0  0  0  0  0  0  0  0  0  0
   26.6611  -18.4121  -18.3372 O   0  0  0  0  0  0  0  0  0  0  0  0
   24.5886  -17.5779  -18.2054 O   0  0  0  0  0  0  0  0  0  0  0  0
  2 12  2  0
  2  1  1  0
  3  2  1  0
  4  5  1  0
  4  3  2  0
  5 11  2  0
  6  5  1  0
  7  6  1  0
  7  9  1  0
  7  8  1  1
  9 10  2  0
  9 13  1  0
 11 12  1  0
 13 14  1  0
 14 15  1  0
 16 15  1  0
 17 13  1  0
 17 16  1  0
 17 18  1  6
 19 18  2  0
 21 20  1  6
 21 22  1  0
 23 21  1  0
 24 23  1  6
 24 25  1  0
 25 18  1  0
 26 27  1  0
 26 24  1  0
 28 26  2  0
M  END
$$$$
