YPL.pdb
     RDKit          3D

 28 29  0  0  1  0  0  0  0  0999 V2000
   20.2435  -15.3566  -17.6874 O   0  0  0  0  0  0  0  0  0  0  0  0
   21.0213  -16.1994  -16.8914 C   0  0  0  0  0  0  0  0  0  0  0  0
   22.3863  -16.1546  -16.8786 C   0  0  0  0  0  0  0  0  0  0  0  0
   23.1294  -16.9968  -16.0844 C   0  0  0  0  0  0  0  0  0  0  0  0
   22.5026  -17.9114  -15.2778 C   0  0  0  0  0  0  0  0  0  0  0  0
   23.2564  -18.8319  -14.4053 C   0  0  0  0  0  0  0  0  0  0  0  0
   24.1010  -19.7675  -15.2068 C   0  0  2  0  0  0  0  0  0  0  0  0
   23.3838  -20.4975  -16.2009 N   0  0  0  0  0  0  0  0  0  0  0  0
   24.9549  -20.6302  -14.3358 C   0  0  0  0  0  0  0  0  0  0  0  0
   24.5287  -21.7821  -13.9869 O   0  0  0  0  0  0  0  0  0  0  0  0
   21.1279  -17.9713  -15.2773 C   0  0  0  0  0  0  0  0  0  0  0  0
   20.4024  -17.1199  -16.0793 C   0  0  0  0  0  0  0  0  0  0  0  0
   26.2293  -20.2494  -13.8617 N   0  0  0  0  0  0  0  0  0  0  0  0
   26.8795  -18.9886  -14.1951 C   0  0  0  0  0  0  0  0  0  0  0  0
   28.1279  -18.9670  -13.3037 C   0  0  0  0  0  0  0  0  0  0  0  0
   28.4753  -20.4562  -13.3032 C   0  0  0  0  0  0  0  0  0  0  0  0
   27.0915  -21.0275  -12.9839 C   0  0  1  0  0  0  0  0  0  0  0  0
   26.7815  -20.6426  -11.5797 C   0  0  0  0  0  0  0  0  0  0  0  0
   27.1033  -19.4989  -11.1104 O   0  0  0  0  0  0  0  0  0  0  0  0
   27.6282  -20.9277   -7.2083 C   0  0  0  0  0  0  0  0  0  0  0  0
   27.4450  -19.6965   -8.0724 C   0  0  2  0  0  0  0  0  0  0  0  0
   27.6459  -18.4286   -7.3174 C   0  0  0  0  0  0  0  0  0  0  0  0
   26.3341  -19.7658   -9.0382 C   0  0  0  0  0  0  0  0  0  0  0  0
   25.7315  -21.0896   -9.3128 C   0  0  2  0  0  0  0  0  0  0  0  0
   26.1150  -21.5120  -10.6793 N   0  0  0  0  0  0  0  0  0  0  0  0
   24.2753  -21.1107   -9.2755 C   0  0  0  0  0  0  0  0  0  0  0  0
   23.4577  -20.9223  -10.3659 O   0  0  0  0  0  0  0  0  0  0  0  0
   23.6725  -21.3103   -8.1723 O   0  0  0  0  0  0  0  0  0  0  0  0
  2 12  2  0
  2  1  1  0
  3  2  1  0
  4  5  1  0
  4  3  2  0
  5 11  2  0
  6  5  1  0
  7  6  1  0
  7  9  1  0
  7  8  1  1
  9 10  2  0
  9 13  1  0
 11 12  1  0
 13 14  1  0
 14 15  1  0
 16 15  1  0
 17 13  1  0
 17 16  1  0
 17 18  1  1
 19 18  2  0
 21 20  1  1
 21 22  1  0
 23 21  1  0
 24 23  1  6
 24 25  1  0
 25 18  1  0
 26 27  1  0
 26 24  1  0
 28 26  2  0
M  END
$$$$
