YPL.pdb
     RDKit          3D

 28 29  0  0  1  0  0  0  0  0999 V2000
   18.7696  -15.4296  -17.8546 O   0  0  0  0  0  0  0  0  0  0  0  0
   19.7171  -16.1435  -17.1188 C   0  0  0  0  0  0  0  0  0  0  0  0
   19.3774  -17.0848  -16.1893 C   0  0  0  0  0  0  0  0  0  0  0  0
   20.3314  -17.7745  -15.4776 C   0  0  0  0  0  0  0  0  0  0  0  0
   21.6625  -17.5252  -15.6922 C   0  0  0  0  0  0  0  0  0  0  0  0
   22.7216  -18.2427  -14.9572 C   0  0  0  0  0  0  0  0  0  0  0  0
   23.1767  -19.4519  -15.7067 C   0  0  2  0  0  0  0  0  0  0  0  0
   22.1276  -20.3544  -16.0536 N   0  0  0  0  0  0  0  0  0  0  0  0
   24.3361  -20.1163  -15.0386 C   0  0  0  0  0  0  0  0  0  0  0  0
   24.1231  -21.0848  -14.2344 O   0  0  0  0  0  0  0  0  0  0  0  0
   22.0240  -16.5802  -16.6247 C   0  0  0  0  0  0  0  0  0  0  0  0
   21.0542  -15.9009  -17.3265 C   0  0  0  0  0  0  0  0  0  0  0  0
   25.6813  -19.7371  -15.2409 N   0  0  0  0  0  0  0  0  0  0  0  0
   26.0961  -18.6245  -16.0856 C   0  0  0  0  0  0  0  0  0  0  0  0
   27.6042  -18.5061  -15.8303 C   0  0  0  0  0  0  0  0  0  0  0  0
   27.9558  -19.9831  -15.6473 C   0  0  0  0  0  0  0  0  0  0  0  0
   26.8541  -20.3736  -14.6588 C   0  0  1  0  0  0  0  0  0  0  0  0
   27.1616  -19.6811  -13.3774 C   0  0  0  0  0  0  0  0  0  0  0  0
   26.7453  -18.4975  -13.1371 O   0  0  0  0  0  0  0  0  0  0  0  0
   24.3231  -21.3013   -9.1658 C   0  0  0  0  0  0  0  0  0  0  0  0
   25.6946  -20.6769   -9.3232 C   0  0  2  0  0  0  0  0  0  0  0  0
   25.8867  -19.4831   -8.4537 C   0  0  0  0  0  0  0  0  0  0  0  0
   26.2072  -20.6250  -10.7038 C   0  0  0  0  0  0  0  0  0  0  0  0
   27.5870  -20.1329  -10.9165 C   0  0  2  0  0  0  0  0  0  0  0  0
   27.9297  -20.2839  -12.3492 N   0  0  0  0  0  0  0  0  0  0  0  0
   28.6093  -20.8601  -10.1761 C   0  0  0  0  0  0  0  0  0  0  0  0
   29.2030  -20.4196   -9.0156 O   0  0  0  0  0  0  0  0  0  0  0  0
   29.0167  -21.9888  -10.6004 O   0  0  0  0  0  0  0  0  0  0  0  0
  2 12  2  0
  2  1  1  0
  3  2  1  0
  4  5  1  0
  4  3  2  0
  5 11  2  0
  6  5  1  0
  7  6  1  0
  7  9  1  0
  7  8  1  1
  9 10  2  0
  9 13  1  0
 11 12  1  0
 13 14  1  0
 14 15  1  0
 16 15  1  0
 17 13  1  0
 17 16  1  0
 17 18  1  1
 19 18  2  0
 21 20  1  6
 21 22  1  0
 23 21  1  0
 24 23  1  6
 24 25  1  0
 25 18  1  0
 26 27  1  0
 26 24  1  0
 28 26  2  0
M  END
$$$$
