YPL.pdb
     RDKit          3D

 28 29  0  0  1  0  0  0  0  0999 V2000
   20.5576  -15.5093  -17.7046 O   0  0  0  0  0  0  0  0  0  0  0  0
   21.2350  -16.4019  -16.8718 C   0  0  0  0  0  0  0  0  0  0  0  0
   22.5186  -16.1959  -16.4533 C   0  0  0  0  0  0  0  0  0  0  0  0
   23.1634  -17.0918  -15.6323 C   0  0  0  0  0  0  0  0  0  0  0  0
   22.5181  -18.2263  -15.2123 C   0  0  0  0  0  0  0  0  0  0  0  0
   23.1663  -19.2134  -14.3278 C   0  0  0  0  0  0  0  0  0  0  0  0
   24.1180  -20.0784  -15.0877 C   0  0  2  0  0  0  0  0  0  0  0  0
   23.5022  -20.8860  -16.0897 N   0  0  0  0  0  0  0  0  0  0  0  0
   25.0202  -20.8456  -14.1770 C   0  0  0  0  0  0  0  0  0  0  0  0
   24.6987  -22.0323  -13.8328 O   0  0  0  0  0  0  0  0  0  0  0  0
   21.2245  -18.4510  -15.6237 C   0  0  0  0  0  0  0  0  0  0  0  0
   20.5968  -17.5425  -16.4453 C   0  0  0  0  0  0  0  0  0  0  0  0
   26.2312  -20.3357  -13.6596 N   0  0  0  0  0  0  0  0  0  0  0  0
   26.7872  -19.0370  -14.0169 C   0  0  0  0  0  0  0  0  0  0  0  0
   27.9814  -18.8702  -13.0685 C   0  0  0  0  0  0  0  0  0  0  0  0
   28.4547  -20.3220  -12.9853 C   0  0  0  0  0  0  0  0  0  0  0  0
   27.1104  -20.9994  -12.7078 C   0  0  1  0  0  0  0  0  0  0  0  0
   26.6963  -20.5874  -11.3385 C   0  0  0  0  0  0  0  0  0  0  0  0
   26.2098  -19.4297  -11.1041 O   0  0  0  0  0  0  0  0  0  0  0  0
   27.6251  -20.8991   -6.3512 C   0  0  0  0  0  0  0  0  0  0  0  0
   27.7222  -19.8672   -7.4566 C   0  0  2  0  0  0  0  0  0  0  0  0
   28.2451  -18.5578   -6.9770 C   0  0  0  0  0  0  0  0  0  0  0  0
   26.6017  -19.8636   -8.4137 C   0  0  0  0  0  0  0  0  0  0  0  0
   26.1260  -21.1652   -8.9340 C   0  0  2  0  0  0  0  0  0  0  0  0
   26.8138  -21.4447  -10.2152 N   0  0  0  0  0  0  0  0  0  0  0  0
   24.6985  -21.2167   -9.2203 C   0  0  0  0  0  0  0  0  0  0  0  0
   24.0709  -20.5107  -10.2206 O   0  0  0  0  0  0  0  0  0  0  0  0
   23.9369  -21.9530   -8.5146 O   0  0  0  0  0  0  0  0  0  0  0  0
  2 12  2  0
  2  1  1  0
  3  2  1  0
  4  5  1  0
  4  3  2  0
  5 11  2  0
  6  5  1  0
  7  6  1  0
  7  9  1  0
  7  8  1  1
  9 10  2  0
  9 13  1  0
 11 12  1  0
 13 14  1  0
 14 15  1  0
 16 15  1  0
 17 13  1  0
 17 16  1  0
 17 18  1  1
 19 18  2  0
 21 20  1  1
 21 22  1  0
 23 21  1  0
 24 23  1  6
 24 25  1  0
 25 18  1  0
 26 27  1  0
 26 24  1  0
 28 26  2  0
M  END
$$$$
