YPL.pdb
     RDKit          3D

 28 29  0  0  1  0  0  0  0  0999 V2000
   27.2021  -13.4015  -18.5077 O   0  0  0  0  0  0  0  0  0  0  0  0
   26.9589  -14.3367  -17.5002 C   0  0  0  0  0  0  0  0  0  0  0  0
   27.6771  -15.4914  -17.3722 C   0  0  0  0  0  0  0  0  0  0  0  0
   27.4169  -16.3967  -16.3697 C   0  0  0  0  0  0  0  0  0  0  0  0
   26.4154  -16.1520  -15.4659 C   0  0  0  0  0  0  0  0  0  0  0  0
   26.1025  -17.0903  -14.3711 C   0  0  0  0  0  0  0  0  0  0  0  0
   25.4957  -18.3506  -14.8952 C   0  0  2  0  0  0  0  0  0  0  0  0
   24.2687  -18.1609  -15.5982 N   0  0  0  0  0  0  0  0  0  0  0  0
   25.4216  -19.4105  -13.8449 C   0  0  0  0  0  0  0  0  0  0  0  0
   24.3075  -19.6383  -13.2644 O   0  0  0  0  0  0  0  0  0  0  0  0
   25.6810  -14.9939  -15.5788 C   0  0  0  0  0  0  0  0  0  0  0  0
   25.9569  -14.1007  -16.5891 C   0  0  0  0  0  0  0  0  0  0  0  0
   26.5247  -20.1946  -13.4420 N   0  0  0  0  0  0  0  0  0  0  0  0
   27.8964  -19.9523  -13.8701 C   0  0  0  0  0  0  0  0  0  0  0  0
   28.7265  -20.9312  -13.0297 C   0  0  0  0  0  0  0  0  0  0  0  0
   27.7519  -22.1076  -12.9589 C   0  0  0  0  0  0  0  0  0  0  0  0
   26.4852  -21.3487  -12.5555 C   0  0  1  0  0  0  0  0  0  0  0  0
   26.6995  -20.8643  -11.1643 C   0  0  0  0  0  0  0  0  0  0  0  0
   27.7354  -20.1910  -10.8398 O   0  0  0  0  0  0  0  0  0  0  0  0
   27.1824  -18.0850   -6.6415 C   0  0  0  0  0  0  0  0  0  0  0  0
   27.2256  -19.5572   -6.9977 C   0  0  2  0  0  0  0  0  0  0  0  0
   28.3536  -20.2750   -6.3416 C   0  0  0  0  0  0  0  0  0  0  0  0
   26.9208  -19.8730   -8.4044 C   0  0  0  0  0  0  0  0  0  0  0  0
   26.1811  -21.1222   -8.6933 C   0  0  2  0  0  0  0  0  0  0  0  0
   25.7765  -21.1162  -10.1177 N   0  0  0  0  0  0  0  0  0  0  0  0
   24.9555  -21.2910   -7.9242 C   0  0  0  0  0  0  0  0  0  0  0  0
   23.7964  -20.5774   -8.1247 O   0  0  0  0  0  0  0  0  0  0  0  0
   24.9103  -22.1480   -6.9841 O   0  0  0  0  0  0  0  0  0  0  0  0
  2 12  2  0
  2  1  1  0
  3  2  1  0
  4  5  1  0
  4  3  2  0
  5 11  2  0
  6  5  1  0
  7  6  1  0
  7  9  1  0
  7  8  1  1
  9 10  2  0
  9 13  1  0
 11 12  1  0
 13 14  1  0
 14 15  1  0
 16 15  1  0
 17 13  1  0
 17 16  1  0
 17 18  1  1
 19 18  2  0
 21 20  1  6
 21 22  1  0
 23 21  1  0
 24 23  1  1
 24 25  1  0
 25 18  1  0
 26 27  1  0
 26 24  1  0
 28 26  2  0
M  END
$$$$
