YPL.pdb
     RDKit          3D

 28 29  0  0  1  0  0  0  0  0999 V2000
   23.9653  -12.9902  -17.9186 O   0  0  0  0  0  0  0  0  0  0  0  0
   24.0192  -14.1361  -17.1231 C   0  0  0  0  0  0  0  0  0  0  0  0
   22.9518  -14.9711  -16.9537 C   0  0  0  0  0  0  0  0  0  0  0  0
   23.0316  -16.0946  -16.1639 C   0  0  0  0  0  0  0  0  0  0  0  0
   24.2038  -16.4015  -15.5222 C   0  0  0  0  0  0  0  0  0  0  0  0
   24.3391  -17.5976  -14.6690 C   0  0  0  0  0  0  0  0  0  0  0  0
   24.9093  -18.7466  -15.4344 C   0  0  2  0  0  0  0  0  0  0  0  0
   24.1338  -19.1381  -16.5662 N   0  0  0  0  0  0  0  0  0  0  0  0
   25.2713  -19.8862  -14.5387 C   0  0  0  0  0  0  0  0  0  0  0  0
   24.3842  -20.7559  -14.2442 O   0  0  0  0  0  0  0  0  0  0  0  0
   25.2900  -15.5719  -15.6809 C   0  0  0  0  0  0  0  0  0  0  0  0
   25.1898  -14.4525  -16.4753 C   0  0  0  0  0  0  0  0  0  0  0  0
   26.5566  -20.0704  -13.9835 N   0  0  0  0  0  0  0  0  0  0  0  0
   27.6753  -19.1619  -14.1993 C   0  0  0  0  0  0  0  0  0  0  0  0
   28.7655  -19.6836  -13.2544 C   0  0  0  0  0  0  0  0  0  0  0  0
   28.4915  -21.1855  -13.3421 C   0  0  0  0  0  0  0  0  0  0  0  0
   26.9764  -21.1684  -13.1247 C   0  0  1  0  0  0  0  0  0  0  0  0
   26.7497  -20.7567  -11.7122 C   0  0  0  0  0  0  0  0  0  0  0  0
   27.5493  -19.9652  -11.1070 O   0  0  0  0  0  0  0  0  0  0  0  0
   26.9729  -18.3436   -7.2530 C   0  0  0  0  0  0  0  0  0  0  0  0
   26.5101  -19.7488   -7.5801 C   0  0  2  0  0  0  0  0  0  0  0  0
   26.9989  -20.7584   -6.6003 C   0  0  0  0  0  0  0  0  0  0  0  0
   26.5271  -20.0993   -9.0113 C   0  0  0  0  0  0  0  0  0  0  0  0
   25.6378  -21.1891   -9.4722 C   0  0  2  0  0  0  0  0  0  0  0  0
   25.6421  -21.2118  -10.9528 N   0  0  0  0  0  0  0  0  0  0  0  0
   24.2445  -21.0425   -9.0728 C   0  0  0  0  0  0  0  0  0  0  0  0
   23.6898  -21.5887   -7.9383 O   0  0  0  0  0  0  0  0  0  0  0  0
   23.4441  -20.3714   -9.8002 O   0  0  0  0  0  0  0  0  0  0  0  0
  2 12  2  0
  2  1  1  0
  3  2  1  0
  4  5  1  0
  4  3  2  0
  5 11  2  0
  6  5  1  0
  7  6  1  0
  7  9  1  0
  7  8  1  6
  9 10  2  0
  9 13  1  0
 11 12  1  0
 13 14  1  0
 14 15  1  0
 16 15  1  0
 17 13  1  0
 17 16  1  0
 17 18  1  1
 19 18  2  0
 21 20  1  6
 21 22  1  0
 23 21  1  0
 24 23  1  6
 24 25  1  0
 25 18  1  0
 26 27  1  0
 26 24  1  0
 28 26  2  0
M  END
$$$$
