YPL.pdb
     RDKit          3D

 28 29  0  0  1  0  0  0  0  0999 V2000
   20.5648  -14.6784  -19.6017 O   0  0  0  0  0  0  0  0  0  0  0  0
   21.2040  -15.5403  -18.7087 C   0  0  0  0  0  0  0  0  0  0  0  0
   20.9671  -16.8851  -18.6791 C   0  0  0  0  0  0  0  0  0  0  0  0
   21.6110  -17.7126  -17.7885 C   0  0  0  0  0  0  0  0  0  0  0  0
   22.5172  -17.1936  -16.9001 C   0  0  0  0  0  0  0  0  0  0  0  0
   23.2360  -18.0415  -15.9300 C   0  0  0  0  0  0  0  0  0  0  0  0
   24.2136  -18.9391  -16.6155 C   0  0  2  0  0  0  0  0  0  0  0  0
   23.6710  -19.6590  -17.7213 N   0  0  0  0  0  0  0  0  0  0  0  0
   24.9484  -19.8050  -15.6449 C   0  0  0  0  0  0  0  0  0  0  0  0
   24.4047  -20.8850  -15.2348 O   0  0  0  0  0  0  0  0  0  0  0  0
   22.7689  -15.8409  -16.9150 C   0  0  0  0  0  0  0  0  0  0  0  0
   22.1142  -15.0298  -17.8138 C   0  0  0  0  0  0  0  0  0  0  0  0
   26.2319  -19.5032  -15.1393 N   0  0  0  0  0  0  0  0  0  0  0  0
   27.0593  -18.4041  -15.6198 C   0  0  0  0  0  0  0  0  0  0  0  0
   28.2458  -18.3794  -14.6476 C   0  0  0  0  0  0  0  0  0  0  0  0
   28.3952  -19.8774  -14.3784 C   0  0  0  0  0  0  0  0  0  0  0  0
   26.9326  -20.2172  -14.0815 C   0  0  1  0  0  0  0  0  0  0  0  0
   26.5941  -19.5643  -12.7872 C   0  0  0  0  0  0  0  0  0  0  0  0
   26.0935  -18.3900  -12.7383 O   0  0  0  0  0  0  0  0  0  0  0  0
   22.9678  -19.4270  -10.3746 C   0  0  0  0  0  0  0  0  0  0  0  0
   23.3292  -20.4922  -11.3899 C   0  0  2  0  0  0  0  0  0  0  0  0
   22.1639  -21.3328  -11.7816 C   0  0  0  0  0  0  0  0  0  0  0  0
   24.6266  -21.1556  -11.1704 C   0  0  0  0  0  0  0  0  0  0  0  0
   25.7145  -20.3690  -10.5468 C   0  0  2  0  0  0  0  0  0  0  0  0
   26.8033  -20.1969  -11.5355 N   0  0  0  0  0  0  0  0  0  0  0  0
   26.3215  -20.9954   -9.3800 C   0  0  0  0  0  0  0  0  0  0  0  0
   26.2539  -20.5015   -8.0976 O   0  0  0  0  0  0  0  0  0  0  0  0
   26.9762  -22.0790   -9.5112 O   0  0  0  0  0  0  0  0  0  0  0  0
  2 12  2  0
  2  1  1  0
  3  2  1  0
  4  5  1  0
  4  3  2  0
  5 11  2  0
  6  5  1  0
  7  6  1  0
  7  9  1  0
  7  8  1  6
  9 10  2  0
  9 13  1  0
 11 12  1  0
 13 14  1  0
 14 15  1  0
 16 15  1  0
 17 13  1  0
 17 16  1  0
 17 18  1  1
 19 18  2  0
 21 20  1  1
 21 22  1  0
 23 21  1  0
 24 23  1  6
 24 25  1  0
 25 18  1  0
 26 27  1  0
 26 24  1  0
 28 26  2  0
M  END
$$$$
