YPL.pdb
     RDKit          3D

 28 29  0  0  1  0  0  0  0  0999 V2000
   17.0726  -23.8557   -7.9797 O   0  0  0  0  0  0  0  0  0  0  0  0
   18.0813  -23.4361   -8.8487 C   0  0  0  0  0  0  0  0  0  0  0  0
   17.8865  -23.2859  -10.1922 C   0  0  0  0  0  0  0  0  0  0  0  0
   18.8981  -22.8707  -11.0269 C   0  0  0  0  0  0  0  0  0  0  0  0
   20.1405  -22.5954  -10.5166 C   0  0  0  0  0  0  0  0  0  0  0  0
   21.2549  -22.1427  -11.3710 C   0  0  0  0  0  0  0  0  0  0  0  0
   21.3969  -20.6562  -11.3328 C   0  0  2  0  0  0  0  0  0  0  0  0
   20.2767  -19.9477  -11.8609 N   0  0  0  0  0  0  0  0  0  0  0  0
   22.7047  -20.2080  -11.8990 C   0  0  0  0  0  0  0  0  0  0  0  0
   22.7168  -19.5112  -12.9688 O   0  0  0  0  0  0  0  0  0  0  0  0
   20.3558  -22.7410   -9.1654 C   0  0  0  0  0  0  0  0  0  0  0  0
   19.3306  -23.1578   -8.3470 C   0  0  0  0  0  0  0  0  0  0  0  0
   23.9561  -20.5097  -11.3183 N   0  0  0  0  0  0  0  0  0  0  0  0
   24.1185  -21.1522  -10.0205 C   0  0  0  0  0  0  0  0  0  0  0  0
   25.6249  -21.4270   -9.9276 C   0  0  0  0  0  0  0  0  0  0  0  0
   26.1615  -20.1952  -10.6579 C   0  0  0  0  0  0  0  0  0  0  0  0
   25.2640  -20.2383  -11.8971 C   0  0  1  0  0  0  0  0  0  0  0  0
   25.6736  -21.4346  -12.6827 C   0  0  0  0  0  0  0  0  0  0  0  0
   25.1736  -22.5885  -12.4584 O   0  0  0  0  0  0  0  0  0  0  0  0
   23.6013  -20.8138  -17.5493 C   0  0  0  0  0  0  0  0  0  0  0  0
   24.6126  -21.7347  -16.8972 C   0  0  2  0  0  0  0  0  0  0  0  0
   24.2689  -23.1745  -17.0604 C   0  0  0  0  0  0  0  0  0  0  0  0
   25.1245  -21.2825  -15.5914 C   0  0  0  0  0  0  0  0  0  0  0  0
   26.3681  -21.9004  -15.0789 C   0  0  2  0  0  0  0  0  0  0  0  0
   26.6366  -21.3724  -13.7217 N   0  0  0  0  0  0  0  0  0  0  0  0
   27.5572  -21.6113  -15.8691 C   0  0  0  0  0  0  0  0  0  0  0  0
   28.3766  -22.5615  -16.4338 O   0  0  0  0  0  0  0  0  0  0  0  0
   27.9040  -20.4038  -16.0738 O   0  0  0  0  0  0  0  0  0  0  0  0
  2 12  2  0
  2  1  1  0
  3  2  1  0
  4  5  1  0
  4  3  2  0
  5 11  2  0
  6  5  1  0
  7  6  1  0
  7  9  1  0
  7  8  1  6
  9 10  2  0
  9 13  1  0
 11 12  1  0
 13 14  1  0
 14 15  1  0
 16 15  1  0
 17 13  1  0
 17 16  1  0
 17 18  1  6
 19 18  2  0
 21 20  1  1
 21 22  1  0
 23 21  1  0
 24 23  1  6
 24 25  1  0
 25 18  1  0
 26 27  1  0
 26 24  1  0
 28 26  2  0
M  END
$$$$
