YPL.pdb
     RDKit          3D

 28 29  0  0  1  0  0  0  0  0999 V2000
   20.6104  -17.4446  -15.9995 O   0  0  0  0  0  0  0  0  0  0  0  0
   21.3204  -17.9592  -14.9132 C   0  0  0  0  0  0  0  0  0  0  0  0
   20.7099  -18.4408  -13.7904 C   0  0  0  0  0  0  0  0  0  0  0  0
   21.4334  -18.9428  -12.7335 C   0  0  0  0  0  0  0  0  0  0  0  0
   22.8031  -18.9693  -12.7894 C   0  0  0  0  0  0  0  0  0  0  0  0
   23.6214  -19.5023  -11.6836 C   0  0  0  0  0  0  0  0  0  0  0  0
   24.2088  -20.8297  -12.0360 C   0  0  2  0  0  0  0  0  0  0  0  0
   23.2431  -21.8336  -12.3446 N   0  0  0  0  0  0  0  0  0  0  0  0
   25.2261  -21.2709  -11.0347 C   0  0  0  0  0  0  0  0  0  0  0  0
   24.8392  -21.8461   -9.9626 O   0  0  0  0  0  0  0  0  0  0  0  0
   23.4359  -18.4883  -13.9126 C   0  0  0  0  0  0  0  0  0  0  0  0
   22.6940  -17.9900  -14.9594 C   0  0  0  0  0  0  0  0  0  0  0  0
   26.6172  -21.0905  -11.1975 N   0  0  0  0  0  0  0  0  0  0  0  0
   27.2236  -20.4172  -12.3387 C   0  0  0  0  0  0  0  0  0  0  0  0
   28.7074  -20.3130  -11.9634 C   0  0  0  0  0  0  0  0  0  0  0  0
   28.8778  -21.6276  -11.2009 C   0  0  0  0  0  0  0  0  0  0  0  0
   27.6579  -21.5339  -10.2811 C   0  0  1  0  0  0  0  0  0  0  0  0
   27.9262  -20.4262   -9.3234 C   0  0  0  0  0  0  0  0  0  0  0  0
   27.2901  -19.3198   -9.3812 O   0  0  0  0  0  0  0  0  0  0  0  0
   26.2000  -20.2386   -4.1986 C   0  0  0  0  0  0  0  0  0  0  0  0
   27.3151  -19.5840   -4.9884 C   0  0  2  0  0  0  0  0  0  0  0  0
   27.3176  -18.1003   -4.8592 C   0  0  0  0  0  0  0  0  0  0  0  0
   27.5732  -20.1698   -6.3157 C   0  0  0  0  0  0  0  0  0  0  0  0
   28.7953  -19.7488   -7.0372 C   0  0  2  0  0  0  0  0  0  0  0  0
   28.8963  -20.5253   -8.2940 N   0  0  0  0  0  0  0  0  0  0  0  0
   30.0369  -19.9858   -6.3131 C   0  0  0  0  0  0  0  0  0  0  0  0
   30.6607  -19.0680   -5.4997 O   0  0  0  0  0  0  0  0  0  0  0  0
   30.6254  -21.1099   -6.4151 O   0  0  0  0  0  0  0  0  0  0  0  0
  2 12  2  0
  2  1  1  0
  3  2  1  0
  4  5  1  0
  4  3  2  0
  5 11  2  0
  6  5  1  0
  7  6  1  0
  7  9  1  0
  7  8  1  1
  9 10  2  0
  9 13  1  0
 11 12  1  0
 13 14  1  0
 14 15  1  0
 16 15  1  0
 17 13  1  0
 17 16  1  0
 17 18  1  1
 19 18  2  0
 21 20  1  6
 21 22  1  0
 23 21  1  0
 24 23  1  1
 24 25  1  0
 25 18  1  0
 26 27  1  0
 26 24  1  0
 28 26  2  0
M  END
$$$$
