YPL.pdb
     RDKit          3D

 28 29  0  0  1  0  0  0  0  0999 V2000
   20.2821  -14.1649  -17.8086 O   0  0  0  0  0  0  0  0  0  0  0  0
   20.9444  -15.1072  -17.0198 C   0  0  0  0  0  0  0  0  0  0  0  0
   20.2914  -15.9444  -16.1606 C   0  0  0  0  0  0  0  0  0  0  0  0
   20.9684  -16.8647  -15.3943 C   0  0  0  0  0  0  0  0  0  0  0  0
   22.3334  -16.9596  -15.4809 C   0  0  0  0  0  0  0  0  0  0  0  0
   23.1024  -17.9339  -14.6832 C   0  0  0  0  0  0  0  0  0  0  0  0
   23.5208  -19.1031  -15.5134 C   0  0  2  0  0  0  0  0  0  0  0  0
   22.4362  -19.8832  -16.0140 N   0  0  0  0  0  0  0  0  0  0  0  0
   24.5756  -19.9163  -14.8366 C   0  0  0  0  0  0  0  0  0  0  0  0
   24.2334  -20.9371  -14.1502 O   0  0  0  0  0  0  0  0  0  0  0  0
   23.0087  -16.1244  -16.3410 C   0  0  0  0  0  0  0  0  0  0  0  0
   22.3130  -15.2103  -17.0991 C   0  0  0  0  0  0  0  0  0  0  0  0
   25.9558  -19.6258  -14.9061 N   0  0  0  0  0  0  0  0  0  0  0  0
   26.5055  -18.4226  -15.5173 C   0  0  0  0  0  0  0  0  0  0  0  0
   28.0001  -18.4823  -15.1768 C   0  0  0  0  0  0  0  0  0  0  0  0
   28.2247  -19.9934  -15.2465 C   0  0  0  0  0  0  0  0  0  0  0  0
   27.0387  -20.4540  -14.3954 C   0  0  1  0  0  0  0  0  0  0  0  0
   27.3214  -20.0264  -12.9977 C   0  0  0  0  0  0  0  0  0  0  0  0
   27.2133  -18.8067  -12.6339 O   0  0  0  0  0  0  0  0  0  0  0  0
   25.7820  -19.0445   -9.0917 C   0  0  0  0  0  0  0  0  0  0  0  0
   25.6670  -20.5070   -9.4710 C   0  0  2  0  0  0  0  0  0  0  0  0
   24.6253  -21.2251   -8.6853 C   0  0  0  0  0  0  0  0  0  0  0  0
   26.9460  -21.1929   -9.7260 C   0  0  0  0  0  0  0  0  0  0  0  0
   27.9415  -20.5136  -10.5855 C   0  0  2  0  0  0  0  0  0  0  0  0
   27.7254  -20.9364  -11.9881 N   0  0  0  0  0  0  0  0  0  0  0  0
   29.3281  -20.8340  -10.2743 C   0  0  0  0  0  0  0  0  0  0  0  0
   30.0540  -20.2730   -9.2489 O   0  0  0  0  0  0  0  0  0  0  0  0
   29.9552  -21.6873  -10.9805 O   0  0  0  0  0  0  0  0  0  0  0  0
  2 12  2  0
  2  1  1  0
  3  2  1  0
  4  5  1  0
  4  3  2  0
  5 11  2  0
  6  5  1  0
  7  6  1  0
  7  9  1  0
  7  8  1  1
  9 10  2  0
  9 13  1  0
 11 12  1  0
 13 14  1  0
 14 15  1  0
 16 15  1  0
 17 13  1  0
 17 16  1  0
 17 18  1  1
 19 18  2  0
 21 20  1  1
 21 22  1  0
 23 21  1  0
 24 23  1  1
 24 25  1  0
 25 18  1  0
 26 27  1  0
 26 24  1  0
 28 26  2  0
M  END
$$$$
