DLL.pdb
     RDKit          3D

 25 24  0  0  1  0  0  0  0  0999 V2000
   26.8410  -22.5593  -15.1241 N   0  0  0  0  0  0  0  0  0  0  0  0
   26.0576  -21.4071  -14.7277 C   0  0  1  0  0  0  0  0  0  0  0  0
   25.1955  -21.0338  -15.9267 C   0  0  0  0  0  0  0  0  0  0  0  0
   25.8411  -19.8886  -16.6200 C   0  0  0  0  0  0  0  0  0  0  0  0
   27.0603  -19.9673  -16.8547 O   0  0  0  0  0  0  0  0  0  0  0  0
   25.1257  -21.7272  -13.6058 C   0  0  0  0  0  0  0  0  0  0  0  0
   24.4903  -22.7885  -13.6517 O   0  0  0  0  0  0  0  0  0  0  0  0
   25.1300  -18.7568  -17.0035 O   0  0  0  0  0  0  0  0  0  0  0  0
   26.4993  -21.8756   -9.5769 C   0  0  0  0  0  0  0  0  0  0  0  0
   25.9644  -20.5186   -9.7986 C   0  0  2  0  0  0  0  0  0  0  0  0
   26.2705  -19.6511   -8.5954 C   0  0  0  0  0  0  0  0  0  0  0  0
   24.5090  -20.4420  -10.1406 C   0  0  0  0  0  0  0  0  0  0  0  0
   24.1181  -21.0958  -11.4072 C   0  0  2  0  0  0  0  0  0  0  0  0
   24.9671  -20.8505  -12.5191 N   0  0  0  0  0  0  0  0  0  0  0  0
   22.7170  -20.6810  -11.7327 C   0  0  0  0  0  0  0  0  0  0  0  0
   21.9019  -20.5723  -10.7910 O   0  0  0  0  0  0  0  0  0  0  0  0
   20.0516  -17.7840  -16.4073 C   0  0  0  0  0  0  0  0  0  0  0  0
   19.7811  -18.6183  -15.1986 C   0  0  1  0  0  0  0  0  0  0  0  0
   18.7470  -19.6872  -15.5543 C   0  0  0  0  0  0  0  0  0  0  0  0
   20.9468  -19.1599  -14.5029 C   0  0  0  0  0  0  0  0  0  0  0  0
   20.8553  -20.0436  -13.3372 C   0  0  2  0  0  0  0  0  0  0  0  0
   22.2815  -20.4093  -13.0499 N   0  0  0  0  0  0  0  0  0  0  0  0
   20.1335  -21.3114  -13.5250 C   0  0  0  0  0  0  0  0  0  0  0  0
   20.7629  -22.4150  -14.1499 O   0  0  0  0  0  0  0  0  0  0  0  0
   18.9580  -21.5362  -13.1741 O   0  0  0  0  0  0  0  0  0  0  0  0
  2  1  1  6
  2  3  1  0
  3  4  1  0
  4  8  1  0
  5  4  2  0
  6 14  1  0
  6  2  1  0
  7  6  2  0
 10  9  1  1
 10 12  1  0
 11 10  1  0
 13 12  1  1
 13 14  1  0
 15 16  2  0
 15 13  1  0
 18 17  1  6
 18 19  1  0
 21 20  1  6
 20 18  1  0
 21 22  1  0
 22 15  1  0
 23 21  1  0
 24 23  1  0
 25 23  2  0
M  END
$$$$
