DLL.pdb
     RDKit          3D

 25 24  0  0  1  0  0  0  0  0999 V2000
   20.8127  -13.2507  -16.1871 N   0  0  0  0  0  0  0  0  0  0  0  0
   20.6770  -11.8554  -16.5518 C   0  0  1  0  0  0  0  0  0  0  0  0
   19.2070  -11.4995  -16.3713 C   0  0  0  0  0  0  0  0  0  0  0  0
   18.4129  -12.3267  -17.3167 C   0  0  0  0  0  0  0  0  0  0  0  0
   18.8070  -12.3981  -18.4946 O   0  0  0  0  0  0  0  0  0  0  0  0
   21.4547  -10.9641  -15.6407 C   0  0  0  0  0  0  0  0  0  0  0  0
   21.0828  -10.8536  -14.4652 O   0  0  0  0  0  0  0  0  0  0  0  0
   17.2656  -13.0073  -16.9241 O   0  0  0  0  0  0  0  0  0  0  0  0
   25.6005  -11.3023  -14.4505 C   0  0  0  0  0  0  0  0  0  0  0  0
   25.5206  -10.5435  -15.7133 C   0  0  2  0  0  0  0  0  0  0  0  0
   26.9157  -10.3218  -16.2597 C   0  0  0  0  0  0  0  0  0  0  0  0
   24.7742   -9.2476  -15.6462 C   0  0  0  0  0  0  0  0  0  0  0  0
   23.3397   -9.3567  -15.3077 C   0  0  2  0  0  0  0  0  0  0  0  0
   22.5836  -10.2631  -16.0976 N   0  0  0  0  0  0  0  0  0  0  0  0
   22.7377   -7.9882  -15.3830 C   0  0  0  0  0  0  0  0  0  0  0  0
   23.1977   -7.1010  -14.6317 O   0  0  0  0  0  0  0  0  0  0  0  0
   20.5814   -4.4260  -19.6509 C   0  0  0  0  0  0  0  0  0  0  0  0
   20.4726   -4.6721  -18.1819 C   0  0  1  0  0  0  0  0  0  0  0  0
   19.0149   -4.4945  -17.7553 C   0  0  0  0  0  0  0  0  0  0  0  0
   21.0686   -5.9085  -17.6796 C   0  0  0  0  0  0  0  0  0  0  0  0
   21.0679   -6.2906  -16.2646 C   0  0  2  0  0  0  0  0  0  0  0  0
   21.6796   -7.6604  -16.2613 N   0  0  0  0  0  0  0  0  0  0  0  0
   19.7538   -6.4235  -15.6172 C   0  0  0  0  0  0  0  0  0  0  0  0
   19.2689   -5.4122  -14.7531 O   0  0  0  0  0  0  0  0  0  0  0  0
   18.9719   -7.3856  -15.7527 O   0  0  0  0  0  0  0  0  0  0  0  0
  2  1  1  1
  2  3  1  0
  3  4  1  0
  4  8  1  0
  5  4  2  0
  6 14  1  0
  6  2  1  0
  7  6  2  0
 10  9  1  1
 10 12  1  0
 11 10  1  0
 13 12  1  6
 13 14  1  0
 15 16  2  0
 15 13  1  0
 18 17  1  6
 18 19  1  0
 21 20  1  6
 20 18  1  0
 21 22  1  0
 22 15  1  0
 23 21  1  0
 24 23  1  0
 25 23  2  0
M  END
$$$$
