DLL.pdb
     RDKit          3D

 25 24  0  0  1  0  0  0  0  0999 V2000
   26.2202  -21.9472  -16.4200 N   0  0  0  0  0  0  0  0  0  0  0  0
   25.3380  -20.9652  -15.8235 C   0  0  1  0  0  0  0  0  0  0  0  0
   24.3086  -20.6028  -16.8861 C   0  0  0  0  0  0  0  0  0  0  0  0
   25.0034  -19.8512  -17.9637 C   0  0  0  0  0  0  0  0  0  0  0  0
   24.7299  -20.1434  -19.1416 O   0  0  0  0  0  0  0  0  0  0  0  0
   24.5849  -21.5263  -14.6628 C   0  0  0  0  0  0  0  0  0  0  0  0
   24.0952  -22.6581  -14.7691 O   0  0  0  0  0  0  0  0  0  0  0  0
   25.9310  -18.8515  -17.6919 O   0  0  0  0  0  0  0  0  0  0  0  0
   26.1288  -22.2594  -10.7724 C   0  0  0  0  0  0  0  0  0  0  0  0
   25.6078  -20.8791  -10.7622 C   0  0  2  0  0  0  0  0  0  0  0  0
   25.9691  -20.2115   -9.4515 C   0  0  0  0  0  0  0  0  0  0  0  0
   24.1427  -20.7359  -11.0345 C   0  0  0  0  0  0  0  0  0  0  0  0
   23.6877  -21.2395  -12.3474 C   0  0  2  0  0  0  0  0  0  0  0  0
   24.4301  -20.7941  -13.4733 N   0  0  0  0  0  0  0  0  0  0  0  0
   22.2445  -20.8769  -12.5110 C   0  0  0  0  0  0  0  0  0  0  0  0
   21.4862  -21.0229  -11.5277 O   0  0  0  0  0  0  0  0  0  0  0  0
   20.3107  -17.0177  -16.2566 C   0  0  0  0  0  0  0  0  0  0  0  0
   20.5305  -17.7919  -14.9986 C   0  0  1  0  0  0  0  0  0  0  0  0
   19.8894  -17.0376  -13.8330 C   0  0  0  0  0  0  0  0  0  0  0  0
   20.1703  -19.2080  -15.0302 C   0  0  0  0  0  0  0  0  0  0  0  0
   20.2436  -20.0880  -13.8605 C   0  0  2  0  0  0  0  0  0  0  0  0
   21.7085  -20.3801  -13.7210 N   0  0  0  0  0  0  0  0  0  0  0  0
   19.5712  -21.3915  -13.9717 C   0  0  0  0  0  0  0  0  0  0  0  0
   20.2227  -22.4903  -14.5824 O   0  0  0  0  0  0  0  0  0  0  0  0
   18.4220  -21.6526  -13.5637 O   0  0  0  0  0  0  0  0  0  0  0  0
  2  1  1  6
  2  3  1  0
  3  4  1  0
  4  8  1  0
  5  4  2  0
  6 14  1  0
  6  2  1  0
  7  6  2  0
 10  9  1  1
 10 12  1  0
 11 10  1  0
 13 12  1  1
 13 14  1  0
 15 16  2  0
 15 13  1  0
 18 17  1  6
 18 19  1  0
 21 20  1  6
 20 18  1  0
 21 22  1  0
 22 15  1  0
 23 21  1  0
 24 23  1  0
 25 23  2  0
M  END
$$$$
