DLL.pdb
     RDKit          3D

 25 24  0  0  1  0  0  0  0  0999 V2000
   19.6243  -11.1862  -18.1807 N   0  0  0  0  0  0  0  0  0  0  0  0
   18.2443  -10.7549  -18.0905 C   0  0  1  0  0  0  0  0  0  0  0  0
   17.4630  -11.9181  -17.4934 C   0  0  0  0  0  0  0  0  0  0  0  0
   17.5728  -13.0727  -18.4228 C   0  0  0  0  0  0  0  0  0  0  0  0
   17.4733  -12.8453  -19.6419 O   0  0  0  0  0  0  0  0  0  0  0  0
   18.0824   -9.5993  -17.1589 C   0  0  0  0  0  0  0  0  0  0  0  0
   16.9387   -9.1918  -16.9181 O   0  0  0  0  0  0  0  0  0  0  0  0
   17.7795  -14.3716  -17.9715 O   0  0  0  0  0  0  0  0  0  0  0  0
   19.2246   -8.7172  -12.7205 C   0  0  0  0  0  0  0  0  0  0  0  0
   20.3564   -8.6976  -13.6667 C   0  0  2  0  0  0  0  0  0  0  0  0
   21.6525   -8.5262  -12.9020 C   0  0  0  0  0  0  0  0  0  0  0  0
   20.2637   -7.6892  -14.7694 C   0  0  0  0  0  0  0  0  0  0  0  0
   19.1243   -7.8619  -15.6948 C   0  0  2  0  0  0  0  0  0  0  0  0
   19.1964   -8.9823  -16.5646 N   0  0  0  0  0  0  0  0  0  0  0  0
   18.9775   -6.6039  -16.4929 C   0  0  0  0  0  0  0  0  0  0  0  0
   19.8627   -6.3338  -17.3335 O   0  0  0  0  0  0  0  0  0  0  0  0
   14.5831   -4.9671  -19.1276 C   0  0  0  0  0  0  0  0  0  0  0  0
   16.0245   -5.1000  -18.7605 C   0  0  1  0  0  0  0  0  0  0  0  0
   16.8789   -4.8448  -20.0028 C   0  0  0  0  0  0  0  0  0  0  0  0
   16.4746   -4.3456  -17.5924 C   0  0  0  0  0  0  0  0  0  0  0  0
   17.8415   -4.4068  -17.0669 C   0  0  2  0  0  0  0  0  0  0  0  0
   17.8881   -5.7165  -16.3369 N   0  0  0  0  0  0  0  0  0  0  0  0
   18.2197   -3.3751  -16.0891 C   0  0  0  0  0  0  0  0  0  0  0  0
   18.3592   -3.6969  -14.7173 O   0  0  0  0  0  0  0  0  0  0  0  0
   18.4446   -2.1763  -16.3491 O   0  0  0  0  0  0  0  0  0  0  0  0
  2  1  1  1
  2  3  1  0
  3  4  1  0
  4  8  1  0
  5  4  2  0
  6 14  1  0
  6  2  1  0
  7  6  2  0
 10  9  1  1
 10 12  1  0
 11 10  1  0
 13 12  1  6
 13 14  1  0
 15 16  2  0
 15 13  1  0
 18 17  1  6
 18 19  1  0
 21 20  1  1
 20 18  1  0
 21 22  1  0
 22 15  1  0
 23 21  1  0
 24 23  1  0
 25 23  2  0
M  END
$$$$
