DLL.pdb
     RDKit          3D

 25 24  0  0  1  0  0  0  0  0999 V2000
   17.3163   -5.1068  -16.2688 N   0  0  0  0  0  0  0  0  0  0  0  0
   18.1644   -4.8897  -17.4229 C   0  0  1  0  0  0  0  0  0  0  0  0
   18.5809   -3.4250  -17.3874 C   0  0  0  0  0  0  0  0  0  0  0  0
   17.3591   -2.5942  -17.5480 C   0  0  0  0  0  0  0  0  0  0  0  0
   16.3799   -3.1095  -18.1167 O   0  0  0  0  0  0  0  0  0  0  0  0
   19.4171   -5.6992  -17.3528 C   0  0  0  0  0  0  0  0  0  0  0  0
   20.1365   -5.7606  -18.3582 O   0  0  0  0  0  0  0  0  0  0  0  0
   17.2868   -1.2840  -17.0877 O   0  0  0  0  0  0  0  0  0  0  0  0
   22.4043   -4.5562  -14.6780 C   0  0  0  0  0  0  0  0  0  0  0  0
   21.5724   -5.5732  -14.0068 C   0  0  2  0  0  0  0  0  0  0  0  0
   21.9471   -5.6465  -12.5411 C   0  0  0  0  0  0  0  0  0  0  0  0
   21.5948   -6.9385  -14.6202 C   0  0  0  0  0  0  0  0  0  0  0  0
   21.0238   -7.0341  -15.9801 C   0  0  2  0  0  0  0  0  0  0  0  0
   19.7793   -6.3789  -16.1774 N   0  0  0  0  0  0  0  0  0  0  0  0
   20.8997   -8.4837  -16.3326 C   0  0  0  0  0  0  0  0  0  0  0  0
   21.9374   -9.1812  -16.3280 O   0  0  0  0  0  0  0  0  0  0  0  0
   19.1113  -13.6221  -16.0410 C   0  0  0  0  0  0  0  0  0  0  0  0
   18.1567  -12.4869  -16.2155 C   0  0  1  0  0  0  0  0  0  0  0  0
   16.9383  -12.7210  -15.3215 C   0  0  0  0  0  0  0  0  0  0  0  0
   18.7104  -11.1405  -16.0862 C   0  0  0  0  0  0  0  0  0  0  0  0
   19.5986  -10.5318  -17.0806 C   0  0  2  0  0  0  0  0  0  0  0  0
   19.6680   -9.0913  -16.6674 N   0  0  0  0  0  0  0  0  0  0  0  0
   19.1317  -10.5394  -18.4754 C   0  0  0  0  0  0  0  0  0  0  0  0
   18.4927   -9.4037  -19.0292 O   0  0  0  0  0  0  0  0  0  0  0  0
   19.2424  -11.4920  -19.2727 O   0  0  0  0  0  0  0  0  0  0  0  0
  2  1  1  1
  2  3  1  0
  3  4  1  0
  4  8  1  0
  5  4  2  0
  6 14  1  0
  6  2  1  0
  7  6  2  0
 10  9  1  6
 10 12  1  0
 11 10  1  0
 13 12  1  1
 13 14  1  0
 15 16  2  0
 15 13  1  0
 18 17  1  1
 18 19  1  0
 21 20  1  1
 20 18  1  0
 21 22  1  0
 22 15  1  0
 23 21  1  0
 24 23  1  0
 25 23  2  0
M  END
$$$$
