DLL.pdb
     RDKit          3D

 25 24  0  0  1  0  0  0  0  0999 V2000
   23.0542  -19.7617  -15.3226 N   0  0  0  0  0  0  0  0  0  0  0  0
   23.3230  -19.6697  -13.9022 C   0  0  1  0  0  0  0  0  0  0  0  0
   22.0484  -20.1026  -13.1893 C   0  0  0  0  0  0  0  0  0  0  0  0
   20.9838  -19.1159  -13.5084 C   0  0  0  0  0  0  0  0  0  0  0  0
   21.2363  -18.2490  -14.3642 O   0  0  0  0  0  0  0  0  0  0  0  0
   24.3998  -20.6129  -13.4776 C   0  0  0  0  0  0  0  0  0  0  0  0
   24.2442  -21.8216  -13.6946 O   0  0  0  0  0  0  0  0  0  0  0  0
   19.7402  -19.1388  -12.8866 O   0  0  0  0  0  0  0  0  0  0  0  0
   28.0764  -20.8428  -15.2142 C   0  0  0  0  0  0  0  0  0  0  0  0
   28.2116  -19.8776  -14.1066 C   0  0  2  0  0  0  0  0  0  0  0  0
   29.5562  -19.1866  -14.1987 C   0  0  0  0  0  0  0  0  0  0  0  0
   28.0033  -20.4330  -12.7321 C   0  0  0  0  0  0  0  0  0  0  0  0
   26.6552  -20.9761  -12.4632 C   0  0  2  0  0  0  0  0  0  0  0  0
   25.5660  -20.1488  -12.8457 N   0  0  0  0  0  0  0  0  0  0  0  0
   26.5649  -21.2978  -11.0040 C   0  0  0  0  0  0  0  0  0  0  0  0
   27.2176  -22.2742  -10.5753 O   0  0  0  0  0  0  0  0  0  0  0  0
   27.8947  -18.6871   -6.7258 C   0  0  0  0  0  0  0  0  0  0  0  0
   27.4964  -19.8276   -7.6037 C   0  0  1  0  0  0  0  0  0  0  0  0
   28.1723  -21.1029   -7.0982 C   0  0  0  0  0  0  0  0  0  0  0  0
   26.0653  -19.9973   -7.8473 C   0  0  0  0  0  0  0  0  0  0  0  0
   25.5097  -21.0451   -8.7084 C   0  0  2  0  0  0  0  0  0  0  0  0
   25.7789  -20.5491  -10.0984 N   0  0  0  0  0  0  0  0  0  0  0  0
   24.0583  -21.2686   -8.6235 C   0  0  0  0  0  0  0  0  0  0  0  0
   23.2304  -21.0750   -9.7557 O   0  0  0  0  0  0  0  0  0  0  0  0
   23.4382  -21.6314   -7.6041 O   0  0  0  0  0  0  0  0  0  0  0  0
  2  1  1  6
  2  3  1  0
  3  4  1  0
  4  8  1  0
  5  4  2  0
  6 14  1  0
  6  2  1  0
  7  6  2  0
 10  9  1  6
 10 12  1  0
 11 10  1  0
 13 12  1  1
 13 14  1  0
 15 16  2  0
 15 13  1  0
 18 17  1  1
 18 19  1  0
 21 20  1  1
 20 18  1  0
 21 22  1  0
 22 15  1  0
 23 21  1  0
 24 23  1  0
 25 23  2  0
M  END
$$$$
