DLL.pdb
     RDKit          3D

 25 24  0  0  1  0  0  0  0  0999 V2000
   23.5017  -18.8860  -13.0168 N   0  0  0  0  0  0  0  0  0  0  0  0
   23.2157  -20.1984  -12.4744 C   0  0  1  0  0  0  0  0  0  0  0  0
   22.3595  -20.9190  -13.5078 C   0  0  0  0  0  0  0  0  0  0  0  0
   21.0513  -20.2186  -13.5920 C   0  0  0  0  0  0  0  0  0  0  0  0
   20.9497  -19.1135  -13.0297 O   0  0  0  0  0  0  0  0  0  0  0  0
   24.4566  -21.0095  -12.2969 C   0  0  0  0  0  0  0  0  0  0  0  0
   24.3455  -22.2345  -12.1583 O   0  0  0  0  0  0  0  0  0  0  0  0
   19.9631  -20.7577  -14.2693 O   0  0  0  0  0  0  0  0  0  0  0  0
   27.7124  -21.0024  -15.0478 C   0  0  0  0  0  0  0  0  0  0  0  0
   28.0124  -19.9837  -14.0236 C   0  0  2  0  0  0  0  0  0  0  0  0
   29.2450  -19.2036  -14.4314 C   0  0  0  0  0  0  0  0  0  0  0  0
   28.1569  -20.4934  -12.6234 C   0  0  0  0  0  0  0  0  0  0  0  0
   26.9412  -21.0960  -12.0375 C   0  0  2  0  0  0  0  0  0  0  0  0
   25.7254  -20.4053  -12.2859 N   0  0  0  0  0  0  0  0  0  0  0  0
   27.1559  -21.2384  -10.5628 C   0  0  0  0  0  0  0  0  0  0  0  0
   28.0727  -21.9934  -10.1720 O   0  0  0  0  0  0  0  0  0  0  0  0
   28.6811  -20.7439   -5.7435 C   0  0  0  0  0  0  0  0  0  0  0  0
   27.7340  -19.6902   -6.2155 C   0  0  1  0  0  0  0  0  0  0  0  0
   28.2950  -18.3165   -5.8454 C   0  0  0  0  0  0  0  0  0  0  0  0
   27.3027  -19.7748   -7.6094 C   0  0  0  0  0  0  0  0  0  0  0  0
   26.4902  -20.8732   -8.1399 C   0  0  2  0  0  0  0  0  0  0  0  0
   26.3717  -20.5598   -9.6021 N   0  0  0  0  0  0  0  0  0  0  0  0
   25.1155  -20.9843   -7.6285 C   0  0  0  0  0  0  0  0  0  0  0  0
   24.8627  -21.5429   -6.3523 O   0  0  0  0  0  0  0  0  0  0  0  0
   24.0857  -20.6194   -8.2300 O   0  0  0  0  0  0  0  0  0  0  0  0
  2  1  1  6
  2  3  1  0
  3  4  1  0
  4  8  1  0
  5  4  2  0
  6 14  1  0
  6  2  1  0
  7  6  2  0
 10  9  1  6
 10 12  1  0
 11 10  1  0
 13 12  1  1
 13 14  1  0
 15 16  2  0
 15 13  1  0
 18 17  1  6
 18 19  1  0
 21 20  1  1
 20 18  1  0
 21 22  1  0
 22 15  1  0
 23 21  1  0
 24 23  1  0
 25 23  2  0
M  END
$$$$
