DLL.pdb
     RDKit          3D

 25 24  0  0  1  0  0  0  0  0999 V2000
   23.3408  -28.2178  -15.2159 N   0  0  0  0  0  0  0  0  0  0  0  0
   22.6351  -27.0710  -15.7500 C   0  0  1  0  0  0  0  0  0  0  0  0
   21.3115  -26.9872  -15.0008 C   0  0  0  0  0  0  0  0  0  0  0  0
   20.2869  -27.7174  -15.7920 C   0  0  0  0  0  0  0  0  0  0  0  0
   20.6226  -28.1592  -16.9055 O   0  0  0  0  0  0  0  0  0  0  0  0
   23.3653  -25.7958  -15.4855 C   0  0  0  0  0  0  0  0  0  0  0  0
   23.7592  -25.5698  -14.3340 O   0  0  0  0  0  0  0  0  0  0  0  0
   18.9913  -27.9139  -15.3268 O   0  0  0  0  0  0  0  0  0  0  0  0
   27.1282  -24.9295  -15.8895 C   0  0  0  0  0  0  0  0  0  0  0  0
   26.4996  -24.6593  -17.1966 C   0  0  2  0  0  0  0  0  0  0  0  0
   27.5752  -24.4659  -18.2452 C   0  0  0  0  0  0  0  0  0  0  0  0
   25.5296  -23.5194  -17.2275 C   0  0  0  0  0  0  0  0  0  0  0  0
   24.3466  -23.6673  -16.3539 C   0  0  2  0  0  0  0  0  0  0  0  0
   23.6046  -24.8677  -16.5132 N   0  0  0  0  0  0  0  0  0  0  0  0
   23.4562  -22.4835  -16.5709 C   0  0  0  0  0  0  0  0  0  0  0  0
   23.9518  -21.3430  -16.4414 O   0  0  0  0  0  0  0  0  0  0  0  0
   19.9399  -19.5122  -19.5608 C   0  0  0  0  0  0  0  0  0  0  0  0
   19.4589  -20.7047  -18.8014 C   0  0  1  0  0  0  0  0  0  0  0  0
   18.3841  -21.4167  -19.6239 C   0  0  0  0  0  0  0  0  0  0  0  0
   20.4841  -21.6133  -18.2918 C   0  0  0  0  0  0  0  0  0  0  0  0
   21.2128  -21.3906  -17.0399 C   0  0  2  0  0  0  0  0  0  0  0  0
   22.0898  -22.6012  -16.9137 N   0  0  0  0  0  0  0  0  0  0  0  0
   20.4090  -21.3328  -15.8094 C   0  0  0  0  0  0  0  0  0  0  0  0
   20.1260  -22.5102  -15.0757 O   0  0  0  0  0  0  0  0  0  0  0  0
   19.9194  -20.3001  -15.3102 O   0  0  0  0  0  0  0  0  0  0  0  0
  2  1  1  1
  2  3  1  0
  3  4  1  0
  4  8  1  0
  5  4  2  0
  6 14  1  0
  6  2  1  0
  7  6  2  0
 10  9  1  1
 10 12  1  0
 11 10  1  0
 13 12  1  6
 13 14  1  0
 15 16  2  0
 15 13  1  0
 18 17  1  6
 18 19  1  0
 21 20  1  6
 20 18  1  0
 21 22  1  0
 22 15  1  0
 23 21  1  0
 24 23  1  0
 25 23  2  0
M  END
$$$$
