DLL.pdb
     RDKit          3D

 25 24  0  0  1  0  0  0  0  0999 V2000
   24.8260  -18.5004  -14.1612 N   0  0  0  0  0  0  0  0  0  0  0  0
   23.9686  -19.6402  -13.9076 C   0  0  1  0  0  0  0  0  0  0  0  0
   23.4495  -20.1040  -15.2624 C   0  0  0  0  0  0  0  0  0  0  0  0
   22.5017  -19.0774  -15.7691 C   0  0  0  0  0  0  0  0  0  0  0  0
   22.9767  -18.0004  -16.1719 O   0  0  0  0  0  0  0  0  0  0  0  0
   24.7246  -20.7846  -13.3173 C   0  0  0  0  0  0  0  0  0  0  0  0
   24.2237  -21.9150  -13.3761 O   0  0  0  0  0  0  0  0  0  0  0  0
   21.1276  -19.2880  -15.8025 O   0  0  0  0  0  0  0  0  0  0  0  0
   28.3035  -20.0737  -14.3589 C   0  0  0  0  0  0  0  0  0  0  0  0
   28.6893  -20.2473  -12.9455 C   0  0  2  0  0  0  0  0  0  0  0  0
   30.1921  -20.1140  -12.8111 C   0  0  0  0  0  0  0  0  0  0  0  0
   28.2169  -21.5095  -12.2937 C   0  0  0  0  0  0  0  0  0  0  0  0
   26.7533  -21.6297  -12.1267 C   0  0  2  0  0  0  0  0  0  0  0  0
   25.9759  -20.5926  -12.7074 N   0  0  0  0  0  0  0  0  0  0  0  0
   26.4581  -21.7311  -10.6626 C   0  0  0  0  0  0  0  0  0  0  0  0
   26.8791  -22.7338  -10.0456 O   0  0  0  0  0  0  0  0  0  0  0  0
   27.7813  -18.8987   -6.5516 C   0  0  0  0  0  0  0  0  0  0  0  0
   27.2414  -20.0796   -7.2892 C   0  0  1  0  0  0  0  0  0  0  0  0
   27.5154  -21.3430   -6.4723 C   0  0  0  0  0  0  0  0  0  0  0  0
   25.8579  -19.9864   -7.7509 C   0  0  0  0  0  0  0  0  0  0  0  0
   25.2082  -21.0112   -8.5729 C   0  0  2  0  0  0  0  0  0  0  0  0
   25.7294  -20.7480   -9.9548 N   0  0  0  0  0  0  0  0  0  0  0  0
   23.7415  -20.9508   -8.6662 C   0  0  0  0  0  0  0  0  0  0  0  0
   23.1122  -20.4338   -9.8244 O   0  0  0  0  0  0  0  0  0  0  0  0
   22.9422  -21.3268   -7.7858 O   0  0  0  0  0  0  0  0  0  0  0  0
  2  1  1  6
  2  3  1  0
  3  4  1  0
  4  8  1  0
  5  4  2  0
  6 14  1  0
  6  2  1  0
  7  6  2  0
 10  9  1  6
 10 12  1  0
 11 10  1  0
 13 12  1  1
 13 14  1  0
 15 16  2  0
 15 13  1  0
 18 17  1  1
 18 19  1  0
 21 20  1  1
 20 18  1  0
 21 22  1  0
 22 15  1  0
 23 21  1  0
 24 23  1  0
 25 23  2  0
M  END
$$$$
