DLL.pdb
     RDKit          3D

 25 24  0  0  1  0  0  0  0  0999 V2000
   20.8507  -12.2886  -15.8940 N   0  0  0  0  0  0  0  0  0  0  0  0
   21.2811  -11.1811  -16.7225 C   0  0  1  0  0  0  0  0  0  0  0  0
   20.0171  -10.4778  -17.1997 C   0  0  0  0  0  0  0  0  0  0  0  0
   19.4380  -11.2749  -18.3124 C   0  0  0  0  0  0  0  0  0  0  0  0
   18.4394  -10.8151  -18.8947 O   0  0  0  0  0  0  0  0  0  0  0  0
   22.0690  -10.1785  -15.9457 C   0  0  0  0  0  0  0  0  0  0  0  0
   21.5520   -9.6724  -14.9413 O   0  0  0  0  0  0  0  0  0  0  0  0
   19.9744  -12.4952  -18.7086 O   0  0  0  0  0  0  0  0  0  0  0  0
   25.2665  -11.8229  -15.8879 C   0  0  0  0  0  0  0  0  0  0  0  0
   25.9997  -10.5907  -16.2354 C   0  0  2  0  0  0  0  0  0  0  0  0
   27.4896  -10.8410  -16.1281 C   0  0  0  0  0  0  0  0  0  0  0  0
   25.6187   -9.3679  -15.4604 C   0  0  0  0  0  0  0  0  0  0  0  0
   24.2116   -8.9381  -15.6018 C   0  0  2  0  0  0  0  0  0  0  0  0
   23.3677   -9.8117  -16.3378 N   0  0  0  0  0  0  0  0  0  0  0  0
   24.2007   -7.5751  -16.2208 C   0  0  0  0  0  0  0  0  0  0  0  0
   24.8870   -6.6791  -15.6829 O   0  0  0  0  0  0  0  0  0  0  0  0
   24.2947   -6.4700  -21.6339 C   0  0  0  0  0  0  0  0  0  0  0  0
   24.5095   -6.3458  -20.1613 C   0  0  1  0  0  0  0  0  0  0  0  0
   25.6878   -5.4042  -19.9091 C   0  0  0  0  0  0  0  0  0  0  0  0
   23.3354   -6.0211  -19.3537 C   0  0  0  0  0  0  0  0  0  0  0  0
   23.3749   -5.8568  -17.8978 C   0  0  2  0  0  0  0  0  0  0  0  0
   23.4528   -7.2621  -17.3789 N   0  0  0  0  0  0  0  0  0  0  0  0
   22.1915   -5.2495  -17.2697 C   0  0  0  0  0  0  0  0  0  0  0  0
   21.3157   -6.0286  -16.4755 O   0  0  0  0  0  0  0  0  0  0  0  0
   21.8531   -4.0529  -17.3644 O   0  0  0  0  0  0  0  0  0  0  0  0
  2  1  1  1
  2  3  1  0
  3  4  1  0
  4  8  1  0
  5  4  2  0
  6 14  1  0
  6  2  1  0
  7  6  2  0
 10  9  1  1
 10 12  1  0
 11 10  1  0
 13 12  1  6
 13 14  1  0
 15 16  2  0
 15 13  1  0
 18 17  1  6
 18 19  1  0
 21 20  1  6
 20 18  1  0
 21 22  1  0
 22 15  1  0
 23 21  1  0
 24 23  1  0
 25 23  2  0
M  END
$$$$
