DLL.pdb
     RDKit          3D

 25 24  0  0  1  0  0  0  0  0999 V2000
   22.6371  -19.9869  -14.6337 N   0  0  0  0  0  0  0  0  0  0  0  0
   22.3017  -18.8671  -15.4893 C   0  0  1  0  0  0  0  0  0  0  0  0
   20.7818  -18.7652  -15.4966 C   0  0  0  0  0  0  0  0  0  0  0  0
   20.2423  -19.9698  -16.1798 C   0  0  0  0  0  0  0  0  0  0  0  0
   20.6539  -21.0816  -15.8028 O   0  0  0  0  0  0  0  0  0  0  0  0
   22.8207  -17.5768  -14.9459 C   0  0  0  0  0  0  0  0  0  0  0  0
   22.5254  -17.2645  -13.7851 O   0  0  0  0  0  0  0  0  0  0  0  0
   19.3093  -19.8847  -17.2074 O   0  0  0  0  0  0  0  0  0  0  0  0
   26.1692  -17.8479  -15.9959 C   0  0  0  0  0  0  0  0  0  0  0  0
   26.3226  -16.4169  -16.3207 C   0  0  2  0  0  0  0  0  0  0  0  0
   27.7910  -16.0945  -16.5056 C   0  0  0  0  0  0  0  0  0  0  0  0
   25.6960  -15.4607  -15.3542 C   0  0  0  0  0  0  0  0  0  0  0  0
   24.2230  -15.5309  -15.2548 C   0  0  2  0  0  0  0  0  0  0  0  0
   23.6264  -16.7303  -15.7264 N   0  0  0  0  0  0  0  0  0  0  0  0
   23.6503  -14.3547  -15.9824 C   0  0  0  0  0  0  0  0  0  0  0  0
   23.9953  -13.2105  -15.6149 O   0  0  0  0  0  0  0  0  0  0  0  0
   22.1023  -11.8703  -20.7574 C   0  0  0  0  0  0  0  0  0  0  0  0
   21.2160  -12.8634  -20.0805 C   0  0  1  0  0  0  0  0  0  0  0  0
   20.4529  -13.6540  -21.1442 C   0  0  0  0  0  0  0  0  0  0  0  0
   21.8404  -13.7174  -19.0720 C   0  0  0  0  0  0  0  0  0  0  0  0
   22.1252  -13.2776  -17.7032 C   0  0  2  0  0  0  0  0  0  0  0  0
   22.7432  -14.4833  -17.0590 N   0  0  0  0  0  0  0  0  0  0  0  0
   20.9673  -12.9133  -16.8724 C   0  0  0  0  0  0  0  0  0  0  0  0
   20.6385  -11.5546  -16.6479 O   0  0  0  0  0  0  0  0  0  0  0  0
   20.1964  -13.7161  -16.3096 O   0  0  0  0  0  0  0  0  0  0  0  0
  2  1  1  1
  2  3  1  0
  3  4  1  0
  4  8  1  0
  5  4  2  0
  6 14  1  0
  6  2  1  0
  7  6  2  0
 10  9  1  1
 10 12  1  0
 11 10  1  0
 13 12  1  6
 13 14  1  0
 15 16  2  0
 15 13  1  0
 18 17  1  6
 18 19  1  0
 21 20  1  6
 20 18  1  0
 21 22  1  0
 22 15  1  0
 23 21  1  0
 24 23  1  0
 25 23  2  0
M  END
$$$$
