DLL.pdb
     RDKit          3D

 25 24  0  0  1  0  0  0  0  0999 V2000
   23.0144  -18.7107  -13.8626 N   0  0  0  0  0  0  0  0  0  0  0  0
   22.7891  -20.0587  -13.3823 C   0  0  1  0  0  0  0  0  0  0  0  0
   22.0588  -20.8004  -14.4943 C   0  0  0  0  0  0  0  0  0  0  0  0
   20.6210  -20.4296  -14.4289 C   0  0  0  0  0  0  0  0  0  0  0  0
   20.2943  -19.5154  -13.6510 O   0  0  0  0  0  0  0  0  0  0  0  0
   24.0712  -20.7860  -13.1443 C   0  0  0  0  0  0  0  0  0  0  0  0
   24.0313  -22.0116  -12.9758 O   0  0  0  0  0  0  0  0  0  0  0  0
   19.6546  -21.0665  -15.1997 O   0  0  0  0  0  0  0  0  0  0  0  0
   30.2299  -19.6517  -12.7206 C   0  0  0  0  0  0  0  0  0  0  0  0
   29.0525  -20.5409  -12.7198 C   0  0  2  0  0  0  0  0  0  0  0  0
   29.3026  -21.7127  -13.6463 C   0  0  0  0  0  0  0  0  0  0  0  0
   27.7453  -19.8878  -13.0453 C   0  0  0  0  0  0  0  0  0  0  0  0
   26.5427  -20.7050  -12.7799 C   0  0  2  0  0  0  0  0  0  0  0  0
   25.2993  -20.1038  -13.1108 N   0  0  0  0  0  0  0  0  0  0  0  0
   26.5535  -21.0943  -11.3344 C   0  0  0  0  0  0  0  0  0  0  0  0
   27.5610  -21.6886  -10.8927 O   0  0  0  0  0  0  0  0  0  0  0  0
   28.1691  -21.2063   -6.7053 C   0  0  0  0  0  0  0  0  0  0  0  0
   27.0904  -20.2572   -7.1127 C   0  0  1  0  0  0  0  0  0  0  0  0
   27.4685  -18.8487   -6.6527 C   0  0  0  0  0  0  0  0  0  0  0  0
   26.6680  -20.3077   -8.5110 C   0  0  0  0  0  0  0  0  0  0  0  0
   25.5690  -21.1481   -8.9946 C   0  0  2  0  0  0  0  0  0  0  0  0
   25.4807  -20.8198  -10.4557 N   0  0  0  0  0  0  0  0  0  0  0  0
   24.2369  -20.8822   -8.4303 C   0  0  0  0  0  0  0  0  0  0  0  0
   23.8714  -21.4030   -7.1654 O   0  0  0  0  0  0  0  0  0  0  0  0
   23.3394  -20.2086   -8.9745 O   0  0  0  0  0  0  0  0  0  0  0  0
  2  1  1  6
  2  3  1  0
  3  4  1  0
  4  8  1  0
  5  4  2  0
  6 14  1  0
  6  2  1  0
  7  6  2  0
 10  9  1  6
 10 12  1  0
 11 10  1  0
 13 12  1  1
 13 14  1  0
 15 16  2  0
 15 13  1  0
 18 17  1  6
 18 19  1  0
 21 20  1  1
 20 18  1  0
 21 22  1  0
 22 15  1  0
 23 21  1  0
 24 23  1  0
 25 23  2  0
M  END
$$$$
