DLL.pdb
     RDKit          3D

 25 24  0  0  1  0  0  0  0  0999 V2000
   20.3374  -21.9845  -13.0355 N   0  0  0  0  0  0  0  0  0  0  0  0
   20.2244  -20.5407  -13.0683 C   0  0  1  0  0  0  0  0  0  0  0  0
   19.5367  -20.1286  -11.7731 C   0  0  0  0  0  0  0  0  0  0  0  0
   18.1696  -20.7115  -11.7713 C   0  0  0  0  0  0  0  0  0  0  0  0
   17.8498  -21.4391  -12.7284 O   0  0  0  0  0  0  0  0  0  0  0  0
   21.5624  -19.8781  -13.0795 C   0  0  0  0  0  0  0  0  0  0  0  0
   21.6105  -18.6451  -12.9808 O   0  0  0  0  0  0  0  0  0  0  0  0
   17.2603  -20.4679  -10.7478 O   0  0  0  0  0  0  0  0  0  0  0  0
   24.6178  -20.2260  -10.2611 C   0  0  0  0  0  0  0  0  0  0  0  0
   24.8459  -21.2920  -11.2554 C   0  0  2  0  0  0  0  0  0  0  0  0
   25.9473  -22.2107  -10.7687 C   0  0  0  0  0  0  0  0  0  0  0  0
   25.1307  -20.8288  -12.6502 C   0  0  0  0  0  0  0  0  0  0  0  0
   24.0450  -20.0660  -13.3011 C   0  0  2  0  0  0  0  0  0  0  0  0
   22.7447  -20.6281  -13.1987 N   0  0  0  0  0  0  0  0  0  0  0  0
   24.4075  -19.8756  -14.7410 C   0  0  0  0  0  0  0  0  0  0  0  0
   25.5799  -19.5364  -15.0126 O   0  0  0  0  0  0  0  0  0  0  0  0
   23.7046  -23.0432  -19.3539 C   0  0  0  0  0  0  0  0  0  0  0  0
   24.3238  -21.9784  -18.5095 C   0  0  1  0  0  0  0  0  0  0  0  0
   25.4931  -21.3560  -19.2737 C   0  0  0  0  0  0  0  0  0  0  0  0
   23.4166  -20.9825  -17.9425 C   0  0  0  0  0  0  0  0  0  0  0  0
   23.8720  -19.7906  -17.2215 C   0  0  2  0  0  0  0  0  0  0  0  0
   23.4868  -20.0623  -15.7973 N   0  0  0  0  0  0  0  0  0  0  0  0
   23.2353  -18.5154  -17.5854 C   0  0  0  0  0  0  0  0  0  0  0  0
   22.0404  -18.0980  -16.9511 O   0  0  0  0  0  0  0  0  0  0  0  0
   23.6560  -17.7127  -18.4421 O   0  0  0  0  0  0  0  0  0  0  0  0
  2  1  1  1
  2  3  1  0
  3  4  1  0
  4  8  1  0
  5  4  2  0
  6 14  1  0
  6  2  1  0
  7  6  2  0
 10  9  1  1
 10 12  1  0
 11 10  1  0
 13 12  1  6
 13 14  1  0
 15 16  2  0
 15 13  1  0
 18 17  1  6
 18 19  1  0
 21 20  1  6
 20 18  1  0
 21 22  1  0
 22 15  1  0
 23 21  1  0
 24 23  1  0
 25 23  2  0
M  END
$$$$
