DLL.pdb
     RDKit          3D

 25 24  0  0  1  0  0  0  0  0999 V2000
   28.0119  -19.4142  -13.6836 N   0  0  0  0  0  0  0  0  0  0  0  0
   27.1499  -20.4399  -14.2344 C   0  0  1  0  0  0  0  0  0  0  0  0
   28.0638  -21.5316  -14.7757 C   0  0  0  0  0  0  0  0  0  0  0  0
   28.6386  -21.0563  -16.0613 C   0  0  0  0  0  0  0  0  0  0  0  0
   28.4003  -19.8841  -16.4031 O   0  0  0  0  0  0  0  0  0  0  0  0
   26.2947  -21.0702  -13.1853 C   0  0  0  0  0  0  0  0  0  0  0  0
   25.7584  -22.1571  -13.4363 O   0  0  0  0  0  0  0  0  0  0  0  0
   29.4188  -21.8731  -16.8724 O   0  0  0  0  0  0  0  0  0  0  0  0
   27.1035  -21.7273   -8.8624 C   0  0  0  0  0  0  0  0  0  0  0  0
   26.5864  -20.3578   -9.0462 C   0  0  2  0  0  0  0  0  0  0  0  0
   26.6350  -19.6171   -7.7259 C   0  0  0  0  0  0  0  0  0  0  0  0
   25.2215  -20.2548   -9.6525 C   0  0  0  0  0  0  0  0  0  0  0  0
   25.0856  -20.8181  -11.0122 C   0  0  2  0  0  0  0  0  0  0  0  0
   26.0974  -20.4515  -11.9390 N   0  0  0  0  0  0  0  0  0  0  0  0
   23.7407  -20.4317  -11.5443 C   0  0  0  0  0  0  0  0  0  0  0  0
   23.2756  -19.3187  -11.2157 O   0  0  0  0  0  0  0  0  0  0  0  0
   22.4551  -21.5555  -16.6264 C   0  0  0  0  0  0  0  0  0  0  0  0
   22.4743  -20.8208  -15.3264 C   0  0  1  0  0  0  0  0  0  0  0  0
   22.2824  -19.3279  -15.5968 C   0  0  0  0  0  0  0  0  0  0  0  0
   21.5956  -21.3287  -14.2746 C   0  0  0  0  0  0  0  0  0  0  0  0
   21.6285  -20.8480  -12.8904 C   0  0  2  0  0  0  0  0  0  0  0  0
   22.9817  -21.2664  -12.3961 N   0  0  0  0  0  0  0  0  0  0  0  0
   20.6499  -21.4371  -11.9636 C   0  0  0  0  0  0  0  0  0  0  0  0
   20.9789  -22.5815  -11.1976 O   0  0  0  0  0  0  0  0  0  0  0  0
   19.4930  -21.0157  -11.7653 O   0  0  0  0  0  0  0  0  0  0  0  0
  2  1  1  1
  2  3  1  0
  3  4  1  0
  4  8  1  0
  5  4  2  0
  6 14  1  0
  6  2  1  0
  7  6  2  0
 10  9  1  1
 10 12  1  0
 11 10  1  0
 13 12  1  1
 13 14  1  0
 15 16  2  0
 15 13  1  0
 18 17  1  6
 18 19  1  0
 21 20  1  6
 20 18  1  0
 21 22  1  0
 22 15  1  0
 23 21  1  0
 24 23  1  0
 25 23  2  0
M  END
$$$$
