DLL.pdb
     RDKit          3D

 25 24  0  0  1  0  0  0  0  0999 V2000
   22.0134  -32.4927   -4.3807 N   0  0  0  0  0  0  0  0  0  0  0  0
   22.6511  -32.6600   -3.0908 C   0  0  1  0  0  0  0  0  0  0  0  0
   24.1240  -32.3252   -3.2870 C   0  0  0  0  0  0  0  0  0  0  0  0
   24.6954  -33.3045   -4.2479 C   0  0  0  0  0  0  0  0  0  0  0  0
   23.9459  -34.2013   -4.6742 O   0  0  0  0  0  0  0  0  0  0  0  0
   22.1187  -31.7003   -2.0785 C   0  0  0  0  0  0  0  0  0  0  0  0
   22.6139  -31.7050   -0.9440 O   0  0  0  0  0  0  0  0  0  0  0  0
   26.0184  -33.2430   -4.6717 O   0  0  0  0  0  0  0  0  0  0  0  0
   18.2353  -26.9029   -1.6204 C   0  0  0  0  0  0  0  0  0  0  0  0
   19.3859  -27.6659   -1.0999 C   0  0  2  0  0  0  0  0  0  0  0  0
   20.4166  -26.7080   -0.5396 C   0  0  0  0  0  0  0  0  0  0  0  0
   20.0255  -28.6152   -2.0646 C   0  0  0  0  0  0  0  0  0  0  0  0
   20.5061  -29.8859   -1.4824 C   0  0  2  0  0  0  0  0  0  0  0  0
   21.0801  -30.8088   -2.3967 N   0  0  0  0  0  0  0  0  0  0  0  0
   19.3642  -30.5277   -0.7576 C   0  0  0  0  0  0  0  0  0  0  0  0
   18.8259  -29.8904    0.1737 O   0  0  0  0  0  0  0  0  0  0  0  0
   14.4340  -31.8599    0.0634 C   0  0  0  0  0  0  0  0  0  0  0  0
   15.2245  -32.6727   -0.9085 C   0  0  1  0  0  0  0  0  0  0  0  0
   14.3791  -32.9099   -2.1606 C   0  0  0  0  0  0  0  0  0  0  0  0
   16.5743  -32.2007   -1.2111 C   0  0  0  0  0  0  0  0  0  0  0  0
   17.7244  -32.4183   -0.3291 C   0  0  2  0  0  0  0  0  0  0  0  0
   18.8735  -31.8136   -1.0803 N   0  0  0  0  0  0  0  0  0  0  0  0
   18.0958  -33.8162   -0.0613 C   0  0  0  0  0  0  0  0  0  0  0  0
   19.2614  -34.3767   -0.6373 O   0  0  0  0  0  0  0  0  0  0  0  0
   17.4602  -34.6106    0.6600 O   0  0  0  0  0  0  0  0  0  0  0  0
  2  1  1  6
  2  3  1  0
  3  4  1  0
  4  8  1  0
  5  4  2  0
  6 14  1  0
  6  2  1  0
  7  6  2  0
 10  9  1  6
 10 12  1  0
 11 10  1  0
 13 12  1  6
 13 14  1  0
 15 16  2  0
 15 13  1  0
 18 17  1  1
 18 19  1  0
 21 20  1  6
 20 18  1  0
 21 22  1  0
 22 15  1  0
 23 21  1  0
 24 23  1  0
 25 23  2  0
M  END
$$$$
