QHP.pdb
     RDKit          3D

 27 28  0  0  1  0  0  0  0  0999 V2000
   13.0134  -23.1525    4.3605 N   0  0  0  0  0  0  0  0  0  0  0  0
   14.4371  -23.3044    4.1428 C   0  0  0  0  0  0  0  0  0  0  0  0
   14.9135  -24.4238    4.3916 O   0  0  0  0  0  0  0  0  0  0  0  0
   15.2502  -22.1865    3.6605 C   0  0  0  0  0  0  0  0  0  0  0  0
   14.5223  -20.9353    3.4146 C   0  0  0  0  0  0  0  0  0  0  0  0
   15.2323  -19.7847    2.8123 C   0  0  2  0  0  0  0  0  0  0  0  0
   15.5730  -20.1678    1.4027 N   0  0  0  0  0  0  0  0  0  0  0  0
   16.4690  -19.3186    3.4129 C   0  0  0  0  0  0  0  0  0  0  0  0
   17.5986  -19.7280    3.0397 O   0  0  0  0  0  0  0  0  0  0  0  0
   16.4583  -18.3498    4.4721 N   0  0  0  0  0  0  0  0  0  0  0  0
   17.6742  -17.9502    5.1824 C   0  0  1  0  0  0  0  0  0  0  0  0
   17.3896  -16.7018    5.9932 C   0  0  0  0  0  0  0  0  0  0  0  0
   17.7239  -15.4461    5.2329 C   0  0  0  0  0  0  0  0  0  0  0  0
   18.2789  -15.4428    3.9589 C   0  0  0  0  0  0  0  0  0  0  0  0
   18.4318  -14.1658    3.6149 N   0  0  0  0  0  0  0  0  0  0  0  0
   17.9964  -13.3846    4.6184 C   0  0  0  0  0  0  0  0  0  0  0  0
   17.5682  -14.1714    5.5972 N   0  0  0  0  0  0  0  0  0  0  0  0
   18.0188  -19.0363    6.1187 C   0  0  0  0  0  0  0  0  0  0  0  0
   17.1316  -19.9184    6.3976 O   0  0  0  0  0  0  0  0  0  0  0  0
   19.2756  -19.1680    6.7302 N   0  0  0  0  0  0  0  0  0  0  0  0
   20.3900  -18.2283    6.4947 C   0  0  0  0  0  0  0  0  0  0  0  0
   21.5165  -19.1855    6.1843 C   0  0  0  0  0  0  0  0  0  0  0  0
   21.2314  -20.3551    7.0795 C   0  0  0  0  0  0  0  0  0  0  0  0
   19.8375  -20.1270    7.6431 C   0  0  1  0  0  0  0  0  0  0  0  0
   19.9625  -19.5072    9.0179 C   0  0  0  0  0  0  0  0  0  0  0  0
   20.1556  -20.2364   10.0169 O   0  0  0  0  0  0  0  0  0  0  0  0
   19.8707  -18.1424    9.2295 O   0  0  0  0  0  0  0  0  0  0  0  0
  2  4  1  0
  2  1  1  0
  3  2  2  0
  5  4  1  0
  6  8  1  0
  6  5  1  0
  6  7  1  6
  8  9  2  0
 10 11  1  0
 10  8  1  0
 11 12  1  1
 12 13  1  0
 13 14  2  0
 13 17  1  0
 14 15  1  0
 15 16  1  0
 17 16  2  0
 18 20  1  0
 18 11  1  0
 19 18  2  0
 20 24  1  0
 21 22  1  0
 21 20  1  0
 22 23  1  0
 23 24  1  0
 24 25  1  1
 25 27  1  0
 26 25  2  0
M  END
$$$$
