QHP.pdb
     RDKit          3D

 27 28  0  0  1  0  0  0  0  0999 V2000
   10.7527  -10.5880    3.5452 N   0  0  0  0  0  0  0  0  0  0  0  0
   10.1449  -11.6600    2.7846 C   0  0  0  0  0  0  0  0  0  0  0  0
    9.4275  -11.3172    1.8308 O   0  0  0  0  0  0  0  0  0  0  0  0
   10.3733  -13.0617    3.1407 C   0  0  0  0  0  0  0  0  0  0  0  0
   11.2508  -13.2852    4.2965 C   0  0  0  0  0  0  0  0  0  0  0  0
   12.3033  -14.3233    4.2232 C   0  0  2  0  0  0  0  0  0  0  0  0
   11.6113  -15.6536    4.2552 N   0  0  0  0  0  0  0  0  0  0  0  0
   13.3237  -14.3754    5.2544 C   0  0  0  0  0  0  0  0  0  0  0  0
   13.0538  -14.6012    6.4624 O   0  0  0  0  0  0  0  0  0  0  0  0
   14.7089  -14.1746    4.9358 N   0  0  0  0  0  0  0  0  0  0  0  0
   15.7588  -14.1885    5.9558 C   0  0  1  0  0  0  0  0  0  0  0  0
   16.8104  -15.2108    5.5740 C   0  0  0  0  0  0  0  0  0  0  0  0
   16.3468  -16.6203    5.8284 C   0  0  0  0  0  0  0  0  0  0  0  0
   16.1547  -17.1496    7.0989 C   0  0  0  0  0  0  0  0  0  0  0  0
   15.7475  -18.4057    6.9292 N   0  0  0  0  0  0  0  0  0  0  0  0
   15.6805  -18.6726    5.6133 C   0  0  0  0  0  0  0  0  0  0  0  0
   16.0464  -17.5818    4.9524 N   0  0  0  0  0  0  0  0  0  0  0  0
   16.3931  -12.8571    5.9584 C   0  0  0  0  0  0  0  0  0  0  0  0
   16.3453  -12.1462    4.8929 O   0  0  0  0  0  0  0  0  0  0  0  0
   17.0530  -12.3109    7.0706 N   0  0  0  0  0  0  0  0  0  0  0  0
   17.1548  -13.0053    8.3698 C   0  0  0  0  0  0  0  0  0  0  0  0
   16.7068  -11.9171    9.3168 C   0  0  0  0  0  0  0  0  0  0  0  0
   17.2513  -10.6682    8.6888 C   0  0  0  0  0  0  0  0  0  0  0  0
   17.7375  -11.0676    7.3043 C   0  0  1  0  0  0  0  0  0  0  0  0
   19.2297  -11.3124    7.3630 C   0  0  0  0  0  0  0  0  0  0  0  0
   19.6655  -12.4444    7.6722 O   0  0  0  0  0  0  0  0  0  0  0  0
   20.1571  -10.3228    7.0860 O   0  0  0  0  0  0  0  0  0  0  0  0
  2  4  1  0
  2  1  1  0
  3  2  2  0
  5  4  1  0
  6  8  1  0
  6  5  1  0
  6  7  1  1
  8  9  2  0
 10 11  1  0
 10  8  1  0
 11 12  1  6
 12 13  1  0
 13 14  2  0
 13 17  1  0
 14 15  1  0
 15 16  1  0
 17 16  2  0
 18 20  1  0
 18 11  1  0
 19 18  2  0
 20 24  1  0
 21 22  1  0
 21 20  1  0
 22 23  1  0
 23 24  1  0
 24 25  1  1
 25 27  1  0
 26 25  2  0
M  END
$$$$
