QHP.pdb
     RDKit          3D

 27 28  0  0  1  0  0  0  0  0999 V2000
   14.5995  -15.5260  -14.3453 N   0  0  0  0  0  0  0  0  0  0  0  0
   13.8675  -15.0370  -15.4952 C   0  0  0  0  0  0  0  0  0  0  0  0
   12.8456  -15.6709  -15.8048 O   0  0  0  0  0  0  0  0  0  0  0  0
   14.3270  -13.8624  -16.2386 C   0  0  0  0  0  0  0  0  0  0  0  0
   15.5541  -13.2345  -15.7329 C   0  0  0  0  0  0  0  0  0  0  0  0
   16.1623  -12.1131  -16.4835 C   0  0  2  0  0  0  0  0  0  0  0  0
   16.4630  -12.6197  -17.8629 N   0  0  0  0  0  0  0  0  0  0  0  0
   17.3929  -11.5162  -15.9968 C   0  0  0  0  0  0  0  0  0  0  0  0
   17.5144  -11.0780  -14.8237 O   0  0  0  0  0  0  0  0  0  0  0  0
   18.5463  -11.4033  -16.8438 N   0  0  0  0  0  0  0  0  0  0  0  0
   19.8197  -10.8608  -16.3674 C   0  0  1  0  0  0  0  0  0  0  0  0
   20.9326  -11.3220  -17.2870 C   0  0  0  0  0  0  0  0  0  0  0  0
   21.1862  -12.8012  -17.1692 C   0  0  0  0  0  0  0  0  0  0  0  0
   21.4446  -13.4440  -15.9646 C   0  0  0  0  0  0  0  0  0  0  0  0
   21.6156  -14.7328  -16.2511 N   0  0  0  0  0  0  0  0  0  0  0  0
   21.4742  -14.9116  -17.5759 C   0  0  0  0  0  0  0  0  0  0  0  0
   21.2135  -13.7324  -18.1254 N   0  0  0  0  0  0  0  0  0  0  0  0
   19.7353   -9.3908  -16.4511 C   0  0  0  0  0  0  0  0  0  0  0  0
   19.0050   -8.8632  -17.3629 O   0  0  0  0  0  0  0  0  0  0  0  0
   20.4118   -8.5210  -15.5813 N   0  0  0  0  0  0  0  0  0  0  0  0
   21.2625   -8.9917  -14.4699 C   0  0  0  0  0  0  0  0  0  0  0  0
   20.7265   -8.1663  -13.3240 C   0  0  0  0  0  0  0  0  0  0  0  0
   20.3846   -6.8574  -13.9725 C   0  0  0  0  0  0  0  0  0  0  0  0
   20.4858   -7.0887  -15.4722 C   0  0  1  0  0  0  0  0  0  0  0  0
   21.8405   -6.6121  -15.9491 C   0  0  0  0  0  0  0  0  0  0  0  0
   22.0453   -5.3903  -16.1289 O   0  0  0  0  0  0  0  0  0  0  0  0
   22.8876   -7.4811  -16.2029 O   0  0  0  0  0  0  0  0  0  0  0  0
  2  4  1  0
  2  1  1  0
  3  2  2  0
  5  4  1  0
  6  8  1  0
  6  5  1  0
  6  7  1  6
  8  9  2  0
 10 11  1  0
 10  8  1  0
 11 12  1  6
 12 13  1  0
 13 14  2  0
 13 17  1  0
 14 15  1  0
 15 16  1  0
 17 16  2  0
 18 20  1  0
 18 11  1  0
 19 18  2  0
 20 24  1  0
 21 22  1  0
 21 20  1  0
 22 23  1  0
 23 24  1  0
 24 25  1  1
 25 27  1  0
 26 25  2  0
M  END
$$$$
