QHP.pdb
     RDKit          3D

 27 28  0  0  1  0  0  0  0  0999 V2000
   21.8303  -14.3738  -17.5450 N   0  0  0  0  0  0  0  0  0  0  0  0
   20.9139  -14.6505  -18.6317 C   0  0  0  0  0  0  0  0  0  0  0  0
   20.5718  -15.8359  -18.7721 O   0  0  0  0  0  0  0  0  0  0  0  0
   20.4344  -13.5785  -19.5060 C   0  0  0  0  0  0  0  0  0  0  0  0
   19.4800  -12.6444  -18.8958 C   0  0  0  0  0  0  0  0  0  0  0  0
   19.5889  -11.1971  -19.1860 C   0  0  2  0  0  0  0  0  0  0  0  0
   20.9694  -10.9591  -19.7218 N   0  0  0  0  0  0  0  0  0  0  0  0
   19.4043  -10.2403  -18.1099 C   0  0  0  0  0  0  0  0  0  0  0  0
   18.3799  -10.2330  -17.3795 O   0  0  0  0  0  0  0  0  0  0  0  0
   20.4010   -9.2480  -17.8227 N   0  0  0  0  0  0  0  0  0  0  0  0
   20.2485   -8.2723  -16.7422 C   0  0  1  0  0  0  0  0  0  0  0  0
   21.5910   -8.0571  -16.0726 C   0  0  0  0  0  0  0  0  0  0  0  0
   21.9869   -9.2268  -15.2117 C   0  0  0  0  0  0  0  0  0  0  0  0
   21.1569  -10.3127  -14.9600 C   0  0  0  0  0  0  0  0  0  0  0  0
   21.8399  -11.1371  -14.1686 N   0  0  0  0  0  0  0  0  0  0  0  0
   23.0510  -10.6080  -13.9225 C   0  0  0  0  0  0  0  0  0  0  0  0
   23.1311   -9.4474  -14.5605 N   0  0  0  0  0  0  0  0  0  0  0  0
   19.8303   -6.9962  -17.3518 C   0  0  0  0  0  0  0  0  0  0  0  0
   20.1278   -6.7685  -18.5777 O   0  0  0  0  0  0  0  0  0  0  0  0
   19.1148   -6.0025  -16.6652 N   0  0  0  0  0  0  0  0  0  0  0  0
   18.6775   -6.1469  -15.2622 C   0  0  0  0  0  0  0  0  0  0  0  0
   17.2214   -5.7598  -15.3705 C   0  0  0  0  0  0  0  0  0  0  0  0
   17.2273   -4.6862  -16.4184 C   0  0  0  0  0  0  0  0  0  0  0  0
   18.6167   -4.7051  -17.0362 C   0  0  1  0  0  0  0  0  0  0  0  0
   19.4572   -3.6314  -16.3800 C   0  0  0  0  0  0  0  0  0  0  0  0
   19.3325   -2.4371  -16.7336 O   0  0  0  0  0  0  0  0  0  0  0  0
   20.3787   -3.9121  -15.3860 O   0  0  0  0  0  0  0  0  0  0  0  0
  2  4  1  0
  2  1  1  0
  3  2  2  0
  5  4  1  0
  6  8  1  0
  6  5  1  0
  6  7  1  1
  8  9  2  0
 10 11  1  0
 10  8  1  0
 11 12  1  6
 12 13  1  0
 13 14  2  0
 13 17  1  0
 14 15  1  0
 15 16  1  0
 17 16  2  0
 18 20  1  0
 18 11  1  0
 19 18  2  0
 20 24  1  0
 21 22  1  0
 21 20  1  0
 22 23  1  0
 23 24  1  0
 24 25  1  1
 25 27  1  0
 26 25  2  0
M  END
$$$$
