QHP.pdb
     RDKit          3D

 27 28  0  0  1  0  0  0  0  0999 V2000
   16.5339  -13.4423    6.1612 N   0  0  0  0  0  0  0  0  0  0  0  0
   16.5567  -13.2496    4.7261 C   0  0  0  0  0  0  0  0  0  0  0  0
   16.5796  -12.0726    4.3312 O   0  0  0  0  0  0  0  0  0  0  0  0
   16.5482  -14.3924    3.8110 C   0  0  0  0  0  0  0  0  0  0  0  0
   16.4817  -15.7129    4.4495 C   0  0  0  0  0  0  0  0  0  0  0  0
   16.2895  -16.9187    3.6129 C   0  0  2  0  0  0  0  0  0  0  0  0
   14.9398  -16.7970    2.9703 N   0  0  0  0  0  0  0  0  0  0  0  0
   16.3217  -18.2293    4.2365 C   0  0  0  0  0  0  0  0  0  0  0  0
   15.8351  -18.4485    5.3758 O   0  0  0  0  0  0  0  0  0  0  0  0
   16.9141  -19.3528    3.5676 N   0  0  0  0  0  0  0  0  0  0  0  0
   16.9917  -20.6797    4.1809 C   0  0  1  0  0  0  0  0  0  0  0  0
   17.5495  -21.6630    3.1715 C   0  0  0  0  0  0  0  0  0  0  0  0
   17.5865  -23.0676    3.7119 C   0  0  0  0  0  0  0  0  0  0  0  0
   18.7258  -23.6562    4.2474 C   0  0  0  0  0  0  0  0  0  0  0  0
   18.3790  -24.8874    4.6168 N   0  0  0  0  0  0  0  0  0  0  0  0
   17.0796  -25.0823    4.3332 C   0  0  0  0  0  0  0  0  0  0  0  0
   16.6065  -23.9712    3.7836 N   0  0  0  0  0  0  0  0  0  0  0  0
   17.9384  -20.5933    5.3084 C   0  0  0  0  0  0  0  0  0  0  0  0
   18.9646  -19.8330    5.1985 O   0  0  0  0  0  0  0  0  0  0  0  0
   17.7829  -21.2990    6.5119 N   0  0  0  0  0  0  0  0  0  0  0  0
   16.6634  -22.2286    6.7634 C   0  0  0  0  0  0  0  0  0  0  0  0
   16.1792  -21.7427    8.1092 C   0  0  0  0  0  0  0  0  0  0  0  0
   17.4438  -21.3275    8.8012 C   0  0  0  0  0  0  0  0  0  0  0  0
   18.5321  -21.3421    7.7390 C   0  0  1  0  0  0  0  0  0  0  0  0
   19.2845  -22.6520    7.8293 C   0  0  0  0  0  0  0  0  0  0  0  0
   19.0786  -23.5504    6.9822 O   0  0  0  0  0  0  0  0  0  0  0  0
   20.2093  -22.9112    8.8259 O   0  0  0  0  0  0  0  0  0  0  0  0
  2  4  1  0
  2  1  1  0
  3  2  2  0
  5  4  1  0
  6  8  1  0
  6  5  1  0
  6  7  1  1
  8  9  2  0
 10 11  1  0
 10  8  1  0
 11 12  1  6
 12 13  1  0
 13 14  2  0
 13 17  1  0
 14 15  1  0
 15 16  1  0
 17 16  2  0
 18 20  1  0
 18 11  1  0
 19 18  2  0
 20 24  1  0
 21 22  1  0
 21 20  1  0
 22 23  1  0
 23 24  1  0
 24 25  1  6
 25 27  1  0
 26 25  2  0
M  END
$$$$
