QHP.pdb
     RDKit          3D

 27 28  0  0  1  0  0  0  0  0999 V2000
   25.5725  -19.0442   -8.1741 N   0  0  0  0  0  0  0  0  0  0  0  0
   26.6958  -19.9510   -8.2894 C   0  0  0  0  0  0  0  0  0  0  0  0
   26.7691  -20.8450   -7.4308 O   0  0  0  0  0  0  0  0  0  0  0  0
   27.6800  -19.8005   -9.3628 C   0  0  0  0  0  0  0  0  0  0  0  0
   27.2328  -20.2270  -10.6947 C   0  0  0  0  0  0  0  0  0  0  0  0
   25.9374  -20.9284  -10.8393 C   0  0  2  0  0  0  0  0  0  0  0  0
   26.1726  -22.3645  -10.4760 N   0  0  0  0  0  0  0  0  0  0  0  0
   25.2771  -20.9430  -12.1320 C   0  0  0  0  0  0  0  0  0  0  0  0
   24.9360  -19.8896  -12.7294 O   0  0  0  0  0  0  0  0  0  0  0  0
   24.9850  -22.1797  -12.7999 N   0  0  0  0  0  0  0  0  0  0  0  0
   24.2921  -22.2310  -14.0884 C   0  0  1  0  0  0  0  0  0  0  0  0
   24.3576  -23.6439  -14.6329 C   0  0  0  0  0  0  0  0  0  0  0  0
   23.6939  -23.7618  -15.9789 C   0  0  0  0  0  0  0  0  0  0  0  0
   24.3779  -23.6672  -17.1849 C   0  0  0  0  0  0  0  0  0  0  0  0
   23.4716  -23.8192  -18.1483 N   0  0  0  0  0  0  0  0  0  0  0  0
   22.2626  -24.0029  -17.5899 C   0  0  0  0  0  0  0  0  0  0  0  0
   22.4077  -23.9664  -16.2716 N   0  0  0  0  0  0  0  0  0  0  0  0
   22.8761  -21.8986  -13.8447 C   0  0  0  0  0  0  0  0  0  0  0  0
   22.3525  -22.2083  -12.7164 O   0  0  0  0  0  0  0  0  0  0  0  0
   22.0550  -21.2532  -14.7828 N   0  0  0  0  0  0  0  0  0  0  0  0
   22.5135  -20.8824  -16.1366 C   0  0  0  0  0  0  0  0  0  0  0  0
   22.0803  -19.4369  -16.2042 C   0  0  0  0  0  0  0  0  0  0  0  0
   20.7921  -19.4269  -15.4355 C   0  0  0  0  0  0  0  0  0  0  0  0
   20.6963  -20.7820  -14.7519 C   0  0  1  0  0  0  0  0  0  0  0  0
   19.8241  -21.6909  -15.5903 C   0  0  0  0  0  0  0  0  0  0  0  0
   18.6514  -21.9387  -15.2293 O   0  0  0  0  0  0  0  0  0  0  0  0
   20.2703  -22.2756  -16.7629 O   0  0  0  0  0  0  0  0  0  0  0  0
  2  4  1  0
  2  1  1  0
  3  2  2  0
  5  4  1  0
  6  8  1  0
  6  5  1  0
  6  7  1  6
  8  9  2  0
 10 11  1  0
 10  8  1  0
 11 12  1  1
 12 13  1  0
 13 14  2  0
 13 17  1  0
 14 15  1  0
 15 16  1  0
 17 16  2  0
 18 20  1  0
 18 11  1  0
 19 18  2  0
 20 24  1  0
 21 22  1  0
 21 20  1  0
 22 23  1  0
 23 24  1  0
 24 25  1  6
 25 27  1  0
 26 25  2  0
M  END
$$$$
