QHP.pdb
     RDKit          3D

 27 28  0  0  1  0  0  0  0  0999 V2000
   26.1189  -25.9535  -15.5065 N   0  0  0  0  0  0  0  0  0  0  0  0
   25.3953  -26.3612  -16.6929 C   0  0  0  0  0  0  0  0  0  0  0  0
   26.0211  -27.0654  -17.5018 O   0  0  0  0  0  0  0  0  0  0  0  0
   24.0065  -25.9508  -16.9081 C   0  0  0  0  0  0  0  0  0  0  0  0
   23.3686  -25.2625  -15.7789 C   0  0  0  0  0  0  0  0  0  0  0  0
   22.6525  -23.9882  -16.0119 C   0  0  2  0  0  0  0  0  0  0  0  0
   23.6459  -23.0258  -16.5921 N   0  0  0  0  0  0  0  0  0  0  0  0
   22.0366  -23.3033  -14.8898 C   0  0  0  0  0  0  0  0  0  0  0  0
   22.6202  -23.1539  -13.7853 O   0  0  0  0  0  0  0  0  0  0  0  0
   20.7154  -22.7516  -14.9943 N   0  0  0  0  0  0  0  0  0  0  0  0
   20.0795  -22.0245  -13.8945 C   0  0  1  0  0  0  0  0  0  0  0  0
   19.9705  -20.5587  -14.2640 C   0  0  0  0  0  0  0  0  0  0  0  0
   21.3195  -19.9347  -14.5034 C   0  0  0  0  0  0  0  0  0  0  0  0
   22.1954  -19.5809  -13.4843 C   0  0  0  0  0  0  0  0  0  0  0  0
   23.2730  -19.0651  -14.0719 N   0  0  0  0  0  0  0  0  0  0  0  0
   23.0996  -19.0857  -15.4048 C   0  0  0  0  0  0  0  0  0  0  0  0
   21.9098  -19.6158  -15.6575 N   0  0  0  0  0  0  0  0  0  0  0  0
   18.7145  -22.5606  -13.7381 C   0  0  0  0  0  0  0  0  0  0  0  0
   18.1062  -23.0166  -14.7702 O   0  0  0  0  0  0  0  0  0  0  0  0
   18.0312  -22.6059  -12.5127 N   0  0  0  0  0  0  0  0  0  0  0  0
   18.6084  -22.1082  -11.2480 C   0  0  0  0  0  0  0  0  0  0  0  0
   18.3525  -23.2807  -10.3306 C   0  0  0  0  0  0  0  0  0  0  0  0
   17.0316  -23.8089  -10.8068 C   0  0  0  0  0  0  0  0  0  0  0  0
   16.7377  -23.0953  -12.1172 C   0  0  1  0  0  0  0  0  0  0  0  0
   15.8154  -21.9278  -11.8408 C   0  0  0  0  0  0  0  0  0  0  0  0
   16.2839  -20.7712  -11.7423 O   0  0  0  0  0  0  0  0  0  0  0  0
   14.4482  -22.0803  -11.6873 O   0  0  0  0  0  0  0  0  0  0  0  0
  2  4  1  0
  2  1  1  0
  3  2  2  0
  5  4  1  0
  6  8  1  0
  6  5  1  0
  6  7  1  1
  8  9  2  0
 10 11  1  0
 10  8  1  0
 11 12  1  6
 12 13  1  0
 13 14  2  0
 13 17  1  0
 14 15  1  0
 15 16  1  0
 17 16  2  0
 18 20  1  0
 18 11  1  0
 19 18  2  0
 20 24  1  0
 21 22  1  0
 21 20  1  0
 22 23  1  0
 23 24  1  0
 24 25  1  1
 25 27  1  0
 26 25  2  0
M  END
$$$$
