QHP.pdb
     RDKit          3D

 27 28  0  0  1  0  0  0  0  0999 V2000
   36.1711  -24.6383  -17.8466 N   0  0  0  0  0  0  0  0  0  0  0  0
   34.7923  -24.6660  -18.2886 C   0  0  0  0  0  0  0  0  0  0  0  0
   34.3317  -23.5947  -18.7154 O   0  0  0  0  0  0  0  0  0  0  0  0
   34.0033  -25.8975  -18.2226 C   0  0  0  0  0  0  0  0  0  0  0  0
   33.3997  -26.1923  -16.9170 C   0  0  0  0  0  0  0  0  0  0  0  0
   32.1466  -25.5105  -16.5221 C   0  0  2  0  0  0  0  0  0  0  0  0
   31.9951  -25.6931  -15.0411 N   0  0  0  0  0  0  0  0  0  0  0  0
   30.8897  -25.9360  -17.1109 C   0  0  0  0  0  0  0  0  0  0  0  0
   30.6711  -25.8854  -18.3489 O   0  0  0  0  0  0  0  0  0  0  0  0
   29.8255  -26.4474  -16.2944 N   0  0  0  0  0  0  0  0  0  0  0  0
   28.5553  -26.9071  -16.8583 C   0  0  1  0  0  0  0  0  0  0  0  0
   28.0402  -28.0736  -16.0393 C   0  0  0  0  0  0  0  0  0  0  0  0
   28.7158  -29.3667  -16.4107 C   0  0  0  0  0  0  0  0  0  0  0  0
   29.5465  -29.5111  -17.5153 C   0  0  0  0  0  0  0  0  0  0  0  0
   29.9540  -30.7785  -17.5207 N   0  0  0  0  0  0  0  0  0  0  0  0
   29.4120  -31.4194  -16.4706 C   0  0  0  0  0  0  0  0  0  0  0  0
   28.6613  -30.5535  -15.8020 N   0  0  0  0  0  0  0  0  0  0  0  0
   27.5889  -25.7996  -16.7372 C   0  0  0  0  0  0  0  0  0  0  0  0
   27.8110  -24.8751  -15.8776 O   0  0  0  0  0  0  0  0  0  0  0  0
   26.4265  -25.6916  -17.5167 N   0  0  0  0  0  0  0  0  0  0  0  0
   26.0253  -26.7056  -18.5123 C   0  0  0  0  0  0  0  0  0  0  0  0
   25.7510  -25.8371  -19.7173 C   0  0  0  0  0  0  0  0  0  0  0  0
   25.1702  -24.5902  -19.1184 C   0  0  0  0  0  0  0  0  0  0  0  0
   25.3900  -24.6993  -17.6176 C   0  0  1  0  0  0  0  0  0  0  0  0
   24.1229  -25.2210  -16.9755 C   0  0  0  0  0  0  0  0  0  0  0  0
   23.8975  -26.4520  -16.9481 O   0  0  0  0  0  0  0  0  0  0  0  0
   23.1794  -24.3843  -16.4050 O   0  0  0  0  0  0  0  0  0  0  0  0
  2  4  1  0
  2  1  1  0
  3  2  2  0
  5  4  1  0
  6  8  1  0
  6  5  1  0
  6  7  1  1
  8  9  2  0
 10 11  1  0
 10  8  1  0
 11 12  1  1
 12 13  1  0
 13 14  2  0
 13 17  1  0
 14 15  1  0
 15 16  1  0
 17 16  2  0
 18 20  1  0
 18 11  1  0
 19 18  2  0
 20 24  1  0
 21 22  1  0
 21 20  1  0
 22 23  1  0
 23 24  1  0
 24 25  1  1
 25 27  1  0
 26 25  2  0
M  END
$$$$
