QHP.pdb
     RDKit          3D

 27 28  0  0  1  0  0  0  0  0999 V2000
   13.1748  -21.1492    5.7612 N   0  0  0  0  0  0  0  0  0  0  0  0
   12.5251  -21.7125    4.5960 C   0  0  0  0  0  0  0  0  0  0  0  0
   11.3026  -21.9080    4.6907 O   0  0  0  0  0  0  0  0  0  0  0  0
   13.2871  -22.0301    3.3868 C   0  0  0  0  0  0  0  0  0  0  0  0
   14.7314  -21.7780    3.4654 C   0  0  0  0  0  0  0  0  0  0  0  0
   15.2896  -20.5424    2.8716 C   0  0  2  0  0  0  0  0  0  0  0  0
   15.6431  -20.8596    1.4489 N   0  0  0  0  0  0  0  0  0  0  0  0
   16.4758  -19.9449    3.4576 C   0  0  0  0  0  0  0  0  0  0  0  0
   17.6393  -20.3224    3.1632 O   0  0  0  0  0  0  0  0  0  0  0  0
   16.3726  -18.8753    4.4094 N   0  0  0  0  0  0  0  0  0  0  0  0
   17.5446  -18.2919    5.0643 C   0  0  1  0  0  0  0  0  0  0  0  0
   17.1516  -16.9783    5.7101 C   0  0  0  0  0  0  0  0  0  0  0  0
   17.4983  -15.7969    4.8439 C   0  0  0  0  0  0  0  0  0  0  0  0
   18.1156  -15.9069    3.6037 C   0  0  0  0  0  0  0  0  0  0  0  0
   18.2602  -14.6672    3.1404 N   0  0  0  0  0  0  0  0  0  0  0  0
   17.7605  -13.8007    4.0385 C   0  0  0  0  0  0  0  0  0  0  0  0
   17.2998  -14.4964    5.0702 N   0  0  0  0  0  0  0  0  0  0  0  0
   17.9653  -19.2195    6.1308 C   0  0  0  0  0  0  0  0  0  0  0  0
   17.1519  -20.1336    6.5130 O   0  0  0  0  0  0  0  0  0  0  0  0
   19.2186  -19.1652    6.7607 N   0  0  0  0  0  0  0  0  0  0  0  0
   20.2706  -18.2004    6.3827 C   0  0  0  0  0  0  0  0  0  0  0  0
   21.4637  -19.1148    6.2341 C   0  0  0  0  0  0  0  0  0  0  0  0
   21.2445  -20.1438    7.3036 C   0  0  0  0  0  0  0  0  0  0  0  0
   19.8300  -19.9255    7.8177 C   0  0  1  0  0  0  0  0  0  0  0  0
   19.8921  -19.0875    9.0762 C   0  0  0  0  0  0  0  0  0  0  0  0
   19.7684  -17.8438    9.0054 O   0  0  0  0  0  0  0  0  0  0  0  0
   20.0842  -19.6417   10.3299 O   0  0  0  0  0  0  0  0  0  0  0  0
  2  4  1  0
  2  1  1  0
  3  2  2  0
  5  4  1  0
  6  8  1  0
  6  5  1  0
  6  7  1  6
  8  9  2  0
 10 11  1  0
 10  8  1  0
 11 12  1  1
 12 13  1  0
 13 14  2  0
 13 17  1  0
 14 15  1  0
 15 16  1  0
 17 16  2  0
 18 20  1  0
 18 11  1  0
 19 18  2  0
 20 24  1  0
 21 22  1  0
 21 20  1  0
 22 23  1  0
 23 24  1  0
 24 25  1  1
 25 27  1  0
 26 25  2  0
M  END
$$$$
