QHP.pdb
     RDKit          3D

 27 28  0  0  1  0  0  0  0  0999 V2000
   26.1438  -20.8384  -19.6074 N   0  0  0  0  0  0  0  0  0  0  0  0
   25.2447  -19.7737  -20.0015 C   0  0  0  0  0  0  0  0  0  0  0  0
   25.7602  -18.8119  -20.5942 O   0  0  0  0  0  0  0  0  0  0  0  0
   23.8131  -19.8458  -19.7036 C   0  0  0  0  0  0  0  0  0  0  0  0
   23.3745  -21.0567  -18.9985 C   0  0  0  0  0  0  0  0  0  0  0  0
   23.0054  -20.9741  -17.5675 C   0  0  2  0  0  0  0  0  0  0  0  0
   22.2455  -19.6942  -17.3829 N   0  0  0  0  0  0  0  0  0  0  0  0
   24.0528  -20.9689  -16.5622 C   0  0  0  0  0  0  0  0  0  0  0  0
   24.7636  -21.9786  -16.3206 O   0  0  0  0  0  0  0  0  0  0  0  0
   24.3327  -19.7910  -15.7911 N   0  0  0  0  0  0  0  0  0  0  0  0
   25.3395  -19.7694  -14.7286 C   0  0  1  0  0  0  0  0  0  0  0  0
   25.8172  -18.3457  -14.5242 C   0  0  0  0  0  0  0  0  0  0  0  0
   26.8604  -17.9493  -15.5346 C   0  0  0  0  0  0  0  0  0  0  0  0
   27.4051  -18.8280  -16.4633 C   0  0  0  0  0  0  0  0  0  0  0  0
   28.2832  -18.1281  -17.1785 N   0  0  0  0  0  0  0  0  0  0  0  0
   28.3031  -16.8602  -16.7323 C   0  0  0  0  0  0  0  0  0  0  0  0
   27.4354  -16.7611  -15.7334 N   0  0  0  0  0  0  0  0  0  0  0  0
   24.6831  -20.2158  -13.4857 C   0  0  0  0  0  0  0  0  0  0  0  0
   23.4024  -20.2272  -13.4313 O   0  0  0  0  0  0  0  0  0  0  0  0
   25.3822  -20.6370  -12.3436 N   0  0  0  0  0  0  0  0  0  0  0  0
   26.8492  -20.5330  -12.2114 C   0  0  0  0  0  0  0  0  0  0  0  0
   27.1999  -21.9304  -11.7577 C   0  0  0  0  0  0  0  0  0  0  0  0
   26.0390  -22.3117  -10.8873 C   0  0  0  0  0  0  0  0  0  0  0  0
   24.9793  -21.2424  -11.1026 C   0  0  1  0  0  0  0  0  0  0  0  0
   25.0779  -20.2259   -9.9859 C   0  0  0  0  0  0  0  0  0  0  0  0
   24.3847  -20.3636   -8.9527 O   0  0  0  0  0  0  0  0  0  0  0  0
   25.9155  -19.1260  -10.0532 O   0  0  0  0  0  0  0  0  0  0  0  0
  2  4  1  0
  2  1  1  0
  3  2  2  0
  5  4  1  0
  6  8  1  0
  6  5  1  0
  6  7  1  6
  8  9  2  0
 10 11  1  0
 10  8  1  0
 11 12  1  1
 12 13  1  0
 13 14  2  0
 13 17  1  0
 14 15  1  0
 15 16  1  0
 17 16  2  0
 18 20  1  0
 18 11  1  0
 19 18  2  0
 20 24  1  0
 21 22  1  0
 21 20  1  0
 22 23  1  0
 23 24  1  0
 24 25  1  1
 25 27  1  0
 26 25  2  0
M  END
$$$$
