TKD.pdb
     RDKit          3D

 25 24  0  0  1  0  0  0  0  0999 V2000
   41.8855  -12.1112   -7.5725 C   0  0  0  0  0  0  0  0  0  0  0  0
   43.1709  -11.5707   -7.0071 C   0  0  1  0  0  0  0  0  0  0  0  0
   42.9809  -10.9549   -5.7845 O   0  0  0  0  0  0  0  0  0  0  0  0
   44.1568  -12.7069   -6.8275 C   0  0  2  0  0  0  0  0  0  0  0  0
   45.3566  -12.1464   -6.2559 N   0  0  0  0  0  0  0  0  0  0  0  0
   44.5092  -13.3018   -8.1434 C   0  0  0  0  0  0  0  0  0  0  0  0
   45.4140  -12.7759   -8.8013 O   0  0  0  0  0  0  0  0  0  0  0  0
   43.8555  -14.4342   -8.6652 N   0  0  0  0  0  0  0  0  0  0  0  0
   44.0080  -14.9576   -9.9838 C   0  0  1  0  0  0  0  0  0  0  0  0
   43.3484  -16.2855  -10.2316 C   0  0  0  0  0  0  0  0  0  0  0  0
   44.0544  -17.4088   -9.4670 C   0  0  0  0  0  0  0  0  0  0  0  0
   43.2657  -18.6910   -9.7683 C   0  0  0  0  0  0  0  0  0  0  0  0
   43.8948  -19.8572   -9.0473 C   0  0  0  0  0  0  0  0  0  0  0  0
   43.0248  -21.0087   -9.2761 N   0  0  0  0  0  0  0  0  0  0  0  0
   43.4750  -14.0276  -11.0334 C   0  0  0  0  0  0  0  0  0  0  0  0
   42.3118  -13.5681  -10.8989 O   0  0  0  0  0  0  0  0  0  0  0  0
   44.2134  -13.6394  -12.1689 N   0  0  0  0  0  0  0  0  0  0  0  0
   43.9334  -12.4411  -12.9422 C   0  0  1  0  0  0  0  0  0  0  0  0
   44.0453  -11.1937  -12.1042 C   0  0  0  0  0  0  0  0  0  0  0  0
   42.9402  -10.2383  -12.3704 C   0  0  0  0  0  0  0  0  0  0  0  0
   42.1361  -10.5433  -13.2875 O   0  0  0  0  0  0  0  0  0  0  0  0
   44.9668  -12.3523  -14.0053 C   0  0  0  0  0  0  0  0  0  0  0  0
   44.9208  -11.3846  -14.9952 O   0  0  0  0  0  0  0  0  0  0  0  0
   42.7458   -9.0641  -11.6897 O   0  0  0  0  0  0  0  0  0  0  0  0
   45.9129  -13.1615  -14.0281 O   0  0  0  0  0  0  0  0  0  0  0  0
  2  1  1  1
  2  3  1  0
  4  6  1  0
  4  2  1  0
  4  5  1  6
  6  7  2  0
  8  9  1  0
  8  6  1  0
  9 15  1  0
  9 10  1  1
 11 10  1  0
 12 11  1  0
 12 13  1  0
 13 14  1  0
 15 16  2  0
 17 15  1  0
 17 18  1  0
 18 22  1  0
 18 19  1  1
 20 19  1  0
 21 20  2  0
 22 25  2  0
 22 23  1  0
 24 20  1  0
M  END
$$$$
