TKD.pdb
     RDKit          3D

 25 24  0  0  1  0  0  0  0  0999 V2000
   24.0645  -11.1711  -14.6657 C   0  0  0  0  0  0  0  0  0  0  0  0
   24.3538  -11.4189  -16.1214 C   0  0  1  0  0  0  0  0  0  0  0  0
   25.3561  -12.3538  -16.2987 O   0  0  0  0  0  0  0  0  0  0  0  0
   23.0982  -11.9216  -16.8039 C   0  0  2  0  0  0  0  0  0  0  0  0
   23.4419  -12.2095  -18.1747 N   0  0  0  0  0  0  0  0  0  0  0  0
   22.0498  -10.8678  -16.8046 C   0  0  0  0  0  0  0  0  0  0  0  0
   22.2486   -9.8432  -17.4671 O   0  0  0  0  0  0  0  0  0  0  0  0
   20.8468  -10.9918  -16.0839 N   0  0  0  0  0  0  0  0  0  0  0  0
   19.8118  -10.0129  -16.0045 C   0  0  1  0  0  0  0  0  0  0  0  0
   18.4741  -10.5235  -15.5465 C   0  0  0  0  0  0  0  0  0  0  0  0
   17.4034   -9.4320  -15.6305 C   0  0  0  0  0  0  0  0  0  0  0  0
   16.0722  -10.1128  -15.2821 C   0  0  0  0  0  0  0  0  0  0  0  0
   14.9261   -9.1893  -15.6127 C   0  0  0  0  0  0  0  0  0  0  0  0
   13.6987   -9.9515  -15.3941 N   0  0  0  0  0  0  0  0  0  0  0  0
   20.1625   -8.8833  -15.0815 C   0  0  0  0  0  0  0  0  0  0  0  0
   20.9490   -9.1064  -14.1255 O   0  0  0  0  0  0  0  0  0  0  0  0
   19.6542   -7.5776  -15.2302 N   0  0  0  0  0  0  0  0  0  0  0  0
   20.1681   -6.4250  -14.5094 C   0  0  1  0  0  0  0  0  0  0  0  0
   21.6277   -6.1875  -14.7989 C   0  0  0  0  0  0  0  0  0  0  0  0
   22.1799   -5.0585  -14.0079 C   0  0  0  0  0  0  0  0  0  0  0  0
   21.5054   -4.6772  -13.0178 O   0  0  0  0  0  0  0  0  0  0  0  0
   19.4230   -5.2351  -14.9942 C   0  0  0  0  0  0  0  0  0  0  0  0
   18.8809   -4.3035  -14.1243 O   0  0  0  0  0  0  0  0  0  0  0  0
   23.3594   -4.4173  -14.2857 O   0  0  0  0  0  0  0  0  0  0  0  0
   19.2680   -5.0480  -16.2154 O   0  0  0  0  0  0  0  0  0  0  0  0
  2  1  1  1
  2  3  1  0
  4  6  1  0
  4  2  1  0
  4  5  1  6
  6  7  2  0
  8  9  1  0
  8  6  1  0
  9 15  1  0
  9 10  1  1
 11 10  1  0
 12 11  1  0
 12 13  1  0
 13 14  1  0
 15 16  2  0
 17 15  1  0
 17 18  1  0
 18 22  1  0
 18 19  1  6
 20 19  1  0
 21 20  2  0
 22 25  2  0
 22 23  1  0
 24 20  1  0
M  END
$$$$
