TKD.pdb
     RDKit          3D

 25 24  0  0  1  0  0  0  0  0999 V2000
   19.4300   -6.6439  -19.8436 C   0  0  0  0  0  0  0  0  0  0  0  0
   17.9575   -6.9508  -19.8049 C   0  0  1  0  0  0  0  0  0  0  0  0
   17.3260   -6.6106  -20.9862 O   0  0  0  0  0  0  0  0  0  0  0  0
   17.7603   -8.4330  -19.5612 C   0  0  2  0  0  0  0  0  0  0  0  0
   16.3433   -8.6934  -19.6301 N   0  0  0  0  0  0  0  0  0  0  0  0
   18.2298   -8.8027  -18.2002 C   0  0  0  0  0  0  0  0  0  0  0  0
   17.6536   -8.3058  -17.2259 O   0  0  0  0  0  0  0  0  0  0  0  0
   19.2990   -9.6917  -17.9803 N   0  0  0  0  0  0  0  0  0  0  0  0
   19.8529  -10.0403  -16.7124 C   0  0  1  0  0  0  0  0  0  0  0  0
   20.5136  -11.3890  -16.6454 C   0  0  0  0  0  0  0  0  0  0  0  0
   19.5041  -12.5155  -16.8837 C   0  0  0  0  0  0  0  0  0  0  0  0
   20.3012  -13.8254  -16.8080 C   0  0  0  0  0  0  0  0  0  0  0  0
   19.3726  -14.9985  -17.0013 C   0  0  0  0  0  0  0  0  0  0  0  0
   20.2112  -16.1947  -17.0326 N   0  0  0  0  0  0  0  0  0  0  0  0
   20.8804   -9.0517  -16.2459 C   0  0  0  0  0  0  0  0  0  0  0  0
   21.9329   -8.9107  -16.9203 O   0  0  0  0  0  0  0  0  0  0  0  0
   20.7275   -8.2680  -15.0850 N   0  0  0  0  0  0  0  0  0  0  0  0
   21.6698   -7.2398  -14.6760 C   0  0  1  0  0  0  0  0  0  0  0  0
   21.7325   -6.1089  -15.6699 C   0  0  0  0  0  0  0  0  0  0  0  0
   22.6729   -5.0409  -15.2457 C   0  0  0  0  0  0  0  0  0  0  0  0
   23.6039   -5.3803  -14.4720 O   0  0  0  0  0  0  0  0  0  0  0  0
   21.1748   -6.6741  -13.3949 C   0  0  0  0  0  0  0  0  0  0  0  0
   21.9124   -5.7583  -12.6630 O   0  0  0  0  0  0  0  0  0  0  0  0
   22.5902   -3.7301  -15.6388 O   0  0  0  0  0  0  0  0  0  0  0  0
   20.0660   -7.0185  -12.9452 O   0  0  0  0  0  0  0  0  0  0  0  0
  2  1  1  6
  2  3  1  0
  4  6  1  0
  4  2  1  0
  4  5  1  1
  6  7  2  0
  8  9  1  0
  8  6  1  0
  9 15  1  0
  9 10  1  6
 11 10  1  0
 12 11  1  0
 12 13  1  0
 13 14  1  0
 15 16  2  0
 17 15  1  0
 17 18  1  0
 18 22  1  0
 18 19  1  6
 20 19  1  0
 21 20  2  0
 22 25  2  0
 22 23  1  0
 24 20  1  0
M  END
$$$$
