TKD.pdb
     RDKit          3D

 25 24  0  0  1  0  0  0  0  0999 V2000
   27.0065  -10.4888  -14.9506 C   0  0  0  0  0  0  0  0  0  0  0  0
   27.4200  -10.8891  -16.3409 C   0  0  1  0  0  0  0  0  0  0  0  0
   28.6618  -11.4954  -16.3579 O   0  0  0  0  0  0  0  0  0  0  0  0
   26.4019  -11.8572  -16.9078 C   0  0  2  0  0  0  0  0  0  0  0  0
   26.9038  -12.3087  -18.1824 N   0  0  0  0  0  0  0  0  0  0  0  0
   25.1052  -11.1694  -17.1421 C   0  0  0  0  0  0  0  0  0  0  0  0
   25.0151  -10.3998  -18.1052 O   0  0  0  0  0  0  0  0  0  0  0  0
   23.9830  -11.3602  -16.3137 N   0  0  0  0  0  0  0  0  0  0  0  0
   22.7232  -10.7028  -16.4433 C   0  0  1  0  0  0  0  0  0  0  0  0
   21.5222  -11.5321  -16.0828 C   0  0  0  0  0  0  0  0  0  0  0  0
   21.2999  -12.6588  -17.0957 C   0  0  0  0  0  0  0  0  0  0  0  0
   20.0341  -13.3984  -16.6398 C   0  0  0  0  0  0  0  0  0  0  0  0
   19.7262  -14.5204  -17.6000 C   0  0  0  0  0  0  0  0  0  0  0  0
   18.5884  -15.2477  -17.0418 N   0  0  0  0  0  0  0  0  0  0  0  0
   22.6368   -9.4617  -15.6048 C   0  0  0  0  0  0  0  0  0  0  0  0
   23.0843   -9.4943  -14.4296 O   0  0  0  0  0  0  0  0  0  0  0  0
   22.0772   -8.2541  -16.0674 N   0  0  0  0  0  0  0  0  0  0  0  0
   22.0543   -7.0261  -15.2904 C   0  0  1  0  0  0  0  0  0  0  0  0
   23.1741   -6.0955  -15.6788 C   0  0  0  0  0  0  0  0  0  0  0  0
   23.1006   -4.7986  -14.9593 C   0  0  0  0  0  0  0  0  0  0  0  0
   23.2222   -3.7577  -15.6537 O   0  0  0  0  0  0  0  0  0  0  0  0
   20.7776   -6.3333  -15.6004 C   0  0  0  0  0  0  0  0  0  0  0  0
   20.3017   -5.2889  -14.8250 O   0  0  0  0  0  0  0  0  0  0  0  0
   22.9116   -4.6684  -13.6076 O   0  0  0  0  0  0  0  0  0  0  0  0
   20.0969   -6.6845  -16.5822 O   0  0  0  0  0  0  0  0  0  0  0  0
  2  1  1  1
  2  3  1  0
  4  6  1  0
  4  2  1  0
  4  5  1  6
  6  7  2  0
  8  9  1  0
  8  6  1  0
  9 15  1  0
  9 10  1  1
 11 10  1  0
 12 11  1  0
 12 13  1  0
 13 14  1  0
 15 16  2  0
 17 15  1  0
 17 18  1  0
 18 22  1  0
 18 19  1  6
 20 19  1  0
 21 20  2  0
 22 25  2  0
 22 23  1  0
 24 20  1  0
M  END
$$$$
