TKD.pdb
     RDKit          3D

 25 24  0  0  1  0  0  0  0  0999 V2000
   26.1155  -10.3749  -14.6809 C   0  0  0  0  0  0  0  0  0  0  0  0
   26.3528  -10.9869  -16.0349 C   0  0  1  0  0  0  0  0  0  0  0  0
   27.4074  -11.8800  -16.0223 O   0  0  0  0  0  0  0  0  0  0  0  0
   25.1040  -11.7203  -16.4797 C   0  0  2  0  0  0  0  0  0  0  0  0
   25.4003  -12.3398  -17.7481 N   0  0  0  0  0  0  0  0  0  0  0  0
   23.9853  -10.7635  -16.6859 C   0  0  0  0  0  0  0  0  0  0  0  0
   24.0471   -9.9868  -17.6456 O   0  0  0  0  0  0  0  0  0  0  0  0
   22.8652  -10.7088  -15.8347 N   0  0  0  0  0  0  0  0  0  0  0  0
   21.7318   -9.8567  -15.9934 C   0  0  1  0  0  0  0  0  0  0  0  0
   20.3999  -10.4953  -15.7135 C   0  0  0  0  0  0  0  0  0  0  0  0
   19.9974  -11.4571  -16.8350 C   0  0  0  0  0  0  0  0  0  0  0  0
   18.6608  -12.0779  -16.4051 C   0  0  0  0  0  0  0  0  0  0  0  0
   18.7973  -13.5783  -16.3283 C   0  0  0  0  0  0  0  0  0  0  0  0
   17.4752  -14.1017  -15.9920 N   0  0  0  0  0  0  0  0  0  0  0  0
   21.8020   -8.6422  -15.1154 C   0  0  0  0  0  0  0  0  0  0  0  0
   21.8804   -8.8009  -13.8700 O   0  0  0  0  0  0  0  0  0  0  0  0
   21.7845   -7.3251  -15.6157 N   0  0  0  0  0  0  0  0  0  0  0  0
   21.8992   -6.1427  -14.7783 C   0  0  1  0  0  0  0  0  0  0  0  0
   22.3379   -4.9366  -15.5679 C   0  0  0  0  0  0  0  0  0  0  0  0
   22.4576   -3.7239  -14.7193 C   0  0  0  0  0  0  0  0  0  0  0  0
   22.7302   -3.9064  -13.5057 O   0  0  0  0  0  0  0  0  0  0  0  0
   20.5452   -5.8504  -14.2424 C   0  0  0  0  0  0  0  0  0  0  0  0
   20.3544   -5.3318  -12.9722 O   0  0  0  0  0  0  0  0  0  0  0  0
   22.2920   -2.4396  -15.1697 O   0  0  0  0  0  0  0  0  0  0  0  0
   19.5357   -6.0698  -14.9375 O   0  0  0  0  0  0  0  0  0  0  0  0
  2  1  1  1
  2  3  1  0
  4  6  1  0
  4  2  1  0
  4  5  1  6
  6  7  2  0
  8  9  1  0
  8  6  1  0
  9 15  1  0
  9 10  1  1
 11 10  1  0
 12 11  1  0
 12 13  1  0
 13 14  1  0
 15 16  2  0
 17 15  1  0
 17 18  1  0
 18 22  1  0
 18 19  1  6
 20 19  1  0
 21 20  2  0
 22 25  2  0
 22 23  1  0
 24 20  1  0
M  END
$$$$
