TKD.pdb
     RDKit          3D

 25 24  0  0  1  0  0  0  0  0999 V2000
   19.9286   -6.3717  -20.3079 C   0  0  0  0  0  0  0  0  0  0  0  0
   18.4272   -6.4564  -20.2564 C   0  0  1  0  0  0  0  0  0  0  0  0
   17.8473   -6.1203  -21.4651 O   0  0  0  0  0  0  0  0  0  0  0  0
   18.0164   -7.8704  -19.9003 C   0  0  2  0  0  0  0  0  0  0  0  0
   16.5779   -7.9325  -19.9843 N   0  0  0  0  0  0  0  0  0  0  0  0
   18.4092   -8.1891  -18.5025 C   0  0  0  0  0  0  0  0  0  0  0  0
   17.9373   -7.5022  -17.5896 O   0  0  0  0  0  0  0  0  0  0  0  0
   19.2928   -9.2370  -18.1814 N   0  0  0  0  0  0  0  0  0  0  0  0
   19.8174   -9.5247  -16.8860 C   0  0  1  0  0  0  0  0  0  0  0  0
   20.4249  -10.8902  -16.7242 C   0  0  0  0  0  0  0  0  0  0  0  0
   19.3500  -11.9808  -16.7235 C   0  0  0  0  0  0  0  0  0  0  0  0
   20.1010  -13.3197  -16.7099 C   0  0  0  0  0  0  0  0  0  0  0  0
   19.1116  -14.4585  -16.7069 C   0  0  0  0  0  0  0  0  0  0  0  0
   19.8895  -15.6878  -16.5694 N   0  0  0  0  0  0  0  0  0  0  0  0
   20.8764   -8.5476  -16.4680 C   0  0  0  0  0  0  0  0  0  0  0  0
   21.8876   -8.4021  -17.2020 O   0  0  0  0  0  0  0  0  0  0  0  0
   20.7974   -7.7797  -15.2892 N   0  0  0  0  0  0  0  0  0  0  0  0
   21.7931   -6.7955  -14.8995 C   0  0  1  0  0  0  0  0  0  0  0  0
   21.9705   -5.7304  -15.9506 C   0  0  0  0  0  0  0  0  0  0  0  0
   22.9595   -4.7001  -15.5436 C   0  0  0  0  0  0  0  0  0  0  0  0
   23.8523   -5.0599  -14.7350 O   0  0  0  0  0  0  0  0  0  0  0  0
   21.2921   -6.1251  -13.6724 C   0  0  0  0  0  0  0  0  0  0  0  0
   22.0717   -5.2364  -12.9507 O   0  0  0  0  0  0  0  0  0  0  0  0
   22.9592   -3.4030  -15.9876 O   0  0  0  0  0  0  0  0  0  0  0  0
   20.1394   -6.3531  -13.2605 O   0  0  0  0  0  0  0  0  0  0  0  0
  2  1  1  6
  2  3  1  0
  4  6  1  0
  4  2  1  0
  4  5  1  1
  6  7  2  0
  8  9  1  0
  8  6  1  0
  9 15  1  0
  9 10  1  6
 11 10  1  0
 12 11  1  0
 12 13  1  0
 13 14  1  0
 15 16  2  0
 17 15  1  0
 17 18  1  0
 18 22  1  0
 18 19  1  6
 20 19  1  0
 21 20  2  0
 22 25  2  0
 22 23  1  0
 24 20  1  0
M  END
$$$$
