TKD.pdb
     RDKit          3D

 25 24  0  0  1  0  0  0  0  0999 V2000
   27.2276   -9.3599  -18.3576 C   0  0  0  0  0  0  0  0  0  0  0  0
   26.9880  -10.5220  -17.4324 C   0  0  1  0  0  0  0  0  0  0  0  0
   28.1350  -11.2646  -17.2253 O   0  0  0  0  0  0  0  0  0  0  0  0
   26.4987  -10.0057  -16.0948 C   0  0  2  0  0  0  0  0  0  0  0  0
   26.4212  -11.1359  -15.2020 N   0  0  0  0  0  0  0  0  0  0  0  0
   25.1344   -9.4306  -16.2274 C   0  0  0  0  0  0  0  0  0  0  0  0
   24.9955   -8.3978  -16.8923 O   0  0  0  0  0  0  0  0  0  0  0  0
   24.0020  -10.0141  -15.6282 N   0  0  0  0  0  0  0  0  0  0  0  0
   22.6560   -9.5585  -15.7575 C   0  0  1  0  0  0  0  0  0  0  0  0
   21.5965  -10.5769  -15.4406 C   0  0  0  0  0  0  0  0  0  0  0  0
   20.1945  -10.0235  -15.7101 C   0  0  0  0  0  0  0  0  0  0  0  0
   19.2194  -11.1740  -15.4230 C   0  0  0  0  0  0  0  0  0  0  0  0
   17.8033  -10.7137  -15.6647 C   0  0  0  0  0  0  0  0  0  0  0  0
   16.9541  -11.8975  -15.5522 N   0  0  0  0  0  0  0  0  0  0  0  0
   22.3668   -8.3738  -14.8837 C   0  0  0  0  0  0  0  0  0  0  0  0
   22.5464   -8.4800  -13.6432 O   0  0  0  0  0  0  0  0  0  0  0  0
   21.9017   -7.1408  -15.3825 N   0  0  0  0  0  0  0  0  0  0  0  0
   21.6193   -5.9868  -14.5454 C   0  0  1  0  0  0  0  0  0  0  0  0
   22.5216   -4.8243  -14.8695 C   0  0  0  0  0  0  0  0  0  0  0  0
   22.1812   -3.6132  -14.0806 C   0  0  0  0  0  0  0  0  0  0  0  0
   21.9223   -3.7849  -12.8624 O   0  0  0  0  0  0  0  0  0  0  0  0
   20.2274   -5.5602  -14.8395 C   0  0  0  0  0  0  0  0  0  0  0  0
   19.4643   -6.1705  -15.8212 O   0  0  0  0  0  0  0  0  0  0  0  0
   22.1326   -2.3412  -14.5898 O   0  0  0  0  0  0  0  0  0  0  0  0
   19.7091   -4.6279  -14.1973 O   0  0  0  0  0  0  0  0  0  0  0  0
  2  1  1  6
  2  3  1  0
  4  6  1  0
  4  2  1  0
  4  5  1  1
  6  7  2  0
  8  9  1  0
  8  6  1  0
  9 15  1  0
  9 10  1  1
 11 10  1  0
 12 11  1  0
 12 13  1  0
 13 14  1  0
 15 16  2  0
 17 15  1  0
 17 18  1  0
 18 22  1  0
 18 19  1  6
 20 19  1  0
 21 20  2  0
 22 25  2  0
 22 23  1  0
 24 20  1  0
M  END
$$$$
