TKD.pdb
     RDKit          3D

 25 24  0  0  1  0  0  0  0  0999 V2000
   25.9330  -10.3818  -14.6982 C   0  0  0  0  0  0  0  0  0  0  0  0
   26.5493  -10.7124  -16.0305 C   0  0  1  0  0  0  0  0  0  0  0  0
   27.6932  -11.4766  -15.8971 O   0  0  0  0  0  0  0  0  0  0  0  0
   25.5492  -11.4821  -16.8686 C   0  0  2  0  0  0  0  0  0  0  0  0
   26.1796  -11.7655  -18.1346 N   0  0  0  0  0  0  0  0  0  0  0  0
   24.3438  -10.6529  -17.1310 C   0  0  0  0  0  0  0  0  0  0  0  0
   24.3998   -9.8040  -18.0278 O   0  0  0  0  0  0  0  0  0  0  0  0
   23.1485  -10.7969  -16.4012 N   0  0  0  0  0  0  0  0  0  0  0  0
   21.9701  -10.0077  -16.5574 C   0  0  1  0  0  0  0  0  0  0  0  0
   20.6715  -10.7519  -16.4162 C   0  0  0  0  0  0  0  0  0  0  0  0
   20.4547  -11.7189  -17.5836 C   0  0  0  0  0  0  0  0  0  0  0  0
   19.0995  -12.3948  -17.3313 C   0  0  0  0  0  0  0  0  0  0  0  0
   18.7921  -13.3541  -18.4542 C   0  0  0  0  0  0  0  0  0  0  0  0
   17.5545  -14.0406  -18.0904 N   0  0  0  0  0  0  0  0  0  0  0  0
   21.9069   -8.8740  -15.5768 C   0  0  0  0  0  0  0  0  0  0  0  0
   22.0496   -9.1255  -14.3526 O   0  0  0  0  0  0  0  0  0  0  0  0
   21.6950   -7.5340  -15.9575 N   0  0  0  0  0  0  0  0  0  0  0  0
   21.7293   -6.4166  -15.0289 C   0  0  1  0  0  0  0  0  0  0  0  0
   22.6185   -5.3045  -15.5219 C   0  0  0  0  0  0  0  0  0  0  0  0
   22.6113   -4.1338  -14.6084 C   0  0  0  0  0  0  0  0  0  0  0  0
   22.1018   -4.3051  -13.4719 O   0  0  0  0  0  0  0  0  0  0  0  0
   20.3496   -5.8732  -14.9436 C   0  0  0  0  0  0  0  0  0  0  0  0
   19.8895   -5.2110  -13.8173 O   0  0  0  0  0  0  0  0  0  0  0  0
   23.1173   -2.8989  -14.9222 O   0  0  0  0  0  0  0  0  0  0  0  0
   19.5644   -6.0047  -15.9010 O   0  0  0  0  0  0  0  0  0  0  0  0
  2  1  1  1
  2  3  1  0
  4  6  1  0
  4  2  1  0
  4  5  1  6
  6  7  2  0
  8  9  1  0
  8  6  1  0
  9 15  1  0
  9 10  1  1
 11 10  1  0
 12 11  1  0
 12 13  1  0
 13 14  1  0
 15 16  2  0
 17 15  1  0
 17 18  1  0
 18 22  1  0
 18 19  1  6
 20 19  1  0
 21 20  2  0
 22 25  2  0
 22 23  1  0
 24 20  1  0
M  END
$$$$
