TKD.pdb
     RDKit          3D

 25 24  0  0  1  0  0  0  0  0999 V2000
   21.8491  -11.4865  -14.9976 C   0  0  0  0  0  0  0  0  0  0  0  0
   21.3712  -12.2090  -16.2279 C   0  0  1  0  0  0  0  0  0  0  0  0
   21.8996  -13.4828  -16.3189 O   0  0  0  0  0  0  0  0  0  0  0  0
   19.8603  -12.3141  -16.1927 C   0  0  2  0  0  0  0  0  0  0  0  0
   19.4565  -13.0684  -17.3539 N   0  0  0  0  0  0  0  0  0  0  0  0
   19.2433  -10.9648  -16.2838 C   0  0  0  0  0  0  0  0  0  0  0  0
   19.5073  -10.2644  -17.2676 O   0  0  0  0  0  0  0  0  0  0  0  0
   18.3753  -10.4578  -15.2982 N   0  0  0  0  0  0  0  0  0  0  0  0
   17.8072   -9.1491  -15.2736 C   0  0  1  0  0  0  0  0  0  0  0  0
   16.3863   -9.0713  -14.7890 C   0  0  0  0  0  0  0  0  0  0  0  0
   15.4098   -9.6045  -15.8411 C   0  0  0  0  0  0  0  0  0  0  0  0
   14.2094  -10.1636  -15.0642 C   0  0  0  0  0  0  0  0  0  0  0  0
   13.1784  -10.6915  -16.0307 C   0  0  0  0  0  0  0  0  0  0  0  0
   12.1094  -11.2755  -15.2236 N   0  0  0  0  0  0  0  0  0  0  0  0
   18.5909   -8.2016  -14.4140 C   0  0  0  0  0  0  0  0  0  0  0  0
   18.8654   -8.5423  -13.2345 O   0  0  0  0  0  0  0  0  0  0  0  0
   19.0383   -6.9426  -14.8610 N   0  0  0  0  0  0  0  0  0  0  0  0
   19.7572   -5.9977  -14.0227 C   0  0  1  0  0  0  0  0  0  0  0  0
   21.2381   -6.0148  -14.3007 C   0  0  0  0  0  0  0  0  0  0  0  0
   21.9685   -4.9900  -13.5126 C   0  0  0  0  0  0  0  0  0  0  0  0
   21.2812   -4.2693  -12.7453 O   0  0  0  0  0  0  0  0  0  0  0  0
   19.2600   -4.6403  -14.3640 C   0  0  0  0  0  0  0  0  0  0  0  0
   18.5808   -4.3820  -15.5432 O   0  0  0  0  0  0  0  0  0  0  0  0
   23.3229   -4.7846  -13.5689 O   0  0  0  0  0  0  0  0  0  0  0  0
   19.4476   -3.6898  -13.5819 O   0  0  0  0  0  0  0  0  0  0  0  0
  2  1  1  1
  2  3  1  0
  4  6  1  0
  4  2  1  0
  4  5  1  6
  6  7  2  0
  8  9  1  0
  8  6  1  0
  9 15  1  0
  9 10  1  1
 11 10  1  0
 12 11  1  0
 12 13  1  0
 13 14  1  0
 15 16  2  0
 17 15  1  0
 17 18  1  0
 18 22  1  0
 18 19  1  6
 20 19  1  0
 21 20  2  0
 22 25  2  0
 22 23  1  0
 24 20  1  0
M  END
$$$$
