TKD.pdb
     RDKit          3D

 25 24  0  0  1  0  0  0  0  0999 V2000
   23.5645  -11.0974  -14.5997 C   0  0  0  0  0  0  0  0  0  0  0  0
   23.6249  -11.7327  -15.9623 C   0  0  1  0  0  0  0  0  0  0  0  0
   24.4846  -12.8144  -15.9922 O   0  0  0  0  0  0  0  0  0  0  0  0
   22.2407  -12.2048  -16.3574 C   0  0  2  0  0  0  0  0  0  0  0  0
   22.3615  -12.8644  -17.6344 N   0  0  0  0  0  0  0  0  0  0  0  0
   21.3243  -11.0463  -16.5236 C   0  0  0  0  0  0  0  0  0  0  0  0
   21.6096  -10.1893  -17.3676 O   0  0  0  0  0  0  0  0  0  0  0  0
   20.1515  -10.8893  -15.7609 N   0  0  0  0  0  0  0  0  0  0  0  0
   19.2735   -9.7650  -15.7940 C   0  0  1  0  0  0  0  0  0  0  0  0
   17.8491  -10.0466  -15.4047 C   0  0  0  0  0  0  0  0  0  0  0  0
   17.1430  -10.9033  -16.4594 C   0  0  0  0  0  0  0  0  0  0  0  0
   15.7534  -11.2216  -15.8897 C   0  0  0  0  0  0  0  0  0  0  0  0
   14.9862  -12.0773  -16.8668 C   0  0  0  0  0  0  0  0  0  0  0  0
   13.6868  -12.3473  -16.2554 N   0  0  0  0  0  0  0  0  0  0  0  0
   19.7354   -8.6522  -14.9000 C   0  0  0  0  0  0  0  0  0  0  0  0
   20.1724   -8.9385  -13.7557 O   0  0  0  0  0  0  0  0  0  0  0  0
   19.7052   -7.2949  -15.2772 N   0  0  0  0  0  0  0  0  0  0  0  0
   20.1888   -6.2130  -14.4357 C   0  0  1  0  0  0  0  0  0  0  0  0
   21.6864   -6.2544  -14.2742 C   0  0  0  0  0  0  0  0  0  0  0  0
   22.1988   -5.0975  -13.4970 C   0  0  0  0  0  0  0  0  0  0  0  0
   21.6117   -4.8362  -12.4165 O   0  0  0  0  0  0  0  0  0  0  0  0
   19.8542   -4.9390  -15.1220 C   0  0  0  0  0  0  0  0  0  0  0  0
   19.9695   -3.7120  -14.4897 O   0  0  0  0  0  0  0  0  0  0  0  0
   23.2545   -4.3102  -13.8783 O   0  0  0  0  0  0  0  0  0  0  0  0
   19.4559   -4.9490  -16.3017 O   0  0  0  0  0  0  0  0  0  0  0  0
  2  1  1  1
  2  3  1  0
  4  6  1  0
  4  2  1  0
  4  5  1  6
  6  7  2  0
  8  9  1  0
  8  6  1  0
  9 15  1  0
  9 10  1  1
 11 10  1  0
 12 11  1  0
 12 13  1  0
 13 14  1  0
 15 16  2  0
 17 15  1  0
 17 18  1  0
 18 22  1  0
 18 19  1  6
 20 19  1  0
 21 20  2  0
 22 25  2  0
 22 23  1  0
 24 20  1  0
M  END
$$$$
