TKD.pdb
     RDKit          3D

 25 24  0  0  1  0  0  0  0  0999 V2000
   27.1373  -11.2676  -14.9952 C   0  0  0  0  0  0  0  0  0  0  0  0
   26.1147  -10.3297  -15.5772 C   0  0  1  0  0  0  0  0  0  0  0  0
   26.6292   -9.5857  -16.6221 O   0  0  0  0  0  0  0  0  0  0  0  0
   24.9343  -11.1295  -16.0890 C   0  0  2  0  0  0  0  0  0  0  0  0
   25.4216  -11.9856  -17.1425 N   0  0  0  0  0  0  0  0  0  0  0  0
   23.9069  -10.2256  -16.6697 C   0  0  0  0  0  0  0  0  0  0  0  0
   23.9298  -10.0178  -17.8880 O   0  0  0  0  0  0  0  0  0  0  0  0
   22.9152   -9.6014  -15.8894 N   0  0  0  0  0  0  0  0  0  0  0  0
   21.9031   -8.7176  -16.3693 C   0  0  1  0  0  0  0  0  0  0  0  0
   20.5427   -9.3314  -16.5497 C   0  0  0  0  0  0  0  0  0  0  0  0
   20.0231   -9.9279  -15.2386 C   0  0  0  0  0  0  0  0  0  0  0  0
   18.5790  -10.3701  -15.5140 C   0  0  0  0  0  0  0  0  0  0  0  0
   17.9990  -11.0133  -14.2789 C   0  0  0  0  0  0  0  0  0  0  0  0
   16.6616  -11.4790  -14.6389 N   0  0  0  0  0  0  0  0  0  0  0  0
   21.7071   -7.5315  -15.4718 C   0  0  0  0  0  0  0  0  0  0  0  0
   22.3571   -7.4738  -14.3964 O   0  0  0  0  0  0  0  0  0  0  0  0
   20.8278   -6.4722  -15.7721 N   0  0  0  0  0  0  0  0  0  0  0  0
   20.7127   -5.2670  -14.9680 C   0  0  1  0  0  0  0  0  0  0  0  0
   22.0039   -4.4909  -14.9324 C   0  0  0  0  0  0  0  0  0  0  0  0
   21.8856   -3.2416  -14.1384 C   0  0  0  0  0  0  0  0  0  0  0  0
   20.9712   -3.2026  -13.2765 O   0  0  0  0  0  0  0  0  0  0  0  0
   19.6954   -4.4009  -15.6170 C   0  0  0  0  0  0  0  0  0  0  0  0
   18.9715   -3.4586  -14.9053 O   0  0  0  0  0  0  0  0  0  0  0  0
   22.6979   -2.1469  -14.2847 O   0  0  0  0  0  0  0  0  0  0  0  0
   19.4688   -4.5070  -16.8367 O   0  0  0  0  0  0  0  0  0  0  0  0
  2  1  1  6
  2  3  1  0
  4  6  1  0
  4  2  1  0
  4  5  1  6
  6  7  2  0
  8  9  1  0
  8  6  1  0
  9 15  1  0
  9 10  1  1
 11 10  1  0
 12 11  1  0
 12 13  1  0
 13 14  1  0
 15 16  2  0
 17 15  1  0
 17 18  1  0
 18 22  1  0
 18 19  1  6
 20 19  1  0
 21 20  2  0
 22 25  2  0
 22 23  1  0
 24 20  1  0
M  END
$$$$
