FTK.pdb
     RDKit          3D

 28 28  0  0  1  0  0  0  0  0999 V2000
   22.1239   -9.9743  -15.2762 N   0  0  0  0  0  0  0  0  0  0  0  0
   21.1449   -9.1637  -16.0130 C   0  0  1  0  0  0  0  0  0  0  0  0
   19.8875  -10.0284  -16.1454 C   0  0  0  0  0  0  0  0  0  0  0  0
   20.0714  -11.0153  -17.2293 C   0  0  0  0  0  0  0  0  0  0  0  0
   20.1363  -10.6263  -18.5540 C   0  0  0  0  0  0  0  0  0  0  0  0
   20.3096  -11.5760  -19.5502 C   0  0  0  0  0  0  0  0  0  0  0  0
   20.4209  -12.9175  -19.2552 C   0  0  0  0  0  0  0  0  0  0  0  0
   20.3573  -13.3165  -17.9346 C   0  0  0  0  0  0  0  0  0  0  0  0
   20.1832  -12.3562  -16.9417 C   0  0  0  0  0  0  0  0  0  0  0  0
   20.7835   -8.0308  -15.1363 C   0  0  0  0  0  0  0  0  0  0  0  0
   20.4709   -8.2700  -13.9506 O   0  0  0  0  0  0  0  0  0  0  0  0
   22.5867   -5.4121  -13.5737 C   0  0  0  0  0  0  0  0  0  0  0  0
   21.6280   -4.6721  -14.4745 C   0  0  1  0  0  0  0  0  0  0  0  0
   22.2739   -4.4305  -15.6794 O   0  0  0  0  0  0  0  0  0  0  0  0
   20.4544   -5.5576  -14.7323 C   0  0  2  0  0  0  0  0  0  0  0  0
   20.7713   -6.6987  -15.5604 N   0  0  0  0  0  0  0  0  0  0  0  0
   19.4126   -4.7721  -15.4475 C   0  0  0  0  0  0  0  0  0  0  0  0
   18.7606   -5.3262  -16.4062 O   0  0  0  0  0  0  0  0  0  0  0  0
   19.0499   -3.4426  -15.1780 N   0  0  0  0  0  0  0  0  0  0  0  0
   17.8442   -2.8746  -15.6905 C   0  0  1  0  0  0  0  0  0  0  0  0
   16.5992   -3.6022  -15.2692 C   0  0  0  0  0  0  0  0  0  0  0  0
   15.3388   -2.9626  -15.7521 C   0  0  0  0  0  0  0  0  0  0  0  0
   14.1185   -3.6991  -15.2952 C   0  0  0  0  0  0  0  0  0  0  0  0
   12.8365   -3.0815  -15.8033 C   0  0  0  0  0  0  0  0  0  0  0  0
   12.7551   -1.6780  -15.4444 N   0  0  0  0  0  0  0  0  0  0  0  0
   17.7019   -1.4667  -15.2465 C   0  0  0  0  0  0  0  0  0  0  0  0
   18.0447   -1.1845  -14.0724 O   0  0  0  0  0  0  0  0  0  0  0  0
   17.2133   -0.4642  -16.0619 O   0  0  0  0  0  0  0  0  0  0  0  0
  2  1  1  1
  2  3  1  0
  3  4  1  0
  4  9  2  0
  5  6  2  0
  5  4  1  0
  6  7  1  0
  7  8  2  0
  9  8  1  0
 10  2  1  0
 10 16  1  0
 11 10  2  0
 13 12  1  1
 13 15  1  0
 14 13  1  0
 15 16  1  6
 17 15  1  0
 18 17  2  0
 19 17  1  0
 20 19  1  0
 20 26  1  0
 20 21  1  1
 22 21  1  0
 23 22  1  0
 24 23  1  0
 24 25  1  0
 26 28  1  0
 27 26  2  0
M  END
$$$$
