FTK.pdb
     RDKit          3D

 28 28  0  0  1  0  0  0  0  0999 V2000
   28.1965  -20.9196   -8.6042 N   0  0  0  0  0  0  0  0  0  0  0  0
   26.7454  -20.6965   -8.5489 C   0  0  1  0  0  0  0  0  0  0  0  0
   26.5295  -19.5261   -7.5848 C   0  0  0  0  0  0  0  0  0  0  0  0
   27.3174  -19.7408   -6.3536 C   0  0  0  0  0  0  0  0  0  0  0  0
   26.9406  -20.6798   -5.4120 C   0  0  0  0  0  0  0  0  0  0  0  0
   27.7005  -20.8591   -4.2654 C   0  0  0  0  0  0  0  0  0  0  0  0
   28.8385  -20.1176   -4.0322 C   0  0  0  0  0  0  0  0  0  0  0  0
   29.2237  -19.1767   -4.9669 C   0  0  0  0  0  0  0  0  0  0  0  0
   28.4546  -19.0040   -6.1145 C   0  0  0  0  0  0  0  0  0  0  0  0
   26.3365  -20.2186   -9.8857 C   0  0  0  0  0  0  0  0  0  0  0  0
   26.4599  -19.0035  -10.1485 O   0  0  0  0  0  0  0  0  0  0  0  0
   27.8235  -20.3799  -12.7961 C   0  0  0  0  0  0  0  0  0  0  0  0
   26.5192  -21.0039  -13.2294 C   0  0  1  0  0  0  0  0  0  0  0  0
   26.6834  -22.3824  -13.2270 O   0  0  0  0  0  0  0  0  0  0  0  0
   25.4759  -20.6467  -12.2234 C   0  0  2  0  0  0  0  0  0  0  0  0
   25.8162  -21.0535  -10.8791 N   0  0  0  0  0  0  0  0  0  0  0  0
   24.2092  -21.3389  -12.5841 C   0  0  0  0  0  0  0  0  0  0  0  0
   23.8138  -22.3309  -11.8693 O   0  0  0  0  0  0  0  0  0  0  0  0
   23.3668  -21.0132  -13.6593 N   0  0  0  0  0  0  0  0  0  0  0  0
   21.9816  -21.3600  -13.6597 C   0  0  1  0  0  0  0  0  0  0  0  0
   21.2113  -20.7987  -12.4986 C   0  0  0  0  0  0  0  0  0  0  0  0
   19.7552  -21.1303  -12.5288 C   0  0  0  0  0  0  0  0  0  0  0  0
   19.4564  -22.4319  -11.8529 C   0  0  0  0  0  0  0  0  0  0  0  0
   18.3435  -22.3228  -10.8367 C   0  0  0  0  0  0  0  0  0  0  0  0
   18.0986  -23.5990  -10.1916 N   0  0  0  0  0  0  0  0  0  0  0  0
   21.3241  -20.8768  -14.8982 C   0  0  0  0  0  0  0  0  0  0  0  0
   21.8061  -19.8636  -15.4611 O   0  0  0  0  0  0  0  0  0  0  0  0
   20.2159  -21.4882  -15.4519 O   0  0  0  0  0  0  0  0  0  0  0  0
  2  1  1  6
  2  3  1  0
  3  4  1  0
  4  9  2  0
  5  6  2  0
  5  4  1  0
  6  7  1  0
  7  8  2  0
  9  8  1  0
 10  2  1  0
 10 16  1  0
 11 10  2  0
 13 12  1  1
 13 15  1  0
 14 13  1  0
 15 16  1  1
 17 15  1  0
 18 17  2  0
 19 17  1  0
 20 19  1  0
 20 26  1  0
 20 21  1  1
 22 21  1  0
 23 22  1  0
 24 23  1  0
 24 25  1  0
 26 28  1  0
 27 26  2  0
M  END
$$$$
