FTK.pdb
     RDKit          3D

 28 28  0  0  1  0  0  0  0  0999 V2000
   28.2786  -21.6701   -9.7677 N   0  0  0  0  0  0  0  0  0  0  0  0
   26.9287  -21.0909   -9.7415 C   0  0  1  0  0  0  0  0  0  0  0  0
   27.0818  -19.6760   -9.1751 C   0  0  0  0  0  0  0  0  0  0  0  0
   27.3603  -19.7451   -7.7259 C   0  0  0  0  0  0  0  0  0  0  0  0
   26.4888  -20.3702   -6.8540 C   0  0  0  0  0  0  0  0  0  0  0  0
   26.7773  -20.4192   -5.4980 C   0  0  0  0  0  0  0  0  0  0  0  0
   27.9249  -19.8548   -4.9848 C   0  0  0  0  0  0  0  0  0  0  0  0
   28.8023  -19.2279   -5.8476 C   0  0  0  0  0  0  0  0  0  0  0  0
   28.5043  -19.1837   -7.2069 C   0  0  0  0  0  0  0  0  0  0  0  0
   26.5044  -20.9352  -11.1481 C   0  0  0  0  0  0  0  0  0  0  0  0
   27.3379  -21.1600  -12.0511 O   0  0  0  0  0  0  0  0  0  0  0  0
   25.9708  -22.6449  -13.3171 C   0  0  0  0  0  0  0  0  0  0  0  0
   24.5885  -22.0414  -13.3716 C   0  0  1  0  0  0  0  0  0  0  0  0
   23.7693  -22.7721  -12.5216 O   0  0  0  0  0  0  0  0  0  0  0  0
   24.6724  -20.6401  -12.8642 C   0  0  2  0  0  0  0  0  0  0  0  0
   25.2158  -20.5483  -11.5284 N   0  0  0  0  0  0  0  0  0  0  0  0
   23.3003  -20.0661  -12.8202 C   0  0  0  0  0  0  0  0  0  0  0  0
   22.6922  -19.9867  -11.6909 O   0  0  0  0  0  0  0  0  0  0  0  0
   22.5712  -19.5826  -13.9186 N   0  0  0  0  0  0  0  0  0  0  0  0
   21.2752  -19.0037  -13.7634 C   0  0  1  0  0  0  0  0  0  0  0  0
   20.7568  -18.3266  -15.0003 C   0  0  0  0  0  0  0  0  0  0  0  0
   21.7091  -17.3355  -15.5848 C   0  0  0  0  0  0  0  0  0  0  0  0
   21.1919  -16.7330  -16.8537 C   0  0  0  0  0  0  0  0  0  0  0  0
   22.1899  -15.8105  -17.5139 C   0  0  0  0  0  0  0  0  0  0  0  0
   22.5484  -14.7136  -16.6344 N   0  0  0  0  0  0  0  0  0  0  0  0
   20.2846  -20.0391  -13.3812 C   0  0  0  0  0  0  0  0  0  0  0  0
   20.4904  -21.2170  -13.7630 O   0  0  0  0  0  0  0  0  0  0  0  0
   19.1575  -19.7645  -12.6310 O   0  0  0  0  0  0  0  0  0  0  0  0
  2  1  1  6
  2  3  1  0
  3  4  1  0
  4  9  2  0
  5  6  2  0
  5  4  1  0
  6  7  1  0
  7  8  2  0
  9  8  1  0
 10  2  1  0
 10 16  1  0
 11 10  2  0
 13 12  1  1
 13 15  1  0
 14 13  1  0
 15 16  1  1
 17 15  1  0
 18 17  2  0
 19 17  1  0
 20 19  1  0
 20 26  1  0
 20 21  1  6
 22 21  1  0
 23 22  1  0
 24 23  1  0
 24 25  1  0
 26 28  1  0
 27 26  2  0
M  END
$$$$
