FTK.pdb
     RDKit          3D

 28 28  0  0  1  0  0  0  0  0999 V2000
   17.5028  -13.1318    3.6498 N   0  0  0  0  0  0  0  0  0  0  0  0
   18.0246  -14.0763    4.6468 C   0  0  1  0  0  0  0  0  0  0  0  0
   18.7710  -15.1584    3.8606 C   0  0  0  0  0  0  0  0  0  0  0  0
   17.8023  -16.1028    3.2669 C   0  0  0  0  0  0  0  0  0  0  0  0
   16.6572  -16.4798    3.9429 C   0  0  0  0  0  0  0  0  0  0  0  0
   15.7659  -17.3685    3.3597 C   0  0  0  0  0  0  0  0  0  0  0  0
   15.9904  -17.8960    2.1066 C   0  0  0  0  0  0  0  0  0  0  0  0
   17.1318  -17.5256    1.4228 C   0  0  0  0  0  0  0  0  0  0  0  0
   18.0204  -16.6331    2.0162 C   0  0  0  0  0  0  0  0  0  0  0  0
   19.0446  -13.3491    5.4299 C   0  0  0  0  0  0  0  0  0  0  0  0
   19.7077  -12.4554    4.8619 O   0  0  0  0  0  0  0  0  0  0  0  0
   20.0903  -10.7626    6.4387 C   0  0  0  0  0  0  0  0  0  0  0  0
   19.9355  -11.4509    7.7730 C   0  0  1  0  0  0  0  0  0  0  0  0
   18.6046  -11.3489    8.1547 O   0  0  0  0  0  0  0  0  0  0  0  0
   20.2701  -12.8945    7.5932 C   0  0  2  0  0  0  0  0  0  0  0  0
   19.3118  -13.6054    6.7781 N   0  0  0  0  0  0  0  0  0  0  0  0
   20.2828  -13.5507    8.9286 C   0  0  0  0  0  0  0  0  0  0  0  0
   19.3205  -14.3412    9.2455 O   0  0  0  0  0  0  0  0  0  0  0  0
   21.2690  -13.3956    9.9161 N   0  0  0  0  0  0  0  0  0  0  0  0
   21.1574  -14.0233   11.1938 C   0  0  1  0  0  0  0  0  0  0  0  0
   22.2079  -15.0646   11.4564 C   0  0  0  0  0  0  0  0  0  0  0  0
   21.7611  -16.4570   11.1521 C   0  0  0  0  0  0  0  0  0  0  0  0
   22.7416  -17.1916   10.2923 C   0  0  0  0  0  0  0  0  0  0  0  0
   22.2742  -18.5810    9.9259 C   0  0  0  0  0  0  0  0  0  0  0  0
   23.2459  -19.2539    9.0845 N   0  0  0  0  0  0  0  0  0  0  0  0
   21.2551  -13.0170   12.2788 C   0  0  0  0  0  0  0  0  0  0  0  0
   21.8743  -11.9522   12.0371 O   0  0  0  0  0  0  0  0  0  0  0  0
   20.6994  -13.2005   13.5303 O   0  0  0  0  0  0  0  0  0  0  0  0
  2  1  1  6
  2  3  1  0
  3  4  1  0
  4  9  2  0
  5  6  2  0
  5  4  1  0
  6  7  1  0
  7  8  2  0
  9  8  1  0
 10  2  1  0
 10 16  1  0
 11 10  2  0
 13 12  1  6
 13 15  1  0
 14 13  1  0
 15 16  1  6
 17 15  1  0
 18 17  2  0
 19 17  1  0
 20 19  1  0
 20 26  1  0
 20 21  1  1
 22 21  1  0
 23 22  1  0
 24 23  1  0
 24 25  1  0
 26 28  1  0
 27 26  2  0
M  END
$$$$
