FTK.pdb
     RDKit          3D

 28 28  0  0  1  0  0  0  0  0999 V2000
   28.3403  -21.2909   -8.8721 N   0  0  0  0  0  0  0  0  0  0  0  0
   26.9462  -20.8273   -8.8693 C   0  0  1  0  0  0  0  0  0  0  0  0
   26.9300  -19.5273   -8.0593 C   0  0  0  0  0  0  0  0  0  0  0  0
   27.4115  -19.7874   -6.6871 C   0  0  0  0  0  0  0  0  0  0  0  0
   26.6629  -20.5241   -5.7886 C   0  0  0  0  0  0  0  0  0  0  0  0
   27.1412  -20.7519   -4.5066 C   0  0  0  0  0  0  0  0  0  0  0  0
   28.3599  -20.2583   -4.0941 C   0  0  0  0  0  0  0  0  0  0  0  0
   29.1157  -19.5208   -4.9843 C   0  0  0  0  0  0  0  0  0  0  0  0
   28.6273  -19.2974   -6.2688 C   0  0  0  0  0  0  0  0  0  0  0  0
   26.6174  -20.4573  -10.2613 C   0  0  0  0  0  0  0  0  0  0  0  0
   27.4153  -19.7300  -10.8898 O   0  0  0  0  0  0  0  0  0  0  0  0
   27.4952  -20.6085  -12.9033 C   0  0  0  0  0  0  0  0  0  0  0  0
   26.1438  -21.1813  -13.2551 C   0  0  1  0  0  0  0  0  0  0  0  0
   26.2028  -22.5567  -13.0756 O   0  0  0  0  0  0  0  0  0  0  0  0
   25.1389  -20.6196  -12.3049 C   0  0  2  0  0  0  0  0  0  0  0  0
   25.4574  -20.8772  -10.9191 N   0  0  0  0  0  0  0  0  0  0  0  0
   23.8199  -21.2521  -12.5771 C   0  0  0  0  0  0  0  0  0  0  0  0
   23.2579  -21.9472  -11.6538 O   0  0  0  0  0  0  0  0  0  0  0  0
   23.0950  -21.1680  -13.7768 N   0  0  0  0  0  0  0  0  0  0  0  0
   21.7077  -21.5001  -13.8406 C   0  0  1  0  0  0  0  0  0  0  0  0
   20.8415  -20.6831  -12.9246 C   0  0  0  0  0  0  0  0  0  0  0  0
   19.3914  -21.0326  -13.0012 C   0  0  0  0  0  0  0  0  0  0  0  0
   18.5571  -20.1940  -12.0840 C   0  0  0  0  0  0  0  0  0  0  0  0
   18.0737  -20.9550  -10.8715 C   0  0  0  0  0  0  0  0  0  0  0  0
   16.9090  -21.7594  -11.1899 N   0  0  0  0  0  0  0  0  0  0  0  0
   21.1902  -21.3129  -15.2178 C   0  0  0  0  0  0  0  0  0  0  0  0
   21.5856  -20.3105  -15.8617 O   0  0  0  0  0  0  0  0  0  0  0  0
   20.3011  -22.1856  -15.8149 O   0  0  0  0  0  0  0  0  0  0  0  0
  2  1  1  6
  2  3  1  0
  3  4  1  0
  4  9  2  0
  5  6  2  0
  5  4  1  0
  6  7  1  0
  7  8  2  0
  9  8  1  0
 10  2  1  0
 10 16  1  0
 11 10  2  0
 13 12  1  1
 13 15  1  0
 14 13  1  0
 15 16  1  1
 17 15  1  0
 18 17  2  0
 19 17  1  0
 20 19  1  0
 20 26  1  0
 20 21  1  1
 22 21  1  0
 23 22  1  0
 24 23  1  0
 24 25  1  0
 26 28  1  0
 27 26  2  0
M  END
$$$$
