FTK.pdb
     RDKit          3D

 28 28  0  0  1  0  0  0  0  0999 V2000
   27.4323  -21.5920  -11.2284 N   0  0  0  0  0  0  0  0  0  0  0  0
   26.2073  -20.8434  -11.5407 C   0  0  1  0  0  0  0  0  0  0  0  0
   26.2243  -19.6026  -10.6428 C   0  0  0  0  0  0  0  0  0  0  0  0
   25.9882  -19.9981   -9.2390 C   0  0  0  0  0  0  0  0  0  0  0  0
   26.8967  -19.6944   -8.2426 C   0  0  0  0  0  0  0  0  0  0  0  0
   26.6477  -20.0790   -6.9333 C   0  0  0  0  0  0  0  0  0  0  0  0
   25.5036  -20.7659   -6.5894 C   0  0  0  0  0  0  0  0  0  0  0  0
   24.5894  -21.0742   -7.5777 C   0  0  0  0  0  0  0  0  0  0  0  0
   24.8480  -20.6841   -8.8889 C   0  0  0  0  0  0  0  0  0  0  0  0
   26.3470  -20.3576  -12.9288 C   0  0  0  0  0  0  0  0  0  0  0  0
   27.4895  -20.0817  -13.3524 O   0  0  0  0  0  0  0  0  0  0  0  0
   27.4159  -21.1933  -15.3820 C   0  0  0  0  0  0  0  0  0  0  0  0
   26.0524  -20.9703  -15.9897 C   0  0  1  0  0  0  0  0  0  0  0  0
   25.3270  -22.1463  -15.8552 O   0  0  0  0  0  0  0  0  0  0  0  0
   25.3667  -19.8961  -15.2124 C   0  0  2  0  0  0  0  0  0  0  0  0
   25.2672  -20.1881  -13.8006 N   0  0  0  0  0  0  0  0  0  0  0  0
   23.9793  -19.7460  -15.7284 C   0  0  0  0  0  0  0  0  0  0  0  0
   23.0068  -20.2615  -15.0652 O   0  0  0  0  0  0  0  0  0  0  0  0
   23.6028  -19.0764  -16.9039 N   0  0  0  0  0  0  0  0  0  0  0  0
   22.2314  -18.8765  -17.2477 C   0  0  1  0  0  0  0  0  0  0  0  0
   22.0071  -17.7834  -18.2536 C   0  0  0  0  0  0  0  0  0  0  0  0
   20.5668  -17.5473  -18.5710 C   0  0  0  0  0  0  0  0  0  0  0  0
   20.3836  -16.5109  -19.6353 C   0  0  0  0  0  0  0  0  0  0  0  0
   18.9297  -16.2149  -19.9211 C   0  0  0  0  0  0  0  0  0  0  0  0
   18.7956  -15.2146  -20.9634 N   0  0  0  0  0  0  0  0  0  0  0  0
   21.6494  -20.1187  -17.8114 C   0  0  0  0  0  0  0  0  0  0  0  0
   22.3890  -20.8436  -18.5208 O   0  0  0  0  0  0  0  0  0  0  0  0
   20.3420  -20.5070  -17.5908 O   0  0  0  0  0  0  0  0  0  0  0  0
  2  1  1  1
  2  3  1  0
  3  4  1  0
  4  9  2  0
  5  6  2  0
  5  4  1  0
  6  7  1  0
  7  8  2  0
  9  8  1  0
 10  2  1  0
 10 16  1  0
 11 10  2  0
 13 12  1  1
 13 15  1  0
 14 13  1  0
 15 16  1  1
 17 15  1  0
 18 17  2  0
 19 17  1  0
 20 19  1  0
 20 26  1  0
 20 21  1  6
 22 21  1  0
 23 22  1  0
 24 23  1  0
 24 25  1  0
 26 28  1  0
 27 26  2  0
M  END
$$$$
