FTK.pdb
     RDKit          3D

 28 28  0  0  1  0  0  0  0  0999 V2000
   26.6772  -22.1904  -12.4580 N   0  0  0  0  0  0  0  0  0  0  0  0
   25.9425  -21.3628  -11.4917 C   0  0  1  0  0  0  0  0  0  0  0  0
   26.8608  -20.1846  -11.1530 C   0  0  0  0  0  0  0  0  0  0  0  0
   27.8066  -20.5779  -10.0884 C   0  0  0  0  0  0  0  0  0  0  0  0
   29.0648  -21.0660  -10.3870 C   0  0  0  0  0  0  0  0  0  0  0  0
   29.9312  -21.4273   -9.3657 C   0  0  0  0  0  0  0  0  0  0  0  0
   29.5705  -21.3130   -8.0407 C   0  0  0  0  0  0  0  0  0  0  0  0
   28.3154  -20.8264   -7.7316 C   0  0  0  0  0  0  0  0  0  0  0  0
   27.4528  -20.4663   -8.7634 C   0  0  0  0  0  0  0  0  0  0  0  0
   24.7828  -20.7964  -12.2107 C   0  0  0  0  0  0  0  0  0  0  0  0
   24.9592  -19.7882  -12.9271 O   0  0  0  0  0  0  0  0  0  0  0  0
   23.7028  -19.8306  -14.6129 C   0  0  0  0  0  0  0  0  0  0  0  0
   22.5759  -20.7994  -14.3489 C   0  0  1  0  0  0  0  0  0  0  0  0
   22.9819  -22.0550  -14.7802 O   0  0  0  0  0  0  0  0  0  0  0  0
   22.3448  -20.8537  -12.8751 C   0  0  2  0  0  0  0  0  0  0  0  0
   23.4917  -21.3275  -12.1346 N   0  0  0  0  0  0  0  0  0  0  0  0
   21.2263  -21.7963  -12.6024 C   0  0  0  0  0  0  0  0  0  0  0  0
   21.4818  -23.0495  -12.4773 O   0  0  0  0  0  0  0  0  0  0  0  0
   19.8722  -21.4527  -12.4602 N   0  0  0  0  0  0  0  0  0  0  0  0
   18.8679  -22.4399  -12.2243 C   0  0  1  0  0  0  0  0  0  0  0  0
   18.1211  -22.2551  -10.9339 C   0  0  0  0  0  0  0  0  0  0  0  0
   17.9269  -23.5220  -10.1670 C   0  0  0  0  0  0  0  0  0  0  0  0
   18.4562  -23.4256   -8.7702 C   0  0  0  0  0  0  0  0  0  0  0  0
   18.2772  -24.7047   -7.9861 C   0  0  0  0  0  0  0  0  0  0  0  0
   18.8822  -24.6003   -6.6715 N   0  0  0  0  0  0  0  0  0  0  0  0
   17.8652  -22.4344  -13.3171 C   0  0  0  0  0  0  0  0  0  0  0  0
   17.6763  -21.3577  -13.9342 O   0  0  0  0  0  0  0  0  0  0  0  0
   17.1387  -23.5520  -13.6802 O   0  0  0  0  0  0  0  0  0  0  0  0
  2  1  1  6
  2  3  1  0
  3  4  1  0
  4  9  2  0
  5  6  2  0
  5  4  1  0
  6  7  1  0
  7  8  2  0
  9  8  1  0
 10  2  1  0
 10 16  1  0
 11 10  2  0
 13 12  1  1
 13 15  1  0
 14 13  1  0
 15 16  1  1
 17 15  1  0
 18 17  2  0
 19 17  1  0
 20 19  1  0
 20 26  1  0
 20 21  1  1
 22 21  1  0
 23 22  1  0
 24 23  1  0
 24 25  1  0
 26 28  1  0
 27 26  2  0
M  END
$$$$
