FTK.pdb
     RDKit          3D

 28 28  0  0  1  0  0  0  0  0999 V2000
   16.0402  -21.1808    3.5237 N   0  0  0  0  0  0  0  0  0  0  0  0
   17.1362  -21.6581    4.3778 C   0  0  1  0  0  0  0  0  0  0  0  0
   16.5686  -21.7341    5.7985 C   0  0  0  0  0  0  0  0  0  0  0  0
   16.4054  -20.3713    6.3450 C   0  0  0  0  0  0  0  0  0  0  0  0
   15.1749  -19.7417    6.3544 C   0  0  0  0  0  0  0  0  0  0  0  0
   15.0525  -18.4615    6.8743 C   0  0  0  0  0  0  0  0  0  0  0  0
   16.1376  -17.7866    7.3903 C   0  0  0  0  0  0  0  0  0  0  0  0
   17.3715  -18.4069    7.3855 C   0  0  0  0  0  0  0  0  0  0  0  0
   17.4846  -19.6918    6.8616 C   0  0  0  0  0  0  0  0  0  0  0  0
   17.4226  -23.0479    3.9666 C   0  0  0  0  0  0  0  0  0  0  0  0
   16.5637  -23.6615    3.2983 O   0  0  0  0  0  0  0  0  0  0  0  0
   20.2423  -24.3207    1.8786 C   0  0  0  0  0  0  0  0  0  0  0  0
   20.3174  -25.0864    3.1771 C   0  0  1  0  0  0  0  0  0  0  0  0
   21.2282  -24.4406    4.0021 O   0  0  0  0  0  0  0  0  0  0  0  0
   18.9726  -25.0392    3.8233 C   0  0  2  0  0  0  0  0  0  0  0  0
   18.6069  -23.7194    4.2844 N   0  0  0  0  0  0  0  0  0  0  0  0
   18.9840  -25.9324    5.0133 C   0  0  0  0  0  0  0  0  0  0  0  0
   19.0295  -25.4097    6.1864 O   0  0  0  0  0  0  0  0  0  0  0  0
   18.9477  -27.3360    4.9934 N   0  0  0  0  0  0  0  0  0  0  0  0
   19.0907  -28.1078    6.1862 C   0  0  1  0  0  0  0  0  0  0  0  0
   18.6097  -29.5252    6.0577 C   0  0  0  0  0  0  0  0  0  0  0  0
   18.5241  -30.2496    7.3611 C   0  0  0  0  0  0  0  0  0  0  0  0
   18.0814  -31.6694    7.1924 C   0  0  0  0  0  0  0  0  0  0  0  0
   17.8619  -32.3755    8.5101 C   0  0  0  0  0  0  0  0  0  0  0  0
   17.2383  -33.6703    8.3111 N   0  0  0  0  0  0  0  0  0  0  0  0
   20.5127  -28.1623    6.6039 C   0  0  0  0  0  0  0  0  0  0  0  0
   21.3839  -28.2692    5.7066 O   0  0  0  0  0  0  0  0  0  0  0  0
   20.9140  -28.1011    7.9245 O   0  0  0  0  0  0  0  0  0  0  0  0
  2  1  1  6
  2  3  1  0
  3  4  1  0
  4  9  2  0
  5  6  2  0
  5  4  1  0
  6  7  1  0
  7  8  2  0
  9  8  1  0
 10  2  1  0
 10 16  1  0
 11 10  2  0
 13 12  1  6
 13 15  1  0
 14 13  1  0
 15 16  1  1
 17 15  1  0
 18 17  2  0
 19 17  1  0
 20 19  1  0
 20 26  1  0
 20 21  1  6
 22 21  1  0
 23 22  1  0
 24 23  1  0
 24 25  1  0
 26 28  1  0
 27 26  2  0
M  END
$$$$
