FTK.pdb
     RDKit          3D

 28 28  0  0  1  0  0  0  0  0999 V2000
   24.6371  -15.7530  -18.1244 N   0  0  0  0  0  0  0  0  0  0  0  0
   24.8899  -16.6541  -16.9920 C   0  0  1  0  0  0  0  0  0  0  0  0
   25.8631  -15.9161  -16.0677 C   0  0  0  0  0  0  0  0  0  0  0  0
   27.2197  -16.4822  -16.2158 C   0  0  0  0  0  0  0  0  0  0  0  0
   28.1317  -15.9438  -17.1040 C   0  0  0  0  0  0  0  0  0  0  0  0
   29.3984  -16.4970  -17.2212 C   0  0  0  0  0  0  0  0  0  0  0  0
   29.7821  -17.5848  -16.4672 C   0  0  0  0  0  0  0  0  0  0  0  0
   28.8782  -18.1302  -15.5768 C   0  0  0  0  0  0  0  0  0  0  0  0
   27.6092  -17.5682  -15.4661 C   0  0  0  0  0  0  0  0  0  0  0  0
   23.6177  -16.7739  -16.2505 C   0  0  0  0  0  0  0  0  0  0  0  0
   22.8923  -15.7624  -16.1428 O   0  0  0  0  0  0  0  0  0  0  0  0
   20.6442  -17.7279  -17.0653 C   0  0  0  0  0  0  0  0  0  0  0  0
   20.8589  -18.7150  -15.9439 C   0  0  1  0  0  0  0  0  0  0  0  0
   21.3471  -19.8909  -16.4973 O   0  0  0  0  0  0  0  0  0  0  0  0
   21.8933  -18.1562  -15.0240 C   0  0  2  0  0  0  0  0  0  0  0  0
   23.1766  -17.9615  -15.6591 N   0  0  0  0  0  0  0  0  0  0  0  0
   22.0993  -19.1113  -13.9019 C   0  0  0  0  0  0  0  0  0  0  0  0
   23.2489  -19.6671  -13.7575 O   0  0  0  0  0  0  0  0  0  0  0  0
   21.1392  -19.4841  -12.9473 N   0  0  0  0  0  0  0  0  0  0  0  0
   21.4056  -20.4874  -11.9668 C   0  0  1  0  0  0  0  0  0  0  0  0
   21.8503  -19.9415  -10.6397 C   0  0  0  0  0  0  0  0  0  0  0  0
   22.4792  -20.9642   -9.7513 C   0  0  0  0  0  0  0  0  0  0  0  0
   21.4749  -21.6543   -8.8821 C   0  0  0  0  0  0  0  0  0  0  0  0
   21.8897  -21.7002   -7.4299 C   0  0  0  0  0  0  0  0  0  0  0  0
   20.8178  -22.2119   -6.5966 N   0  0  0  0  0  0  0  0  0  0  0  0
   20.1958  -21.3093  -11.7208 C   0  0  0  0  0  0  0  0  0  0  0  0
   19.1156  -20.7106  -11.4963 O   0  0  0  0  0  0  0  0  0  0  0  0
   20.2080  -22.6908  -11.7282 O   0  0  0  0  0  0  0  0  0  0  0  0
  2  1  1  6
  2  3  1  0
  3  4  1  0
  4  9  2  0
  5  6  2  0
  5  4  1  0
  6  7  1  0
  7  8  2  0
  9  8  1  0
 10  2  1  0
 10 16  1  0
 11 10  2  0
 13 12  1  6
 13 15  1  0
 14 13  1  0
 15 16  1  6
 17 15  1  0
 18 17  2  0
 19 17  1  0
 20 19  1  0
 20 26  1  0
 20 21  1  1
 22 21  1  0
 23 22  1  0
 24 23  1  0
 24 25  1  0
 26 28  1  0
 27 26  2  0
M  END
$$$$
