FTK.pdb
     RDKit          3D

 28 28  0  0  1  0  0  0  0  0999 V2000
   27.1289  -11.9279  -19.7408 N   0  0  0  0  0  0  0  0  0  0  0  0
   26.7210  -12.7998  -18.6309 C   0  0  1  0  0  0  0  0  0  0  0  0
   26.3304  -11.8697  -17.4783 C   0  0  0  0  0  0  0  0  0  0  0  0
   27.5123  -11.1047  -17.0308 C   0  0  0  0  0  0  0  0  0  0  0  0
   28.5666  -11.7212  -16.3836 C   0  0  0  0  0  0  0  0  0  0  0  0
   29.6634  -10.9765  -15.9751 C   0  0  0  0  0  0  0  0  0  0  0  0
   29.7356   -9.6186  -16.1981 C   0  0  0  0  0  0  0  0  0  0  0  0
   28.6873   -8.9929  -16.8440 C   0  0  0  0  0  0  0  0  0  0  0  0
   27.5909   -9.7486  -17.2503 C   0  0  0  0  0  0  0  0  0  0  0  0
   25.4815  -13.4811  -19.0575 C   0  0  0  0  0  0  0  0  0  0  0  0
   24.6869  -12.8650  -19.7990 O   0  0  0  0  0  0  0  0  0  0  0  0
   25.2999  -16.9991  -20.6161 C   0  0  0  0  0  0  0  0  0  0  0  0
   24.3317  -16.9623  -19.4588 C   0  0  1  0  0  0  0  0  0  0  0  0
   24.9670  -17.5100  -18.3525 O   0  0  0  0  0  0  0  0  0  0  0  0
   24.0113  -15.5342  -19.1657 C   0  0  2  0  0  0  0  0  0  0  0  0
   25.1452  -14.7836  -18.6767 N   0  0  0  0  0  0  0  0  0  0  0  0
   22.9652  -15.4877  -18.1085 C   0  0  0  0  0  0  0  0  0  0  0  0
   23.0572  -14.6075  -17.1768 O   0  0  0  0  0  0  0  0  0  0  0  0
   21.8463  -16.3311  -18.0156 N   0  0  0  0  0  0  0  0  0  0  0  0
   20.8349  -16.1305  -17.0278 C   0  0  1  0  0  0  0  0  0  0  0  0
   20.1501  -14.7963  -17.1172 C   0  0  0  0  0  0  0  0  0  0  0  0
   19.1677  -14.5521  -16.0190 C   0  0  0  0  0  0  0  0  0  0  0  0
   17.7534  -14.7385  -16.4721 C   0  0  0  0  0  0  0  0  0  0  0  0
   16.7441  -14.2498  -15.4594 C   0  0  0  0  0  0  0  0  0  0  0  0
   15.3940  -14.3383  -15.9831 N   0  0  0  0  0  0  0  0  0  0  0  0
   19.7847  -17.1718  -17.1388 C   0  0  0  0  0  0  0  0  0  0  0  0
   19.4809  -17.5783  -18.2869 O   0  0  0  0  0  0  0  0  0  0  0  0
   19.1341  -17.7069  -16.0438 O   0  0  0  0  0  0  0  0  0  0  0  0
  2  1  1  6
  2  3  1  0
  3  4  1  0
  4  9  2  0
  5  6  2  0
  5  4  1  0
  6  7  1  0
  7  8  2  0
  9  8  1  0
 10  2  1  0
 10 16  1  0
 11 10  2  0
 13 12  1  6
 13 15  1  0
 14 13  1  0
 15 16  1  1
 17 15  1  0
 18 17  2  0
 19 17  1  0
 20 19  1  0
 20 26  1  0
 20 21  1  6
 22 21  1  0
 23 22  1  0
 24 23  1  0
 24 25  1  0
 26 28  1  0
 27 26  2  0
M  END
$$$$
