FTK.pdb
     RDKit          3D

 28 28  0  0  1  0  0  0  0  0999 V2000
   21.8035  -13.9419  -17.0759 N   0  0  0  0  0  0  0  0  0  0  0  0
   21.3322  -12.6869  -17.6771 C   0  0  1  0  0  0  0  0  0  0  0  0
   19.9854  -13.0067  -18.3329 C   0  0  0  0  0  0  0  0  0  0  0  0
   20.2050  -13.7671  -19.5805 C   0  0  0  0  0  0  0  0  0  0  0  0
   20.0380  -15.1383  -19.6270 C   0  0  0  0  0  0  0  0  0  0  0  0
   20.2515  -15.8253  -20.8131 C   0  0  0  0  0  0  0  0  0  0  0  0
   20.6311  -15.1721  -21.9656 C   0  0  0  0  0  0  0  0  0  0  0  0
   20.8006  -13.8019  -21.9297 C   0  0  0  0  0  0  0  0  0  0  0  0
   20.5841  -13.1211  -20.7347 C   0  0  0  0  0  0  0  0  0  0  0  0
   21.0455  -11.7614  -16.5619 C   0  0  0  0  0  0  0  0  0  0  0  0
   20.5254  -12.2215  -15.5233 O   0  0  0  0  0  0  0  0  0  0  0  0
   23.1861  -10.1413  -14.3610 C   0  0  0  0  0  0  0  0  0  0  0  0
   22.4401   -8.9668  -14.9459 C   0  0  1  0  0  0  0  0  0  0  0  0
   23.2031   -8.4499  -15.9842 O   0  0  0  0  0  0  0  0  0  0  0  0
   21.1502   -9.4673  -15.5061 C   0  0  2  0  0  0  0  0  0  0  0  0
   21.3247  -10.3921  -16.6027 N   0  0  0  0  0  0  0  0  0  0  0  0
   20.3756   -8.3090  -16.0278 C   0  0  0  0  0  0  0  0  0  0  0  0
   20.3537   -8.0914  -17.2941 O   0  0  0  0  0  0  0  0  0  0  0  0
   19.6375   -7.3947  -15.2589 N   0  0  0  0  0  0  0  0  0  0  0  0
   19.0354   -6.2381  -15.8408 C   0  0  1  0  0  0  0  0  0  0  0  0
   17.5529   -6.1435  -15.6172 C   0  0  0  0  0  0  0  0  0  0  0  0
   16.9165   -4.9788  -16.3023 C   0  0  0  0  0  0  0  0  0  0  0  0
   15.4547   -4.8722  -15.9988 C   0  0  0  0  0  0  0  0  0  0  0  0
   14.7761   -3.7617  -16.7664 C   0  0  0  0  0  0  0  0  0  0  0  0
   13.3512   -3.7341  -16.4946 N   0  0  0  0  0  0  0  0  0  0  0  0
   19.6427   -5.0021  -15.2905 C   0  0  0  0  0  0  0  0  0  0  0  0
   20.3405   -5.1036  -14.2519 O   0  0  0  0  0  0  0  0  0  0  0  0
   19.4745   -3.7576  -15.8665 O   0  0  0  0  0  0  0  0  0  0  0  0
  2  1  1  1
  2  3  1  0
  3  4  1  0
  4  9  2  0
  5  6  2  0
  5  4  1  0
  6  7  1  0
  7  8  2  0
  9  8  1  0
 10  2  1  0
 10 16  1  0
 11 10  2  0
 13 12  1  6
 13 15  1  0
 14 13  1  0
 15 16  1  6
 17 15  1  0
 18 17  2  0
 19 17  1  0
 20 19  1  0
 20 26  1  0
 20 21  1  1
 22 21  1  0
 23 22  1  0
 24 23  1  0
 24 25  1  0
 26 28  1  0
 27 26  2  0
M  END
$$$$
