FTK.pdb
     RDKit          3D

 28 28  0  0  1  0  0  0  0  0999 V2000
   24.6232  -31.1863  -18.4656 N   0  0  0  0  0  0  0  0  0  0  0  0
   23.2683  -30.8858  -17.9836 C   0  0  1  0  0  0  0  0  0  0  0  0
   22.7296  -32.1882  -17.3837 C   0  0  0  0  0  0  0  0  0  0  0  0
   22.2465  -33.0735  -18.4632 C   0  0  0  0  0  0  0  0  0  0  0  0
   23.0186  -34.1167  -18.9388 C   0  0  0  0  0  0  0  0  0  0  0  0
   22.5381  -34.9314  -19.9536 C   0  0  0  0  0  0  0  0  0  0  0  0
   21.2943  -34.7297  -20.5114 C   0  0  0  0  0  0  0  0  0  0  0  0
   20.5149  -33.6900  -20.0432 C   0  0  0  0  0  0  0  0  0  0  0  0
   21.0057  -32.8777  -19.0246 C   0  0  0  0  0  0  0  0  0  0  0  0
   23.4160  -29.9373  -16.8607 C   0  0  0  0  0  0  0  0  0  0  0  0
   24.5653  -29.6826  -16.4420 O   0  0  0  0  0  0  0  0  0  0  0  0
   23.4014  -26.5890  -16.6259 C   0  0  0  0  0  0  0  0  0  0  0  0
   22.2522  -26.9114  -15.7020 C   0  0  1  0  0  0  0  0  0  0  0  0
   21.0800  -26.8607  -16.4441 O   0  0  0  0  0  0  0  0  0  0  0  0
   22.4372  -28.3043  -15.1982 C   0  0  2  0  0  0  0  0  0  0  0  0
   22.3369  -29.3047  -16.2362 N   0  0  0  0  0  0  0  0  0  0  0  0
   21.3709  -28.5966  -14.2024 C   0  0  0  0  0  0  0  0  0  0  0  0
   20.3430  -29.2753  -14.5687 O   0  0  0  0  0  0  0  0  0  0  0  0
   21.3660  -28.1980  -12.8560 N   0  0  0  0  0  0  0  0  0  0  0  0
   20.2573  -28.4672  -11.9973 C   0  0  1  0  0  0  0  0  0  0  0  0
   20.5136  -28.1499  -10.5514 C   0  0  0  0  0  0  0  0  0  0  0  0
   19.3612  -28.4653   -9.6552 C   0  0  0  0  0  0  0  0  0  0  0  0
   19.4865  -29.8175   -9.0256 C   0  0  0  0  0  0  0  0  0  0  0  0
   18.2401  -30.2347   -8.2802 C   0  0  0  0  0  0  0  0  0  0  0  0
   18.3977  -31.5536   -7.6966 N   0  0  0  0  0  0  0  0  0  0  0  0
   19.0713  -27.6815  -12.4162 C   0  0  0  0  0  0  0  0  0  0  0  0
   19.2651  -26.5389  -12.8985 O   0  0  0  0  0  0  0  0  0  0  0  0
   17.7766  -28.1493  -12.2991 O   0  0  0  0  0  0  0  0  0  0  0  0
  2  1  1  1
  2  3  1  0
  3  4  1  0
  4  9  2  0
  5  6  2  0
  5  4  1  0
  6  7  1  0
  7  8  2  0
  9  8  1  0
 10  2  1  0
 10 16  1  0
 11 10  2  0
 13 12  1  6
 13 15  1  0
 14 13  1  0
 15 16  1  6
 17 15  1  0
 18 17  2  0
 19 17  1  0
 20 19  1  0
 20 26  1  0
 20 21  1  1
 22 21  1  0
 23 22  1  0
 24 23  1  0
 24 25  1  0
 26 28  1  0
 27 26  2  0
M  END
$$$$
