FTK.pdb
     RDKit          3D

 28 28  0  0  1  0  0  0  0  0999 V2000
   24.2533  -12.0878  -15.4982 N   0  0  0  0  0  0  0  0  0  0  0  0
   24.1810  -10.6396  -15.7347 C   0  0  1  0  0  0  0  0  0  0  0  0
   24.7751  -10.4039  -17.1267 C   0  0  0  0  0  0  0  0  0  0  0  0
   26.2442  -10.5506  -17.0746 C   0  0  0  0  0  0  0  0  0  0  0  0
   27.0493   -9.5561  -16.5518 C   0  0  0  0  0  0  0  0  0  0  0  0
   28.4260   -9.7224  -16.5162 C   0  0  0  0  0  0  0  0  0  0  0  0
   29.0259  -10.8673  -16.9937 C   0  0  0  0  0  0  0  0  0  0  0  0
   28.2304  -11.8671  -17.5182 C   0  0  0  0  0  0  0  0  0  0  0  0
   26.8497  -11.6912  -17.5497 C   0  0  0  0  0  0  0  0  0  0  0  0
   22.7476  -10.2940  -15.8272 C   0  0  0  0  0  0  0  0  0  0  0  0
   21.9794  -11.0861  -16.4132 O   0  0  0  0  0  0  0  0  0  0  0  0
   20.0788  -10.6991  -14.0149 C   0  0  0  0  0  0  0  0  0  0  0  0
   20.0688   -9.1910  -14.0770 C   0  0  1  0  0  0  0  0  0  0  0  0
   20.7584   -8.7132  -12.9709 O   0  0  0  0  0  0  0  0  0  0  0  0
   20.7974   -8.7715  -15.3104 C   0  0  2  0  0  0  0  0  0  0  0  0
   22.1987   -9.1242  -15.2934 N   0  0  0  0  0  0  0  0  0  0  0  0
   20.7191   -7.2904  -15.4297 C   0  0  0  0  0  0  0  0  0  0  0  0
   21.6934   -6.5759  -14.9921 O   0  0  0  0  0  0  0  0  0  0  0  0
   19.6579   -6.5616  -15.9905 N   0  0  0  0  0  0  0  0  0  0  0  0
   19.7210   -5.1437  -16.1473 C   0  0  1  0  0  0  0  0  0  0  0  0
   19.3884   -4.6672  -17.5327 C   0  0  0  0  0  0  0  0  0  0  0  0
   19.5317   -3.1910  -17.7092 C   0  0  0  0  0  0  0  0  0  0  0  0
   19.2744   -2.7613  -19.1198 C   0  0  0  0  0  0  0  0  0  0  0  0
   19.6015   -1.3056  -19.3580 C   0  0  0  0  0  0  0  0  0  0  0  0
   19.4040   -0.9470  -20.7499 N   0  0  0  0  0  0  0  0  0  0  0  0
   18.7818   -4.4742  -15.2149 C   0  0  0  0  0  0  0  0  0  0  0  0
   17.7629   -5.1108  -14.8514 O   0  0  0  0  0  0  0  0  0  0  0  0
   18.9793   -3.1938  -14.7353 O   0  0  0  0  0  0  0  0  0  0  0  0
  2  1  1  6
  2  3  1  0
  3  4  1  0
  4  9  2  0
  5  6  2  0
  5  4  1  0
  6  7  1  0
  7  8  2  0
  9  8  1  0
 10  2  1  0
 10 16  1  0
 11 10  2  0
 13 12  1  1
 13 15  1  0
 14 13  1  0
 15 16  1  1
 17 15  1  0
 18 17  2  0
 19 17  1  0
 20 19  1  0
 20 26  1  0
 20 21  1  6
 22 21  1  0
 23 22  1  0
 24 23  1  0
 24 25  1  0
 26 28  1  0
 27 26  2  0
M  END
$$$$
