EKY.pdb
     RDKit          3D

 31 31  0  0  1  0  0  0  0  0999 V2000
   27.5750  -23.1993  -16.2584 N   0  0  0  0  0  0  0  0  0  0  0  0
   26.2731  -23.3834  -16.8242 C   0  0  1  0  0  0  0  0  0  0  0  0
   25.8374  -24.8266  -16.6965 C   0  0  0  0  0  0  0  0  0  0  0  0
   27.0295  -25.6997  -17.0016 C   0  0  0  0  0  0  0  0  0  0  0  0
   26.5786  -27.1007  -17.1536 C   0  0  0  0  0  0  0  0  0  0  0  0
   25.3787  -27.3805  -17.0036 O   0  0  0  0  0  0  0  0  0  0  0  0
   25.2941  -22.4643  -16.1680 C   0  0  0  0  0  0  0  0  0  0  0  0
   25.5004  -22.0347  -15.0084 O   0  0  0  0  0  0  0  0  0  0  0  0
   27.4611  -28.1176  -17.4605 O   0  0  0  0  0  0  0  0  0  0  0  0
   24.1053  -22.0395  -16.8107 N   0  0  0  0  0  0  0  0  0  0  0  0
   23.0968  -21.1971  -16.2387 C   0  0  1  0  0  0  0  0  0  0  0  0
   22.6602  -20.2023  -17.2866 C   0  0  0  0  0  0  0  0  0  0  0  0
   21.6752  -19.2079  -16.7847 C   0  0  0  0  0  0  0  0  0  0  0  0
   21.2548  -18.1630  -17.7644 C   0  0  0  0  0  0  0  0  0  0  0  0
   20.2986  -17.2207  -17.0466 C   0  0  0  0  0  0  0  0  0  0  0  0
   19.7195  -16.2597  -17.9426 N   0  0  0  0  0  0  0  0  0  0  0  0
   21.9438  -21.9330  -15.7072 C   0  0  0  0  0  0  0  0  0  0  0  0
   21.4346  -22.8561  -16.3687 O   0  0  0  0  0  0  0  0  0  0  0  0
   15.9165  -25.1119  -10.2161 O   0  0  0  0  0  0  0  0  0  0  0  0
   17.0476  -24.5587  -10.7749 C   0  0  0  0  0  0  0  0  0  0  0  0
   17.3527  -23.2467  -10.4575 C   0  0  0  0  0  0  0  0  0  0  0  0
   18.4917  -22.6726  -11.0132 C   0  0  0  0  0  0  0  0  0  0  0  0
   19.3373  -23.3377  -11.8654 C   0  0  0  0  0  0  0  0  0  0  0  0
   20.5434  -22.7391  -12.4686 C   0  0  0  0  0  0  0  0  0  0  0  0
   20.2673  -22.2796  -13.8467 C   0  0  2  0  0  0  0  0  0  0  0  0
   21.4078  -21.6002  -14.4487 N   0  0  0  0  0  0  0  0  0  0  0  0
   19.1309  -21.3557  -13.9225 C   0  0  0  0  0  0  0  0  0  0  0  0
   17.9722  -21.7878  -14.1095 O   0  0  0  0  0  0  0  0  0  0  0  0
   18.9897  -24.6564  -12.1559 C   0  0  0  0  0  0  0  0  0  0  0  0
   17.8746  -25.2707  -11.6327 C   0  0  0  0  0  0  0  0  0  0  0  0
   19.2911  -19.9846  -13.7919 O   0  0  0  0  0  0  0  0  0  0  0  0
  2  1  1  1
  3  2  1  0
  3  4  1  0
  5  9  1  0
  5  4  1  0
  6  5  2  0
  7  2  1  0
  7  8  2  0
 10  7  1  0
 11 10  1  0
 11 12  1  6
 13 12  1  0
 13 14  1  0
 14 15  1  0
 16 15  1  0
 17 26  1  0
 17 11  1  0
 18 17  2  0
 19 20  1  0
 20 30  2  0
 20 21  1  0
 21 22  2  0
 22 23  1  0
 23 24  1  0
 25 24  1  1
 25 26  1  0
 25 27  1  0
 27 31  1  0
 28 27  2  0
 29 23  2  0
 30 29  1  0
M  END
$$$$
