EKY.pdb
     RDKit          3D

 31 31  0  0  1  0  0  0  0  0999 V2000
   16.9689  -11.3244  -16.7520 N   0  0  0  0  0  0  0  0  0  0  0  0
   18.3398  -11.5638  -16.4169 C   0  0  1  0  0  0  0  0  0  0  0  0
   18.9415  -12.5960  -17.3451 C   0  0  0  0  0  0  0  0  0  0  0  0
   18.1582  -13.8756  -17.1858 C   0  0  0  0  0  0  0  0  0  0  0  0
   18.5287  -14.5150  -15.9039 C   0  0  0  0  0  0  0  0  0  0  0  0
   17.6426  -14.8207  -15.0903 O   0  0  0  0  0  0  0  0  0  0  0  0
   19.1098  -10.2836  -16.4622 C   0  0  0  0  0  0  0  0  0  0  0  0
   20.3571  -10.2842  -16.3353 O   0  0  0  0  0  0  0  0  0  0  0  0
   19.8440  -14.7850  -15.5814 O   0  0  0  0  0  0  0  0  0  0  0  0
   18.4814   -9.0275  -16.6473 N   0  0  0  0  0  0  0  0  0  0  0  0
   19.1450   -7.7592  -16.7176 C   0  0  1  0  0  0  0  0  0  0  0  0
   18.1872   -6.7557  -17.3126 C   0  0  0  0  0  0  0  0  0  0  0  0
   17.9974   -6.9156  -18.7786 C   0  0  0  0  0  0  0  0  0  0  0  0
   17.1209   -5.8991  -19.4318 C   0  0  0  0  0  0  0  0  0  0  0  0
   17.0193   -6.2622  -20.9067 C   0  0  0  0  0  0  0  0  0  0  0  0
   16.2470   -5.3017  -21.6433 N   0  0  0  0  0  0  0  0  0  0  0  0
   19.6567   -7.2877  -15.4256 C   0  0  0  0  0  0  0  0  0  0  0  0
   18.9310   -7.3282  -14.4153 O   0  0  0  0  0  0  0  0  0  0  0  0
   25.9860   -9.9396  -16.6490 O   0  0  0  0  0  0  0  0  0  0  0  0
   25.0896   -9.2655  -15.8492 C   0  0  0  0  0  0  0  0  0  0  0  0
   24.4281   -9.9834  -14.8682 C   0  0  0  0  0  0  0  0  0  0  0  0
   23.5195   -9.3178  -14.0516 C   0  0  0  0  0  0  0  0  0  0  0  0
   23.2384   -7.9790  -14.1636 C   0  0  0  0  0  0  0  0  0  0  0  0
   22.2713   -7.2622  -13.3106 C   0  0  0  0  0  0  0  0  0  0  0  0
   21.5354   -6.2456  -14.0926 C   0  0  2  0  0  0  0  0  0  0  0  0
   20.9686   -6.7876  -15.3212 N   0  0  0  0  0  0  0  0  0  0  0  0
   22.3734   -5.1047  -14.4757 C   0  0  0  0  0  0  0  0  0  0  0  0
   22.9237   -4.3989  -13.6021 O   0  0  0  0  0  0  0  0  0  0  0  0
   23.9287   -7.2975  -15.1653 C   0  0  0  0  0  0  0  0  0  0  0  0
   24.8373   -7.9088  -15.9991 C   0  0  0  0  0  0  0  0  0  0  0  0
   22.5875   -4.7657  -15.8031 O   0  0  0  0  0  0  0  0  0  0  0  0
  2  1  1  6
  3  2  1  0
  3  4  1  0
  5  9  1  0
  5  4  1  0
  6  5  2  0
  7  2  1  0
  7  8  2  0
 10  7  1  0
 11 10  1  0
 11 12  1  1
 13 12  1  0
 13 14  1  0
 14 15  1  0
 16 15  1  0
 17 26  1  0
 17 11  1  0
 18 17  2  0
 19 20  1  0
 20 30  2  0
 20 21  1  0
 21 22  2  0
 22 23  1  0
 23 24  1  0
 25 24  1  6
 25 26  1  0
 25 27  1  0
 27 31  1  0
 28 27  2  0
 29 23  2  0
 30 29  1  0
M  END
$$$$
