EKY.pdb
     RDKit          3D

 31 31  0  0  1  0  0  0  0  0999 V2000
   22.7114  -15.5932  -19.3304 N   0  0  0  0  0  0  0  0  0  0  0  0
   23.0162  -16.9917  -19.3415 C   0  0  1  0  0  0  0  0  0  0  0  0
   24.2165  -17.2671  -20.2204 C   0  0  0  0  0  0  0  0  0  0  0  0
   23.7162  -17.5324  -21.6189 C   0  0  0  0  0  0  0  0  0  0  0  0
   23.2053  -18.9188  -21.6967 C   0  0  0  0  0  0  0  0  0  0  0  0
   23.9103  -19.8577  -21.2942 O   0  0  0  0  0  0  0  0  0  0  0  0
   23.2460  -17.4775  -17.9469 C   0  0  0  0  0  0  0  0  0  0  0  0
   24.0544  -16.8884  -17.1910 O   0  0  0  0  0  0  0  0  0  0  0  0
   21.9548  -19.2034  -22.2087 O   0  0  0  0  0  0  0  0  0  0  0  0
   22.5747  -18.6072  -17.4177 N   0  0  0  0  0  0  0  0  0  0  0  0
   22.7670  -19.1615  -16.1102 C   0  0  1  0  0  0  0  0  0  0  0  0
   21.5578  -19.9975  -15.7675 C   0  0  0  0  0  0  0  0  0  0  0  0
   21.6080  -20.5783  -14.3996 C   0  0  0  0  0  0  0  0  0  0  0  0
   20.4525  -21.4446  -14.0221 C   0  0  0  0  0  0  0  0  0  0  0  0
   20.6359  -21.8428  -12.5643 C   0  0  0  0  0  0  0  0  0  0  0  0
   19.5833  -22.7061  -12.1078 N   0  0  0  0  0  0  0  0  0  0  0  0
   23.9984  -19.9486  -15.9773 C   0  0  0  0  0  0  0  0  0  0  0  0
   24.2854  -20.8063  -16.8322 O   0  0  0  0  0  0  0  0  0  0  0  0
   24.1292  -21.4572   -8.8340 O   0  0  0  0  0  0  0  0  0  0  0  0
   24.8211  -21.0998   -9.9703 C   0  0  0  0  0  0  0  0  0  0  0  0
   24.2537  -20.1523  -10.8043 C   0  0  0  0  0  0  0  0  0  0  0  0
   24.9394  -19.7799  -11.9561 C   0  0  0  0  0  0  0  0  0  0  0  0
   26.1563  -20.3026  -12.3165 C   0  0  0  0  0  0  0  0  0  0  0  0
   26.8906  -19.9235  -13.5388 C   0  0  0  0  0  0  0  0  0  0  0  0
   26.1656  -20.3734  -14.7465 C   0  0  2  0  0  0  0  0  0  0  0  0
   24.8608  -19.7387  -14.8845 N   0  0  0  0  0  0  0  0  0  0  0  0
   25.9403  -21.8224  -14.7692 C   0  0  0  0  0  0  0  0  0  0  0  0
   24.7813  -22.2864  -14.6941 O   0  0  0  0  0  0  0  0  0  0  0  0
   26.6885  -21.2531  -11.4461 C   0  0  0  0  0  0  0  0  0  0  0  0
   26.0510  -21.6557  -10.2946 C   0  0  0  0  0  0  0  0  0  0  0  0
   26.9875  -22.7254  -14.8733 O   0  0  0  0  0  0  0  0  0  0  0  0
  2  1  1  1
  3  2  1  0
  3  4  1  0
  5  9  1  0
  5  4  1  0
  6  5  2  0
  7  2  1  0
  7  8  2  0
 10  7  1  0
 11 10  1  0
 11 12  1  6
 13 12  1  0
 13 14  1  0
 14 15  1  0
 16 15  1  0
 17 26  1  0
 17 11  1  0
 18 17  2  0
 19 20  1  0
 20 30  2  0
 20 21  1  0
 21 22  2  0
 22 23  1  0
 23 24  1  0
 25 24  1  1
 25 26  1  0
 25 27  1  0
 27 31  1  0
 28 27  2  0
 29 23  2  0
 30 29  1  0
M  END
$$$$
