EKY.pdb
     RDKit          3D

 31 31  0  0  1  0  0  0  0  0999 V2000
   24.1345  -28.2791  -19.8798 N   0  0  0  0  0  0  0  0  0  0  0  0
   23.6020  -28.0421  -18.5725 C   0  0  1  0  0  0  0  0  0  0  0  0
   22.2833  -27.3058  -18.6611 C   0  0  0  0  0  0  0  0  0  0  0  0
   22.5722  -25.8865  -19.0839 C   0  0  0  0  0  0  0  0  0  0  0  0
   21.6818  -25.5246  -20.2089 C   0  0  0  0  0  0  0  0  0  0  0  0
   20.4552  -25.6770  -20.0961 O   0  0  0  0  0  0  0  0  0  0  0  0
   23.4495  -29.3352  -17.8388 C   0  0  0  0  0  0  0  0  0  0  0  0
   22.5486  -30.1471  -18.1568 O   0  0  0  0  0  0  0  0  0  0  0  0
   22.1788  -25.0171  -21.3931 O   0  0  0  0  0  0  0  0  0  0  0  0
   24.2993  -29.7028  -16.7665 N   0  0  0  0  0  0  0  0  0  0  0  0
   24.1692  -30.8788  -15.9577 C   0  0  1  0  0  0  0  0  0  0  0  0
   25.4942  -31.1386  -15.2829 C   0  0  0  0  0  0  0  0  0  0  0  0
   26.4045  -32.0036  -16.0792 C   0  0  0  0  0  0  0  0  0  0  0  0
   27.8043  -31.5066  -16.2264 C   0  0  0  0  0  0  0  0  0  0  0  0
   28.5838  -32.5576  -17.0044 C   0  0  0  0  0  0  0  0  0  0  0  0
   29.8262  -32.8866  -16.3643 N   0  0  0  0  0  0  0  0  0  0  0  0
   23.0883  -30.7990  -14.9684 C   0  0  0  0  0  0  0  0  0  0  0  0
   22.9380  -29.7657  -14.2913 O   0  0  0  0  0  0  0  0  0  0  0  0
   20.6958  -25.5447  -13.3435 O   0  0  0  0  0  0  0  0  0  0  0  0
   20.5119  -26.8785  -13.6347 C   0  0  0  0  0  0  0  0  0  0  0  0
   20.4177  -27.7663  -12.5773 C   0  0  0  0  0  0  0  0  0  0  0  0
   20.2317  -29.1170  -12.8538 C   0  0  0  0  0  0  0  0  0  0  0  0
   20.1357  -29.6245  -14.1254 C   0  0  0  0  0  0  0  0  0  0  0  0
   19.9471  -31.0550  -14.4336 C   0  0  0  0  0  0  0  0  0  0  0  0
   21.0623  -31.8597  -13.8902 C   0  0  2  0  0  0  0  0  0  0  0  0
   22.2166  -31.8883  -14.7797 N   0  0  0  0  0  0  0  0  0  0  0  0
   20.6867  -33.2538  -13.6329 C   0  0  0  0  0  0  0  0  0  0  0  0
   21.3302  -34.1916  -14.1531 O   0  0  0  0  0  0  0  0  0  0  0  0
   20.2362  -28.6928  -15.1581 C   0  0  0  0  0  0  0  0  0  0  0  0
   20.4201  -27.3467  -14.9382 C   0  0  0  0  0  0  0  0  0  0  0  0
   19.6180  -33.5857  -12.8140 O   0  0  0  0  0  0  0  0  0  0  0  0
  2  1  1  6
  3  2  1  0
  3  4  1  0
  5  9  1  0
  5  4  1  0
  6  5  2  0
  7  2  1  0
  7  8  2  0
 10  7  1  0
 11 10  1  0
 11 12  1  1
 13 12  1  0
 13 14  1  0
 14 15  1  0
 16 15  1  0
 17 26  1  0
 17 11  1  0
 18 17  2  0
 19 20  1  0
 20 30  2  0
 20 21  1  0
 21 22  2  0
 22 23  1  0
 23 24  1  0
 25 24  1  6
 25 26  1  0
 25 27  1  0
 27 31  1  0
 28 27  2  0
 29 23  2  0
 30 29  1  0
M  END
$$$$
