EKY.pdb
     RDKit          3D

 31 31  0  0  1  0  0  0  0  0999 V2000
   20.7616  -18.5426  -16.8489 N   0  0  0  0  0  0  0  0  0  0  0  0
   20.6614  -19.2090  -15.5860 C   0  0  1  0  0  0  0  0  0  0  0  0
   19.4583  -20.1260  -15.5629 C   0  0  0  0  0  0  0  0  0  0  0  0
   18.7211  -19.8913  -14.2675 C   0  0  0  0  0  0  0  0  0  0  0  0
   17.2687  -19.8226  -14.5412 C   0  0  0  0  0  0  0  0  0  0  0  0
   16.8342  -18.9881  -15.3509 O   0  0  0  0  0  0  0  0  0  0  0  0
   21.9202  -19.9635  -15.3032 C   0  0  0  0  0  0  0  0  0  0  0  0
   21.8775  -21.1070  -14.7910 O   0  0  0  0  0  0  0  0  0  0  0  0
   16.3720  -20.6671  -13.9171 O   0  0  0  0  0  0  0  0  0  0  0  0
   23.2020  -19.4350  -15.5939 N   0  0  0  0  0  0  0  0  0  0  0  0
   24.4529  -20.1005  -15.3787 C   0  0  1  0  0  0  0  0  0  0  0  0
   25.4014  -19.6942  -16.4803 C   0  0  0  0  0  0  0  0  0  0  0  0
   25.3086  -20.5554  -17.6889 C   0  0  0  0  0  0  0  0  0  0  0  0
   26.1841  -20.1618  -18.8321 C   0  0  0  0  0  0  0  0  0  0  0  0
   25.9054  -21.1273  -19.9756 C   0  0  0  0  0  0  0  0  0  0  0  0
   26.7382  -20.8634  -21.1151 N   0  0  0  0  0  0  0  0  0  0  0  0
   25.0428  -19.8380  -14.0609 C   0  0  0  0  0  0  0  0  0  0  0  0
   24.6607  -18.8618  -13.3900 O   0  0  0  0  0  0  0  0  0  0  0  0
   28.7985  -19.8452   -6.3320 O   0  0  0  0  0  0  0  0  0  0  0  0
   28.2454  -20.2249   -7.5351 C   0  0  0  0  0  0  0  0  0  0  0  0
   26.8755  -20.1000   -7.6874 C   0  0  0  0  0  0  0  0  0  0  0  0
   26.3007  -20.4788   -8.8963 C   0  0  0  0  0  0  0  0  0  0  0  0
   27.0194  -20.9737   -9.9557 C   0  0  0  0  0  0  0  0  0  0  0  0
   26.4223  -21.3873  -11.2400 C   0  0  0  0  0  0  0  0  0  0  0  0
   26.7700  -20.4300  -12.3120 C   0  0  2  0  0  0  0  0  0  0  0  0
   26.0424  -20.6867  -13.5486 N   0  0  0  0  0  0  0  0  0  0  0  0
   28.1979  -20.4423  -12.6460 C   0  0  0  0  0  0  0  0  0  0  0  0
   28.6591  -21.2987  -13.4323 O   0  0  0  0  0  0  0  0  0  0  0  0
   28.3953  -21.0814   -9.7560 C   0  0  0  0  0  0  0  0  0  0  0  0
   29.0129  -20.7205   -8.5801 C   0  0  0  0  0  0  0  0  0  0  0  0
   29.0835  -19.5186  -12.1120 O   0  0  0  0  0  0  0  0  0  0  0  0
  2  1  1  6
  3  2  1  0
  3  4  1  0
  5  9  1  0
  5  4  1  0
  6  5  2  0
  7  2  1  0
  7  8  2  0
 10  7  1  0
 11 10  1  0
 11 12  1  6
 13 12  1  0
 13 14  1  0
 14 15  1  0
 16 15  1  0
 17 26  1  0
 17 11  1  0
 18 17  2  0
 19 20  1  0
 20 30  2  0
 20 21  1  0
 21 22  2  0
 22 23  1  0
 23 24  1  0
 25 24  1  1
 25 26  1  0
 25 27  1  0
 27 31  1  0
 28 27  2  0
 29 23  2  0
 30 29  1  0
M  END
$$$$
