EKY.pdb
     RDKit          3D

 31 31  0  0  1  0  0  0  0  0999 V2000
   22.9587  -19.3459  -17.5620 N   0  0  0  0  0  0  0  0  0  0  0  0
   22.2657  -19.8447  -16.4132 C   0  0  1  0  0  0  0  0  0  0  0  0
   21.0512  -20.6443  -16.8308 C   0  0  0  0  0  0  0  0  0  0  0  0
   20.3116  -19.8509  -17.8796 C   0  0  0  0  0  0  0  0  0  0  0  0
   19.0649  -19.3131  -17.2917 C   0  0  0  0  0  0  0  0  0  0  0  0
   18.0149  -19.3317  -17.9534 O   0  0  0  0  0  0  0  0  0  0  0  0
   23.1898  -20.6661  -15.5735 C   0  0  0  0  0  0  0  0  0  0  0  0
   22.7463  -21.3594  -14.6277 O   0  0  0  0  0  0  0  0  0  0  0  0
   19.0330  -18.7854  -16.0160 O   0  0  0  0  0  0  0  0  0  0  0  0
   24.5879  -20.7025  -15.7990 N   0  0  0  0  0  0  0  0  0  0  0  0
   25.5489  -21.4039  -15.0000 C   0  0  1  0  0  0  0  0  0  0  0  0
   26.7621  -21.6824  -15.8540 C   0  0  0  0  0  0  0  0  0  0  0  0
   26.5176  -22.6913  -16.9185 C   0  0  0  0  0  0  0  0  0  0  0  0
   27.6568  -22.9356  -17.8517 C   0  0  0  0  0  0  0  0  0  0  0  0
   27.1823  -23.9290  -18.9031 C   0  0  0  0  0  0  0  0  0  0  0  0
   28.1668  -24.1366  -19.9275 N   0  0  0  0  0  0  0  0  0  0  0  0
   25.9281  -20.6939  -13.7730 C   0  0  0  0  0  0  0  0  0  0  0  0
   26.2180  -19.4843  -13.8169 O   0  0  0  0  0  0  0  0  0  0  0  0
   20.2072  -20.4639  -10.1496 O   0  0  0  0  0  0  0  0  0  0  0  0
   21.5468  -20.2340  -10.3741 C   0  0  0  0  0  0  0  0  0  0  0  0
   22.4045  -20.2862   -9.2893 C   0  0  0  0  0  0  0  0  0  0  0  0
   23.7606  -20.0565   -9.4985 C   0  0  0  0  0  0  0  0  0  0  0  0
   24.3017  -19.7786  -10.7288 C   0  0  0  0  0  0  0  0  0  0  0  0
   25.7360  -19.5247  -10.9640 C   0  0  0  0  0  0  0  0  0  0  0  0
   26.4424  -20.7798  -11.2991 C   0  0  2  0  0  0  0  0  0  0  0  0
   25.9663  -21.3749  -12.5415 N   0  0  0  0  0  0  0  0  0  0  0  0
   26.3109  -21.8034  -10.2572 C   0  0  0  0  0  0  0  0  0  0  0  0
   25.7769  -22.9052  -10.5128 O   0  0  0  0  0  0  0  0  0  0  0  0
   23.3995  -19.7368  -11.7913 C   0  0  0  0  0  0  0  0  0  0  0  0
   22.0495  -19.9566  -11.6378 C   0  0  0  0  0  0  0  0  0  0  0  0
   26.7663  -21.5957   -8.9641 O   0  0  0  0  0  0  0  0  0  0  0  0
  2  1  1  6
  3  2  1  0
  3  4  1  0
  5  9  1  0
  5  4  1  0
  6  5  2  0
  7  2  1  0
  7  8  2  0
 10  7  1  0
 11 10  1  0
 11 12  1  6
 13 12  1  0
 13 14  1  0
 14 15  1  0
 16 15  1  0
 17 26  1  0
 17 11  1  0
 18 17  2  0
 19 20  1  0
 20 30  2  0
 20 21  1  0
 21 22  2  0
 22 23  1  0
 23 24  1  0
 25 24  1  1
 25 26  1  0
 25 27  1  0
 27 31  1  0
 28 27  2  0
 29 23  2  0
 30 29  1  0
M  END
$$$$
