EKY.pdb
     RDKit          3D

 31 31  0  0  1  0  0  0  0  0999 V2000
   30.0233  -24.2065  -17.9300 N   0  0  0  0  0  0  0  0  0  0  0  0
   28.6725  -23.7660  -18.1036 C   0  0  1  0  0  0  0  0  0  0  0  0
   27.7035  -24.8793  -17.7710 C   0  0  0  0  0  0  0  0  0  0  0  0
   28.4967  -26.1532  -17.6146 C   0  0  0  0  0  0  0  0  0  0  0  0
   27.7484  -27.0870  -16.7444 C   0  0  0  0  0  0  0  0  0  0  0  0
   28.2180  -28.2096  -16.4993 O   0  0  0  0  0  0  0  0  0  0  0  0
   28.4151  -22.5577  -17.2625 C   0  0  0  0  0  0  0  0  0  0  0  0
   29.2643  -22.1698  -16.4257 O   0  0  0  0  0  0  0  0  0  0  0  0
   26.5307  -26.7446  -16.1905 O   0  0  0  0  0  0  0  0  0  0  0  0
   27.2206  -21.8029  -17.3659 N   0  0  0  0  0  0  0  0  0  0  0  0
   26.9067  -20.6217  -16.6174 C   0  0  1  0  0  0  0  0  0  0  0  0
   25.9399  -19.7914  -17.4262 C   0  0  0  0  0  0  0  0  0  0  0  0
   26.3426  -18.3653  -17.5482 C   0  0  0  0  0  0  0  0  0  0  0  0
   25.8021  -17.4489  -16.5012 C   0  0  0  0  0  0  0  0  0  0  0  0
   26.3029  -16.0465  -16.8174 C   0  0  0  0  0  0  0  0  0  0  0  0
   25.8089  -15.0769  -15.8806 N   0  0  0  0  0  0  0  0  0  0  0  0
   26.3661  -20.8954  -15.2809 C   0  0  0  0  0  0  0  0  0  0  0  0
   25.4401  -21.7147  -15.1387 O   0  0  0  0  0  0  0  0  0  0  0  0
   25.0642  -20.2337   -6.5929 O   0  0  0  0  0  0  0  0  0  0  0  0
   25.5973  -20.1134   -7.8575 C   0  0  0  0  0  0  0  0  0  0  0  0
   26.3483  -21.1674   -8.3478 C   0  0  0  0  0  0  0  0  0  0  0  0
   26.8938  -21.0622   -9.6233 C   0  0  0  0  0  0  0  0  0  0  0  0
   26.7292  -19.9642  -10.4302 C   0  0  0  0  0  0  0  0  0  0  0  0
   27.3088  -19.8355  -11.7810 C   0  0  0  0  0  0  0  0  0  0  0  0
   26.4311  -20.4662  -12.7901 C   0  0  2  0  0  0  0  0  0  0  0  0
   26.8904  -20.2343  -14.1539 N   0  0  0  0  0  0  0  0  0  0  0  0
   25.0462  -19.9892  -12.7189 C   0  0  0  0  0  0  0  0  0  0  0  0
   24.6921  -18.9695  -13.3506 O   0  0  0  0  0  0  0  0  0  0  0  0
   25.9654  -18.9281   -9.8941 C   0  0  0  0  0  0  0  0  0  0  0  0
   25.4039  -18.9825   -8.6386 C   0  0  0  0  0  0  0  0  0  0  0  0
   24.0853  -20.6392  -11.9593 O   0  0  0  0  0  0  0  0  0  0  0  0
  2  1  1  1
  3  2  1  0
  3  4  1  0
  5  9  1  0
  5  4  1  0
  6  5  2  0
  7  2  1  0
  7  8  2  0
 10  7  1  0
 11 10  1  0
 11 12  1  6
 13 12  1  0
 13 14  1  0
 14 15  1  0
 16 15  1  0
 17 26  1  0
 17 11  1  0
 18 17  2  0
 19 20  1  0
 20 30  2  0
 20 21  1  0
 21 22  2  0
 22 23  1  0
 23 24  1  0
 25 24  1  1
 25 26  1  0
 25 27  1  0
 27 31  1  0
 28 27  2  0
 29 23  2  0
 30 29  1  0
M  END
$$$$
