EKY.pdb
     RDKit          3D

 31 31  0  0  1  0  0  0  0  0999 V2000
   18.2178  -12.2035  -16.2347 N   0  0  0  0  0  0  0  0  0  0  0  0
   17.9467  -11.0330  -17.0126 C   0  0  1  0  0  0  0  0  0  0  0  0
   16.6991  -10.3390  -16.5115 C   0  0  0  0  0  0  0  0  0  0  0  0
   16.4135  -10.8465  -15.1196 C   0  0  0  0  0  0  0  0  0  0  0  0
   15.4208  -11.9410  -15.1964 C   0  0  0  0  0  0  0  0  0  0  0  0
   14.5185  -11.8945  -16.0474 O   0  0  0  0  0  0  0  0  0  0  0  0
   19.1244  -10.1133  -16.9828 C   0  0  0  0  0  0  0  0  0  0  0  0
   19.7438   -9.9040  -15.9130 O   0  0  0  0  0  0  0  0  0  0  0  0
   15.4678  -13.0243  -14.3413 O   0  0  0  0  0  0  0  0  0  0  0  0
   19.5924   -9.4437  -18.1402 N   0  0  0  0  0  0  0  0  0  0  0  0
   20.7670   -8.6265  -18.2197 C   0  0  1  0  0  0  0  0  0  0  0  0
   21.3313   -8.7426  -19.6149 C   0  0  0  0  0  0  0  0  0  0  0  0
   22.5753   -7.9539  -19.8179 C   0  0  0  0  0  0  0  0  0  0  0  0
   23.1472   -7.9915  -21.1962 C   0  0  0  0  0  0  0  0  0  0  0  0
   24.4014   -7.1287  -21.1951 C   0  0  0  0  0  0  0  0  0  0  0  0
   24.9796   -7.0217  -22.5051 N   0  0  0  0  0  0  0  0  0  0  0  0
   20.5340   -7.2210  -17.8680 C   0  0  0  0  0  0  0  0  0  0  0  0
   19.6902   -6.5534  -18.4935 O   0  0  0  0  0  0  0  0  0  0  0  0
   20.5867   -8.3938  -10.8916 O   0  0  0  0  0  0  0  0  0  0  0  0
   20.4321   -7.5791  -11.9916 C   0  0  0  0  0  0  0  0  0  0  0  0
   19.6293   -8.0297  -13.0249 C   0  0  0  0  0  0  0  0  0  0  0  0
   19.4623   -7.2191  -14.1432 C   0  0  0  0  0  0  0  0  0  0  0  0
   20.0530   -5.9881  -14.2825 C   0  0  0  0  0  0  0  0  0  0  0  0
   19.8918   -5.1218  -15.4659 C   0  0  0  0  0  0  0  0  0  0  0  0
   21.0534   -5.2503  -16.3717 C   0  0  2  0  0  0  0  0  0  0  0  0
   21.2618   -6.6205  -16.8231 N   0  0  0  0  0  0  0  0  0  0  0  0
   22.3085   -4.8082  -15.7551 C   0  0  0  0  0  0  0  0  0  0  0  0
   23.2661   -5.6020  -15.6240 O   0  0  0  0  0  0  0  0  0  0  0  0
   20.8523   -5.5762  -13.2166 C   0  0  0  0  0  0  0  0  0  0  0  0
   21.0497   -6.3398  -12.0886 C   0  0  0  0  0  0  0  0  0  0  0  0
   22.4835   -3.5107  -15.2985 O   0  0  0  0  0  0  0  0  0  0  0  0
  2  1  1  1
  3  2  1  0
  3  4  1  0
  5  9  1  0
  5  4  1  0
  6  5  2  0
  7  2  1  0
  7  8  2  0
 10  7  1  0
 11 10  1  0
 11 12  1  6
 13 12  1  0
 13 14  1  0
 14 15  1  0
 16 15  1  0
 17 26  1  0
 17 11  1  0
 18 17  2  0
 19 20  1  0
 20 30  2  0
 20 21  1  0
 21 22  2  0
 22 23  1  0
 23 24  1  0
 25 24  1  1
 25 26  1  0
 25 27  1  0
 27 31  1  0
 28 27  2  0
 29 23  2  0
 30 29  1  0
M  END
$$$$
