EKY.pdb
     RDKit          3D

 31 31  0  0  1  0  0  0  0  0999 V2000
   22.1816  -16.3732  -17.8920 N   0  0  0  0  0  0  0  0  0  0  0  0
   21.5577  -17.6352  -17.6333 C   0  0  1  0  0  0  0  0  0  0  0  0
   20.6019  -17.9944  -18.7497 C   0  0  0  0  0  0  0  0  0  0  0  0
   21.1733  -17.4595  -20.0396 C   0  0  0  0  0  0  0  0  0  0  0  0
   20.2819  -16.4010  -20.5631 C   0  0  0  0  0  0  0  0  0  0  0  0
   19.0628  -16.6145  -20.6575 O   0  0  0  0  0  0  0  0  0  0  0  0
   22.5973  -18.6935  -17.4517 C   0  0  0  0  0  0  0  0  0  0  0  0
   22.2753  -19.8479  -17.0835 O   0  0  0  0  0  0  0  0  0  0  0  0
   20.7695  -15.1696  -20.9543 O   0  0  0  0  0  0  0  0  0  0  0  0
   23.9739  -18.4510  -17.6823 N   0  0  0  0  0  0  0  0  0  0  0  0
   25.0521  -19.3216  -17.3173 C   0  0  1  0  0  0  0  0  0  0  0  0
   26.2034  -19.0711  -18.2609 C   0  0  0  0  0  0  0  0  0  0  0  0
   27.3915  -19.9212  -17.9839 C   0  0  0  0  0  0  0  0  0  0  0  0
   27.3261  -21.3157  -18.5124 C   0  0  0  0  0  0  0  0  0  0  0  0
   28.6575  -21.9856  -18.2025 C   0  0  0  0  0  0  0  0  0  0  0  0
   28.6659  -23.3675  -18.5924 N   0  0  0  0  0  0  0  0  0  0  0  0
   25.4821  -19.1768  -15.9218 C   0  0  0  0  0  0  0  0  0  0  0  0
   25.6595  -18.0437  -15.4385 O   0  0  0  0  0  0  0  0  0  0  0  0
   26.8739  -20.7920   -7.4548 O   0  0  0  0  0  0  0  0  0  0  0  0
   26.6152  -20.9541   -8.7981 C   0  0  0  0  0  0  0  0  0  0  0  0
   25.3033  -20.8417   -9.2243 C   0  0  0  0  0  0  0  0  0  0  0  0
   25.0247  -21.0025  -10.5778 C   0  0  0  0  0  0  0  0  0  0  0  0
   25.9835  -21.2688  -11.5230 C   0  0  0  0  0  0  0  0  0  0  0  0
   25.7015  -21.4501  -12.9598 C   0  0  0  0  0  0  0  0  0  0  0  0
   26.1267  -20.2625  -13.7314 C   0  0  2  0  0  0  0  0  0  0  0  0
   25.6961  -20.3160  -15.1229 N   0  0  0  0  0  0  0  0  0  0  0  0
   27.5818  -20.0803  -13.7412 C   0  0  0  0  0  0  0  0  0  0  0  0
   28.3021  -20.7605  -14.5047 O   0  0  0  0  0  0  0  0  0  0  0  0
   27.2901  -21.3730  -11.0470 C   0  0  0  0  0  0  0  0  0  0  0  0
   27.6186  -21.2224   -9.7189 C   0  0  0  0  0  0  0  0  0  0  0  0
   28.2108  -19.1599  -12.9166 O   0  0  0  0  0  0  0  0  0  0  0  0
  2  1  1  6
  3  2  1  0
  3  4  1  0
  5  9  1  0
  5  4  1  0
  6  5  2  0
  7  2  1  0
  7  8  2  0
 10  7  1  0
 11 10  1  0
 11 12  1  6
 13 12  1  0
 13 14  1  0
 14 15  1  0
 16 15  1  0
 17 26  1  0
 17 11  1  0
 18 17  2  0
 19 20  1  0
 20 30  2  0
 20 21  1  0
 21 22  2  0
 22 23  1  0
 23 24  1  0
 25 24  1  6
 25 26  1  0
 25 27  1  0
 27 31  1  0
 28 27  2  0
 29 23  2  0
 30 29  1  0
M  END
$$$$
