EKY.pdb
     RDKit          3D

 31 31  0  0  1  0  0  0  0  0999 V2000
   20.8954  -15.0473  -17.9253 N   0  0  0  0  0  0  0  0  0  0  0  0
   20.0270  -14.0223  -17.4311 C   0  0  1  0  0  0  0  0  0  0  0  0
   19.8573  -14.1463  -15.9328 C   0  0  0  0  0  0  0  0  0  0  0  0
   18.9010  -15.2826  -15.6669 C   0  0  0  0  0  0  0  0  0  0  0  0
   17.5232  -14.7489  -15.5878 C   0  0  0  0  0  0  0  0  0  0  0  0
   16.7976  -14.7677  -16.5946 O   0  0  0  0  0  0  0  0  0  0  0  0
   20.5584  -12.6761  -17.8042 C   0  0  0  0  0  0  0  0  0  0  0  0
   21.7646  -12.3913  -17.6154 O   0  0  0  0  0  0  0  0  0  0  0  0
   17.0143  -14.2250  -14.4159 O   0  0  0  0  0  0  0  0  0  0  0  0
   19.7414  -11.6719  -18.3797 N   0  0  0  0  0  0  0  0  0  0  0  0
   20.1749  -10.3673  -18.7846 C   0  0  1  0  0  0  0  0  0  0  0  0
   19.2644   -9.8869  -19.8885 C   0  0  0  0  0  0  0  0  0  0  0  0
   19.6687   -8.5755  -20.4608 C   0  0  0  0  0  0  0  0  0  0  0  0
   18.8281   -8.0752  -21.5883 C   0  0  0  0  0  0  0  0  0  0  0  0
   19.4571   -6.7829  -22.0899 C   0  0  0  0  0  0  0  0  0  0  0  0
   18.8033   -6.2911  -23.2699 N   0  0  0  0  0  0  0  0  0  0  0  0
   20.2216   -9.3933  -17.6878 C   0  0  0  0  0  0  0  0  0  0  0  0
   19.3359   -9.3960  -16.8135 O   0  0  0  0  0  0  0  0  0  0  0  0
   22.7108   -2.2232  -13.2284 O   0  0  0  0  0  0  0  0  0  0  0  0
   22.7087   -3.3842  -13.9700 C   0  0  0  0  0  0  0  0  0  0  0  0
   23.0207   -3.2951  -15.3153 C   0  0  0  0  0  0  0  0  0  0  0  0
   23.0232   -4.4582  -16.0787 C   0  0  0  0  0  0  0  0  0  0  0  0
   22.7314   -5.6993  -15.5707 C   0  0  0  0  0  0  0  0  0  0  0  0
   22.7219   -6.9395  -16.3699 C   0  0  0  0  0  0  0  0  0  0  0  0
   21.3363   -7.3893  -16.6232 C   0  0  2  0  0  0  0  0  0  0  0  0
   21.2663   -8.4522  -17.6181 N   0  0  0  0  0  0  0  0  0  0  0  0
   20.4627   -6.3081  -17.0909 C   0  0  0  0  0  0  0  0  0  0  0  0
   19.5900   -5.8250  -16.3363 O   0  0  0  0  0  0  0  0  0  0  0  0
   22.4234   -5.7397  -14.2113 C   0  0  0  0  0  0  0  0  0  0  0  0
   22.4071   -4.6190  -13.4125 C   0  0  0  0  0  0  0  0  0  0  0  0
   20.5661   -5.7840  -18.3705 O   0  0  0  0  0  0  0  0  0  0  0  0
  2  1  1  1
  3  2  1  0
  3  4  1  0
  5  9  1  0
  5  4  1  0
  6  5  2  0
  7  2  1  0
  7  8  2  0
 10  7  1  0
 11 10  1  0
 11 12  1  6
 13 12  1  0
 13 14  1  0
 14 15  1  0
 16 15  1  0
 17 26  1  0
 17 11  1  0
 18 17  2  0
 19 20  1  0
 20 30  2  0
 20 21  1  0
 21 22  2  0
 22 23  1  0
 23 24  1  0
 25 24  1  6
 25 26  1  0
 25 27  1  0
 27 31  1  0
 28 27  2  0
 29 23  2  0
 30 29  1  0
M  END
$$$$
