EKY.pdb
     RDKit          3D

 31 31  0  0  1  0  0  0  0  0999 V2000
   28.4575  -30.7476  -18.3716 N   0  0  0  0  0  0  0  0  0  0  0  0
   28.7393  -31.8638  -17.5210 C   0  0  1  0  0  0  0  0  0  0  0  0
   29.7778  -31.4936  -16.4849 C   0  0  0  0  0  0  0  0  0  0  0  0
   30.3432  -32.7723  -15.9175 C   0  0  0  0  0  0  0  0  0  0  0  0
   31.4626  -33.2285  -16.7709 C   0  0  0  0  0  0  0  0  0  0  0  0
   31.3801  -34.3155  -17.3645 O   0  0  0  0  0  0  0  0  0  0  0  0
   27.4811  -32.3468  -16.8750 C   0  0  0  0  0  0  0  0  0  0  0  0
   26.5283  -31.5594  -16.6655 O   0  0  0  0  0  0  0  0  0  0  0  0
   32.6085  -32.4743  -16.9289 O   0  0  0  0  0  0  0  0  0  0  0  0
   27.3041  -33.6940  -16.4740 N   0  0  0  0  0  0  0  0  0  0  0  0
   26.1470  -34.2298  -15.8199 C   0  0  1  0  0  0  0  0  0  0  0  0
   25.7486  -35.5017  -16.5285 C   0  0  0  0  0  0  0  0  0  0  0  0
   24.6869  -35.3024  -17.5502 C   0  0  0  0  0  0  0  0  0  0  0  0
   23.3972  -34.7478  -17.0429 C   0  0  0  0  0  0  0  0  0  0  0  0
   22.4172  -34.7293  -18.2076 C   0  0  0  0  0  0  0  0  0  0  0  0
   21.7721  -33.4539  -18.3452 N   0  0  0  0  0  0  0  0  0  0  0  0
   26.3382  -34.4715  -14.3851 C   0  0  0  0  0  0  0  0  0  0  0  0
   27.3842  -35.0085  -13.9773 O   0  0  0  0  0  0  0  0  0  0  0  0
   25.7280  -33.3837   -5.7192 O   0  0  0  0  0  0  0  0  0  0  0  0
   25.6050  -33.2616   -7.0859 C   0  0  0  0  0  0  0  0  0  0  0  0
   26.7643  -33.2276   -7.8410 C   0  0  0  0  0  0  0  0  0  0  0  0
   26.6580  -33.1047   -9.2227 C   0  0  0  0  0  0  0  0  0  0  0  0
   25.4598  -33.0142   -9.8860 C   0  0  0  0  0  0  0  0  0  0  0  0
   25.3323  -32.8751  -11.3493 C   0  0  0  0  0  0  0  0  0  0  0  0
   25.5009  -34.1836  -12.0169 C   0  0  2  0  0  0  0  0  0  0  0  0
   25.3418  -34.0982  -13.4633 N   0  0  0  0  0  0  0  0  0  0  0  0
   24.5492  -35.1930  -11.5413 C   0  0  0  0  0  0  0  0  0  0  0  0
   23.3274  -35.0777  -11.7826 O   0  0  0  0  0  0  0  0  0  0  0  0
   24.3197  -33.0530   -9.0841 C   0  0  0  0  0  0  0  0  0  0  0  0
   24.3703  -33.1735   -7.7139 C   0  0  0  0  0  0  0  0  0  0  0  0
   24.9580  -36.3010  -10.8149 O   0  0  0  0  0  0  0  0  0  0  0  0
  2  1  1  1
  3  2  1  0
  3  4  1  0
  5  9  1  0
  5  4  1  0
  6  5  2  0
  7  2  1  0
  7  8  2  0
 10  7  1  0
 11 10  1  0
 11 12  1  6
 13 12  1  0
 13 14  1  0
 14 15  1  0
 16 15  1  0
 17 26  1  0
 17 11  1  0
 18 17  2  0
 19 20  1  0
 20 30  2  0
 20 21  1  0
 21 22  2  0
 22 23  1  0
 23 24  1  0
 25 24  1  1
 25 26  1  0
 25 27  1  0
 27 31  1  0
 28 27  2  0
 29 23  2  0
 30 29  1  0
M  END
$$$$
