EKY.pdb
     RDKit          3D

 31 31  0  0  1  0  0  0  0  0999 V2000
   24.5831  -16.6101  -20.1864 N   0  0  0  0  0  0  0  0  0  0  0  0
   25.1329  -16.8751  -18.8916 C   0  0  1  0  0  0  0  0  0  0  0  0
   24.8337  -15.7347  -17.9435 C   0  0  0  0  0  0  0  0  0  0  0  0
   23.3376  -15.6631  -17.7616 C   0  0  0  0  0  0  0  0  0  0  0  0
   23.0164  -14.5828  -16.8029 C   0  0  0  0  0  0  0  0  0  0  0  0
   23.0508  -13.3994  -17.1756 O   0  0  0  0  0  0  0  0  0  0  0  0
   24.6018  -18.1686  -18.3640 C   0  0  0  0  0  0  0  0  0  0  0  0
   23.3692  -18.3977  -18.3583 O   0  0  0  0  0  0  0  0  0  0  0  0
   22.6759  -14.8535  -15.4923 O   0  0  0  0  0  0  0  0  0  0  0  0
   25.4483  -19.1832  -17.8529 N   0  0  0  0  0  0  0  0  0  0  0  0
   25.0188  -20.4216  -17.2734 C   0  0  1  0  0  0  0  0  0  0  0  0
   26.2129  -21.3401  -17.1797 C   0  0  0  0  0  0  0  0  0  0  0  0
   25.8655  -22.7207  -16.7507 C   0  0  0  0  0  0  0  0  0  0  0  0
   27.0162  -23.6594  -16.5987 C   0  0  0  0  0  0  0  0  0  0  0  0
   26.4642  -24.9799  -16.0800 C   0  0  0  0  0  0  0  0  0  0  0  0
   25.7860  -25.7183  -17.1079 N   0  0  0  0  0  0  0  0  0  0  0  0
   24.3754  -20.2692  -15.9633 C   0  0  0  0  0  0  0  0  0  0  0  0
   24.8203  -19.4465  -15.1422 O   0  0  0  0  0  0  0  0  0  0  0  0
   18.6870  -19.0615   -9.6499 O   0  0  0  0  0  0  0  0  0  0  0  0
   19.4918  -19.1674  -10.7630 C   0  0  0  0  0  0  0  0  0  0  0  0
   20.8630  -19.1479  -10.5762 C   0  0  0  0  0  0  0  0  0  0  0  0
   21.6902  -19.2539  -11.6897 C   0  0  0  0  0  0  0  0  0  0  0  0
   21.2213  -19.3775  -12.9737 C   0  0  0  0  0  0  0  0  0  0  0  0
   22.0865  -19.4822  -14.1643 C   0  0  0  0  0  0  0  0  0  0  0  0
   22.4873  -20.8860  -14.3991 C   0  0  2  0  0  0  0  0  0  0  0  0
   23.2535  -21.0508  -15.6280 N   0  0  0  0  0  0  0  0  0  0  0  0
   21.3427  -21.7989  -14.4837 C   0  0  0  0  0  0  0  0  0  0  0  0
   20.7735  -22.0045  -15.5782 O   0  0  0  0  0  0  0  0  0  0  0  0
   19.8339  -19.3926  -13.1126 C   0  0  0  0  0  0  0  0  0  0  0  0
   18.9722  -19.2911  -12.0441 C   0  0  0  0  0  0  0  0  0  0  0  0
   20.8508  -22.4627  -13.3701 O   0  0  0  0  0  0  0  0  0  0  0  0
  2  1  1  6
  3  2  1  0
  3  4  1  0
  5  9  1  0
  5  4  1  0
  6  5  2  0
  7  2  1  0
  7  8  2  0
 10  7  1  0
 11 10  1  0
 11 12  1  1
 13 12  1  0
 13 14  1  0
 14 15  1  0
 16 15  1  0
 17 26  1  0
 17 11  1  0
 18 17  2  0
 19 20  1  0
 20 30  2  0
 20 21  1  0
 21 22  2  0
 22 23  1  0
 23 24  1  0
 25 24  1  6
 25 26  1  0
 25 27  1  0
 27 31  1  0
 28 27  2  0
 29 23  2  0
 30 29  1  0
M  END
$$$$
