WYG.pdb
     RDKit          3D

 31 33  0  0  1  0  0  0  0  0999 V2000
    6.1495  -18.2715   23.8800 N   0  0  0  0  0  0  0  0  0  0  0  0
    6.6898  -16.9602   24.1265 C   0  0  1  0  0  0  0  0  0  0  0  0
    6.9021  -16.7423   25.5794 C   0  0  0  0  0  0  0  0  0  0  0  0
    6.5214  -15.3560   25.9433 C   0  0  0  0  0  0  0  0  0  0  0  0
    5.2253  -14.8582   26.0968 C   0  0  0  0  0  0  0  0  0  0  0  0
    5.2575  -13.5687   26.4674 N   0  0  0  0  0  0  0  0  0  0  0  0
    6.5471  -13.1929   26.5641 C   0  0  0  0  0  0  0  0  0  0  0  0
    7.1393  -11.9954   26.8948 C   0  0  0  0  0  0  0  0  0  0  0  0
    8.5076  -11.8969   26.9012 C   0  0  0  0  0  0  0  0  0  0  0  0
    9.2939  -12.9799   26.5812 C   0  0  0  0  0  0  0  0  0  0  0  0
    8.7130  -14.1906   26.2470 C   0  0  0  0  0  0  0  0  0  0  0  0
    7.3496  -14.2895   26.2417 C   0  0  0  0  0  0  0  0  0  0  0  0
    7.9702  -16.8313   23.3439 C   0  0  0  0  0  0  0  0  0  0  0  0
    8.5299  -17.8492   22.8629 O   0  0  0  0  0  0  0  0  0  0  0  0
    6.6614  -14.1775   17.0985 O   0  0  0  0  0  0  0  0  0  0  0  0
    7.4818  -14.2029   18.2339 C   0  0  0  0  0  0  0  0  0  0  0  0
    7.3791  -13.1402   19.1196 C   0  0  0  0  0  0  0  0  0  0  0  0
    8.1710  -13.1056   20.2729 C   0  0  0  0  0  0  0  0  0  0  0  0
    9.0426  -14.1283   20.5134 C   0  0  0  0  0  0  0  0  0  0  0  0
    9.8915  -14.1245   21.7179 C   0  0  0  0  0  0  0  0  0  0  0  0
    9.8469  -15.4532   22.3823 C   0  0  2  0  0  0  0  0  0  0  0  0
    8.6046  -15.5829   23.1095 N   0  0  0  0  0  0  0  0  0  0  0  0
   10.9585  -15.7983   23.2427 C   0  0  0  0  0  0  0  0  0  0  0  0
   12.1322  -15.7244   22.7279 O   0  0  0  0  0  0  0  0  0  0  0  0
    9.1372  -15.1703   19.6364 C   0  0  0  0  0  0  0  0  0  0  0  0
    8.3598  -15.2234   18.4856 C   0  0  0  0  0  0  0  0  0  0  0  0
   10.8899  -16.2055   24.5806 N   0  0  0  0  0  0  0  0  0  0  0  0
   12.0712  -16.4607   25.3613 C   0  0  0  0  0  0  0  0  0  0  0  0
   12.5489  -17.8551   25.2284 C   0  0  0  0  0  0  0  0  0  0  0  0
   13.5819  -18.4102   25.9494 O   0  0  0  0  0  0  0  0  0  0  0  0
   11.9545  -18.5787   24.3860 O   0  0  0  0  0  0  0  0  0  0  0  0
  2  1  1  1
  2  3  1  0
  4  3  1  0
  4  5  2  0
  6  5  1  0
  7  6  1  0
  8  7  2  0
  9  8  1  0
 10  9  2  0
 10 11  1  0
 11 12  2  0
 12  7  1  0
 12  4  1  0
 13  2  1  0
 13 14  2  0
 16 26  2  0
 16 15  1  0
 17 16  1  0
 18 19  1  0
 18 17  2  0
 19 25  2  0
 20 19  1  0
 21 20  1  1
 21 22  1  0
 22 13  1  0
 23 21  1  0
 24 23  2  0
 25 26  1  0
 27 23  1  0
 28 27  1  0
 29 28  1  0
 30 29  1  0
 31 29  2  0
M  END
$$$$
