WYG.pdb
     RDKit          3D

 31 33  0  0  1  0  0  0  0  0999 V2000
    6.4424  -18.4266   23.8791 N   0  0  0  0  0  0  0  0  0  0  0  0
    6.8982  -17.0719   24.0505 C   0  0  1  0  0  0  0  0  0  0  0  0
    7.1705  -16.7845   25.4811 C   0  0  0  0  0  0  0  0  0  0  0  0
    6.6802  -15.4281   25.8261 C   0  0  0  0  0  0  0  0  0  0  0  0
    5.3475  -15.0208   25.9231 C   0  0  0  0  0  0  0  0  0  0  0  0
    5.2751  -13.7327   26.2927 N   0  0  0  0  0  0  0  0  0  0  0  0
    6.5305  -13.2692   26.4441 C   0  0  0  0  0  0  0  0  0  0  0  0
    7.0243  -12.0344   26.7979 C   0  0  0  0  0  0  0  0  0  0  0  0
    8.3811  -11.8420   26.8629 C   0  0  0  0  0  0  0  0  0  0  0  0
    9.2529  -12.8680   26.5786 C   0  0  0  0  0  0  0  0  0  0  0  0
    8.7715  -14.1153   26.2217 C   0  0  0  0  0  0  0  0  0  0  0  0
    7.4196  -14.3076   26.1581 C   0  0  0  0  0  0  0  0  0  0  0  0
    8.1227  -16.8826   23.1941 C   0  0  0  0  0  0  0  0  0  0  0  0
    8.6761  -17.8685   22.6441 O   0  0  0  0  0  0  0  0  0  0  0  0
    6.6945  -13.8560   16.7406 O   0  0  0  0  0  0  0  0  0  0  0  0
    7.4314  -13.8531   17.9322 C   0  0  0  0  0  0  0  0  0  0  0  0
    8.1542  -14.9967   18.2386 C   0  0  0  0  0  0  0  0  0  0  0  0
    8.9110  -15.0577   19.4142 C   0  0  0  0  0  0  0  0  0  0  0  0
    8.9280  -13.9801   20.2521 C   0  0  0  0  0  0  0  0  0  0  0  0
    9.7140  -14.0096   21.4981 C   0  0  0  0  0  0  0  0  0  0  0  0
    9.7884  -15.3969   22.0261 C   0  0  2  0  0  0  0  0  0  0  0  0
    8.7095  -15.6103   22.9640 N   0  0  0  0  0  0  0  0  0  0  0  0
   11.0428  -15.8116   22.6172 C   0  0  0  0  0  0  0  0  0  0  0  0
   12.1052  -15.5932   21.9305 O   0  0  0  0  0  0  0  0  0  0  0  0
    8.2137  -12.8586   19.9427 C   0  0  0  0  0  0  0  0  0  0  0  0
    7.4560  -12.7781   18.7804 C   0  0  0  0  0  0  0  0  0  0  0  0
   11.2216  -16.4274   23.8619 N   0  0  0  0  0  0  0  0  0  0  0  0
   12.5148  -16.8630   24.3182 C   0  0  0  0  0  0  0  0  0  0  0  0
   12.4738  -17.4256   25.6864 C   0  0  0  0  0  0  0  0  0  0  0  0
   13.5727  -17.8359   26.4069 O   0  0  0  0  0  0  0  0  0  0  0  0
   11.3381  -17.5315   26.2207 O   0  0  0  0  0  0  0  0  0  0  0  0
  2  1  1  1
  2  3  1  0
  4  3  1  0
  4  5  2  0
  6  5  1  0
  7  6  1  0
  8  7  2  0
  9  8  1  0
 10  9  2  0
 10 11  1  0
 11 12  2  0
 12  7  1  0
 12  4  1  0
 13  2  1  0
 13 14  2  0
 16 26  2  0
 16 15  1  0
 17 16  1  0
 18 19  1  0
 18 17  2  0
 19 25  2  0
 20 19  1  0
 21 20  1  1
 21 22  1  0
 22 13  1  0
 23 21  1  0
 24 23  2  0
 25 26  1  0
 27 23  1  0
 28 27  1  0
 29 28  1  0
 30 29  1  0
 31 29  2  0
M  END
$$$$
