WYG.pdb
     RDKit          3D

 31 33  0  0  1  0  0  0  0  0999 V2000
    7.7922  -17.7170   24.6922 N   0  0  0  0  0  0  0  0  0  0  0  0
    8.3763  -16.7896   23.7590 C   0  0  1  0  0  0  0  0  0  0  0  0
    7.3860  -15.7641   23.3454 C   0  0  0  0  0  0  0  0  0  0  0  0
    6.7508  -15.1631   24.5432 C   0  0  0  0  0  0  0  0  0  0  0  0
    5.9736  -15.8240   25.4973 C   0  0  0  0  0  0  0  0  0  0  0  0
    5.5939  -14.9749   26.4648 N   0  0  0  0  0  0  0  0  0  0  0  0
    6.0996  -13.7601   26.1779 C   0  0  0  0  0  0  0  0  0  0  0  0
    6.0116  -12.5463   26.8205 C   0  0  0  0  0  0  0  0  0  0  0  0
    6.6332  -11.4489   26.2806 C   0  0  0  0  0  0  0  0  0  0  0  0
    7.3424  -11.5474   25.1055 C   0  0  0  0  0  0  0  0  0  0  0  0
    7.4402  -12.7611   24.4482 C   0  0  0  0  0  0  0  0  0  0  0  0
    6.8220  -13.8551   24.9865 C   0  0  0  0  0  0  0  0  0  0  0  0
    9.5861  -16.1742   24.4121 C   0  0  0  0  0  0  0  0  0  0  0  0
    9.5265  -15.0204   24.9081 O   0  0  0  0  0  0  0  0  0  0  0  0
    9.2337  -15.2188   30.3667 O   0  0  0  0  0  0  0  0  0  0  0  0
   10.0830  -15.5440   29.3009 C   0  0  0  0  0  0  0  0  0  0  0  0
   10.1884  -16.8831   28.9543 C   0  0  0  0  0  0  0  0  0  0  0  0
   11.0199  -17.2740   27.8987 C   0  0  0  0  0  0  0  0  0  0  0  0
   11.7232  -16.3229   27.2174 C   0  0  0  0  0  0  0  0  0  0  0  0
   12.6080  -16.6988   26.1006 C   0  0  0  0  0  0  0  0  0  0  0  0
   12.0720  -16.1692   24.8195 C   0  0  2  0  0  0  0  0  0  0  0  0
   10.8342  -16.8450   24.5032 N   0  0  0  0  0  0  0  0  0  0  0  0
   12.9547  -16.1978   23.6729 C   0  0  0  0  0  0  0  0  0  0  0  0
   14.0308  -15.5025   23.7547 O   0  0  0  0  0  0  0  0  0  0  0  0
   11.6136  -15.0073   27.5653 C   0  0  0  0  0  0  0  0  0  0  0  0
   10.7934  -14.5986   28.6102 C   0  0  0  0  0  0  0  0  0  0  0  0
   12.7596  -16.9051   22.4804 N   0  0  0  0  0  0  0  0  0  0  0  0
   13.7430  -16.9148   21.4301 C   0  0  0  0  0  0  0  0  0  0  0  0
   13.3430  -17.7643   20.2862 C   0  0  0  0  0  0  0  0  0  0  0  0
   12.1970  -18.5247   20.2272 O   0  0  0  0  0  0  0  0  0  0  0  0
   14.1216  -17.7831   19.2962 O   0  0  0  0  0  0  0  0  0  0  0  0
  2  1  1  1
  2  3  1  0
  4  3  1  0
  4  5  2  0
  6  5  1  0
  7  6  1  0
  8  7  2  0
  9  8  1  0
 10  9  2  0
 10 11  1  0
 11 12  2  0
 12  7  1  0
 12  4  1  0
 13  2  1  0
 13 14  2  0
 16 26  2  0
 16 15  1  0
 17 16  1  0
 18 19  1  0
 18 17  2  0
 19 25  2  0
 20 19  1  0
 21 20  1  1
 21 22  1  0
 22 13  1  0
 23 21  1  0
 24 23  2  0
 25 26  1  0
 27 23  1  0
 28 27  1  0
 29 28  1  0
 30 29  1  0
 31 29  2  0
M  END
$$$$
