WYG.pdb
     RDKit          3D

 31 33  0  0  1  0  0  0  0  0999 V2000
    8.2437  -17.8139   20.9336 N   0  0  0  0  0  0  0  0  0  0  0  0
    8.4186  -16.5677   21.6325 C   0  0  1  0  0  0  0  0  0  0  0  0
    7.1057  -15.9821   22.0024 C   0  0  0  0  0  0  0  0  0  0  0  0
    7.2959  -14.6106   22.5334 C   0  0  0  0  0  0  0  0  0  0  0  0
    7.7445  -13.4943   21.8235 C   0  0  0  0  0  0  0  0  0  0  0  0
    7.7591  -12.4093   22.6133 N   0  0  0  0  0  0  0  0  0  0  0  0
    7.3308  -12.7758   23.8363 C   0  0  0  0  0  0  0  0  0  0  0  0
    7.1619  -12.0719   25.0068 C   0  0  0  0  0  0  0  0  0  0  0  0
    6.7103  -12.7216   26.1275 C   0  0  0  0  0  0  0  0  0  0  0  0
    6.4248  -14.0674   26.0951 C   0  0  0  0  0  0  0  0  0  0  0  0
    6.5892  -14.7885   24.9256 C   0  0  0  0  0  0  0  0  0  0  0  0
    7.0380  -14.1411   23.8084 C   0  0  0  0  0  0  0  0  0  0  0  0
    9.2796  -16.8299   22.8402 C   0  0  0  0  0  0  0  0  0  0  0  0
    9.1166  -17.8705   23.5269 O   0  0  0  0  0  0  0  0  0  0  0  0
   10.9058  -15.0575   30.9087 O   0  0  0  0  0  0  0  0  0  0  0  0
   10.5484  -15.2751   29.5716 C   0  0  0  0  0  0  0  0  0  0  0  0
   10.4354  -14.1619   28.7518 C   0  0  0  0  0  0  0  0  0  0  0  0
   10.0816  -14.3112   27.4060 C   0  0  0  0  0  0  0  0  0  0  0  0
    9.8501  -15.5631   26.9132 C   0  0  0  0  0  0  0  0  0  0  0  0
    9.4759  -15.7573   25.5012 C   0  0  0  0  0  0  0  0  0  0  0  0
   10.6916  -15.7865   24.6467 C   0  0  2  0  0  0  0  0  0  0  0  0
   10.3005  -15.9387   23.2636 N   0  0  0  0  0  0  0  0  0  0  0  0
   11.7091  -16.7604   24.9799 C   0  0  0  0  0  0  0  0  0  0  0  0
   12.8931  -16.3105   25.1890 O   0  0  0  0  0  0  0  0  0  0  0  0
    9.9636  -16.6532   27.7271 C   0  0  0  0  0  0  0  0  0  0  0  0
   10.3137  -16.5261   29.0661 C   0  0  0  0  0  0  0  0  0  0  0  0
   11.5391  -18.1451   25.0990 N   0  0  0  0  0  0  0  0  0  0  0  0
   12.1331  -18.8966   26.1727 C   0  0  0  0  0  0  0  0  0  0  0  0
   11.7417  -20.3236   26.1509 C   0  0  0  0  0  0  0  0  0  0  0  0
   12.1881  -21.2806   27.0341 O   0  0  0  0  0  0  0  0  0  0  0  0
   10.9367  -20.6756   25.2484 O   0  0  0  0  0  0  0  0  0  0  0  0
  2  1  1  1
  2  3  1  0
  4  3  1  0
  4  5  2  0
  6  5  1  0
  7  6  1  0
  8  7  2  0
  9  8  1  0
 10  9  2  0
 10 11  1  0
 11 12  2  0
 12  7  1  0
 12  4  1  0
 13  2  1  0
 13 14  2  0
 16 26  2  0
 16 15  1  0
 17 16  1  0
 18 19  1  0
 18 17  2  0
 19 25  2  0
 20 19  1  0
 21 20  1  1
 21 22  1  0
 22 13  1  0
 23 21  1  0
 24 23  2  0
 25 26  1  0
 27 23  1  0
 28 27  1  0
 29 28  1  0
 30 29  1  0
 31 29  2  0
M  END
$$$$
