WYG.pdb
     RDKit          3D

 31 33  0  0  1  0  0  0  0  0999 V2000
    9.3223  -16.3493   21.7990 N   0  0  0  0  0  0  0  0  0  0  0  0
    9.1542  -14.9652   22.1573 C   0  0  1  0  0  0  0  0  0  0  0  0
    7.7145  -14.6128   22.2384 C   0  0  0  0  0  0  0  0  0  0  0  0
    7.0853  -14.7483   20.9023 C   0  0  0  0  0  0  0  0  0  0  0  0
    6.0636  -15.6314   20.5454 C   0  0  0  0  0  0  0  0  0  0  0  0
    5.7142  -15.4524   19.2620 N   0  0  0  0  0  0  0  0  0  0  0  0
    6.4808  -14.4693   18.7525 C   0  0  0  0  0  0  0  0  0  0  0  0
    6.5441  -13.9000   17.5012 C   0  0  0  0  0  0  0  0  0  0  0  0
    7.4511  -12.8997   17.2585 C   0  0  0  0  0  0  0  0  0  0  0  0
    8.2974  -12.4597   18.2503 C   0  0  0  0  0  0  0  0  0  0  0  0
    8.2454  -13.0221   19.5136 C   0  0  0  0  0  0  0  0  0  0  0  0
    7.3408  -14.0180   19.7561 C   0  0  0  0  0  0  0  0  0  0  0  0
    9.8657  -14.7347   23.4648 C   0  0  0  0  0  0  0  0  0  0  0  0
    9.7308  -13.6478   24.0822 O   0  0  0  0  0  0  0  0  0  0  0  0
   10.8327  -16.1269   31.7635 O   0  0  0  0  0  0  0  0  0  0  0  0
   10.5611  -16.0305   30.3925 C   0  0  0  0  0  0  0  0  0  0  0  0
   10.6410  -14.7728   29.8128 C   0  0  0  0  0  0  0  0  0  0  0  0
   10.3815  -14.6088   28.4474 C   0  0  0  0  0  0  0  0  0  0  0  0
   10.0500  -15.6997   27.6967 C   0  0  0  0  0  0  0  0  0  0  0  0
    9.7705  -15.5637   26.2562 C   0  0  0  0  0  0  0  0  0  0  0  0
   11.0233  -15.7221   25.4724 C   0  0  2  0  0  0  0  0  0  0  0  0
   10.7099  -15.7079   24.0616 N   0  0  0  0  0  0  0  0  0  0  0  0
   11.8539  -16.8668   25.7801 C   0  0  0  0  0  0  0  0  0  0  0  0
   12.2918  -16.9562   26.9835 O   0  0  0  0  0  0  0  0  0  0  0  0
    9.9737  -16.9339   28.2754 C   0  0  0  0  0  0  0  0  0  0  0  0
   10.2276  -17.1177   29.6294 C   0  0  0  0  0  0  0  0  0  0  0  0
   12.2316  -17.8903   24.9024 N   0  0  0  0  0  0  0  0  0  0  0  0
   13.5089  -18.5454   24.9998 C   0  0  0  0  0  0  0  0  0  0  0  0
   14.5762  -17.8182   24.2773 C   0  0  0  0  0  0  0  0  0  0  0  0
   14.8820  -17.9797   22.9448 O   0  0  0  0  0  0  0  0  0  0  0  0
   15.2492  -16.9900   24.9464 O   0  0  0  0  0  0  0  0  0  0  0  0
  2  1  1  1
  2  3  1  0
  4  3  1  0
  4  5  2  0
  6  5  1  0
  7  6  1  0
  8  7  2  0
  9  8  1  0
 10  9  2  0
 10 11  1  0
 11 12  2  0
 12  7  1  0
 12  4  1  0
 13  2  1  0
 13 14  2  0
 16 26  2  0
 16 15  1  0
 17 16  1  0
 18 19  1  0
 18 17  2  0
 19 25  2  0
 20 19  1  0
 21 20  1  1
 21 22  1  0
 22 13  1  0
 23 21  1  0
 24 23  2  0
 25 26  1  0
 27 23  1  0
 28 27  1  0
 29 28  1  0
 30 29  1  0
 31 29  2  0
M  END
$$$$
