WYG.pdb
     RDKit          3D

 31 33  0  0  1  0  0  0  0  0999 V2000
    6.1954  -18.1380   23.7453 N   0  0  0  0  0  0  0  0  0  0  0  0
    6.8694  -16.8841   23.9589 C   0  0  1  0  0  0  0  0  0  0  0  0
    7.1611  -16.6814   25.4001 C   0  0  0  0  0  0  0  0  0  0  0  0
    6.5932  -15.3887   25.8536 C   0  0  0  0  0  0  0  0  0  0  0  0
    5.2567  -15.1256   26.1630 C   0  0  0  0  0  0  0  0  0  0  0  0
    5.1102  -13.8569   26.5754 N   0  0  0  0  0  0  0  0  0  0  0  0
    6.3198  -13.2653   26.5477 C   0  0  0  0  0  0  0  0  0  0  0  0
    6.7329  -11.9896   26.8573 C   0  0  0  0  0  0  0  0  0  0  0  0
    8.0566  -11.6559   26.7213 C   0  0  0  0  0  0  0  0  0  0  0  0
    8.9749  -12.5805   26.2793 C   0  0  0  0  0  0  0  0  0  0  0  0
    8.5748  -13.8672   25.9645 C   0  0  0  0  0  0  0  0  0  0  0  0
    7.2560  -14.2005   26.1011 C   0  0  0  0  0  0  0  0  0  0  0  0
    8.1231  -16.8831   23.1242 C   0  0  0  0  0  0  0  0  0  0  0  0
    8.5160  -17.9362   22.5607 O   0  0  0  0  0  0  0  0  0  0  0  0
    6.3545  -13.9616   17.2757 O   0  0  0  0  0  0  0  0  0  0  0  0
    7.3178  -14.0954   18.2842 C   0  0  0  0  0  0  0  0  0  0  0  0
    7.3036  -13.1604   19.3088 C   0  0  0  0  0  0  0  0  0  0  0  0
    8.2393  -13.2384   20.3465 C   0  0  0  0  0  0  0  0  0  0  0  0
    9.1628  -14.2436   20.3365 C   0  0  0  0  0  0  0  0  0  0  0  0
   10.1627  -14.3560   21.4131 C   0  0  0  0  0  0  0  0  0  0  0  0
   10.0710  -15.6898   22.0624 C   0  0  2  0  0  0  0  0  0  0  0  0
    8.9154  -15.7211   22.9299 N   0  0  0  0  0  0  0  0  0  0  0  0
   11.2380  -16.1555   22.7809 C   0  0  0  0  0  0  0  0  0  0  0  0
   12.3773  -15.9553   22.2241 O   0  0  0  0  0  0  0  0  0  0  0  0
    9.1697  -15.1596   19.3241 C   0  0  0  0  0  0  0  0  0  0  0  0
    8.2491  -15.0995   18.2847 C   0  0  0  0  0  0  0  0  0  0  0  0
   11.2568  -16.8029   24.0222 N   0  0  0  0  0  0  0  0  0  0  0  0
   12.4858  -17.1981   24.6574 C   0  0  0  0  0  0  0  0  0  0  0  0
   12.2655  -17.8204   25.9819 C   0  0  0  0  0  0  0  0  0  0  0  0
   13.2605  -18.1863   26.8601 O   0  0  0  0  0  0  0  0  0  0  0  0
   11.0693  -18.0251   26.3188 O   0  0  0  0  0  0  0  0  0  0  0  0
  2  1  1  1
  2  3  1  0
  4  3  1  0
  4  5  2  0
  6  5  1  0
  7  6  1  0
  8  7  2  0
  9  8  1  0
 10  9  2  0
 10 11  1  0
 11 12  2  0
 12  7  1  0
 12  4  1  0
 13  2  1  0
 13 14  2  0
 16 26  2  0
 16 15  1  0
 17 16  1  0
 18 19  1  0
 18 17  2  0
 19 25  2  0
 20 19  1  0
 21 20  1  1
 21 22  1  0
 22 13  1  0
 23 21  1  0
 24 23  2  0
 25 26  1  0
 27 23  1  0
 28 27  1  0
 29 28  1  0
 30 29  1  0
 31 29  2  0
M  END
$$$$
