WYG.pdb
     RDKit          3D

 31 33  0  0  1  0  0  0  0  0999 V2000
    8.4398  -16.7856   25.2048 N   0  0  0  0  0  0  0  0  0  0  0  0
    9.4893  -16.2067   24.4076 C   0  0  1  0  0  0  0  0  0  0  0  0
    9.5034  -14.7290   24.5476 C   0  0  0  0  0  0  0  0  0  0  0  0
    8.2616  -14.1555   23.9749 C   0  0  0  0  0  0  0  0  0  0  0  0
    7.0990  -13.8167   24.6712 C   0  0  0  0  0  0  0  0  0  0  0  0
    6.1889  -13.2883   23.8382 N   0  0  0  0  0  0  0  0  0  0  0  0
    6.7174  -13.2670   22.5997 C   0  0  0  0  0  0  0  0  0  0  0  0
    6.2196  -12.8430   21.3887 C   0  0  0  0  0  0  0  0  0  0  0  0
    6.9952  -12.9540   20.2626 C   0  0  0  0  0  0  0  0  0  0  0  0
    8.2634  -13.4839   20.3295 C   0  0  0  0  0  0  0  0  0  0  0  0
    8.7778  -13.9141   21.5399 C   0  0  0  0  0  0  0  0  0  0  0  0
    8.0057  -13.8025   22.6625 C   0  0  0  0  0  0  0  0  0  0  0  0
   10.7934  -16.8263   24.8368 C   0  0  0  0  0  0  0  0  0  0  0  0
   11.2866  -16.5609   25.9625 O   0  0  0  0  0  0  0  0  0  0  0  0
   10.4614  -19.9924   29.8769 O   0  0  0  0  0  0  0  0  0  0  0  0
   11.0835  -19.8878   28.6259 C   0  0  0  0  0  0  0  0  0  0  0  0
   10.2828  -20.0243   27.5014 C   0  0  0  0  0  0  0  0  0  0  0  0
   10.8429  -19.9302   26.2223 C   0  0  0  0  0  0  0  0  0  0  0  0
   12.1832  -19.7032   26.0972 C   0  0  0  0  0  0  0  0  0  0  0  0
   12.8063  -19.5983   24.7659 C   0  0  0  0  0  0  0  0  0  0  0  0
   12.8592  -18.1773   24.3337 C   0  0  2  0  0  0  0  0  0  0  0  0
   11.5241  -17.7243   24.0150 N   0  0  0  0  0  0  0  0  0  0  0  0
   13.7611  -17.8504   23.2499 C   0  0  0  0  0  0  0  0  0  0  0  0
   15.0006  -17.7086   23.5526 O   0  0  0  0  0  0  0  0  0  0  0  0
   12.9638  -19.5702   27.2093 C   0  0  0  0  0  0  0  0  0  0  0  0
   12.4270  -19.6603   28.4880 C   0  0  0  0  0  0  0  0  0  0  0  0
   13.4248  -17.6719   21.9025 N   0  0  0  0  0  0  0  0  0  0  0  0
   14.4058  -17.3132   20.9129 C   0  0  0  0  0  0  0  0  0  0  0  0
   13.8386  -17.2531   19.5474 C   0  0  0  0  0  0  0  0  0  0  0  0
   12.5534  -16.8672   19.2402 O   0  0  0  0  0  0  0  0  0  0  0  0
   14.6030  -17.5836   18.6024 O   0  0  0  0  0  0  0  0  0  0  0  0
  2  1  1  1
  2  3  1  0
  4  3  1  0
  4  5  2  0
  6  5  1  0
  7  6  1  0
  8  7  2  0
  9  8  1  0
 10  9  2  0
 10 11  1  0
 11 12  2  0
 12  7  1  0
 12  4  1  0
 13  2  1  0
 13 14  2  0
 16 26  2  0
 16 15  1  0
 17 16  1  0
 18 19  1  0
 18 17  2  0
 19 25  2  0
 20 19  1  0
 21 20  1  6
 21 22  1  0
 22 13  1  0
 23 21  1  0
 24 23  2  0
 25 26  1  0
 27 23  1  0
 28 27  1  0
 29 28  1  0
 30 29  1  0
 31 29  2  0
M  END
$$$$
