WYG.pdb
     RDKit          3D

 31 33  0  0  1  0  0  0  0  0999 V2000
    7.5818  -17.6951   25.0185 N   0  0  0  0  0  0  0  0  0  0  0  0
    8.1136  -16.8634   23.9709 C   0  0  1  0  0  0  0  0  0  0  0  0
    7.1001  -15.8804   23.5126 C   0  0  0  0  0  0  0  0  0  0  0  0
    6.6466  -15.0521   24.6561 C   0  0  0  0  0  0  0  0  0  0  0  0
    5.9607  -15.4956   25.7892 C   0  0  0  0  0  0  0  0  0  0  0  0
    5.7443  -14.4776   26.6365 N   0  0  0  0  0  0  0  0  0  0  0  0
    6.2699  -13.3625   26.0943 C   0  0  0  0  0  0  0  0  0  0  0  0
    6.3209  -12.0578   26.5292 C   0  0  0  0  0  0  0  0  0  0  0  0
    6.9246  -11.1071   25.7459 C   0  0  0  0  0  0  0  0  0  0  0  0
    7.4789  -11.4422   24.5318 C   0  0  0  0  0  0  0  0  0  0  0  0
    7.4359  -12.7498   24.0812 C   0  0  0  0  0  0  0  0  0  0  0  0
    6.8354  -13.6977   24.8621 C   0  0  0  0  0  0  0  0  0  0  0  0
    9.3542  -16.1905   24.4973 C   0  0  0  0  0  0  0  0  0  0  0  0
    9.3000  -15.0223   24.9588 O   0  0  0  0  0  0  0  0  0  0  0  0
    9.5228  -15.6972   30.5314 O   0  0  0  0  0  0  0  0  0  0  0  0
   10.2886  -15.8878   29.3737 C   0  0  0  0  0  0  0  0  0  0  0  0
   10.4180  -17.1853   28.9004 C   0  0  0  0  0  0  0  0  0  0  0  0
   11.1696  -17.4431   27.7484 C   0  0  0  0  0  0  0  0  0  0  0  0
   11.7715  -16.4039   27.0994 C   0  0  0  0  0  0  0  0  0  0  0  0
   12.5703  -16.6389   25.8836 C   0  0  0  0  0  0  0  0  0  0  0  0
   11.8640  -16.0993   24.6924 C   0  0  2  0  0  0  0  0  0  0  0  0
   10.6263  -16.8211   24.5025 N   0  0  0  0  0  0  0  0  0  0  0  0
   12.6042  -16.0571   23.4494 C   0  0  0  0  0  0  0  0  0  0  0  0
   13.5103  -15.1534   23.3468 O   0  0  0  0  0  0  0  0  0  0  0  0
   11.6390  -15.1300   27.5722 C   0  0  0  0  0  0  0  0  0  0  0  0
   10.8970  -14.8531   28.7143 C   0  0  0  0  0  0  0  0  0  0  0  0
   12.4370  -16.8994   22.3435 N   0  0  0  0  0  0  0  0  0  0  0  0
   13.2840  -16.8122   21.1837 C   0  0  0  0  0  0  0  0  0  0  0  0
   13.0030  -17.8762   20.1944 C   0  0  0  0  0  0  0  0  0  0  0  0
   13.4682  -17.8957   18.8988 O   0  0  0  0  0  0  0  0  0  0  0  0
   12.2805  -18.8324   20.5820 O   0  0  0  0  0  0  0  0  0  0  0  0
  2  1  1  1
  2  3  1  0
  4  3  1  0
  4  5  2  0
  6  5  1  0
  7  6  1  0
  8  7  2  0
  9  8  1  0
 10  9  2  0
 10 11  1  0
 11 12  2  0
 12  7  1  0
 12  4  1  0
 13  2  1  0
 13 14  2  0
 16 26  2  0
 16 15  1  0
 17 16  1  0
 18 19  1  0
 18 17  2  0
 19 25  2  0
 20 19  1  0
 21 20  1  1
 21 22  1  0
 22 13  1  0
 23 21  1  0
 24 23  2  0
 25 26  1  0
 27 23  1  0
 28 27  1  0
 29 28  1  0
 30 29  1  0
 31 29  2  0
M  END
$$$$
