WYG.pdb
     RDKit          3D

 31 33  0  0  1  0  0  0  0  0999 V2000
   10.4053  -16.3984   20.9543 N   0  0  0  0  0  0  0  0  0  0  0  0
    9.7867  -15.8169   22.1169 C   0  0  1  0  0  0  0  0  0  0  0  0
    8.3217  -15.6797   21.9213 C   0  0  0  0  0  0  0  0  0  0  0  0
    7.8528  -14.3969   22.4991 C   0  0  0  0  0  0  0  0  0  0  0  0
    7.9528  -13.1315   21.9158 C   0  0  0  0  0  0  0  0  0  0  0  0
    7.3894  -12.2039   22.7053 N   0  0  0  0  0  0  0  0  0  0  0  0
    6.9154  -12.8212   23.8043 C   0  0  0  0  0  0  0  0  0  0  0  0
    6.2643  -12.3503   24.9215 C   0  0  0  0  0  0  0  0  0  0  0  0
    5.9002  -13.2271   25.9118 C   0  0  0  0  0  0  0  0  0  0  0  0
    6.1783  -14.5703   25.8014 C   0  0  0  0  0  0  0  0  0  0  0  0
    6.8320  -15.0588   24.6839 C   0  0  0  0  0  0  0  0  0  0  0  0
    7.1938  -14.1855   23.6963 C   0  0  0  0  0  0  0  0  0  0  0  0
   10.1186  -16.6850   23.3022 C   0  0  0  0  0  0  0  0  0  0  0  0
   11.2333  -17.2614   23.3794 O   0  0  0  0  0  0  0  0  0  0  0  0
   11.3859  -13.1847   29.8292 O   0  0  0  0  0  0  0  0  0  0  0  0
   10.7414  -14.1753   29.0767 C   0  0  0  0  0  0  0  0  0  0  0  0
    9.8689  -13.7558   28.0832 C   0  0  0  0  0  0  0  0  0  0  0  0
    9.1936  -14.6954   27.2961 C   0  0  0  0  0  0  0  0  0  0  0  0
    9.4046  -16.0256   27.5188 C   0  0  0  0  0  0  0  0  0  0  0  0
    8.7105  -17.0424   26.7089 C   0  0  0  0  0  0  0  0  0  0  0  0
    9.5984  -17.5253   25.6193 C   0  0  2  0  0  0  0  0  0  0  0  0
    9.2137  -16.8981   24.3753 N   0  0  0  0  0  0  0  0  0  0  0  0
    9.7000  -18.9576   25.4369 C   0  0  0  0  0  0  0  0  0  0  0  0
   10.0896  -19.6429   26.4501 O   0  0  0  0  0  0  0  0  0  0  0  0
   10.2650  -16.4297   28.4988 C   0  0  0  0  0  0  0  0  0  0  0  0
   10.9451  -15.5125   29.2911 C   0  0  0  0  0  0  0  0  0  0  0  0
    9.4176  -19.6775   24.2697 N   0  0  0  0  0  0  0  0  0  0  0  0
    9.4221  -21.1161   24.2413 C   0  0  0  0  0  0  0  0  0  0  0  0
   10.7862  -21.6770   24.1204 C   0  0  0  0  0  0  0  0  0  0  0  0
   11.9474  -20.9377   24.1016 O   0  0  0  0  0  0  0  0  0  0  0  0
   10.8765  -22.9299   24.0284 O   0  0  0  0  0  0  0  0  0  0  0  0
  2  1  1  6
  2  3  1  0
  4  3  1  0
  4  5  2  0
  6  5  1  0
  7  6  1  0
  8  7  2  0
  9  8  1  0
 10  9  2  0
 10 11  1  0
 11 12  2  0
 12  7  1  0
 12  4  1  0
 13  2  1  0
 13 14  2  0
 16 26  2  0
 16 15  1  0
 17 16  1  0
 18 19  1  0
 18 17  2  0
 19 25  2  0
 20 19  1  0
 21 20  1  1
 21 22  1  0
 22 13  1  0
 23 21  1  0
 24 23  2  0
 25 26  1  0
 27 23  1  0
 28 27  1  0
 29 28  1  0
 30 29  1  0
 31 29  2  0
M  END
$$$$
