WYG.pdb
     RDKit          3D

 31 33  0  0  1  0  0  0  0  0999 V2000
    9.1758  -17.8567   20.6546 N   0  0  0  0  0  0  0  0  0  0  0  0
    8.7762  -16.7092   21.4264 C   0  0  1  0  0  0  0  0  0  0  0  0
    7.3145  -16.4783   21.3093 C   0  0  0  0  0  0  0  0  0  0  0  0
    6.9132  -15.3365   22.1663 C   0  0  0  0  0  0  0  0  0  0  0  0
    6.1619  -15.3979   23.3424 C   0  0  0  0  0  0  0  0  0  0  0  0
    6.0215  -14.1741   23.8751 N   0  0  0  0  0  0  0  0  0  0  0  0
    6.6618  -13.2954   23.0804 C   0  0  0  0  0  0  0  0  0  0  0  0
    6.8241  -11.9307   23.1525 C   0  0  0  0  0  0  0  0  0  0  0  0
    7.5327  -11.2814   22.1735 C   0  0  0  0  0  0  0  0  0  0  0  0
    8.0821  -11.9777   21.1215 C   0  0  0  0  0  0  0  0  0  0  0  0
    7.9278  -13.3502   21.0355 C   0  0  0  0  0  0  0  0  0  0  0  0
    7.2228  -13.9977   22.0115 C   0  0  0  0  0  0  0  0  0  0  0  0
    9.1981  -16.9402   22.8537 C   0  0  0  0  0  0  0  0  0  0  0  0
    9.4980  -18.0944   23.2521 O   0  0  0  0  0  0  0  0  0  0  0  0
   11.5435  -15.4608   31.1772 O   0  0  0  0  0  0  0  0  0  0  0  0
   11.0720  -15.2783   29.8706 C   0  0  0  0  0  0  0  0  0  0  0  0
   11.9506  -15.5472   28.8315 C   0  0  0  0  0  0  0  0  0  0  0  0
   11.5413  -15.3848   27.5031 C   0  0  0  0  0  0  0  0  0  0  0  0
   10.2699  -14.9597   27.2452 C   0  0  0  0  0  0  0  0  0  0  0  0
    9.8053  -14.7780   25.8586 C   0  0  0  0  0  0  0  0  0  0  0  0
    9.8197  -16.0774   25.1373 C   0  0  2  0  0  0  0  0  0  0  0  0
    9.2794  -15.8934   23.8094 N   0  0  0  0  0  0  0  0  0  0  0  0
    9.1682  -17.1974   25.7823 C   0  0  0  0  0  0  0  0  0  0  0  0
    9.8009  -17.7546   26.7504 O   0  0  0  0  0  0  0  0  0  0  0  0
    9.4117  -14.6973   28.2740 C   0  0  0  0  0  0  0  0  0  0  0  0
    9.7989  -14.8523   29.5997 C   0  0  0  0  0  0  0  0  0  0  0  0
    7.9175  -17.7393   25.4621 N   0  0  0  0  0  0  0  0  0  0  0  0
    7.3276  -18.8024   26.2317 C   0  0  0  0  0  0  0  0  0  0  0  0
    7.8301  -20.1366   25.8347 C   0  0  0  0  0  0  0  0  0  0  0  0
    7.0481  -21.1733   25.3778 O   0  0  0  0  0  0  0  0  0  0  0  0
    9.0722  -20.3238   25.9273 O   0  0  0  0  0  0  0  0  0  0  0  0
  2  1  1  6
  2  3  1  0
  4  3  1  0
  4  5  2  0
  6  5  1  0
  7  6  1  0
  8  7  2  0
  9  8  1  0
 10  9  2  0
 10 11  1  0
 11 12  2  0
 12  7  1  0
 12  4  1  0
 13  2  1  0
 13 14  2  0
 16 26  2  0
 16 15  1  0
 17 16  1  0
 18 19  1  0
 18 17  2  0
 19 25  2  0
 20 19  1  0
 21 20  1  1
 21 22  1  0
 22 13  1  0
 23 21  1  0
 24 23  2  0
 25 26  1  0
 27 23  1  0
 28 27  1  0
 29 28  1  0
 30 29  1  0
 31 29  2  0
M  END
$$$$
