WYG.pdb
     RDKit          3D

 31 33  0  0  1  0  0  0  0  0999 V2000
    7.9374  -18.8070   25.8270 N   0  0  0  0  0  0  0  0  0  0  0  0
    7.2666  -17.5969   25.4299 C   0  0  1  0  0  0  0  0  0  0  0  0
    7.9718  -16.4042   25.9625 C   0  0  0  0  0  0  0  0  0  0  0  0
    7.0067  -15.2977   26.1707 C   0  0  0  0  0  0  0  0  0  0  0  0
    5.6144  -15.4009   26.2180 C   0  0  0  0  0  0  0  0  0  0  0  0
    5.0619  -14.2021   26.4603 N   0  0  0  0  0  0  0  0  0  0  0  0
    6.0544  -13.2991   26.5753 C   0  0  0  0  0  0  0  0  0  0  0  0
    6.0487  -11.9433   26.8113 C   0  0  0  0  0  0  0  0  0  0  0  0
    7.2380  -11.2617   26.8673 C   0  0  0  0  0  0  0  0  0  0  0  0
    8.4350  -11.9170   26.6902 C   0  0  0  0  0  0  0  0  0  0  0  0
    8.4569  -13.2800   26.4525 C   0  0  0  0  0  0  0  0  0  0  0  0
    7.2720  -13.9597   26.3979 C   0  0  0  0  0  0  0  0  0  0  0  0
    7.1892  -17.5814   23.9258 C   0  0  0  0  0  0  0  0  0  0  0  0
    6.0748  -17.5825   23.3436 O   0  0  0  0  0  0  0  0  0  0  0  0
    7.5822  -12.3216   17.5272 O   0  0  0  0  0  0  0  0  0  0  0  0
    7.5539  -13.1548   18.6532 C   0  0  0  0  0  0  0  0  0  0  0  0
    7.7760  -12.5655   19.8892 C   0  0  0  0  0  0  0  0  0  0  0  0
    7.7608  -13.3427   21.0529 C   0  0  0  0  0  0  0  0  0  0  0  0
    7.5252  -14.6837   20.9553 C   0  0  0  0  0  0  0  0  0  0  0  0
    7.5019  -15.5321   22.1599 C   0  0  0  0  0  0  0  0  0  0  0  0
    8.5732  -16.5597   22.0856 C   0  0  2  0  0  0  0  0  0  0  0  0
    8.3424  -17.5653   23.0977 N   0  0  0  0  0  0  0  0  0  0  0  0
    9.9413  -16.0931   22.1590 C   0  0  0  0  0  0  0  0  0  0  0  0
   10.3224  -15.2747   21.2463 O   0  0  0  0  0  0  0  0  0  0  0  0
    7.3075  -15.2555   19.7348 C   0  0  0  0  0  0  0  0  0  0  0  0
    7.3185  -14.5012   18.5675 C   0  0  0  0  0  0  0  0  0  0  0  0
   10.8962  -16.4401   23.1224 N   0  0  0  0  0  0  0  0  0  0  0  0
   12.2179  -15.8713   23.1252 C   0  0  0  0  0  0  0  0  0  0  0  0
   13.1790  -16.6653   22.3278 C   0  0  0  0  0  0  0  0  0  0  0  0
   14.5246  -16.7805   22.5951 O   0  0  0  0  0  0  0  0  0  0  0  0
   12.7157  -17.2781   21.3297 O   0  0  0  0  0  0  0  0  0  0  0  0
  2  1  1  6
  2  3  1  0
  4  3  1  0
  4  5  2  0
  6  5  1  0
  7  6  1  0
  8  7  2  0
  9  8  1  0
 10  9  2  0
 10 11  1  0
 11 12  2  0
 12  7  1  0
 12  4  1  0
 13  2  1  0
 13 14  2  0
 16 26  2  0
 16 15  1  0
 17 16  1  0
 18 19  1  0
 18 17  2  0
 19 25  2  0
 20 19  1  0
 21 20  1  1
 21 22  1  0
 22 13  1  0
 23 21  1  0
 24 23  2  0
 25 26  1  0
 27 23  1  0
 28 27  1  0
 29 28  1  0
 30 29  1  0
 31 29  2  0
M  END
$$$$
