GTG.pdb
     RDKit          3D

 16 15  0  0  1  0  0  0  0  0999 V2000
    1.4311  -23.8881   22.4121 N   0  0  0  0  0  0  0  0  0  0  0  0
    1.3947  -22.4961   22.8106 C   0  0  0  0  0  0  0  0  0  0  0  0
    2.6558  -21.8209   22.3418 C   0  0  0  0  0  0  0  0  0  0  0  0
    3.5593  -22.5076   21.8020 O   0  0  0  0  0  0  0  0  0  0  0  0
    3.0500  -19.3996   19.7859 C   0  0  0  0  0  0  0  0  0  0  0  0
    3.6315  -18.7296   21.0118 C   0  0  1  0  0  0  0  0  0  0  0  0
    2.6821  -17.8655   21.5161 O   0  0  0  0  0  0  0  0  0  0  0  0
    4.0697  -19.7584   22.0431 C   0  0  2  0  0  0  0  0  0  0  0  0
    2.8629  -20.4381   22.4864 N   0  0  0  0  0  0  0  0  0  0  0  0
    4.7779  -19.1182   23.1620 C   0  0  0  0  0  0  0  0  0  0  0  0
    4.0588  -18.6022   24.0841 O   0  0  0  0  0  0  0  0  0  0  0  0
    6.1939  -19.0561   23.2495 N   0  0  0  0  0  0  0  0  0  0  0  0
    6.7608  -18.4941   24.4539 C   0  0  0  0  0  0  0  0  0  0  0  0
    8.2188  -18.4054   24.4212 C   0  0  0  0  0  0  0  0  0  0  0  0
    8.9338  -17.8935   25.4850 O   0  0  0  0  0  0  0  0  0  0  0  0
    8.8458  -18.7993   23.4112 O   0  0  0  0  0  0  0  0  0  0  0  0
  2  1  1  0
  2  3  1  0
  3  4  2  0
  6  5  1  6
  6  8  1  0
  7  6  1  0
  9  3  1  0
  8  9  1  1
 10  8  1  0
 10 12  1  0
 11 10  2  0
 13 12  1  0
 14 13  1  0
 15 14  1  0
 16 14  2  0
M  END
$$$$
