GTG.pdb
     RDKit          3D

 16 15  0  0  1  0  0  0  0  0999 V2000
    4.9668  -19.7427   22.2522 N   0  0  0  0  0  0  0  0  0  0  0  0
    5.1237  -18.5758   23.0959 C   0  0  0  0  0  0  0  0  0  0  0  0
    6.4505  -17.9310   22.7955 C   0  0  0  0  0  0  0  0  0  0  0  0
    7.2676  -18.5214   22.0452 O   0  0  0  0  0  0  0  0  0  0  0  0
    6.9681  -14.4369   21.4846 C   0  0  0  0  0  0  0  0  0  0  0  0
    7.7730  -14.5747   22.7586 C   0  0  1  0  0  0  0  0  0  0  0  0
    7.0595  -13.9828   23.7798 O   0  0  0  0  0  0  0  0  0  0  0  0
    8.0861  -16.0337   23.0543 C   0  0  2  0  0  0  0  0  0  0  0  0
    6.8132  -16.6816   23.3277 N   0  0  0  0  0  0  0  0  0  0  0  0
    9.0158  -16.1567   24.1873 C   0  0  0  0  0  0  0  0  0  0  0  0
   10.2159  -15.7594   23.9983 O   0  0  0  0  0  0  0  0  0  0  0  0
    8.6352  -16.6869   25.4486 N   0  0  0  0  0  0  0  0  0  0  0  0
    9.6543  -16.7677   26.4696 C   0  0  0  0  0  0  0  0  0  0  0  0
    9.6643  -18.0455   27.1782 C   0  0  0  0  0  0  0  0  0  0  0  0
   10.3632  -18.2107   28.3568 O   0  0  0  0  0  0  0  0  0  0  0  0
    9.0284  -19.0206   26.7163 O   0  0  0  0  0  0  0  0  0  0  0  0
  2  1  1  0
  2  3  1  0
  3  4  2  0
  6  5  1  6
  6  8  1  0
  7  6  1  0
  9  3  1  0
  8  9  1  1
 10  8  1  0
 10 12  1  0
 11 10  2  0
 13 12  1  0
 14 13  1  0
 15 14  1  0
 16 14  2  0
M  END
$$$$
