GTG.pdb
     RDKit          3D

 16 15  0  0  1  0  0  0  0  0999 V2000
    3.2710  -18.9349   20.1795 N   0  0  0  0  0  0  0  0  0  0  0  0
    3.4033  -18.1683   21.4013 C   0  0  0  0  0  0  0  0  0  0  0  0
    4.8604  -18.0853   21.7703 C   0  0  0  0  0  0  0  0  0  0  0  0
    5.7096  -18.6925   21.0708 O   0  0  0  0  0  0  0  0  0  0  0  0
    6.9465  -15.8632   21.1699 C   0  0  0  0  0  0  0  0  0  0  0  0
    7.2130  -15.9264   22.6582 C   0  0  1  0  0  0  0  0  0  0  0  0
    6.6130  -14.8322   23.2456 O   0  0  0  0  0  0  0  0  0  0  0  0
    6.7128  -17.2356   23.2497 C   0  0  2  0  0  0  0  0  0  0  0  0
    5.3112  -17.3472   22.8784 N   0  0  0  0  0  0  0  0  0  0  0  0
    6.8947  -17.2610   24.7090 C   0  0  0  0  0  0  0  0  0  0  0  0
    5.9151  -16.8548   25.4225 O   0  0  0  0  0  0  0  0  0  0  0  0
    8.0885  -17.7093   25.3339 N   0  0  0  0  0  0  0  0  0  0  0  0
    8.1292  -17.6908   26.7781 C   0  0  0  0  0  0  0  0  0  0  0  0
    9.4093  -18.1322   27.3272 C   0  0  0  0  0  0  0  0  0  0  0  0
    9.6344  -18.1724   28.6883 O   0  0  0  0  0  0  0  0  0  0  0  0
   10.3312  -18.4846   26.5562 O   0  0  0  0  0  0  0  0  0  0  0  0
  2  1  1  0
  2  3  1  0
  3  4  2  0
  6  5  1  6
  6  8  1  0
  7  6  1  0
  9  3  1  0
  8  9  1  1
 10  8  1  0
 10 12  1  0
 11 10  2  0
 13 12  1  0
 14 13  1  0
 15 14  1  0
 16 14  2  0
M  END
$$$$
