GTG.pdb
     RDKit          3D

 16 15  0  0  1  0  0  0  0  0999 V2000
    8.3539  -14.4691   14.6268 N   0  0  0  0  0  0  0  0  0  0  0  0
    7.9076  -15.1361   15.8325 C   0  0  0  0  0  0  0  0  0  0  0  0
    8.7091  -14.6238   16.9993 C   0  0  0  0  0  0  0  0  0  0  0  0
    9.6986  -13.8786   16.7882 O   0  0  0  0  0  0  0  0  0  0  0  0
    7.3535  -12.7265   19.7094 C   0  0  0  0  0  0  0  0  0  0  0  0
    8.1274  -13.8210   20.4116 C   0  0  1  0  0  0  0  0  0  0  0  0
    7.2205  -14.7383   20.8999 O   0  0  0  0  0  0  0  0  0  0  0  0
    9.1393  -14.4642   19.4754 C   0  0  2  0  0  0  0  0  0  0  0  0
    8.3893  -14.9507   18.3284 N   0  0  0  0  0  0  0  0  0  0  0  0
    9.8700  -15.5481   20.1496 C   0  0  0  0  0  0  0  0  0  0  0  0
    9.3728  -16.7226   20.0651 O   0  0  0  0  0  0  0  0  0  0  0  0
   11.0755  -15.3392   20.8705 N   0  0  0  0  0  0  0  0  0  0  0  0
   11.6678  -16.4858   21.5202 C   0  0  0  0  0  0  0  0  0  0  0  0
   12.9331  -16.1851   22.1859 C   0  0  0  0  0  0  0  0  0  0  0  0
   13.6235  -17.1495   22.8917 O   0  0  0  0  0  0  0  0  0  0  0  0
   13.4130  -15.0299   22.1222 O   0  0  0  0  0  0  0  0  0  0  0  0
  2  1  1  0
  2  3  1  0
  3  4  2  0
  6  5  1  6
  6  8  1  0
  7  6  1  0
  9  3  1  0
  8  9  1  6
 10  8  1  0
 10 12  1  0
 11 10  2  0
 13 12  1  0
 14 13  1  0
 15 14  1  0
 16 14  2  0
M  END
$$$$
