GTG.pdb
     RDKit          3D

 16 15  0  0  1  0  0  0  0  0999 V2000
    6.8902  -17.8977   17.1363 N   0  0  0  0  0  0  0  0  0  0  0  0
    6.5953  -17.6513   18.5328 C   0  0  0  0  0  0  0  0  0  0  0  0
    7.6606  -16.7554   19.1061 C   0  0  0  0  0  0  0  0  0  0  0  0
    8.6474  -16.4376   18.3959 O   0  0  0  0  0  0  0  0  0  0  0  0
    7.1159  -13.4537   20.3900 C   0  0  0  0  0  0  0  0  0  0  0  0
    7.8575  -14.1525   21.5087 C   0  0  1  0  0  0  0  0  0  0  0  0
    6.9432  -14.4764   22.4892 O   0  0  0  0  0  0  0  0  0  0  0  0
    8.5981  -15.3776   20.9942 C   0  0  2  0  0  0  0  0  0  0  0  0
    7.5924  -16.2562   20.4183 N   0  0  0  0  0  0  0  0  0  0  0  0
    9.3451  -16.0378   22.0756 C   0  0  0  0  0  0  0  0  0  0  0  0
    8.6993  -16.8655   22.8048 O   0  0  0  0  0  0  0  0  0  0  0  0
   10.7207  -15.7933   22.3293 N   0  0  0  0  0  0  0  0  0  0  0  0
   11.3315  -16.5103   23.4250 C   0  0  0  0  0  0  0  0  0  0  0  0
   12.7169  -16.1182   23.6733 C   0  0  0  0  0  0  0  0  0  0  0  0
   13.4426  -16.6567   24.7165 O   0  0  0  0  0  0  0  0  0  0  0  0
   13.2700  -15.2755   22.9301 O   0  0  0  0  0  0  0  0  0  0  0  0
  2  1  1  0
  2  3  1  0
  3  4  2  0
  6  5  1  6
  6  8  1  0
  7  6  1  0
  9  3  1  0
  8  9  1  1
 10  8  1  0
 10 12  1  0
 11 10  2  0
 13 12  1  0
 14 13  1  0
 15 14  1  0
 16 14  2  0
M  END
$$$$
