GTG.pdb
     RDKit          3D

 16 15  0  0  1  0  0  0  0  0999 V2000
    8.4364  -15.5523   14.8009 N   0  0  0  0  0  0  0  0  0  0  0  0
    7.7468  -15.6696   16.0692 C   0  0  0  0  0  0  0  0  0  0  0  0
    8.6642  -15.2050   17.1686 C   0  0  0  0  0  0  0  0  0  0  0  0
    9.8359  -14.8500   16.8857 O   0  0  0  0  0  0  0  0  0  0  0  0
    7.6832  -12.5228   19.3568 C   0  0  0  0  0  0  0  0  0  0  0  0
    8.1996  -13.5824   20.3057 C   0  0  1  0  0  0  0  0  0  0  0  0
    7.1130  -14.1803   20.9092 O   0  0  0  0  0  0  0  0  0  0  0  0
    9.0729  -14.5925   19.5769 C   0  0  2  0  0  0  0  0  0  0  0  0
    8.2555  -15.1527   18.5125 N   0  0  0  0  0  0  0  0  0  0  0  0
    9.5598  -15.6323   20.4961 C   0  0  0  0  0  0  0  0  0  0  0  0
    8.8674  -16.7035   20.5788 O   0  0  0  0  0  0  0  0  0  0  0  0
   10.7401  -15.4898   21.2727 N   0  0  0  0  0  0  0  0  0  0  0  0
   11.1551  -16.6251   22.0644 C   0  0  0  0  0  0  0  0  0  0  0  0
   12.2959  -16.3405   22.9318 C   0  0  0  0  0  0  0  0  0  0  0  0
   12.7899  -17.2867   23.8068 O   0  0  0  0  0  0  0  0  0  0  0  0
   12.8469  -15.2166   22.8901 O   0  0  0  0  0  0  0  0  0  0  0  0
  2  1  1  0
  2  3  1  0
  3  4  2  0
  6  5  1  6
  6  8  1  0
  7  6  1  0
  9  3  1  0
  8  9  1  6
 10  8  1  0
 10 12  1  0
 11 10  2  0
 13 12  1  0
 14 13  1  0
 15 14  1  0
 16 14  2  0
M  END
$$$$
