GTG.pdb
     RDKit          3D

 16 15  0  0  1  0  0  0  0  0999 V2000
    9.0609  -15.7142   15.1393 N   0  0  0  0  0  0  0  0  0  0  0  0
    8.2662  -15.8852   16.3381 C   0  0  0  0  0  0  0  0  0  0  0  0
    8.9862  -15.2477   17.4963 C   0  0  0  0  0  0  0  0  0  0  0  0
   10.1738  -14.8644   17.3490 O   0  0  0  0  0  0  0  0  0  0  0  0
    7.5543  -12.4399   19.2834 C   0  0  0  0  0  0  0  0  0  0  0  0
    8.0160  -13.3680   20.3860 C   0  0  1  0  0  0  0  0  0  0  0  0
    6.9016  -13.9731   20.9284 O   0  0  0  0  0  0  0  0  0  0  0  0
    9.0181  -14.3857   19.8623 C   0  0  2  0  0  0  0  0  0  0  0  0
    8.3742  -15.0632   18.7482 N   0  0  0  0  0  0  0  0  0  0  0  0
    9.4161  -15.3288   20.9185 C   0  0  0  0  0  0  0  0  0  0  0  0
    8.9235  -16.5068   20.8596 O   0  0  0  0  0  0  0  0  0  0  0  0
   10.3042  -14.9839   21.9715 N   0  0  0  0  0  0  0  0  0  0  0  0
   10.6553  -16.0238   22.9113 C   0  0  0  0  0  0  0  0  0  0  0  0
   12.0611  -16.4160   22.8428 C   0  0  0  0  0  0  0  0  0  0  0  0
   12.6116  -17.2884   23.7598 O   0  0  0  0  0  0  0  0  0  0  0  0
   12.7938  -15.9574   21.9366 O   0  0  0  0  0  0  0  0  0  0  0  0
  2  1  1  0
  2  3  1  0
  3  4  2  0
  6  5  1  6
  6  8  1  0
  7  6  1  0
  9  3  1  0
  8  9  1  6
 10  8  1  0
 10 12  1  0
 11 10  2  0
 13 12  1  0
 14 13  1  0
 15 14  1  0
 16 14  2  0
M  END
$$$$
