GTG.pdb
     RDKit          3D

 16 15  0  0  1  0  0  0  0  0999 V2000
    8.6856  -17.8816   17.1930 N   0  0  0  0  0  0  0  0  0  0  0  0
    8.0697  -17.5991   18.4732 C   0  0  0  0  0  0  0  0  0  0  0  0
    8.6755  -16.3430   19.0400 C   0  0  0  0  0  0  0  0  0  0  0  0
    9.7398  -15.8938   18.5454 O   0  0  0  0  0  0  0  0  0  0  0  0
    6.9424  -12.9814   19.7905 C   0  0  0  0  0  0  0  0  0  0  0  0
    7.5679  -13.5219   21.0581 C   0  0  1  0  0  0  0  0  0  0  0  0
    6.5728  -14.1195   21.8032 O   0  0  0  0  0  0  0  0  0  0  0  0
    8.7002  -14.4874   20.7424 C   0  0  2  0  0  0  0  0  0  0  0  0
    8.0899  -15.6470   20.1116 N   0  0  0  0  0  0  0  0  0  0  0  0
    9.4387  -14.8539   21.9604 C   0  0  0  0  0  0  0  0  0  0  0  0
   10.0269  -13.9087   22.5883 O   0  0  0  0  0  0  0  0  0  0  0  0
    9.5175  -16.1852   22.4483 N   0  0  0  0  0  0  0  0  0  0  0  0
   10.2217  -16.3958   23.6922 C   0  0  0  0  0  0  0  0  0  0  0  0
   11.5658  -16.9395   23.5121 C   0  0  0  0  0  0  0  0  0  0  0  0
   12.3564  -17.2799   24.5910 O   0  0  0  0  0  0  0  0  0  0  0  0
   12.0227  -17.1054   22.3578 O   0  0  0  0  0  0  0  0  0  0  0  0
  2  1  1  0
  2  3  1  0
  3  4  2  0
  6  5  1  6
  6  8  1  0
  7  6  1  0
  9  3  1  0
  8  9  1  1
 10  8  1  0
 10 12  1  0
 11 10  2  0
 13 12  1  0
 14 13  1  0
 15 14  1  0
 16 14  2  0
M  END
$$$$
