GTG.pdb
     RDKit          3D

 16 15  0  0  1  0  0  0  0  0999 V2000
    7.6016  -17.4375   16.7311 N   0  0  0  0  0  0  0  0  0  0  0  0
    7.0106  -17.0412   17.9927 C   0  0  0  0  0  0  0  0  0  0  0  0
    7.9986  -16.1948   18.7502 C   0  0  0  0  0  0  0  0  0  0  0  0
    9.1761  -16.0904   18.3240 O   0  0  0  0  0  0  0  0  0  0  0  0
    7.4763  -12.7002   19.9937 C   0  0  0  0  0  0  0  0  0  0  0  0
    7.9331  -13.5074   21.1894 C   0  0  1  0  0  0  0  0  0  0  0  0
    6.8338  -13.7468   21.9873 O   0  0  0  0  0  0  0  0  0  0  0  0
    8.6115  -14.7973   20.7535 C   0  0  2  0  0  0  0  0  0  0  0  0
    7.6502  -15.5104   19.9275 N   0  0  0  0  0  0  0  0  0  0  0  0
    9.0298  -15.5948   21.9164 C   0  0  0  0  0  0  0  0  0  0  0  0
    8.1259  -16.2815   22.5039 O   0  0  0  0  0  0  0  0  0  0  0  0
   10.3666  -15.6265   22.3945 N   0  0  0  0  0  0  0  0  0  0  0  0
   10.6460  -16.4769   23.5287 C   0  0  0  0  0  0  0  0  0  0  0  0
   12.0195  -16.3628   24.0138 C   0  0  0  0  0  0  0  0  0  0  0  0
   12.9497  -15.5752   23.3663 O   0  0  0  0  0  0  0  0  0  0  0  0
   12.3735  -16.9888   25.0392 O   0  0  0  0  0  0  0  0  0  0  0  0
  2  1  1  0
  2  3  1  0
  3  4  2  0
  6  5  1  6
  6  8  1  0
  7  6  1  0
  9  3  1  0
  8  9  1  6
 10  8  1  0
 10 12  1  0
 11 10  2  0
 13 12  1  0
 14 13  1  0
 15 14  1  0
 16 14  2  0
M  END
$$$$
