GTG.pdb
     RDKit          3D

 16 15  0  0  1  0  0  0  0  0999 V2000
    2.5204  -25.1429   21.9379 N   0  0  0  0  0  0  0  0  0  0  0  0
    2.5366  -24.0959   22.9386 C   0  0  0  0  0  0  0  0  0  0  0  0
    3.8895  -23.4357   22.9328 C   0  0  0  0  0  0  0  0  0  0  0  0
    4.9088  -24.1202   22.6654 O   0  0  0  0  0  0  0  0  0  0  0  0
    5.0720  -20.7786   20.8349 C   0  0  0  0  0  0  0  0  0  0  0  0
    5.2703  -20.2631   22.2437 C   0  0  1  0  0  0  0  0  0  0  0  0
    4.2326  -19.4017   22.5325 O   0  0  0  0  0  0  0  0  0  0  0  0
    5.3526  -21.4093   23.2405 C   0  0  2  0  0  0  0  0  0  0  0  0
    4.0571  -22.0696   23.2179 N   0  0  0  0  0  0  0  0  0  0  0  0
    5.6919  -20.9185   24.5849 C   0  0  0  0  0  0  0  0  0  0  0  0
    4.7320  -20.4616   25.2946 O   0  0  0  0  0  0  0  0  0  0  0  0
    7.0128  -20.9351   25.1059 N   0  0  0  0  0  0  0  0  0  0  0  0
    7.2057  -20.4216   26.4426 C   0  0  0  0  0  0  0  0  0  0  0  0
    8.5780  -20.5614   26.9244 C   0  0  0  0  0  0  0  0  0  0  0  0
    8.9230  -20.2397   28.2215 O   0  0  0  0  0  0  0  0  0  0  0  0
    9.4708  -20.9814   26.1530 O   0  0  0  0  0  0  0  0  0  0  0  0
  2  1  1  0
  2  3  1  0
  3  4  2  0
  6  5  1  6
  6  8  1  0
  7  6  1  0
  9  3  1  0
  8  9  1  1
 10  8  1  0
 10 12  1  0
 11 10  2  0
 13 12  1  0
 14 13  1  0
 15 14  1  0
 16 14  2  0
M  END
$$$$
