GTG.pdb
     RDKit          3D

 16 15  0  0  1  0  0  0  0  0999 V2000
    7.6545  -16.7507   15.6776 N   0  0  0  0  0  0  0  0  0  0  0  0
    7.1439  -16.7855   17.0326 C   0  0  0  0  0  0  0  0  0  0  0  0
    8.0752  -16.0098   17.9255 C   0  0  0  0  0  0  0  0  0  0  0  0
    9.1572  -15.5737   17.4582 O   0  0  0  0  0  0  0  0  0  0  0  0
    7.2032  -13.0297   19.8177 C   0  0  0  0  0  0  0  0  0  0  0  0
    7.8259  -13.9550   20.8403 C   0  0  1  0  0  0  0  0  0  0  0  0
    6.8099  -14.4969   21.5996 O   0  0  0  0  0  0  0  0  0  0  0  0
    8.6682  -15.0284   20.1676 C   0  0  2  0  0  0  0  0  0  0  0  0
    7.7775  -15.7526   19.2749 N   0  0  0  0  0  0  0  0  0  0  0  0
    9.2856  -15.9182   21.1628 C   0  0  0  0  0  0  0  0  0  0  0  0
    8.6079  -16.9387   21.5276 O   0  0  0  0  0  0  0  0  0  0  0  0
   10.5730  -15.6878   21.7160 N   0  0  0  0  0  0  0  0  0  0  0  0
   11.0554  -16.6370   22.6928 C   0  0  0  0  0  0  0  0  0  0  0  0
   12.3923  -16.3247   23.1928 C   0  0  0  0  0  0  0  0  0  0  0  0
   12.9538  -17.0297   24.2381 O   0  0  0  0  0  0  0  0  0  0  0  0
   13.0541  -15.3990   22.6698 O   0  0  0  0  0  0  0  0  0  0  0  0
  2  1  1  0
  2  3  1  0
  3  4  2  0
  6  5  1  6
  6  8  1  0
  7  6  1  0
  9  3  1  0
  8  9  1  6
 10  8  1  0
 10 12  1  0
 11 10  2  0
 13 12  1  0
 14 13  1  0
 15 14  1  0
 16 14  2  0
M  END
$$$$
