GTG.pdb
     RDKit          3D

 16 15  0  0  1  0  0  0  0  0999 V2000
    6.7815  -18.0594   17.2276 N   0  0  0  0  0  0  0  0  0  0  0  0
    6.5089  -17.4765   18.5252 C   0  0  0  0  0  0  0  0  0  0  0  0
    7.6818  -16.6263   18.9347 C   0  0  0  0  0  0  0  0  0  0  0  0
    8.7244  -16.6343   18.2332 O   0  0  0  0  0  0  0  0  0  0  0  0
    7.4917  -13.0768   19.5325 C   0  0  0  0  0  0  0  0  0  0  0  0
    8.2156  -13.5984   20.7548 C   0  0  1  0  0  0  0  0  0  0  0  0
    7.3331  -13.5766   21.8146 O   0  0  0  0  0  0  0  0  0  0  0  0
    8.7744  -14.9916   20.5082 C   0  0  2  0  0  0  0  0  0  0  0  0
    7.6544  -15.8161   20.0830 N   0  0  0  0  0  0  0  0  0  0  0  0
    9.4173  -15.5261   21.7183 C   0  0  0  0  0  0  0  0  0  0  0  0
    8.6511  -16.0401   22.6030 O   0  0  0  0  0  0  0  0  0  0  0  0
   10.8210  -15.4913   21.9304 N   0  0  0  0  0  0  0  0  0  0  0  0
   11.3213  -16.0642   23.1589 C   0  0  0  0  0  0  0  0  0  0  0  0
   12.7694  -15.9408   23.3080 C   0  0  0  0  0  0  0  0  0  0  0  0
   13.4093  -16.3197   24.4707 O   0  0  0  0  0  0  0  0  0  0  0  0
   13.4572  -15.4825   22.3670 O   0  0  0  0  0  0  0  0  0  0  0  0
  2  1  1  0
  2  3  1  0
  3  4  2  0
  6  5  1  6
  6  8  1  0
  7  6  1  0
  9  3  1  0
  8  9  1  1
 10  8  1  0
 10 12  1  0
 11 10  2  0
 13 12  1  0
 14 13  1  0
 15 14  1  0
 16 14  2  0
M  END
$$$$
