GTG.pdb
     RDKit          3D

 16 15  0  0  1  0  0  0  0  0999 V2000
    8.4091  -14.5196   15.3040 N   0  0  0  0  0  0  0  0  0  0  0  0
    7.8775  -15.2036   16.4648 C   0  0  0  0  0  0  0  0  0  0  0  0
    8.6656  -14.7899   17.6788 C   0  0  0  0  0  0  0  0  0  0  0  0
    9.7346  -14.1462   17.5305 O   0  0  0  0  0  0  0  0  0  0  0  0
    7.2204  -12.8422   20.3345 C   0  0  0  0  0  0  0  0  0  0  0  0
    7.9033  -13.9803   21.0614 C   0  0  1  0  0  0  0  0  0  0  0  0
    6.9309  -14.8673   21.4737 O   0  0  0  0  0  0  0  0  0  0  0  0
    8.9455  -14.6486   20.1775 C   0  0  2  0  0  0  0  0  0  0  0  0
    8.2468  -15.0993   18.9844 N   0  0  0  0  0  0  0  0  0  0  0  0
    9.6002  -15.7625   20.8803 C   0  0  0  0  0  0  0  0  0  0  0  0
    9.0537  -16.9135   20.7785 O   0  0  0  0  0  0  0  0  0  0  0  0
   10.7856  -15.6062   21.6464 N   0  0  0  0  0  0  0  0  0  0  0  0
   11.2856  -16.7705   22.3409 C   0  0  0  0  0  0  0  0  0  0  0  0
   12.5238  -16.5197   23.0750 C   0  0  0  0  0  0  0  0  0  0  0  0
   13.1353  -15.2826   23.0558 O   0  0  0  0  0  0  0  0  0  0  0  0
   13.0522  -17.4397   23.7406 O   0  0  0  0  0  0  0  0  0  0  0  0
  2  1  1  0
  2  3  1  0
  3  4  2  0
  6  5  1  6
  6  8  1  0
  7  6  1  0
  9  3  1  0
  8  9  1  6
 10  8  1  0
 10 12  1  0
 11 10  2  0
 13 12  1  0
 14 13  1  0
 15 14  1  0
 16 14  2  0
M  END
$$$$
