GTG.pdb
     RDKit          3D

 16 15  0  0  1  0  0  0  0  0999 V2000
    9.6277  -26.9160   32.3856 N   0  0  0  0  0  0  0  0  0  0  0  0
    9.6597  -25.4681   32.4081 C   0  0  0  0  0  0  0  0  0  0  0  0
   11.0213  -25.0029   31.9658 C   0  0  0  0  0  0  0  0  0  0  0  0
   11.8946  -25.8532   31.6600 O   0  0  0  0  0  0  0  0  0  0  0  0
   11.4903  -21.0537   30.6890 C   0  0  0  0  0  0  0  0  0  0  0  0
   12.3435  -22.2202   30.2402 C   0  0  1  0  0  0  0  0  0  0  0  0
   13.4964  -21.7135   29.6777 O   0  0  0  0  0  0  0  0  0  0  0  0
   12.6410  -23.1597   31.3991 C   0  0  2  0  0  0  0  0  0  0  0  0
   11.3559  -23.6403   31.8811 N   0  0  0  0  0  0  0  0  0  0  0  0
   13.3986  -22.4730   32.4564 C   0  0  0  0  0  0  0  0  0  0  0  0
   12.7611  -21.6243   33.1685 O   0  0  0  0  0  0  0  0  0  0  0  0
   14.7756  -22.7148   32.7055 N   0  0  0  0  0  0  0  0  0  0  0  0
   15.3719  -22.0489   33.8406 C   0  0  0  0  0  0  0  0  0  0  0  0
   16.1867  -20.8934   33.4721 C   0  0  0  0  0  0  0  0  0  0  0  0
   16.8784  -20.1671   34.4203 O   0  0  0  0  0  0  0  0  0  0  0  0
   16.2678  -20.5438   32.2722 O   0  0  0  0  0  0  0  0  0  0  0  0
  2  1  1  0
  2  3  1  0
  3  4  2  0
  6  5  1  1
  6  8  1  0
  7  6  1  0
  9  3  1  0
  8  9  1  1
 10  8  1  0
 10 12  1  0
 11 10  2  0
 13 12  1  0
 14 13  1  0
 15 14  1  0
 16 14  2  0
M  END
$$$$
