RGR.pdb
     RDKit          3D

 27 26  0  0  1  0  0  0  0  0999 V2000
   31.9768  -23.9464  -12.8521 N   0  0  0  0  0  0  0  0  0  0  0  0
   33.1960  -23.6109  -12.1987 C   0  0  0  0  0  0  0  0  0  0  0  0
   34.3474  -23.9813  -12.6487 N   0  0  0  0  0  0  0  0  0  0  0  0
   33.2180  -22.8299  -10.9849 N   0  0  0  0  0  0  0  0  0  0  0  0
   31.9852  -22.4720  -10.3070 C   0  0  0  0  0  0  0  0  0  0  0  0
   31.4657  -21.1559  -10.7613 C   0  0  0  0  0  0  0  0  0  0  0  0
   30.1768  -20.7207  -10.2062 C   0  0  0  0  0  0  0  0  0  0  0  0
   28.9350  -21.2339  -10.8238 C   0  0  2  0  0  0  0  0  0  0  0  0
   28.9542  -22.6233  -11.1577 N   0  0  0  0  0  0  0  0  0  0  0  0
   28.6569  -20.3917  -12.0317 C   0  0  0  0  0  0  0  0  0  0  0  0
   28.5639  -19.1429  -11.9184 O   0  0  0  0  0  0  0  0  0  0  0  0
   35.2470  -23.7652  -12.1685 N   0  0  0  0  0  0  0  0  0  0  0  0
   28.4862  -20.9292  -13.3376 C   0  0  0  0  0  0  0  0  0  0  0  0
   28.1426  -20.0705  -14.4529 C   0  0  0  0  0  0  0  0  0  0  0  0
   26.7002  -20.0383  -14.7142 O   0  0  0  0  0  0  0  0  0  0  0  0
   25.8961  -20.0948  -13.7567 N   0  0  0  0  0  0  0  0  0  0  0  0
   19.2601  -19.8802  -14.0237 C   0  0  0  0  0  0  0  0  0  0  0  0
   19.5149  -21.2625  -13.9624 N   0  0  0  0  0  0  0  0  0  0  0  0
   18.5646  -22.1451  -13.9813 N   0  0  0  0  0  0  0  0  0  0  0  0
   20.8604  -21.7085  -13.8766 C   0  0  0  0  0  0  0  0  0  0  0  0
   21.9619  -20.7580  -13.7850 C   0  0  0  0  0  0  0  0  0  0  0  0
   22.8191  -20.9284  -15.0028 C   0  0  0  0  0  0  0  0  0  0  0  0
   23.9882  -19.9585  -15.0065 C   0  0  2  0  0  0  0  0  0  0  0  0
   24.7710  -20.0426  -16.2904 N   0  0  0  0  0  0  0  0  0  0  0  0
   26.1858  -19.9447  -16.0291 C   0  0  0  0  0  0  0  0  0  0  0  0
   24.3239  -19.0150  -17.2735 O   0  0  0  0  0  0  0  0  0  0  0  0
   24.7166  -17.8235  -17.2073 O   0  0  0  0  0  0  0  0  0  0  0  0
  2  1  1  0
  3  2  2  0
  4  2  1  0
  5  4  1  0
  6  5  1  0
  7  6  1  0
  8  7  1  0
  8  9  1  6
 10  8  1  0
 11 10  2  0
 12 10  1  0
 13 12  1  0
 14 13  1  0
 14 15  2  0
 17 16  1  0
 17 18  2  0
 19 17  1  0
 20 19  1  0
 21 20  1  0
 23 22  1  1
 22 21  1  0
 23 24  1  0
 24 14  1  0
 25 23  1  0
 26 25  2  0
 27 25  1  0
M  END
$$$$
