RGR.pdb
     RDKit          3D

 27 26  0  0  1  0  0  0  0  0999 V2000
   18.0860  -24.3809   -6.2701 N   0  0  0  0  0  0  0  0  0  0  0  0
   17.5033  -24.8525   -7.4801 C   0  0  0  0  0  0  0  0  0  0  0  0
   16.2623  -25.1966   -7.5627 N   0  0  0  0  0  0  0  0  0  0  0  0
   18.2709  -24.9744   -8.6965 N   0  0  0  0  0  0  0  0  0  0  0  0
   19.2883  -23.9963   -9.0364 C   0  0  0  0  0  0  0  0  0  0  0  0
   18.9147  -23.2029  -10.2360 C   0  0  0  0  0  0  0  0  0  0  0  0
   19.8842  -22.2017  -10.7012 C   0  0  0  0  0  0  0  0  0  0  0  0
   20.7135  -21.5040   -9.6949 C   0  0  2  0  0  0  0  0  0  0  0  0
   20.2487  -20.2048   -9.3228 N   0  0  0  0  0  0  0  0  0  0  0  0
   22.1109  -21.4443  -10.2330 C   0  0  0  0  0  0  0  0  0  0  0  0
   22.6001  -22.4420  -10.8216 O   0  0  0  0  0  0  0  0  0  0  0  0
   15.8327  -25.5896   -8.4274 N   0  0  0  0  0  0  0  0  0  0  0  0
   22.9452  -20.2980  -10.1177 C   0  0  0  0  0  0  0  0  0  0  0  0
   24.3080  -20.3213  -10.6091 C   0  0  0  0  0  0  0  0  0  0  0  0
   24.4169  -19.8352  -11.9881 O   0  0  0  0  0  0  0  0  0  0  0  0
   23.3785  -19.5753  -12.6368 N   0  0  0  0  0  0  0  0  0  0  0  0
   28.6209  -16.2198  -17.8577 C   0  0  0  0  0  0  0  0  0  0  0  0
   27.3603  -15.6146  -17.7033 N   0  0  0  0  0  0  0  0  0  0  0  0
   27.1108  -14.4131  -18.1236 N   0  0  0  0  0  0  0  0  0  0  0  0
   26.3230  -16.3443  -17.0645 C   0  0  0  0  0  0  0  0  0  0  0  0
   26.4109  -16.6933  -15.6518 C   0  0  0  0  0  0  0  0  0  0  0  0
   27.3009  -17.8931  -15.5288 C   0  0  0  0  0  0  0  0  0  0  0  0
   27.1746  -18.5481  -14.1641 C   0  0  2  0  0  0  0  0  0  0  0  0
   25.7789  -19.0610  -13.9251 N   0  0  0  0  0  0  0  0  0  0  0  0
   25.6728  -19.6501  -12.6131 C   0  0  0  0  0  0  0  0  0  0  0  0
   25.3557  -20.0155  -14.9892 O   0  0  0  0  0  0  0  0  0  0  0  0
   25.4794  -21.2578  -14.8484 O   0  0  0  0  0  0  0  0  0  0  0  0
  2  1  1  0
  3  2  2  0
  4  2  1  0
  5  4  1  0
  6  5  1  0
  7  6  1  0
  8  7  1  0
  8  9  1  6
 10  8  1  0
 11 10  2  0
 12 10  1  0
 13 12  1  0
 14 13  1  0
 14 15  2  0
 17 16  1  0
 17 18  2  0
 19 17  1  0
 20 19  1  0
 21 20  1  0
 23 22  1  1
 22 21  1  0
 23 24  1  0
 24 14  1  0
 25 23  1  0
 26 25  2  0
 27 25  1  0
M  END
$$$$
