RGR.pdb
     RDKit          3D

 27 26  0  0  1  0  0  0  0  0999 V2000
   17.3526  -27.3615   -4.4482 N   0  0  0  0  0  0  0  0  0  0  0  0
   16.5869  -26.1712   -4.2977 C   0  0  0  0  0  0  0  0  0  0  0  0
   15.6025  -26.0814   -3.4681 N   0  0  0  0  0  0  0  0  0  0  0  0
   16.8679  -24.9839   -5.0692 N   0  0  0  0  0  0  0  0  0  0  0  0
   16.9636  -25.0415   -6.5165 C   0  0  0  0  0  0  0  0  0  0  0  0
   18.3760  -25.0407   -6.9785 C   0  0  0  0  0  0  0  0  0  0  0  0
   18.8084  -23.9007   -7.7983 C   0  0  0  0  0  0  0  0  0  0  0  0
   18.1425  -23.6766   -9.0996 C   0  0  2  0  0  0  0  0  0  0  0  0
   18.0484  -24.8300   -9.9381 N   0  0  0  0  0  0  0  0  0  0  0  0
   18.8744  -22.5655   -9.7892 C   0  0  0  0  0  0  0  0  0  0  0  0
   19.0314  -21.4616   -9.2080 O   0  0  0  0  0  0  0  0  0  0  0  0
   15.0415  -25.2128   -3.3359 N   0  0  0  0  0  0  0  0  0  0  0  0
   19.4195  -22.6818  -11.0978 C   0  0  0  0  0  0  0  0  0  0  0  0
   20.4790  -21.7979  -11.5402 C   0  0  0  0  0  0  0  0  0  0  0  0
   20.1638  -21.1331  -12.8084 O   0  0  0  0  0  0  0  0  0  0  0  0
   19.0887  -21.3940  -13.3938 N   0  0  0  0  0  0  0  0  0  0  0  0
   25.9904  -22.0351  -13.2282 C   0  0  0  0  0  0  0  0  0  0  0  0
   25.5679  -22.2556  -14.5519 N   0  0  0  0  0  0  0  0  0  0  0  0
   25.9540  -23.2839  -15.2418 N   0  0  0  0  0  0  0  0  0  0  0  0
   24.6871  -21.3193  -15.1554 C   0  0  0  0  0  0  0  0  0  0  0  0
   23.9195  -20.3810  -14.3458 C   0  0  0  0  0  0  0  0  0  0  0  0
   23.1996  -19.4522  -15.2764 C   0  0  0  0  0  0  0  0  0  0  0  0
   21.8412  -20.0013  -15.6776 C   0  0  2  0  0  0  0  0  0  0  0  0
   20.7751  -19.6147  -14.6865 N   0  0  0  0  0  0  0  0  0  0  0  0
   21.0476  -20.1969  -13.3956 C   0  0  0  0  0  0  0  0  0  0  0  0
   19.4145  -19.9788  -15.1747 O   0  0  0  0  0  0  0  0  0  0  0  0
   18.5349  -19.1075  -15.3881 O   0  0  0  0  0  0  0  0  0  0  0  0
  2  1  1  0
  3  2  2  0
  4  2  1  0
  5  4  1  0
  6  5  1  0
  7  6  1  0
  8  7  1  0
  8  9  1  6
 10  8  1  0
 11 10  2  0
 12 10  1  0
 13 12  1  0
 14 13  1  0
 14 15  2  0
 17 16  1  0
 17 18  2  0
 19 17  1  0
 20 19  1  0
 21 20  1  0
 23 22  1  1
 22 21  1  0
 23 24  1  0
 24 14  1  0
 25 23  1  0
 26 25  2  0
 27 25  1  0
M  END
$$$$
