RGR.pdb
     RDKit          3D

 27 26  0  0  1  0  0  0  0  0999 V2000
   28.3723  -25.4301  -17.3499 N   0  0  0  0  0  0  0  0  0  0  0  0
   27.3617  -24.7453  -18.0816 C   0  0  0  0  0  0  0  0  0  0  0  0
   26.9916  -25.1135  -19.2618 N   0  0  0  0  0  0  0  0  0  0  0  0
   26.6844  -23.5897  -17.5433 N   0  0  0  0  0  0  0  0  0  0  0  0
   26.9653  -23.1211  -16.1985 C   0  0  0  0  0  0  0  0  0  0  0  0
   26.2164  -21.8783  -15.8776 C   0  0  0  0  0  0  0  0  0  0  0  0
   24.7504  -21.9723  -15.8493 C   0  0  0  0  0  0  0  0  0  0  0  0
   23.9703  -20.7393  -15.6083 C   0  0  2  0  0  0  0  0  0  0  0  0
   24.7322  -19.5302  -15.6130 N   0  0  0  0  0  0  0  0  0  0  0  0
   23.2466  -20.9169  -14.3081 C   0  0  0  0  0  0  0  0  0  0  0  0
   23.5774  -20.2319  -13.3069 O   0  0  0  0  0  0  0  0  0  0  0  0
   26.3339  -24.5629  -19.8542 N   0  0  0  0  0  0  0  0  0  0  0  0
   22.1775  -21.8376  -14.1274 C   0  0  0  0  0  0  0  0  0  0  0  0
   21.4154  -21.8552  -12.8952 C   0  0  0  0  0  0  0  0  0  0  0  0
   20.3704  -22.8837  -12.8950 O   0  0  0  0  0  0  0  0  0  0  0  0
   20.2513  -23.6455  -13.8809 N   0  0  0  0  0  0  0  0  0  0  0  0
   18.3246  -24.4872   -5.3284 C   0  0  0  0  0  0  0  0  0  0  0  0
   17.4252  -24.2356   -6.3805 N   0  0  0  0  0  0  0  0  0  0  0  0
   16.1657  -24.0025   -6.1763 N   0  0  0  0  0  0  0  0  0  0  0  0
   17.9126  -24.2368   -7.7142 C   0  0  0  0  0  0  0  0  0  0  0  0
   18.8449  -25.2598   -8.1718 C   0  0  0  0  0  0  0  0  0  0  0  0
   19.2455  -24.9221   -9.5763 C   0  0  0  0  0  0  0  0  0  0  0  0
   18.0687  -24.4078  -10.3873 C   0  0  2  0  0  0  0  0  0  0  0  0
   18.4753  -24.0718  -11.7981 N   0  0  0  0  0  0  0  0  0  0  0  0
   19.4842  -23.0414  -11.8032 C   0  0  0  0  0  0  0  0  0  0  0  0
   17.2997  -23.6906  -12.6316 O   0  0  0  0  0  0  0  0  0  0  0  0
   16.4488  -24.5386  -12.9994 O   0  0  0  0  0  0  0  0  0  0  0  0
  2  1  1  0
  3  2  2  0
  4  2  1  0
  5  4  1  0
  6  5  1  0
  7  6  1  0
  8  7  1  0
  8  9  1  1
 10  8  1  0
 11 10  2  0
 12 10  1  0
 13 12  1  0
 14 13  1  0
 14 15  2  0
 17 16  1  0
 17 18  2  0
 19 17  1  0
 20 19  1  0
 21 20  1  0
 23 22  1  1
 22 21  1  0
 23 24  1  0
 24 14  1  0
 25 23  1  0
 26 25  2  0
 27 25  1  0
M  END
$$$$
