RGR.pdb
     RDKit          3D

 27 26  0  0  1  0  0  0  0  0999 V2000
   28.6096  -20.9587  -14.3188 N   0  0  0  0  0  0  0  0  0  0  0  0
   27.5764  -19.9822  -14.3885 C   0  0  0  0  0  0  0  0  0  0  0  0
   27.1012  -19.5560  -15.5101 N   0  0  0  0  0  0  0  0  0  0  0  0
   26.9934  -19.4062  -13.2002 N   0  0  0  0  0  0  0  0  0  0  0  0
   27.3395  -19.9075  -11.8826 C   0  0  0  0  0  0  0  0  0  0  0  0
   26.4946  -21.0657  -11.4914 C   0  0  0  0  0  0  0  0  0  0  0  0
   25.1538  -20.7664  -10.9704 C   0  0  0  0  0  0  0  0  0  0  0  0
   23.9835  -21.3487  -11.6621 C   0  0  2  0  0  0  0  0  0  0  0  0
   24.2120  -21.7330  -13.0194 N   0  0  0  0  0  0  0  0  0  0  0  0
   22.8669  -20.3541  -11.5628 C   0  0  0  0  0  0  0  0  0  0  0  0
   22.2343  -20.2262  -10.4836 O   0  0  0  0  0  0  0  0  0  0  0  0
   26.3024  -18.8898  -15.5780 N   0  0  0  0  0  0  0  0  0  0  0  0
   22.4638  -19.5203  -12.6423 C   0  0  0  0  0  0  0  0  0  0  0  0
   21.9441  -20.0939  -13.8672 C   0  0  0  0  0  0  0  0  0  0  0  0
   22.8068  -19.8286  -15.0227 O   0  0  0  0  0  0  0  0  0  0  0  0
   23.7780  -19.0481  -14.9039 N   0  0  0  0  0  0  0  0  0  0  0  0
   22.4543  -25.9553  -12.8781 C   0  0  0  0  0  0  0  0  0  0  0  0
   22.0688  -26.4865  -14.1225 N   0  0  0  0  0  0  0  0  0  0  0  0
   21.6173  -27.6956  -14.2513 N   0  0  0  0  0  0  0  0  0  0  0  0
   22.1777  -25.6706  -15.2796 C   0  0  0  0  0  0  0  0  0  0  0  0
   23.3230  -24.7895  -15.4719 C   0  0  0  0  0  0  0  0  0  0  0  0
   22.8020  -23.4142  -15.7617 C   0  0  0  0  0  0  0  0  0  0  0  0
   23.9300  -22.4120  -15.9369 C   0  0  1  0  0  0  0  0  0  0  0  0
   23.5450  -21.3080  -16.8862 N   0  0  0  0  0  0  0  0  0  0  0  0
   22.5713  -20.4342  -16.2797 C   0  0  0  0  0  0  0  0  0  0  0  0
   23.0592  -21.8486  -18.1878 O   0  0  0  0  0  0  0  0  0  0  0  0
   23.8450  -22.3584  -19.0251 O   0  0  0  0  0  0  0  0  0  0  0  0
  2  1  1  0
  3  2  2  0
  4  2  1  0
  5  4  1  0
  6  5  1  0
  7  6  1  0
  8  7  1  0
  8  9  1  6
 10  8  1  0
 11 10  2  0
 12 10  1  0
 13 12  1  0
 14 13  1  0
 14 15  2  0
 17 16  1  0
 17 18  2  0
 19 17  1  0
 20 19  1  0
 21 20  1  0
 23 22  1  1
 22 21  1  0
 23 24  1  0
 24 14  1  0
 25 23  1  0
 26 25  2  0
 27 25  1  0
M  END
$$$$
