RGR.pdb
     RDKit          3D

 27 26  0  0  1  0  0  0  0  0999 V2000
   28.6051  -24.5799  -18.3391 N   0  0  0  0  0  0  0  0  0  0  0  0
   27.6118  -25.0133  -17.4164 C   0  0  0  0  0  0  0  0  0  0  0  0
   27.9041  -25.4391  -16.2338 N   0  0  0  0  0  0  0  0  0  0  0  0
   26.2074  -25.0017  -17.7501 N   0  0  0  0  0  0  0  0  0  0  0  0
   25.7395  -24.3920  -18.9816 C   0  0  0  0  0  0  0  0  0  0  0  0
   26.3540  -23.0579  -19.2071 C   0  0  0  0  0  0  0  0  0  0  0  0
   25.8316  -22.2646  -20.3280 C   0  0  0  0  0  0  0  0  0  0  0  0
   26.3950  -20.9170  -20.5597 C   0  0  2  0  0  0  0  0  0  0  0  0
   27.8195  -20.8656  -20.6618 N   0  0  0  0  0  0  0  0  0  0  0  0
   25.9000  -20.0314  -19.4568 C   0  0  0  0  0  0  0  0  0  0  0  0
   26.5906  -19.0496  -19.0822 O   0  0  0  0  0  0  0  0  0  0  0  0
   27.1930  -25.7997  -15.5623 N   0  0  0  0  0  0  0  0  0  0  0  0
   24.6624  -20.2352  -18.7858 C   0  0  0  0  0  0  0  0  0  0  0  0
   24.2314  -19.3335  -17.7367 C   0  0  0  0  0  0  0  0  0  0  0  0
   22.8938  -19.6575  -17.2311 O   0  0  0  0  0  0  0  0  0  0  0  0
   22.2192  -20.5501  -17.7923 N   0  0  0  0  0  0  0  0  0  0  0  0
   23.3993  -20.4688   -9.3033 C   0  0  0  0  0  0  0  0  0  0  0  0
   24.0995  -21.1833  -10.2925 N   0  0  0  0  0  0  0  0  0  0  0  0
   25.1057  -21.9524  -10.0121 N   0  0  0  0  0  0  0  0  0  0  0  0
   23.6910  -21.0587  -11.6468 C   0  0  0  0  0  0  0  0  0  0  0  0
   22.5597  -20.2163  -12.0151 C   0  0  0  0  0  0  0  0  0  0  0  0
   22.4383  -20.2365  -13.5091 C   0  0  0  0  0  0  0  0  0  0  0  0
   21.2600  -19.4058  -13.9877 C   0  0  2  0  0  0  0  0  0  0  0  0
   21.1269  -19.4493  -15.4873 N   0  0  0  0  0  0  0  0  0  0  0  0
   22.3378  -18.9845  -16.1175 C   0  0  0  0  0  0  0  0  0  0  0  0
   19.9375  -18.6819  -15.9547 O   0  0  0  0  0  0  0  0  0  0  0  0
   20.0463  -17.5303  -16.4452 O   0  0  0  0  0  0  0  0  0  0  0  0
  2  1  1  0
  3  2  2  0
  4  2  1  0
  5  4  1  0
  6  5  1  0
  7  6  1  0
  8  7  1  0
  8  9  1  1
 10  8  1  0
 11 10  2  0
 12 10  1  0
 13 12  1  0
 14 13  1  0
 14 15  2  0
 17 16  1  0
 17 18  2  0
 19 17  1  0
 20 19  1  0
 21 20  1  0
 23 22  1  6
 22 21  1  0
 23 24  1  0
 24 14  1  0
 25 23  1  0
 26 25  2  0
 27 25  1  0
M  END
$$$$
