RGR.pdb
     RDKit          3D

 27 26  0  0  1  0  0  0  0  0999 V2000
   26.2810  -17.6295  -23.5345 N   0  0  0  0  0  0  0  0  0  0  0  0
   25.6150  -17.6485  -22.2768 C   0  0  0  0  0  0  0  0  0  0  0  0
   24.3626  -17.9377  -22.1608 N   0  0  0  0  0  0  0  0  0  0  0  0
   26.3055  -17.3439  -21.0463 N   0  0  0  0  0  0  0  0  0  0  0  0
   27.6854  -16.8937  -21.0584 C   0  0  0  0  0  0  0  0  0  0  0  0
   28.6259  -17.9998  -21.3756 C   0  0  0  0  0  0  0  0  0  0  0  0
   29.3891  -18.5673  -20.2557 C   0  0  0  0  0  0  0  0  0  0  0  0
   28.7880  -19.6769  -19.4846 C   0  0  2  0  0  0  0  0  0  0  0  0
   27.5135  -20.1204  -19.9551 N   0  0  0  0  0  0  0  0  0  0  0  0
   28.7124  -19.2359  -18.0544 C   0  0  0  0  0  0  0  0  0  0  0  0
   29.7652  -18.9496  -17.4293 O   0  0  0  0  0  0  0  0  0  0  0  0
   23.8583  -17.9460  -21.2486 N   0  0  0  0  0  0  0  0  0  0  0  0
   27.4905  -19.1166  -17.3362 C   0  0  0  0  0  0  0  0  0  0  0  0
   27.4797  -18.6471  -15.9655 C   0  0  0  0  0  0  0  0  0  0  0  0
   26.9429  -19.6439  -15.0338 O   0  0  0  0  0  0  0  0  0  0  0  0
   26.4824  -20.7203  -15.4765 N   0  0  0  0  0  0  0  0  0  0  0  0
   25.1657  -19.7618   -6.1691 C   0  0  0  0  0  0  0  0  0  0  0  0
   24.5220  -20.8383   -6.8063 N   0  0  0  0  0  0  0  0  0  0  0  0
   23.5962  -21.5362   -6.2247 N   0  0  0  0  0  0  0  0  0  0  0  0
   24.8987  -21.1739   -8.1337 C   0  0  0  0  0  0  0  0  0  0  0  0
   25.5284  -20.1907   -9.0066 C   0  0  0  0  0  0  0  0  0  0  0  0
   25.7418  -20.8328  -10.3442 C   0  0  0  0  0  0  0  0  0  0  0  0
   26.4541  -19.8991  -11.3077 C   0  0  1  0  0  0  0  0  0  0  0  0
   26.2921  -20.3509  -12.7353 N   0  0  0  0  0  0  0  0  0  0  0  0
   26.9294  -19.4226  -13.6363 C   0  0  0  0  0  0  0  0  0  0  0  0
   24.8579  -20.5565  -13.0860 O   0  0  0  0  0  0  0  0  0  0  0  0
   24.1623  -19.6371  -13.5851 O   0  0  0  0  0  0  0  0  0  0  0  0
  2  1  1  0
  3  2  2  0
  4  2  1  0
  5  4  1  0
  6  5  1  0
  7  6  1  0
  8  7  1  0
  8  9  1  6
 10  8  1  0
 11 10  2  0
 12 10  1  0
 13 12  1  0
 14 13  1  0
 14 15  2  0
 17 16  1  0
 17 18  2  0
 19 17  1  0
 20 19  1  0
 21 20  1  0
 23 22  1  1
 22 21  1  0
 23 24  1  0
 24 14  1  0
 25 23  1  0
 26 25  2  0
 27 25  1  0
M  END
$$$$
