RGR.pdb
     RDKit          3D

 27 26  0  0  1  0  0  0  0  0999 V2000
   23.2159  -22.1343  -14.4602 N   0  0  0  0  0  0  0  0  0  0  0  0
   24.1062  -23.2177  -14.2161 C   0  0  0  0  0  0  0  0  0  0  0  0
   24.4835  -24.0270  -15.1478 N   0  0  0  0  0  0  0  0  0  0  0  0
   24.6450  -23.4777  -12.9025 N   0  0  0  0  0  0  0  0  0  0  0  0
   24.9347  -22.3887  -11.9873 C   0  0  0  0  0  0  0  0  0  0  0  0
   26.3680  -21.9984  -12.0274 C   0  0  0  0  0  0  0  0  0  0  0  0
   26.7696  -20.8513  -11.2018 C   0  0  0  0  0  0  0  0  0  0  0  0
   26.7747  -19.5073  -11.8186 C   0  0  2  0  0  0  0  0  0  0  0  0
   25.5074  -19.0590  -12.3038 N   0  0  0  0  0  0  0  0  0  0  0  0
   27.7976  -19.5234  -12.9137 C   0  0  0  0  0  0  0  0  0  0  0  0
   28.9035  -20.0932  -12.7313 O   0  0  0  0  0  0  0  0  0  0  0  0
   25.0198  -24.9019  -14.9646 N   0  0  0  0  0  0  0  0  0  0  0  0
   27.5927  -18.9178  -14.1843 C   0  0  0  0  0  0  0  0  0  0  0  0
   26.2791  -18.4509  -14.5792 C   0  0  0  0  0  0  0  0  0  0  0  0
   26.2188  -16.9925  -14.7178 O   0  0  0  0  0  0  0  0  0  0  0  0
   27.2790  -16.3273  -14.7285 N   0  0  0  0  0  0  0  0  0  0  0  0
   22.3213  -17.8794  -20.3615 C   0  0  0  0  0  0  0  0  0  0  0  0
   22.8875  -16.8701  -21.1614 N   0  0  0  0  0  0  0  0  0  0  0  0
   22.2882  -16.3971  -22.2099 N   0  0  0  0  0  0  0  0  0  0  0  0
   24.1610  -16.3497  -20.8091 C   0  0  0  0  0  0  0  0  0  0  0  0
   24.8929  -16.8698  -19.6607 C   0  0  0  0  0  0  0  0  0  0  0  0
   24.1588  -16.4555  -18.4211 C   0  0  0  0  0  0  0  0  0  0  0  0
   24.8381  -16.9761  -17.1661 C   0  0  2  0  0  0  0  0  0  0  0  0
   24.0778  -16.5874  -15.9254 N   0  0  0  0  0  0  0  0  0  0  0  0
   24.9862  -16.3087  -14.8406 C   0  0  0  0  0  0  0  0  0  0  0  0
   23.0769  -17.6256  -15.5479 O   0  0  0  0  0  0  0  0  0  0  0  0
   23.3875  -18.6144  -14.8378 O   0  0  0  0  0  0  0  0  0  0  0  0
  2  1  1  0
  3  2  2  0
  4  2  1  0
  5  4  1  0
  6  5  1  0
  7  6  1  0
  8  7  1  0
  8  9  1  6
 10  8  1  0
 11 10  2  0
 12 10  1  0
 13 12  1  0
 14 13  1  0
 14 15  2  0
 17 16  1  0
 17 18  2  0
 19 17  1  0
 20 19  1  0
 21 20  1  0
 23 22  1  6
 22 21  1  0
 23 24  1  0
 24 14  1  0
 25 23  1  0
 26 25  2  0
 27 25  1  0
M  END
$$$$
