RGR.pdb
     RDKit          3D

 27 26  0  0  1  0  0  0  0  0999 V2000
   22.7110  -19.8090  -11.4809 N   0  0  0  0  0  0  0  0  0  0  0  0
   22.7196  -20.8296  -10.4888 C   0  0  0  0  0  0  0  0  0  0  0  0
   21.6414  -21.4144  -10.0878 N   0  0  0  0  0  0  0  0  0  0  0  0
   23.9439  -21.2756   -9.8676 N   0  0  0  0  0  0  0  0  0  0  0  0
   25.0691  -20.3727   -9.7061 C   0  0  0  0  0  0  0  0  0  0  0  0
   26.3666  -21.0573   -9.9427 C   0  0  0  0  0  0  0  0  0  0  0  0
   27.0090  -20.8359  -11.2454 C   0  0  0  0  0  0  0  0  0  0  0  0
   27.3757  -19.4541  -11.6238 C   0  0  2  0  0  0  0  0  0  0  0  0
   26.2814  -18.5389  -11.7088 N   0  0  0  0  0  0  0  0  0  0  0  0
   28.1186  -19.5301  -12.9232 C   0  0  0  0  0  0  0  0  0  0  0  0
   29.1507  -20.2423  -13.0154 O   0  0  0  0  0  0  0  0  0  0  0  0
   21.6292  -22.1514   -9.3507 N   0  0  0  0  0  0  0  0  0  0  0  0
   27.7201  -18.8279  -14.0942 C   0  0  0  0  0  0  0  0  0  0  0  0
   27.4260  -19.5405  -15.3211 C   0  0  0  0  0  0  0  0  0  0  0  0
   25.9866  -19.6402  -15.5822 O   0  0  0  0  0  0  0  0  0  0  0  0
   25.3014  -18.5974  -15.6802 N   0  0  0  0  0  0  0  0  0  0  0  0
   26.1627  -26.6618  -16.8769 C   0  0  0  0  0  0  0  0  0  0  0  0
   24.7577  -26.6618  -16.8042 N   0  0  0  0  0  0  0  0  0  0  0  0
   24.0414  -27.6637  -17.2111 N   0  0  0  0  0  0  0  0  0  0  0  0
   24.0990  -25.5245  -16.2664 C   0  0  0  0  0  0  0  0  0  0  0  0
   24.8576  -24.4123  -15.7072 C   0  0  0  0  0  0  0  0  0  0  0  0
   23.8789  -23.3865  -15.2204 C   0  0  0  0  0  0  0  0  0  0  0  0
   23.5258  -22.3869  -16.3082 C   0  0  1  0  0  0  0  0  0  0  0  0
   23.9172  -20.9858  -15.9184 N   0  0  0  0  0  0  0  0  0  0  0  0
   25.3435  -20.8922  -15.7276 C   0  0  0  0  0  0  0  0  0  0  0  0
   23.1723  -20.5238  -14.7126 O   0  0  0  0  0  0  0  0  0  0  0  0
   23.7607  -20.2615  -13.6339 O   0  0  0  0  0  0  0  0  0  0  0  0
  2  1  1  0
  3  2  2  0
  4  2  1  0
  5  4  1  0
  6  5  1  0
  7  6  1  0
  8  7  1  0
  8  9  1  6
 10  8  1  0
 11 10  2  0
 12 10  1  0
 13 12  1  0
 14 13  1  0
 14 15  2  0
 17 16  1  0
 17 18  2  0
 19 17  1  0
 20 19  1  0
 21 20  1  0
 23 22  1  6
 22 21  1  0
 23 24  1  0
 24 14  1  0
 25 23  1  0
 26 25  2  0
 27 25  1  0
M  END
$$$$
