RGR.pdb
     RDKit          3D

 27 26  0  0  1  0  0  0  0  0999 V2000
   22.4665  -17.7485  -21.4824 N   0  0  0  0  0  0  0  0  0  0  0  0
   22.6232  -19.1269  -21.1640 C   0  0  0  0  0  0  0  0  0  0  0  0
   22.0060  -20.0604  -21.8066 N   0  0  0  0  0  0  0  0  0  0  0  0
   23.4888  -19.5667  -20.0958 N   0  0  0  0  0  0  0  0  0  0  0  0
   23.0695  -19.4695  -18.7094 C   0  0  0  0  0  0  0  0  0  0  0  0
   23.3917  -18.1415  -18.1254 C   0  0  0  0  0  0  0  0  0  0  0  0
   24.6216  -18.0453  -17.3273 C   0  0  0  0  0  0  0  0  0  0  0  0
   24.9750  -19.1742  -16.4396 C   0  0  2  0  0  0  0  0  0  0  0  0
   24.9449  -20.4625  -17.0574 N   0  0  0  0  0  0  0  0  0  0  0  0
   24.0526  -19.1190  -15.2598 C   0  0  0  0  0  0  0  0  0  0  0  0
   23.9273  -18.0496  -14.6104 O   0  0  0  0  0  0  0  0  0  0  0  0
   22.1345  -21.0754  -21.6067 N   0  0  0  0  0  0  0  0  0  0  0  0
   23.2864  -20.2311  -14.8132 C   0  0  0  0  0  0  0  0  0  0  0  0
   22.3356  -20.0882  -13.7293 C   0  0  0  0  0  0  0  0  0  0  0  0
   21.5402  -21.3012  -13.5155 O   0  0  0  0  0  0  0  0  0  0  0  0
   21.7819  -22.3271  -14.1905 N   0  0  0  0  0  0  0  0  0  0  0  0
   18.1020  -25.2534   -6.6988 C   0  0  0  0  0  0  0  0  0  0  0  0
   18.2940  -26.0672   -7.8302 N   0  0  0  0  0  0  0  0  0  0  0  0
   18.4449  -27.3526   -7.7433 N   0  0  0  0  0  0  0  0  0  0  0  0
   18.3238  -25.4607   -9.1139 C   0  0  0  0  0  0  0  0  0  0  0  0
   18.1380  -24.0232   -9.2695 C   0  0  0  0  0  0  0  0  0  0  0  0
   18.1898  -23.7084  -10.7341 C   0  0  0  0  0  0  0  0  0  0  0  0
   18.9971  -22.4516  -11.0098 C   0  0  1  0  0  0  0  0  0  0  0  0
   19.7751  -22.5660  -12.2943 N   0  0  0  0  0  0  0  0  0  0  0  0
   20.4975  -21.3465  -12.5600 C   0  0  0  0  0  0  0  0  0  0  0  0
   18.8943  -22.9401  -13.4374 O   0  0  0  0  0  0  0  0  0  0  0  0
   18.2196  -22.0818  -14.0590 O   0  0  0  0  0  0  0  0  0  0  0  0
  2  1  1  0
  3  2  2  0
  4  2  1  0
  5  4  1  0
  6  5  1  0
  7  6  1  0
  8  7  1  0
  8  9  1  6
 10  8  1  0
 11 10  2  0
 12 10  1  0
 13 12  1  0
 14 13  1  0
 14 15  2  0
 17 16  1  0
 17 18  2  0
 19 17  1  0
 20 19  1  0
 21 20  1  0
 23 22  1  1
 22 21  1  0
 23 24  1  0
 24 14  1  0
 25 23  1  0
 26 25  2  0
 27 25  1  0
M  END
$$$$
