RGR.pdb
     RDKit          3D

 27 26  0  0  1  0  0  0  0  0999 V2000
   17.8928  -13.4282  -14.6886 N   0  0  0  0  0  0  0  0  0  0  0  0
   17.3186  -14.6382  -15.1703 C   0  0  0  0  0  0  0  0  0  0  0  0
   16.1011  -14.9783  -14.9105 N   0  0  0  0  0  0  0  0  0  0  0  0
   18.0688  -15.5641  -15.9849 N   0  0  0  0  0  0  0  0  0  0  0  0
   19.4638  -15.3169  -16.3010 C   0  0  0  0  0  0  0  0  0  0  0  0
   20.0121  -16.3428  -17.2259 C   0  0  0  0  0  0  0  0  0  0  0  0
   21.3832  -16.1369  -17.7121 C   0  0  0  0  0  0  0  0  0  0  0  0
   21.9459  -17.1155  -18.6674 C   0  0  2  0  0  0  0  0  0  0  0  0
   21.0859  -17.4638  -19.7544 N   0  0  0  0  0  0  0  0  0  0  0  0
   22.3417  -18.3285  -17.8815 C   0  0  0  0  0  0  0  0  0  0  0  0
   21.5788  -19.3273  -17.8417 O   0  0  0  0  0  0  0  0  0  0  0  0
   15.6767  -15.8762  -15.2271 N   0  0  0  0  0  0  0  0  0  0  0  0
   23.5610  -18.4266  -17.1556 C   0  0  0  0  0  0  0  0  0  0  0  0
   23.9122  -19.6477  -16.4591 C   0  0  0  0  0  0  0  0  0  0  0  0
   25.2213  -19.5646  -15.8038 O   0  0  0  0  0  0  0  0  0  0  0  0
   25.9294  -18.5448  -15.9623 N   0  0  0  0  0  0  0  0  0  0  0  0
   24.8404  -21.1984   -7.9651 C   0  0  0  0  0  0  0  0  0  0  0  0
   23.8238  -20.9102   -8.8938 N   0  0  0  0  0  0  0  0  0  0  0  0
   22.5686  -20.8965   -8.5672 N   0  0  0  0  0  0  0  0  0  0  0  0
   24.1836  -20.6240  -10.2374 C   0  0  0  0  0  0  0  0  0  0  0  0
   25.4556  -21.0772  -10.7867 C   0  0  0  0  0  0  0  0  0  0  0  0
   25.5711  -20.5417  -12.1820 C   0  0  0  0  0  0  0  0  0  0  0  0
   26.8180  -21.0574  -12.8797 C   0  0  2  0  0  0  0  0  0  0  0  0
   26.9522  -20.4836  -14.2657 N   0  0  0  0  0  0  0  0  0  0  0  0
   25.7122  -20.6132  -14.9904 C   0  0  0  0  0  0  0  0  0  0  0  0
   28.0870  -21.1028  -15.0081 O   0  0  0  0  0  0  0  0  0  0  0  0
   27.9468  -22.1683  -15.6588 O   0  0  0  0  0  0  0  0  0  0  0  0
  2  1  1  0
  3  2  2  0
  4  2  1  0
  5  4  1  0
  6  5  1  0
  7  6  1  0
  8  7  1  0
  8  9  1  6
 10  8  1  0
 11 10  2  0
 12 10  1  0
 13 12  1  0
 14 13  1  0
 14 15  2  0
 17 16  1  0
 17 18  2  0
 19 17  1  0
 20 19  1  0
 21 20  1  0
 23 22  1  1
 22 21  1  0
 23 24  1  0
 24 14  1  0
 25 23  1  0
 26 25  2  0
 27 25  1  0
M  END
$$$$
