RGR.pdb
     RDKit          3D

 27 26  0  0  1  0  0  0  0  0999 V2000
   24.4148  -13.8722  -16.0858 N   0  0  0  0  0  0  0  0  0  0  0  0
   23.7151  -14.6365  -17.0616 C   0  0  0  0  0  0  0  0  0  0  0  0
   22.7539  -14.1440  -17.7680 N   0  0  0  0  0  0  0  0  0  0  0  0
   24.0413  -16.0183  -17.3221 N   0  0  0  0  0  0  0  0  0  0  0  0
   25.0058  -16.7240  -16.4981 C   0  0  0  0  0  0  0  0  0  0  0  0
   26.4023  -16.4643  -16.9350 C   0  0  0  0  0  0  0  0  0  0  0  0
   27.4706  -17.1472  -16.1927 C   0  0  0  0  0  0  0  0  0  0  0  0
   27.9341  -18.4648  -16.6784 C   0  0  2  0  0  0  0  0  0  0  0  0
   27.2989  -18.9279  -17.8718 N   0  0  0  0  0  0  0  0  0  0  0  0
   27.7540  -19.4419  -15.5564 C   0  0  0  0  0  0  0  0  0  0  0  0
   26.8334  -20.2966  -15.6101 O   0  0  0  0  0  0  0  0  0  0  0  0
   22.2485  -14.6829  -18.5033 N   0  0  0  0  0  0  0  0  0  0  0  0
   28.5817  -19.4661  -14.3998 C   0  0  0  0  0  0  0  0  0  0  0  0
   28.2822  -20.3519  -13.2930 C   0  0  0  0  0  0  0  0  0  0  0  0
   27.0971  -19.9298  -12.5399 O   0  0  0  0  0  0  0  0  0  0  0  0
   26.5438  -18.8414  -12.8152 N   0  0  0  0  0  0  0  0  0  0  0  0
   18.2965  -21.4438  -11.2733 C   0  0  0  0  0  0  0  0  0  0  0  0
   19.5624  -21.7613  -11.7985 N   0  0  0  0  0  0  0  0  0  0  0  0
   19.9458  -22.9849  -11.9942 N   0  0  0  0  0  0  0  0  0  0  0  0
   20.4531  -20.7052  -12.1265 C   0  0  0  0  0  0  0  0  0  0  0  0
   21.7807  -20.9816  -12.6616 C   0  0  0  0  0  0  0  0  0  0  0  0
   22.7851  -20.6224  -11.6085 C   0  0  0  0  0  0  0  0  0  0  0  0
   24.2086  -20.8276  -12.0973 C   0  0  1  0  0  0  0  0  0  0  0  0
   25.2128  -20.5154  -11.0191 N   0  0  0  0  0  0  0  0  0  0  0  0
   26.5558  -20.7238  -11.5012 C   0  0  0  0  0  0  0  0  0  0  0  0
   24.9485  -21.3005   -9.7796 O   0  0  0  0  0  0  0  0  0  0  0  0
   25.4926  -22.4144   -9.5756 O   0  0  0  0  0  0  0  0  0  0  0  0
  2  1  1  0
  3  2  2  0
  4  2  1  0
  5  4  1  0
  6  5  1  0
  7  6  1  0
  8  7  1  0
  8  9  1  6
 10  8  1  0
 11 10  2  0
 12 10  1  0
 13 12  1  0
 14 13  1  0
 14 15  2  0
 17 16  1  0
 17 18  2  0
 19 17  1  0
 20 19  1  0
 21 20  1  0
 23 22  1  6
 22 21  1  0
 23 24  1  0
 24 14  1  0
 25 23  1  0
 26 25  2  0
 27 25  1  0
M  END
$$$$
