RGR.pdb
     RDKit          3D

 27 26  0  0  1  0  0  0  0  0999 V2000
   30.5533  -22.7330  -11.5684 N   0  0  0  0  0  0  0  0  0  0  0  0
   29.9038  -21.5450  -11.1294 C   0  0  0  0  0  0  0  0  0  0  0  0
   29.2583  -21.4806  -10.0138 N   0  0  0  0  0  0  0  0  0  0  0  0
   29.9289  -20.3317  -11.9111 N   0  0  0  0  0  0  0  0  0  0  0  0
   29.3913  -20.3029  -13.2592 C   0  0  0  0  0  0  0  0  0  0  0  0
   27.9241  -20.5385  -13.2753 C   0  0  0  0  0  0  0  0  0  0  0  0
   27.3846  -21.3044  -14.4071 C   0  0  0  0  0  0  0  0  0  0  0  0
   27.7949  -20.9219  -15.7755 C   0  0  2  0  0  0  0  0  0  0  0  0
   28.8184  -19.9270  -15.8448 N   0  0  0  0  0  0  0  0  0  0  0  0
   26.5617  -20.4802  -16.5034 C   0  0  0  0  0  0  0  0  0  0  0  0
   25.5506  -21.2269  -16.5360 O   0  0  0  0  0  0  0  0  0  0  0  0
   28.8619  -20.5957   -9.6311 N   0  0  0  0  0  0  0  0  0  0  0  0
   26.4574  -19.2335  -17.1803 C   0  0  0  0  0  0  0  0  0  0  0  0
   25.2477  -18.8770  -17.8937 C   0  0  0  0  0  0  0  0  0  0  0  0
   24.0664  -18.8620  -17.0252 O   0  0  0  0  0  0  0  0  0  0  0  0
   24.1846  -19.1554  -15.8142 N   0  0  0  0  0  0  0  0  0  0  0  0
   19.4641  -20.5051  -11.8540 C   0  0  0  0  0  0  0  0  0  0  0  0
   19.0597  -21.4942  -12.7691 N   0  0  0  0  0  0  0  0  0  0  0  0
   17.8849  -22.0422  -12.7249 N   0  0  0  0  0  0  0  0  0  0  0  0
   19.9695  -21.9083  -13.7777 C   0  0  0  0  0  0  0  0  0  0  0  0
   21.1665  -21.1308  -14.0741 C   0  0  0  0  0  0  0  0  0  0  0  0
   20.7424  -19.8963  -14.8110 C   0  0  0  0  0  0  0  0  0  0  0  0
   21.9369  -19.1129  -15.3277 C   0  0  2  0  0  0  0  0  0  0  0  0
   21.6370  -18.4577  -16.6503 N   0  0  0  0  0  0  0  0  0  0  0  0
   22.7850  -18.5230  -17.5205 C   0  0  0  0  0  0  0  0  0  0  0  0
   21.1641  -17.0551  -16.4727 O   0  0  0  0  0  0  0  0  0  0  0  0
   21.9636  -16.1132  -16.2443 O   0  0  0  0  0  0  0  0  0  0  0  0
  2  1  1  0
  3  2  2  0
  4  2  1  0
  5  4  1  0
  6  5  1  0
  7  6  1  0
  8  7  1  0
  8  9  1  1
 10  8  1  0
 11 10  2  0
 12 10  1  0
 13 12  1  0
 14 13  1  0
 14 15  2  0
 17 16  1  0
 17 18  2  0
 19 17  1  0
 20 19  1  0
 21 20  1  0
 23 22  1  6
 22 21  1  0
 23 24  1  0
 24 14  1  0
 25 23  1  0
 26 25  2  0
 27 25  1  0
M  END
$$$$
