RGR.pdb
     RDKit          3D

 27 26  0  0  1  0  0  0  0  0999 V2000
   31.7005  -27.9106  -18.6864 N   0  0  0  0  0  0  0  0  0  0  0  0
   31.6532  -29.2044  -18.0950 C   0  0  0  0  0  0  0  0  0  0  0  0
   32.7132  -29.9116  -17.8911 N   0  0  0  0  0  0  0  0  0  0  0  0
   30.4076  -29.8074  -17.6842 N   0  0  0  0  0  0  0  0  0  0  0  0
   29.4615  -30.3050  -18.6662 C   0  0  0  0  0  0  0  0  0  0  0  0
   28.5155  -29.2479  -19.1089 C   0  0  0  0  0  0  0  0  0  0  0  0
   27.1187  -29.3783  -18.6723 C   0  0  0  0  0  0  0  0  0  0  0  0
   26.7779  -29.0066  -17.2821 C   0  0  2  0  0  0  0  0  0  0  0  0
   26.0547  -29.9983  -16.5501 N   0  0  0  0  0  0  0  0  0  0  0  0
   26.0180  -27.7161  -17.3394 C   0  0  0  0  0  0  0  0  0  0  0  0
   25.3099  -27.4487  -18.3435 O   0  0  0  0  0  0  0  0  0  0  0  0
   33.6728  -29.5921  -18.1436 N   0  0  0  0  0  0  0  0  0  0  0  0
   26.0465  -26.7449  -16.3006 C   0  0  0  0  0  0  0  0  0  0  0  0
   25.2918  -25.5135  -16.4171 C   0  0  0  0  0  0  0  0  0  0  0  0
   26.1024  -24.4034  -16.9275 O   0  0  0  0  0  0  0  0  0  0  0  0
   26.2942  -24.2921  -18.1593 N   0  0  0  0  0  0  0  0  0  0  0  0
   22.8857  -20.1681  -15.6931 C   0  0  0  0  0  0  0  0  0  0  0  0
   23.2814  -20.7485  -14.4742 N   0  0  0  0  0  0  0  0  0  0  0  0
   22.5052  -21.5356  -13.7956 N   0  0  0  0  0  0  0  0  0  0  0  0
   24.5770  -20.4631  -13.9676 C   0  0  0  0  0  0  0  0  0  0  0  0
   25.5139  -19.6405  -14.7230 C   0  0  0  0  0  0  0  0  0  0  0  0
   25.9527  -20.4258  -15.9220 C   0  0  0  0  0  0  0  0  0  0  0  0
   27.2777  -21.1278  -15.6789 C   0  0  2  0  0  0  0  0  0  0  0  0
   27.4372  -22.3302  -16.5719 N   0  0  0  0  0  0  0  0  0  0  0  0
   26.6797  -23.4456  -16.0605 C   0  0  0  0  0  0  0  0  0  0  0  0
   28.8724  -22.6850  -16.7626 O   0  0  0  0  0  0  0  0  0  0  0  0
   29.4179  -23.6050  -16.1035 O   0  0  0  0  0  0  0  0  0  0  0  0
  2  1  1  0
  3  2  2  0
  4  2  1  0
  5  4  1  0
  6  5  1  0
  7  6  1  0
  8  7  1  0
  8  9  1  6
 10  8  1  0
 11 10  2  0
 12 10  1  0
 13 12  1  0
 14 13  1  0
 14 15  2  0
 17 16  1  0
 17 18  2  0
 19 17  1  0
 20 19  1  0
 21 20  1  0
 23 22  1  6
 22 21  1  0
 23 24  1  0
 24 14  1  0
 25 23  1  0
 26 25  2  0
 27 25  1  0
M  END
$$$$
