RGR.pdb
     RDKit          3D

 27 26  0  0  1  0  0  0  0  0999 V2000
   15.3437  -23.6796    0.6481 N   0  0  0  0  0  0  0  0  0  0  0  0
   14.8663  -22.7188   -0.2873 C   0  0  0  0  0  0  0  0  0  0  0  0
   14.0346  -23.0210   -1.2266 N   0  0  0  0  0  0  0  0  0  0  0  0
   15.2861  -21.3385   -0.2406 N   0  0  0  0  0  0  0  0  0  0  0  0
   15.9505  -20.8014    0.9330 C   0  0  0  0  0  0  0  0  0  0  0  0
   15.2007  -21.1027    2.1801 C   0  0  0  0  0  0  0  0  0  0  0  0
   15.6925  -20.4847    3.4191 C   0  0  0  0  0  0  0  0  0  0  0  0
   14.9670  -20.7581    4.6784 C   0  0  2  0  0  0  0  0  0  0  0  0
   13.6225  -21.2144    4.5158 N   0  0  0  0  0  0  0  0  0  0  0  0
   15.0173  -19.5073    5.5022 C   0  0  0  0  0  0  0  0  0  0  0  0
   13.9594  -19.0341    5.9901 O   0  0  0  0  0  0  0  0  0  0  0  0
   13.7048  -22.3381   -1.9419 N   0  0  0  0  0  0  0  0  0  0  0  0
   16.2200  -18.7991    5.7765 C   0  0  0  0  0  0  0  0  0  0  0  0
   16.2112  -17.6253    6.6259 C   0  0  0  0  0  0  0  0  0  0  0  0
   17.5559  -17.0887    6.8576 O   0  0  0  0  0  0  0  0  0  0  0  0
   18.5546  -17.7241    6.4507 N   0  0  0  0  0  0  0  0  0  0  0  0
   21.5359   -8.9764    8.7690 C   0  0  0  0  0  0  0  0  0  0  0  0
   22.1791  -10.0158    8.0724 N   0  0  0  0  0  0  0  0  0  0  0  0
   23.1058   -9.7924    7.1927 N   0  0  0  0  0  0  0  0  0  0  0  0
   21.8010  -11.3579    8.3412 C   0  0  0  0  0  0  0  0  0  0  0  0
   20.5051  -11.8723    7.9157 C   0  0  0  0  0  0  0  0  0  0  0  0
   20.4213  -13.3098    8.3322 C   0  0  0  0  0  0  0  0  0  0  0  0
   19.0319  -13.8801    8.1045 C   0  0  2  0  0  0  0  0  0  0  0  0
   19.0855  -15.3480    7.7721 N   0  0  0  0  0  0  0  0  0  0  0  0
   17.7597  -15.8629    7.5342 C   0  0  0  0  0  0  0  0  0  0  0  0
   19.7921  -16.1245    8.8304 O   0  0  0  0  0  0  0  0  0  0  0  0
   19.2040  -16.5049    9.8735 O   0  0  0  0  0  0  0  0  0  0  0  0
  2  1  1  0
  3  2  2  0
  4  2  1  0
  5  4  1  0
  6  5  1  0
  7  6  1  0
  8  7  1  0
  8  9  1  6
 10  8  1  0
 11 10  2  0
 12 10  1  0
 13 12  1  0
 14 13  1  0
 14 15  2  0
 17 16  1  0
 17 18  2  0
 19 17  1  0
 20 19  1  0
 21 20  1  0
 23 22  1  6
 22 21  1  0
 23 24  1  0
 24 14  1  0
 25 23  1  0
 26 25  2  0
 27 25  1  0
M  END
$$$$
