MPR.pdb
     RDKit          3D

 27 27  0  0  1  0  0  0  0  0999 V2000
   26.7081  -20.5777  -20.6418 C   0  0  0  0  0  0  0  0  0  0  0  0
   28.4190  -21.1747  -20.6754 S   0  0  0  0  0  0  0  0  0  0  0  0
   28.8744  -21.9509  -19.0858 C   0  0  0  0  0  0  0  0  0  0  0  0
   27.7510  -21.8466  -18.1113 C   0  0  0  0  0  0  0  0  0  0  0  0
   28.0402  -22.4265  -16.7491 C   0  0  2  0  0  0  0  0  0  0  0  0
   28.4047  -23.8028  -16.7755 N   0  0  0  0  0  0  0  0  0  0  0  0
   26.9453  -22.1513  -15.8201 C   0  0  0  0  0  0  0  0  0  0  0  0
   25.9417  -22.9468  -15.9229 O   0  0  0  0  0  0  0  0  0  0  0  0
   26.8688  -21.1519  -14.8629 N   0  0  0  0  0  0  0  0  0  0  0  0
   27.9777  -20.5254  -14.1059 C   0  0  0  0  0  0  0  0  0  0  0  0
   27.7160  -19.0444  -14.4796 C   0  0  0  0  0  0  0  0  0  0  0  0
   26.1941  -19.0011  -14.6150 C   0  0  0  0  0  0  0  0  0  0  0  0
   25.7496  -20.4073  -14.2984 C   0  0  1  0  0  0  0  0  0  0  0  0
   24.4126  -20.7522  -14.6583 C   0  0  0  0  0  0  0  0  0  0  0  0
   24.0425  -20.5019  -15.8667 O   0  0  0  0  0  0  0  0  0  0  0  0
   19.9078  -27.1385  -11.5709 N   0  0  0  0  0  0  0  0  0  0  0  0
   19.6090  -25.7975  -11.1764 C   0  0  0  0  0  0  0  0  0  0  0  0
   18.8956  -25.5767  -10.1069 N   0  0  0  0  0  0  0  0  0  0  0  0
   20.0648  -24.6884  -11.9207 N   0  0  0  0  0  0  0  0  0  0  0  0
   19.7348  -24.6400  -13.3737 C   0  0  0  0  0  0  0  0  0  0  0  0
   20.2694  -23.4130  -13.9813 C   0  0  0  0  0  0  0  0  0  0  0  0
   21.6016  -22.8912  -13.7309 C   0  0  0  0  0  0  0  0  0  0  0  0
   22.0360  -21.6440  -14.4067 C   0  0  2  0  0  0  0  0  0  0  0  0
   23.4234  -21.3322  -13.8575 N   0  0  0  0  0  0  0  0  0  0  0  0
   21.2797  -20.4784  -13.9068 C   0  0  0  0  0  0  0  0  0  0  0  0
   20.1521  -20.0275  -14.6159 O   0  0  0  0  0  0  0  0  0  0  0  0
   21.5640  -19.8530  -12.8950 O   0  0  0  0  0  0  0  0  0  0  0  0
  2  1  1  0
  3  2  1  0
  4  3  1  0
  4  5  1  0
  5  6  1  6
  7  8  2  0
  7  5  1  0
  9  7  1  0
 10  9  1  0
 11 10  1  0
 12 11  1  0
 12 13  1  0
 13 14  1  6
 13  9  1  0
 14 15  2  0
 17 18  2  0
 17 16  1  0
 19 17  1  0
 20 19  1  0
 21 20  1  0
 22 21  1  0
 23 22  1  1
 24 23  1  0
 24 14  1  0
 25 26  1  0
 25 23  1  0
 27 25  2  0
M  END
$$$$
