MPR.pdb
     RDKit          3D

 27 27  0  0  1  0  0  0  0  0999 V2000
   19.9108  -19.4001    1.7924 C   0  0  0  0  0  0  0  0  0  0  0  0
   18.3937  -19.3602    0.8018 S   0  0  0  0  0  0  0  0  0  0  0  0
   17.0114  -18.6317    1.7478 C   0  0  0  0  0  0  0  0  0  0  0  0
   17.4501  -18.2789    3.1282 C   0  0  0  0  0  0  0  0  0  0  0  0
   16.4109  -17.5683    3.9593 C   0  0  2  0  0  0  0  0  0  0  0  0
   15.7650  -16.4968    3.2793 N   0  0  0  0  0  0  0  0  0  0  0  0
   16.9614  -17.1648    5.2522 C   0  0  0  0  0  0  0  0  0  0  0  0
   17.7867  -16.1815    5.2007 O   0  0  0  0  0  0  0  0  0  0  0  0
   16.7000  -17.7106    6.4991 N   0  0  0  0  0  0  0  0  0  0  0  0
   15.4135  -18.2331    7.0160 C   0  0  0  0  0  0  0  0  0  0  0  0
   15.8734  -19.6614    7.4035 C   0  0  0  0  0  0  0  0  0  0  0  0
   17.3242  -19.4378    7.8295 C   0  0  0  0  0  0  0  0  0  0  0  0
   17.5379  -17.9535    7.6673 C   0  0  1  0  0  0  0  0  0  0  0  0
   18.8896  -17.4964    7.6800 C   0  0  0  0  0  0  0  0  0  0  0  0
   19.6212  -17.7862    6.6600 O   0  0  0  0  0  0  0  0  0  0  0  0
   18.9165  -12.2998    6.2127 N   0  0  0  0  0  0  0  0  0  0  0  0
   20.1137  -11.5863    6.5304 C   0  0  0  0  0  0  0  0  0  0  0  0
   20.2038  -10.3129    6.2618 N   0  0  0  0  0  0  0  0  0  0  0  0
   21.2192  -12.2263    7.1305 N   0  0  0  0  0  0  0  0  0  0  0  0
   21.1131  -13.6868    7.4092 C   0  0  0  0  0  0  0  0  0  0  0  0
   21.2326  -13.9446    8.8514 C   0  0  0  0  0  0  0  0  0  0  0  0
   21.2604  -15.2701    9.4445 C   0  0  0  0  0  0  0  0  0  0  0  0
   21.0368  -16.4590    8.5856 C   0  0  2  0  0  0  0  0  0  0  0  0
   19.5463  -16.7653    8.6753 N   0  0  0  0  0  0  0  0  0  0  0  0
   21.6000  -17.6752    9.2057 C   0  0  0  0  0  0  0  0  0  0  0  0
   20.8461  -18.3788   10.1617 O   0  0  0  0  0  0  0  0  0  0  0  0
   22.7040  -18.1336    8.9480 O   0  0  0  0  0  0  0  0  0  0  0  0
  2  1  1  0
  3  2  1  0
  4  3  1  0
  4  5  1  0
  5  6  1  6
  7  8  2  0
  7  5  1  0
  9  7  1  0
 10  9  1  0
 11 10  1  0
 12 11  1  0
 12 13  1  0
 13 14  1  6
 13  9  1  0
 14 15  2  0
 17 18  2  0
 17 16  1  0
 19 17  1  0
 20 19  1  0
 21 20  1  0
 22 21  1  0
 23 22  1  1
 24 23  1  0
 24 14  1  0
 25 26  1  0
 25 23  1  0
 27 25  2  0
M  END
$$$$
