MPR.pdb
     RDKit          3D

 27 27  0  0  1  0  0  0  0  0999 V2000
   31.0369  -22.2892  -20.8685 C   0  0  0  0  0  0  0  0  0  0  0  0
   29.3807  -22.0294  -20.1798 S   0  0  0  0  0  0  0  0  0  0  0  0
   29.4126  -22.0881  -18.3544 C   0  0  0  0  0  0  0  0  0  0  0  0
   28.0636  -21.7847  -17.7971 C   0  0  0  0  0  0  0  0  0  0  0  0
   27.8172  -22.3231  -16.4097 C   0  0  2  0  0  0  0  0  0  0  0  0
   27.6910  -23.7405  -16.3569 N   0  0  0  0  0  0  0  0  0  0  0  0
   26.6968  -21.6334  -15.7721 C   0  0  0  0  0  0  0  0  0  0  0  0
   25.5501  -22.1795  -15.9662 O   0  0  0  0  0  0  0  0  0  0  0  0
   26.7305  -20.4832  -14.9996 N   0  0  0  0  0  0  0  0  0  0  0  0
   27.7796  -20.0543  -14.0453 C   0  0  0  0  0  0  0  0  0  0  0  0
   28.0999  -18.6640  -14.6505 C   0  0  0  0  0  0  0  0  0  0  0  0
   26.7454  -18.2249  -15.2064 C   0  0  0  0  0  0  0  0  0  0  0  0
   25.8129  -19.3588  -14.8602 C   0  0  1  0  0  0  0  0  0  0  0  0
   24.5546  -19.3805  -15.5328 C   0  0  0  0  0  0  0  0  0  0  0  0
   24.5707  -19.3130  -16.8192 O   0  0  0  0  0  0  0  0  0  0  0  0
   19.3682  -23.2453  -11.4896 N   0  0  0  0  0  0  0  0  0  0  0  0
   18.5573  -22.0787  -11.6466 C   0  0  0  0  0  0  0  0  0  0  0  0
   17.7997  -21.6750  -10.6644 N   0  0  0  0  0  0  0  0  0  0  0  0
   18.5471  -21.3412  -12.8498 N   0  0  0  0  0  0  0  0  0  0  0  0
   19.4741  -21.7668  -13.9370 C   0  0  0  0  0  0  0  0  0  0  0  0
   20.2904  -20.6314  -14.3898 C   0  0  0  0  0  0  0  0  0  0  0  0
   21.2810  -20.7091  -15.4492 C   0  0  0  0  0  0  0  0  0  0  0  0
   22.0251  -19.4877  -15.8438 C   0  0  2  0  0  0  0  0  0  0  0  0
   23.2755  -19.4600  -14.9725 N   0  0  0  0  0  0  0  0  0  0  0  0
   21.3376  -18.2705  -15.3680 C   0  0  0  0  0  0  0  0  0  0  0  0
   21.8198  -17.6024  -14.2284 O   0  0  0  0  0  0  0  0  0  0  0  0
   20.3513  -17.7817  -15.9006 O   0  0  0  0  0  0  0  0  0  0  0  0
  2  1  1  0
  3  2  1  0
  4  3  1  0
  4  5  1  0
  5  6  1  6
  7  8  2  0
  7  5  1  0
  9  7  1  0
 10  9  1  0
 11 10  1  0
 12 11  1  0
 12 13  1  0
 13 14  1  6
 13  9  1  0
 14 15  2  0
 17 18  2  0
 17 16  1  0
 19 17  1  0
 20 19  1  0
 21 20  1  0
 22 21  1  0
 23 22  1  1
 24 23  1  0
 24 14  1  0
 25 26  1  0
 25 23  1  0
 27 25  2  0
M  END
$$$$
