MPR.pdb
     RDKit          3D

 27 27  0  0  1  0  0  0  0  0999 V2000
   17.0107  -21.1316  -19.1817 C   0  0  0  0  0  0  0  0  0  0  0  0
   18.3312  -20.3863  -20.1744 S   0  0  0  0  0  0  0  0  0  0  0  0
   19.9617  -20.6340  -19.3893 C   0  0  0  0  0  0  0  0  0  0  0  0
   19.8010  -21.1535  -18.0012 C   0  0  0  0  0  0  0  0  0  0  0  0
   21.0946  -21.4266  -17.2748 C   0  0  2  0  0  0  0  0  0  0  0  0
   21.9650  -22.3171  -17.9656 N   0  0  0  0  0  0  0  0  0  0  0  0
   20.8428  -21.8415  -15.8957 C   0  0  0  0  0  0  0  0  0  0  0  0
   20.2750  -22.9878  -15.7754 O   0  0  0  0  0  0  0  0  0  0  0  0
   21.1401  -21.1540  -14.7297 N   0  0  0  0  0  0  0  0  0  0  0  0
   22.3287  -20.3183  -14.4399 C   0  0  0  0  0  0  0  0  0  0  0  0
   21.6076  -19.0025  -14.0521 C   0  0  0  0  0  0  0  0  0  0  0  0
   20.3218  -19.5097  -13.3994 C   0  0  0  0  0  0  0  0  0  0  0  0
   20.4387  -21.0123  -13.4593 C   0  0  1  0  0  0  0  0  0  0  0  0
   19.2454  -21.7571  -13.2192 C   0  0  0  0  0  0  0  0  0  0  0  0
   18.2454  -21.5394  -14.0016 O   0  0  0  0  0  0  0  0  0  0  0  0
   16.5197  -26.0608   -5.7799 N   0  0  0  0  0  0  0  0  0  0  0  0
   17.5360  -25.1168   -6.1251 C   0  0  0  0  0  0  0  0  0  0  0  0
   18.5465  -24.9250   -5.3227 N   0  0  0  0  0  0  0  0  0  0  0  0
   17.4779  -24.3718   -7.3224 N   0  0  0  0  0  0  0  0  0  0  0  0
   17.7029  -25.0954   -8.6061 C   0  0  0  0  0  0  0  0  0  0  0  0
   17.6053  -24.1682   -9.7424 C   0  0  0  0  0  0  0  0  0  0  0  0
   17.8963  -24.5298  -11.1187 C   0  0  0  0  0  0  0  0  0  0  0  0
   17.7163  -23.5214  -12.1921 C   0  0  2  0  0  0  0  0  0  0  0  0
   19.0053  -22.7086  -12.2227 N   0  0  0  0  0  0  0  0  0  0  0  0
   16.7505  -22.4807  -11.7860 C   0  0  0  0  0  0  0  0  0  0  0  0
   15.3892  -22.6368  -12.1022 O   0  0  0  0  0  0  0  0  0  0  0  0
   17.0481  -21.4616  -11.1791 O   0  0  0  0  0  0  0  0  0  0  0  0
  2  1  1  0
  3  2  1  0
  4  3  1  0
  4  5  1  0
  5  6  1  6
  7  8  2  0
  7  5  1  0
  9  7  1  0
 10  9  1  0
 11 10  1  0
 12 11  1  0
 12 13  1  0
 13 14  1  6
 13  9  1  0
 14 15  2  0
 17 18  2  0
 17 16  1  0
 19 17  1  0
 20 19  1  0
 21 20  1  0
 22 21  1  0
 23 22  1  1
 24 23  1  0
 24 14  1  0
 25 26  1  0
 25 23  1  0
 27 25  2  0
M  END
$$$$
