MPR.pdb
     RDKit          3D

 27 27  0  0  1  0  0  0  0  0999 V2000
   11.0114  -10.5923  -14.7446 C   0  0  0  0  0  0  0  0  0  0  0  0
   11.6031  -11.4433  -16.2313 S   0  0  0  0  0  0  0  0  0  0  0  0
   13.4263  -11.5529  -16.2427 C   0  0  0  0  0  0  0  0  0  0  0  0
   14.0268  -10.3606  -15.5793 C   0  0  0  0  0  0  0  0  0  0  0  0
   15.5206  -10.4325  -15.3817 C   0  0  2  0  0  0  0  0  0  0  0  0
   15.9926  -11.7300  -15.0329 N   0  0  0  0  0  0  0  0  0  0  0  0
   15.9761   -9.3988  -14.4536 C   0  0  0  0  0  0  0  0  0  0  0  0
   15.0832   -8.9908  -13.6248 O   0  0  0  0  0  0  0  0  0  0  0  0
   17.2334   -8.8219  -14.3685 N   0  0  0  0  0  0  0  0  0  0  0  0
   18.5522   -9.4795  -14.5211 C   0  0  0  0  0  0  0  0  0  0  0  0
   19.1315   -8.5946  -15.6537 C   0  0  0  0  0  0  0  0  0  0  0  0
   18.5093   -7.2299  -15.3587 C   0  0  0  0  0  0  0  0  0  0  0  0
   17.6797   -7.4564  -14.1195 C   0  0  1  0  0  0  0  0  0  0  0  0
   16.7269   -6.4454  -13.7936 C   0  0  0  0  0  0  0  0  0  0  0  0
   15.7820   -6.2283  -14.6419 O   0  0  0  0  0  0  0  0  0  0  0  0
   13.5580   -3.5777   -6.2757 N   0  0  0  0  0  0  0  0  0  0  0  0
   13.1284   -4.5875   -7.1917 C   0  0  0  0  0  0  0  0  0  0  0  0
   12.3493   -5.5500   -6.7817 N   0  0  0  0  0  0  0  0  0  0  0  0
   13.5296   -4.5780   -8.5447 N   0  0  0  0  0  0  0  0  0  0  0  0
   14.1046   -3.3167   -9.0932 C   0  0  0  0  0  0  0  0  0  0  0  0
   14.4378   -3.4799  -10.5155 C   0  0  0  0  0  0  0  0  0  0  0  0
   15.2841   -4.5376  -11.0398 C   0  0  0  0  0  0  0  0  0  0  0  0
   15.6145   -4.5588  -12.4860 C   0  0  2  0  0  0  0  0  0  0  0  0
   16.6817   -5.6339  -12.6553 N   0  0  0  0  0  0  0  0  0  0  0  0
   16.3790   -3.3563  -12.8734 C   0  0  0  0  0  0  0  0  0  0  0  0
   15.7023   -2.2500  -13.4175 O   0  0  0  0  0  0  0  0  0  0  0  0
   17.5909   -3.2413  -12.7571 O   0  0  0  0  0  0  0  0  0  0  0  0
  2  1  1  0
  3  2  1  0
  4  3  1  0
  4  5  1  0
  5  6  1  1
  7  8  2  0
  7  5  1  0
  9  7  1  0
 10  9  1  0
 11 10  1  0
 12 11  1  0
 12 13  1  0
 13 14  1  6
 13  9  1  0
 14 15  2  0
 17 18  2  0
 17 16  1  0
 19 17  1  0
 20 19  1  0
 21 20  1  0
 22 21  1  0
 23 22  1  1
 24 23  1  0
 24 14  1  0
 25 26  1  0
 25 23  1  0
 27 25  2  0
M  END
$$$$
