MPR.pdb
     RDKit          3D

 27 27  0  0  1  0  0  0  0  0999 V2000
   25.2710  -27.2111  -15.8836 C   0  0  0  0  0  0  0  0  0  0  0  0
   25.6015  -27.2057  -17.6655 S   0  0  0  0  0  0  0  0  0  0  0  0
   26.6415  -25.7796  -18.1356 C   0  0  0  0  0  0  0  0  0  0  0  0
   26.7517  -24.8160  -17.0035 C   0  0  0  0  0  0  0  0  0  0  0  0
   27.6465  -23.6306  -17.2673 C   0  0  2  0  0  0  0  0  0  0  0  0
   29.0056  -23.9789  -17.5109 N   0  0  0  0  0  0  0  0  0  0  0  0
   27.5025  -22.6225  -16.2182 C   0  0  0  0  0  0  0  0  0  0  0  0
   27.9188  -22.9905  -15.0598 O   0  0  0  0  0  0  0  0  0  0  0  0
   26.9794  -21.3439  -16.3291 N   0  0  0  0  0  0  0  0  0  0  0  0
   27.0793  -20.4125  -17.4770 C   0  0  0  0  0  0  0  0  0  0  0  0
   25.5686  -20.1573  -17.7104 C   0  0  0  0  0  0  0  0  0  0  0  0
   24.9955  -20.2456  -16.2961 C   0  0  0  0  0  0  0  0  0  0  0  0
   26.1950  -20.5146  -15.4220 C   0  0  1  0  0  0  0  0  0  0  0  0
   25.9309  -20.9667  -14.0945 C   0  0  0  0  0  0  0  0  0  0  0  0
   25.2295  -22.0394  -13.9639 O   0  0  0  0  0  0  0  0  0  0  0  0
   28.4459  -18.8961   -5.6164 N   0  0  0  0  0  0  0  0  0  0  0  0
   27.2604  -19.6917   -5.5469 C   0  0  0  0  0  0  0  0  0  0  0  0
   26.7171  -19.9513   -4.3897 N   0  0  0  0  0  0  0  0  0  0  0  0
   26.6524  -20.2162   -6.7075 N   0  0  0  0  0  0  0  0  0  0  0  0
   27.1799  -19.7771   -8.0308 C   0  0  0  0  0  0  0  0  0  0  0  0
   26.4986  -20.4933   -9.1187 C   0  0  0  0  0  0  0  0  0  0  0  0
   26.7795  -20.2932  -10.5296 C   0  0  0  0  0  0  0  0  0  0  0  0
   25.9667  -21.0080  -11.5443 C   0  0  2  0  0  0  0  0  0  0  0  0
   26.3331  -20.3866  -12.8870 N   0  0  0  0  0  0  0  0  0  0  0  0
   24.5435  -20.6259  -11.4494 C   0  0  0  0  0  0  0  0  0  0  0  0
   24.0690  -19.5294  -12.1912 O   0  0  0  0  0  0  0  0  0  0  0  0
   23.7184  -21.2030  -10.7554 O   0  0  0  0  0  0  0  0  0  0  0  0
  2  1  1  0
  3  2  1  0
  4  3  1  0
  4  5  1  0
  5  6  1  1
  7  8  2  0
  7  5  1  0
  9  7  1  0
 10  9  1  0
 11 10  1  0
 12 11  1  0
 12 13  1  0
 13 14  1  1
 13  9  1  0
 14 15  2  0
 17 18  2  0
 17 16  1  0
 19 17  1  0
 20 19  1  0
 21 20  1  0
 22 21  1  0
 23 22  1  1
 24 23  1  0
 24 14  1  0
 25 26  1  0
 25 23  1  0
 27 25  2  0
M  END
$$$$
