MPR.pdb
     RDKit          3D

 27 27  0  0  1  0  0  0  0  0999 V2000
   25.6580  -15.1567  -14.7325 C   0  0  0  0  0  0  0  0  0  0  0  0
   25.5584  -15.6723  -16.4671 S   0  0  0  0  0  0  0  0  0  0  0  0
   26.4439  -17.2472  -16.7354 C   0  0  0  0  0  0  0  0  0  0  0  0
   26.3212  -18.1275  -15.5385 C   0  0  0  0  0  0  0  0  0  0  0  0
   26.9572  -19.4873  -15.6862 C   0  0  2  0  0  0  0  0  0  0  0  0
   26.4929  -20.2197  -16.8158 N   0  0  0  0  0  0  0  0  0  0  0  0
   26.8593  -20.2487  -14.4420 C   0  0  0  0  0  0  0  0  0  0  0  0
   25.6586  -20.4768  -14.0456 O   0  0  0  0  0  0  0  0  0  0  0  0
   27.8915  -20.7410  -13.6590 N   0  0  0  0  0  0  0  0  0  0  0  0
   29.1656  -21.3513  -14.1056 C   0  0  0  0  0  0  0  0  0  0  0  0
   30.1526  -20.4174  -13.3604 C   0  0  0  0  0  0  0  0  0  0  0  0
   29.3818  -20.0694  -12.0871 C   0  0  0  0  0  0  0  0  0  0  0  0
   28.0837  -20.8265  -12.2162 C   0  0  1  0  0  0  0  0  0  0  0  0
   27.0290  -20.4434  -11.3346 C   0  0  0  0  0  0  0  0  0  0  0  0
   26.5542  -19.2528  -11.4634 O   0  0  0  0  0  0  0  0  0  0  0  0
   19.4695  -23.6437   -8.0256 N   0  0  0  0  0  0  0  0  0  0  0  0
   19.8379  -22.5654   -7.1625 C   0  0  0  0  0  0  0  0  0  0  0  0
   19.0891  -22.2670   -6.1370 N   0  0  0  0  0  0  0  0  0  0  0  0
   21.0013  -21.7997   -7.3905 N   0  0  0  0  0  0  0  0  0  0  0  0
   21.9202  -22.2345   -8.4809 C   0  0  0  0  0  0  0  0  0  0  0  0
   23.1663  -21.4559   -8.4434 C   0  0  0  0  0  0  0  0  0  0  0  0
   24.2617  -21.6222   -9.3827 C   0  0  0  0  0  0  0  0  0  0  0  0
   25.3479  -20.6125   -9.4237 C   0  0  2  0  0  0  0  0  0  0  0  0
   26.4309  -21.1996  -10.3213 N   0  0  0  0  0  0  0  0  0  0  0  0
   26.0673  -20.5543   -8.1354 C   0  0  0  0  0  0  0  0  0  0  0  0
   25.7948  -19.5084   -7.2357 O   0  0  0  0  0  0  0  0  0  0  0  0
   26.9080  -21.3667   -7.7767 O   0  0  0  0  0  0  0  0  0  0  0  0
  2  1  1  0
  3  2  1  0
  4  3  1  0
  4  5  1  0
  5  6  1  6
  7  8  2  0
  7  5  1  0
  9  7  1  0
 10  9  1  0
 11 10  1  0
 12 11  1  0
 12 13  1  0
 13 14  1  1
 13  9  1  0
 14 15  2  0
 17 18  2  0
 17 16  1  0
 19 17  1  0
 20 19  1  0
 21 20  1  0
 22 21  1  0
 23 22  1  1
 24 23  1  0
 24 14  1  0
 25 26  1  0
 25 23  1  0
 27 25  2  0
M  END
$$$$
