MPR.pdb
     RDKit          3D

 27 27  0  0  1  0  0  0  0  0999 V2000
   27.3646  -23.8528  -16.5479 C   0  0  0  0  0  0  0  0  0  0  0  0
   28.8784  -22.9799  -17.0283 S   0  0  0  0  0  0  0  0  0  0  0  0
   28.5272  -21.2354  -17.4404 C   0  0  0  0  0  0  0  0  0  0  0  0
   27.2005  -20.8260  -16.8976 C   0  0  0  0  0  0  0  0  0  0  0  0
   26.8350  -19.3832  -17.1432 C   0  0  2  0  0  0  0  0  0  0  0  0
   27.9269  -18.4807  -16.9981 N   0  0  0  0  0  0  0  0  0  0  0  0
   25.6730  -18.9947  -16.3456 C   0  0  0  0  0  0  0  0  0  0  0  0
   25.7480  -19.3059  -15.1013 O   0  0  0  0  0  0  0  0  0  0  0  0
   24.5254  -18.3436  -16.7700 N   0  0  0  0  0  0  0  0  0  0  0  0
   24.4142  -17.2229  -17.7326 C   0  0  0  0  0  0  0  0  0  0  0  0
   23.4245  -17.8667  -18.7364 C   0  0  0  0  0  0  0  0  0  0  0  0
   22.5635  -18.7491  -17.8327 C   0  0  0  0  0  0  0  0  0  0  0  0
   23.1140  -18.5168  -16.4478 C   0  0  1  0  0  0  0  0  0  0  0  0
   22.7242  -19.4485  -15.4396 C   0  0  0  0  0  0  0  0  0  0  0  0
   22.9641  -20.6946  -15.6618 O   0  0  0  0  0  0  0  0  0  0  0  0
   18.3764  -21.0580  -10.0999 N   0  0  0  0  0  0  0  0  0  0  0  0
   19.0614  -21.4986   -8.9253 C   0  0  0  0  0  0  0  0  0  0  0  0
   18.5269  -22.4131   -8.1640 N   0  0  0  0  0  0  0  0  0  0  0  0
   20.3144  -20.9647   -8.5555 N   0  0  0  0  0  0  0  0  0  0  0  0
   20.9189  -19.9272   -9.4388 C   0  0  0  0  0  0  0  0  0  0  0  0
   21.0995  -20.4530  -10.7996 C   0  0  0  0  0  0  0  0  0  0  0  0
   21.5837  -19.6671  -11.9210 C   0  0  0  0  0  0  0  0  0  0  0  0
   21.7439  -20.3106  -13.2482 C   0  0  2  0  0  0  0  0  0  0  0  0
   22.0961  -19.1880  -14.2174 N   0  0  0  0  0  0  0  0  0  0  0  0
   20.4390  -20.7373  -13.7921 C   0  0  0  0  0  0  0  0  0  0  0  0
   19.6042  -19.7916  -14.4137 O   0  0  0  0  0  0  0  0  0  0  0  0
   20.0116  -21.8820  -13.7432 O   0  0  0  0  0  0  0  0  0  0  0  0
  2  1  1  0
  3  2  1  0
  4  3  1  0
  4  5  1  0
  5  6  1  1
  7  8  2  0
  7  5  1  0
  9  7  1  0
 10  9  1  0
 11 10  1  0
 12 11  1  0
 12 13  1  0
 13 14  1  1
 13  9  1  0
 14 15  2  0
 17 18  2  0
 17 16  1  0
 19 17  1  0
 20 19  1  0
 21 20  1  0
 22 21  1  0
 23 22  1  1
 24 23  1  0
 24 14  1  0
 25 26  1  0
 25 23  1  0
 27 25  2  0
M  END
$$$$
