MPR.pdb
     RDKit          3D

 27 27  0  0  1  0  0  0  0  0999 V2000
   22.1097  -25.0773  -19.2358 C   0  0  0  0  0  0  0  0  0  0  0  0
   23.5669  -24.2352  -19.9081 S   0  0  0  0  0  0  0  0  0  0  0  0
   24.6359  -23.6035  -18.5684 C   0  0  0  0  0  0  0  0  0  0  0  0
   23.8316  -23.3226  -17.3451 C   0  0  0  0  0  0  0  0  0  0  0  0
   24.6194  -22.7688  -16.1840 C   0  0  2  0  0  0  0  0  0  0  0  0
   25.5484  -23.6929  -15.6265 N   0  0  0  0  0  0  0  0  0  0  0  0
   23.7313  -22.1870  -15.1790 C   0  0  0  0  0  0  0  0  0  0  0  0
   23.1051  -23.0445  -14.4555 O   0  0  0  0  0  0  0  0  0  0  0  0
   23.4933  -20.8457  -14.9240 N   0  0  0  0  0  0  0  0  0  0  0  0
   24.4215  -19.7041  -15.0984 C   0  0  0  0  0  0  0  0  0  0  0  0
   23.5511  -18.8287  -16.0354 C   0  0  0  0  0  0  0  0  0  0  0  0
   22.1327  -19.1477  -15.5633 C   0  0  0  0  0  0  0  0  0  0  0  0
   22.3257  -20.1251  -14.4308 C   0  0  1  0  0  0  0  0  0  0  0  0
   21.1712  -20.8483  -14.0060 C   0  0  0  0  0  0  0  0  0  0  0  0
   20.6126  -21.6281  -14.8660 O   0  0  0  0  0  0  0  0  0  0  0  0
   17.9208  -26.6794   -8.8521 N   0  0  0  0  0  0  0  0  0  0  0  0
   16.8100  -25.7983   -9.0336 C   0  0  0  0  0  0  0  0  0  0  0  0
   15.5929  -26.2497   -8.9047 N   0  0  0  0  0  0  0  0  0  0  0  0
   16.9909  -24.4365   -9.3565 N   0  0  0  0  0  0  0  0  0  0  0  0
   18.2959  -24.0275   -9.9498 C   0  0  0  0  0  0  0  0  0  0  0  0
   18.2646  -22.6082  -10.3308 C   0  0  0  0  0  0  0  0  0  0  0  0
   19.3663  -21.9097  -10.9698 C   0  0  0  0  0  0  0  0  0  0  0  0
   19.3554  -21.7206  -12.4412 C   0  0  2  0  0  0  0  0  0  0  0  0
   20.5443  -20.8202  -12.7560 N   0  0  0  0  0  0  0  0  0  0  0  0
   18.2387  -20.8479  -12.8559 C   0  0  0  0  0  0  0  0  0  0  0  0
   17.0888  -21.4187  -13.4299 O   0  0  0  0  0  0  0  0  0  0  0  0
   18.2331  -19.6307  -12.7379 O   0  0  0  0  0  0  0  0  0  0  0  0
  2  1  1  0
  3  2  1  0
  4  3  1  0
  4  5  1  0
  5  6  1  1
  7  8  2  0
  7  5  1  0
  9  7  1  0
 10  9  1  0
 11 10  1  0
 12 11  1  0
 12 13  1  0
 13 14  1  6
 13  9  1  0
 14 15  2  0
 17 18  2  0
 17 16  1  0
 19 17  1  0
 20 19  1  0
 21 20  1  0
 22 21  1  0
 23 22  1  1
 24 23  1  0
 24 14  1  0
 25 26  1  0
 25 23  1  0
 27 25  2  0
M  END
$$$$
