MPR.pdb
     RDKit          3D

 27 27  0  0  1  0  0  0  0  0999 V2000
   18.5057  -27.5849  -16.1045 C   0  0  0  0  0  0  0  0  0  0  0  0
   17.2978  -26.3242  -16.5905 S   0  0  0  0  0  0  0  0  0  0  0  0
   17.8519  -24.6572  -16.0901 C   0  0  0  0  0  0  0  0  0  0  0  0
   18.1586  -24.6231  -14.6316 C   0  0  0  0  0  0  0  0  0  0  0  0
   18.6996  -23.3073  -14.1301 C   0  0  2  0  0  0  0  0  0  0  0  0
   19.8388  -22.8431  -14.8475 N   0  0  0  0  0  0  0  0  0  0  0  0
   18.9219  -23.3494  -12.6857 C   0  0  0  0  0  0  0  0  0  0  0  0
   19.4657  -24.4319  -12.2579 O   0  0  0  0  0  0  0  0  0  0  0  0
   18.6192  -22.3759  -11.7467 N   0  0  0  0  0  0  0  0  0  0  0  0
   18.7546  -20.9064  -11.8784 C   0  0  0  0  0  0  0  0  0  0  0  0
   17.2947  -20.5013  -11.5524 C   0  0  0  0  0  0  0  0  0  0  0  0
   16.8706  -21.5719  -10.5472 C   0  0  0  0  0  0  0  0  0  0  0  0
   18.0925  -22.4421  -10.3888 C   0  0  1  0  0  0  0  0  0  0  0  0
   17.8986  -23.7095   -9.7625 C   0  0  0  0  0  0  0  0  0  0  0  0
   17.1099  -24.5434  -10.3475 O   0  0  0  0  0  0  0  0  0  0  0  0
   18.2442  -27.6799   -1.3940 N   0  0  0  0  0  0  0  0  0  0  0  0
   17.1678  -27.5533   -2.3260 C   0  0  0  0  0  0  0  0  0  0  0  0
   16.1309  -28.3393   -2.2342 N   0  0  0  0  0  0  0  0  0  0  0  0
   17.1938  -26.5932   -3.3602 N   0  0  0  0  0  0  0  0  0  0  0  0
   18.1557  -26.7999   -4.4801 C   0  0  0  0  0  0  0  0  0  0  0  0
   18.0150  -25.7332   -5.4815 C   0  0  0  0  0  0  0  0  0  0  0  0
   18.7964  -25.6518   -6.7032 C   0  0  0  0  0  0  0  0  0  0  0  0
   18.1005  -25.5516   -8.0096 C   0  0  2  0  0  0  0  0  0  0  0  0
   18.4556  -24.1786   -8.5684 N   0  0  0  0  0  0  0  0  0  0  0  0
   16.6434  -25.3989   -7.8244 C   0  0  0  0  0  0  0  0  0  0  0  0
   15.8051  -26.5189   -7.9677 O   0  0  0  0  0  0  0  0  0  0  0  0
   16.0891  -24.3442   -7.5490 O   0  0  0  0  0  0  0  0  0  0  0  0
  2  1  1  0
  3  2  1  0
  4  3  1  0
  4  5  1  0
  5  6  1  6
  7  8  2  0
  7  5  1  0
  9  7  1  0
 10  9  1  0
 11 10  1  0
 12 11  1  0
 12 13  1  0
 13 14  1  6
 13  9  1  0
 14 15  2  0
 17 18  2  0
 17 16  1  0
 19 17  1  0
 20 19  1  0
 21 20  1  0
 22 21  1  0
 23 22  1  1
 24 23  1  0
 24 14  1  0
 25 26  1  0
 25 23  1  0
 27 25  2  0
M  END
$$$$
