EFD.pdb
     RDKit          3D

 29 29  0  0  1  0  0  0  0  0999 V2000
    8.2293  -18.2619   20.9647 N   0  0  0  0  0  0  0  0  0  0  0  0
    9.3923  -17.4354   20.9608 C   0  0  1  0  0  0  0  0  0  0  0  0
    9.3806  -16.3779   19.8904 C   0  0  0  0  0  0  0  0  0  0  0  0
    8.0292  -15.7323   19.7229 C   0  0  0  0  0  0  0  0  0  0  0  0
    7.9644  -14.7735   18.6291 C   0  0  0  0  0  0  0  0  0  0  0  0
    6.9162  -14.1326   18.4085 O   0  0  0  0  0  0  0  0  0  0  0  0
    9.5084  -16.7507   22.2752 C   0  0  0  0  0  0  0  0  0  0  0  0
   10.5156  -16.0230   22.5545 O   0  0  0  0  0  0  0  0  0  0  0  0
    9.0587  -14.5567   17.8186 O   0  0  0  0  0  0  0  0  0  0  0  0
    8.5230  -16.8576   23.2936 N   0  0  0  0  0  0  0  0  0  0  0  0
    8.7451  -16.3431   24.6446 C   0  0  1  0  0  0  0  0  0  0  0  0
    7.4038  -15.8604   25.1415 C   0  0  0  0  0  0  0  0  0  0  0  0
    7.4212  -14.4353   25.4959 C   0  0  0  0  0  0  0  0  0  0  0  0
    7.0385  -13.4500   24.5851 C   0  0  0  0  0  0  0  0  0  0  0  0
    7.0529  -12.1176   24.9154 C   0  0  0  0  0  0  0  0  0  0  0  0
    7.4558  -11.7431   26.1790 C   0  0  0  0  0  0  0  0  0  0  0  0
    7.8446  -12.6975   27.1143 C   0  0  0  0  0  0  0  0  0  0  0  0
    7.8206  -14.0239   26.7574 C   0  0  0  0  0  0  0  0  0  0  0  0
    9.3803  -17.3424   25.5089 C   0  0  0  0  0  0  0  0  0  0  0  0
    8.8372  -18.4453   25.7522 O   0  0  0  0  0  0  0  0  0  0  0  0
   10.6547  -17.1154   26.1226 N   0  0  0  0  0  0  0  0  0  0  0  0
   11.3217  -18.1499   26.9178 C   0  0  1  0  0  0  0  0  0  0  0  0
   12.8113  -17.9728   26.8443 C   0  0  0  0  0  0  0  0  0  0  0  0
   13.5216  -18.9842   27.6230 C   0  0  0  0  0  0  0  0  0  0  0  0
   13.1465  -20.1698   27.6328 O   0  0  0  0  0  0  0  0  0  0  0  0
   10.7743  -18.0603   28.2914 C   0  0  0  0  0  0  0  0  0  0  0  0
   10.7812  -19.0683   29.0366 O   0  0  0  0  0  0  0  0  0  0  0  0
   14.6372  -18.6147   28.3667 O   0  0  0  0  0  0  0  0  0  0  0  0
   10.2402  -16.8886   28.8105 O   0  0  0  0  0  0  0  0  0  0  0  0
  2  1  1  1
  2  7  1  0
  2  3  1  0
  4  3  1  0
  4  5  1  0
  5  6  2  0
  5  9  1  0
  7  8  2  0
 10 11  1  0
 10  7  1  0
 11 12  1  1
 13 14  2  0
 13 12  1  0
 15 14  1  0
 16 15  2  0
 17 16  1  0
 17 18  2  0
 18 13  1  0
 19 11  1  0
 20 19  2  0
 21 19  1  0
 22 26  1  0
 22 21  1  0
 22 23  1  1
 23 24  1  0
 24 28  1  0
 24 25  2  0
 26 29  1  0
 27 26  2  0
M  END
$$$$
