EFD.pdb
     RDKit          3D

 29 29  0  0  1  0  0  0  0  0999 V2000
    7.0456  -17.5418   20.9528 N   0  0  0  0  0  0  0  0  0  0  0  0
    8.1619  -16.7944   20.4724 C   0  0  1  0  0  0  0  0  0  0  0  0
    7.9227  -16.1364   19.1404 C   0  0  0  0  0  0  0  0  0  0  0  0
    8.9896  -16.4643   18.1278 C   0  0  0  0  0  0  0  0  0  0  0  0
    8.7162  -15.9483   16.7941 C   0  0  0  0  0  0  0  0  0  0  0  0
    9.5444  -16.1012   15.8727 O   0  0  0  0  0  0  0  0  0  0  0  0
    8.4932  -15.7277   21.4535 C   0  0  0  0  0  0  0  0  0  0  0  0
    7.9405  -14.5817   21.3954 O   0  0  0  0  0  0  0  0  0  0  0  0
    7.5390  -15.2825   16.5256 O   0  0  0  0  0  0  0  0  0  0  0  0
    9.4318  -15.9075   22.5051 N   0  0  0  0  0  0  0  0  0  0  0  0
    9.1534  -15.4772   23.8751 C   0  0  1  0  0  0  0  0  0  0  0  0
    7.6744  -15.1809   23.9353 C   0  0  0  0  0  0  0  0  0  0  0  0
    7.3544  -14.1420   24.9228 C   0  0  0  0  0  0  0  0  0  0  0  0
    7.5662  -12.7889   24.6563 C   0  0  0  0  0  0  0  0  0  0  0  0
    7.2663  -11.8166   25.5777 C   0  0  0  0  0  0  0  0  0  0  0  0
    6.7425  -12.1860   26.7978 C   0  0  0  0  0  0  0  0  0  0  0  0
    6.5174  -13.5259   27.0996 C   0  0  0  0  0  0  0  0  0  0  0  0
    6.8265  -14.4783   26.1591 C   0  0  0  0  0  0  0  0  0  0  0  0
    9.6071  -16.4659   24.8579 C   0  0  0  0  0  0  0  0  0  0  0  0
    9.0039  -17.5510   25.0291 O   0  0  0  0  0  0  0  0  0  0  0  0
   10.7629  -16.2483   25.6758 N   0  0  0  0  0  0  0  0  0  0  0  0
   11.2777  -17.2861   26.5732 C   0  0  1  0  0  0  0  0  0  0  0  0
   12.7790  -17.2988   26.5350 C   0  0  0  0  0  0  0  0  0  0  0  0
   13.2901  -17.5200   25.1844 C   0  0  0  0  0  0  0  0  0  0  0  0
   12.8319  -18.4230   24.4627 O   0  0  0  0  0  0  0  0  0  0  0  0
   10.7144  -17.0154   27.9163 C   0  0  0  0  0  0  0  0  0  0  0  0
   10.0599  -15.9664   28.1224 O   0  0  0  0  0  0  0  0  0  0  0  0
   14.3071  -16.7061   24.6973 O   0  0  0  0  0  0  0  0  0  0  0  0
   10.8773  -17.8847   28.9865 O   0  0  0  0  0  0  0  0  0  0  0  0
  2  1  1  1
  2  7  1  0
  2  3  1  0
  4  3  1  0
  4  5  1  0
  5  6  2  0
  5  9  1  0
  7  8  2  0
 10 11  1  0
 10  7  1  0
 11 12  1  6
 13 14  2  0
 13 12  1  0
 15 14  1  0
 16 15  2  0
 17 16  1  0
 17 18  2  0
 18 13  1  0
 19 11  1  0
 20 19  2  0
 21 19  1  0
 22 26  1  0
 22 21  1  0
 22 23  1  1
 23 24  1  0
 24 28  1  0
 24 25  2  0
 26 29  1  0
 27 26  2  0
M  END
$$$$
