EFD.pdb
     RDKit          3D

 29 29  0  0  1  0  0  0  0  0999 V2000
    8.7108  -18.2766   20.5875 N   0  0  0  0  0  0  0  0  0  0  0  0
   10.0083  -17.7582   20.8766 C   0  0  1  0  0  0  0  0  0  0  0  0
   10.6167  -16.9800   19.7414 C   0  0  0  0  0  0  0  0  0  0  0  0
    9.9432  -17.2517   18.4209 C   0  0  0  0  0  0  0  0  0  0  0  0
   10.5130  -16.5114   17.3042 C   0  0  0  0  0  0  0  0  0  0  0  0
   10.0025  -16.5855   16.1675 O   0  0  0  0  0  0  0  0  0  0  0  0
    9.9210  -16.8533   22.0529 C   0  0  0  0  0  0  0  0  0  0  0  0
   10.9283  -16.1795   22.4444 O   0  0  0  0  0  0  0  0  0  0  0  0
   11.6252  -15.7161   17.4825 O   0  0  0  0  0  0  0  0  0  0  0  0
    8.7306  -16.6796   22.8093 N   0  0  0  0  0  0  0  0  0  0  0  0
    8.7259  -15.9939   24.1013 C   0  0  1  0  0  0  0  0  0  0  0  0
    7.3398  -15.4212   24.2736 C   0  0  0  0  0  0  0  0  0  0  0  0
    7.3229  -14.2678   25.1825 C   0  0  0  0  0  0  0  0  0  0  0  0
    7.7331  -13.0011   24.7652 C   0  0  0  0  0  0  0  0  0  0  0  0
    7.7165  -11.9218   25.6132 C   0  0  0  0  0  0  0  0  0  0  0  0
    7.2837  -12.0933   26.9104 C   0  0  0  0  0  0  0  0  0  0  0  0
    6.8670  -13.3417   27.3627 C   0  0  0  0  0  0  0  0  0  0  0  0
    6.8938  -14.4048   26.4930 C   0  0  0  0  0  0  0  0  0  0  0  0
    9.1472  -16.8819   25.1891 C   0  0  0  0  0  0  0  0  0  0  0  0
    8.5580  -17.9628   25.4242 O   0  0  0  0  0  0  0  0  0  0  0  0
   10.2533  -16.5652   26.0425 N   0  0  0  0  0  0  0  0  0  0  0  0
   10.7656  -17.5228   27.0264 C   0  0  1  0  0  0  0  0  0  0  0  0
   12.2571  -17.6425   26.8974 C   0  0  0  0  0  0  0  0  0  0  0  0
   12.8082  -18.6332   27.8187 C   0  0  0  0  0  0  0  0  0  0  0  0
   12.0670  -19.3247   28.5390 O   0  0  0  0  0  0  0  0  0  0  0  0
   10.3145  -17.0578   28.3586 C   0  0  0  0  0  0  0  0  0  0  0  0
   10.2027  -17.8742   29.3033 O   0  0  0  0  0  0  0  0  0  0  0  0
   14.1862  -18.8060   27.8914 O   0  0  0  0  0  0  0  0  0  0  0  0
   10.0009  -15.7315   28.6231 O   0  0  0  0  0  0  0  0  0  0  0  0
  2  1  1  6
  2  7  1  0
  2  3  1  0
  4  3  1  0
  4  5  1  0
  5  6  2  0
  5  9  1  0
  7  8  2  0
 10 11  1  0
 10  7  1  0
 11 12  1  1
 13 14  2  0
 13 12  1  0
 15 14  1  0
 16 15  2  0
 17 16  1  0
 17 18  2  0
 18 13  1  0
 19 11  1  0
 20 19  2  0
 21 19  1  0
 22 26  1  0
 22 21  1  0
 22 23  1  1
 23 24  1  0
 24 28  1  0
 24 25  2  0
 26 29  1  0
 27 26  2  0
M  END
$$$$
