EFD.pdb
     RDKit          3D

 29 29  0  0  1  0  0  0  0  0999 V2000
    9.7256  -16.4650   19.0235 N   0  0  0  0  0  0  0  0  0  0  0  0
    8.8979  -16.9566   20.0766 C   0  0  1  0  0  0  0  0  0  0  0  0
    9.1745  -18.3887   20.4465 C   0  0  0  0  0  0  0  0  0  0  0  0
    9.7665  -19.1811   19.3095 C   0  0  0  0  0  0  0  0  0  0  0  0
    9.9764  -20.5886   19.6171 C   0  0  0  0  0  0  0  0  0  0  0  0
    9.9388  -21.4481   18.7126 O   0  0  0  0  0  0  0  0  0  0  0  0
    9.1077  -16.1247   21.2906 C   0  0  0  0  0  0  0  0  0  0  0  0
   10.2540  -15.6479   21.5748 O   0  0  0  0  0  0  0  0  0  0  0  0
   10.2201  -20.9965   20.9115 O   0  0  0  0  0  0  0  0  0  0  0  0
    8.0646  -15.8088   22.2024 N   0  0  0  0  0  0  0  0  0  0  0  0
    8.3004  -15.0074   23.4031 C   0  0  1  0  0  0  0  0  0  0  0  0
    6.9842  -14.3493   23.7402 C   0  0  0  0  0  0  0  0  0  0  0  0
    7.0568  -13.5603   24.9767 C   0  0  0  0  0  0  0  0  0  0  0  0
    7.8744  -12.4344   25.0796 C   0  0  0  0  0  0  0  0  0  0  0  0
    7.9422  -11.6951   26.2342 C   0  0  0  0  0  0  0  0  0  0  0  0
    7.1832  -12.0744   27.3202 C   0  0  0  0  0  0  0  0  0  0  0  0
    6.3559  -13.1917   27.2552 C   0  0  0  0  0  0  0  0  0  0  0  0
    6.3072  -13.9135   26.0874 C   0  0  0  0  0  0  0  0  0  0  0  0
    8.8643  -15.8120   24.4912 C   0  0  0  0  0  0  0  0  0  0  0  0
    8.2755  -16.8246   24.9366 O   0  0  0  0  0  0  0  0  0  0  0  0
   10.1172  -15.4870   25.1050 N   0  0  0  0  0  0  0  0  0  0  0  0
   10.7314  -16.3590   26.1099 C   0  0  1  0  0  0  0  0  0  0  0  0
   12.2150  -16.1292   26.1507 C   0  0  0  0  0  0  0  0  0  0  0  0
   12.8775  -16.6171   24.9435 C   0  0  0  0  0  0  0  0  0  0  0  0
   14.0236  -16.2408   24.6415 O   0  0  0  0  0  0  0  0  0  0  0  0
   10.0471  -16.0871   27.3954 C   0  0  0  0  0  0  0  0  0  0  0  0
    9.6958  -14.9190   27.6843 O   0  0  0  0  0  0  0  0  0  0  0  0
   12.2146  -17.5183   24.1174 O   0  0  0  0  0  0  0  0  0  0  0  0
    9.7671  -17.0833   28.3209 O   0  0  0  0  0  0  0  0  0  0  0  0
  2  1  1  6
  2  7  1  0
  2  3  1  0
  4  3  1  0
  4  5  1  0
  5  6  2  0
  5  9  1  0
  7  8  2  0
 10 11  1  0
 10  7  1  0
 11 12  1  1
 13 14  2  0
 13 12  1  0
 15 14  1  0
 16 15  2  0
 17 16  1  0
 17 18  2  0
 18 13  1  0
 19 11  1  0
 20 19  2  0
 21 19  1  0
 22 26  1  0
 22 21  1  0
 22 23  1  1
 23 24  1  0
 24 28  1  0
 24 25  2  0
 26 29  1  0
 27 26  2  0
M  END
$$$$
