EFD.pdb
     RDKit          3D

 29 29  0  0  1  0  0  0  0  0999 V2000
    8.5985  -17.7869   20.2376 N   0  0  0  0  0  0  0  0  0  0  0  0
    9.8471  -17.1100   20.3730 C   0  0  1  0  0  0  0  0  0  0  0  0
   10.3055  -16.4263   19.1133 C   0  0  0  0  0  0  0  0  0  0  0  0
   11.4121  -17.1728   18.4139 C   0  0  0  0  0  0  0  0  0  0  0  0
   11.1818  -17.3721   16.9901 C   0  0  0  0  0  0  0  0  0  0  0  0
   10.8224  -16.4207   16.2663 O   0  0  0  0  0  0  0  0  0  0  0  0
    9.7286  -16.0758   21.4344 C   0  0  0  0  0  0  0  0  0  0  0  0
   10.6402  -15.2044   21.6126 O   0  0  0  0  0  0  0  0  0  0  0  0
   11.3566  -18.6139   16.4168 O   0  0  0  0  0  0  0  0  0  0  0  0
    8.6117  -15.9880   22.3084 N   0  0  0  0  0  0  0  0  0  0  0  0
    8.6492  -15.1959   23.5376 C   0  0  1  0  0  0  0  0  0  0  0  0
    7.2575  -14.6436   23.7300 C   0  0  0  0  0  0  0  0  0  0  0  0
    7.1387  -13.8497   24.9598 C   0  0  0  0  0  0  0  0  0  0  0  0
    7.7112  -12.5821   25.0708 C   0  0  0  0  0  0  0  0  0  0  0  0
    7.5997  -11.8383   26.2191 C   0  0  0  0  0  0  0  0  0  0  0  0
    6.9046  -12.3565   27.2904 C   0  0  0  0  0  0  0  0  0  0  0  0
    6.3199  -13.6173   27.2169 C   0  0  0  0  0  0  0  0  0  0  0  0
    6.4468  -14.3403   26.0557 C   0  0  0  0  0  0  0  0  0  0  0  0
    9.1459  -15.9787   24.6733 C   0  0  0  0  0  0  0  0  0  0  0  0
    8.6100  -17.0588   25.0150 O   0  0  0  0  0  0  0  0  0  0  0  0
   10.2691  -15.5543   25.4546 N   0  0  0  0  0  0  0  0  0  0  0  0
   10.8604  -16.4142   26.4834 C   0  0  1  0  0  0  0  0  0  0  0  0
   12.3586  -16.3269   26.4260 C   0  0  0  0  0  0  0  0  0  0  0  0
   12.8813  -16.7394   25.1257 C   0  0  0  0  0  0  0  0  0  0  0  0
   13.8747  -16.1833   24.6254 O   0  0  0  0  0  0  0  0  0  0  0  0
   10.2847  -15.9940   27.7821 C   0  0  0  0  0  0  0  0  0  0  0  0
   10.4224  -16.7210   28.7940 O   0  0  0  0  0  0  0  0  0  0  0  0
   12.2568  -17.7724   24.4350 O   0  0  0  0  0  0  0  0  0  0  0  0
    9.5827  -14.8070   27.9419 O   0  0  0  0  0  0  0  0  0  0  0  0
  2  1  1  6
  2  7  1  0
  2  3  1  0
  4  3  1  0
  4  5  1  0
  5  6  2  0
  5  9  1  0
  7  8  2  0
 10 11  1  0
 10  7  1  0
 11 12  1  1
 13 14  2  0
 13 12  1  0
 15 14  1  0
 16 15  2  0
 17 16  1  0
 17 18  2  0
 18 13  1  0
 19 11  1  0
 20 19  2  0
 21 19  1  0
 22 26  1  0
 22 21  1  0
 22 23  1  1
 23 24  1  0
 24 28  1  0
 24 25  2  0
 26 29  1  0
 27 26  2  0
M  END
$$$$
