EFD.pdb
     RDKit          3D

 29 29  0  0  1  0  0  0  0  0999 V2000
    9.9096  -16.5567   19.4212 N   0  0  0  0  0  0  0  0  0  0  0  0
    8.7761  -16.6775   20.2793 C   0  0  1  0  0  0  0  0  0  0  0  0
    8.4651  -18.0952   20.6765 C   0  0  0  0  0  0  0  0  0  0  0  0
    9.5763  -19.0540   20.3343 C   0  0  0  0  0  0  0  0  0  0  0  0
    9.5061  -19.5792   18.9782 C   0  0  0  0  0  0  0  0  0  0  0  0
   10.5277  -20.0270   18.4177 O   0  0  0  0  0  0  0  0  0  0  0  0
    9.0207  -15.9001   21.5227 C   0  0  0  0  0  0  0  0  0  0  0  0
   10.2034  -15.6480   21.9224 O   0  0  0  0  0  0  0  0  0  0  0  0
    8.3114  -19.5913   18.2900 O   0  0  0  0  0  0  0  0  0  0  0  0
    7.9727  -15.3933   22.3375 N   0  0  0  0  0  0  0  0  0  0  0  0
    8.2351  -14.7267   23.6127 C   0  0  1  0  0  0  0  0  0  0  0  0
    7.0003  -13.9191   23.9323 C   0  0  0  0  0  0  0  0  0  0  0  0
    7.1107  -13.2183   25.2183 C   0  0  0  0  0  0  0  0  0  0  0  0
    7.9970  -12.1560   25.3991 C   0  0  0  0  0  0  0  0  0  0  0  0
    8.1002  -11.4991   26.6000 C   0  0  0  0  0  0  0  0  0  0  0  0
    7.3083  -11.8990   27.6547 C   0  0  0  0  0  0  0  0  0  0  0  0
    6.4126  -12.9546   27.5121 C   0  0  0  0  0  0  0  0  0  0  0  0
    6.3295  -13.5944   26.2993 C   0  0  0  0  0  0  0  0  0  0  0  0
    8.6132  -15.6827   24.6579 C   0  0  0  0  0  0  0  0  0  0  0  0
    7.8751  -16.6467   24.9687 O   0  0  0  0  0  0  0  0  0  0  0  0
    9.8447  -15.5695   25.3809 N   0  0  0  0  0  0  0  0  0  0  0  0
   10.2645  -16.5850   26.3505 C   0  0  1  0  0  0  0  0  0  0  0  0
   11.7104  -16.9308   26.1377 C   0  0  0  0  0  0  0  0  0  0  0  0
   11.9568  -17.4499   24.7946 C   0  0  0  0  0  0  0  0  0  0  0  0
   11.1744  -18.2570   24.2629 O   0  0  0  0  0  0  0  0  0  0  0  0
    9.9692  -16.0451   27.6981 C   0  0  0  0  0  0  0  0  0  0  0  0
    9.7610  -14.8185   27.8508 O   0  0  0  0  0  0  0  0  0  0  0  0
   13.0866  -17.0342   24.0983 O   0  0  0  0  0  0  0  0  0  0  0  0
    9.9093  -16.8467   28.8300 O   0  0  0  0  0  0  0  0  0  0  0  0
  2  1  1  6
  2  7  1  0
  2  3  1  0
  4  3  1  0
  4  5  1  0
  5  6  2  0
  5  9  1  0
  7  8  2  0
 10 11  1  0
 10  7  1  0
 11 12  1  1
 13 14  2  0
 13 12  1  0
 15 14  1  0
 16 15  2  0
 17 16  1  0
 17 18  2  0
 18 13  1  0
 19 11  1  0
 20 19  2  0
 21 19  1  0
 22 26  1  0
 22 21  1  0
 22 23  1  1
 23 24  1  0
 24 28  1  0
 24 25  2  0
 26 29  1  0
 27 26  2  0
M  END
$$$$
