EFD.pdb
     RDKit          3D

 29 29  0  0  1  0  0  0  0  0999 V2000
    7.7619  -17.5347   19.5199 N   0  0  0  0  0  0  0  0  0  0  0  0
    9.1507  -17.2445   19.6708 C   0  0  1  0  0  0  0  0  0  0  0  0
    9.7444  -16.5006   18.5051 C   0  0  0  0  0  0  0  0  0  0  0  0
    8.7919  -16.3807   17.3434 C   0  0  0  0  0  0  0  0  0  0  0  0
    9.4332  -16.4878   16.0407 C   0  0  0  0  0  0  0  0  0  0  0  0
   10.6624  -16.6871   15.9532 O   0  0  0  0  0  0  0  0  0  0  0  0
    9.3458  -16.4132   20.8877 C   0  0  0  0  0  0  0  0  0  0  0  0
   10.5070  -16.0377   21.2522 O   0  0  0  0  0  0  0  0  0  0  0  0
    8.6949  -16.3712   14.8820 O   0  0  0  0  0  0  0  0  0  0  0  0
    8.2716  -15.9870   21.7145 N   0  0  0  0  0  0  0  0  0  0  0  0
    8.4967  -15.2874   22.9792 C   0  0  1  0  0  0  0  0  0  0  0  0
    7.2607  -14.4584   23.2323 C   0  0  0  0  0  0  0  0  0  0  0  0
    7.3320  -13.7265   24.5035 C   0  0  0  0  0  0  0  0  0  0  0  0
    6.5690  -14.1039   25.6091 C   0  0  0  0  0  0  0  0  0  0  0  0
    6.6355  -13.4216   26.7984 C   0  0  0  0  0  0  0  0  0  0  0  0
    7.4776  -12.3357   26.9036 C   0  0  0  0  0  0  0  0  0  0  0  0
    8.2540  -11.9295   25.8224 C   0  0  0  0  0  0  0  0  0  0  0  0
    8.1679  -12.6302   24.6439 C   0  0  0  0  0  0  0  0  0  0  0  0
    8.8271  -16.2176   24.0632 C   0  0  0  0  0  0  0  0  0  0  0  0
    8.0880  -17.1890   24.3472 O   0  0  0  0  0  0  0  0  0  0  0  0
   10.0103  -16.0690   24.8569 N   0  0  0  0  0  0  0  0  0  0  0  0
   10.4828  -17.1369   25.7422 C   0  0  1  0  0  0  0  0  0  0  0  0
   11.9694  -17.2986   25.6030 C   0  0  0  0  0  0  0  0  0  0  0  0
   12.4895  -18.3486   26.4754 C   0  0  0  0  0  0  0  0  0  0  0  0
   13.5902  -18.2285   27.0415 O   0  0  0  0  0  0  0  0  0  0  0  0
   10.0434  -16.7885   27.1134 C   0  0  0  0  0  0  0  0  0  0  0  0
   10.0339  -15.5910   27.4840 O   0  0  0  0  0  0  0  0  0  0  0  0
   11.7405  -19.5030   26.6763 O   0  0  0  0  0  0  0  0  0  0  0  0
    9.6309  -17.7429   28.0335 O   0  0  0  0  0  0  0  0  0  0  0  0
  2  1  1  6
  2  7  1  0
  2  3  1  0
  4  3  1  0
  4  5  1  0
  5  6  2  0
  5  9  1  0
  7  8  2  0
 10 11  1  0
 10  7  1  0
 11 12  1  1
 13 14  2  0
 13 12  1  0
 15 14  1  0
 16 15  2  0
 17 16  1  0
 17 18  2  0
 18 13  1  0
 19 11  1  0
 20 19  2  0
 21 19  1  0
 22 26  1  0
 22 21  1  0
 22 23  1  1
 23 24  1  0
 24 28  1  0
 24 25  2  0
 26 29  1  0
 27 26  2  0
M  END
$$$$
