EFD.pdb
     RDKit          3D

 29 29  0  0  1  0  0  0  0  0999 V2000
    7.4411  -17.5973   19.5482 N   0  0  0  0  0  0  0  0  0  0  0  0
    8.7925  -17.1406   19.5735 C   0  0  1  0  0  0  0  0  0  0  0  0
    9.2101  -16.4142   18.3234 C   0  0  0  0  0  0  0  0  0  0  0  0
    8.3979  -16.8128   17.1182 C   0  0  0  0  0  0  0  0  0  0  0  0
    8.7684  -16.1102   15.8980 C   0  0  0  0  0  0  0  0  0  0  0  0
    9.5990  -16.6049   15.1084 O   0  0  0  0  0  0  0  0  0  0  0  0
    8.9721  -16.2120   20.7204 C   0  0  0  0  0  0  0  0  0  0  0  0
   10.0836  -15.6260   20.9284 O   0  0  0  0  0  0  0  0  0  0  0  0
    8.2086  -14.8874   15.5934 O   0  0  0  0  0  0  0  0  0  0  0  0
    7.9365  -15.9182   21.6481 N   0  0  0  0  0  0  0  0  0  0  0  0
    8.1959  -15.2093   22.9009 C   0  0  1  0  0  0  0  0  0  0  0  0
    6.9064  -14.5179   23.2730 C   0  0  0  0  0  0  0  0  0  0  0  0
    7.0186  -13.7703   24.5321 C   0  0  0  0  0  0  0  0  0  0  0  0
    7.7390  -12.5782   24.6137 C   0  0  0  0  0  0  0  0  0  0  0  0
    7.8436  -11.8776   25.7896 C   0  0  0  0  0  0  0  0  0  0  0  0
    7.2212  -12.3640   26.9189 C   0  0  0  0  0  0  0  0  0  0  0  0
    6.4938  -13.5497   26.8761 C   0  0  0  0  0  0  0  0  0  0  0  0
    6.4054  -14.2307   25.6863 C   0  0  0  0  0  0  0  0  0  0  0  0
    8.7145  -16.1082   23.9365 C   0  0  0  0  0  0  0  0  0  0  0  0
    8.1824  -17.2176   24.1741 O   0  0  0  0  0  0  0  0  0  0  0  0
    9.8561  -15.7700   24.7331 N   0  0  0  0  0  0  0  0  0  0  0  0
   10.5713  -16.7778   25.5207 C   0  0  1  0  0  0  0  0  0  0  0  0
   12.0509  -16.5310   25.4474 C   0  0  0  0  0  0  0  0  0  0  0  0
   12.8149  -17.5862   26.1084 C   0  0  0  0  0  0  0  0  0  0  0  0
   12.8177  -17.6995   27.3468 O   0  0  0  0  0  0  0  0  0  0  0  0
   10.0217  -16.7231   26.8953 C   0  0  0  0  0  0  0  0  0  0  0  0
    9.4651  -17.7319   27.3890 O   0  0  0  0  0  0  0  0  0  0  0  0
   13.5523  -18.4798   25.3391 O   0  0  0  0  0  0  0  0  0  0  0  0
   10.0925  -15.5842   27.6861 O   0  0  0  0  0  0  0  0  0  0  0  0
  2  1  1  6
  2  7  1  0
  2  3  1  0
  4  3  1  0
  4  5  1  0
  5  6  2  0
  5  9  1  0
  7  8  2  0
 10 11  1  0
 10  7  1  0
 11 12  1  1
 13 14  2  0
 13 12  1  0
 15 14  1  0
 16 15  2  0
 17 16  1  0
 17 18  2  0
 18 13  1  0
 19 11  1  0
 20 19  2  0
 21 19  1  0
 22 26  1  0
 22 21  1  0
 22 23  1  1
 23 24  1  0
 24 28  1  0
 24 25  2  0
 26 29  1  0
 27 26  2  0
M  END
$$$$
