EFD.pdb
     RDKit          3D

 29 29  0  0  1  0  0  0  0  0999 V2000
   10.1176  -16.2926   19.1103 N   0  0  0  0  0  0  0  0  0  0  0  0
    9.2566  -16.8079   20.1245 C   0  0  1  0  0  0  0  0  0  0  0  0
    9.5649  -18.2274   20.5175 C   0  0  0  0  0  0  0  0  0  0  0  0
    9.4472  -19.1906   19.3644 C   0  0  0  0  0  0  0  0  0  0  0  0
    9.6371  -20.5849   19.7380 C   0  0  0  0  0  0  0  0  0  0  0  0
    9.9179  -20.8938   20.9145 O   0  0  0  0  0  0  0  0  0  0  0  0
    9.3764  -15.9629   21.3418 C   0  0  0  0  0  0  0  0  0  0  0  0
   10.5102  -15.5537   21.7530 O   0  0  0  0  0  0  0  0  0  0  0  0
    9.5101  -21.5876   18.8001 O   0  0  0  0  0  0  0  0  0  0  0  0
    8.2563  -15.5599   22.1178 N   0  0  0  0  0  0  0  0  0  0  0  0
    8.4081  -14.8880   23.4081 C   0  0  1  0  0  0  0  0  0  0  0  0
    7.1040  -14.1749   23.6721 C   0  0  0  0  0  0  0  0  0  0  0  0
    7.0988  -13.4859   24.9691 C   0  0  0  0  0  0  0  0  0  0  0  0
    6.3205  -13.9382   26.0351 C   0  0  0  0  0  0  0  0  0  0  0  0
    6.3157  -13.2961   27.2483 C   0  0  0  0  0  0  0  0  0  0  0  0
    7.0998  -12.1755   27.4183 C   0  0  0  0  0  0  0  0  0  0  0  0
    7.8894  -11.6946   26.3781 C   0  0  0  0  0  0  0  0  0  0  0  0
    7.8752  -12.3565   25.1743 C   0  0  0  0  0  0  0  0  0  0  0  0
    8.8042  -15.8240   24.4647 C   0  0  0  0  0  0  0  0  0  0  0  0
    8.1441  -16.8609   24.7091 O   0  0  0  0  0  0  0  0  0  0  0  0
    9.9652  -15.6069   25.2753 N   0  0  0  0  0  0  0  0  0  0  0  0
   10.4234  -16.6037   26.2468 C   0  0  1  0  0  0  0  0  0  0  0  0
   11.9102  -16.7837   26.1348 C   0  0  0  0  0  0  0  0  0  0  0  0
   12.3057  -17.2586   24.8111 C   0  0  0  0  0  0  0  0  0  0  0  0
   11.6901  -18.1804   24.2476 O   0  0  0  0  0  0  0  0  0  0  0  0
    9.9738  -16.1455   27.5819 C   0  0  0  0  0  0  0  0  0  0  0  0
   10.0479  -16.9165   28.5676 O   0  0  0  0  0  0  0  0  0  0  0  0
   13.3899  -16.6692   24.1699 O   0  0  0  0  0  0  0  0  0  0  0  0
    9.4615  -14.8746   27.8049 O   0  0  0  0  0  0  0  0  0  0  0  0
  2  1  1  6
  2  7  1  0
  2  3  1  0
  4  3  1  0
  4  5  1  0
  5  6  2  0
  5  9  1  0
  7  8  2  0
 10 11  1  0
 10  7  1  0
 11 12  1  1
 13 14  2  0
 13 12  1  0
 15 14  1  0
 16 15  2  0
 17 16  1  0
 17 18  2  0
 18 13  1  0
 19 11  1  0
 20 19  2  0
 21 19  1  0
 22 26  1  0
 22 21  1  0
 22 23  1  1
 23 24  1  0
 24 28  1  0
 24 25  2  0
 26 29  1  0
 27 26  2  0
M  END
$$$$
