EFD.pdb
     RDKit          3D

 29 29  0  0  1  0  0  0  0  0999 V2000
    9.4735  -16.0485   19.2403 N   0  0  0  0  0  0  0  0  0  0  0  0
    8.8333  -16.7349   20.3149 C   0  0  1  0  0  0  0  0  0  0  0  0
    9.3146  -18.1480   20.5036 C   0  0  0  0  0  0  0  0  0  0  0  0
    9.6845  -18.8168   19.2048 C   0  0  0  0  0  0  0  0  0  0  0  0
   10.0169  -20.2277   19.3409 C   0  0  0  0  0  0  0  0  0  0  0  0
   10.3688  -20.8954   18.3466 O   0  0  0  0  0  0  0  0  0  0  0  0
    9.0812  -15.9970   21.5814 C   0  0  0  0  0  0  0  0  0  0  0  0
   10.1731  -15.3720   21.7791 O   0  0  0  0  0  0  0  0  0  0  0  0
    9.9491  -20.8506   20.5692 O   0  0  0  0  0  0  0  0  0  0  0  0
    8.1359  -15.9382   22.6408 N   0  0  0  0  0  0  0  0  0  0  0  0
    8.3671  -15.1375   23.8428 C   0  0  1  0  0  0  0  0  0  0  0  0
    7.0372  -14.5222   24.2061 C   0  0  0  0  0  0  0  0  0  0  0  0
    7.1167  -13.7019   25.4216 C   0  0  0  0  0  0  0  0  0  0  0  0
    7.5915  -14.2223   26.6260 C   0  0  0  0  0  0  0  0  0  0  0  0
    7.6678  -13.4564   27.7626 C   0  0  0  0  0  0  0  0  0  0  0  0
    7.2649  -12.1393   27.7134 C   0  0  0  0  0  0  0  0  0  0  0  0
    6.7857  -11.5852   26.5301 C   0  0  0  0  0  0  0  0  0  0  0  0
    6.7200  -12.3742   25.4075 C   0  0  0  0  0  0  0  0  0  0  0  0
    8.9735  -15.9312   24.9159 C   0  0  0  0  0  0  0  0  0  0  0  0
    8.4206  -16.9609   25.3682 O   0  0  0  0  0  0  0  0  0  0  0  0
   10.2292  -15.5756   25.5065 N   0  0  0  0  0  0  0  0  0  0  0  0
   10.9140  -16.4616   26.4518 C   0  0  1  0  0  0  0  0  0  0  0  0
   12.3954  -16.2205   26.4000 C   0  0  0  0  0  0  0  0  0  0  0  0
   12.9560  -16.5390   25.0892 C   0  0  0  0  0  0  0  0  0  0  0  0
   12.3268  -17.2330   24.2714 O   0  0  0  0  0  0  0  0  0  0  0  0
   10.3134  -16.2200   27.7844 C   0  0  0  0  0  0  0  0  0  0  0  0
    9.4982  -15.2813   27.9442 O   0  0  0  0  0  0  0  0  0  0  0  0
   14.2159  -16.0576   24.7500 O   0  0  0  0  0  0  0  0  0  0  0  0
   10.6135  -16.9985   28.8940 O   0  0  0  0  0  0  0  0  0  0  0  0
  2  1  1  6
  2  7  1  0
  2  3  1  0
  4  3  1  0
  4  5  1  0
  5  6  2  0
  5  9  1  0
  7  8  2  0
 10 11  1  0
 10  7  1  0
 11 12  1  1
 13 14  2  0
 13 12  1  0
 15 14  1  0
 16 15  2  0
 17 16  1  0
 17 18  2  0
 18 13  1  0
 19 11  1  0
 20 19  2  0
 21 19  1  0
 22 26  1  0
 22 21  1  0
 22 23  1  1
 23 24  1  0
 24 28  1  0
 24 25  2  0
 26 29  1  0
 27 26  2  0
M  END
$$$$
