EFD.pdb
     RDKit          3D

 29 29  0  0  1  0  0  0  0  0999 V2000
   10.0568  -16.3100   18.3022 N   0  0  0  0  0  0  0  0  0  0  0  0
   10.8633  -17.3621   18.8295 C   0  0  1  0  0  0  0  0  0  0  0  0
   12.1532  -17.5694   18.0827 C   0  0  0  0  0  0  0  0  0  0  0  0
   12.1376  -16.9507   16.7086 C   0  0  0  0  0  0  0  0  0  0  0  0
   13.3669  -17.1542   15.9556 C   0  0  0  0  0  0  0  0  0  0  0  0
   14.2964  -16.3236   16.0218 O   0  0  0  0  0  0  0  0  0  0  0  0
   11.2013  -17.0553   20.2443 C   0  0  0  0  0  0  0  0  0  0  0  0
   11.7791  -17.9137   20.9868 O   0  0  0  0  0  0  0  0  0  0  0  0
   13.5260  -18.2669   15.1569 O   0  0  0  0  0  0  0  0  0  0  0  0
   10.9091  -15.8067   20.8568 N   0  0  0  0  0  0  0  0  0  0  0  0
   10.1416  -15.7128   22.0984 C   0  0  1  0  0  0  0  0  0  0  0  0
    8.6859  -15.7037   21.6986 C   0  0  0  0  0  0  0  0  0  0  0  0
    8.3212  -14.4930   20.9516 C   0  0  0  0  0  0  0  0  0  0  0  0
    9.0376  -13.3038   21.0903 C   0  0  0  0  0  0  0  0  0  0  0  0
    8.6989  -12.1718   20.3917 C   0  0  0  0  0  0  0  0  0  0  0  0
    7.6232  -12.2104   19.5309 C   0  0  0  0  0  0  0  0  0  0  0  0
    6.8847  -13.3784   19.3664 C   0  0  0  0  0  0  0  0  0  0  0  0
    7.2456  -14.4968   20.0779 C   0  0  0  0  0  0  0  0  0  0  0  0
   10.4982  -16.7789   23.0394 C   0  0  0  0  0  0  0  0  0  0  0  0
    9.6989  -17.7006   23.3261 O   0  0  0  0  0  0  0  0  0  0  0  0
   11.7773  -16.8272   23.6827 N   0  0  0  0  0  0  0  0  0  0  0  0
   12.1011  -17.8545   24.6763 C   0  0  1  0  0  0  0  0  0  0  0  0
   13.5734  -17.8363   24.9720 C   0  0  0  0  0  0  0  0  0  0  0  0
   14.3662  -18.2870   23.8307 C   0  0  0  0  0  0  0  0  0  0  0  0
   15.5645  -17.9751   23.7161 O   0  0  0  0  0  0  0  0  0  0  0  0
   11.2487  -17.5958   25.8600 C   0  0  0  0  0  0  0  0  0  0  0  0
   11.0961  -18.4856   26.7298 O   0  0  0  0  0  0  0  0  0  0  0  0
   13.7702  -19.0788   22.8552 O   0  0  0  0  0  0  0  0  0  0  0  0
   10.5929  -16.3890   26.0622 O   0  0  0  0  0  0  0  0  0  0  0  0
  2  1  1  6
  2  7  1  0
  2  3  1  0
  4  3  1  0
  4  5  1  0
  5  6  2  0
  5  9  1  0
  7  8  2  0
 10 11  1  0
 10  7  1  0
 11 12  1  6
 13 14  2  0
 13 12  1  0
 15 14  1  0
 16 15  2  0
 17 16  1  0
 17 18  2  0
 18 13  1  0
 19 11  1  0
 20 19  2  0
 21 19  1  0
 22 26  1  0
 22 21  1  0
 22 23  1  1
 23 24  1  0
 24 28  1  0
 24 25  2  0
 26 29  1  0
 27 26  2  0
M  END
$$$$
