EFD.pdb
     RDKit          3D

 29 29  0  0  1  0  0  0  0  0999 V2000
   10.6424  -16.6171   19.6450 N   0  0  0  0  0  0  0  0  0  0  0  0
    9.3554  -16.6586   20.2595 C   0  0  1  0  0  0  0  0  0  0  0  0
    8.8438  -18.0531   20.5007 C   0  0  0  0  0  0  0  0  0  0  0  0
    9.9523  -19.0603   20.6681 C   0  0  0  0  0  0  0  0  0  0  0  0
    9.4862  -20.4314   20.8191 C   0  0  0  0  0  0  0  0  0  0  0  0
    9.7292  -21.0728   21.8621 O   0  0  0  0  0  0  0  0  0  0  0  0
    9.4192  -15.9642   21.5724 C   0  0  0  0  0  0  0  0  0  0  0  0
   10.5163  -15.8564   22.2103 O   0  0  0  0  0  0  0  0  0  0  0  0
    8.7689  -21.0447   19.8139 O   0  0  0  0  0  0  0  0  0  0  0  0
    8.2827  -15.3830   22.1967 N   0  0  0  0  0  0  0  0  0  0  0  0
    8.3680  -14.7149   23.4951 C   0  0  1  0  0  0  0  0  0  0  0  0
    7.0755  -13.9541   23.6674 C   0  0  0  0  0  0  0  0  0  0  0  0
    7.0299  -13.2138   24.9350 C   0  0  0  0  0  0  0  0  0  0  0  0
    7.8205  -12.0848   25.1521 C   0  0  0  0  0  0  0  0  0  0  0  0
    7.7779  -11.3910   26.3358 C   0  0  0  0  0  0  0  0  0  0  0  0
    6.9327  -11.8204   27.3361 C   0  0  0  0  0  0  0  0  0  0  0  0
    6.1292  -12.9424   27.1562 C   0  0  0  0  0  0  0  0  0  0  0  0
    6.1916  -13.6181   25.9617 C   0  0  0  0  0  0  0  0  0  0  0  0
    8.6543  -15.6629   24.5761 C   0  0  0  0  0  0  0  0  0  0  0  0
    8.0023  -16.7244   24.7127 O   0  0  0  0  0  0  0  0  0  0  0  0
    9.6930  -15.4301   25.5348 N   0  0  0  0  0  0  0  0  0  0  0  0
   10.0804  -16.4499   26.5133 C   0  0  1  0  0  0  0  0  0  0  0  0
   11.4952  -16.8881   26.2648 C   0  0  0  0  0  0  0  0  0  0  0  0
   11.5962  -18.3340   26.0830 C   0  0  0  0  0  0  0  0  0  0  0  0
   10.5891  -19.0615   26.1377 O   0  0  0  0  0  0  0  0  0  0  0  0
    9.8608  -15.8660   27.8570 C   0  0  0  0  0  0  0  0  0  0  0  0
    9.5867  -16.6107   28.8274 O   0  0  0  0  0  0  0  0  0  0  0  0
   12.8406  -18.9071   25.8445 O   0  0  0  0  0  0  0  0  0  0  0  0
    9.9446  -14.5026   28.1047 O   0  0  0  0  0  0  0  0  0  0  0  0
  2  1  1  1
  2  7  1  0
  2  3  1  0
  4  3  1  0
  4  5  1  0
  5  6  2  0
  5  9  1  0
  7  8  2  0
 10 11  1  0
 10  7  1  0
 11 12  1  1
 13 14  2  0
 13 12  1  0
 15 14  1  0
 16 15  2  0
 17 16  1  0
 17 18  2  0
 18 13  1  0
 19 11  1  0
 20 19  2  0
 21 19  1  0
 22 26  1  0
 22 21  1  0
 22 23  1  6
 23 24  1  0
 24 28  1  0
 24 25  2  0
 26 29  1  0
 27 26  2  0
M  END
$$$$
