EFD.pdb
     RDKit          3D

 29 29  0  0  1  0  0  0  0  0999 V2000
    7.6591  -17.9408   19.9616 N   0  0  0  0  0  0  0  0  0  0  0  0
    8.9898  -17.4265   19.9449 C   0  0  1  0  0  0  0  0  0  0  0  0
    9.4000  -16.8501   18.6167 C   0  0  0  0  0  0  0  0  0  0  0  0
    8.2305  -16.3341   17.8185 C   0  0  0  0  0  0  0  0  0  0  0  0
    8.5820  -15.8859   16.4786 C   0  0  0  0  0  0  0  0  0  0  0  0
    8.3533  -16.6093   15.4873 O   0  0  0  0  0  0  0  0  0  0  0  0
    9.1097  -16.3509   20.9640 C   0  0  0  0  0  0  0  0  0  0  0  0
   10.2017  -15.7168   21.1301 O   0  0  0  0  0  0  0  0  0  0  0  0
    9.1729  -14.6558   16.2813 O   0  0  0  0  0  0  0  0  0  0  0  0
    8.0355  -15.9616   21.8088 N   0  0  0  0  0  0  0  0  0  0  0  0
    8.2585  -15.2678   23.0770 C   0  0  1  0  0  0  0  0  0  0  0  0
    7.1057  -14.3076   23.2447 C   0  0  0  0  0  0  0  0  0  0  0  0
    7.1503  -13.6036   24.5329 C   0  0  0  0  0  0  0  0  0  0  0  0
    6.3385  -13.9825   25.6025 C   0  0  0  0  0  0  0  0  0  0  0  0
    6.3802  -13.3264   26.8075 C   0  0  0  0  0  0  0  0  0  0  0  0
    7.2460  -12.2658   26.9654 C   0  0  0  0  0  0  0  0  0  0  0  0
    8.0710  -11.8589   25.9210 C   0  0  0  0  0  0  0  0  0  0  0  0
    8.0090  -12.5332   24.7258 C   0  0  0  0  0  0  0  0  0  0  0  0
    8.4218  -16.2085   24.1895 C   0  0  0  0  0  0  0  0  0  0  0  0
    7.5594  -17.0802   24.4486 O   0  0  0  0  0  0  0  0  0  0  0  0
    9.5735  -16.1847   25.0411 N   0  0  0  0  0  0  0  0  0  0  0  0
    9.8155  -17.2307   26.0385 C   0  0  1  0  0  0  0  0  0  0  0  0
   10.6590  -18.3216   25.4436 C   0  0  0  0  0  0  0  0  0  0  0  0
   11.9438  -17.8193   24.9631 C   0  0  0  0  0  0  0  0  0  0  0  0
   12.2863  -16.6394   25.1553 O   0  0  0  0  0  0  0  0  0  0  0  0
   10.4289  -16.5729   27.2156 C   0  0  0  0  0  0  0  0  0  0  0  0
   10.8346  -15.3897   27.1326 O   0  0  0  0  0  0  0  0  0  0  0  0
   12.7992  -18.6758   24.2785 O   0  0  0  0  0  0  0  0  0  0  0  0
   10.5822  -17.2142   28.4374 O   0  0  0  0  0  0  0  0  0  0  0  0
  2  1  1  6
  2  7  1  0
  2  3  1  0
  4  3  1  0
  4  5  1  0
  5  6  2  0
  5  9  1  0
  7  8  2  0
 10 11  1  0
 10  7  1  0
 11 12  1  1
 13 14  2  0
 13 12  1  0
 15 14  1  0
 16 15  2  0
 17 16  1  0
 17 18  2  0
 18 13  1  0
 19 11  1  0
 20 19  2  0
 21 19  1  0
 22 26  1  0
 22 21  1  0
 22 23  1  6
 23 24  1  0
 24 28  1  0
 24 25  2  0
 26 29  1  0
 27 26  2  0
M  END
$$$$
