EFD.pdb
     RDKit          3D

 29 29  0  0  1  0  0  0  0  0999 V2000
   10.5172  -16.4297   19.2906 N   0  0  0  0  0  0  0  0  0  0  0  0
    9.2360  -16.4213   19.9184 C   0  0  1  0  0  0  0  0  0  0  0  0
    8.5677  -17.7692   19.9498 C   0  0  0  0  0  0  0  0  0  0  0  0
    9.5535  -18.9082   19.9958 C   0  0  0  0  0  0  0  0  0  0  0  0
    8.9330  -20.2238   20.0586 C   0  0  0  0  0  0  0  0  0  0  0  0
    9.0375  -20.9262   21.0852 O   0  0  0  0  0  0  0  0  0  0  0  0
    9.3837  -15.9542   21.3220 C   0  0  0  0  0  0  0  0  0  0  0  0
   10.4821  -16.0917   21.9519 O   0  0  0  0  0  0  0  0  0  0  0  0
    8.2197  -20.7165   18.9863 O   0  0  0  0  0  0  0  0  0  0  0  0
    8.3304  -15.3335   22.0462 N   0  0  0  0  0  0  0  0  0  0  0  0
    8.5081  -14.8566   23.4175 C   0  0  1  0  0  0  0  0  0  0  0  0
    7.2475  -14.1062   23.7733 C   0  0  0  0  0  0  0  0  0  0  0  0
    7.2976  -13.5450   25.1296 C   0  0  0  0  0  0  0  0  0  0  0  0
    8.5080  -13.3412   25.7930 C   0  0  0  0  0  0  0  0  0  0  0  0
    8.5565  -12.8154   27.0601 C   0  0  0  0  0  0  0  0  0  0  0  0
    7.3795  -12.4801   27.6938 C   0  0  0  0  0  0  0  0  0  0  0  0
    6.1530  -12.6690   27.0638 C   0  0  0  0  0  0  0  0  0  0  0  0
    6.1334  -13.1969   25.7957 C   0  0  0  0  0  0  0  0  0  0  0  0
    8.8330  -15.9522   24.3359 C   0  0  0  0  0  0  0  0  0  0  0  0
    7.9895  -16.8259   24.6454 O   0  0  0  0  0  0  0  0  0  0  0  0
   10.1298  -16.0857   24.9298 N   0  0  0  0  0  0  0  0  0  0  0  0
   10.4962  -17.2624   25.7227 C   0  0  1  0  0  0  0  0  0  0  0  0
   11.9649  -17.5408   25.5791 C   0  0  0  0  0  0  0  0  0  0  0  0
   12.4167  -18.5825   26.4982 C   0  0  0  0  0  0  0  0  0  0  0  0
   12.1414  -19.7789   26.3007 O   0  0  0  0  0  0  0  0  0  0  0  0
   10.0700  -16.9952   27.1162 C   0  0  0  0  0  0  0  0  0  0  0  0
    9.8302  -17.9495   27.8928 O   0  0  0  0  0  0  0  0  0  0  0  0
   13.1681  -18.2298   27.6141 O   0  0  0  0  0  0  0  0  0  0  0  0
    9.9184  -15.7106   27.6204 O   0  0  0  0  0  0  0  0  0  0  0  0
  2  1  1  1
  2  7  1  0
  2  3  1  0
  4  3  1  0
  4  5  1  0
  5  6  2  0
  5  9  1  0
  7  8  2  0
 10 11  1  0
 10  7  1  0
 11 12  1  1
 13 14  2  0
 13 12  1  0
 15 14  1  0
 16 15  2  0
 17 16  1  0
 17 18  2  0
 18 13  1  0
 19 11  1  0
 20 19  2  0
 21 19  1  0
 22 26  1  0
 22 21  1  0
 22 23  1  1
 23 24  1  0
 24 28  1  0
 24 25  2  0
 26 29  1  0
 27 26  2  0
M  END
$$$$
