VSM.pdb
     RDKit          3D

 22 21  0  0  1  0  0  0  0  0999 V2000
   17.1277  -10.5615  -20.7923 C   0  0  0  0  0  0  0  0  0  0  0  0
   17.7866  -11.5341  -19.8703 C   0  0  2  0  0  0  0  0  0  0  0  0
   17.2930  -12.9437  -20.0961 C   0  0  0  0  0  0  0  0  0  0  0  0
   17.7354  -11.1157  -18.4265 C   0  0  2  0  0  0  0  0  0  0  0  0
   16.4050  -11.2713  -17.9057 N   0  0  0  0  0  0  0  0  0  0  0  0
   18.2721   -9.7453  -18.2036 C   0  0  0  0  0  0  0  0  0  0  0  0
   19.4873   -9.5156  -18.4322 O   0  0  0  0  0  0  0  0  0  0  0  0
   17.5218   -5.0642  -17.2828 O   0  0  0  0  0  0  0  0  0  0  0  0
   16.9417   -6.3305  -17.3349 C   0  0  0  0  0  0  0  0  0  0  0  0
   18.0339   -7.3623  -17.5073 C   0  0  2  0  0  0  0  0  0  0  0  0
   17.4735   -8.6744  -17.7415 N   0  0  0  0  0  0  0  0  0  0  0  0
   18.8784   -7.3066  -16.2842 C   0  0  0  0  0  0  0  0  0  0  0  0
   18.5734   -8.1005  -15.3609 O   0  0  0  0  0  0  0  0  0  0  0  0
   24.1512  -10.2637  -12.6077 C   0  0  0  0  0  0  0  0  0  0  0  0
   22.9317  -10.0214  -13.9399 S   0  0  0  0  0  0  0  0  0  0  0  0
   22.3899   -8.3017  -13.8939 C   0  0  0  0  0  0  0  0  0  0  0  0
   21.3950   -7.9240  -14.9056 C   0  0  0  0  0  0  0  0  0  0  0  0
   20.8370   -6.5499  -14.9362 C   0  0  2  0  0  0  0  0  0  0  0  0
   19.9631   -6.4317  -16.1309 N   0  0  0  0  0  0  0  0  0  0  0  0
   21.7440   -5.4208  -14.8607 C   0  0  0  0  0  0  0  0  0  0  0  0
   21.8618   -4.5609  -15.7961 O   0  0  0  0  0  0  0  0  0  0  0  0
   22.5433   -5.1933  -13.7612 O   0  0  0  0  0  0  0  0  0  0  0  0
  2  1  1  6
  2  3  1  0
  4  2  1  0
  4  5  1  6
  6  4  1  0
  6 11  1  0
  7  6  2  0
  8  9  1  0
 10 11  1  0
 10  9  1  1
 10 12  1  0
 12 19  1  0
 13 12  2  0
 15 14  1  0
 16 15  1  0
 17 16  1  0
 18 17  1  6
 19 18  1  0
 20 22  1  0
 20 18  1  0
 21 20  2  0
M  END
$$$$
