VSM.pdb
     RDKit          3D

 22 21  0  0  1  0  0  0  0  0999 V2000
   20.9274  -19.2709  -11.6763 C   0  0  0  0  0  0  0  0  0  0  0  0
   21.6270  -19.4182  -12.9874 C   0  0  2  0  0  0  0  0  0  0  0  0
   20.8435  -18.7888  -14.1150 C   0  0  0  0  0  0  0  0  0  0  0  0
   22.0516  -20.8308  -13.2813 C   0  0  2  0  0  0  0  0  0  0  0  0
   20.9018  -21.6677  -13.4890 N   0  0  0  0  0  0  0  0  0  0  0  0
   22.9726  -21.3827  -12.2503 C   0  0  0  0  0  0  0  0  0  0  0  0
   22.5032  -22.0847  -11.3183 O   0  0  0  0  0  0  0  0  0  0  0  0
   27.1104  -21.0092  -12.5065 O   0  0  0  0  0  0  0  0  0  0  0  0
   26.5707  -22.1004  -11.8278 C   0  0  0  0  0  0  0  0  0  0  0  0
   25.2330  -21.7019  -11.2459 C   0  0  2  0  0  0  0  0  0  0  0  0
   24.3674  -21.1543  -12.2663 N   0  0  0  0  0  0  0  0  0  0  0  0
   25.5093  -20.7382  -10.1471 C   0  0  0  0  0  0  0  0  0  0  0  0
   25.1028  -19.5635  -10.3221 O   0  0  0  0  0  0  0  0  0  0  0  0
   27.3087  -21.6572   -3.5408 C   0  0  0  0  0  0  0  0  0  0  0  0
   28.6122  -20.7574   -4.4417 S   0  0  0  0  0  0  0  0  0  0  0  0
   27.8307  -19.8381   -5.7822 C   0  0  0  0  0  0  0  0  0  0  0  0
   27.3326  -20.6493   -6.9002 C   0  0  0  0  0  0  0  0  0  0  0  0
   26.6129  -20.0125   -8.0301 C   0  0  2  0  0  0  0  0  0  0  0  0
   26.1824  -21.0818   -8.9662 N   0  0  0  0  0  0  0  0  0  0  0  0
   27.2573  -18.9352   -8.7565 C   0  0  0  0  0  0  0  0  0  0  0  0
   28.0332  -19.1343   -9.7499 O   0  0  0  0  0  0  0  0  0  0  0  0
   27.0691  -17.6108   -8.4251 O   0  0  0  0  0  0  0  0  0  0  0  0
  2  1  1  1
  2  3  1  0
  4  2  1  0
  4  5  1  1
  6  4  1  0
  6 11  1  0
  7  6  2  0
  8  9  1  0
 10 11  1  0
 10  9  1  6
 10 12  1  0
 12 19  1  0
 13 12  2  0
 15 14  1  0
 16 15  1  0
 17 16  1  0
 18 17  1  1
 19 18  1  0
 20 22  1  0
 20 18  1  0
 21 20  2  0
M  END
$$$$
