VSM.pdb
     RDKit          3D

 22 21  0  0  1  0  0  0  0  0999 V2000
   16.6890  -12.3505  -18.3293 C   0  0  0  0  0  0  0  0  0  0  0  0
   17.7642  -13.2071  -17.7459 C   0  0  2  0  0  0  0  0  0  0  0  0
   17.3307  -14.6492  -17.6284 C   0  0  0  0  0  0  0  0  0  0  0  0
   18.3369  -12.6576  -16.4683 C   0  0  2  0  0  0  0  0  0  0  0  0
   17.4103  -12.8379  -15.3846 N   0  0  0  0  0  0  0  0  0  0  0  0
   18.7856  -11.2443  -16.5980 C   0  0  0  0  0  0  0  0  0  0  0  0
   19.7353  -10.9690  -17.3751 O   0  0  0  0  0  0  0  0  0  0  0  0
   17.0469   -8.1257  -14.4377 O   0  0  0  0  0  0  0  0  0  0  0  0
   17.5425   -7.8376  -15.7081 C   0  0  0  0  0  0  0  0  0  0  0  0
   18.6459   -8.8182  -16.0368 C   0  0  2  0  0  0  0  0  0  0  0  0
   18.1897  -10.1813  -15.8817 N   0  0  0  0  0  0  0  0  0  0  0  0
   19.7940   -8.4906  -15.1498 C   0  0  0  0  0  0  0  0  0  0  0  0
   20.0876   -9.3473  -14.2805 O   0  0  0  0  0  0  0  0  0  0  0  0
   26.5788  -10.0808  -14.6287 C   0  0  0  0  0  0  0  0  0  0  0  0
   24.8753  -10.0658  -15.2756 S   0  0  0  0  0  0  0  0  0  0  0  0
   24.0792   -8.5478  -14.7147 C   0  0  0  0  0  0  0  0  0  0  0  0
   22.6850   -8.3695  -15.1397 C   0  0  0  0  0  0  0  0  0  0  0  0
   21.8837   -7.2288  -14.6330 C   0  0  2  0  0  0  0  0  0  0  0  0
   20.5332   -7.3032  -15.2460 N   0  0  0  0  0  0  0  0  0  0  0  0
   22.4185   -5.8859  -14.7518 C   0  0  0  0  0  0  0  0  0  0  0  0
   22.1927   -5.1351  -15.7586 O   0  0  0  0  0  0  0  0  0  0  0  0
   23.2088   -5.3212  -13.7741 O   0  0  0  0  0  0  0  0  0  0  0  0
  2  1  1  1
  2  3  1  0
  4  2  1  0
  4  5  1  1
  6  4  1  0
  6 11  1  0
  7  6  2  0
  8  9  1  0
 10 11  1  0
 10  9  1  1
 10 12  1  0
 12 19  1  0
 13 12  2  0
 15 14  1  0
 16 15  1  0
 17 16  1  0
 18 17  1  6
 19 18  1  0
 20 22  1  0
 20 18  1  0
 21 20  2  0
M  END
$$$$
