VSM.pdb
     RDKit          3D

 22 21  0  0  1  0  0  0  0  0999 V2000
   17.6658   -8.9384  -17.0752 C   0  0  0  0  0  0  0  0  0  0  0  0
   18.9708   -9.4490  -16.5590 C   0  0  2  0  0  0  0  0  0  0  0  0
   18.8900   -9.8172  -15.0963 C   0  0  0  0  0  0  0  0  0  0  0  0
   20.1317   -8.5471  -16.8766 C   0  0  2  0  0  0  0  0  0  0  0  0
   21.3710   -9.2665  -16.7668 N   0  0  0  0  0  0  0  0  0  0  0  0
   20.1305   -7.2982  -16.0667 C   0  0  0  0  0  0  0  0  0  0  0  0
   19.1452   -6.5197  -16.1376 O   0  0  0  0  0  0  0  0  0  0  0  0
   22.1409   -4.5586  -12.6223 O   0  0  0  0  0  0  0  0  0  0  0  0
   22.3000   -5.6744  -13.4422 C   0  0  0  0  0  0  0  0  0  0  0  0
   21.1623   -5.7164  -14.4376 C   0  0  2  0  0  0  0  0  0  0  0  0
   21.1957   -6.9381  -15.2101 N   0  0  0  0  0  0  0  0  0  0  0  0
   21.2811   -4.4977  -15.2819 C   0  0  0  0  0  0  0  0  0  0  0  0
   22.1326   -4.5400  -16.2033 O   0  0  0  0  0  0  0  0  0  0  0  0
   17.7892    0.3354  -19.9598 C   0  0  0  0  0  0  0  0  0  0  0  0
   17.6831   -0.9416  -18.6642 S   0  0  0  0  0  0  0  0  0  0  0  0
   19.2653   -0.9917  -17.7998 C   0  0  0  0  0  0  0  0  0  0  0  0
   19.3971   -2.0406  -16.7807 C   0  0  0  0  0  0  0  0  0  0  0  0
   20.6610   -2.1962  -16.0200 C   0  0  2  0  0  0  0  0  0  0  0  0
   20.5047   -3.3457  -15.0929 N   0  0  0  0  0  0  0  0  0  0  0  0
   21.2037   -1.0503  -15.3160 C   0  0  0  0  0  0  0  0  0  0  0  0
   20.9849   -0.8279  -14.0787 O   0  0  0  0  0  0  0  0  0  0  0  0
   22.0054   -0.1182  -15.9389 O   0  0  0  0  0  0  0  0  0  0  0  0
  2  1  1  1
  2  3  1  0
  4  2  1  0
  4  5  1  1
  6  4  1  0
  6 11  1  0
  7  6  2  0
  8  9  1  0
 10 11  1  0
 10  9  1  1
 10 12  1  0
 12 19  1  0
 13 12  2  0
 15 14  1  0
 16 15  1  0
 17 16  1  0
 18 17  1  1
 19 18  1  0
 20 22  1  0
 20 18  1  0
 21 20  2  0
M  END
$$$$
