VSM.pdb
     RDKit          3D

 22 21  0  0  1  0  0  0  0  0999 V2000
   15.8628   -9.8102  -16.5497 C   0  0  0  0  0  0  0  0  0  0  0  0
   17.0057  -10.6534  -17.0113 C   0  0  2  0  0  0  0  0  0  0  0  0
   16.5322  -11.9205  -17.6834 C   0  0  0  0  0  0  0  0  0  0  0  0
   18.0335  -10.9020  -15.9417 C   0  0  2  0  0  0  0  0  0  0  0  0
   17.5089  -11.7859  -14.9373 N   0  0  0  0  0  0  0  0  0  0  0  0
   18.5757   -9.6442  -15.3591 C   0  0  0  0  0  0  0  0  0  0  0  0
   17.9622   -9.0905  -14.4110 O   0  0  0  0  0  0  0  0  0  0  0  0
   22.0310   -7.9192  -16.8005 O   0  0  0  0  0  0  0  0  0  0  0  0
   21.7347   -7.6457  -15.4663 C   0  0  0  0  0  0  0  0  0  0  0  0
   20.2444   -7.7934  -15.2558 C   0  0  2  0  0  0  0  0  0  0  0  0
   19.7619   -9.0321  -15.8243 N   0  0  0  0  0  0  0  0  0  0  0  0
   19.6017   -6.5946  -15.8577 C   0  0  0  0  0  0  0  0  0  0  0  0
   19.1619   -6.7267  -17.0260 O   0  0  0  0  0  0  0  0  0  0  0  0
   13.7714   -2.2681  -16.7757 C   0  0  0  0  0  0  0  0  0  0  0  0
   14.6948   -3.7184  -16.1718 S   0  0  0  0  0  0  0  0  0  0  0  0
   16.4517   -3.3117  -16.1987 C   0  0  0  0  0  0  0  0  0  0  0  0
   17.3558   -4.3800  -15.7545 C   0  0  0  0  0  0  0  0  0  0  0  0
   18.8254   -4.2234  -15.8813 C   0  0  2  0  0  0  0  0  0  0  0  0
   19.4740   -5.3675  -15.1918 N   0  0  0  0  0  0  0  0  0  0  0  0
   19.4375   -2.9742  -15.4710 C   0  0  0  0  0  0  0  0  0  0  0  0
   20.2937   -2.8972  -14.5280 O   0  0  0  0  0  0  0  0  0  0  0  0
   19.1387   -1.7750  -16.0811 O   0  0  0  0  0  0  0  0  0  0  0  0
  2  1  1  1
  2  3  1  0
  4  2  1  0
  4  5  1  1
  6  4  1  0
  6 11  1  0
  7  6  2  0
  8  9  1  0
 10 11  1  0
 10  9  1  6
 10 12  1  0
 12 19  1  0
 13 12  2  0
 15 14  1  0
 16 15  1  0
 17 16  1  0
 18 17  1  1
 19 18  1  0
 20 22  1  0
 20 18  1  0
 21 20  2  0
M  END
$$$$
