VSM.pdb
     RDKit          3D

 22 21  0  0  1  0  0  0  0  0999 V2000
   15.0164  -11.0393  -16.0383 C   0  0  0  0  0  0  0  0  0  0  0  0
   16.1970  -11.4889  -16.8346 C   0  0  2  0  0  0  0  0  0  0  0  0
   16.0174  -12.8936  -17.3599 C   0  0  0  0  0  0  0  0  0  0  0  0
   17.5072  -11.2884  -16.1236 C   0  0  2  0  0  0  0  0  0  0  0  0
   17.6693  -12.2677  -15.0844 N   0  0  0  0  0  0  0  0  0  0  0  0
   17.6844   -9.8983  -15.6218 C   0  0  0  0  0  0  0  0  0  0  0  0
   17.7815   -8.9539  -16.4467 O   0  0  0  0  0  0  0  0  0  0  0  0
   18.1816   -8.9766  -11.5607 O   0  0  0  0  0  0  0  0  0  0  0  0
   17.5108   -8.0540  -12.3615 C   0  0  0  0  0  0  0  0  0  0  0  0
   17.9668   -8.2259  -13.7931 C   0  0  2  0  0  0  0  0  0  0  0  0
   17.7502   -9.5819  -14.2457 N   0  0  0  0  0  0  0  0  0  0  0  0
   19.3979   -7.8239  -13.8424 C   0  0  0  0  0  0  0  0  0  0  0  0
   20.2203   -8.7281  -14.1287 O   0  0  0  0  0  0  0  0  0  0  0  0
   22.8278   -4.8284  -18.4002 C   0  0  0  0  0  0  0  0  0  0  0  0
   22.9928   -6.4699  -17.6262 S   0  0  0  0  0  0  0  0  0  0  0  0
   22.8872   -6.2565  -15.8384 C   0  0  0  0  0  0  0  0  0  0  0  0
   21.5974   -6.6121  -15.2333 C   0  0  0  0  0  0  0  0  0  0  0  0
   21.2622   -6.1655  -13.8591 C   0  0  2  0  0  0  0  0  0  0  0  0
   19.8454   -6.5194  -13.5901 N   0  0  0  0  0  0  0  0  0  0  0  0
   21.5179   -4.7878  -13.4853 C   0  0  0  0  0  0  0  0  0  0  0  0
   20.6417   -3.8659  -13.5894 O   0  0  0  0  0  0  0  0  0  0  0  0
   22.7333   -4.3771  -12.9816 O   0  0  0  0  0  0  0  0  0  0  0  0
  2  1  1  1
  2  3  1  0
  4  2  1  0
  4  5  1  1
  6  4  1  0
  6 11  1  0
  7  6  2  0
  8  9  1  0
 10 11  1  0
 10  9  1  1
 10 12  1  0
 12 19  1  0
 13 12  2  0
 15 14  1  0
 16 15  1  0
 17 16  1  0
 18 17  1  6
 19 18  1  0
 20 22  1  0
 20 18  1  0
 21 20  2  0
M  END
$$$$
