VSM.pdb
     RDKit          3D

 22 21  0  0  1  0  0  0  0  0999 V2000
   20.0390  -12.6669  -15.4442 C   0  0  0  0  0  0  0  0  0  0  0  0
   18.5625  -12.6840  -15.6675 C   0  0  2  0  0  0  0  0  0  0  0  0
   17.9885  -14.0730  -15.5172 C   0  0  0  0  0  0  0  0  0  0  0  0
   18.1448  -12.0086  -16.9448 C   0  0  2  0  0  0  0  0  0  0  0  0
   18.4779  -12.8275  -18.0779 N   0  0  0  0  0  0  0  0  0  0  0  0
   18.6835  -10.6266  -17.0696 C   0  0  0  0  0  0  0  0  0  0  0  0
   19.7530  -10.4378  -17.7038 O   0  0  0  0  0  0  0  0  0  0  0  0
   17.0471   -7.3886  -15.0325 O   0  0  0  0  0  0  0  0  0  0  0  0
   17.5722   -7.1177  -16.2949 C   0  0  0  0  0  0  0  0  0  0  0  0
   18.6020   -8.1723  -16.6331 C   0  0  2  0  0  0  0  0  0  0  0  0
   18.0446   -9.5001  -16.5031 N   0  0  0  0  0  0  0  0  0  0  0  0
   19.7649   -7.9453  -15.7339 C   0  0  0  0  0  0  0  0  0  0  0  0
   19.8743   -8.7269  -14.7578 O   0  0  0  0  0  0  0  0  0  0  0  0
   25.3244  -10.3435  -14.4492 C   0  0  0  0  0  0  0  0  0  0  0  0
   25.4615   -8.8630  -15.5029 S   0  0  0  0  0  0  0  0  0  0  0  0
   24.2875   -7.6358  -14.8956 C   0  0  0  0  0  0  0  0  0  0  0  0
   22.9606   -7.6637  -15.5238 C   0  0  0  0  0  0  0  0  0  0  0  0
   21.8640   -6.8105  -15.0045 C   0  0  2  0  0  0  0  0  0  0  0  0
   20.7087   -6.9273  -15.9301 N   0  0  0  0  0  0  0  0  0  0  0  0
   22.1364   -5.4166  -14.7107 C   0  0  0  0  0  0  0  0  0  0  0  0
   21.6679   -4.4557  -15.4074 O   0  0  0  0  0  0  0  0  0  0  0  0
   22.9214   -5.0306  -13.6458 O   0  0  0  0  0  0  0  0  0  0  0  0
  2  1  1  6
  2  3  1  0
  4  2  1  0
  4  5  1  6
  6  4  1  0
  6 11  1  0
  7  6  2  0
  8  9  1  0
 10 11  1  0
 10  9  1  1
 10 12  1  0
 12 19  1  0
 13 12  2  0
 15 14  1  0
 16 15  1  0
 17 16  1  0
 18 17  1  6
 19 18  1  0
 20 22  1  0
 20 18  1  0
 21 20  2  0
M  END
$$$$
