VSM.pdb
     RDKit          3D

 22 21  0  0  1  0  0  0  0  0999 V2000
   17.5309  -12.0202  -16.4004 C   0  0  0  0  0  0  0  0  0  0  0  0
   18.6040  -11.7995  -17.4153 C   0  0  2  0  0  0  0  0  0  0  0  0
   18.9900  -13.0831  -18.1116 C   0  0  0  0  0  0  0  0  0  0  0  0
   19.7867  -11.0420  -16.8774 C   0  0  2  0  0  0  0  0  0  0  0  0
   20.5732  -11.8836  -16.0179 N   0  0  0  0  0  0  0  0  0  0  0  0
   19.4020   -9.7642  -16.2178 C   0  0  0  0  0  0  0  0  0  0  0  0
   18.9183   -8.8342  -16.9127 O   0  0  0  0  0  0  0  0  0  0  0  0
   19.4996   -9.3341  -12.1534 O   0  0  0  0  0  0  0  0  0  0  0  0
   18.7468   -8.3847  -12.8423 C   0  0  0  0  0  0  0  0  0  0  0  0
   19.2995   -8.2444  -14.2430 C   0  0  2  0  0  0  0  0  0  0  0  0
   19.5550   -9.5405  -14.8305 N   0  0  0  0  0  0  0  0  0  0  0  0
   20.5239   -7.4059  -14.1427 C   0  0  0  0  0  0  0  0  0  0  0  0
   21.6091   -7.9700  -14.4253 O   0  0  0  0  0  0  0  0  0  0  0  0
   24.7261   -3.8575  -18.4481 C   0  0  0  0  0  0  0  0  0  0  0  0
   23.4091   -4.9761  -17.8695 S   0  0  0  0  0  0  0  0  0  0  0  0
   23.1044   -4.6245  -16.1269 C   0  0  0  0  0  0  0  0  0  0  0  0
   22.0441   -5.4207  -15.4962 C   0  0  0  0  0  0  0  0  0  0  0  0
   21.6741   -5.1925  -14.0780 C   0  0  2  0  0  0  0  0  0  0  0  0
   20.5103   -6.0577  -13.7583 N   0  0  0  0  0  0  0  0  0  0  0  0
   21.4348   -3.8364  -13.6231 C   0  0  0  0  0  0  0  0  0  0  0  0
   20.2702   -3.3178  -13.5678 O   0  0  0  0  0  0  0  0  0  0  0  0
   22.4570   -3.0096  -13.2095 O   0  0  0  0  0  0  0  0  0  0  0  0
  2  1  1  1
  2  3  1  0
  4  2  1  0
  4  5  1  1
  6  4  1  0
  6 11  1  0
  7  6  2  0
  8  9  1  0
 10 11  1  0
 10  9  1  1
 10 12  1  0
 12 19  1  0
 13 12  2  0
 15 14  1  0
 16 15  1  0
 17 16  1  0
 18 17  1  6
 19 18  1  0
 20 22  1  0
 20 18  1  0
 21 20  2  0
M  END
$$$$
