VSM.pdb
     RDKit          3D

 22 21  0  0  1  0  0  0  0  0999 V2000
   17.9541  -14.5545  -19.3061 C   0  0  0  0  0  0  0  0  0  0  0  0
   16.8892  -15.5200  -18.9012 C   0  0  2  0  0  0  0  0  0  0  0  0
   15.6125  -15.3058  -19.6794 C   0  0  0  0  0  0  0  0  0  0  0  0
   16.6706  -15.5775  -17.4142 C   0  0  2  0  0  0  0  0  0  0  0  0
   17.6939  -14.8382  -16.7274 N   0  0  0  0  0  0  0  0  0  0  0  0
   16.5411  -16.9697  -16.9035 C   0  0  0  0  0  0  0  0  0  0  0  0
   15.6208  -17.7043  -17.3455 O   0  0  0  0  0  0  0  0  0  0  0  0
   18.3917  -18.4238  -13.4086 O   0  0  0  0  0  0  0  0  0  0  0  0
   18.3786  -19.2558  -14.5267 C   0  0  0  0  0  0  0  0  0  0  0  0
   17.2275  -18.8548  -15.4217 C   0  0  2  0  0  0  0  0  0  0  0  0
   17.4125  -17.5152  -15.9334 N   0  0  0  0  0  0  0  0  0  0  0  0
   15.9844  -18.9976  -14.6176 C   0  0  0  0  0  0  0  0  0  0  0  0
   15.3977  -17.9324  -14.3063 O   0  0  0  0  0  0  0  0  0  0  0  0
   11.4918  -16.6199  -14.5895 C   0  0  0  0  0  0  0  0  0  0  0  0
   10.7226  -18.2717  -14.6102 S   0  0  0  0  0  0  0  0  0  0  0  0
   11.8000  -19.3999  -13.7052 C   0  0  0  0  0  0  0  0  0  0  0  0
   13.2046  -19.4143  -14.1332 C   0  0  0  0  0  0  0  0  0  0  0  0
   14.1936  -20.2760  -13.4407 C   0  0  2  0  0  0  0  0  0  0  0  0
   15.4632  -20.2336  -14.2098 N   0  0  0  0  0  0  0  0  0  0  0  0
   13.8368  -21.6471  -13.1310 C   0  0  0  0  0  0  0  0  0  0  0  0
   14.1346  -22.6302  -13.8881 O   0  0  0  0  0  0  0  0  0  0  0  0
   13.1514  -21.9863  -11.9843 O   0  0  0  0  0  0  0  0  0  0  0  0
  2  1  1  1
  2  3  1  0
  4  2  1  0
  4  5  1  1
  6  4  1  0
  6 11  1  0
  7  6  2  0
  8  9  1  0
 10 11  1  0
 10  9  1  1
 10 12  1  0
 12 19  1  0
 13 12  2  0
 15 14  1  0
 16 15  1  0
 17 16  1  0
 18 17  1  6
 19 18  1  0
 20 22  1  0
 20 18  1  0
 21 20  2  0
M  END
$$$$
