VSM.pdb
     RDKit          3D

 22 21  0  0  1  0  0  0  0  0999 V2000
   18.9313  -10.5500  -17.2709 C   0  0  0  0  0  0  0  0  0  0  0  0
   19.0276  -11.5192  -16.1389 C   0  0  2  0  0  0  0  0  0  0  0  0
   18.6992  -12.9271  -16.5763 C   0  0  0  0  0  0  0  0  0  0  0  0
   18.2627  -11.0877  -14.9178 C   0  0  2  0  0  0  0  0  0  0  0  0
   16.8561  -11.3209  -15.0983 N   0  0  0  0  0  0  0  0  0  0  0  0
   18.5554   -9.6835  -14.5199 C   0  0  0  0  0  0  0  0  0  0  0  0
   19.7320   -9.3639  -14.2113 O   0  0  0  0  0  0  0  0  0  0  0  0
   18.1871   -5.0915  -14.3156 O   0  0  0  0  0  0  0  0  0  0  0  0
   17.8622   -6.3014  -14.9265 C   0  0  0  0  0  0  0  0  0  0  0  0
   17.8276   -7.3870  -13.8743 C   0  0  2  0  0  0  0  0  0  0  0  0
   17.5638   -8.6774  -14.4708 N   0  0  0  0  0  0  0  0  0  0  0  0
   16.7962   -6.9913  -12.8784 C   0  0  0  0  0  0  0  0  0  0  0  0
   15.6190   -7.3520  -13.1232 O   0  0  0  0  0  0  0  0  0  0  0  0
   13.0721   -7.4806   -6.5155 C   0  0  0  0  0  0  0  0  0  0  0  0
   14.4818   -7.8997   -7.5914 S   0  0  0  0  0  0  0  0  0  0  0  0
   14.6587   -6.5869   -8.8154 C   0  0  0  0  0  0  0  0  0  0  0  0
   15.6892   -6.8089   -9.8376 C   0  0  0  0  0  0  0  0  0  0  0  0
   15.9660   -5.7746  -10.8642 C   0  0  2  0  0  0  0  0  0  0  0  0
   17.0808   -6.2570  -11.7184 N   0  0  0  0  0  0  0  0  0  0  0  0
   16.2100   -4.4096  -10.4394 C   0  0  0  0  0  0  0  0  0  0  0  0
   17.3074   -3.7982  -10.6634 O   0  0  0  0  0  0  0  0  0  0  0  0
   15.2627   -3.6703   -9.7643 O   0  0  0  0  0  0  0  0  0  0  0  0
  2  1  1  6
  2  3  1  0
  4  2  1  0
  4  5  1  6
  6  4  1  0
  6 11  1  0
  7  6  2  0
  8  9  1  0
 10 11  1  0
 10  9  1  6
 10 12  1  0
 12 19  1  0
 13 12  2  0
 15 14  1  0
 16 15  1  0
 17 16  1  0
 18 17  1  1
 19 18  1  0
 20 22  1  0
 20 18  1  0
 21 20  2  0
M  END
$$$$
