VSM.pdb
     RDKit          3D

 22 21  0  0  1  0  0  0  0  0999 V2000
   19.0642  -13.8030  -15.5740 C   0  0  0  0  0  0  0  0  0  0  0  0
   18.0418  -13.2070  -16.4848 C   0  0  2  0  0  0  0  0  0  0  0  0
   17.5088  -14.2207  -17.4696 C   0  0  0  0  0  0  0  0  0  0  0  0
   18.4977  -11.9320  -17.1398 C   0  0  2  0  0  0  0  0  0  0  0  0
   19.4704  -12.2118  -18.1600 N   0  0  0  0  0  0  0  0  0  0  0  0
   18.9820  -10.9214  -16.1602 C   0  0  0  0  0  0  0  0  0  0  0  0
   18.1967  -10.4977  -15.2739 O   0  0  0  0  0  0  0  0  0  0  0  0
   22.3504   -8.6633  -13.7277 O   0  0  0  0  0  0  0  0  0  0  0  0
   22.0758   -9.6161  -14.7072 C   0  0  0  0  0  0  0  0  0  0  0  0
   20.7039   -9.3447  -15.2827 C   0  0  2  0  0  0  0  0  0  0  0  0
   20.2984  -10.4067  -16.1762 N   0  0  0  0  0  0  0  0  0  0  0  0
   20.7715   -8.0201  -15.9559 C   0  0  0  0  0  0  0  0  0  0  0  0
   21.0762   -8.0297  -17.1736 O   0  0  0  0  0  0  0  0  0  0  0  0
   17.9364   -3.1428  -20.2572 C   0  0  0  0  0  0  0  0  0  0  0  0
   17.8952   -4.5600  -19.1126 S   0  0  0  0  0  0  0  0  0  0  0  0
   19.3954   -4.5128  -18.1125 C   0  0  0  0  0  0  0  0  0  0  0  0
   19.5583   -5.6206  -17.1625 C   0  0  0  0  0  0  0  0  0  0  0  0
   20.5615   -5.5365  -16.0732 C   0  0  2  0  0  0  0  0  0  0  0  0
   20.5166   -6.8056  -15.3035 N   0  0  0  0  0  0  0  0  0  0  0  0
   20.5292   -4.3994  -15.1736 C   0  0  0  0  0  0  0  0  0  0  0  0
   20.2171   -4.4982  -13.9403 O   0  0  0  0  0  0  0  0  0  0  0  0
   20.8424   -3.1238  -15.5912 O   0  0  0  0  0  0  0  0  0  0  0  0
  2  1  1  6
  2  3  1  0
  4  2  1  0
  4  5  1  6
  6  4  1  0
  6 11  1  0
  7  6  2  0
  8  9  1  0
 10 11  1  0
 10  9  1  6
 10 12  1  0
 12 19  1  0
 13 12  2  0
 15 14  1  0
 16 15  1  0
 17 16  1  0
 18 17  1  6
 19 18  1  0
 20 22  1  0
 20 18  1  0
 21 20  2  0
M  END
$$$$
