VSM.pdb
     RDKit          3D

 22 21  0  0  1  0  0  0  0  0999 V2000
   22.6323  -26.3060  -17.2934 C   0  0  0  0  0  0  0  0  0  0  0  0
   23.3325  -25.0057  -17.0722 C   0  0  2  0  0  0  0  0  0  0  0  0
   24.8327  -25.1764  -17.0306 C   0  0  0  0  0  0  0  0  0  0  0  0
   22.7947  -24.2305  -15.9009 C   0  0  2  0  0  0  0  0  0  0  0  0
   21.3720  -24.0646  -16.0193 N   0  0  0  0  0  0  0  0  0  0  0  0
   23.4986  -22.9353  -15.6940 C   0  0  0  0  0  0  0  0  0  0  0  0
   23.5447  -22.1027  -16.6355 O   0  0  0  0  0  0  0  0  0  0  0  0
   23.8094  -21.3167  -12.1930 O   0  0  0  0  0  0  0  0  0  0  0  0
   24.9839  -20.9764  -12.8618 C   0  0  0  0  0  0  0  0  0  0  0  0
   24.8383  -21.3402  -14.3224 C   0  0  2  0  0  0  0  0  0  0  0  0
   24.1265  -22.5893  -14.4758 N   0  0  0  0  0  0  0  0  0  0  0  0
   26.2099  -21.3848  -14.8958 C   0  0  0  0  0  0  0  0  0  0  0  0
   27.1247  -21.7587  -14.1218 O   0  0  0  0  0  0  0  0  0  0  0  0
   28.4514  -25.5604  -15.6533 C   0  0  0  0  0  0  0  0  0  0  0  0
   29.8280  -24.9381  -16.6723 S   0  0  0  0  0  0  0  0  0  0  0  0
   29.5225  -23.1944  -17.0173 C   0  0  0  0  0  0  0  0  0  0  0  0
   28.2695  -22.6520  -16.4770 C   0  0  0  0  0  0  0  0  0  0  0  0
   27.8819  -21.2451  -16.7427 C   0  0  2  0  0  0  0  0  0  0  0  0
   26.5072  -21.0373  -16.2211 N   0  0  0  0  0  0  0  0  0  0  0  0
   27.9928  -20.7283  -18.0932 C   0  0  0  0  0  0  0  0  0  0  0  0
   29.0983  -20.6764  -18.7284 O   0  0  0  0  0  0  0  0  0  0  0  0
   26.9011  -20.2595  -18.7918 O   0  0  0  0  0  0  0  0  0  0  0  0
  2  1  1  1
  2  3  1  0
  4  2  1  0
  4  5  1  6
  6  4  1  0
  6 11  1  0
  7  6  2  0
  8  9  1  0
 10 11  1  0
 10  9  1  1
 10 12  1  0
 12 19  1  0
 13 12  2  0
 15 14  1  0
 16 15  1  0
 17 16  1  0
 18 17  1  6
 19 18  1  0
 20 22  1  0
 20 18  1  0
 21 20  2  0
M  END
$$$$
