VSM.pdb
     RDKit          3D

 22 21  0  0  1  0  0  0  0  0999 V2000
   19.9172  -12.2480  -17.0368 C   0  0  0  0  0  0  0  0  0  0  0  0
   18.4584  -12.1867  -16.7237 C   0  0  2  0  0  0  0  0  0  0  0  0
   17.8085  -13.5475  -16.8096 C   0  0  0  0  0  0  0  0  0  0  0  0
   17.7244  -11.1325  -17.5061 C   0  0  2  0  0  0  0  0  0  0  0  0
   17.6162  -11.5163  -18.8868 N   0  0  0  0  0  0  0  0  0  0  0  0
   18.3153   -9.7762  -17.3420 C   0  0  0  0  0  0  0  0  0  0  0  0
   19.2765   -9.4307  -18.0760 O   0  0  0  0  0  0  0  0  0  0  0  0
   16.9866   -7.0848  -14.4465 O   0  0  0  0  0  0  0  0  0  0  0  0
   17.4730   -6.5544  -15.6401 C   0  0  0  0  0  0  0  0  0  0  0  0
   18.4466   -7.5370  -16.2514 C   0  0  2  0  0  0  0  0  0  0  0  0
   17.8441   -8.8441  -16.3895 N   0  0  0  0  0  0  0  0  0  0  0  0
   19.6532   -7.5480  -15.3819 C   0  0  0  0  0  0  0  0  0  0  0  0
   19.8669   -8.6053  -14.7400 O   0  0  0  0  0  0  0  0  0  0  0  0
   26.2783   -9.8002  -14.6164 C   0  0  0  0  0  0  0  0  0  0  0  0
   24.6570   -9.5268  -15.4020 S   0  0  0  0  0  0  0  0  0  0  0  0
   23.8636   -8.1350  -14.5735 C   0  0  0  0  0  0  0  0  0  0  0  0
   22.5234   -7.7873  -15.0625 C   0  0  0  0  0  0  0  0  0  0  0  0
   21.7968   -6.6218  -14.5023 C   0  0  2  0  0  0  0  0  0  0  0  0
   20.5288   -6.4600  -15.2579 N   0  0  0  0  0  0  0  0  0  0  0  0
   22.4851   -5.3499  -14.3933 C   0  0  0  0  0  0  0  0  0  0  0  0
   22.3852   -4.4289  -15.2707 O   0  0  0  0  0  0  0  0  0  0  0  0
   23.2963   -5.0436  -13.3220 O   0  0  0  0  0  0  0  0  0  0  0  0
  2  1  1  6
  2  3  1  0
  4  2  1  0
  4  5  1  6
  6  4  1  0
  6 11  1  0
  7  6  2  0
  8  9  1  0
 10 11  1  0
 10  9  1  1
 10 12  1  0
 12 19  1  0
 13 12  2  0
 15 14  1  0
 16 15  1  0
 17 16  1  0
 18 17  1  6
 19 18  1  0
 20 22  1  0
 20 18  1  0
 21 20  2  0
M  END
$$$$
