GAM.pdb
     RDKit          3D

 18 17  0  0  1  0  0  0  0  0999 V2000
    6.5024  -18.6947   19.8082 N   0  0  0  0  0  0  0  0  0  0  0  0
    6.0867  -17.4161   20.2890 C   0  0  0  0  0  0  0  0  0  0  0  0
    7.1707  -16.4322   20.3848 C   0  0  0  0  0  0  0  0  0  0  0  0
    8.3488  -16.8961   20.5458 O   0  0  0  0  0  0  0  0  0  0  0  0
    7.7742  -12.7647   19.9651 C   0  0  0  0  0  0  0  0  0  0  0  0
    8.1360  -14.1378   20.4809 C   0  0  2  0  0  0  0  0  0  0  0  0
    7.0150  -15.0287   20.3137 N   0  0  0  0  0  0  0  0  0  0  0  0
    8.5212  -14.1090   21.9163 C   0  0  0  0  0  0  0  0  0  0  0  0
    9.5780  -13.5151   22.2862 O   0  0  0  0  0  0  0  0  0  0  0  0
    5.9980  -11.1083   26.9514 C   0  0  0  0  0  0  0  0  0  0  0  0
    7.4980  -12.0992   26.8318 S   0  0  0  0  0  0  0  0  0  0  0  0
    7.0965  -13.8585   26.5490 C   0  0  0  0  0  0  0  0  0  0  0  0
    6.8025  -14.1192   25.0987 C   0  0  0  0  0  0  0  0  0  0  0  0
    8.0374  -14.5144   24.3777 C   0  0  2  0  0  0  0  0  0  0  0  0
    7.7616  -14.7220   22.9398 N   0  0  0  0  0  0  0  0  0  0  0  0
    8.7540  -15.6622   24.9311 C   0  0  0  0  0  0  0  0  0  0  0  0
    8.7653  -16.8316   24.4951 O   0  0  0  0  0  0  0  0  0  0  0  0
    9.5359  -15.4699   26.0930 O   0  0  0  0  0  0  0  0  0  0  0  0
  2  1  1  0
  3  2  1  0
  4  3  2  0
  6  5  1  1
  6  7  1  0
  7  3  1  0
  8  6  1  0
  8  9  2  0
 11 10  1  0
 12 13  1  0
 12 11  1  0
 14 13  1  1
 14 15  1  0
 15  8  1  0
 16 14  1  0
 16 18  1  0
 17 16  2  0
M  END
$$$$
