GAM.pdb
     RDKit          3D

 18 17  0  0  1  0  0  0  0  0999 V2000
    7.7248  -12.4473   18.9893 N   0  0  0  0  0  0  0  0  0  0  0  0
    8.3984  -13.6949   19.1586 C   0  0  0  0  0  0  0  0  0  0  0  0
    7.9754  -14.4464   20.3454 C   0  0  0  0  0  0  0  0  0  0  0  0
    7.2156  -13.8329   21.1674 O   0  0  0  0  0  0  0  0  0  0  0  0
    7.9433  -17.9501   21.6240 C   0  0  0  0  0  0  0  0  0  0  0  0
    7.8209  -16.4557   21.8097 C   0  0  2  0  0  0  0  0  0  0  0  0
    8.3384  -15.7793   20.6464 N   0  0  0  0  0  0  0  0  0  0  0  0
    8.5566  -15.9825   23.0115 C   0  0  0  0  0  0  0  0  0  0  0  0
    9.7945  -15.7187   22.9445 O   0  0  0  0  0  0  0  0  0  0  0  0
    6.3173  -10.6178   26.6263 C   0  0  0  0  0  0  0  0  0  0  0  0
    6.2311  -12.4147   26.7247 S   0  0  0  0  0  0  0  0  0  0  0  0
    7.8016  -13.1736   26.1825 C   0  0  0  0  0  0  0  0  0  0  0  0
    7.7968  -14.6567   26.4241 C   0  0  0  0  0  0  0  0  0  0  0  0
    8.6977  -15.3452   25.4673 C   0  0  2  0  0  0  0  0  0  0  0  0
    7.9490  -15.7984   24.2753 N   0  0  0  0  0  0  0  0  0  0  0  0
    9.4897  -16.4423   26.0205 C   0  0  0  0  0  0  0  0  0  0  0  0
   10.6141  -16.3705   26.5577 O   0  0  0  0  0  0  0  0  0  0  0  0
    8.9589  -17.7511   25.9612 O   0  0  0  0  0  0  0  0  0  0  0  0
  2  1  1  0
  3  2  1  0
  4  3  2  0
  6  5  1  6
  6  7  1  0
  7  3  1  0
  8  6  1  0
  8  9  2  0
 11 10  1  0
 12 13  1  0
 12 11  1  0
 14 13  1  1
 14 15  1  0
 15  8  1  0
 16 14  1  0
 16 18  1  0
 17 16  2  0
M  END
$$$$
