GAM.pdb
     RDKit          3D

 18 17  0  0  1  0  0  0  0  0999 V2000
    6.1218  -19.5515   21.2446 N   0  0  0  0  0  0  0  0  0  0  0  0
    5.8175  -18.2108   21.6302 C   0  0  0  0  0  0  0  0  0  0  0  0
    6.8734  -17.2432   21.3123 C   0  0  0  0  0  0  0  0  0  0  0  0
    8.0291  -17.7230   21.0610 O   0  0  0  0  0  0  0  0  0  0  0  0
    7.3378  -13.6190   20.5528 C   0  0  0  0  0  0  0  0  0  0  0  0
    7.8345  -14.9618   21.0353 C   0  0  2  0  0  0  0  0  0  0  0  0
    6.7135  -15.8392   21.2631 N   0  0  0  0  0  0  0  0  0  0  0  0
    8.6206  -14.8453   22.2916 C   0  0  0  0  0  0  0  0  0  0  0  0
    9.7920  -14.3617   22.2739 O   0  0  0  0  0  0  0  0  0  0  0  0
    5.9362  -10.7976   26.6561 C   0  0  0  0  0  0  0  0  0  0  0  0
    6.2321  -12.5704   26.7820 S   0  0  0  0  0  0  0  0  0  0  0  0
    7.6755  -13.0636   25.7770 C   0  0  0  0  0  0  0  0  0  0  0  0
    7.9249  -14.5419   25.8787 C   0  0  0  0  0  0  0  0  0  0  0  0
    8.8602  -14.9885   24.8172 C   0  0  2  0  0  0  0  0  0  0  0  0
    8.1348  -15.2523   23.5559 N   0  0  0  0  0  0  0  0  0  0  0  0
    9.7142  -16.1237   25.1622 C   0  0  0  0  0  0  0  0  0  0  0  0
    9.7359  -17.2485   24.6216 O   0  0  0  0  0  0  0  0  0  0  0  0
   10.6357  -15.9736   26.2237 O   0  0  0  0  0  0  0  0  0  0  0  0
  2  1  1  0
  3  2  1  0
  4  3  2  0
  6  5  1  1
  6  7  1  0
  7  3  1  0
  8  6  1  0
  8  9  2  0
 11 10  1  0
 12 13  1  0
 12 11  1  0
 14 13  1  1
 14 15  1  0
 15  8  1  0
 16 14  1  0
 16 18  1  0
 17 16  2  0
M  END
$$$$
