GAM.pdb
     RDKit          3D

 18 17  0  0  1  0  0  0  0  0999 V2000
    6.5219  -18.9018   19.5265 N   0  0  0  0  0  0  0  0  0  0  0  0
    6.2955  -17.8543   20.4699 C   0  0  0  0  0  0  0  0  0  0  0  0
    7.2626  -16.7543   20.3852 C   0  0  0  0  0  0  0  0  0  0  0  0
    8.4936  -17.0668   20.5118 O   0  0  0  0  0  0  0  0  0  0  0  0
    7.3970  -13.1049   19.5591 C   0  0  0  0  0  0  0  0  0  0  0  0
    7.9634  -14.3757   20.1481 C   0  0  2  0  0  0  0  0  0  0  0  0
    6.9423  -15.3930   20.1771 N   0  0  0  0  0  0  0  0  0  0  0  0
    8.4787  -14.1681   21.5269 C   0  0  0  0  0  0  0  0  0  0  0  0
    9.5145  -13.4655   21.7266 O   0  0  0  0  0  0  0  0  0  0  0  0
    6.7466  -11.4684   28.4365 C   0  0  0  0  0  0  0  0  0  0  0  0
    6.1968  -12.1623   26.8673 S   0  0  0  0  0  0  0  0  0  0  0  0
    7.5304  -13.1304   26.0794 C   0  0  0  0  0  0  0  0  0  0  0  0
    7.1476  -13.5434   24.6863 C   0  0  0  0  0  0  0  0  0  0  0  0
    8.2411  -14.3201   24.0522 C   0  0  2  0  0  0  0  0  0  0  0  0
    7.8708  -14.7212   22.6779 N   0  0  0  0  0  0  0  0  0  0  0  0
    8.7193  -15.4752   24.8100 C   0  0  0  0  0  0  0  0  0  0  0  0
    8.5760  -16.6818   24.5245 O   0  0  0  0  0  0  0  0  0  0  0  0
    9.4302  -15.2445   26.0098 O   0  0  0  0  0  0  0  0  0  0  0  0
  2  1  1  0
  3  2  1  0
  4  3  2  0
  6  5  1  1
  6  7  1  0
  7  3  1  0
  8  6  1  0
  8  9  2  0
 11 10  1  0
 12 13  1  0
 12 11  1  0
 14 13  1  1
 14 15  1  0
 15  8  1  0
 16 14  1  0
 16 18  1  0
 17 16  2  0
M  END
$$$$
