GAM.pdb
     RDKit          3D

 18 17  0  0  1  0  0  0  0  0999 V2000
    7.8656  -12.3032   18.7314 N   0  0  0  0  0  0  0  0  0  0  0  0
    8.8125  -13.3410   18.9865 C   0  0  0  0  0  0  0  0  0  0  0  0
    8.4578  -14.2098   20.1142 C   0  0  0  0  0  0  0  0  0  0  0  0
    7.4970  -13.8161   20.8566 O   0  0  0  0  0  0  0  0  0  0  0  0
    9.1364  -17.6653   21.3545 C   0  0  0  0  0  0  0  0  0  0  0  0
    8.6184  -16.2564   21.5252 C   0  0  2  0  0  0  0  0  0  0  0  0
    9.0882  -15.4329   20.4390 N   0  0  0  0  0  0  0  0  0  0  0  0
    9.0559  -15.6550   22.8123 C   0  0  0  0  0  0  0  0  0  0  0  0
   10.1958  -15.1100   22.9121 O   0  0  0  0  0  0  0  0  0  0  0  0
    5.7125  -11.7464   26.2073 C   0  0  0  0  0  0  0  0  0  0  0  0
    6.8593  -12.1436   27.5389 S   0  0  0  0  0  0  0  0  0  0  0  0
    8.0701  -13.4019   27.0030 C   0  0  0  0  0  0  0  0  0  0  0  0
    7.6521  -14.0366   25.7068 C   0  0  0  0  0  0  0  0  0  0  0  0
    8.6828  -14.9949   25.2375 C   0  0  2  0  0  0  0  0  0  0  0  0
    8.2585  -15.6477   23.9803 N   0  0  0  0  0  0  0  0  0  0  0  0
    9.1084  -15.9958   26.2143 C   0  0  0  0  0  0  0  0  0  0  0  0
    8.8386  -17.2145   26.2183 O   0  0  0  0  0  0  0  0  0  0  0  0
    9.9195  -15.5788   27.2943 O   0  0  0  0  0  0  0  0  0  0  0  0
  2  1  1  0
  3  2  1  0
  4  3  2  0
  6  5  1  6
  6  7  1  0
  7  3  1  0
  8  6  1  0
  8  9  2  0
 11 10  1  0
 12 13  1  0
 12 11  1  0
 14 13  1  1
 14 15  1  0
 15  8  1  0
 16 14  1  0
 16 18  1  0
 17 16  2  0
M  END
$$$$
