GAM.pdb
     RDKit          3D

 18 17  0  0  1  0  0  0  0  0999 V2000
    6.1651  -19.0880   20.5240 N   0  0  0  0  0  0  0  0  0  0  0  0
    5.7773  -17.7566   20.8642 C   0  0  0  0  0  0  0  0  0  0  0  0
    6.9033  -16.8336   21.0444 C   0  0  0  0  0  0  0  0  0  0  0  0
    8.0556  -17.3624   21.1918 O   0  0  0  0  0  0  0  0  0  0  0  0
    7.6755  -13.1995   20.6955 C   0  0  0  0  0  0  0  0  0  0  0  0
    7.9891  -14.5958   21.1799 C   0  0  2  0  0  0  0  0  0  0  0  0
    6.8136  -15.4228   21.0671 N   0  0  0  0  0  0  0  0  0  0  0  0
    8.4523  -14.6035   22.5923 C   0  0  0  0  0  0  0  0  0  0  0  0
    9.5990  -14.1563   22.8949 O   0  0  0  0  0  0  0  0  0  0  0  0
    7.4885  -10.9803   26.7973 C   0  0  0  0  0  0  0  0  0  0  0  0
    6.3842  -12.3891   27.0021 S   0  0  0  0  0  0  0  0  0  0  0  0
    7.3299  -13.9477   27.1165 C   0  0  0  0  0  0  0  0  0  0  0  0
    6.9752  -14.8787   25.9917 C   0  0  0  0  0  0  0  0  0  0  0  0
    8.1269  -15.0506   25.0724 C   0  0  2  0  0  0  0  0  0  0  0  0
    7.6731  -15.0943   23.6657 N   0  0  0  0  0  0  0  0  0  0  0  0
    9.0042  -16.1837   25.3615 C   0  0  0  0  0  0  0  0  0  0  0  0
    9.7890  -16.3091   26.3239 O   0  0  0  0  0  0  0  0  0  0  0  0
    8.9942  -17.2848   24.4751 O   0  0  0  0  0  0  0  0  0  0  0  0
  2  1  1  0
  3  2  1  0
  4  3  2  0
  6  5  1  1
  6  7  1  0
  7  3  1  0
  8  6  1  0
  8  9  2  0
 11 10  1  0
 12 13  1  0
 12 11  1  0
 14 13  1  1
 14 15  1  0
 15  8  1  0
 16 14  1  0
 16 18  1  0
 17 16  2  0
M  END
$$$$
