GAM.pdb
     RDKit          3D

 18 17  0  0  1  0  0  0  0  0999 V2000
    7.8595  -12.3917   18.5419 N   0  0  0  0  0  0  0  0  0  0  0  0
    8.7190  -13.4950   18.8294 C   0  0  0  0  0  0  0  0  0  0  0  0
    8.2620  -14.3346   19.9424 C   0  0  0  0  0  0  0  0  0  0  0  0
    7.2803  -13.8896   20.6261 O   0  0  0  0  0  0  0  0  0  0  0  0
    8.7521  -17.7859   21.2925 C   0  0  0  0  0  0  0  0  0  0  0  0
    8.2637  -16.3598   21.3929 C   0  0  2  0  0  0  0  0  0  0  0  0
    8.8162  -15.5816   20.3122 N   0  0  0  0  0  0  0  0  0  0  0  0
    8.6440  -15.7313   22.6852 C   0  0  0  0  0  0  0  0  0  0  0  0
    9.7994  -15.2345   22.8425 O   0  0  0  0  0  0  0  0  0  0  0  0
    6.5191  -10.6691   26.0546 C   0  0  0  0  0  0  0  0  0  0  0  0
    6.2225  -12.0592   27.1619 S   0  0  0  0  0  0  0  0  0  0  0  0
    7.3854  -13.4254   26.8191 C   0  0  0  0  0  0  0  0  0  0  0  0
    6.9942  -14.1682   25.5729 C   0  0  0  0  0  0  0  0  0  0  0  0
    8.1395  -14.9536   25.0510 C   0  0  2  0  0  0  0  0  0  0  0  0
    7.7732  -15.6448   23.7962 N   0  0  0  0  0  0  0  0  0  0  0  0
    8.7452  -15.8928   25.9935 C   0  0  0  0  0  0  0  0  0  0  0  0
    8.5345  -17.1198   26.0827 O   0  0  0  0  0  0  0  0  0  0  0  0
    9.6823  -15.3967   26.9284 O   0  0  0  0  0  0  0  0  0  0  0  0
  2  1  1  0
  3  2  1  0
  4  3  2  0
  6  5  1  1
  6  7  1  0
  7  3  1  0
  8  6  1  0
  8  9  2  0
 11 10  1  0
 12 13  1  0
 12 11  1  0
 14 13  1  1
 14 15  1  0
 15  8  1  0
 16 14  1  0
 16 18  1  0
 17 16  2  0
M  END
$$$$
