GAM.pdb
     RDKit          3D

 18 17  0  0  1  0  0  0  0  0999 V2000
    6.2941  -19.3828   20.7597 N   0  0  0  0  0  0  0  0  0  0  0  0
    5.8916  -18.0923   21.2195 C   0  0  0  0  0  0  0  0  0  0  0  0
    6.9382  -17.0691   21.1203 C   0  0  0  0  0  0  0  0  0  0  0  0
    8.1317  -17.4892   20.9521 O   0  0  0  0  0  0  0  0  0  0  0  0
    7.2883  -13.3493   20.8527 C   0  0  0  0  0  0  0  0  0  0  0  0
    7.8271  -14.7424   21.0799 C   0  0  2  0  0  0  0  0  0  0  0  0
    6.7316  -15.6724   21.1951 N   0  0  0  0  0  0  0  0  0  0  0  0
    8.6610  -14.8228   22.3079 C   0  0  0  0  0  0  0  0  0  0  0  0
    9.8350  -14.3454   22.3196 O   0  0  0  0  0  0  0  0  0  0  0  0
   10.0789  -13.2945   29.2546 C   0  0  0  0  0  0  0  0  0  0  0  0
    9.1057  -13.3944   27.7417 S   0  0  0  0  0  0  0  0  0  0  0  0
    8.9050  -15.1299   27.2088 C   0  0  0  0  0  0  0  0  0  0  0  0
    8.1055  -15.2164   25.9395 C   0  0  0  0  0  0  0  0  0  0  0  0
    9.0015  -15.3666   24.7665 C   0  0  2  0  0  0  0  0  0  0  0  0
    8.2196  -15.4181   23.5125 N   0  0  0  0  0  0  0  0  0  0  0  0
    9.9428  -16.4834   24.8276 C   0  0  0  0  0  0  0  0  0  0  0  0
    9.7994  -17.6239   24.3411 O   0  0  0  0  0  0  0  0  0  0  0  0
   11.1684  -16.2932   25.5059 O   0  0  0  0  0  0  0  0  0  0  0  0
  2  1  1  0
  3  2  1  0
  4  3  2  0
  6  5  1  1
  6  7  1  0
  7  3  1  0
  8  6  1  0
  8  9  2  0
 11 10  1  0
 12 13  1  0
 12 11  1  0
 14 13  1  1
 14 15  1  0
 15  8  1  0
 16 14  1  0
 16 18  1  0
 17 16  2  0
M  END
$$$$
