GAM.pdb
     RDKit          3D

 18 17  0  0  1  0  0  0  0  0999 V2000
    5.7644  -18.5525   19.5129 N   0  0  0  0  0  0  0  0  0  0  0  0
    5.6386  -17.4564   20.4194 C   0  0  0  0  0  0  0  0  0  0  0  0
    6.8061  -16.5686   20.4494 C   0  0  0  0  0  0  0  0  0  0  0  0
    7.9499  -17.1328   20.5005 O   0  0  0  0  0  0  0  0  0  0  0  0
    7.6595  -12.9671   19.9432 C   0  0  0  0  0  0  0  0  0  0  0  0
    7.9716  -14.3673   20.4171 C   0  0  2  0  0  0  0  0  0  0  0  0
    6.7646  -15.1555   20.4265 N   0  0  0  0  0  0  0  0  0  0  0  0
    8.5643  -14.3739   21.7803 C   0  0  0  0  0  0  0  0  0  0  0  0
    9.7253  -13.9058   21.9784 O   0  0  0  0  0  0  0  0  0  0  0  0
    6.2015  -10.7205   27.1261 C   0  0  0  0  0  0  0  0  0  0  0  0
    6.1536  -12.4886   26.7832 S   0  0  0  0  0  0  0  0  0  0  0  0
    7.4981  -12.9685   25.6436 C   0  0  0  0  0  0  0  0  0  0  0  0
    7.3859  -14.4155   25.2546 C   0  0  0  0  0  0  0  0  0  0  0  0
    8.4488  -14.7804   24.2860 C   0  0  2  0  0  0  0  0  0  0  0  0
    7.8978  -14.8859   22.9178 N   0  0  0  0  0  0  0  0  0  0  0  0
    9.2250  -15.9739   24.6174 C   0  0  0  0  0  0  0  0  0  0  0  0
    9.0455  -17.1360   24.1988 O   0  0  0  0  0  0  0  0  0  0  0  0
   10.3126  -15.8419   25.5108 O   0  0  0  0  0  0  0  0  0  0  0  0
  2  1  1  0
  3  2  1  0
  4  3  2  0
  6  5  1  1
  6  7  1  0
  7  3  1  0
  8  6  1  0
  8  9  2  0
 11 10  1  0
 12 13  1  0
 12 11  1  0
 14 13  1  1
 14 15  1  0
 15  8  1  0
 16 14  1  0
 16 18  1  0
 17 16  2  0
M  END
$$$$
