GAM.pdb
     RDKit          3D

 18 17  0  0  1  0  0  0  0  0999 V2000
    6.4061  -19.2396   20.4933 N   0  0  0  0  0  0  0  0  0  0  0  0
    5.9945  -17.9242   20.8660 C   0  0  0  0  0  0  0  0  0  0  0  0
    7.0590  -16.9182   20.7810 C   0  0  0  0  0  0  0  0  0  0  0  0
    8.2466  -17.3575   20.6206 O   0  0  0  0  0  0  0  0  0  0  0  0
    7.5168  -13.2507   20.3433 C   0  0  0  0  0  0  0  0  0  0  0  0
    7.9919  -14.6086   20.8050 C   0  0  2  0  0  0  0  0  0  0  0  0
    6.8752  -15.5187   20.8616 N   0  0  0  0  0  0  0  0  0  0  0  0
    8.6343  -14.5473   22.1440 C   0  0  0  0  0  0  0  0  0  0  0  0
    9.7268  -13.9251   22.3046 O   0  0  0  0  0  0  0  0  0  0  0  0
    6.2797  -10.7737   26.9431 C   0  0  0  0  0  0  0  0  0  0  0  0
    6.1710  -12.5342   26.5755 S   0  0  0  0  0  0  0  0  0  0  0  0
    7.7646  -13.1690   25.9481 C   0  0  0  0  0  0  0  0  0  0  0  0
    7.6790  -14.6380   25.6439 C   0  0  0  0  0  0  0  0  0  0  0  0
    8.6999  -15.0242   24.6390 C   0  0  2  0  0  0  0  0  0  0  0  0
    8.0913  -15.1586   23.2980 N   0  0  0  0  0  0  0  0  0  0  0  0
    9.4897  -16.2110   24.9627 C   0  0  0  0  0  0  0  0  0  0  0  0
   10.0919  -16.4539   26.0286 O   0  0  0  0  0  0  0  0  0  0  0  0
    9.6116  -17.2246   23.9848 O   0  0  0  0  0  0  0  0  0  0  0  0
  2  1  1  0
  3  2  1  0
  4  3  2  0
  6  5  1  1
  6  7  1  0
  7  3  1  0
  8  6  1  0
  8  9  2  0
 11 10  1  0
 12 13  1  0
 12 11  1  0
 14 13  1  1
 14 15  1  0
 15  8  1  0
 16 14  1  0
 16 18  1  0
 17 16  2  0
M  END
$$$$
