GAM.pdb
     RDKit          3D

 18 17  0  0  1  0  0  0  0  0999 V2000
    6.5848  -18.5330   19.0802 N   0  0  0  0  0  0  0  0  0  0  0  0
    6.2130  -17.4079   19.8769 C   0  0  0  0  0  0  0  0  0  0  0  0
    7.2739  -16.4060   20.0283 C   0  0  0  0  0  0  0  0  0  0  0  0
    8.4585  -16.8510   20.1952 O   0  0  0  0  0  0  0  0  0  0  0  0
    7.8316  -12.7311   19.6785 C   0  0  0  0  0  0  0  0  0  0  0  0
    8.1900  -14.0971   20.2154 C   0  0  2  0  0  0  0  0  0  0  0  0
    7.0897  -15.0043   20.0041 N   0  0  0  0  0  0  0  0  0  0  0  0
    8.5125  -14.0574   21.6660 C   0  0  0  0  0  0  0  0  0  0  0  0
    9.6031  -13.5521   22.0681 O   0  0  0  0  0  0  0  0  0  0  0  0
    7.0303  -11.4026   28.2447 C   0  0  0  0  0  0  0  0  0  0  0  0
    6.8210  -11.7819   26.4959 S   0  0  0  0  0  0  0  0  0  0  0  0
    6.8249  -13.5868   26.2151 C   0  0  0  0  0  0  0  0  0  0  0  0
    6.5950  -13.9085   24.7654 C   0  0  0  0  0  0  0  0  0  0  0  0
    7.8652  -14.3068   24.1105 C   0  0  2  0  0  0  0  0  0  0  0  0
    7.6543  -14.5638   22.6696 N   0  0  0  0  0  0  0  0  0  0  0  0
    8.5738  -15.4252   24.7303 C   0  0  0  0  0  0  0  0  0  0  0  0
    8.8987  -15.5463   25.9293 O   0  0  0  0  0  0  0  0  0  0  0  0
    8.9533  -16.5155   23.9146 O   0  0  0  0  0  0  0  0  0  0  0  0
  2  1  1  0
  3  2  1  0
  4  3  2  0
  6  5  1  1
  6  7  1  0
  7  3  1  0
  8  6  1  0
  8  9  2  0
 11 10  1  0
 12 13  1  0
 12 11  1  0
 14 13  1  1
 14 15  1  0
 15  8  1  0
 16 14  1  0
 16 18  1  0
 17 16  2  0
M  END
$$$$
