WAY.pdb
     RDKit          3D

 32 34  0  0  1  0  0  0  0  0999 V2000
   26.4737  -19.6430  -12.2358 N   0  0  0  0  0  0  0  0  0  0  0  0
   26.4858  -21.0918  -12.1780 C   0  0  1  0  0  0  0  0  0  0  0  0
   25.7414  -21.6114  -10.9695 C   0  0  0  0  0  0  0  0  0  0  0  0
   26.2443  -20.9922   -9.7186 C   0  0  0  0  0  0  0  0  0  0  0  0
   25.5124  -20.2271   -8.8372 C   0  0  0  0  0  0  0  0  0  0  0  0
   26.3103  -19.8367   -7.8084 N   0  0  0  0  0  0  0  0  0  0  0  0
   27.5543  -20.3399   -8.0111 C   0  0  0  0  0  0  0  0  0  0  0  0
   28.7096  -20.2215   -7.2484 C   0  0  0  0  0  0  0  0  0  0  0  0
   29.8445  -20.8498   -7.7091 C   0  0  0  0  0  0  0  0  0  0  0  0
   29.8572  -21.5760   -8.8829 C   0  0  0  0  0  0  0  0  0  0  0  0
   28.6760  -21.6610   -9.6042 C   0  0  0  0  0  0  0  0  0  0  0  0
   27.5130  -21.0494   -9.1845 C   0  0  0  0  0  0  0  0  0  0  0  0
   25.7735  -21.5986  -13.3765 C   0  0  0  0  0  0  0  0  0  0  0  0
   24.6954  -21.0428  -13.6973 O   0  0  0  0  0  0  0  0  0  0  0  0
   26.2928  -24.1214  -16.0614 C   0  0  0  0  0  0  0  0  0  0  0  0
   25.4475  -23.1422  -15.2718 C   0  0  2  0  0  0  0  0  0  0  0  0
   26.2416  -22.6655  -14.1690 N   0  0  0  0  0  0  0  0  0  0  0  0
   24.2031  -23.8004  -14.7648 C   0  0  0  0  0  0  0  0  0  0  0  0
   24.2323  -24.4453  -13.6804 O   0  0  0  0  0  0  0  0  0  0  0  0
   17.0531  -21.9398  -10.8242 O   0  0  0  0  0  0  0  0  0  0  0  0
   18.2344  -22.0419  -11.5784 C   0  0  0  0  0  0  0  0  0  0  0  0
   19.1118  -23.0789  -11.3412 C   0  0  0  0  0  0  0  0  0  0  0  0
   20.2871  -23.1729  -12.0978 C   0  0  0  0  0  0  0  0  0  0  0  0
   20.5693  -22.2468  -13.0664 C   0  0  0  0  0  0  0  0  0  0  0  0
   21.7971  -22.3507  -13.8517 C   0  0  0  0  0  0  0  0  0  0  0  0
   21.7265  -23.6002  -14.7216 C   0  0  2  0  0  0  0  0  0  0  0  0
   22.9891  -23.7197  -15.4706 N   0  0  0  0  0  0  0  0  0  0  0  0
   20.5946  -23.6131  -15.6544 C   0  0  0  0  0  0  0  0  0  0  0  0
   20.5337  -22.8541  -16.6445 O   0  0  0  0  0  0  0  0  0  0  0  0
   19.6899  -21.2205  -13.2934 C   0  0  0  0  0  0  0  0  0  0  0  0
   18.5068  -21.0940  -12.5582 C   0  0  0  0  0  0  0  0  0  0  0  0
   19.5417  -24.4919  -15.4500 O   0  0  0  0  0  0  0  0  0  0  0  0
  2  1  1  6
  2 13  1  0
  2  3  1  0
  4  5  2  0
  4  3  1  0
  6  5  1  0
  7 12  2  0
  7  6  1  0
  8  7  1  0
  9 10  1  0
  9  8  2  0
 10 11  2  0
 11 12  1  0
 12  4  1  0
 13 14  2  0
 16 15  1  1
 17 16  1  0
 17 13  1  0
 18 16  1  0
 19 18  2  0
 20 21  1  0
 21 22  2  0
 21 31  1  0
 22 23  1  0
 23 24  2  0
 24 25  1  0
 26 25  1  6
 26 27  1  0
 26 28  1  0
 27 18  1  0
 28 32  1  0
 29 28  2  0
 30 24  1  0
 31 30  2  0
M  END
$$$$
