WAY.pdb
     RDKit          3D

 32 34  0  0  1  0  0  0  0  0999 V2000
   24.6185  -17.5540  -15.3836 N   0  0  0  0  0  0  0  0  0  0  0  0
   25.6539  -18.2696  -14.6636 C   0  0  1  0  0  0  0  0  0  0  0  0
   26.7864  -17.3561  -14.2541 C   0  0  0  0  0  0  0  0  0  0  0  0
   27.5133  -16.8339  -15.4374 C   0  0  0  0  0  0  0  0  0  0  0  0
   27.6587  -15.5087  -15.7843 C   0  0  0  0  0  0  0  0  0  0  0  0
   28.3879  -15.4192  -16.9279 N   0  0  0  0  0  0  0  0  0  0  0  0
   28.7186  -16.6728  -17.3290 C   0  0  0  0  0  0  0  0  0  0  0  0
   29.4497  -17.1034  -18.4292 C   0  0  0  0  0  0  0  0  0  0  0  0
   29.6280  -18.4596  -18.5845 C   0  0  0  0  0  0  0  0  0  0  0  0
   29.1087  -19.3759  -17.6925 C   0  0  0  0  0  0  0  0  0  0  0  0
   28.3872  -18.8904  -16.6124 C   0  0  0  0  0  0  0  0  0  0  0  0
   28.1811  -17.5412  -16.4131 C   0  0  0  0  0  0  0  0  0  0  0  0
   25.0530  -18.8009  -13.4157 C   0  0  0  0  0  0  0  0  0  0  0  0
   24.4235  -18.0022  -12.6812 O   0  0  0  0  0  0  0  0  0  0  0  0
   23.8858  -21.8713  -11.9509 C   0  0  0  0  0  0  0  0  0  0  0  0
   24.6149  -20.5589  -11.7429 C   0  0  2  0  0  0  0  0  0  0  0  0
   25.1517  -20.1481  -13.0145 N   0  0  0  0  0  0  0  0  0  0  0  0
   25.7175  -20.7145  -10.7435 C   0  0  0  0  0  0  0  0  0  0  0  0
   26.7519  -21.3700  -11.0483 O   0  0  0  0  0  0  0  0  0  0  0  0
   29.5352  -20.0489   -2.8593 O   0  0  0  0  0  0  0  0  0  0  0  0
   28.9423  -19.8100   -4.1108 C   0  0  0  0  0  0  0  0  0  0  0  0
   29.7203  -19.8099   -5.2493 C   0  0  0  0  0  0  0  0  0  0  0  0
   29.1209  -19.5708   -6.4927 C   0  0  0  0  0  0  0  0  0  0  0  0
   27.7745  -19.3383   -6.5850 C   0  0  0  0  0  0  0  0  0  0  0  0
   27.1557  -19.0894   -7.8850 C   0  0  0  0  0  0  0  0  0  0  0  0
   26.6966  -20.4158   -8.4791 C   0  0  2  0  0  0  0  0  0  0  0  0
   25.6322  -20.1446   -9.4604 N   0  0  0  0  0  0  0  0  0  0  0  0
   26.2174  -21.3801   -7.4832 C   0  0  0  0  0  0  0  0  0  0  0  0
   25.0031  -21.5511   -7.2462 O   0  0  0  0  0  0  0  0  0  0  0  0
   27.0111  -19.3408   -5.4468 C   0  0  0  0  0  0  0  0  0  0  0  0
   27.5742  -19.5756   -4.1882 C   0  0  0  0  0  0  0  0  0  0  0  0
   27.1277  -22.1416   -6.7659 O   0  0  0  0  0  0  0  0  0  0  0  0
  2  1  1  1
  2 13  1  0
  2  3  1  0
  4  5  2  0
  4  3  1  0
  6  5  1  0
  7 12  2  0
  7  6  1  0
  8  7  1  0
  9 10  1  0
  9  8  2  0
 10 11  2  0
 11 12  1  0
 12  4  1  0
 13 14  2  0
 16 15  1  6
 17 16  1  0
 17 13  1  0
 18 16  1  0
 19 18  2  0
 20 21  1  0
 21 22  2  0
 21 31  1  0
 22 23  1  0
 23 24  2  0
 24 25  1  0
 26 25  1  1
 26 27  1  0
 26 28  1  0
 27 18  1  0
 28 32  1  0
 29 28  2  0
 30 24  1  0
 31 30  2  0
M  END
$$$$
