WAY.pdb
     RDKit          3D

 32 34  0  0  1  0  0  0  0  0999 V2000
   24.9689  -19.8967  -17.7815 N   0  0  0  0  0  0  0  0  0  0  0  0
   25.8403  -19.1249  -16.9171 C   0  0  1  0  0  0  0  0  0  0  0  0
   25.1274  -17.9323  -16.3220 C   0  0  0  0  0  0  0  0  0  0  0  0
   24.8232  -16.9137  -17.3570 C   0  0  0  0  0  0  0  0  0  0  0  0
   23.5711  -16.4615  -17.7113 C   0  0  0  0  0  0  0  0  0  0  0  0
   23.6894  -15.5290  -18.6931 N   0  0  0  0  0  0  0  0  0  0  0  0
   25.0059  -15.3697  -18.9817 C   0  0  0  0  0  0  0  0  0  0  0  0
   25.6324  -14.5405  -19.9039 C   0  0  0  0  0  0  0  0  0  0  0  0
   27.0060  -14.5930  -19.9779 C   0  0  0  0  0  0  0  0  0  0  0  0
   27.7537  -15.4309  -19.1753 C   0  0  0  0  0  0  0  0  0  0  0  0
   27.0763  -16.2367  -18.2726 C   0  0  0  0  0  0  0  0  0  0  0  0
   25.7017  -16.2205  -18.1607 C   0  0  0  0  0  0  0  0  0  0  0  0
   26.2443  -19.9965  -15.7867 C   0  0  0  0  0  0  0  0  0  0  0  0
   25.3775  -20.7576  -15.2937 O   0  0  0  0  0  0  0  0  0  0  0  0
   29.3200  -20.9232  -13.9294 C   0  0  0  0  0  0  0  0  0  0  0  0
   27.8157  -20.7962  -14.0627 C   0  0  2  0  0  0  0  0  0  0  0  0
   27.5433  -20.0141  -15.2409 N   0  0  0  0  0  0  0  0  0  0  0  0
   27.2279  -20.1339  -12.8566 C   0  0  0  0  0  0  0  0  0  0  0  0
   27.2863  -18.8787  -12.7398 O   0  0  0  0  0  0  0  0  0  0  0  0
   20.5733  -21.7471  -13.1375 O   0  0  0  0  0  0  0  0  0  0  0  0
   21.7033  -21.0988  -12.6108 C   0  0  0  0  0  0  0  0  0  0  0  0
   21.7906  -20.8667  -11.2543 C   0  0  0  0  0  0  0  0  0  0  0  0
   22.9207  -20.2197  -10.7379 C   0  0  0  0  0  0  0  0  0  0  0  0
   23.9344  -19.8182  -11.5666 C   0  0  0  0  0  0  0  0  0  0  0  0
   25.1103  -19.1437  -11.0213 C   0  0  0  0  0  0  0  0  0  0  0  0
   26.1432  -20.1908  -10.6216 C   0  0  2  0  0  0  0  0  0  0  0  0
   26.6057  -20.8792  -11.8388 N   0  0  0  0  0  0  0  0  0  0  0  0
   25.6486  -21.1758   -9.6537 C   0  0  0  0  0  0  0  0  0  0  0  0
   25.2186  -20.8507   -8.5271 O   0  0  0  0  0  0  0  0  0  0  0  0
   23.8369  -20.0543  -12.9130 C   0  0  0  0  0  0  0  0  0  0  0  0
   22.7241  -20.6973  -13.4649 C   0  0  0  0  0  0  0  0  0  0  0  0
   25.6486  -22.5237   -9.9795 O   0  0  0  0  0  0  0  0  0  0  0  0
  2  1  1  6
  2 13  1  0
  2  3  1  0
  4  5  2  0
  4  3  1  0
  6  5  1  0
  7 12  2  0
  7  6  1  0
  8  7  1  0
  9 10  1  0
  9  8  2  0
 10 11  2  0
 11 12  1  0
 12  4  1  0
 13 14  2  0
 16 15  1  1
 17 16  1  0
 17 13  1  0
 18 16  1  0
 19 18  2  0
 20 21  1  0
 21 22  2  0
 21 31  1  0
 22 23  1  0
 23 24  2  0
 24 25  1  0
 26 25  1  6
 26 27  1  0
 26 28  1  0
 27 18  1  0
 28 32  1  0
 29 28  2  0
 30 24  1  0
 31 30  2  0
M  END
$$$$
