WAY.pdb
     RDKit          3D

 32 34  0  0  1  0  0  0  0  0999 V2000
   14.1378  -15.8314    4.6488 N   0  0  0  0  0  0  0  0  0  0  0  0
   15.3363  -16.5334    4.2325 C   0  0  1  0  0  0  0  0  0  0  0  0
   16.4267  -16.4495    5.2759 C   0  0  0  0  0  0  0  0  0  0  0  0
   17.2361  -15.2168    5.1125 C   0  0  0  0  0  0  0  0  0  0  0  0
   17.1516  -14.0790    5.8845 C   0  0  0  0  0  0  0  0  0  0  0  0
   18.0502  -13.1626    5.4372 N   0  0  0  0  0  0  0  0  0  0  0  0
   18.7189  -13.6923    4.3816 C   0  0  0  0  0  0  0  0  0  0  0  0
   19.7250  -13.1530    3.5896 C   0  0  0  0  0  0  0  0  0  0  0  0
   20.2229  -13.9349    2.5719 C   0  0  0  0  0  0  0  0  0  0  0  0
   19.7548  -15.2104    2.3289 C   0  0  0  0  0  0  0  0  0  0  0  0
   18.7497  -15.6983    3.1503 C   0  0  0  0  0  0  0  0  0  0  0  0
   18.2182  -14.9540    4.1828 C   0  0  0  0  0  0  0  0  0  0  0  0
   14.9910  -17.9682    4.0812 C   0  0  0  0  0  0  0  0  0  0  0  0
   14.1975  -18.4717    4.9123 O   0  0  0  0  0  0  0  0  0  0  0  0
   15.3395  -20.6784    1.6055 C   0  0  0  0  0  0  0  0  0  0  0  0
   15.1747  -20.1920    3.0314 C   0  0  2  0  0  0  0  0  0  0  0  0
   15.5047  -18.7904    3.0587 N   0  0  0  0  0  0  0  0  0  0  0  0
   16.0695  -20.9507    3.9600 C   0  0  0  0  0  0  0  0  0  0  0  0
   15.7957  -22.1464    4.2570 O   0  0  0  0  0  0  0  0  0  0  0  0
   22.6751  -23.2171    9.1996 O   0  0  0  0  0  0  0  0  0  0  0  0
   21.8874  -22.6112    8.2059 C   0  0  0  0  0  0  0  0  0  0  0  0
   21.8429  -21.2364    8.1098 C   0  0  0  0  0  0  0  0  0  0  0  0
   21.0551  -20.6409    7.1161 C   0  0  0  0  0  0  0  0  0  0  0  0
   20.3324  -21.4109    6.2441 C   0  0  0  0  0  0  0  0  0  0  0  0
   19.5125  -20.7833    5.2102 C   0  0  0  0  0  0  0  0  0  0  0  0
   18.0510  -21.1452    5.4471 C   0  0  2  0  0  0  0  0  0  0  0  0
   17.2193  -20.3624    4.5171 N   0  0  0  0  0  0  0  0  0  0  0  0
   17.5979  -20.9216    6.8241 C   0  0  0  0  0  0  0  0  0  0  0  0
   17.3764  -19.7799    7.2795 O   0  0  0  0  0  0  0  0  0  0  0  0
   20.3843  -22.7763    6.3490 C   0  0  0  0  0  0  0  0  0  0  0  0
   21.1595  -23.4064    7.3280 C   0  0  0  0  0  0  0  0  0  0  0  0
   17.4012  -22.0025    7.6702 O   0  0  0  0  0  0  0  0  0  0  0  0
  2  1  1  1
  2 13  1  0
  2  3  1  0
  4  5  2  0
  4  3  1  0
  6  5  1  0
  7 12  2  0
  7  6  1  0
  8  7  1  0
  9 10  1  0
  9  8  2  0
 10 11  2  0
 11 12  1  0
 12  4  1  0
 13 14  2  0
 16 15  1  6
 17 16  1  0
 17 13  1  0
 18 16  1  0
 19 18  2  0
 20 21  1  0
 21 22  2  0
 21 31  1  0
 22 23  1  0
 23 24  2  0
 24 25  1  0
 26 25  1  1
 26 27  1  0
 26 28  1  0
 27 18  1  0
 28 32  1  0
 29 28  2  0
 30 24  1  0
 31 30  2  0
M  END
$$$$
