WAY.pdb
     RDKit          3D

 32 34  0  0  1  0  0  0  0  0999 V2000
   22.4785  -19.9977  -16.9514 N   0  0  0  0  0  0  0  0  0  0  0  0
   23.3982  -19.1828  -16.1817 C   0  0  1  0  0  0  0  0  0  0  0  0
   22.6699  -18.2541  -15.2375 C   0  0  0  0  0  0  0  0  0  0  0  0
   22.0522  -17.1191  -15.9665 C   0  0  0  0  0  0  0  0  0  0  0  0
   20.7033  -16.8691  -16.0919 C   0  0  0  0  0  0  0  0  0  0  0  0
   20.5200  -15.7405  -16.8267 N   0  0  0  0  0  0  0  0  0  0  0  0
   21.7360  -15.2531  -17.1811 C   0  0  0  0  0  0  0  0  0  0  0  0
   22.0745  -14.1309  -17.9272 C   0  0  0  0  0  0  0  0  0  0  0  0
   23.4129  -13.8807  -18.1301 C   0  0  0  0  0  0  0  0  0  0  0  0
   24.3993  -14.7008  -17.6206 C   0  0  0  0  0  0  0  0  0  0  0  0
   24.0044  -15.8069  -16.8834 C   0  0  0  0  0  0  0  0  0  0  0  0
   22.6766  -16.1003  -16.6525 C   0  0  0  0  0  0  0  0  0  0  0  0
   24.2194  -20.0931  -15.3464 C   0  0  0  0  0  0  0  0  0  0  0  0
   23.6212  -20.8824  -14.5763 O   0  0  0  0  0  0  0  0  0  0  0  0
   27.7975  -20.9543  -14.8281 C   0  0  0  0  0  0  0  0  0  0  0  0
   26.3507  -20.8749  -14.3836 C   0  0  2  0  0  0  0  0  0  0  0  0
   25.6280  -20.1175  -15.3725 N   0  0  0  0  0  0  0  0  0  0  0  0
   26.2399  -20.2145  -13.0456 C   0  0  0  0  0  0  0  0  0  0  0  0
   26.1341  -18.9590  -12.9731 O   0  0  0  0  0  0  0  0  0  0  0  0
   20.4940  -22.7320  -10.1594 O   0  0  0  0  0  0  0  0  0  0  0  0
   21.6240  -21.8998  -10.2329 C   0  0  0  0  0  0  0  0  0  0  0  0
   22.3451  -21.6201   -9.0913 C   0  0  0  0  0  0  0  0  0  0  0  0
   23.4702  -20.7896   -9.1739 C   0  0  0  0  0  0  0  0  0  0  0  0
   23.8570  -20.2562  -10.3745 C   0  0  0  0  0  0  0  0  0  0  0  0
   25.0314  -19.3905  -10.4535 C   0  0  0  0  0  0  0  0  0  0  0  0
   26.2810  -20.2565  -10.5612 C   0  0  2  0  0  0  0  0  0  0  0  0
   26.2504  -20.9618  -11.8539 N   0  0  0  0  0  0  0  0  0  0  0  0
   26.4284  -21.2271   -9.4714 C   0  0  0  0  0  0  0  0  0  0  0  0
   26.4738  -22.4589   -9.6728 O   0  0  0  0  0  0  0  0  0  0  0  0
   23.1328  -20.5411  -11.5025 C   0  0  0  0  0  0  0  0  0  0  0  0
   22.0041  -21.3659  -11.4590 C   0  0  0  0  0  0  0  0  0  0  0  0
   26.5230  -20.7843   -8.1608 O   0  0  0  0  0  0  0  0  0  0  0  0
  2  1  1  1
  2 13  1  0
  2  3  1  0
  4  5  2  0
  4  3  1  0
  6  5  1  0
  7 12  2  0
  7  6  1  0
  8  7  1  0
  9 10  1  0
  9  8  2  0
 10 11  2  0
 11 12  1  0
 12  4  1  0
 13 14  2  0
 16 15  1  6
 17 16  1  0
 17 13  1  0
 18 16  1  0
 19 18  2  0
 20 21  1  0
 21 22  2  0
 21 31  1  0
 22 23  1  0
 23 24  2  0
 24 25  1  0
 26 25  1  1
 26 27  1  0
 26 28  1  0
 27 18  1  0
 28 32  1  0
 29 28  2  0
 30 24  1  0
 31 30  2  0
M  END
$$$$
