WAY.pdb
     RDKit          3D

 32 34  0  0  1  0  0  0  0  0999 V2000
   22.1602  -11.1346  -18.9705 N   0  0  0  0  0  0  0  0  0  0  0  0
   21.7371  -10.1761  -19.9728 C   0  0  1  0  0  0  0  0  0  0  0  0
   20.4601   -9.4730  -19.5731 C   0  0  0  0  0  0  0  0  0  0  0  0
   19.2914  -10.3821  -19.6671 C   0  0  0  0  0  0  0  0  0  0  0  0
   18.9278  -11.3389  -18.7451 C   0  0  0  0  0  0  0  0  0  0  0  0
   17.8033  -11.9721  -19.1717 N   0  0  0  0  0  0  0  0  0  0  0  0
   17.4311  -11.4372  -20.3622 C   0  0  0  0  0  0  0  0  0  0  0  0
   16.3587  -11.7422  -21.1913 C   0  0  0  0  0  0  0  0  0  0  0  0
   16.2302  -11.0222  -22.3576 C   0  0  0  0  0  0  0  0  0  0  0  0
   17.1220  -10.0296  -22.7105 C   0  0  0  0  0  0  0  0  0  0  0  0
   18.1738   -9.7672  -21.8457 C   0  0  0  0  0  0  0  0  0  0  0  0
   18.3456  -10.4607  -20.6658 C   0  0  0  0  0  0  0  0  0  0  0  0
   22.7897   -9.1361  -20.0776 C   0  0  0  0  0  0  0  0  0  0  0  0
   23.4945   -8.9103  -19.0646 O   0  0  0  0  0  0  0  0  0  0  0  0
   24.5316   -7.2169  -22.6943 C   0  0  0  0  0  0  0  0  0  0  0  0
   24.0787   -7.3974  -21.2593 C   0  0  2  0  0  0  0  0  0  0  0  0
   23.0381   -8.3929  -21.2487 N   0  0  0  0  0  0  0  0  0  0  0  0
   23.5661   -6.1094  -20.6962 C   0  0  0  0  0  0  0  0  0  0  0  0
   24.3540   -5.1361  -20.5397 O   0  0  0  0  0  0  0  0  0  0  0  0
   19.0133    0.7605  -18.1848 O   0  0  0  0  0  0  0  0  0  0  0  0
   19.5278   -0.3844  -18.8166 C   0  0  0  0  0  0  0  0  0  0  0  0
   18.6991   -1.4560  -19.0746 C   0  0  0  0  0  0  0  0  0  0  0  0
   19.2205   -2.5933  -19.7049 C   0  0  0  0  0  0  0  0  0  0  0  0
   20.5407   -2.6481  -20.0647 C   0  0  0  0  0  0  0  0  0  0  0  0
   21.0780   -3.8376  -20.7216 C   0  0  0  0  0  0  0  0  0  0  0  0
   21.7862   -4.7010  -19.6843 C   0  0  2  0  0  0  0  0  0  0  0  0
   22.2164   -5.9516  -20.3327 N   0  0  0  0  0  0  0  0  0  0  0  0
   20.9669   -5.0103  -18.5076 C   0  0  0  0  0  0  0  0  0  0  0  0
   20.2271   -6.0150  -18.4516 O   0  0  0  0  0  0  0  0  0  0  0  0
   21.3549   -1.5771  -19.8034 C   0  0  0  0  0  0  0  0  0  0  0  0
   20.8702   -0.4249  -19.1759 C   0  0  0  0  0  0  0  0  0  0  0  0
   20.9986   -4.1708  -17.4044 O   0  0  0  0  0  0  0  0  0  0  0  0
  2  1  1  1
  2 13  1  0
  2  3  1  0
  4  5  2  0
  4  3  1  0
  6  5  1  0
  7 12  2  0
  7  6  1  0
  8  7  1  0
  9 10  1  0
  9  8  2  0
 10 11  2  0
 11 12  1  0
 12  4  1  0
 13 14  2  0
 16 15  1  6
 17 16  1  0
 17 13  1  0
 18 16  1  0
 19 18  2  0
 20 21  1  0
 21 22  2  0
 21 31  1  0
 22 23  1  0
 23 24  2  0
 24 25  1  0
 26 25  1  6
 26 27  1  0
 26 28  1  0
 27 18  1  0
 28 32  1  0
 29 28  2  0
 30 24  1  0
 31 30  2  0
M  END
$$$$
