WAY.pdb
     RDKit          3D

 32 34  0  0  1  0  0  0  0  0999 V2000
   24.2132  -18.5094  -18.0805 N   0  0  0  0  0  0  0  0  0  0  0  0
   24.7037  -17.9283  -16.8460 C   0  0  1  0  0  0  0  0  0  0  0  0
   23.5745  -17.4376  -15.9692 C   0  0  0  0  0  0  0  0  0  0  0  0
   23.0548  -16.1301  -16.4399 C   0  0  0  0  0  0  0  0  0  0  0  0
   21.9020  -15.9256  -17.1659 C   0  0  0  0  0  0  0  0  0  0  0  0
   21.7529  -14.5970  -17.4110 N   0  0  0  0  0  0  0  0  0  0  0  0
   22.7971  -13.9345  -16.8520 C   0  0  0  0  0  0  0  0  0  0  0  0
   23.0948  -12.5775  -16.8287 C   0  0  0  0  0  0  0  0  0  0  0  0
   24.2423  -12.1881  -16.1755 C   0  0  0  0  0  0  0  0  0  0  0  0
   25.0809  -13.0950  -15.5595 C   0  0  0  0  0  0  0  0  0  0  0  0
   24.7350  -14.4367  -15.6138 C   0  0  0  0  0  0  0  0  0  0  0  0
   23.5963  -14.8767  -16.2558 C   0  0  0  0  0  0  0  0  0  0  0  0
   25.4062  -18.9948  -16.0912 C   0  0  0  0  0  0  0  0  0  0  0  0
   24.8339  -20.1051  -15.9742 O   0  0  0  0  0  0  0  0  0  0  0  0
   28.6382  -19.5405  -14.3442 C   0  0  0  0  0  0  0  0  0  0  0  0
   27.1588  -19.7956  -14.5524 C   0  0  2  0  0  0  0  0  0  0  0  0
   26.6752  -18.8271  -15.5023 N   0  0  0  0  0  0  0  0  0  0  0  0
   26.4100  -19.6718  -13.2629 C   0  0  0  0  0  0  0  0  0  0  0  0
   25.8052  -18.5983  -12.9898 O   0  0  0  0  0  0  0  0  0  0  0  0
   19.4731  -21.5207   -8.8896 O   0  0  0  0  0  0  0  0  0  0  0  0
   20.5836  -21.3499   -9.7337 C   0  0  0  0  0  0  0  0  0  0  0  0
   20.8338  -22.2678  -10.7318 C   0  0  0  0  0  0  0  0  0  0  0  0
   21.9431  -22.0897  -11.5686 C   0  0  0  0  0  0  0  0  0  0  0  0
   22.7764  -21.0156  -11.4032 C   0  0  0  0  0  0  0  0  0  0  0  0
   23.9318  -20.8359  -12.2795 C   0  0  0  0  0  0  0  0  0  0  0  0
   25.2014  -20.8458  -11.4363 C   0  0  2  0  0  0  0  0  0  0  0  0
   26.3611  -20.7294  -12.3369 N   0  0  0  0  0  0  0  0  0  0  0  0
   25.3471  -22.0374  -10.5934 C   0  0  0  0  0  0  0  0  0  0  0  0
   25.6081  -23.1640  -11.0652 O   0  0  0  0  0  0  0  0  0  0  0  0
   22.5179  -20.1096  -10.4080 C   0  0  0  0  0  0  0  0  0  0  0  0
   21.4203  -20.2543   -9.5533 C   0  0  0  0  0  0  0  0  0  0  0  0
   25.1940  -21.9337   -9.2192 O   0  0  0  0  0  0  0  0  0  0  0  0
  2  1  1  6
  2 13  1  0
  2  3  1  0
  4  5  2  0
  4  3  1  0
  6  5  1  0
  7 12  2  0
  7  6  1  0
  8  7  1  0
  9 10  1  0
  9  8  2  0
 10 11  2  0
 11 12  1  0
 12  4  1  0
 13 14  2  0
 16 15  1  1
 17 16  1  0
 17 13  1  0
 18 16  1  0
 19 18  2  0
 20 21  1  0
 21 22  2  0
 21 31  1  0
 22 23  1  0
 23 24  2  0
 24 25  1  0
 26 25  1  6
 26 27  1  0
 26 28  1  0
 27 18  1  0
 28 32  1  0
 29 28  2  0
 30 24  1  0
 31 30  2  0
M  END
$$$$
