WAY.pdb
     RDKit          3D

 32 34  0  0  1  0  0  0  0  0999 V2000
   20.3106  -17.4632    6.9219 N   0  0  0  0  0  0  0  0  0  0  0  0
   20.5294  -16.6311    8.0890 C   0  0  1  0  0  0  0  0  0  0  0  0
   19.2553  -15.9572    8.5445 C   0  0  0  0  0  0  0  0  0  0  0  0
   18.9185  -14.7995    7.6800 C   0  0  0  0  0  0  0  0  0  0  0  0
   17.7808  -14.6573    6.9161 C   0  0  0  0  0  0  0  0  0  0  0  0
   17.8223  -13.4664    6.2625 N   0  0  0  0  0  0  0  0  0  0  0  0
   18.9755  -12.8317    6.5930 C   0  0  0  0  0  0  0  0  0  0  0  0
   19.4734  -11.5991    6.1890 C   0  0  0  0  0  0  0  0  0  0  0  0
   20.6916  -11.2068    6.6962 C   0  0  0  0  0  0  0  0  0  0  0  0
   21.4094  -11.9930    7.5748 C   0  0  0  0  0  0  0  0  0  0  0  0
   20.8649  -13.2136    7.9441 C   0  0  0  0  0  0  0  0  0  0  0  0
   19.6482  -13.6511    7.4636 C   0  0  0  0  0  0  0  0  0  0  0  0
   20.9732  -17.5124    9.1967 C   0  0  0  0  0  0  0  0  0  0  0  0
   21.0658  -18.7423    8.9670 O   0  0  0  0  0  0  0  0  0  0  0  0
   22.5494  -17.1189   12.5163 C   0  0  0  0  0  0  0  0  0  0  0  0
   21.8433  -17.9482   11.4625 C   0  0  2  0  0  0  0  0  0  0  0  0
   21.2944  -17.0432   10.4860 N   0  0  0  0  0  0  0  0  0  0  0  0
   20.7530  -18.7706   12.0740 C   0  0  0  0  0  0  0  0  0  0  0  0
   19.6078  -18.2676   12.2424 O   0  0  0  0  0  0  0  0  0  0  0  0
   16.4872  -20.9036    7.8587 O   0  0  0  0  0  0  0  0  0  0  0  0
   17.2656  -21.2063    8.9888 C   0  0  0  0  0  0  0  0  0  0  0  0
   18.6192  -21.4295    8.8493 C   0  0  0  0  0  0  0  0  0  0  0  0
   19.3875  -21.7307    9.9814 C   0  0  0  0  0  0  0  0  0  0  0  0
   18.8066  -21.8046   11.2194 C   0  0  0  0  0  0  0  0  0  0  0  0
   19.6138  -22.1194   12.3960 C   0  0  0  0  0  0  0  0  0  0  0  0
   19.8964  -20.8333   13.1634 C   0  0  2  0  0  0  0  0  0  0  0  0
   20.9711  -20.1024   12.4704 N   0  0  0  0  0  0  0  0  0  0  0  0
   20.2680  -21.0465   14.5663 C   0  0  0  0  0  0  0  0  0  0  0  0
   21.3531  -20.6489   15.0399 O   0  0  0  0  0  0  0  0  0  0  0  0
   17.4604  -21.5808   11.3460 C   0  0  0  0  0  0  0  0  0  0  0  0
   16.6613  -21.2777   10.2388 C   0  0  0  0  0  0  0  0  0  0  0  0
   19.3983  -21.7116   15.4173 O   0  0  0  0  0  0  0  0  0  0  0  0
  2  1  1  6
  2 13  1  0
  2  3  1  0
  4  5  2  0
  4  3  1  0
  6  5  1  0
  7 12  2  0
  7  6  1  0
  8  7  1  0
  9 10  1  0
  9  8  2  0
 10 11  2  0
 11 12  1  0
 12  4  1  0
 13 14  2  0
 16 15  1  1
 17 16  1  0
 17 13  1  0
 18 16  1  0
 19 18  2  0
 20 21  1  0
 21 22  2  0
 21 31  1  0
 22 23  1  0
 23 24  2  0
 24 25  1  0
 26 25  1  6
 26 27  1  0
 26 28  1  0
 27 18  1  0
 28 32  1  0
 29 28  2  0
 30 24  1  0
 31 30  2  0
M  END
$$$$
