WAY.pdb
     RDKit          3D

 32 34  0  0  1  0  0  0  0  0999 V2000
   27.7475  -22.8505  -13.5258 N   0  0  0  0  0  0  0  0  0  0  0  0
   26.5800  -22.2684  -12.8928 C   0  0  1  0  0  0  0  0  0  0  0  0
   26.8120  -20.8257  -12.5063 C   0  0  0  0  0  0  0  0  0  0  0  0
   27.8252  -20.7120  -11.4285 C   0  0  0  0  0  0  0  0  0  0  0  0
   29.1930  -20.7276  -11.5918 C   0  0  0  0  0  0  0  0  0  0  0  0
   29.7936  -20.5981  -10.3793 N   0  0  0  0  0  0  0  0  0  0  0  0
   28.8305  -20.4984   -9.4283 C   0  0  0  0  0  0  0  0  0  0  0  0
   28.9361  -20.3524   -8.0506 C   0  0  0  0  0  0  0  0  0  0  0  0
   27.7679  -20.2775   -7.3264 C   0  0  0  0  0  0  0  0  0  0  0  0
   26.5263  -20.3427   -7.9258 C   0  0  0  0  0  0  0  0  0  0  0  0
   26.4799  -20.4887   -9.3040 C   0  0  0  0  0  0  0  0  0  0  0  0
   27.6219  -20.5685  -10.0734 C   0  0  0  0  0  0  0  0  0  0  0  0
   25.4754  -22.2795  -13.8830 C   0  0  0  0  0  0  0  0  0  0  0  0
   25.4145  -21.3335  -14.7047 O   0  0  0  0  0  0  0  0  0  0  0  0
   22.6696  -24.4697  -14.9364 C   0  0  0  0  0  0  0  0  0  0  0  0
   23.3435  -23.1196  -14.7938 C   0  0  2  0  0  0  0  0  0  0  0  0
   24.4966  -23.2910  -13.9484 N   0  0  0  0  0  0  0  0  0  0  0  0
   22.4080  -22.1179  -14.1935 C   0  0  0  0  0  0  0  0  0  0  0  0
   22.7692  -21.4475  -13.1871 O   0  0  0  0  0  0  0  0  0  0  0  0
   17.5958  -15.3293  -12.6582 O   0  0  0  0  0  0  0  0  0  0  0  0
   18.4453  -16.3693  -13.0723 C   0  0  0  0  0  0  0  0  0  0  0  0
   19.5390  -16.7084  -12.3040 C   0  0  0  0  0  0  0  0  0  0  0  0
   20.3805  -17.7465  -12.7244 C   0  0  0  0  0  0  0  0  0  0  0  0
   20.1259  -18.4234  -13.8874 C   0  0  0  0  0  0  0  0  0  0  0  0
   21.0078  -19.5050  -14.3202 C   0  0  0  0  0  0  0  0  0  0  0  0
   20.2804  -20.8345  -14.1583 C   0  0  2  0  0  0  0  0  0  0  0  0
   21.1240  -21.9006  -14.7250 N   0  0  0  0  0  0  0  0  0  0  0  0
   18.9542  -20.8676  -14.7841 C   0  0  0  0  0  0  0  0  0  0  0  0
   18.7984  -20.9776  -16.0185 O   0  0  0  0  0  0  0  0  0  0  0  0
   19.0360  -18.0778  -14.6430 C   0  0  0  0  0  0  0  0  0  0  0  0
   18.1735  -17.0471  -14.2553 C   0  0  0  0  0  0  0  0  0  0  0  0
   17.8167  -20.7752  -13.9965 O   0  0  0  0  0  0  0  0  0  0  0  0
  2  1  1  6
  2 13  1  0
  2  3  1  0
  4  5  2  0
  4  3  1  0
  6  5  1  0
  7 12  2  0
  7  6  1  0
  8  7  1  0
  9 10  1  0
  9  8  2  0
 10 11  2  0
 11 12  1  0
 12  4  1  0
 13 14  2  0
 16 15  1  1
 17 16  1  0
 17 13  1  0
 18 16  1  0
 19 18  2  0
 20 21  1  0
 21 22  2  0
 21 31  1  0
 22 23  1  0
 23 24  2  0
 24 25  1  0
 26 25  1  6
 26 27  1  0
 26 28  1  0
 27 18  1  0
 28 32  1  0
 29 28  2  0
 30 24  1  0
 31 30  2  0
M  END
$$$$
