WAY.pdb
     RDKit          3D

 32 34  0  0  1  0  0  0  0  0999 V2000
   29.0254  -22.9092  -17.6954 N   0  0  0  0  0  0  0  0  0  0  0  0
   28.3512  -21.6605  -17.3977 C   0  0  1  0  0  0  0  0  0  0  0  0
   27.0424  -21.5375  -18.1438 C   0  0  0  0  0  0  0  0  0  0  0  0
   26.3711  -20.2482  -17.8468 C   0  0  0  0  0  0  0  0  0  0  0  0
   26.9529  -19.0000  -17.8822 C   0  0  0  0  0  0  0  0  0  0  0  0
   26.0267  -18.0611  -17.5535 N   0  0  0  0  0  0  0  0  0  0  0  0
   24.8477  -18.6854  -17.3045 C   0  0  0  0  0  0  0  0  0  0  0  0
   23.6135  -18.1658  -16.9342 C   0  0  0  0  0  0  0  0  0  0  0  0
   22.5785  -19.0540  -16.7469 C   0  0  0  0  0  0  0  0  0  0  0  0
   22.7384  -20.4146  -16.9151 C   0  0  0  0  0  0  0  0  0  0  0  0
   23.9918  -20.8781  -17.2852 C   0  0  0  0  0  0  0  0  0  0  0  0
   25.0600  -20.0287  -17.4848 C   0  0  0  0  0  0  0  0  0  0  0  0
   28.0267  -21.6551  -15.9501 C   0  0  0  0  0  0  0  0  0  0  0  0
   27.5630  -22.7075  -15.4488 O   0  0  0  0  0  0  0  0  0  0  0  0
   28.8328  -19.7132  -12.9598 C   0  0  0  0  0  0  0  0  0  0  0  0
   27.8869  -20.6266  -13.7133 C   0  0  2  0  0  0  0  0  0  0  0  0
   28.2110  -20.5363  -15.1136 N   0  0  0  0  0  0  0  0  0  0  0  0
   26.4637  -20.2242  -13.4862 C   0  0  0  0  0  0  0  0  0  0  0  0
   25.9221  -19.3780  -14.2499 O   0  0  0  0  0  0  0  0  0  0  0  0
   22.7797  -26.3083  -13.5891 O   0  0  0  0  0  0  0  0  0  0  0  0
   22.9648  -24.9154  -13.5683 C   0  0  0  0  0  0  0  0  0  0  0  0
   21.8738  -24.0804  -13.4510 C   0  0  0  0  0  0  0  0  0  0  0  0
   22.0677  -22.6931  -13.4311 C   0  0  0  0  0  0  0  0  0  0  0  0
   23.3269  -22.1631  -13.5269 C   0  0  0  0  0  0  0  0  0  0  0  0
   23.5220  -20.7152  -13.5057 C   0  0  0  0  0  0  0  0  0  0  0  0
   24.3078  -20.3378  -12.2555 C   0  0  2  0  0  0  0  0  0  0  0  0
   25.7050  -20.7685  -12.4343 N   0  0  0  0  0  0  0  0  0  0  0  0
   23.7681  -20.9103  -11.0176 C   0  0  0  0  0  0  0  0  0  0  0  0
   22.5684  -20.7911  -10.6916 O   0  0  0  0  0  0  0  0  0  0  0  0
   24.4038  -23.0027  -13.6430 C   0  0  0  0  0  0  0  0  0  0  0  0
   24.2493  -24.3926  -13.6664 C   0  0  0  0  0  0  0  0  0  0  0  0
   24.6018  -21.6142  -10.1618 O   0  0  0  0  0  0  0  0  0  0  0  0
  2  1  1  6
  2 13  1  0
  2  3  1  0
  4  5  2  0
  4  3  1  0
  6  5  1  0
  7 12  2  0
  7  6  1  0
  8  7  1  0
  9 10  1  0
  9  8  2  0
 10 11  2  0
 11 12  1  0
 12  4  1  0
 13 14  2  0
 16 15  1  1
 17 16  1  0
 17 13  1  0
 18 16  1  0
 19 18  2  0
 20 21  1  0
 21 22  2  0
 21 31  1  0
 22 23  1  0
 23 24  2  0
 24 25  1  0
 26 25  1  6
 26 27  1  0
 26 28  1  0
 27 18  1  0
 28 32  1  0
 29 28  2  0
 30 24  1  0
 31 30  2  0
M  END
$$$$
