WAY.pdb
     RDKit          3D

 32 34  0  0  1  0  0  0  0  0999 V2000
   19.6461   -7.6679  -19.5827 N   0  0  0  0  0  0  0  0  0  0  0  0
   19.7730   -8.9413  -20.2645 C   0  0  1  0  0  0  0  0  0  0  0  0
   21.1889   -9.4676  -20.2114 C   0  0  0  0  0  0  0  0  0  0  0  0
   22.0879   -8.6884  -21.0980 C   0  0  0  0  0  0  0  0  0  0  0  0
   22.6018   -7.4367  -20.8395 C   0  0  0  0  0  0  0  0  0  0  0  0
   23.3844   -7.0466  -21.8801 N   0  0  0  0  0  0  0  0  0  0  0  0
   23.3851   -8.0318  -22.8135 C   0  0  0  0  0  0  0  0  0  0  0  0
   24.0274   -8.1077  -24.0432 C   0  0  0  0  0  0  0  0  0  0  0  0
   23.8416   -9.2493  -24.7897 C   0  0  0  0  0  0  0  0  0  0  0  0
   23.0508  -10.2926  -24.3524 C   0  0  0  0  0  0  0  0  0  0  0  0
   22.4336  -10.1633  -23.1174 C   0  0  0  0  0  0  0  0  0  0  0  0
   22.5886   -9.0398  -22.3325 C   0  0  0  0  0  0  0  0  0  0  0  0
   18.9189   -9.9231  -19.5524 C   0  0  0  0  0  0  0  0  0  0  0  0
   18.8446   -9.8389  -18.3028 O   0  0  0  0  0  0  0  0  0  0  0  0
   16.2000  -12.2541  -20.3115 C   0  0  0  0  0  0  0  0  0  0  0  0
   17.3606  -11.8306  -19.4336 C   0  0  2  0  0  0  0  0  0  0  0  0
   18.1908  -10.9396  -20.2022 N   0  0  0  0  0  0  0  0  0  0  0  0
   18.1533  -13.0189  -18.9884 C   0  0  0  0  0  0  0  0  0  0  0  0
   19.2625  -13.2727  -19.5342 O   0  0  0  0  0  0  0  0  0  0  0  0
   20.6816  -20.3220  -14.9212 O   0  0  0  0  0  0  0  0  0  0  0  0
   20.1046  -19.0770  -15.2238 C   0  0  0  0  0  0  0  0  0  0  0  0
   18.7574  -18.9962  -15.5068 C   0  0  0  0  0  0  0  0  0  0  0  0
   18.1906  -17.7508  -15.8074 C   0  0  0  0  0  0  0  0  0  0  0  0
   18.9612  -16.6188  -15.8221 C   0  0  0  0  0  0  0  0  0  0  0  0
   18.3636  -15.3231  -16.1367 C   0  0  0  0  0  0  0  0  0  0  0  0
   18.4599  -15.0829  -17.6388 C   0  0  2  0  0  0  0  0  0  0  0  0
   17.6918  -13.8700  -17.9680 N   0  0  0  0  0  0  0  0  0  0  0  0
   17.9838  -16.2062  -18.4531 C   0  0  0  0  0  0  0  0  0  0  0  0
   16.7831  -16.3437  -18.7683 O   0  0  0  0  0  0  0  0  0  0  0  0
   20.2990  -16.7111  -15.5392 C   0  0  0  0  0  0  0  0  0  0  0  0
   20.9000  -17.9368  -15.2347 C   0  0  0  0  0  0  0  0  0  0  0  0
   18.8817  -17.1633  -18.9011 O   0  0  0  0  0  0  0  0  0  0  0  0
  2  1  1  1
  2 13  1  0
  2  3  1  0
  4  5  2  0
  4  3  1  0
  6  5  1  0
  7 12  2  0
  7  6  1  0
  8  7  1  0
  9 10  1  0
  9  8  2  0
 10 11  2  0
 11 12  1  0
 12  4  1  0
 13 14  2  0
 16 15  1  6
 17 16  1  0
 17 13  1  0
 18 16  1  0
 19 18  2  0
 20 21  1  0
 21 22  2  0
 21 31  1  0
 22 23  1  0
 23 24  2  0
 24 25  1  0
 26 25  1  1
 26 27  1  0
 26 28  1  0
 27 18  1  0
 28 32  1  0
 29 28  2  0
 30 24  1  0
 31 30  2  0
M  END
$$$$
