WAY.pdb
     RDKit          3D

 32 34  0  0  1  0  0  0  0  0999 V2000
   27.7898  -22.4099  -14.9391 N   0  0  0  0  0  0  0  0  0  0  0  0
   26.7025  -22.2737  -13.9896 C   0  0  1  0  0  0  0  0  0  0  0  0
   26.6006  -20.8649  -13.4514 C   0  0  0  0  0  0  0  0  0  0  0  0
   27.6828  -20.5800  -12.4773 C   0  0  0  0  0  0  0  0  0  0  0  0
   28.9402  -20.1015  -12.7739 C   0  0  0  0  0  0  0  0  0  0  0  0
   29.6531  -19.9638  -11.6248 N   0  0  0  0  0  0  0  0  0  0  0  0
   28.8725  -20.3478  -10.5831 C   0  0  0  0  0  0  0  0  0  0  0  0
   29.1439  -20.3896   -9.2211 C   0  0  0  0  0  0  0  0  0  0  0  0
   28.1434  -20.8317   -8.3854 C   0  0  0  0  0  0  0  0  0  0  0  0
   26.9084  -21.2239   -8.8610 C   0  0  0  0  0  0  0  0  0  0  0  0
   26.6923  -21.1617  -10.2293 C   0  0  0  0  0  0  0  0  0  0  0  0
   27.6626  -20.7262  -11.1075 C   0  0  0  0  0  0  0  0  0  0  0  0
   25.4357  -22.5554  -14.7085 C   0  0  0  0  0  0  0  0  0  0  0  0
   25.1525  -21.8412  -15.7002 O   0  0  0  0  0  0  0  0  0  0  0  0
   22.7267  -25.0657  -14.7883 C   0  0  0  0  0  0  0  0  0  0  0  0
   23.2391  -23.6489  -14.9532 C   0  0  2  0  0  0  0  0  0  0  0  0
   24.5391  -23.5773  -14.3378 N   0  0  0  0  0  0  0  0  0  0  0  0
   22.3096  -22.6680  -14.3108 C   0  0  0  0  0  0  0  0  0  0  0  0
   22.6277  -22.1276  -13.2156 O   0  0  0  0  0  0  0  0  0  0  0  0
   17.9458  -15.4903  -13.1039 O   0  0  0  0  0  0  0  0  0  0  0  0
   18.7444  -16.6002  -13.4282 C   0  0  0  0  0  0  0  0  0  0  0  0
   18.8333  -17.0217  -14.7381 C   0  0  0  0  0  0  0  0  0  0  0  0
   19.6318  -18.1291  -15.0523 C   0  0  0  0  0  0  0  0  0  0  0  0
   20.3212  -18.7926  -14.0725 C   0  0  0  0  0  0  0  0  0  0  0  0
   21.1519  -19.9471  -14.4072 C   0  0  0  0  0  0  0  0  0  0  0  0
   20.2986  -21.2084  -14.3444 C   0  0  2  0  0  0  0  0  0  0  0  0
   21.0783  -22.3279  -14.8997 N   0  0  0  0  0  0  0  0  0  0  0  0
   19.0190  -21.0974  -15.0528 C   0  0  0  0  0  0  0  0  0  0  0  0
   17.9313  -20.9617  -14.4540 O   0  0  0  0  0  0  0  0  0  0  0  0
   20.2253  -18.3648  -12.7741 C   0  0  0  0  0  0  0  0  0  0  0  0
   19.4382  -17.2634  -12.4224 C   0  0  0  0  0  0  0  0  0  0  0  0
   18.9909  -21.1419  -16.4384 O   0  0  0  0  0  0  0  0  0  0  0  0
  2  1  1  6
  2 13  1  0
  2  3  1  0
  4  5  2  0
  4  3  1  0
  6  5  1  0
  7 12  2  0
  7  6  1  0
  8  7  1  0
  9 10  1  0
  9  8  2  0
 10 11  2  0
 11 12  1  0
 12  4  1  0
 13 14  2  0
 16 15  1  1
 17 16  1  0
 17 13  1  0
 18 16  1  0
 19 18  2  0
 20 21  1  0
 21 22  2  0
 21 31  1  0
 22 23  1  0
 23 24  2  0
 24 25  1  0
 26 25  1  6
 26 27  1  0
 26 28  1  0
 27 18  1  0
 28 32  1  0
 29 28  2  0
 30 24  1  0
 31 30  2  0
M  END
$$$$
