WAY.pdb
     RDKit          3D

 32 34  0  0  1  0  0  0  0  0999 V2000
   25.5118  -21.8209  -10.1341 N   0  0  0  0  0  0  0  0  0  0  0  0
   26.2363  -20.5650  -10.1200 C   0  0  1  0  0  0  0  0  0  0  0  0
   27.4511  -20.6280   -9.2227 C   0  0  0  0  0  0  0  0  0  0  0  0
   27.0624  -20.7413   -7.7954 C   0  0  0  0  0  0  0  0  0  0  0  0
   25.9330  -21.3597   -7.3056 C   0  0  0  0  0  0  0  0  0  0  0  0
   25.9180  -21.2637   -5.9499 N   0  0  0  0  0  0  0  0  0  0  0  0
   27.0264  -20.5890   -5.5520 C   0  0  0  0  0  0  0  0  0  0  0  0
   27.4596  -20.2385   -4.2793 C   0  0  0  0  0  0  0  0  0  0  0  0
   28.6430  -19.5425   -4.1782 C   0  0  0  0  0  0  0  0  0  0  0  0
   29.3882  -19.1952   -5.2870 C   0  0  0  0  0  0  0  0  0  0  0  0
   28.9085  -19.5706   -6.5327 C   0  0  0  0  0  0  0  0  0  0  0  0
   27.7286  -20.2685   -6.6861 C   0  0  0  0  0  0  0  0  0  0  0  0
   26.7273  -20.3100  -11.4964 C   0  0  0  0  0  0  0  0  0  0  0  0
   27.0309  -19.1318  -11.8023 O   0  0  0  0  0  0  0  0  0  0  0  0
   28.4322  -21.7642  -14.2222 C   0  0  0  0  0  0  0  0  0  0  0  0
   27.2106  -20.9594  -13.8257 C   0  0  2  0  0  0  0  0  0  0  0  0
   26.8696  -21.3160  -12.4727 N   0  0  0  0  0  0  0  0  0  0  0  0
   26.0623  -21.2483  -14.7404 C   0  0  0  0  0  0  0  0  0  0  0  0
   26.0429  -22.3227  -15.4022 O   0  0  0  0  0  0  0  0  0  0  0  0
   18.6026  -22.4408  -11.0467 O   0  0  0  0  0  0  0  0  0  0  0  0
   19.8889  -22.1590  -11.5374 C   0  0  0  0  0  0  0  0  0  0  0  0
   20.4308  -22.9454  -12.5320 C   0  0  0  0  0  0  0  0  0  0  0  0
   21.7138  -22.6573  -13.0152 C   0  0  0  0  0  0  0  0  0  0  0  0
   22.4300  -21.6053  -12.5092 C   0  0  0  0  0  0  0  0  0  0  0  0
   23.7677  -21.3105  -13.0176 C   0  0  0  0  0  0  0  0  0  0  0  0
   23.6498  -20.7417  -14.4267 C   0  0  2  0  0  0  0  0  0  0  0  0
   24.9927  -20.3463  -14.8847 N   0  0  0  0  0  0  0  0  0  0  0  0
   22.7347  -19.6002  -14.5333 C   0  0  0  0  0  0  0  0  0  0  0  0
   23.1283  -18.4170  -14.4619 O   0  0  0  0  0  0  0  0  0  0  0  0
   21.8812  -20.8305  -11.5209 C   0  0  0  0  0  0  0  0  0  0  0  0
   20.6034  -21.0876  -11.0136 C   0  0  0  0  0  0  0  0  0  0  0  0
   21.3782  -19.8182  -14.7205 O   0  0  0  0  0  0  0  0  0  0  0  0
  2  1  1  6
  2 13  1  0
  2  3  1  0
  4  5  2  0
  4  3  1  0
  6  5  1  0
  7 12  2  0
  7  6  1  0
  8  7  1  0
  9 10  1  0
  9  8  2  0
 10 11  2  0
 11 12  1  0
 12  4  1  0
 13 14  2  0
 16 15  1  6
 17 16  1  0
 17 13  1  0
 18 16  1  0
 19 18  2  0
 20 21  1  0
 21 22  2  0
 21 31  1  0
 22 23  1  0
 23 24  2  0
 24 25  1  0
 26 25  1  1
 26 27  1  0
 26 28  1  0
 27 18  1  0
 28 32  1  0
 29 28  2  0
 30 24  1  0
 31 30  2  0
M  END
$$$$
