WAY.pdb
     RDKit          3D

 32 34  0  0  1  0  0  0  0  0999 V2000
   25.1793  -19.5405  -17.0958 N   0  0  0  0  0  0  0  0  0  0  0  0
   24.8996  -18.8436  -15.8554 C   0  0  1  0  0  0  0  0  0  0  0  0
   24.1415  -17.5577  -16.0929 C   0  0  0  0  0  0  0  0  0  0  0  0
   24.9819  -16.5580  -16.7970 C   0  0  0  0  0  0  0  0  0  0  0  0
   25.0434  -16.3604  -18.1589 C   0  0  0  0  0  0  0  0  0  0  0  0
   25.9204  -15.3580  -18.4302 N   0  0  0  0  0  0  0  0  0  0  0  0
   26.4305  -14.9010  -17.2585 C   0  0  0  0  0  0  0  0  0  0  0  0
   27.3556  -13.8947  -17.0100 C   0  0  0  0  0  0  0  0  0  0  0  0
   27.6905  -13.6468  -15.6979 C   0  0  0  0  0  0  0  0  0  0  0  0
   27.1398  -14.3593  -14.6519 C   0  0  0  0  0  0  0  0  0  0  0  0
   26.2216  -15.3524  -14.9577 C   0  0  0  0  0  0  0  0  0  0  0  0
   25.8536  -15.6385  -16.2559 C   0  0  0  0  0  0  0  0  0  0  0  0
   24.0259  -19.7160  -15.0331 C   0  0  0  0  0  0  0  0  0  0  0  0
   23.3003  -20.5484  -15.6284 O   0  0  0  0  0  0  0  0  0  0  0  0
   23.3261  -20.3385  -11.4289 C   0  0  0  0  0  0  0  0  0  0  0  0
   23.0584  -20.5148  -12.9102 C   0  0  2  0  0  0  0  0  0  0  0  0
   23.9687  -19.6590  -13.6263 N   0  0  0  0  0  0  0  0  0  0  0  0
   21.6442  -20.1565  -13.2425 C   0  0  0  0  0  0  0  0  0  0  0  0
   21.3421  -18.9552  -13.4841 O   0  0  0  0  0  0  0  0  0  0  0  0
   20.0207  -24.0608  -18.8641 O   0  0  0  0  0  0  0  0  0  0  0  0
   19.8180  -23.0679  -17.8906 C   0  0  0  0  0  0  0  0  0  0  0  0
   19.1133  -21.9268  -18.2115 C   0  0  0  0  0  0  0  0  0  0  0  0
   18.9160  -20.9421  -17.2348 C   0  0  0  0  0  0  0  0  0  0  0  0
   19.4156  -21.1039  -15.9699 C   0  0  0  0  0  0  0  0  0  0  0  0
   19.2064  -20.0728  -14.9561 C   0  0  0  0  0  0  0  0  0  0  0  0
   19.2464  -20.7177  -13.5756 C   0  0  2  0  0  0  0  0  0  0  0  0
   20.6315  -21.1314  -13.2933 N   0  0  0  0  0  0  0  0  0  0  0  0
   18.3470  -21.8672  -13.4292 C   0  0  0  0  0  0  0  0  0  0  0  0
   18.7661  -23.0202  -13.1951 O   0  0  0  0  0  0  0  0  0  0  0  0
   20.1143  -22.2421  -15.6624 C   0  0  0  0  0  0  0  0  0  0  0  0
   20.3313  -23.2468  -16.6110 C   0  0  0  0  0  0  0  0  0  0  0  0
   16.9769  -21.6916  -13.5511 O   0  0  0  0  0  0  0  0  0  0  0  0
  2  1  1  6
  2 13  1  0
  2  3  1  0
  4  5  2  0
  4  3  1  0
  6  5  1  0
  7 12  2  0
  7  6  1  0
  8  7  1  0
  9 10  1  0
  9  8  2  0
 10 11  2  0
 11 12  1  0
 12  4  1  0
 13 14  2  0
 16 15  1  1
 17 16  1  0
 17 13  1  0
 18 16  1  0
 19 18  2  0
 20 21  1  0
 21 22  2  0
 21 31  1  0
 22 23  1  0
 23 24  2  0
 24 25  1  0
 26 25  1  6
 26 27  1  0
 26 28  1  0
 27 18  1  0
 28 32  1  0
 29 28  2  0
 30 24  1  0
 31 30  2  0
M  END
$$$$
