WAY.pdb
     RDKit          3D

 32 34  0  0  1  0  0  0  0  0999 V2000
   26.9227  -21.4578  -16.1513 N   0  0  0  0  0  0  0  0  0  0  0  0
   25.5076  -21.7061  -16.3471 C   0  0  1  0  0  0  0  0  0  0  0  0
   25.2150  -23.1789  -16.5205 C   0  0  0  0  0  0  0  0  0  0  0  0
   25.8425  -23.7120  -17.7547 C   0  0  0  0  0  0  0  0  0  0  0  0
   27.1030  -24.2585  -17.8567 C   0  0  0  0  0  0  0  0  0  0  0  0
   27.3275  -24.6379  -19.1424 N   0  0  0  0  0  0  0  0  0  0  0  0
   26.2260  -24.3437  -19.8786 C   0  0  0  0  0  0  0  0  0  0  0  0
   25.9675  -24.5365  -21.2300 C   0  0  0  0  0  0  0  0  0  0  0  0
   24.7413  -24.1327  -21.7082 C   0  0  0  0  0  0  0  0  0  0  0  0
   23.7887  -23.5554  -20.8931 C   0  0  0  0  0  0  0  0  0  0  0  0
   24.1001  -23.3871  -19.5523 C   0  0  0  0  0  0  0  0  0  0  0  0
   25.3144  -23.7751  -19.0256 C   0  0  0  0  0  0  0  0  0  0  0  0
   24.7968  -21.2645  -15.1222 C   0  0  0  0  0  0  0  0  0  0  0  0
   25.4563  -20.6482  -14.2509 O   0  0  0  0  0  0  0  0  0  0  0  0
   22.5885  -19.3612  -15.5398 C   0  0  0  0  0  0  0  0  0  0  0  0
   22.5779  -20.4200  -14.4555 C   0  0  2  0  0  0  0  0  0  0  0  0
   23.4275  -21.4997  -14.8873 N   0  0  0  0  0  0  0  0  0  0  0  0
   21.1890  -20.9214  -14.2138 C   0  0  0  0  0  0  0  0  0  0  0  0
   20.2590  -20.1018  -13.9773 O   0  0  0  0  0  0  0  0  0  0  0  0
   23.6528  -27.4745  -14.4647 O   0  0  0  0  0  0  0  0  0  0  0  0
   22.6455  -26.5758  -14.0744 C   0  0  0  0  0  0  0  0  0  0  0  0
   21.4069  -26.6299  -14.6780 C   0  0  0  0  0  0  0  0  0  0  0  0
   20.4086  -25.7300  -14.2827 C   0  0  0  0  0  0  0  0  0  0  0  0
   20.6530  -24.8018  -13.3059 C   0  0  0  0  0  0  0  0  0  0  0  0
   19.6073  -23.8661  -12.8985 C   0  0  0  0  0  0  0  0  0  0  0  0
   19.5212  -22.7404  -13.9225 C   0  0  2  0  0  0  0  0  0  0  0  0
   20.8881  -22.2951  -14.2432 N   0  0  0  0  0  0  0  0  0  0  0  0
   18.7183  -21.5947  -13.4816 C   0  0  0  0  0  0  0  0  0  0  0  0
   19.1925  -20.4438  -13.3793 O   0  0  0  0  0  0  0  0  0  0  0  0
   21.8877  -24.7574  -12.7129 C   0  0  0  0  0  0  0  0  0  0  0  0
   22.9089  -25.6392  -13.0813 C   0  0  0  0  0  0  0  0  0  0  0  0
   17.3807  -21.7716  -13.1614 O   0  0  0  0  0  0  0  0  0  0  0  0
  2  1  1  1
  2 13  1  0
  2  3  1  0
  4  5  2  0
  4  3  1  0
  6  5  1  0
  7 12  2  0
  7  6  1  0
  8  7  1  0
  9 10  1  0
  9  8  2  0
 10 11  2  0
 11 12  1  0
 12  4  1  0
 13 14  2  0
 16 15  1  6
 17 16  1  0
 17 13  1  0
 18 16  1  0
 19 18  2  0
 20 21  1  0
 21 22  2  0
 21 31  1  0
 22 23  1  0
 23 24  2  0
 24 25  1  0
 26 25  1  1
 26 27  1  0
 26 28  1  0
 27 18  1  0
 28 32  1  0
 29 28  2  0
 30 24  1  0
 31 30  2  0
M  END
$$$$
