WAY.pdb
     RDKit          3D

 32 34  0  0  1  0  0  0  0  0999 V2000
   24.8435  -21.0764   -8.9077 N   0  0  0  0  0  0  0  0  0  0  0  0
   26.1623  -20.5101   -9.1140 C   0  0  1  0  0  0  0  0  0  0  0  0
   27.1985  -21.1639   -8.2289 C   0  0  0  0  0  0  0  0  0  0  0  0
   26.9850  -20.8180   -6.8020 C   0  0  0  0  0  0  0  0  0  0  0  0
   25.8649  -21.1055   -6.0532 C   0  0  0  0  0  0  0  0  0  0  0  0
   26.0342  -20.6348   -4.7894 N   0  0  0  0  0  0  0  0  0  0  0  0
   27.2531  -20.0437   -4.7078 C   0  0  0  0  0  0  0  0  0  0  0  0
   27.8820  -19.4193   -3.6377 C   0  0  0  0  0  0  0  0  0  0  0  0
   29.1395  -18.9015   -3.8516 C   0  0  0  0  0  0  0  0  0  0  0  0
   29.7713  -18.9880   -5.0758 C   0  0  0  0  0  0  0  0  0  0  0  0
   29.0972  -19.6218   -6.1086 C   0  0  0  0  0  0  0  0  0  0  0  0
   27.8364  -20.1566   -5.9443 C   0  0  0  0  0  0  0  0  0  0  0  0
   26.5575  -20.7826  -10.5177 C   0  0  0  0  0  0  0  0  0  0  0  0
   27.2148  -21.8255  -10.7503 O   0  0  0  0  0  0  0  0  0  0  0  0
   26.0468  -21.5426  -13.3541 C   0  0  0  0  0  0  0  0  0  0  0  0
   26.7083  -20.2498  -12.9206 C   0  0  2  0  0  0  0  0  0  0  0  0
   26.2351  -19.9362  -11.5971 N   0  0  0  0  0  0  0  0  0  0  0  0
   26.3747  -19.1379  -13.8647 C   0  0  0  0  0  0  0  0  0  0  0  0
   25.2570  -18.5579  -13.7801 O   0  0  0  0  0  0  0  0  0  0  0  0
   27.2150  -12.3507  -19.2653 O   0  0  0  0  0  0  0  0  0  0  0  0
   27.4847  -13.4964  -18.4977 C   0  0  0  0  0  0  0  0  0  0  0  0
   27.5621  -13.3991  -17.1244 C   0  0  0  0  0  0  0  0  0  0  0  0
   27.8315  -14.5465  -16.3670 C   0  0  0  0  0  0  0  0  0  0  0  0
   28.0174  -15.7580  -16.9780 C   0  0  0  0  0  0  0  0  0  0  0  0
   28.2982  -16.9507  -16.1821 C   0  0  0  0  0  0  0  0  0  0  0  0
   26.9880  -17.4992  -15.6293 C   0  0  2  0  0  0  0  0  0  0  0  0
   27.2815  -18.7167  -14.8540 N   0  0  0  0  0  0  0  0  0  0  0  0
   25.9861  -17.7974  -16.6583 C   0  0  0  0  0  0  0  0  0  0  0  0
   25.9733  -18.8756  -17.2885 O   0  0  0  0  0  0  0  0  0  0  0  0
   27.9381  -15.8428  -18.3435 C   0  0  0  0  0  0  0  0  0  0  0  0
   27.6711  -14.7192  -19.1325 C   0  0  0  0  0  0  0  0  0  0  0  0
   25.0070  -16.8628  -16.9597 O   0  0  0  0  0  0  0  0  0  0  0  0
  2  1  1  1
  2 13  1  0
  2  3  1  0
  4  5  2  0
  4  3  1  0
  6  5  1  0
  7 12  2  0
  7  6  1  0
  8  7  1  0
  9 10  1  0
  9  8  2  0
 10 11  2  0
 11 12  1  0
 12  4  1  0
 13 14  2  0
 16 15  1  6
 17 16  1  0
 17 13  1  0
 18 16  1  0
 19 18  2  0
 20 21  1  0
 21 22  2  0
 21 31  1  0
 22 23  1  0
 23 24  2  0
 24 25  1  0
 26 25  1  6
 26 27  1  0
 26 28  1  0
 27 18  1  0
 28 32  1  0
 29 28  2  0
 30 24  1  0
 31 30  2  0
M  END
$$$$
