WAY.pdb
     RDKit          3D

 32 34  0  0  1  0  0  0  0  0999 V2000
   17.1384  -16.9194    5.9509 N   0  0  0  0  0  0  0  0  0  0  0  0
   16.9705  -17.9200    4.9150 C   0  0  1  0  0  0  0  0  0  0  0  0
   18.1168  -17.9058    3.9299 C   0  0  0  0  0  0  0  0  0  0  0  0
   18.2952  -16.5610    3.3291 C   0  0  0  0  0  0  0  0  0  0  0  0
   17.4896  -15.4629    3.5367 C   0  0  0  0  0  0  0  0  0  0  0  0
   17.9677  -14.4109    2.8211 N   0  0  0  0  0  0  0  0  0  0  0  0
   19.0764  -14.8130    2.1496 C   0  0  0  0  0  0  0  0  0  0  0  0
   19.9144  -14.1113    1.2918 C   0  0  0  0  0  0  0  0  0  0  0  0
   20.9810  -14.7898    0.7467 C   0  0  0  0  0  0  0  0  0  0  0  0
   21.2280  -16.1183    1.0280 C   0  0  0  0  0  0  0  0  0  0  0  0
   20.3593  -16.7696    1.8906 C   0  0  0  0  0  0  0  0  0  0  0  0
   19.2769  -16.1336    2.4621 C   0  0  0  0  0  0  0  0  0  0  0  0
   16.9765  -19.2524    5.5674 C   0  0  0  0  0  0  0  0  0  0  0  0
   17.9656  -19.5533    6.2780 O   0  0  0  0  0  0  0  0  0  0  0  0
   14.7411  -22.0094    6.4186 C   0  0  0  0  0  0  0  0  0  0  0  0
   16.0994  -21.5246    5.9527 C   0  0  2  0  0  0  0  0  0  0  0  0
   15.9354  -20.1921    5.4315 N   0  0  0  0  0  0  0  0  0  0  0  0
   16.6536  -22.4273    4.8959 C   0  0  0  0  0  0  0  0  0  0  0  0
   16.9608  -21.9555    3.7665 O   0  0  0  0  0  0  0  0  0  0  0  0
   20.9355  -27.4876   -0.3110 O   0  0  0  0  0  0  0  0  0  0  0  0
   20.3667  -26.6260    0.6423 C   0  0  0  0  0  0  0  0  0  0  0  0
   20.7969  -26.6723    1.9515 C   0  0  0  0  0  0  0  0  0  0  0  0
   20.2243  -25.8097    2.8953 C   0  0  0  0  0  0  0  0  0  0  0  0
   19.2451  -24.9252    2.5284 C   0  0  0  0  0  0  0  0  0  0  0  0
   18.6519  -24.0285    3.5178 C   0  0  0  0  0  0  0  0  0  0  0  0
   17.3639  -24.6510    4.0438 C   0  0  2  0  0  0  0  0  0  0  0  0
   16.8437  -23.8014    5.1287 N   0  0  0  0  0  0  0  0  0  0  0  0
   17.5213  -26.0275    4.5255 C   0  0  0  0  0  0  0  0  0  0  0  0
   17.0924  -27.0131    3.8893 O   0  0  0  0  0  0  0  0  0  0  0  0
   18.8255  -24.8880    1.2243 C   0  0  0  0  0  0  0  0  0  0  0  0
   19.3736  -25.7336    0.2544 C   0  0  0  0  0  0  0  0  0  0  0  0
   18.1667  -26.2681    5.7289 O   0  0  0  0  0  0  0  0  0  0  0  0
  2  1  1  1
  2 13  1  0
  2  3  1  0
  4  5  2  0
  4  3  1  0
  6  5  1  0
  7 12  2  0
  7  6  1  0
  8  7  1  0
  9 10  1  0
  9  8  2  0
 10 11  2  0
 11 12  1  0
 12  4  1  0
 13 14  2  0
 16 15  1  6
 17 16  1  0
 17 13  1  0
 18 16  1  0
 19 18  2  0
 20 21  1  0
 21 22  2  0
 21 31  1  0
 22 23  1  0
 23 24  2  0
 24 25  1  0
 26 25  1  1
 26 27  1  0
 26 28  1  0
 27 18  1  0
 28 32  1  0
 29 28  2  0
 30 24  1  0
 31 30  2  0
M  END
$$$$
