LYR.pdb
     RDKit          3D

 32 32  0  0  1  0  0  0  0  0999 V2000
   29.4100  -24.9091  -23.7821 C   0  0  0  0  0  0  0  0  0  0  0  0
   30.2778  -24.4370  -22.6366 C   0  0  2  0  0  0  0  0  0  0  0  0
   31.6703  -25.0139  -22.7351 C   0  0  0  0  0  0  0  0  0  0  0  0
   29.6555  -24.9099  -21.3457 C   0  0  0  0  0  0  0  0  0  0  0  0
   28.2652  -24.3027  -21.2329 C   0  0  2  0  0  0  0  0  0  0  0  0
   28.2870  -22.8802  -21.4032 N   0  0  0  0  0  0  0  0  0  0  0  0
   27.6277  -24.6589  -19.9460 C   0  0  0  0  0  0  0  0  0  0  0  0
   27.4449  -25.8396  -19.5704 O   0  0  0  0  0  0  0  0  0  0  0  0
   32.6275  -25.8656  -16.5158 O   0  0  0  0  0  0  0  0  0  0  0  0
   31.3705  -25.2600  -16.5452 C   0  0  0  0  0  0  0  0  0  0  0  0
   30.2561  -25.8816  -16.0204 C   0  0  0  0  0  0  0  0  0  0  0  0
   29.0077  -25.2492  -16.0644 C   0  0  0  0  0  0  0  0  0  0  0  0
   28.8598  -24.0016  -16.6275 C   0  0  0  0  0  0  0  0  0  0  0  0
   27.5608  -23.3120  -16.6944 C   0  0  0  0  0  0  0  0  0  0  0  0
   26.6818  -23.8690  -17.7533 C   0  0  2  0  0  0  0  0  0  0  0  0
   27.1992  -23.6237  -19.0888 N   0  0  0  0  0  0  0  0  0  0  0  0
   25.3193  -23.3297  -17.7026 C   0  0  0  0  0  0  0  0  0  0  0  0
   24.9898  -22.3909  -18.4547 O   0  0  0  0  0  0  0  0  0  0  0  0
   29.9967  -23.4021  -17.1464 C   0  0  0  0  0  0  0  0  0  0  0  0
   31.2328  -24.0250  -17.1043 C   0  0  0  0  0  0  0  0  0  0  0  0
   17.3541  -23.8496  -15.3006 N   0  0  0  0  0  0  0  0  0  0  0  0
   17.2518  -23.6231  -16.6972 C   0  0  0  0  0  0  0  0  0  0  0  0
   16.1146  -23.4517  -17.2790 N   0  0  0  0  0  0  0  0  0  0  0  0
   18.4322  -23.5876  -17.4525 N   0  0  0  0  0  0  0  0  0  0  0  0
   19.7498  -23.9290  -16.8434 C   0  0  0  0  0  0  0  0  0  0  0  0
   20.7619  -23.6756  -17.8793 C   0  0  0  0  0  0  0  0  0  0  0  0
   22.1785  -23.9028  -17.7000 C   0  0  0  0  0  0  0  0  0  0  0  0
   22.9967  -23.2478  -16.6644 C   0  0  2  0  0  0  0  0  0  0  0  0
   24.3782  -23.8660  -16.8085 N   0  0  0  0  0  0  0  0  0  0  0  0
   22.5948  -23.5097  -15.2751 C   0  0  0  0  0  0  0  0  0  0  0  0
   23.0528  -24.5945  -14.7261 O   0  0  0  0  0  0  0  0  0  0  0  0
   21.7933  -22.7551  -14.4555 O   0  0  0  0  0  0  0  0  0  0  0  0
  2  3  1  6
  2  1  1  0
  4  2  1  0
  5  4  1  0
  5  6  1  1
  7  5  1  0
  8  7  2  0
  9 10  1  0
 10 11  2  0
 10 20  1  0
 11 12  1  0
 12 13  2  0
 13 14  1  0
 15 14  1  1
 15 16  1  0
 16  7  1  0
 17 15  1  0
 17 18  2  0
 19 13  1  0
 20 19  2  0
 21 22  1  0
 22 24  1  0
 23 22  2  0
 24 25  1  0
 25 26  1  0
 26 27  1  0
 28 29  1  0
 28 27  1  6
 29 17  1  0
 30 28  1  0
 31 30  2  0
 32 30  1  0
M  END
$$$$
