LYR.pdb
     RDKit          3D

 32 32  0  0  1  0  0  0  0  0999 V2000
   19.7063  -20.5116  -20.0218 C   0  0  0  0  0  0  0  0  0  0  0  0
   20.7319  -21.6219  -20.0807 C   0  0  2  0  0  0  0  0  0  0  0  0
   20.7884  -22.2380  -21.4587 C   0  0  0  0  0  0  0  0  0  0  0  0
   20.3280  -22.6916  -19.0959 C   0  0  0  0  0  0  0  0  0  0  0  0
   20.2056  -22.0549  -17.7197 C   0  0  2  0  0  0  0  0  0  0  0  0
   21.4217  -21.4131  -17.3168 N   0  0  0  0  0  0  0  0  0  0  0  0
   19.7850  -23.0470  -16.7057 C   0  0  0  0  0  0  0  0  0  0  0  0
   18.9931  -23.9867  -16.9474 O   0  0  0  0  0  0  0  0  0  0  0  0
   19.7203  -27.8763   -9.3749 O   0  0  0  0  0  0  0  0  0  0  0  0
   20.0219  -26.8946  -10.3199 C   0  0  0  0  0  0  0  0  0  0  0  0
   19.7256  -25.5650  -10.1009 C   0  0  0  0  0  0  0  0  0  0  0  0
   20.0403  -24.6023  -11.0677 C   0  0  0  0  0  0  0  0  0  0  0  0
   20.6480  -24.9533  -12.2521 C   0  0  0  0  0  0  0  0  0  0  0  0
   20.9869  -23.9667  -13.2909 C   0  0  0  0  0  0  0  0  0  0  0  0
   19.9313  -23.8574  -14.3291 C   0  0  2  0  0  0  0  0  0  0  0  0
   20.2954  -22.9395  -15.3950 N   0  0  0  0  0  0  0  0  0  0  0  0
   18.6439  -23.4135  -13.7859 C   0  0  0  0  0  0  0  0  0  0  0  0
   18.4898  -22.2277  -13.4316 O   0  0  0  0  0  0  0  0  0  0  0  0
   20.9335  -26.2961  -12.4438 C   0  0  0  0  0  0  0  0  0  0  0  0
   20.6237  -27.2505  -11.4895 C   0  0  0  0  0  0  0  0  0  0  0  0
   12.3483  -27.7419  -16.6950 N   0  0  0  0  0  0  0  0  0  0  0  0
   12.2714  -27.0498  -15.4591 C   0  0  0  0  0  0  0  0  0  0  0  0
   11.2517  -27.1587  -14.6785 N   0  0  0  0  0  0  0  0  0  0  0  0
   13.3449  -26.2269  -15.0908 N   0  0  0  0  0  0  0  0  0  0  0  0
   14.5439  -26.0832  -15.9657 C   0  0  0  0  0  0  0  0  0  0  0  0
   15.4600  -25.1716  -15.2647 C   0  0  0  0  0  0  0  0  0  0  0  0
   15.2466  -24.6855  -13.9198 C   0  0  0  0  0  0  0  0  0  0  0  0
   16.2126  -23.8575  -13.1767 C   0  0  2  0  0  0  0  0  0  0  0  0
   17.5776  -24.3193  -13.6614 N   0  0  0  0  0  0  0  0  0  0  0  0
   16.2294  -24.0514  -11.7199 C   0  0  0  0  0  0  0  0  0  0  0  0
   17.1048  -24.8883  -11.2491 O   0  0  0  0  0  0  0  0  0  0  0  0
   15.4413  -23.4594  -10.7649 O   0  0  0  0  0  0  0  0  0  0  0  0
  2  3  1  6
  2  1  1  0
  4  2  1  0
  5  4  1  0
  5  6  1  1
  7  5  1  0
  8  7  2  0
  9 10  1  0
 10 11  2  0
 10 20  1  0
 11 12  1  0
 12 13  2  0
 13 14  1  0
 15 14  1  1
 15 16  1  0
 16  7  1  0
 17 15  1  0
 17 18  2  0
 19 13  1  0
 20 19  2  0
 21 22  1  0
 22 24  1  0
 23 22  2  0
 24 25  1  0
 25 26  1  0
 26 27  1  0
 28 29  1  0
 28 27  1  6
 29 17  1  0
 30 28  1  0
 31 30  2  0
 32 30  1  0
M  END
$$$$
