LYR.pdb
     RDKit          3D

 32 32  0  0  1  0  0  0  0  0999 V2000
   32.5480  -22.1036  -11.0909 C   0  0  0  0  0  0  0  0  0  0  0  0
   31.8209  -22.0399   -9.7659 C   0  0  2  0  0  0  0  0  0  0  0  0
   32.5628  -22.8118   -8.7004 C   0  0  0  0  0  0  0  0  0  0  0  0
   30.4577  -22.6619   -9.9441 C   0  0  0  0  0  0  0  0  0  0  0  0
   29.6273  -21.7504  -10.8351 C   0  0  2  0  0  0  0  0  0  0  0  0
   30.1575  -20.4201  -10.8822 N   0  0  0  0  0  0  0  0  0  0  0  0
   28.2113  -21.7269  -10.4066 C   0  0  0  0  0  0  0  0  0  0  0  0
   27.5093  -22.7573  -10.2889 O   0  0  0  0  0  0  0  0  0  0  0  0
   28.8978  -20.5531   -3.7866 O   0  0  0  0  0  0  0  0  0  0  0  0
   28.1981  -20.2715   -4.9609 C   0  0  0  0  0  0  0  0  0  0  0  0
   27.2247  -21.1216   -5.4440 C   0  0  0  0  0  0  0  0  0  0  0  0
   26.5393  -20.8125   -6.6251 C   0  0  0  0  0  0  0  0  0  0  0  0
   26.8157  -19.6626   -7.3299 C   0  0  0  0  0  0  0  0  0  0  0  0
   26.1173  -19.3114   -8.5774 C   0  0  0  0  0  0  0  0  0  0  0  0
   26.2500  -20.3668   -9.6131 C   0  0  2  0  0  0  0  0  0  0  0  0
   27.6093  -20.4855  -10.1124 N   0  0  0  0  0  0  0  0  0  0  0  0
   25.3744  -20.1431  -10.7677 C   0  0  0  0  0  0  0  0  0  0  0  0
   25.6608  -19.2688  -11.6098 O   0  0  0  0  0  0  0  0  0  0  0  0
   27.7982  -18.8282   -6.8203 C   0  0  0  0  0  0  0  0  0  0  0  0
   28.4778  -19.1311   -5.6524 C   0  0  0  0  0  0  0  0  0  0  0  0
   24.9061  -25.3649  -14.8155 N   0  0  0  0  0  0  0  0  0  0  0  0
   23.5153  -25.6131  -14.9434 C   0  0  0  0  0  0  0  0  0  0  0  0
   23.0241  -26.8018  -14.8614 N   0  0  0  0  0  0  0  0  0  0  0  0
   22.6636  -24.5220  -15.1654 N   0  0  0  0  0  0  0  0  0  0  0  0
   23.1733  -23.1215  -15.1168 C   0  0  0  0  0  0  0  0  0  0  0  0
   22.5582  -22.4987  -13.9355 C   0  0  0  0  0  0  0  0  0  0  0  0
   23.2841  -22.1458  -12.7358 C   0  0  0  0  0  0  0  0  0  0  0  0
   23.3593  -20.7809  -12.1861 C   0  0  2  0  0  0  0  0  0  0  0  0
   24.2097  -20.9106  -10.9325 N   0  0  0  0  0  0  0  0  0  0  0  0
   22.0845  -20.2048  -11.7352 C   0  0  0  0  0  0  0  0  0  0  0  0
   21.7722  -20.3762  -10.4857 O   0  0  0  0  0  0  0  0  0  0  0  0
   21.1602  -19.4924  -12.4573 O   0  0  0  0  0  0  0  0  0  0  0  0
  2  3  1  1
  2  1  1  0
  4  2  1  0
  5  4  1  0
  5  6  1  1
  7  5  1  0
  8  7  2  0
  9 10  1  0
 10 11  2  0
 10 20  1  0
 11 12  1  0
 12 13  2  0
 13 14  1  0
 15 14  1  1
 15 16  1  0
 16  7  1  0
 17 15  1  0
 17 18  2  0
 19 13  1  0
 20 19  2  0
 21 22  1  0
 22 24  1  0
 23 22  2  0
 24 25  1  0
 25 26  1  0
 26 27  1  0
 28 29  1  0
 28 27  1  1
 29 17  1  0
 30 28  1  0
 31 30  2  0
 32 30  1  0
M  END
$$$$
