LYR.pdb
     RDKit          3D

 32 32  0  0  1  0  0  0  0  0999 V2000
   26.4917  -21.1369  -22.9925 C   0  0  0  0  0  0  0  0  0  0  0  0
   26.8619  -19.7949  -22.4009 C   0  0  2  0  0  0  0  0  0  0  0  0
   28.3450  -19.5361  -22.5246 C   0  0  0  0  0  0  0  0  0  0  0  0
   26.5003  -19.8078  -20.9359 C   0  0  0  0  0  0  0  0  0  0  0  0
   25.0251  -20.1569  -20.8091 C   0  0  2  0  0  0  0  0  0  0  0  0
   24.1994  -19.2834  -21.5890 N   0  0  0  0  0  0  0  0  0  0  0  0
   24.5923  -20.1497  -19.3942 C   0  0  0  0  0  0  0  0  0  0  0  0
   25.1663  -20.8046  -18.4942 O   0  0  0  0  0  0  0  0  0  0  0  0
   21.9453  -13.8193  -20.8422 O   0  0  0  0  0  0  0  0  0  0  0  0
   22.2237  -14.8246  -19.9151 C   0  0  0  0  0  0  0  0  0  0  0  0
   21.2326  -15.3827  -19.1343 C   0  0  0  0  0  0  0  0  0  0  0  0
   21.5422  -16.3900  -18.2124 C   0  0  0  0  0  0  0  0  0  0  0  0
   22.8323  -16.8464  -18.0615 C   0  0  0  0  0  0  0  0  0  0  0  0
   23.1918  -17.8998  -17.0979 C   0  0  0  0  0  0  0  0  0  0  0  0
   23.0042  -19.2621  -17.6573 C   0  0  2  0  0  0  0  0  0  0  0  0
   23.4764  -19.3685  -19.0274 N   0  0  0  0  0  0  0  0  0  0  0  0
   21.6039  -19.6961  -17.6390 C   0  0  0  0  0  0  0  0  0  0  0  0
   20.9085  -19.6095  -18.6707 O   0  0  0  0  0  0  0  0  0  0  0  0
   23.8065  -16.2671  -18.8593 C   0  0  0  0  0  0  0  0  0  0  0  0
   23.5033  -15.2707  -19.7720 C   0  0  0  0  0  0  0  0  0  0  0  0
   18.6561  -23.5020  -12.4530 N   0  0  0  0  0  0  0  0  0  0  0  0
   17.4531  -24.0738  -12.9408 C   0  0  0  0  0  0  0  0  0  0  0  0
   16.4514  -24.3184  -12.1676 N   0  0  0  0  0  0  0  0  0  0  0  0
   17.3675  -24.3758  -14.3070 N   0  0  0  0  0  0  0  0  0  0  0  0
   18.5606  -24.2781  -15.1962 C   0  0  0  0  0  0  0  0  0  0  0  0
   18.5155  -22.9396  -15.8027 C   0  0  0  0  0  0  0  0  0  0  0  0
   19.6482  -22.0437  -15.8726 C   0  0  0  0  0  0  0  0  0  0  0  0
   19.5918  -20.6811  -16.4303 C   0  0  2  0  0  0  0  0  0  0  0  0
   21.0374  -20.2113  -16.4615 N   0  0  0  0  0  0  0  0  0  0  0  0
   18.8762  -19.6888  -15.6159 C   0  0  0  0  0  0  0  0  0  0  0  0
   19.5685  -19.0610  -14.7131 O   0  0  0  0  0  0  0  0  0  0  0  0
   17.5563  -19.3179  -15.6766 O   0  0  0  0  0  0  0  0  0  0  0  0
  2  3  1  1
  2  1  1  0
  4  2  1  0
  5  4  1  0
  5  6  1  6
  7  5  1  0
  8  7  2  0
  9 10  1  0
 10 11  2  0
 10 20  1  0
 11 12  1  0
 12 13  2  0
 13 14  1  0
 15 14  1  6
 15 16  1  0
 16  7  1  0
 17 15  1  0
 17 18  2  0
 19 13  1  0
 20 19  2  0
 21 22  1  0
 22 24  1  0
 23 22  2  0
 24 25  1  0
 25 26  1  0
 26 27  1  0
 28 29  1  0
 28 27  1  1
 29 17  1  0
 30 28  1  0
 31 30  2  0
 32 30  1  0
M  END
$$$$
