LYR.pdb
     RDKit          3D

 32 32  0  0  1  0  0  0  0  0999 V2000
   28.4076  -21.8168   -8.2680 C   0  0  0  0  0  0  0  0  0  0  0  0
   28.1323  -20.4030   -8.7302 C   0  0  2  0  0  0  0  0  0  0  0  0
   28.5296  -19.3983   -7.6747 C   0  0  0  0  0  0  0  0  0  0  0  0
   26.6508  -20.2683   -8.9838 C   0  0  0  0  0  0  0  0  0  0  0  0
   26.2805  -21.1689  -10.1526 C   0  0  2  0  0  0  0  0  0  0  0  0
   27.3706  -21.3336  -11.0678 N   0  0  0  0  0  0  0  0  0  0  0  0
   25.0838  -20.6631  -10.8607 C   0  0  0  0  0  0  0  0  0  0  0  0
   24.0721  -20.2166  -10.2730 O   0  0  0  0  0  0  0  0  0  0  0  0
   19.8194  -18.2680  -17.5269 O   0  0  0  0  0  0  0  0  0  0  0  0
   20.9248  -18.6619  -16.7716 C   0  0  0  0  0  0  0  0  0  0  0  0
   21.4179  -19.9492  -16.8288 C   0  0  0  0  0  0  0  0  0  0  0  0
   22.5288  -20.3153  -16.0592 C   0  0  0  0  0  0  0  0  0  0  0  0
   23.1532  -19.4090  -15.2322 C   0  0  0  0  0  0  0  0  0  0  0  0
   24.3194  -19.7633  -14.4064 C   0  0  0  0  0  0  0  0  0  0  0  0
   23.9290  -20.2342  -13.0537 C   0  0  2  0  0  0  0  0  0  0  0  0
   25.0696  -20.6794  -12.2713 N   0  0  0  0  0  0  0  0  0  0  0  0
   22.9639  -21.3373  -13.0926 C   0  0  0  0  0  0  0  0  0  0  0  0
   23.3353  -22.4822  -13.4195 O   0  0  0  0  0  0  0  0  0  0  0  0
   22.6357  -18.1237  -15.1956 C   0  0  0  0  0  0  0  0  0  0  0  0
   21.5372  -17.7585  -15.9556 C   0  0  0  0  0  0  0  0  0  0  0  0
   18.0328  -24.5723   -6.9200 N   0  0  0  0  0  0  0  0  0  0  0  0
   17.8146  -25.3735   -8.0702 C   0  0  0  0  0  0  0  0  0  0  0  0
   17.2056  -26.5076   -8.0061 N   0  0  0  0  0  0  0  0  0  0  0  0
   18.2815  -24.9032   -9.3055 N   0  0  0  0  0  0  0  0  0  0  0  0
   19.0331  -23.6195   -9.4095 C   0  0  0  0  0  0  0  0  0  0  0  0
   19.4163  -23.4784  -10.8219 C   0  0  0  0  0  0  0  0  0  0  0  0
   20.1996  -22.3801  -11.3425 C   0  0  0  0  0  0  0  0  0  0  0  0
   20.6141  -22.2545  -12.7508 C   0  0  2  0  0  0  0  0  0  0  0  0
   21.6173  -21.1122  -12.7626 N   0  0  0  0  0  0  0  0  0  0  0  0
   19.5582  -21.8566  -13.6924 C   0  0  0  0  0  0  0  0  0  0  0  0
   19.2472  -20.5955  -13.7271 O   0  0  0  0  0  0  0  0  0  0  0  0
   18.8423  -22.6404  -14.5623 O   0  0  0  0  0  0  0  0  0  0  0  0
  2  3  1  1
  2  1  1  0
  4  2  1  0
  5  4  1  0
  5  6  1  6
  7  5  1  0
  8  7  2  0
  9 10  1  0
 10 11  2  0
 10 20  1  0
 11 12  1  0
 12 13  2  0
 13 14  1  0
 15 14  1  6
 15 16  1  0
 16  7  1  0
 17 15  1  0
 17 18  2  0
 19 13  1  0
 20 19  2  0
 21 22  1  0
 22 24  1  0
 23 22  2  0
 24 25  1  0
 25 26  1  0
 26 27  1  0
 28 29  1  0
 28 27  1  1
 29 17  1  0
 30 28  1  0
 31 30  2  0
 32 30  1  0
M  END
$$$$
