LYR.pdb
     RDKit          3D

 32 32  0  0  1  0  0  0  0  0999 V2000
   28.6198  -23.0336  -19.7351 C   0  0  0  0  0  0  0  0  0  0  0  0
   29.3689  -23.0177  -18.4210 C   0  0  2  0  0  0  0  0  0  0  0  0
   30.5745  -23.9264  -18.4708 C   0  0  0  0  0  0  0  0  0  0  0  0
   28.4401  -23.5157  -17.3410 C   0  0  0  0  0  0  0  0  0  0  0  0
   27.2563  -22.5645  -17.2504 C   0  0  2  0  0  0  0  0  0  0  0  0
   27.6326  -21.2125  -17.5393 N   0  0  0  0  0  0  0  0  0  0  0  0
   26.6030  -22.6467  -15.9253 C   0  0  0  0  0  0  0  0  0  0  0  0
   26.1181  -23.7035  -15.4599 O   0  0  0  0  0  0  0  0  0  0  0  0
   24.4284  -20.9497   -7.6315 O   0  0  0  0  0  0  0  0  0  0  0  0
   24.9263  -20.8283   -8.9296 C   0  0  0  0  0  0  0  0  0  0  0  0
   24.3086  -20.0287   -9.8691 C   0  0  0  0  0  0  0  0  0  0  0  0
   24.8314  -19.9267  -11.1639 C   0  0  0  0  0  0  0  0  0  0  0  0
   25.9655  -20.6154  -11.5313 C   0  0  0  0  0  0  0  0  0  0  0  0
   26.5374  -20.5341  -12.8854 C   0  0  0  0  0  0  0  0  0  0  0  0
   25.8658  -21.4555  -13.8363 C   0  0  2  0  0  0  0  0  0  0  0  0
   26.5155  -21.4810  -15.1357 N   0  0  0  0  0  0  0  0  0  0  0  0
   24.4560  -21.1177  -14.0551 C   0  0  0  0  0  0  0  0  0  0  0  0
   24.1447  -20.2383  -14.8830 O   0  0  0  0  0  0  0  0  0  0  0  0
   26.5641  -21.4104  -10.5665 C   0  0  0  0  0  0  0  0  0  0  0  0
   26.0495  -21.5133   -9.2850 C   0  0  0  0  0  0  0  0  0  0  0  0
   18.1103  -25.9129  -10.6622 N   0  0  0  0  0  0  0  0  0  0  0  0
   18.7098  -24.7327  -10.1524 C   0  0  0  0  0  0  0  0  0  0  0  0
   18.8052  -24.5078   -8.8869 N   0  0  0  0  0  0  0  0  0  0  0  0
   19.2081  -23.7931  -11.0657 N   0  0  0  0  0  0  0  0  0  0  0  0
   19.1464  -24.0362  -12.5356 C   0  0  0  0  0  0  0  0  0  0  0  0
   19.8559  -22.9156  -13.1699 C   0  0  0  0  0  0  0  0  0  0  0  0
   21.2642  -22.6424  -12.9886 C   0  0  0  0  0  0  0  0  0  0  0  0
   21.9795  -21.5261  -13.6314 C   0  0  2  0  0  0  0  0  0  0  0  0
   23.4487  -21.7810  -13.3352 N   0  0  0  0  0  0  0  0  0  0  0  0
   21.6972  -20.1908  -13.0861 C   0  0  0  0  0  0  0  0  0  0  0  0
   22.4825  -19.7637  -12.1431 O   0  0  0  0  0  0  0  0  0  0  0  0
   20.7068  -19.3094  -13.4406 O   0  0  0  0  0  0  0  0  0  0  0  0
  2  3  1  6
  2  1  1  0
  4  2  1  0
  5  4  1  0
  5  6  1  1
  7  5  1  0
  8  7  2  0
  9 10  1  0
 10 11  2  0
 10 20  1  0
 11 12  1  0
 12 13  2  0
 13 14  1  0
 15 14  1  1
 15 16  1  0
 16  7  1  0
 17 15  1  0
 17 18  2  0
 19 13  1  0
 20 19  2  0
 21 22  1  0
 22 24  1  0
 23 22  2  0
 24 25  1  0
 25 26  1  0
 26 27  1  0
 28 29  1  0
 28 27  1  1
 29 17  1  0
 30 28  1  0
 31 30  2  0
 32 30  1  0
M  END
$$$$
