LYR.pdb
     RDKit          3D

 32 32  0  0  1  0  0  0  0  0999 V2000
   28.6735  -21.7033  -19.2152 C   0  0  0  0  0  0  0  0  0  0  0  0
   29.2810  -22.2816  -17.9563 C   0  0  2  0  0  0  0  0  0  0  0  0
   30.1094  -23.5064  -18.2647 C   0  0  0  0  0  0  0  0  0  0  0  0
   28.1587  -22.6849  -17.0316 C   0  0  0  0  0  0  0  0  0  0  0  0
   27.4122  -21.4292  -16.6071 C   0  0  2  0  0  0  0  0  0  0  0  0
   28.2785  -20.2901  -16.5351 N   0  0  0  0  0  0  0  0  0  0  0  0
   26.7153  -21.6301  -15.3175 C   0  0  0  0  0  0  0  0  0  0  0  0
   25.7864  -22.4547  -15.1567 O   0  0  0  0  0  0  0  0  0  0  0  0
   24.5058  -20.3908   -6.8645 O   0  0  0  0  0  0  0  0  0  0  0  0
   25.1924  -20.3734   -8.0794 C   0  0  0  0  0  0  0  0  0  0  0  0
   25.4927  -19.1907   -8.7232 C   0  0  0  0  0  0  0  0  0  0  0  0
   26.1829  -19.2046   -9.9414 C   0  0  0  0  0  0  0  0  0  0  0  0
   26.5767  -20.3881  -10.5242 C   0  0  0  0  0  0  0  0  0  0  0  0
   27.2987  -20.4375  -11.8063 C   0  0  0  0  0  0  0  0  0  0  0  0
   26.4481  -20.9451  -12.9121 C   0  0  2  0  0  0  0  0  0  0  0  0
   27.1084  -20.8589  -14.2035 N   0  0  0  0  0  0  0  0  0  0  0  0
   25.1721  -20.2312  -13.0211 C   0  0  0  0  0  0  0  0  0  0  0  0
   25.1379  -19.0811  -13.5024 O   0  0  0  0  0  0  0  0  0  0  0  0
   26.2613  -21.5598   -9.8543 C   0  0  0  0  0  0  0  0  0  0  0  0
   25.5788  -21.5493   -8.6494 C   0  0  0  0  0  0  0  0  0  0  0  0
   19.4982  -21.0131  -18.6652 N   0  0  0  0  0  0  0  0  0  0  0  0
   18.7238  -21.1008  -17.4799 C   0  0  0  0  0  0  0  0  0  0  0  0
   17.4892  -21.4700  -17.4974 N   0  0  0  0  0  0  0  0  0  0  0  0
   19.3348  -20.7725  -16.2616 N   0  0  0  0  0  0  0  0  0  0  0  0
   20.7122  -20.2031  -16.2167 C   0  0  0  0  0  0  0  0  0  0  0  0
   21.0345  -20.0128  -14.7949 C   0  0  0  0  0  0  0  0  0  0  0  0
   22.2942  -20.3889  -14.1928 C   0  0  0  0  0  0  0  0  0  0  0  0
   22.6393  -20.1511  -12.7803 C   0  0  2  0  0  0  0  0  0  0  0  0
   23.9822  -20.8368  -12.5852 N   0  0  0  0  0  0  0  0  0  0  0  0
   21.7403  -20.7652  -11.7930 C   0  0  0  0  0  0  0  0  0  0  0  0
   21.9777  -22.0016  -11.4719 O   0  0  0  0  0  0  0  0  0  0  0  0
   20.6674  -20.2076  -11.1437 O   0  0  0  0  0  0  0  0  0  0  0  0
  2  3  1  6
  2  1  1  0
  4  2  1  0
  5  4  1  0
  5  6  1  1
  7  5  1  0
  8  7  2  0
  9 10  1  0
 10 11  2  0
 10 20  1  0
 11 12  1  0
 12 13  2  0
 13 14  1  0
 15 14  1  1
 15 16  1  0
 16  7  1  0
 17 15  1  0
 17 18  2  0
 19 13  1  0
 20 19  2  0
 21 22  1  0
 22 24  1  0
 23 22  2  0
 24 25  1  0
 25 26  1  0
 26 27  1  0
 28 29  1  0
 28 27  1  6
 29 17  1  0
 30 28  1  0
 31 30  2  0
 32 30  1  0
M  END
$$$$
