LYR.pdb
     RDKit          3D

 32 32  0  0  1  0  0  0  0  0999 V2000
   28.2298  -22.4084  -19.8508 C   0  0  0  0  0  0  0  0  0  0  0  0
   29.0234  -22.9106  -18.6649 C   0  0  2  0  0  0  0  0  0  0  0  0
   29.7652  -24.1815  -19.0055 C   0  0  0  0  0  0  0  0  0  0  0  0
   28.0597  -23.2068  -17.5421 C   0  0  0  0  0  0  0  0  0  0  0  0
   27.3951  -21.9037  -17.1243 C   0  0  2  0  0  0  0  0  0  0  0  0
   28.3134  -20.8040  -17.1443 N   0  0  0  0  0  0  0  0  0  0  0  0
   26.7658  -22.0265  -15.7908 C   0  0  0  0  0  0  0  0  0  0  0  0
   26.0074  -22.9704  -15.4705 O   0  0  0  0  0  0  0  0  0  0  0  0
   24.6396  -20.0368   -7.4430 O   0  0  0  0  0  0  0  0  0  0  0  0
   25.2846  -20.1461   -8.6758 C   0  0  0  0  0  0  0  0  0  0  0  0
   25.9578  -21.2940   -9.0401 C   0  0  0  0  0  0  0  0  0  0  0  0
   26.5958  -21.3745  -10.2839 C   0  0  0  0  0  0  0  0  0  0  0  0
   26.5689  -20.3200  -11.1686 C   0  0  0  0  0  0  0  0  0  0  0  0
   27.2337  -20.3705  -12.4812 C   0  0  0  0  0  0  0  0  0  0  0  0
   26.3920  -21.0258  -13.5136 C   0  0  2  0  0  0  0  0  0  0  0  0
   27.0258  -21.0355  -14.8211 N   0  0  0  0  0  0  0  0  0  0  0  0
   25.0797  -20.3895  -13.6648 C   0  0  0  0  0  0  0  0  0  0  0  0
   24.9862  -19.2694  -14.2053 O   0  0  0  0  0  0  0  0  0  0  0  0
   25.8850  -19.1804  -10.7751 C   0  0  0  0  0  0  0  0  0  0  0  0
   25.2530  -19.0978   -9.5457 C   0  0  0  0  0  0  0  0  0  0  0  0
   23.4419  -16.1781  -17.3353 N   0  0  0  0  0  0  0  0  0  0  0  0
   22.0795  -16.5230  -17.5288 C   0  0  0  0  0  0  0  0  0  0  0  0
   21.2814  -15.7869  -18.2233 N   0  0  0  0  0  0  0  0  0  0  0  0
   21.6030  -17.7027  -16.9402 N   0  0  0  0  0  0  0  0  0  0  0  0
   22.4450  -18.4884  -15.9930 C   0  0  0  0  0  0  0  0  0  0  0  0
   21.6483  -19.6626  -15.6083 C   0  0  0  0  0  0  0  0  0  0  0  0
   22.0876  -20.6649  -14.6632 C   0  0  0  0  0  0  0  0  0  0  0  0
   22.5606  -20.3655  -13.3002 C   0  0  2  0  0  0  0  0  0  0  0  0
   23.9216  -21.0360  -13.2027 N   0  0  0  0  0  0  0  0  0  0  0  0
   21.7626  -20.9411  -12.2084 C   0  0  0  0  0  0  0  0  0  0  0  0
   22.0286  -22.1671  -11.8701 O   0  0  0  0  0  0  0  0  0  0  0  0
   20.7601  -20.3564  -11.4760 O   0  0  0  0  0  0  0  0  0  0  0  0
  2  3  1  6
  2  1  1  0
  4  2  1  0
  5  4  1  0
  5  6  1  1
  7  5  1  0
  8  7  2  0
  9 10  1  0
 10 11  2  0
 10 20  1  0
 11 12  1  0
 12 13  2  0
 13 14  1  0
 15 14  1  1
 15 16  1  0
 16  7  1  0
 17 15  1  0
 17 18  2  0
 19 13  1  0
 20 19  2  0
 21 22  1  0
 22 24  1  0
 23 22  2  0
 24 25  1  0
 25 26  1  0
 26 27  1  0
 28 29  1  0
 28 27  1  6
 29 17  1  0
 30 28  1  0
 31 30  2  0
 32 30  1  0
M  END
$$$$
