LYR.pdb
     RDKit          3D

 32 32  0  0  1  0  0  0  0  0999 V2000
   27.6673  -23.8710  -19.8640 C   0  0  0  0  0  0  0  0  0  0  0  0
   28.6987  -23.8287  -18.7583 C   0  0  2  0  0  0  0  0  0  0  0  0
   29.6622  -24.9868  -18.8683 C   0  0  0  0  0  0  0  0  0  0  0  0
   27.9789  -23.9305  -17.4359 C   0  0  0  0  0  0  0  0  0  0  0  0
   27.0693  -22.7198  -17.2905 C   0  0  2  0  0  0  0  0  0  0  0  0
   27.7818  -21.4901  -17.4724 N   0  0  0  0  0  0  0  0  0  0  0  0
   26.3743  -22.7255  -15.9843 C   0  0  0  0  0  0  0  0  0  0  0  0
   25.7295  -23.7076  -15.5505 O   0  0  0  0  0  0  0  0  0  0  0  0
   24.4216  -20.5508   -7.6972 O   0  0  0  0  0  0  0  0  0  0  0  0
   24.9148  -20.5235   -9.0025 C   0  0  0  0  0  0  0  0  0  0  0  0
   24.3023  -19.7817   -9.9914 C   0  0  0  0  0  0  0  0  0  0  0  0
   24.8202  -19.7737  -11.2923 C   0  0  0  0  0  0  0  0  0  0  0  0
   25.9442  -20.4994  -11.6166 C   0  0  0  0  0  0  0  0  0  0  0  0
   26.5107  -20.5167  -12.9754 C   0  0  0  0  0  0  0  0  0  0  0  0
   25.8311  -21.5000  -13.8560 C   0  0  2  0  0  0  0  0  0  0  0  0
   26.4336  -21.5706  -15.1763 N   0  0  0  0  0  0  0  0  0  0  0  0
   24.4053  -21.2103  -14.0372 C   0  0  0  0  0  0  0  0  0  0  0  0
   24.0411  -20.3602  -14.8739 O   0  0  0  0  0  0  0  0  0  0  0  0
   26.5378  -21.2347  -10.6027 C   0  0  0  0  0  0  0  0  0  0  0  0
   26.0280  -21.2445   -9.3151 C   0  0  0  0  0  0  0  0  0  0  0  0
   17.1973  -24.6456  -10.9013 N   0  0  0  0  0  0  0  0  0  0  0  0
   16.7909  -24.4185  -12.2413 C   0  0  0  0  0  0  0  0  0  0  0  0
   15.5484  -24.3979  -12.5832 N   0  0  0  0  0  0  0  0  0  0  0  0
   17.7828  -24.2122  -13.2103 N   0  0  0  0  0  0  0  0  0  0  0  0
   19.2282  -24.3791  -12.8841 C   0  0  0  0  0  0  0  0  0  0  0  0
   19.8753  -23.0992  -13.2079 C   0  0  0  0  0  0  0  0  0  0  0  0
   21.2791  -22.8252  -12.9958 C   0  0  0  0  0  0  0  0  0  0  0  0
   21.9598  -21.5989  -13.4474 C   0  0  2  0  0  0  0  0  0  0  0  0
   23.4421  -21.8871  -13.2710 N   0  0  0  0  0  0  0  0  0  0  0  0
   21.6984  -20.3940  -12.6474 C   0  0  0  0  0  0  0  0  0  0  0  0
   22.5369  -20.1317  -11.6901 O   0  0  0  0  0  0  0  0  0  0  0  0
   20.6785  -19.4843  -12.7720 O   0  0  0  0  0  0  0  0  0  0  0  0
  2  3  1  6
  2  1  1  0
  4  2  1  0
  5  4  1  0
  5  6  1  1
  7  5  1  0
  8  7  2  0
  9 10  1  0
 10 11  2  0
 10 20  1  0
 11 12  1  0
 12 13  2  0
 13 14  1  0
 15 14  1  1
 15 16  1  0
 16  7  1  0
 17 15  1  0
 17 18  2  0
 19 13  1  0
 20 19  2  0
 21 22  1  0
 22 24  1  0
 23 22  2  0
 24 25  1  0
 25 26  1  0
 26 27  1  0
 28 29  1  0
 28 27  1  1
 29 17  1  0
 30 28  1  0
 31 30  2  0
 32 30  1  0
M  END
$$$$
