LYR.pdb
     RDKit          3D

 32 32  0  0  1  0  0  0  0  0999 V2000
   28.9689  -17.1965  -17.6978 C   0  0  0  0  0  0  0  0  0  0  0  0
   27.4923  -17.0179  -17.9734 C   0  0  2  0  0  0  0  0  0  0  0  0
   27.2296  -15.7308  -18.7190 C   0  0  0  0  0  0  0  0  0  0  0  0
   26.7679  -16.9598  -16.6509 C   0  0  0  0  0  0  0  0  0  0  0  0
   27.2055  -18.1508  -15.8117 C   0  0  2  0  0  0  0  0  0  0  0  0
   27.4235  -19.3188  -16.6126 N   0  0  0  0  0  0  0  0  0  0  0  0
   26.2295  -18.4367  -14.7369 C   0  0  0  0  0  0  0  0  0  0  0  0
   25.8078  -17.5679  -13.9395 O   0  0  0  0  0  0  0  0  0  0  0  0
   19.8432  -17.9569  -17.1618 O   0  0  0  0  0  0  0  0  0  0  0  0
   20.7959  -18.7003  -16.4636 C   0  0  0  0  0  0  0  0  0  0  0  0
   21.8790  -19.2688  -17.1017 C   0  0  0  0  0  0  0  0  0  0  0  0
   22.8188  -20.0096  -16.3747 C   0  0  0  0  0  0  0  0  0  0  0  0
   22.6884  -20.1891  -15.0159 C   0  0  0  0  0  0  0  0  0  0  0  0
   23.6555  -20.9665  -14.2236 C   0  0  0  0  0  0  0  0  0  0  0  0
   24.7137  -20.1110  -13.6300 C   0  0  2  0  0  0  0  0  0  0  0  0
   25.7412  -19.7523  -14.5926 N   0  0  0  0  0  0  0  0  0  0  0  0
   25.3812  -20.7431  -12.4878 C   0  0  0  0  0  0  0  0  0  0  0  0
   26.0078  -21.8104  -12.6418 O   0  0  0  0  0  0  0  0  0  0  0  0
   21.5906  -19.6063  -14.4025 C   0  0  0  0  0  0  0  0  0  0  0  0
   20.6595  -18.8730  -15.1188 C   0  0  0  0  0  0  0  0  0  0  0  0
   29.3647  -17.7685   -5.1420 N   0  0  0  0  0  0  0  0  0  0  0  0
   29.0161  -19.1227   -4.9032 C   0  0  0  0  0  0  0  0  0  0  0  0
   29.4034  -19.7507   -3.8464 N   0  0  0  0  0  0  0  0  0  0  0  0
   28.2264  -19.7829   -5.8548 N   0  0  0  0  0  0  0  0  0  0  0  0
   28.0786  -19.2505   -7.2398 C   0  0  0  0  0  0  0  0  0  0  0  0
   27.2326  -20.2107   -7.9635 C   0  0  0  0  0  0  0  0  0  0  0  0
   26.6790  -19.9722   -9.2778 C   0  0  0  0  0  0  0  0  0  0  0  0
   25.7820  -20.9070   -9.9795 C   0  0  2  0  0  0  0  0  0  0  0  0
   25.3195  -20.1518  -11.2153 N   0  0  0  0  0  0  0  0  0  0  0  0
   24.5523  -21.2701   -9.2609 C   0  0  0  0  0  0  0  0  0  0  0  0
   23.4896  -20.5708   -9.5253 O   0  0  0  0  0  0  0  0  0  0  0  0
   24.3595  -22.2655   -8.3360 O   0  0  0  0  0  0  0  0  0  0  0  0
  2  3  1  1
  2  1  1  0
  4  2  1  0
  5  4  1  0
  5  6  1  6
  7  5  1  0
  8  7  2  0
  9 10  1  0
 10 11  2  0
 10 20  1  0
 11 12  1  0
 12 13  2  0
 13 14  1  0
 15 14  1  6
 15 16  1  0
 16  7  1  0
 17 15  1  0
 17 18  2  0
 19 13  1  0
 20 19  2  0
 21 22  1  0
 22 24  1  0
 23 22  2  0
 24 25  1  0
 25 26  1  0
 26 27  1  0
 28 29  1  0
 28 27  1  1
 29 17  1  0
 30 28  1  0
 31 30  2  0
 32 30  1  0
M  END
$$$$
