LYR.pdb
     RDKit          3D

 32 32  0  0  1  0  0  0  0  0999 V2000
   20.5641  -12.5082  -21.3953 C   0  0  0  0  0  0  0  0  0  0  0  0
   19.5044  -12.9958  -20.4323 C   0  0  2  0  0  0  0  0  0  0  0  0
   18.1824  -13.1977  -21.1344 C   0  0  0  0  0  0  0  0  0  0  0  0
   19.3209  -11.9488  -19.3611 C   0  0  0  0  0  0  0  0  0  0  0  0
   20.6236  -11.8227  -18.5856 C   0  0  2  0  0  0  0  0  0  0  0  0
   21.0497  -13.0801  -18.0467 N   0  0  0  0  0  0  0  0  0  0  0  0
   20.5118  -10.8118  -17.5109 C   0  0  0  0  0  0  0  0  0  0  0  0
   19.6915  -10.8953  -16.5682 O   0  0  0  0  0  0  0  0  0  0  0  0
   21.8672   -3.0453  -13.4999 O   0  0  0  0  0  0  0  0  0  0  0  0
   22.0361   -4.2190  -14.2358 C   0  0  0  0  0  0  0  0  0  0  0  0
   22.1876   -4.1972  -15.6069 C   0  0  0  0  0  0  0  0  0  0  0  0
   22.3553   -5.3913  -16.3186 C   0  0  0  0  0  0  0  0  0  0  0  0
   22.3732   -6.6083  -15.6751 C   0  0  0  0  0  0  0  0  0  0  0  0
   22.5421   -7.8817  -16.3943 C   0  0  0  0  0  0  0  0  0  0  0  0
   21.2520   -8.5866  -16.6013 C   0  0  2  0  0  0  0  0  0  0  0  0
   21.3681   -9.6910  -17.5384 N   0  0  0  0  0  0  0  0  0  0  0  0
   20.1928   -7.7004  -17.0937 C   0  0  0  0  0  0  0  0  0  0  0  0
   20.0405   -7.5287  -18.3196 O   0  0  0  0  0  0  0  0  0  0  0  0
   22.2188   -6.5988  -14.2977 C   0  0  0  0  0  0  0  0  0  0  0  0
   22.0528   -5.4194  -13.5911 C   0  0  0  0  0  0  0  0  0  0  0  0
   12.6870   -6.8470  -14.9104 N   0  0  0  0  0  0  0  0  0  0  0  0
   12.4249   -6.1977  -16.1441 C   0  0  0  0  0  0  0  0  0  0  0  0
   11.3723   -5.4763  -16.3253 N   0  0  0  0  0  0  0  0  0  0  0  0
   13.3482   -6.3557  -17.1870 N   0  0  0  0  0  0  0  0  0  0  0  0
   14.5071   -7.2854  -17.0589 C   0  0  0  0  0  0  0  0  0  0  0  0
   15.7050   -6.4399  -16.9507 C   0  0  0  0  0  0  0  0  0  0  0  0
   17.0448   -6.9532  -16.7716 C   0  0  0  0  0  0  0  0  0  0  0  0
   18.2491   -6.1088  -16.6837 C   0  0  2  0  0  0  0  0  0  0  0  0
   19.3445   -7.0403  -16.1897 N   0  0  0  0  0  0  0  0  0  0  0  0
   18.1915   -5.0178  -15.7006 C   0  0  0  0  0  0  0  0  0  0  0  0
   18.6922   -5.2589  -14.5261 O   0  0  0  0  0  0  0  0  0  0  0  0
   17.6797   -3.7531  -15.8492 O   0  0  0  0  0  0  0  0  0  0  0  0
  2  3  1  6
  2  1  1  0
  4  2  1  0
  5  4  1  0
  5  6  1  1
  7  5  1  0
  8  7  2  0
  9 10  1  0
 10 11  2  0
 10 20  1  0
 11 12  1  0
 12 13  2  0
 13 14  1  0
 15 14  1  6
 15 16  1  0
 16  7  1  0
 17 15  1  0
 17 18  2  0
 19 13  1  0
 20 19  2  0
 21 22  1  0
 22 24  1  0
 23 22  2  0
 24 25  1  0
 25 26  1  0
 26 27  1  0
 28 29  1  0
 28 27  1  1
 29 17  1  0
 30 28  1  0
 31 30  2  0
 32 30  1  0
M  END
$$$$
