LYR.pdb
     RDKit          3D

 32 32  0  0  1  0  0  0  0  0999 V2000
   29.7022  -20.0918  -10.7565 C   0  0  0  0  0  0  0  0  0  0  0  0
   28.9722  -21.4054  -10.9290 C   0  0  2  0  0  0  0  0  0  0  0  0
   29.8365  -22.4188  -11.6415 C   0  0  0  0  0  0  0  0  0  0  0  0
   27.7411  -21.1561  -11.7653 C   0  0  0  0  0  0  0  0  0  0  0  0
   26.8983  -20.0951  -11.0736 C   0  0  2  0  0  0  0  0  0  0  0  0
   26.0055  -20.6657  -10.1090 N   0  0  0  0  0  0  0  0  0  0  0  0
   26.1466  -19.2834  -12.0561 C   0  0  0  0  0  0  0  0  0  0  0  0
   24.8961  -19.2673  -12.1246 O   0  0  0  0  0  0  0  0  0  0  0  0
   24.7763  -13.8480  -18.9077 O   0  0  0  0  0  0  0  0  0  0  0  0
   25.3509  -14.5382  -17.8394 C   0  0  0  0  0  0  0  0  0  0  0  0
   25.1569  -14.1393  -16.5329 C   0  0  0  0  0  0  0  0  0  0  0  0
   25.7464  -14.8518  -15.4815 C   0  0  0  0  0  0  0  0  0  0  0  0
   26.5283  -15.9593  -15.7209 C   0  0  0  0  0  0  0  0  0  0  0  0
   27.1664  -16.7268  -14.6388 C   0  0  0  0  0  0  0  0  0  0  0  0
   26.2150  -17.6446  -13.9629 C   0  0  2  0  0  0  0  0  0  0  0  0
   26.8642  -18.4816  -12.9683 N   0  0  0  0  0  0  0  0  0  0  0  0
   25.5192  -18.5323  -14.8996 C   0  0  0  0  0  0  0  0  0  0  0  0
   26.0808  -19.5646  -15.3175 O   0  0  0  0  0  0  0  0  0  0  0  0
   26.7051  -16.3361  -17.0430 C   0  0  0  0  0  0  0  0  0  0  0  0
   26.1234  -15.6335  -18.0850 C   0  0  0  0  0  0  0  0  0  0  0  0
   24.8375  -25.2441  -14.9391 N   0  0  0  0  0  0  0  0  0  0  0  0
   23.6959  -24.5491  -15.4147 C   0  0  0  0  0  0  0  0  0  0  0  0
   23.0497  -24.9342  -16.4612 N   0  0  0  0  0  0  0  0  0  0  0  0
   23.2713  -23.4116  -14.7141 N   0  0  0  0  0  0  0  0  0  0  0  0
   22.0760  -22.6354  -15.1528 C   0  0  0  0  0  0  0  0  0  0  0  0
   22.5813  -21.5342  -15.9855 C   0  0  0  0  0  0  0  0  0  0  0  0
   22.9698  -20.2408  -15.4690 C   0  0  0  0  0  0  0  0  0  0  0  0
   23.4822  -19.1379  -16.3008 C   0  0  2  0  0  0  0  0  0  0  0  0
   24.2182  -18.2266  -15.3316 N   0  0  0  0  0  0  0  0  0  0  0  0
   22.4618  -18.2911  -16.9346 C   0  0  0  0  0  0  0  0  0  0  0  0
   22.0144  -17.2898  -16.2378 O   0  0  0  0  0  0  0  0  0  0  0  0
   21.9060  -18.4045  -18.1843 O   0  0  0  0  0  0  0  0  0  0  0  0
  2  3  1  6
  2  1  1  0
  4  2  1  0
  5  4  1  0
  5  6  1  1
  7  5  1  0
  8  7  2  0
  9 10  1  0
 10 11  2  0
 10 20  1  0
 11 12  1  0
 12 13  2  0
 13 14  1  0
 15 14  1  6
 15 16  1  0
 16  7  1  0
 17 15  1  0
 17 18  2  0
 19 13  1  0
 20 19  2  0
 21 22  1  0
 22 24  1  0
 23 22  2  0
 24 25  1  0
 25 26  1  0
 26 27  1  0
 28 29  1  0
 28 27  1  1
 29 17  1  0
 30 28  1  0
 31 30  2  0
 32 30  1  0
M  END
$$$$
