AHL.pdb
     RDKit          3D

 24 24  0  0  1  0  0  0  0  0999 V2000
   80.1079  -32.8537  -16.6539 C   0  0  0  0  0  0  0  0  0  0  0  0
   79.8348  -31.5010  -16.0315 C   0  0  2  0  0  0  0  0  0  0  0  0
   78.9658  -31.7011  -14.8862 N   0  0  0  0  0  0  0  0  0  0  0  0
   79.1581  -30.6315  -17.0704 C   0  0  0  0  0  0  0  0  0  0  0  0
   78.3066  -29.8393  -16.6162 O   0  0  0  0  0  0  0  0  0  0  0  0
   79.4961  -30.7431  -18.4362 N   0  0  0  0  0  0  0  0  0  0  0  0
   79.5785  -29.6988  -19.3825 C   0  0  1  0  0  0  0  0  0  0  0  0
   80.9797  -29.1176  -19.5495 C   0  0  0  0  0  0  0  0  0  0  0  0
   81.8462  -29.4056  -18.3890 C   0  0  0  0  0  0  0  0  0  0  0  0
   81.6070  -28.9834  -17.0691 C   0  0  0  0  0  0  0  0  0  0  0  0
   82.6254  -29.4520  -16.3295 N   0  0  0  0  0  0  0  0  0  0  0  0
   83.4871  -30.1383  -17.0896 C   0  0  0  0  0  0  0  0  0  0  0  0
   82.9726  -30.0843  -18.3380 N   0  0  0  0  0  0  0  0  0  0  0  0
   78.9287  -30.0280  -20.6578 C   0  0  0  0  0  0  0  0  0  0  0  0
   78.0337  -29.2790  -21.1336 O   0  0  0  0  0  0  0  0  0  0  0  0
   75.1735  -32.1572  -22.5041 C   0  0  0  0  0  0  0  0  0  0  0  0
   76.6356  -31.8267  -22.6414 C   0  0  2  0  0  0  0  0  0  0  0  0
   76.9047  -31.6503  -24.1466 C   0  0  0  0  0  0  0  0  0  0  0  0
   77.5786  -32.8665  -22.1743 C   0  0  0  0  0  0  0  0  0  0  0  0
   78.6465  -32.4666  -21.2219 C   0  0  2  0  0  0  0  0  0  0  0  0
   79.2580  -31.1963  -21.4337 N   0  0  0  0  0  0  0  0  0  0  0  0
   79.6320  -33.5667  -21.0605 C   0  0  0  0  0  0  0  0  0  0  0  0
   80.7608  -33.2714  -20.6049 O   0  0  0  0  0  0  0  0  0  0  0  0
   79.3989  -34.8921  -21.3748 O   0  0  0  0  0  0  0  0  0  0  0  0
  2  1  1  6
  2  3  1  0
  4  2  1  0
  4  5  2  0
  6  4  1  0
  7  6  1  0
  7 14  1  0
  7  8  1  6
  9 10  2  0
  9  8  1  0
 11 10  1  0
 12 13  2  0
 12 11  1  0
 13  9  1  0
 14 15  2  0
 17 18  1  6
 17 16  1  0
 19 17  1  0
 20 19  1  6
 21 14  1  0
 21 20  1  0
 22 24  1  0
 22 20  1  0
 23 22  2  0
M  END
$$$$
