AHL.pdb
     RDKit          3D

 24 24  0  0  1  0  0  0  0  0999 V2000
   42.6661   -8.7433   -4.4605 C   0  0  0  0  0  0  0  0  0  0  0  0
   43.5544   -9.8067   -5.0705 C   0  0  2  0  0  0  0  0  0  0  0  0
   44.9236   -9.5273   -4.6776 N   0  0  0  0  0  0  0  0  0  0  0  0
   43.4061   -9.7388   -6.5760 C   0  0  0  0  0  0  0  0  0  0  0  0
   44.2152   -8.9793   -7.1483 O   0  0  0  0  0  0  0  0  0  0  0  0
   42.4146  -10.4939   -7.2385 N   0  0  0  0  0  0  0  0  0  0  0  0
   42.1260  -10.4969   -8.6204 C   0  0  1  0  0  0  0  0  0  0  0  0
   41.9512  -11.8903   -9.2179 C   0  0  0  0  0  0  0  0  0  0  0  0
   43.2094  -12.6631   -9.2114 C   0  0  0  0  0  0  0  0  0  0  0  0
   43.6853  -13.4357   -8.1371 C   0  0  0  0  0  0  0  0  0  0  0  0
   44.8509  -13.9686   -8.5387 N   0  0  0  0  0  0  0  0  0  0  0  0
   45.1415  -13.5864   -9.7881 C   0  0  0  0  0  0  0  0  0  0  0  0
   44.1136  -12.7914  -10.1590 N   0  0  0  0  0  0  0  0  0  0  0  0
   41.0477   -9.5681   -8.9830 C   0  0  0  0  0  0  0  0  0  0  0  0
   40.8197   -9.2904  -10.1910 O   0  0  0  0  0  0  0  0  0  0  0  0
   36.9785  -10.8314   -8.5865 C   0  0  0  0  0  0  0  0  0  0  0  0
   37.5200  -10.0483   -7.4206 C   0  0  2  0  0  0  0  0  0  0  0  0
   36.4540  -10.1200   -6.3126 C   0  0  0  0  0  0  0  0  0  0  0  0
   37.7613   -8.6095   -7.6663 C   0  0  0  0  0  0  0  0  0  0  0  0
   39.0122   -8.2186   -8.3661 C   0  0  2  0  0  0  0  0  0  0  0  0
   40.1980   -8.9266   -8.0124 N   0  0  0  0  0  0  0  0  0  0  0  0
   39.1835   -6.7432   -8.3308 C   0  0  0  0  0  0  0  0  0  0  0  0
   40.2513   -6.2949   -7.8535 O   0  0  0  0  0  0  0  0  0  0  0  0
   38.2543   -5.8264   -8.7846 O   0  0  0  0  0  0  0  0  0  0  0  0
  2  1  1  1
  2  3  1  0
  4  2  1  0
  4  5  2  0
  6  4  1  0
  7  6  1  0
  7 14  1  0
  7  8  1  1
  9 10  2  0
  9  8  1  0
 11 10  1  0
 12 13  2  0
 12 11  1  0
 13  9  1  0
 14 15  2  0
 17 18  1  1
 17 16  1  0
 19 17  1  0
 20 19  1  1
 21 14  1  0
 21 20  1  0
 22 24  1  0
 22 20  1  0
 23 22  2  0
M  END
$$$$
