AHL.pdb
     RDKit          3D

 24 24  0  0  1  0  0  0  0  0999 V2000
   29.2244  -22.4994  -16.2519 C   0  0  0  0  0  0  0  0  0  0  0  0
   28.0625  -22.4255  -17.2196 C   0  0  2  0  0  0  0  0  0  0  0  0
   28.5942  -22.1303  -18.5377 N   0  0  0  0  0  0  0  0  0  0  0  0
   27.1339  -21.3218  -16.7585 C   0  0  0  0  0  0  0  0  0  0  0  0
   27.6911  -20.2264  -16.5379 O   0  0  0  0  0  0  0  0  0  0  0  0
   25.7511  -21.5591  -16.6042 N   0  0  0  0  0  0  0  0  0  0  0  0
   24.7795  -20.6565  -16.1205 C   0  0  1  0  0  0  0  0  0  0  0  0
   23.8438  -20.1120  -17.1962 C   0  0  0  0  0  0  0  0  0  0  0  0
   24.5538  -19.2727  -18.1820 C   0  0  0  0  0  0  0  0  0  0  0  0
   24.8349  -19.6379  -19.5106 C   0  0  0  0  0  0  0  0  0  0  0  0
   25.4880  -18.6009  -20.0600 N   0  0  0  0  0  0  0  0  0  0  0  0
   25.6374  -17.6105  -19.1722 C   0  0  0  0  0  0  0  0  0  0  0  0
   25.0530  -18.0632  -18.0410 N   0  0  0  0  0  0  0  0  0  0  0  0
   24.0741  -21.1554  -14.9329 C   0  0  0  0  0  0  0  0  0  0  0  0
   23.5465  -22.3000  -14.9341 O   0  0  0  0  0  0  0  0  0  0  0  0
   25.7577  -22.2344  -11.1297 C   0  0  0  0  0  0  0  0  0  0  0  0
   25.2936  -20.8035  -11.0774 C   0  0  2  0  0  0  0  0  0  0  0  0
   25.6428  -20.2814   -9.6722 C   0  0  0  0  0  0  0  0  0  0  0  0
   23.8392  -20.5905  -11.2452 C   0  0  0  0  0  0  0  0  0  0  0  0
   23.2379  -20.8776  -12.5731 C   0  0  2  0  0  0  0  0  0  0  0  0
   23.9385  -20.3947  -13.7170 N   0  0  0  0  0  0  0  0  0  0  0  0
   21.7975  -20.5132  -12.5767 C   0  0  0  0  0  0  0  0  0  0  0  0
   21.0520  -21.0885  -11.7509 O   0  0  0  0  0  0  0  0  0  0  0  0
   21.2164  -19.5873  -13.4221 O   0  0  0  0  0  0  0  0  0  0  0  0
  2  1  1  1
  2  3  1  0
  4  2  1  0
  4  5  2  0
  6  4  1  0
  7  6  1  0
  7 14  1  0
  7  8  1  6
  9 10  2  0
  9  8  1  0
 11 10  1  0
 12 13  2  0
 12 11  1  0
 13  9  1  0
 14 15  2  0
 17 18  1  1
 17 16  1  0
 19 17  1  0
 20 19  1  1
 21 14  1  0
 21 20  1  0
 22 24  1  0
 22 20  1  0
 23 22  2  0
M  END
$$$$
