AHL.pdb
     RDKit          3D

 24 24  0  0  1  0  0  0  0  0999 V2000
   19.9983  -17.9759  -20.1838 C   0  0  0  0  0  0  0  0  0  0  0  0
   21.3734  -18.1613  -19.5782 C   0  0  2  0  0  0  0  0  0  0  0  0
   22.3222  -18.3334  -20.6632 N   0  0  0  0  0  0  0  0  0  0  0  0
   21.3391  -19.3930  -18.6979 C   0  0  0  0  0  0  0  0  0  0  0  0
   20.2622  -20.0244  -18.7222 O   0  0  0  0  0  0  0  0  0  0  0  0
   22.4625  -19.7604  -17.9264 N   0  0  0  0  0  0  0  0  0  0  0  0
   22.5763  -20.8687  -17.0595 C   0  0  1  0  0  0  0  0  0  0  0  0
   23.9589  -21.5147  -17.0514 C   0  0  0  0  0  0  0  0  0  0  0  0
   24.0018  -22.7329  -16.2179 C   0  0  0  0  0  0  0  0  0  0  0  0
   22.9558  -23.1983  -15.4012 C   0  0  0  0  0  0  0  0  0  0  0  0
   23.3997  -24.3246  -14.8198 N   0  0  0  0  0  0  0  0  0  0  0  0
   24.6491  -24.6004  -15.2124 C   0  0  0  0  0  0  0  0  0  0  0  0
   24.9763  -23.6038  -16.0644 N   0  0  0  0  0  0  0  0  0  0  0  0
   22.0504  -20.6011  -15.7146 C   0  0  0  0  0  0  0  0  0  0  0  0
   22.6987  -19.8876  -14.9028 O   0  0  0  0  0  0  0  0  0  0  0  0
   20.3365  -18.1544  -12.4535 C   0  0  0  0  0  0  0  0  0  0  0  0
   20.2595  -17.9063  -13.9361 C   0  0  2  0  0  0  0  0  0  0  0  0
   19.3721  -16.6630  -14.1260 C   0  0  0  0  0  0  0  0  0  0  0  0
   19.6370  -18.9819  -14.7387 C   0  0  0  0  0  0  0  0  0  0  0  0
   19.9310  -20.3907  -14.3697 C   0  0  2  0  0  0  0  0  0  0  0  0
   20.7927  -21.1198  -15.2405 N   0  0  0  0  0  0  0  0  0  0  0  0
   18.6723  -21.1154  -14.0566 C   0  0  0  0  0  0  0  0  0  0  0  0
   18.1344  -21.7685  -14.9802 O   0  0  0  0  0  0  0  0  0  0  0  0
   18.0486  -21.1242  -12.8235 O   0  0  0  0  0  0  0  0  0  0  0  0
  2  1  1  6
  2  3  1  0
  4  2  1  0
  4  5  2  0
  6  4  1  0
  7  6  1  0
  7 14  1  0
  7  8  1  1
  9 10  2  0
  9  8  1  0
 11 10  1  0
 12 13  2  0
 12 11  1  0
 13  9  1  0
 14 15  2  0
 17 18  1  1
 17 16  1  0
 19 17  1  0
 20 19  1  6
 21 14  1  0
 21 20  1  0
 22 24  1  0
 22 20  1  0
 23 22  2  0
M  END
$$$$
