AHL.pdb
     RDKit          3D

 24 24  0  0  1  0  0  0  0  0999 V2000
   26.7364  -34.2707   -9.8206 C   0  0  0  0  0  0  0  0  0  0  0  0
   25.7949  -33.9140   -8.6900 C   0  0  2  0  0  0  0  0  0  0  0  0
   24.7931  -33.0018   -9.2110 N   0  0  0  0  0  0  0  0  0  0  0  0
   26.6031  -33.2511   -7.5943 C   0  0  0  0  0  0  0  0  0  0  0  0
   26.9957  -32.0958   -7.8590 O   0  0  0  0  0  0  0  0  0  0  0  0
   26.8673  -33.9259   -6.3832 N   0  0  0  0  0  0  0  0  0  0  0  0
   27.6509  -33.4649   -5.3032 C   0  0  1  0  0  0  0  0  0  0  0  0
   26.8459  -32.8153   -4.1812 C   0  0  0  0  0  0  0  0  0  0  0  0
   25.3989  -32.7894   -4.4742 C   0  0  0  0  0  0  0  0  0  0  0  0
   24.7926  -33.3103   -5.6312 C   0  0  0  0  0  0  0  0  0  0  0  0
   23.4748  -33.0842   -5.5047 N   0  0  0  0  0  0  0  0  0  0  0  0
   23.2094  -32.4588   -4.3515 C   0  0  0  0  0  0  0  0  0  0  0  0
   24.4116  -32.2992   -3.7553 N   0  0  0  0  0  0  0  0  0  0  0  0
   28.6139  -34.4655   -4.8253 C   0  0  0  0  0  0  0  0  0  0  0  0
   28.4989  -35.6759   -5.1570 O   0  0  0  0  0  0  0  0  0  0  0  0
   32.8378  -35.5049   -5.7878 C   0  0  0  0  0  0  0  0  0  0  0  0
   32.6801  -34.4003   -4.7775 C   0  0  2  0  0  0  0  0  0  0  0  0
   34.0988  -33.9007   -4.4506 C   0  0  0  0  0  0  0  0  0  0  0  0
   32.0737  -34.7896   -3.4854 C   0  0  0  0  0  0  0  0  0  0  0  0
   30.6273  -35.1282   -3.4643 C   0  0  2  0  0  0  0  0  0  0  0  0
   29.7266  -34.1446   -3.9683 N   0  0  0  0  0  0  0  0  0  0  0  0
   30.2373  -35.6423   -2.1259 C   0  0  0  0  0  0  0  0  0  0  0  0
   29.3083  -35.0533   -1.5269 O   0  0  0  0  0  0  0  0  0  0  0  0
   30.8215  -36.7214   -1.4904 O   0  0  0  0  0  0  0  0  0  0  0  0
  2  1  1  6
  2  3  1  0
  4  2  1  0
  4  5  2  0
  6  4  1  0
  7  6  1  0
  7 14  1  0
  7  8  1  1
  9 10  2  0
  9  8  1  0
 11 10  1  0
 12 13  2  0
 12 11  1  0
 13  9  1  0
 14 15  2  0
 17 18  1  1
 17 16  1  0
 19 17  1  0
 20 19  1  1
 21 14  1  0
 21 20  1  0
 22 24  1  0
 22 20  1  0
 23 22  2  0
M  END
$$$$
