AHL.pdb
     RDKit          3D

 24 24  0  0  1  0  0  0  0  0999 V2000
   27.2771  -17.1634  -19.2279 C   0  0  0  0  0  0  0  0  0  0  0  0
   27.2618  -18.3427  -18.2787 C   0  0  2  0  0  0  0  0  0  0  0  0
   27.0098  -19.5419  -19.0568 N   0  0  0  0  0  0  0  0  0  0  0  0
   26.1570  -18.1199  -17.2673 C   0  0  0  0  0  0  0  0  0  0  0  0
   26.3214  -17.1326  -16.5209 O   0  0  0  0  0  0  0  0  0  0  0  0
   25.0455  -18.9879  -17.2094 N   0  0  0  0  0  0  0  0  0  0  0  0
   23.9395  -18.9004  -16.3366 C   0  0  1  0  0  0  0  0  0  0  0  0
   22.5877  -18.8669  -17.0442 C   0  0  0  0  0  0  0  0  0  0  0  0
   22.3149  -17.5559  -17.6665 C   0  0  0  0  0  0  0  0  0  0  0  0
   23.1339  -16.4177  -17.5603 C   0  0  0  0  0  0  0  0  0  0  0  0
   22.5303  -15.4477  -18.2664 N   0  0  0  0  0  0  0  0  0  0  0  0
   21.3911  -15.8946  -18.8086 C   0  0  0  0  0  0  0  0  0  0  0  0
   21.2995  -17.1847  -18.4169 N   0  0  0  0  0  0  0  0  0  0  0  0
   23.9978  -19.8730  -15.2377 C   0  0  0  0  0  0  0  0  0  0  0  0
   24.2355  -21.0888  -15.4693 O   0  0  0  0  0  0  0  0  0  0  0  0
   25.5211  -20.4183   -9.2876 C   0  0  0  0  0  0  0  0  0  0  0  0
   25.1467  -21.0274  -10.6122 C   0  0  2  0  0  0  0  0  0  0  0  0
   26.3296  -21.9171  -11.0345 C   0  0  0  0  0  0  0  0  0  0  0  0
   24.9325  -20.0741  -11.7231 C   0  0  0  0  0  0  0  0  0  0  0  0
   23.9599  -20.4422  -12.7842 C   0  0  2  0  0  0  0  0  0  0  0  0
   23.7937  -19.5176  -13.8565 N   0  0  0  0  0  0  0  0  0  0  0  0
   22.6718  -20.8675  -12.1781 C   0  0  0  0  0  0  0  0  0  0  0  0
   21.8488  -19.9721  -11.8782 O   0  0  0  0  0  0  0  0  0  0  0  0
   22.3114  -22.1762  -11.9194 O   0  0  0  0  0  0  0  0  0  0  0  0
  2  1  1  6
  2  3  1  0
  4  2  1  0
  4  5  2  0
  6  4  1  0
  7  6  1  0
  7 14  1  0
  7  8  1  6
  9 10  2  0
  9  8  1  0
 11 10  1  0
 12 13  2  0
 12 11  1  0
 13  9  1  0
 14 15  2  0
 17 18  1  6
 17 16  1  0
 19 17  1  0
 20 19  1  1
 21 14  1  0
 21 20  1  0
 22 24  1  0
 22 20  1  0
 23 22  2  0
M  END
$$$$
