AHL.pdb
     RDKit          3D

 24 24  0  0  1  0  0  0  0  0999 V2000
   18.6611  -12.1334  -20.8791 C   0  0  0  0  0  0  0  0  0  0  0  0
   19.6160  -11.4236  -19.9430 C   0  0  2  0  0  0  0  0  0  0  0  0
   20.5889  -12.3935  -19.4741 N   0  0  0  0  0  0  0  0  0  0  0  0
   18.8150  -10.8673  -18.7846 C   0  0  0  0  0  0  0  0  0  0  0  0
   17.9526  -10.0220  -19.1021 O   0  0  0  0  0  0  0  0  0  0  0  0
   19.0595  -11.3006  -17.4638 N   0  0  0  0  0  0  0  0  0  0  0  0
   18.4337  -10.8397  -16.2853 C   0  0  1  0  0  0  0  0  0  0  0  0
   17.9155  -11.9523  -15.3783 C   0  0  0  0  0  0  0  0  0  0  0  0
   16.9405  -12.8238  -16.0640 C   0  0  0  0  0  0  0  0  0  0  0  0
   17.2050  -14.1158  -16.5523 C   0  0  0  0  0  0  0  0  0  0  0  0
   16.0610  -14.5567  -17.1005 N   0  0  0  0  0  0  0  0  0  0  0  0
   15.0968  -13.6349  -16.9918 C   0  0  0  0  0  0  0  0  0  0  0  0
   15.6773  -12.5948  -16.3534 N   0  0  0  0  0  0  0  0  0  0  0  0
   19.2261   -9.8290  -15.5728 C   0  0  0  0  0  0  0  0  0  0  0  0
   18.7935   -9.3069  -14.5105 O   0  0  0  0  0  0  0  0  0  0  0  0
   22.8243  -10.6118  -13.3217 C   0  0  0  0  0  0  0  0  0  0  0  0
   23.1095  -10.2346  -14.7507 C   0  0  2  0  0  0  0  0  0  0  0  0
   24.6303  -10.3722  -14.9441 C   0  0  0  0  0  0  0  0  0  0  0  0
   22.7709   -8.8457  -15.1312 C   0  0  0  0  0  0  0  0  0  0  0  0
   21.3356   -8.4868  -15.2669 C   0  0  2  0  0  0  0  0  0  0  0  0
   20.5169   -9.3752  -16.0239 N   0  0  0  0  0  0  0  0  0  0  0  0
   21.1960   -7.0681  -15.6857 C   0  0  0  0  0  0  0  0  0  0  0  0
   20.5805   -6.8364  -16.7517 O   0  0  0  0  0  0  0  0  0  0  0  0
   21.6935   -5.9834  -14.9888 O   0  0  0  0  0  0  0  0  0  0  0  0
  2  1  1  6
  2  3  1  0
  4  2  1  0
  4  5  2  0
  6  4  1  0
  7  6  1  0
  7 14  1  0
  7  8  1  1
  9 10  2  0
  9  8  1  0
 11 10  1  0
 12 13  2  0
 12 11  1  0
 13  9  1  0
 14 15  2  0
 17 18  1  1
 17 16  1  0
 19 17  1  0
 20 19  1  6
 21 14  1  0
 21 20  1  0
 22 24  1  0
 22 20  1  0
 23 22  2  0
M  END
$$$$
