AHL.pdb
     RDKit          3D

 24 24  0  0  1  0  0  0  0  0999 V2000
   28.4570  -17.9553  -16.8450 C   0  0  0  0  0  0  0  0  0  0  0  0
   27.2454  -18.2745  -17.6948 C   0  0  2  0  0  0  0  0  0  0  0  0
   27.2457  -17.3737  -18.8331 N   0  0  0  0  0  0  0  0  0  0  0  0
   26.0071  -18.0657  -16.8485 C   0  0  0  0  0  0  0  0  0  0  0  0
   25.8684  -16.9088  -16.3996 O   0  0  0  0  0  0  0  0  0  0  0  0
   25.1070  -19.1268  -16.6120 N   0  0  0  0  0  0  0  0  0  0  0  0
   23.9420  -19.0955  -15.8153 C   0  0  1  0  0  0  0  0  0  0  0  0
   22.6410  -19.0862  -16.6131 C   0  0  0  0  0  0  0  0  0  0  0  0
   22.5092  -17.8790  -17.4531 C   0  0  0  0  0  0  0  0  0  0  0  0
   22.8573  -17.7906  -18.8127 C   0  0  0  0  0  0  0  0  0  0  0  0
   22.5840  -16.5322  -19.1943 N   0  0  0  0  0  0  0  0  0  0  0  0
   22.0892  -15.8237  -18.1723 C   0  0  0  0  0  0  0  0  0  0  0  0
   22.0610  -16.6843  -17.1308 N   0  0  0  0  0  0  0  0  0  0  0  0
   23.9573  -20.0932  -14.7377 C   0  0  0  0  0  0  0  0  0  0  0  0
   24.8214  -21.0106  -14.7253 O   0  0  0  0  0  0  0  0  0  0  0  0
   23.6867  -20.9781   -9.3499 C   0  0  0  0  0  0  0  0  0  0  0  0
   24.7177  -21.2286  -10.4176 C   0  0  2  0  0  0  0  0  0  0  0  0
   26.0524  -20.6902   -9.8718 C   0  0  0  0  0  0  0  0  0  0  0  0
   24.4924  -20.5383  -11.7066 C   0  0  0  0  0  0  0  0  0  0  0  0
   23.2280  -20.8131  -12.4366 C   0  0  2  0  0  0  0  0  0  0  0  0
   23.0135  -20.0948  -13.6492 N   0  0  0  0  0  0  0  0  0  0  0  0
   22.0706  -20.7444  -11.5075 C   0  0  0  0  0  0  0  0  0  0  0  0
   21.6354  -19.6091  -11.2067 O   0  0  0  0  0  0  0  0  0  0  0  0
   21.4367  -21.8380  -10.9489 O   0  0  0  0  0  0  0  0  0  0  0  0
  2  1  1  1
  2  3  1  0
  4  2  1  0
  4  5  2  0
  6  4  1  0
  7  6  1  0
  7 14  1  0
  7  8  1  6
  9 10  2  0
  9  8  1  0
 11 10  1  0
 12 13  2  0
 12 11  1  0
 13  9  1  0
 14 15  2  0
 17 18  1  1
 17 16  1  0
 19 17  1  0
 20 19  1  1
 21 14  1  0
 21 20  1  0
 22 24  1  0
 22 20  1  0
 23 22  2  0
M  END
$$$$
