AHL.pdb
     RDKit          3D

 24 24  0  0  1  0  0  0  0  0999 V2000
   34.4329  -38.3022   -7.1900 C   0  0  0  0  0  0  0  0  0  0  0  0
   33.7084  -37.3017   -8.0653 C   0  0  2  0  0  0  0  0  0  0  0  0
   34.6875  -36.3583   -8.5736 N   0  0  0  0  0  0  0  0  0  0  0  0
   32.6745  -36.5930   -7.2156 C   0  0  0  0  0  0  0  0  0  0  0  0
   33.1437  -35.8044   -6.3689 O   0  0  0  0  0  0  0  0  0  0  0  0
   31.2968  -36.8368   -7.4020 N   0  0  0  0  0  0  0  0  0  0  0  0
   30.2229  -36.2343   -6.7118 C   0  0  1  0  0  0  0  0  0  0  0  0
   28.8788  -36.3518   -7.4250 C   0  0  0  0  0  0  0  0  0  0  0  0
   28.3032  -35.0322   -7.7533 C   0  0  0  0  0  0  0  0  0  0  0  0
   28.8646  -33.7899   -7.4082 C   0  0  0  0  0  0  0  0  0  0  0  0
   28.0348  -32.8505   -7.8906 N   0  0  0  0  0  0  0  0  0  0  0  0
   26.9925  -33.4131   -8.5139 C   0  0  0  0  0  0  0  0  0  0  0  0
   27.1971  -34.7445   -8.4058 N   0  0  0  0  0  0  0  0  0  0  0  0
   30.1658  -36.6160   -5.2947 C   0  0  0  0  0  0  0  0  0  0  0  0
   30.0398  -37.8247   -4.9608 O   0  0  0  0  0  0  0  0  0  0  0  0
   31.5827  -35.1751    0.5160 C   0  0  0  0  0  0  0  0  0  0  0  0
   30.4421  -35.5317   -0.3992 C   0  0  2  0  0  0  0  0  0  0  0  0
   30.3349  -37.0671   -0.3868 C   0  0  0  0  0  0  0  0  0  0  0  0
   30.6068  -35.1427   -1.8170 C   0  0  0  0  0  0  0  0  0  0  0  0
   29.9917  -36.0078   -2.8566 C   0  0  2  0  0  0  0  0  0  0  0  0
   30.2473  -35.6642   -4.2164 N   0  0  0  0  0  0  0  0  0  0  0  0
   28.5482  -36.2118   -2.5698 C   0  0  0  0  0  0  0  0  0  0  0  0
   28.2455  -36.7833   -1.4971 O   0  0  0  0  0  0  0  0  0  0  0  0
   27.5127  -35.8191   -3.3964 O   0  0  0  0  0  0  0  0  0  0  0  0
  2  1  1  1
  2  3  1  0
  4  2  1  0
  4  5  2  0
  6  4  1  0
  7  6  1  0
  7 14  1  0
  7  8  1  6
  9 10  2  0
  9  8  1  0
 11 10  1  0
 12 13  2  0
 12 11  1  0
 13  9  1  0
 14 15  2  0
 17 18  1  6
 17 16  1  0
 19 17  1  0
 20 19  1  1
 21 14  1  0
 21 20  1  0
 22 24  1  0
 22 20  1  0
 23 22  2  0
M  END
$$$$
