AHL.pdb
     RDKit          3D

 24 24  0  0  1  0  0  0  0  0999 V2000
   19.8983  -10.6207  -20.7242 C   0  0  0  0  0  0  0  0  0  0  0  0
   20.8811  -10.1089  -19.6926 C   0  0  2  0  0  0  0  0  0  0  0  0
   21.9342  -11.0973  -19.5469 N   0  0  0  0  0  0  0  0  0  0  0  0
   20.1390   -9.9220  -18.3859 C   0  0  0  0  0  0  0  0  0  0  0  0
   19.2119   -9.0866  -18.4249 O   0  0  0  0  0  0  0  0  0  0  0  0
   20.5027  -10.6577  -17.2375 N   0  0  0  0  0  0  0  0  0  0  0  0
   19.9309  -10.5671  -15.9500 C   0  0  1  0  0  0  0  0  0  0  0  0
   19.8637  -11.8959  -15.2026 C   0  0  0  0  0  0  0  0  0  0  0  0
   18.8834  -12.8244  -15.8004 C   0  0  0  0  0  0  0  0  0  0  0  0
   18.0228  -12.5221  -16.8707 C   0  0  0  0  0  0  0  0  0  0  0  0
   17.3010  -13.6306  -17.1031 N   0  0  0  0  0  0  0  0  0  0  0  0
   17.6461  -14.6076  -16.2558 C   0  0  0  0  0  0  0  0  0  0  0  0
   18.6141  -14.0720  -15.4797 N   0  0  0  0  0  0  0  0  0  0  0  0
   20.4964   -9.4750  -15.1471 C   0  0  0  0  0  0  0  0  0  0  0  0
   21.7092   -9.1535  -15.2654 O   0  0  0  0  0  0  0  0  0  0  0  0
   21.0052   -4.0122  -15.2513 C   0  0  0  0  0  0  0  0  0  0  0  0
   21.0245   -5.1161  -14.2283 C   0  0  2  0  0  0  0  0  0  0  0  0
   22.4891   -5.2727  -13.7814 C   0  0  0  0  0  0  0  0  0  0  0  0
   20.5968   -6.4484  -14.7086 C   0  0  0  0  0  0  0  0  0  0  0  0
   20.1403   -7.4421  -13.7029 C   0  0  2  0  0  0  0  0  0  0  0  0
   19.7278   -8.7152  -14.1944 N   0  0  0  0  0  0  0  0  0  0  0  0
   19.1509   -6.8262  -12.7814 C   0  0  0  0  0  0  0  0  0  0  0  0
   19.4550   -5.7329  -12.2512 O   0  0  0  0  0  0  0  0  0  0  0  0
   17.9196   -7.3673  -12.4638 O   0  0  0  0  0  0  0  0  0  0  0  0
  2  1  1  6
  2  3  1  0
  4  2  1  0
  4  5  2  0
  6  4  1  0
  7  6  1  0
  7 14  1  0
  7  8  1  1
  9 10  2  0
  9  8  1  0
 11 10  1  0
 12 13  2  0
 12 11  1  0
 13  9  1  0
 14 15  2  0
 17 18  1  6
 17 16  1  0
 19 17  1  0
 20 19  1  6
 21 14  1  0
 21 20  1  0
 22 24  1  0
 22 20  1  0
 23 22  2  0
M  END
$$$$
