AHL.pdb
     RDKit          3D

 24 24  0  0  1  0  0  0  0  0999 V2000
   25.4921  -10.5579  -15.3260 C   0  0  0  0  0  0  0  0  0  0  0  0
   24.3762  -11.3836  -15.9301 C   0  0  2  0  0  0  0  0  0  0  0  0
   24.8450  -11.9125  -17.1980 N   0  0  0  0  0  0  0  0  0  0  0  0
   23.1794  -10.4794  -16.1380 C   0  0  0  0  0  0  0  0  0  0  0  0
   23.2632   -9.7180  -17.1240 O   0  0  0  0  0  0  0  0  0  0  0  0
   22.0763  -10.5283  -15.2588 N   0  0  0  0  0  0  0  0  0  0  0  0
   20.8928   -9.7622  -15.3319 C   0  0  1  0  0  0  0  0  0  0  0  0
   19.6525  -10.4791  -14.8056 C   0  0  0  0  0  0  0  0  0  0  0  0
   19.2347  -11.5905  -15.6833 C   0  0  0  0  0  0  0  0  0  0  0  0
   19.8466  -11.9421  -16.8997 C   0  0  0  0  0  0  0  0  0  0  0  0
   19.1666  -12.9976  -17.3764 N   0  0  0  0  0  0  0  0  0  0  0  0
   18.1716  -13.3345  -16.5471 C   0  0  0  0  0  0  0  0  0  0  0  0
   18.2504  -12.4501  -15.5284 N   0  0  0  0  0  0  0  0  0  0  0  0
   21.0538   -8.4054  -14.7934 C   0  0  0  0  0  0  0  0  0  0  0  0
   22.0306   -8.1226  -14.0488 O   0  0  0  0  0  0  0  0  0  0  0  0
   23.1943   -3.5025  -16.0448 C   0  0  0  0  0  0  0  0  0  0  0  0
   22.0650   -4.0318  -15.2020 C   0  0  2  0  0  0  0  0  0  0  0  0
   22.5104   -3.8909  -13.7354 C   0  0  0  0  0  0  0  0  0  0  0  0
   21.7309   -5.4601  -15.3945 C   0  0  0  0  0  0  0  0  0  0  0  0
   20.4482   -5.9607  -14.8364 C   0  0  2  0  0  0  0  0  0  0  0  0
   20.1340   -7.3316  -15.0697 N   0  0  0  0  0  0  0  0  0  0  0  0
   19.3370   -5.0407  -15.1921 C   0  0  0  0  0  0  0  0  0  0  0  0
   18.9796   -4.2036  -14.3315 O   0  0  0  0  0  0  0  0  0  0  0  0
   18.6667   -5.0376  -16.4005 O   0  0  0  0  0  0  0  0  0  0  0  0
  2  1  1  6
  2  3  1  0
  4  2  1  0
  4  5  2  0
  6  4  1  0
  7  6  1  0
  7 14  1  0
  7  8  1  1
  9 10  2  0
  9  8  1  0
 11 10  1  0
 12 13  2  0
 12 11  1  0
 13  9  1  0
 14 15  2  0
 17 18  1  1
 17 16  1  0
 19 17  1  0
 20 19  1  6
 21 14  1  0
 21 20  1  0
 22 24  1  0
 22 20  1  0
 23 22  2  0
M  END
$$$$
