AHL.pdb
     RDKit          3D

 24 24  0  0  1  0  0  0  0  0999 V2000
   22.3642   -9.0140  -20.2557 C   0  0  0  0  0  0  0  0  0  0  0  0
   21.5560  -10.0412  -19.4918 C   0  0  2  0  0  0  0  0  0  0  0  0
   20.5595  -10.5894  -20.3938 N   0  0  0  0  0  0  0  0  0  0  0  0
   20.8927   -9.3448  -18.3222 C   0  0  0  0  0  0  0  0  0  0  0  0
   20.0772   -8.4533  -18.6372 O   0  0  0  0  0  0  0  0  0  0  0  0
   21.2034   -9.7090  -16.9944 N   0  0  0  0  0  0  0  0  0  0  0  0
   20.7524   -9.0854  -15.8110 C   0  0  1  0  0  0  0  0  0  0  0  0
   20.2856  -10.0587  -14.7322 C   0  0  0  0  0  0  0  0  0  0  0  0
   18.9827  -10.6720  -15.0586 C   0  0  0  0  0  0  0  0  0  0  0  0
   18.1510  -10.2967  -16.1287 C   0  0  0  0  0  0  0  0  0  0  0  0
   17.0730  -11.0957  -16.0708 N   0  0  0  0  0  0  0  0  0  0  0  0
   17.1675  -11.9459  -15.0415 C   0  0  0  0  0  0  0  0  0  0  0  0
   18.3475  -11.6520  -14.4520 N   0  0  0  0  0  0  0  0  0  0  0  0
   21.6815   -8.0637  -15.3113 C   0  0  0  0  0  0  0  0  0  0  0  0
   22.9104   -8.3171  -15.1932 O   0  0  0  0  0  0  0  0  0  0  0  0
   22.9835   -4.4501  -18.1678 C   0  0  0  0  0  0  0  0  0  0  0  0
   22.1537   -4.7554  -16.9496 C   0  0  2  0  0  0  0  0  0  0  0  0
   21.3253   -3.4916  -16.6567 C   0  0  0  0  0  0  0  0  0  0  0  0
   22.9088   -5.0478  -15.7114 C   0  0  0  0  0  0  0  0  0  0  0  0
   22.1882   -5.7040  -14.5901 C   0  0  2  0  0  0  0  0  0  0  0  0
   21.2671   -6.7372  -14.9314 N   0  0  0  0  0  0  0  0  0  0  0  0
   21.6053   -4.6816  -13.6831 C   0  0  0  0  0  0  0  0  0  0  0  0
   20.3872   -4.7782  -13.4075 O   0  0  0  0  0  0  0  0  0  0  0  0
   22.3044   -3.6312  -13.1195 O   0  0  0  0  0  0  0  0  0  0  0  0
  2  1  1  6
  2  3  1  0
  4  2  1  0
  4  5  2  0
  6  4  1  0
  7  6  1  0
  7 14  1  0
  7  8  1  1
  9 10  2  0
  9  8  1  0
 11 10  1  0
 12 13  2  0
 12 11  1  0
 13  9  1  0
 14 15  2  0
 17 18  1  1
 17 16  1  0
 19 17  1  0
 20 19  1  6
 21 14  1  0
 21 20  1  0
 22 24  1  0
 22 20  1  0
 23 22  2  0
M  END
$$$$
