AHL.pdb
     RDKit          3D

 24 24  0  0  1  0  0  0  0  0999 V2000
   18.8632  -15.5842  -18.7128 C   0  0  0  0  0  0  0  0  0  0  0  0
   19.5446  -14.9396  -17.5245 C   0  0  2  0  0  0  0  0  0  0  0  0
   18.5493  -14.7493  -16.4851 N   0  0  0  0  0  0  0  0  0  0  0  0
   20.1123  -13.6086  -17.9709 C   0  0  0  0  0  0  0  0  0  0  0  0
   21.0330  -13.6870  -18.8107 O   0  0  0  0  0  0  0  0  0  0  0  0
   19.6080  -12.3975  -17.4504 N   0  0  0  0  0  0  0  0  0  0  0  0
   20.0648  -11.0919  -17.7324 C   0  0  1  0  0  0  0  0  0  0  0  0
   19.0415  -10.2141  -18.4475 C   0  0  0  0  0  0  0  0  0  0  0  0
   18.8027  -10.6527  -19.8371 C   0  0  0  0  0  0  0  0  0  0  0  0
   19.7064  -10.5053  -20.9045 C   0  0  0  0  0  0  0  0  0  0  0  0
   19.1070  -11.0305  -21.9855 N   0  0  0  0  0  0  0  0  0  0  0  0
   17.8918  -11.4973  -21.6742 C   0  0  0  0  0  0  0  0  0  0  0  0
   17.7480  -11.2459  -20.3542 N   0  0  0  0  0  0  0  0  0  0  0  0
   20.6840  -10.4379  -16.5724 C   0  0  0  0  0  0  0  0  0  0  0  0
   20.1006  -10.4271  -15.4553 O   0  0  0  0  0  0  0  0  0  0  0  0
   24.4005  -11.1418  -13.8591 C   0  0  0  0  0  0  0  0  0  0  0  0
   24.6330  -10.4754  -15.1887 C   0  0  2  0  0  0  0  0  0  0  0  0
   26.1510  -10.2490  -15.3049 C   0  0  0  0  0  0  0  0  0  0  0  0
   24.0049   -9.1474  -15.3632 C   0  0  0  0  0  0  0  0  0  0  0  0
   22.5284   -9.0857  -15.5167 C   0  0  2  0  0  0  0  0  0  0  0  0
   21.9651   -9.7811  -16.6264 N   0  0  0  0  0  0  0  0  0  0  0  0
   22.0572   -7.6806  -15.4110 C   0  0  0  0  0  0  0  0  0  0  0  0
   21.6710   -7.1182  -16.4615 O   0  0  0  0  0  0  0  0  0  0  0  0
   22.0121   -6.9456  -14.2417 O   0  0  0  0  0  0  0  0  0  0  0  0
  2  1  1  6
  2  3  1  0
  4  2  1  0
  4  5  2  0
  6  4  1  0
  7  6  1  0
  7 14  1  0
  7  8  1  1
  9 10  2  0
  9  8  1  0
 11 10  1  0
 12 13  2  0
 12 11  1  0
 13  9  1  0
 14 15  2  0
 17 18  1  1
 17 16  1  0
 19 17  1  0
 20 19  1  6
 21 14  1  0
 21 20  1  0
 22 24  1  0
 22 20  1  0
 23 22  2  0
M  END
$$$$
