AHL.pdb
     RDKit          3D

 24 24  0  0  1  0  0  0  0  0999 V2000
   19.4277  -15.7504  -19.7568 C   0  0  0  0  0  0  0  0  0  0  0  0
   20.1564  -15.2772  -18.5170 C   0  0  2  0  0  0  0  0  0  0  0  0
   19.5645  -15.9387  -17.3685 N   0  0  0  0  0  0  0  0  0  0  0  0
   19.9877  -13.7758  -18.4147 C   0  0  0  0  0  0  0  0  0  0  0  0
   19.8957  -13.1832  -19.5098 O   0  0  0  0  0  0  0  0  0  0  0  0
   19.9433  -13.1385  -17.1561 N   0  0  0  0  0  0  0  0  0  0  0  0
   19.8645  -11.7516  -16.9046 C   0  0  1  0  0  0  0  0  0  0  0  0
   18.4603  -11.1709  -17.0463 C   0  0  0  0  0  0  0  0  0  0  0  0
   17.4187  -12.1062  -16.5764 C   0  0  0  0  0  0  0  0  0  0  0  0
   17.6518  -13.3967  -16.0685 C   0  0  0  0  0  0  0  0  0  0  0  0
   16.4485  -13.9067  -15.7592 N   0  0  0  0  0  0  0  0  0  0  0  0
   15.4762  -13.0297  -16.0362 C   0  0  0  0  0  0  0  0  0  0  0  0
   16.1132  -11.9461  -16.5325 N   0  0  0  0  0  0  0  0  0  0  0  0
   20.5358  -11.3555  -15.6599 C   0  0  0  0  0  0  0  0  0  0  0  0
   20.7371  -12.1974  -14.7439 O   0  0  0  0  0  0  0  0  0  0  0  0
   25.2007  -10.1339  -14.1717 C   0  0  0  0  0  0  0  0  0  0  0  0
   24.8184  -10.0085  -15.6222 C   0  0  2  0  0  0  0  0  0  0  0  0
   25.0505   -8.5371  -16.0100 C   0  0  0  0  0  0  0  0  0  0  0  0
   23.4042  -10.3001  -15.9441 C   0  0  0  0  0  0  0  0  0  0  0  0
   22.3524   -9.7113  -15.0755 C   0  0  2  0  0  0  0  0  0  0  0  0
   20.9989  -10.0155  -15.4041 N   0  0  0  0  0  0  0  0  0  0  0  0
   22.5926   -8.2571  -14.8883 C   0  0  0  0  0  0  0  0  0  0  0  0
   22.3046   -7.4948  -15.8396 O   0  0  0  0  0  0  0  0  0  0  0  0
   23.1099   -7.6801  -13.7441 O   0  0  0  0  0  0  0  0  0  0  0  0
  2  1  1  6
  2  3  1  0
  4  2  1  0
  4  5  2  0
  6  4  1  0
  7  6  1  0
  7 14  1  0
  7  8  1  1
  9 10  2  0
  9  8  1  0
 11 10  1  0
 12 13  2  0
 12 11  1  0
 13  9  1  0
 14 15  2  0
 17 18  1  1
 17 16  1  0
 19 17  1  0
 20 19  1  6
 21 14  1  0
 21 20  1  0
 22 24  1  0
 22 20  1  0
 23 22  2  0
M  END
$$$$
