AHL.pdb
     RDKit          3D

 24 24  0  0  1  0  0  0  0  0999 V2000
   17.2618  -28.9808    7.0173 C   0  0  0  0  0  0  0  0  0  0  0  0
   16.4700  -28.7688    5.7445 C   0  0  2  0  0  0  0  0  0  0  0  0
   17.1014  -29.5402    4.6893 N   0  0  0  0  0  0  0  0  0  0  0  0
   16.4945  -27.2912    5.4141 C   0  0  0  0  0  0  0  0  0  0  0  0
   17.1834  -26.9886    4.4177 O   0  0  0  0  0  0  0  0  0  0  0  0
   15.7781  -26.3636    6.2006 N   0  0  0  0  0  0  0  0  0  0  0  0
   15.6299  -24.9798    5.9643 C   0  0  1  0  0  0  0  0  0  0  0  0
   14.3681  -24.3747    6.5733 C   0  0  0  0  0  0  0  0  0  0  0  0
   13.2237  -24.4133    5.6409 C   0  0  0  0  0  0  0  0  0  0  0  0
   13.2685  -24.8802    4.3152 C   0  0  0  0  0  0  0  0  0  0  0  0
   12.0269  -24.7436    3.8218 N   0  0  0  0  0  0  0  0  0  0  0  0
   11.2053  -24.2245    4.7420 C   0  0  0  0  0  0  0  0  0  0  0  0
   11.9772  -24.0389    5.8356 N   0  0  0  0  0  0  0  0  0  0  0  0
   16.8465  -24.2134    6.2638 C   0  0  0  0  0  0  0  0  0  0  0  0
   17.6204  -24.5752    7.1905 O   0  0  0  0  0  0  0  0  0  0  0  0
   20.9101  -24.3037    6.2155 C   0  0  0  0  0  0  0  0  0  0  0  0
   20.1979  -23.9412    4.9400 C   0  0  2  0  0  0  0  0  0  0  0  0
   21.2590  -23.9630    3.8251 C   0  0  0  0  0  0  0  0  0  0  0  0
   19.5893  -22.5933    4.9016 C   0  0  0  0  0  0  0  0  0  0  0  0
   18.4398  -22.3180    5.8017 C   0  0  2  0  0  0  0  0  0  0  0  0
   17.2313  -23.0281    5.5411 N   0  0  0  0  0  0  0  0  0  0  0  0
   18.2346  -20.8532    5.9430 C   0  0  0  0  0  0  0  0  0  0  0  0
   17.3006  -20.3332    5.2903 O   0  0  0  0  0  0  0  0  0  0  0  0
   18.9959  -20.0196    6.7400 O   0  0  0  0  0  0  0  0  0  0  0  0
  2  1  1  1
  2  3  1  0
  4  2  1  0
  4  5  2  0
  6  4  1  0
  7  6  1  0
  7 14  1  0
  7  8  1  1
  9 10  2  0
  9  8  1  0
 11 10  1  0
 12 13  2  0
 12 11  1  0
 13  9  1  0
 14 15  2  0
 17 18  1  6
 17 16  1  0
 19 17  1  0
 20 19  1  6
 21 14  1  0
 21 20  1  0
 22 24  1  0
 22 20  1  0
 23 22  2  0
M  END
$$$$
