AHL.pdb
     RDKit          3D

 24 24  0  0  1  0  0  0  0  0999 V2000
   21.9127  -20.1568  -12.6545 C   0  0  0  0  0  0  0  0  0  0  0  0
   21.5949  -19.2121  -13.7940 C   0  0  2  0  0  0  0  0  0  0  0  0
   20.5059  -19.7866  -14.5629 N   0  0  0  0  0  0  0  0  0  0  0  0
   22.8364  -19.0701  -14.6494 C   0  0  0  0  0  0  0  0  0  0  0  0
   23.2018  -20.1188  -15.2202 O   0  0  0  0  0  0  0  0  0  0  0  0
   23.4966  -17.8279  -14.7631 N   0  0  0  0  0  0  0  0  0  0  0  0
   24.7290  -17.5722  -15.4023 C   0  0  1  0  0  0  0  0  0  0  0  0
   24.9215  -16.1191  -15.8273 C   0  0  0  0  0  0  0  0  0  0  0  0
   23.7062  -15.5518  -16.4450 C   0  0  0  0  0  0  0  0  0  0  0  0
   22.5416  -16.2729  -16.7633 C   0  0  0  0  0  0  0  0  0  0  0  0
   21.6842  -15.3915  -17.3034 N   0  0  0  0  0  0  0  0  0  0  0  0
   22.2262  -14.1685  -17.3473 C   0  0  0  0  0  0  0  0  0  0  0  0
   23.4594  -14.3128  -16.8137 N   0  0  0  0  0  0  0  0  0  0  0  0
   25.8785  -18.1230  -14.6728 C   0  0  0  0  0  0  0  0  0  0  0  0
   26.4256  -17.4652  -13.7473 O   0  0  0  0  0  0  0  0  0  0  0  0
   25.1368  -21.4407  -12.7145 C   0  0  0  0  0  0  0  0  0  0  0  0
   26.5089  -21.2065  -12.1416 C   0  0  2  0  0  0  0  0  0  0  0  0
   26.3130  -20.9122  -10.6435 C   0  0  0  0  0  0  0  0  0  0  0  0
   27.2499  -20.0512  -12.6938 C   0  0  0  0  0  0  0  0  0  0  0  0
   27.4769  -20.0014  -14.1612 C   0  0  2  0  0  0  0  0  0  0  0  0
   26.4466  -19.4166  -14.9543 N   0  0  0  0  0  0  0  0  0  0  0  0
   27.9117  -21.3312  -14.6613 C   0  0  0  0  0  0  0  0  0  0  0  0
   28.9438  -21.8308  -14.1573 O   0  0  0  0  0  0  0  0  0  0  0  0
   27.2644  -22.0600  -15.6408 O   0  0  0  0  0  0  0  0  0  0  0  0
  2  1  1  1
  2  3  1  0
  4  2  1  0
  4  5  2  0
  6  4  1  0
  7  6  1  0
  7 14  1  0
  7  8  1  1
  9 10  2  0
  9  8  1  0
 11 10  1  0
 12 13  2  0
 12 11  1  0
 13  9  1  0
 14 15  2  0
 17 18  1  1
 17 16  1  0
 19 17  1  0
 20 19  1  1
 21 14  1  0
 21 20  1  0
 22 24  1  0
 22 20  1  0
 23 22  2  0
M  END
$$$$
