KDV.pdb
     RDKit          3D

 25 24  0  0  1  0  0  0  0  0999 V2000
   28.0029  -20.2993  -17.6735 N   0  0  0  0  0  0  0  0  0  0  0  0
   28.2432  -19.0773  -16.8919 C   0  0  1  0  0  0  0  0  0  0  0  0
   28.7872  -17.9443  -17.6728 C   0  0  0  0  0  0  0  0  0  0  0  0
   29.7312  -18.2435  -18.7668 C   0  0  0  0  0  0  0  0  0  0  0  0
   29.2595  -19.0389  -19.9193 C   0  0  0  0  0  0  0  0  0  0  0  0
   30.2527  -19.3634  -20.9836 C   0  0  0  0  0  0  0  0  0  0  0  0
   30.3300  -18.1640  -21.8445 N   0  0  0  0  0  0  0  0  0  0  0  0
   26.9754  -18.7464  -16.1728 C   0  0  0  0  0  0  0  0  0  0  0  0
   26.8071  -17.7696  -15.4315 O   0  0  0  0  0  0  0  0  0  0  0  0
   25.8379  -19.6261  -16.3419 N   0  0  0  0  0  0  0  0  0  0  0  0
   24.6114  -19.3856  -15.6166 C   0  0  1  0  0  0  0  0  0  0  0  0
   23.4696  -19.0295  -16.4883 C   0  0  0  0  0  0  0  0  0  0  0  0
   22.3530  -18.3861  -15.7468 C   0  0  0  0  0  0  0  0  0  0  0  0
   22.2992  -18.5487  -14.5045 O   0  0  0  0  0  0  0  0  0  0  0  0
   24.3315  -20.4783  -14.6390 C   0  0  0  0  0  0  0  0  0  0  0  0
   23.9489  -21.5851  -15.0876 O   0  0  0  0  0  0  0  0  0  0  0  0
   21.3718  -17.6193  -16.3489 O   0  0  0  0  0  0  0  0  0  0  0  0
   26.5069  -21.7645  -11.8355 C   0  0  0  0  0  0  0  0  0  0  0  0
   25.1975  -21.4171  -11.1790 C   0  0  1  0  0  0  0  0  0  0  0  0
   25.3717  -20.2189  -10.3093 C   0  0  0  0  0  0  0  0  0  0  0  0
   24.1032  -21.2349  -12.2178 C   0  0  2  0  0  0  0  0  0  0  0  0
   24.4773  -20.3380  -13.2567 N   0  0  0  0  0  0  0  0  0  0  0  0
   22.7899  -21.0143  -11.5949 C   0  0  0  0  0  0  0  0  0  0  0  0
   22.1492  -19.9622  -11.7469 O   0  0  0  0  0  0  0  0  0  0  0  0
   22.2544  -22.0152  -10.8107 O   0  0  0  0  0  0  0  0  0  0  0  0
  2  8  1  0
  2  1  1  6
  3  2  1  0
  4  3  1  0
  5  4  1  0
  6  5  1  0
  7  6  1  0
  8  9  2  0
 10 11  1  0
 10  8  1  0
 11 12  1  6
 12 13  1  0
 13 14  2  0
 15 11  1  0
 16 15  2  0
 17 13  1  0
 19 18  1  6
 19 21  1  0
 20 19  1  0
 21 23  1  0
 21 22  1  6
 22 15  1  0
 23 25  1  0
 24 23  2  0
M  END
$$$$
