KDV.pdb
     RDKit          3D

 25 24  0  0  1  0  0  0  0  0999 V2000
   18.1051  -13.6834  -18.3860 N   0  0  0  0  0  0  0  0  0  0  0  0
   17.4241  -12.4897  -17.8635 C   0  0  1  0  0  0  0  0  0  0  0  0
   16.6287  -12.7220  -16.6375 C   0  0  0  0  0  0  0  0  0  0  0  0
   15.6237  -13.8022  -16.6551 C   0  0  0  0  0  0  0  0  0  0  0  0
   14.7636  -13.9964  -15.4694 C   0  0  0  0  0  0  0  0  0  0  0  0
   13.8093  -15.1425  -15.4923 C   0  0  0  0  0  0  0  0  0  0  0  0
   13.1155  -15.1177  -14.1870 N   0  0  0  0  0  0  0  0  0  0  0  0
   18.4529  -11.4168  -17.7075 C   0  0  0  0  0  0  0  0  0  0  0  0
   19.6195  -11.5927  -17.3330 O   0  0  0  0  0  0  0  0  0  0  0  0
   18.0771  -10.0524  -18.0136 N   0  0  0  0  0  0  0  0  0  0  0  0
   19.0589   -8.9933  -17.9643 C   0  0  1  0  0  0  0  0  0  0  0  0
   18.6978   -7.8145  -18.7831 C   0  0  0  0  0  0  0  0  0  0  0  0
   18.4413   -8.1550  -20.2076 C   0  0  0  0  0  0  0  0  0  0  0  0
   19.3481   -8.7400  -20.8464 O   0  0  0  0  0  0  0  0  0  0  0  0
   19.4529   -8.6785  -16.5594 C   0  0  0  0  0  0  0  0  0  0  0  0
   18.5400   -8.4936  -15.7198 O   0  0  0  0  0  0  0  0  0  0  0  0
   17.2608   -7.8635  -20.8668 O   0  0  0  0  0  0  0  0  0  0  0  0
   21.8821  -10.6626  -14.3651 C   0  0  0  0  0  0  0  0  0  0  0  0
   22.3855   -9.2444  -14.4018 C   0  0  1  0  0  0  0  0  0  0  0  0
   23.5927   -9.1603  -15.2724 C   0  0  0  0  0  0  0  0  0  0  0  0
   21.2835   -8.2902  -14.8317 C   0  0  2  0  0  0  0  0  0  0  0  0
   20.7786   -8.5844  -16.1287 N   0  0  0  0  0  0  0  0  0  0  0  0
   21.6382   -6.8892  -14.5624 C   0  0  0  0  0  0  0  0  0  0  0  0
   21.8641   -6.4678  -13.4170 O   0  0  0  0  0  0  0  0  0  0  0  0
   21.7194   -6.0126  -15.6248 O   0  0  0  0  0  0  0  0  0  0  0  0
  2  8  1  0
  2  1  1  1
  3  2  1  0
  4  3  1  0
  5  4  1  0
  6  5  1  0
  7  6  1  0
  8  9  2  0
 10 11  1  0
 10  8  1  0
 11 12  1  1
 12 13  1  0
 13 14  2  0
 15 11  1  0
 16 15  2  0
 17 13  1  0
 19 18  1  6
 19 21  1  0
 20 19  1  0
 21 23  1  0
 21 22  1  6
 22 15  1  0
 23 25  1  0
 24 23  2  0
M  END
$$$$
