KDV.pdb
     RDKit          3D

 25 24  0  0  1  0  0  0  0  0999 V2000
   28.6036  -22.0228  -15.0089 N   0  0  0  0  0  0  0  0  0  0  0  0
   28.3079  -21.5709  -16.3765 C   0  0  1  0  0  0  0  0  0  0  0  0
   29.1895  -22.1434  -17.4180 C   0  0  0  0  0  0  0  0  0  0  0  0
   29.8950  -23.4037  -17.1159 C   0  0  0  0  0  0  0  0  0  0  0  0
   30.8903  -23.9139  -18.0815 C   0  0  0  0  0  0  0  0  0  0  0  0
   31.6822  -25.1136  -17.6837 C   0  0  0  0  0  0  0  0  0  0  0  0
   32.6168  -25.3702  -18.8002 N   0  0  0  0  0  0  0  0  0  0  0  0
   26.8556  -21.8187  -16.6282 C   0  0  0  0  0  0  0  0  0  0  0  0
   26.3985  -22.6591  -17.4137 O   0  0  0  0  0  0  0  0  0  0  0  0
   25.8857  -21.0225  -15.9058 N   0  0  0  0  0  0  0  0  0  0  0  0
   24.4717  -21.2855  -16.0458 C   0  0  1  0  0  0  0  0  0  0  0  0
   24.1052  -22.6965  -15.7903 C   0  0  0  0  0  0  0  0  0  0  0  0
   22.6377  -22.9314  -15.8359 C   0  0  0  0  0  0  0  0  0  0  0  0
   22.0667  -23.3008  -14.7822 O   0  0  0  0  0  0  0  0  0  0  0  0
   23.6533  -20.2848  -15.2997 C   0  0  0  0  0  0  0  0  0  0  0  0
   23.8898  -20.1242  -14.0787 O   0  0  0  0  0  0  0  0  0  0  0  0
   21.8679  -22.7657  -16.9731 O   0  0  0  0  0  0  0  0  0  0  0  0
   23.0200  -16.6441  -16.2589 C   0  0  0  0  0  0  0  0  0  0  0  0
   21.6664  -17.2788  -16.0831 C   0  0  1  0  0  0  0  0  0  0  0  0
   21.0259  -17.4777  -17.4145 C   0  0  0  0  0  0  0  0  0  0  0  0
   21.7727  -18.5672  -15.2839 C   0  0  2  0  0  0  0  0  0  0  0  0
   22.6454  -19.5155  -15.8863 N   0  0  0  0  0  0  0  0  0  0  0  0
   20.4532  -19.0582  -14.8611 C   0  0  0  0  0  0  0  0  0  0  0  0
   19.9884  -20.1402  -15.2531 O   0  0  0  0  0  0  0  0  0  0  0  0
   19.7055  -18.2833  -13.9985 O   0  0  0  0  0  0  0  0  0  0  0  0
  2  8  1  0
  2  1  1  1
  3  2  1  0
  4  3  1  0
  5  4  1  0
  6  5  1  0
  7  6  1  0
  8  9  2  0
 10 11  1  0
 10  8  1  0
 11 12  1  1
 12 13  1  0
 13 14  2  0
 15 11  1  0
 16 15  2  0
 17 13  1  0
 19 18  1  6
 19 21  1  0
 20 19  1  0
 21 23  1  0
 21 22  1  6
 22 15  1  0
 23 25  1  0
 24 23  2  0
M  END
$$$$
