KDV.pdb
     RDKit          3D

 25 24  0  0  1  0  0  0  0  0999 V2000
   16.9354  -13.9178  -17.8697 N   0  0  0  0  0  0  0  0  0  0  0  0
   16.3691  -12.6679  -17.3417 C   0  0  1  0  0  0  0  0  0  0  0  0
   15.6278  -12.8170  -16.0698 C   0  0  0  0  0  0  0  0  0  0  0  0
   14.4705  -13.7321  -16.0427 C   0  0  0  0  0  0  0  0  0  0  0  0
   13.8105  -14.0104  -14.7504 C   0  0  0  0  0  0  0  0  0  0  0  0
   12.6053  -14.8890  -14.7687 C   0  0  0  0  0  0  0  0  0  0  0  0
   12.3373  -15.2381  -13.3573 N   0  0  0  0  0  0  0  0  0  0  0  0
   17.4773  -11.6678  -17.2675 C   0  0  0  0  0  0  0  0  0  0  0  0
   18.6856  -11.9364  -17.2752 O   0  0  0  0  0  0  0  0  0  0  0  0
   17.1336  -10.2641  -17.1785 N   0  0  0  0  0  0  0  0  0  0  0  0
   18.1614   -9.2515  -17.2590 C   0  0  1  0  0  0  0  0  0  0  0  0
   17.6616   -7.9382  -17.7239 C   0  0  0  0  0  0  0  0  0  0  0  0
   18.7322   -6.9106  -17.8166 C   0  0  0  0  0  0  0  0  0  0  0  0
   19.8169   -7.2360  -18.3553 O   0  0  0  0  0  0  0  0  0  0  0  0
   18.9774   -9.2006  -16.0103 C   0  0  0  0  0  0  0  0  0  0  0  0
   18.3724   -9.2001  -14.9118 O   0  0  0  0  0  0  0  0  0  0  0  0
   18.5995   -5.6178  -17.3429 O   0  0  0  0  0  0  0  0  0  0  0  0
   23.3700   -9.4243  -16.1738 C   0  0  0  0  0  0  0  0  0  0  0  0
   22.4943   -9.9696  -15.0775 C   0  0  1  0  0  0  0  0  0  0  0  0
   23.2897  -10.1226  -13.8260 C   0  0  0  0  0  0  0  0  0  0  0  0
   21.2615   -9.1014  -14.8877 C   0  0  2  0  0  0  0  0  0  0  0  0
   20.3738   -9.1593  -15.9978 N   0  0  0  0  0  0  0  0  0  0  0  0
   21.6075   -7.7632  -14.3871 C   0  0  0  0  0  0  0  0  0  0  0  0
   22.0713   -7.5766  -13.2510 O   0  0  0  0  0  0  0  0  0  0  0  0
   21.4052   -6.6764  -15.2127 O   0  0  0  0  0  0  0  0  0  0  0  0
  2  8  1  0
  2  1  1  1
  3  2  1  0
  4  3  1  0
  5  4  1  0
  6  5  1  0
  7  6  1  0
  8  9  2  0
 10 11  1  0
 10  8  1  0
 11 12  1  1
 12 13  1  0
 13 14  2  0
 15 11  1  0
 16 15  2  0
 17 13  1  0
 19 18  1  6
 19 21  1  0
 20 19  1  0
 21 23  1  0
 21 22  1  6
 22 15  1  0
 23 25  1  0
 24 23  2  0
M  END
$$$$
