KDV.pdb
     RDKit          3D

 25 24  0  0  1  0  0  0  0  0999 V2000
   41.2851   -8.7721   -8.2221 N   0  0  0  0  0  0  0  0  0  0  0  0
   41.3121   -8.6645   -9.6882 C   0  0  1  0  0  0  0  0  0  0  0  0
   41.8687   -9.8471  -10.3819 C   0  0  0  0  0  0  0  0  0  0  0  0
   43.2721  -10.2147  -10.1124 C   0  0  0  0  0  0  0  0  0  0  0  0
   43.8869  -11.3070  -10.8949 C   0  0  0  0  0  0  0  0  0  0  0  0
   45.3007  -11.6652  -10.5827 C   0  0  0  0  0  0  0  0  0  0  0  0
   45.6274  -12.8171  -11.4500 N   0  0  0  0  0  0  0  0  0  0  0  0
   39.9322   -8.3086  -10.1388 C   0  0  0  0  0  0  0  0  0  0  0  0
   38.8850   -8.7853   -9.6825 O   0  0  0  0  0  0  0  0  0  0  0  0
   39.7836   -7.3286  -11.1942 N   0  0  0  0  0  0  0  0  0  0  0  0
   38.4712   -6.8719  -11.5906 C   0  0  1  0  0  0  0  0  0  0  0  0
   38.3439   -5.3977  -11.6242 C   0  0  0  0  0  0  0  0  0  0  0  0
   38.3064   -4.7883  -10.2685 C   0  0  0  0  0  0  0  0  0  0  0  0
   37.6766   -5.3923   -9.3678 O   0  0  0  0  0  0  0  0  0  0  0  0
   38.0010   -7.5658  -12.8257 C   0  0  0  0  0  0  0  0  0  0  0  0
   38.8304   -7.7519  -13.7477 O   0  0  0  0  0  0  0  0  0  0  0  0
   38.9260   -3.5946   -9.9451 O   0  0  0  0  0  0  0  0  0  0  0  0
   35.1319  -10.8544  -14.9338 C   0  0  0  0  0  0  0  0  0  0  0  0
   35.6190  -10.1049  -13.7226 C   0  0  1  0  0  0  0  0  0  0  0  0
   36.6388  -10.9193  -13.0020 C   0  0  0  0  0  0  0  0  0  0  0  0
   36.1332   -8.7279  -14.1093 C   0  0  2  0  0  0  0  0  0  0  0  0
   36.6935   -8.0228  -13.0081 N   0  0  0  0  0  0  0  0  0  0  0  0
   35.1651   -7.9964  -14.9392 C   0  0  0  0  0  0  0  0  0  0  0  0
   34.3341   -7.2107  -14.4568 O   0  0  0  0  0  0  0  0  0  0  0  0
   35.1821   -8.1954  -16.3043 O   0  0  0  0  0  0  0  0  0  0  0  0
  2  8  1  0
  2  1  1  1
  3  2  1  0
  4  3  1  0
  5  4  1  0
  6  5  1  0
  7  6  1  0
  8  9  2  0
 10 11  1  0
 10  8  1  0
 11 12  1  6
 12 13  1  0
 13 14  2  0
 15 11  1  0
 16 15  2  0
 17 13  1  0
 19 18  1  6
 19 21  1  0
 20 19  1  0
 21 23  1  0
 21 22  1  1
 22 15  1  0
 23 25  1  0
 24 23  2  0
M  END
$$$$
