KDV.pdb
     RDKit          3D

 25 24  0  0  1  0  0  0  0  0999 V2000
   23.1367  -21.7363  -18.0382 N   0  0  0  0  0  0  0  0  0  0  0  0
   22.8643  -21.0472  -16.7683 C   0  0  1  0  0  0  0  0  0  0  0  0
   23.9510  -21.1462  -15.7689 C   0  0  0  0  0  0  0  0  0  0  0  0
   24.4013  -22.4913  -15.3624 C   0  0  0  0  0  0  0  0  0  0  0  0
   25.1655  -23.3099  -16.3264 C   0  0  0  0  0  0  0  0  0  0  0  0
   25.6553  -24.6402  -15.8626 C   0  0  0  0  0  0  0  0  0  0  0  0
   26.3185  -25.2572  -17.0310 N   0  0  0  0  0  0  0  0  0  0  0  0
   22.4850  -19.6384  -17.0932 C   0  0  0  0  0  0  0  0  0  0  0  0
   23.0209  -18.9343  -17.9587 O   0  0  0  0  0  0  0  0  0  0  0  0
   21.4055  -19.0263  -16.3473 N   0  0  0  0  0  0  0  0  0  0  0  0
   20.9679  -17.6849  -16.6591 C   0  0  1  0  0  0  0  0  0  0  0  0
   19.4984  -17.5555  -16.7778 C   0  0  0  0  0  0  0  0  0  0  0  0
   19.0635  -16.1736  -17.1128 C   0  0  0  0  0  0  0  0  0  0  0  0
   18.6252  -15.4523  -16.1853 O   0  0  0  0  0  0  0  0  0  0  0  0
   21.6113  -16.6784  -15.7641 C   0  0  0  0  0  0  0  0  0  0  0  0
   21.2675  -16.6584  -14.5583 O   0  0  0  0  0  0  0  0  0  0  0  0
   19.1152  -15.6396  -18.3877 O   0  0  0  0  0  0  0  0  0  0  0  0
   25.1850  -14.7760  -16.9549 C   0  0  0  0  0  0  0  0  0  0  0  0
   24.6988  -14.7359  -15.5308 C   0  0  1  0  0  0  0  0  0  0  0  0
   25.3328  -13.5931  -14.8135 C   0  0  0  0  0  0  0  0  0  0  0  0
   23.1805  -14.6926  -15.4786 C   0  0  2  0  0  0  0  0  0  0  0  0
   22.5766  -15.7641  -16.1934 N   0  0  0  0  0  0  0  0  0  0  0  0
   22.6628  -13.3433  -15.7480 C   0  0  0  0  0  0  0  0  0  0  0  0
   22.8710  -12.3858  -14.9863 O   0  0  0  0  0  0  0  0  0  0  0  0
   21.9157  -13.1384  -16.8898 O   0  0  0  0  0  0  0  0  0  0  0  0
  2  8  1  0
  2  1  1  6
  3  2  1  0
  4  3  1  0
  5  4  1  0
  6  5  1  0
  7  6  1  0
  8  9  2  0
 10 11  1  0
 10  8  1  0
 11 12  1  1
 12 13  1  0
 13 14  2  0
 15 11  1  0
 16 15  2  0
 17 13  1  0
 19 18  1  6
 19 21  1  0
 20 19  1  0
 21 23  1  0
 21 22  1  6
 22 15  1  0
 23 25  1  0
 24 23  2  0
M  END
$$$$
