KDV.pdb
     RDKit          3D

 25 24  0  0  1  0  0  0  0  0999 V2000
   20.1388  -14.0443  -17.1823 N   0  0  0  0  0  0  0  0  0  0  0  0
   19.4006  -12.8047  -17.4656 C   0  0  1  0  0  0  0  0  0  0  0  0
   18.0000  -13.0076  -17.8977 C   0  0  0  0  0  0  0  0  0  0  0  0
   17.1470  -13.9035  -17.0933 C   0  0  0  0  0  0  0  0  0  0  0  0
   15.9647  -13.3397  -16.4094 C   0  0  0  0  0  0  0  0  0  0  0  0
   15.0541  -14.2930  -15.7118 C   0  0  0  0  0  0  0  0  0  0  0  0
   13.9728  -13.4687  -15.1312 N   0  0  0  0  0  0  0  0  0  0  0  0
   19.5285  -11.9208  -16.2672 C   0  0  0  0  0  0  0  0  0  0  0  0
   19.7122  -12.3105  -15.1067 O   0  0  0  0  0  0  0  0  0  0  0  0
   19.4328  -10.4883  -16.4545 N   0  0  0  0  0  0  0  0  0  0  0  0
   19.6813   -9.5870  -15.3526 C   0  0  1  0  0  0  0  0  0  0  0  0
   20.8036   -8.6531  -15.5949 C   0  0  0  0  0  0  0  0  0  0  0  0
   21.0258   -7.7093  -14.4676 C   0  0  0  0  0  0  0  0  0  0  0  0
   21.2547   -8.1903  -13.3323 O   0  0  0  0  0  0  0  0  0  0  0  0
   18.4219   -8.9383  -14.8826 C   0  0  0  0  0  0  0  0  0  0  0  0
   17.7723   -8.2499  -15.7052 O   0  0  0  0  0  0  0  0  0  0  0  0
   20.9943   -6.3329  -14.6003 O   0  0  0  0  0  0  0  0  0  0  0  0
   17.3660   -9.0238  -10.6447 C   0  0  0  0  0  0  0  0  0  0  0  0
   16.3287   -9.1575  -11.7274 C   0  0  1  0  0  0  0  0  0  0  0  0
   15.0136   -8.6621  -11.2298 C   0  0  0  0  0  0  0  0  0  0  0  0
   16.7789   -8.4545  -12.9975 C   0  0  2  0  0  0  0  0  0  0  0  0
   17.9255   -9.0602  -13.5824 N   0  0  0  0  0  0  0  0  0  0  0  0
   16.8152   -6.9945  -12.8303 C   0  0  0  0  0  0  0  0  0  0  0  0
   17.8716   -6.3726  -12.6358 O   0  0  0  0  0  0  0  0  0  0  0  0
   15.6285   -6.2931  -12.8896 O   0  0  0  0  0  0  0  0  0  0  0  0
  2  8  1  0
  2  1  1  1
  3  2  1  0
  4  3  1  0
  5  4  1  0
  6  5  1  0
  7  6  1  0
  8  9  2  0
 10 11  1  0
 10  8  1  0
 11 12  1  6
 12 13  1  0
 13 14  2  0
 15 11  1  0
 16 15  2  0
 17 13  1  0
 19 18  1  1
 19 21  1  0
 20 19  1  0
 21 23  1  0
 21 22  1  1
 22 15  1  0
 23 25  1  0
 24 23  2  0
M  END
$$$$
