KDV.pdb
     RDKit          3D

 25 24  0  0  1  0  0  0  0  0999 V2000
   23.5649  -19.3990  -18.7494 N   0  0  0  0  0  0  0  0  0  0  0  0
   24.2290  -18.6076  -17.7033 C   0  0  1  0  0  0  0  0  0  0  0  0
   24.8059  -17.3283  -18.1723 C   0  0  0  0  0  0  0  0  0  0  0  0
   24.7674  -17.0368  -19.6183 C   0  0  0  0  0  0  0  0  0  0  0  0
   25.1856  -18.0872  -20.5697 C   0  0  0  0  0  0  0  0  0  0  0  0
   25.2329  -17.7257  -22.0160 C   0  0  0  0  0  0  0  0  0  0  0  0
   25.6370  -18.9569  -22.7279 N   0  0  0  0  0  0  0  0  0  0  0  0
   23.2577  -18.4424  -16.5793 C   0  0  0  0  0  0  0  0  0  0  0  0
   22.3903  -17.5624  -16.5063 O   0  0  0  0  0  0  0  0  0  0  0  0
   23.3176  -19.3763  -15.4744 N   0  0  0  0  0  0  0  0  0  0  0  0
   22.2943  -19.3708  -14.4541 C   0  0  1  0  0  0  0  0  0  0  0  0
   20.9191  -19.4431  -14.9963 C   0  0  0  0  0  0  0  0  0  0  0  0
   20.1469  -18.1900  -14.7865 C   0  0  0  0  0  0  0  0  0  0  0  0
   19.6762  -17.6116  -15.7949 O   0  0  0  0  0  0  0  0  0  0  0  0
   22.5917  -20.3601  -13.3767 C   0  0  0  0  0  0  0  0  0  0  0  0
   22.2464  -21.5516  -13.5605 O   0  0  0  0  0  0  0  0  0  0  0  0
   19.9185  -17.6270  -13.5439 O   0  0  0  0  0  0  0  0  0  0  0  0
   24.3213  -21.0698   -8.7291 C   0  0  0  0  0  0  0  0  0  0  0  0
   24.3183  -20.2544   -9.9945 C   0  0  1  0  0  0  0  0  0  0  0  0
   25.6685  -20.2969  -10.6250 C   0  0  0  0  0  0  0  0  0  0  0  0
   23.2165  -20.7172  -10.9335 C   0  0  2  0  0  0  0  0  0  0  0  0
   23.2365  -20.0338  -12.1810 N   0  0  0  0  0  0  0  0  0  0  0  0
   21.9182  -20.8075  -10.2499 C   0  0  0  0  0  0  0  0  0  0  0  0
   21.0488  -19.9277  -10.3528 O   0  0  0  0  0  0  0  0  0  0  0  0
   21.6613  -21.9116   -9.4634 O   0  0  0  0  0  0  0  0  0  0  0  0
  2  8  1  0
  2  1  1  6
  3  2  1  0
  4  3  1  0
  5  4  1  0
  6  5  1  0
  7  6  1  0
  8  9  2  0
 10 11  1  0
 10  8  1  0
 11 12  1  6
 12 13  1  0
 13 14  2  0
 15 11  1  0
 16 15  2  0
 17 13  1  0
 19 18  1  1
 19 21  1  0
 20 19  1  0
 21 23  1  0
 21 22  1  6
 22 15  1  0
 23 25  1  0
 24 23  2  0
M  END
$$$$
