KDV.pdb
     RDKit          3D

 25 24  0  0  1  0  0  0  0  0999 V2000
   15.1584  -10.7149  -15.3706 N   0  0  0  0  0  0  0  0  0  0  0  0
   16.5819  -10.9941  -15.1310 C   0  0  1  0  0  0  0  0  0  0  0  0
   17.0689  -12.2602  -15.7220 C   0  0  0  0  0  0  0  0  0  0  0  0
   16.0799  -13.3139  -16.0202 C   0  0  0  0  0  0  0  0  0  0  0  0
   16.1670  -14.5999  -15.2977 C   0  0  0  0  0  0  0  0  0  0  0  0
   15.0714  -15.5879  -15.5178 C   0  0  0  0  0  0  0  0  0  0  0  0
   15.7324  -16.9046  -15.6403 N   0  0  0  0  0  0  0  0  0  0  0  0
   17.3566   -9.7960  -15.5765 C   0  0  0  0  0  0  0  0  0  0  0  0
   18.2141   -9.7895  -16.4693 O   0  0  0  0  0  0  0  0  0  0  0  0
   17.1004   -8.5287  -14.9250 N   0  0  0  0  0  0  0  0  0  0  0  0
   17.8627   -7.3540  -15.2817 C   0  0  1  0  0  0  0  0  0  0  0  0
   17.0215   -6.1842  -15.6202 C   0  0  0  0  0  0  0  0  0  0  0  0
   17.8186   -4.9710  -15.9417 C   0  0  0  0  0  0  0  0  0  0  0  0
   18.5471   -4.9974  -16.9621 O   0  0  0  0  0  0  0  0  0  0  0  0
   18.9404   -7.0789  -14.2864 C   0  0  0  0  0  0  0  0  0  0  0  0
   18.6308   -7.0712  -13.0712 O   0  0  0  0  0  0  0  0  0  0  0  0
   17.8020   -3.8164  -15.1801 O   0  0  0  0  0  0  0  0  0  0  0  0
   22.2061   -8.9635  -14.0203 C   0  0  0  0  0  0  0  0  0  0  0  0
   22.5754   -7.5093  -14.1425 C   0  0  1  0  0  0  0  0  0  0  0  0
   23.1112   -7.2381  -15.5070 C   0  0  0  0  0  0  0  0  0  0  0  0
   21.3954   -6.6198  -13.7872 C   0  0  2  0  0  0  0  0  0  0  0  0
   20.2719   -6.8360  -14.6326 N   0  0  0  0  0  0  0  0  0  0  0  0
   21.8068   -5.2240  -13.5783 C   0  0  0  0  0  0  0  0  0  0  0  0
   21.4219   -4.2995  -14.3115 O   0  0  0  0  0  0  0  0  0  0  0  0
   22.6545   -4.9354  -12.5287 O   0  0  0  0  0  0  0  0  0  0  0  0
  2  8  1  0
  2  1  1  6
  3  2  1  0
  4  3  1  0
  5  4  1  0
  6  5  1  0
  7  6  1  0
  8  9  2  0
 10 11  1  0
 10  8  1  0
 11 12  1  1
 12 13  1  0
 13 14  2  0
 15 11  1  0
 16 15  2  0
 17 13  1  0
 19 18  1  6
 19 21  1  0
 20 19  1  0
 21 23  1  0
 21 22  1  6
 22 15  1  0
 23 25  1  0
 24 23  2  0
M  END
$$$$
