KDV.pdb
     RDKit          3D

 25 24  0  0  1  0  0  0  0  0999 V2000
   15.9442  -23.9624   -6.6105 N   0  0  0  0  0  0  0  0  0  0  0  0
   16.7750  -25.0421   -6.0579 C   0  0  1  0  0  0  0  0  0  0  0  0
   18.2174  -24.9292   -6.3682 C   0  0  0  0  0  0  0  0  0  0  0  0
   18.6297  -24.9762   -7.7842 C   0  0  0  0  0  0  0  0  0  0  0  0
   18.3407  -26.1925   -8.5720 C   0  0  0  0  0  0  0  0  0  0  0  0
   18.8139  -26.2245   -9.9861 C   0  0  0  0  0  0  0  0  0  0  0  0
   18.3165  -27.4971  -10.5507 N   0  0  0  0  0  0  0  0  0  0  0  0
   16.4891  -25.1252   -4.5932 C   0  0  0  0  0  0  0  0  0  0  0  0
   16.5576  -24.1808   -3.7959 O   0  0  0  0  0  0  0  0  0  0  0  0
   16.0987  -26.4046   -4.0390 N   0  0  0  0  0  0  0  0  0  0  0  0
   15.6864  -26.5098   -2.6580 C   0  0  1  0  0  0  0  0  0  0  0  0
   14.3308  -27.0791   -2.4880 C   0  0  0  0  0  0  0  0  0  0  0  0
   13.9107  -27.1599   -1.0640 C   0  0  0  0  0  0  0  0  0  0  0  0
   14.1856  -26.1943   -0.3125 O   0  0  0  0  0  0  0  0  0  0  0  0
   16.7413  -27.1527   -1.8203 C   0  0  0  0  0  0  0  0  0  0  0  0
   17.3090  -28.1756   -2.2720 O   0  0  0  0  0  0  0  0  0  0  0  0
   13.2346  -28.2382   -0.5223 O   0  0  0  0  0  0  0  0  0  0  0  0
   18.0259  -25.2134    1.8244 C   0  0  0  0  0  0  0  0  0  0  0  0
   18.9106  -26.1370    1.0304 C   0  0  1  0  0  0  0  0  0  0  0  0
   19.9724  -26.7000    1.9124 C   0  0  0  0  0  0  0  0  0  0  0  0
   18.0884  -27.2130    0.3404 C   0  0  2  0  0  0  0  0  0  0  0  0
   17.1336  -26.6758   -0.5671 N   0  0  0  0  0  0  0  0  0  0  0  0
   17.6014  -28.2225    1.2916 C   0  0  0  0  0  0  0  0  0  0  0  0
   16.4959  -28.1339    1.8489 O   0  0  0  0  0  0  0  0  0  0  0  0
   18.4073  -29.3060    1.5751 O   0  0  0  0  0  0  0  0  0  0  0  0
  2  8  1  0
  2  1  1  1
  3  2  1  0
  4  3  1  0
  5  4  1  0
  6  5  1  0
  7  6  1  0
  8  9  2  0
 10 11  1  0
 10  8  1  0
 11 12  1  6
 12 13  1  0
 13 14  2  0
 15 11  1  0
 16 15  2  0
 17 13  1  0
 19 18  1  1
 19 21  1  0
 20 19  1  0
 21 23  1  0
 21 22  1  1
 22 15  1  0
 23 25  1  0
 24 23  2  0
M  END
$$$$
