KDV.pdb
     RDKit          3D

 25 24  0  0  1  0  0  0  0  0999 V2000
   18.5608  -15.8750  -18.0889 N   0  0  0  0  0  0  0  0  0  0  0  0
   18.6815  -15.2347  -16.7709 C   0  0  1  0  0  0  0  0  0  0  0  0
   19.4286  -16.0260  -15.7683 C   0  0  0  0  0  0  0  0  0  0  0  0
   19.8522  -17.3910  -16.1352 C   0  0  0  0  0  0  0  0  0  0  0  0
   18.9073  -18.5095  -15.9362 C   0  0  0  0  0  0  0  0  0  0  0  0
   19.3191  -19.8543  -16.4329 C   0  0  0  0  0  0  0  0  0  0  0  0
   18.2000  -20.7650  -16.1106 N   0  0  0  0  0  0  0  0  0  0  0  0
   19.2448  -13.8669  -16.9850 C   0  0  0  0  0  0  0  0  0  0  0  0
   20.2455  -13.6031  -17.6640 O   0  0  0  0  0  0  0  0  0  0  0  0
   18.5826  -12.7431  -16.3564 N   0  0  0  0  0  0  0  0  0  0  0  0
   19.0170  -11.3917  -16.6268 C   0  0  1  0  0  0  0  0  0  0  0  0
   17.9044  -10.4614  -16.9217 C   0  0  0  0  0  0  0  0  0  0  0  0
   17.0653  -10.9057  -18.0660 C   0  0  0  0  0  0  0  0  0  0  0  0
   17.6388  -11.1733  -19.1487 O   0  0  0  0  0  0  0  0  0  0  0  0
   19.9750  -10.9078  -15.5895 C   0  0  0  0  0  0  0  0  0  0  0  0
   19.6078  -10.9360  -14.3908 O   0  0  0  0  0  0  0  0  0  0  0  0
   15.6901  -11.0404  -18.0038 O   0  0  0  0  0  0  0  0  0  0  0  0
   24.6377   -9.7468  -14.3732 C   0  0  0  0  0  0  0  0  0  0  0  0
   23.6467  -10.3020  -15.3610 C   0  0  1  0  0  0  0  0  0  0  0  0
   23.8034  -11.7815  -15.4550 C   0  0  0  0  0  0  0  0  0  0  0  0
   22.2310   -9.8828  -15.0007 C   0  0  2  0  0  0  0  0  0  0  0  0
   21.2563  -10.4321  -15.8792 N   0  0  0  0  0  0  0  0  0  0  0  0
   22.1402   -8.4405  -14.7312 C   0  0  0  0  0  0  0  0  0  0  0  0
   22.0461   -7.5983  -15.6380 O   0  0  0  0  0  0  0  0  0  0  0  0
   22.1635   -8.0108  -13.4203 O   0  0  0  0  0  0  0  0  0  0  0  0
  2  8  1  0
  2  1  1  6
  3  2  1  0
  4  3  1  0
  5  4  1  0
  6  5  1  0
  7  6  1  0
  8  9  2  0
 10 11  1  0
 10  8  1  0
 11 12  1  1
 12 13  1  0
 13 14  2  0
 15 11  1  0
 16 15  2  0
 17 13  1  0
 19 18  1  1
 19 21  1  0
 20 19  1  0
 21 23  1  0
 21 22  1  6
 22 15  1  0
 23 25  1  0
 24 23  2  0
M  END
$$$$
