QTF.pdb
     RDKit          3D

 28 28  0  0  1  0  0  0  0  0999 V2000
   14.4993  -14.7172   19.7494 N   0  0  0  0  0  0  0  0  0  0  0  0
   13.2776  -14.0726   19.4054 C   0  0  0  0  0  0  0  0  0  0  0  0
   12.9904  -13.0123   20.0082 O   0  0  0  0  0  0  0  0  0  0  0  0
   12.3610  -14.6469   18.3472 C   0  0  0  0  0  0  0  0  0  0  0  0
   11.9291  -16.0013   18.8193 C   0  0  0  0  0  0  0  0  0  0  0  0
   10.4609  -16.2147   18.8997 C   0  0  2  0  0  0  0  0  0  0  0  0
    9.9077  -16.1210   17.5527 N   0  0  0  0  0  0  0  0  0  0  0  0
    9.7312  -15.4446   19.9073 C   0  0  0  0  0  0  0  0  0  0  0  0
    9.0752  -14.4466   19.5490 O   0  0  0  0  0  0  0  0  0  0  0  0
    7.1798  -15.2696   20.3719 C   0  0  0  0  0  0  0  0  0  0  0  0
    7.3168  -15.8459   21.7773 C   0  0  1  0  0  0  0  0  0  0  0  0
    7.3410  -17.2215   21.6133 O   0  0  0  0  0  0  0  0  0  0  0  0
    8.7187  -15.4172   22.2563 C   0  0  2  0  0  0  0  0  0  0  0  0
    9.7207  -15.7615   21.3066 N   0  0  0  0  0  0  0  0  0  0  0  0
    8.9397  -15.8960   23.6264 C   0  0  0  0  0  0  0  0  0  0  0  0
    9.9437  -16.5959   23.9606 O   0  0  0  0  0  0  0  0  0  0  0  0
    8.0400  -15.6053   24.7061 N   0  0  0  0  0  0  0  0  0  0  0  0
    8.2869  -16.0536   26.0747 C   0  0  1  0  0  0  0  0  0  0  0  0
    7.3761  -15.3902   27.0449 C   0  0  0  0  0  0  0  0  0  0  0  0
    7.3374  -13.9360   26.8291 C   0  0  0  0  0  0  0  0  0  0  0  0
    6.2140  -13.3475   26.2583 C   0  0  0  0  0  0  0  0  0  0  0  0
    6.1227  -11.9999   26.0356 C   0  0  0  0  0  0  0  0  0  0  0  0
    7.1731  -11.1386   26.3779 C   0  0  0  0  0  0  0  0  0  0  0  0
    8.2895  -11.7211   26.9457 C   0  0  0  0  0  0  0  0  0  0  0  0
    8.3763  -13.0782   27.1674 C   0  0  0  0  0  0  0  0  0  0  0  0
    8.2442  -17.5259   26.1761 C   0  0  0  0  0  0  0  0  0  0  0  0
    7.8224  -18.3981   25.2071 O   0  0  0  0  0  0  0  0  0  0  0  0
    8.6359  -18.0725   27.2798 O   0  0  0  0  0  0  0  0  0  0  0  0
  2  3  2  0
  2  1  1  0
  4  2  1  0
  5  4  1  0
  6  5  1  0
  6  7  1  6
  8  9  2  0
  8  6  1  0
 11 10  1  6
 11 13  1  0
 12 11  1  0
 13 14  1  6
 14  8  1  0
 15 13  1  0
 15 16  2  0
 17 15  1  0
 18 17  1  0
 18 19  1  1
 20 19  1  0
 20 21  2  0
 22 21  1  0
 23 22  2  0
 24 25  2  0
 24 23  1  0
 25 20  1  0
 26 18  1  0
 27 26  1  0
 28 26  2  0
M  END
$$$$
