QTF.pdb
     RDKit          3D

 28 28  0  0  1  0  0  0  0  0999 V2000
    7.2482  -12.7168   15.9324 N   0  0  0  0  0  0  0  0  0  0  0  0
    7.9318  -13.9550   15.7718 C   0  0  0  0  0  0  0  0  0  0  0  0
    7.7198  -14.6036   14.7208 O   0  0  0  0  0  0  0  0  0  0  0  0
    8.8828  -14.4669   16.8317 C   0  0  0  0  0  0  0  0  0  0  0  0
    8.2454  -14.2113   18.1629 C   0  0  0  0  0  0  0  0  0  0  0  0
    9.0261  -14.6599   19.3448 C   0  0  2  0  0  0  0  0  0  0  0  0
    9.9336  -15.7211   18.9213 N   0  0  0  0  0  0  0  0  0  0  0  0
    8.2742  -14.9589   20.5639 C   0  0  0  0  0  0  0  0  0  0  0  0
    7.4389  -14.1313   20.9786 O   0  0  0  0  0  0  0  0  0  0  0  0
    6.2698  -17.9769   21.2009 C   0  0  0  0  0  0  0  0  0  0  0  0
    7.1899  -17.9693   22.4172 C   0  0  1  0  0  0  0  0  0  0  0  0
    8.2577  -18.7852   22.0795 O   0  0  0  0  0  0  0  0  0  0  0  0
    7.7274  -16.5267   22.5098 C   0  0  2  0  0  0  0  0  0  0  0  0
    8.4370  -16.1594   21.3326 N   0  0  0  0  0  0  0  0  0  0  0  0
    8.4477  -16.3491   23.7767 C   0  0  0  0  0  0  0  0  0  0  0  0
    9.7089  -16.2295   23.8438 O   0  0  0  0  0  0  0  0  0  0  0  0
    7.7829  -16.2883   25.0471 N   0  0  0  0  0  0  0  0  0  0  0  0
    8.5098  -16.1426   26.3062 C   0  0  1  0  0  0  0  0  0  0  0  0
    7.7430  -15.3402   27.2958 C   0  0  0  0  0  0  0  0  0  0  0  0
    7.5231  -13.9689   26.8123 C   0  0  0  0  0  0  0  0  0  0  0  0
    6.2366  -13.5371   26.5075 C   0  0  0  0  0  0  0  0  0  0  0  0
    5.9733  -12.2721   26.0555 C   0  0  0  0  0  0  0  0  0  0  0  0
    7.0037  -11.3401   25.8765 C   0  0  0  0  0  0  0  0  0  0  0  0
    8.2821  -11.7668   26.1794 C   0  0  0  0  0  0  0  0  0  0  0  0
    8.5417  -13.0413   26.6339 C   0  0  0  0  0  0  0  0  0  0  0  0
    8.9265  -17.4531   26.8434 C   0  0  0  0  0  0  0  0  0  0  0  0
    9.8345  -17.6721   27.8460 O   0  0  0  0  0  0  0  0  0  0  0  0
    8.3992  -18.5168   26.3327 O   0  0  0  0  0  0  0  0  0  0  0  0
  2  3  2  0
  2  1  1  0
  4  2  1  0
  5  4  1  0
  6  5  1  0
  6  7  1  6
  8  9  2  0
  8  6  1  0
 11 10  1  6
 11 13  1  0
 12 11  1  0
 13 14  1  6
 14  8  1  0
 15 13  1  0
 15 16  2  0
 17 15  1  0
 18 17  1  0
 18 19  1  1
 20 19  1  0
 20 21  2  0
 22 21  1  0
 23 22  2  0
 24 25  2  0
 24 23  1  0
 25 20  1  0
 26 18  1  0
 27 26  1  0
 28 26  2  0
M  END
$$$$
