QTF.pdb
     RDKit          3D

 28 28  0  0  1  0  0  0  0  0999 V2000
    7.0956  -13.2637   15.7502 N   0  0  0  0  0  0  0  0  0  0  0  0
    8.2221  -13.5265   16.5798 C   0  0  0  0  0  0  0  0  0  0  0  0
    9.0519  -14.3764   16.1808 O   0  0  0  0  0  0  0  0  0  0  0  0
    8.4112  -12.8020   17.8949 C   0  0  0  0  0  0  0  0  0  0  0  0
    7.8322  -13.6706   18.9691 C   0  0  0  0  0  0  0  0  0  0  0  0
    8.8126  -14.4806   19.7374 C   0  0  2  0  0  0  0  0  0  0  0  0
    9.5391  -15.3328   18.8019 N   0  0  0  0  0  0  0  0  0  0  0  0
    8.3158  -15.1745   20.9258 C   0  0  0  0  0  0  0  0  0  0  0  0
    7.2974  -14.7401   21.4994 O   0  0  0  0  0  0  0  0  0  0  0  0
    7.9775  -19.2312   23.6149 C   0  0  0  0  0  0  0  0  0  0  0  0
    8.7638  -18.5739   22.4855 C   0  0  1  0  0  0  0  0  0  0  0  0
    8.1391  -18.9758   21.3159 O   0  0  0  0  0  0  0  0  0  0  0  0
    8.5110  -17.0606   22.6429 C   0  0  2  0  0  0  0  0  0  0  0  0
    8.9327  -16.3403   21.4907 N   0  0  0  0  0  0  0  0  0  0  0  0
    9.0578  -16.5999   23.9251 C   0  0  0  0  0  0  0  0  0  0  0  0
   10.2963  -16.4038   24.1179 O   0  0  0  0  0  0  0  0  0  0  0  0
    8.2340  -16.3253   25.0678 N   0  0  0  0  0  0  0  0  0  0  0  0
    8.7900  -15.9056   26.3523 C   0  0  1  0  0  0  0  0  0  0  0  0
    7.7749  -15.2188   27.1943 C   0  0  0  0  0  0  0  0  0  0  0  0
    7.4295  -13.9006   26.6415 C   0  0  0  0  0  0  0  0  0  0  0  0
    6.1293  -13.6419   26.2208 C   0  0  0  0  0  0  0  0  0  0  0  0
    5.7515  -12.4337   25.7001 C   0  0  0  0  0  0  0  0  0  0  0  0
    6.6715  -11.3860   25.5651 C   0  0  0  0  0  0  0  0  0  0  0  0
    7.9633  -11.6406   25.9830 C   0  0  0  0  0  0  0  0  0  0  0  0
    8.3384  -12.8587   26.5062 C   0  0  0  0  0  0  0  0  0  0  0  0
    9.4368  -17.0321   27.0540 C   0  0  0  0  0  0  0  0  0  0  0  0
   10.4674  -16.9489   27.9532 O   0  0  0  0  0  0  0  0  0  0  0  0
    9.0090  -18.2274   26.8120 O   0  0  0  0  0  0  0  0  0  0  0  0
  2  3  2  0
  2  1  1  0
  4  2  1  0
  5  4  1  0
  6  5  1  0
  6  7  1  6
  8  9  2  0
  8  6  1  0
 11 10  1  1
 11 13  1  0
 12 11  1  0
 13 14  1  6
 14  8  1  0
 15 13  1  0
 15 16  2  0
 17 15  1  0
 18 17  1  0
 18 19  1  1
 20 19  1  0
 20 21  2  0
 22 21  1  0
 23 22  2  0
 24 25  2  0
 24 23  1  0
 25 20  1  0
 26 18  1  0
 27 26  1  0
 28 26  2  0
M  END
$$$$
