QTF.pdb
     RDKit          3D

 28 28  0  0  1  0  0  0  0  0999 V2000
   14.3933  -17.0930   18.1838 N   0  0  0  0  0  0  0  0  0  0  0  0
   13.3007  -17.3777   17.3169 C   0  0  0  0  0  0  0  0  0  0  0  0
   13.2959  -16.8310   16.1894 O   0  0  0  0  0  0  0  0  0  0  0  0
   12.1870  -18.3099   17.7420 C   0  0  0  0  0  0  0  0  0  0  0  0
   10.9423  -17.4868   17.8720 C   0  0  0  0  0  0  0  0  0  0  0  0
   10.1730  -17.6810   19.1282 C   0  0  2  0  0  0  0  0  0  0  0  0
    8.8870  -18.2831   18.7919 N   0  0  0  0  0  0  0  0  0  0  0  0
   10.0856  -16.5383   20.0378 C   0  0  0  0  0  0  0  0  0  0  0  0
   11.0899  -15.8186   20.2043 O   0  0  0  0  0  0  0  0  0  0  0  0
    7.4983  -13.8234   20.2812 C   0  0  0  0  0  0  0  0  0  0  0  0
    7.4842  -14.4095   21.6892 C   0  0  1  0  0  0  0  0  0  0  0  0
    6.4390  -15.3189   21.7019 O   0  0  0  0  0  0  0  0  0  0  0  0
    8.7939  -15.2156   21.8058 C   0  0  2  0  0  0  0  0  0  0  0  0
    8.9029  -16.1836   20.7688 N   0  0  0  0  0  0  0  0  0  0  0  0
    8.9413  -15.7217   23.1760 C   0  0  0  0  0  0  0  0  0  0  0  0
    8.7686  -16.9399   23.4852 O   0  0  0  0  0  0  0  0  0  0  0  0
    9.3012  -14.8798   24.2812 N   0  0  0  0  0  0  0  0  0  0  0  0
    9.2560  -15.3426   25.6664 C   0  0  1  0  0  0  0  0  0  0  0  0
    7.8721  -15.3206   26.2100 C   0  0  0  0  0  0  0  0  0  0  0  0
    7.3821  -13.9423   26.3610 C   0  0  0  0  0  0  0  0  0  0  0  0
    8.2772  -12.9110   26.6249 C   0  0  0  0  0  0  0  0  0  0  0  0
    7.8775  -11.6103   26.7735 C   0  0  0  0  0  0  0  0  0  0  0  0
    6.5275  -11.2527   26.6647 C   0  0  0  0  0  0  0  0  0  0  0  0
    5.6368  -12.2754   26.4018 C   0  0  0  0  0  0  0  0  0  0  0  0
    6.0445  -13.5831   26.2534 C   0  0  0  0  0  0  0  0  0  0  0  0
    9.9001  -16.6627   25.8155 C   0  0  0  0  0  0  0  0  0  0  0  0
   10.1358  -17.3269   26.9905 O   0  0  0  0  0  0  0  0  0  0  0  0
   10.2930  -17.2735   24.7464 O   0  0  0  0  0  0  0  0  0  0  0  0
  2  3  2  0
  2  1  1  0
  4  2  1  0
  5  4  1  0
  6  5  1  0
  6  7  1  6
  8  9  2  0
  8  6  1  0
 11 10  1  6
 11 13  1  0
 12 11  1  0
 13 14  1  6
 14  8  1  0
 15 13  1  0
 15 16  2  0
 17 15  1  0
 18 17  1  0
 18 19  1  6
 20 19  1  0
 20 21  2  0
 22 21  1  0
 23 22  2  0
 24 25  2  0
 24 23  1  0
 25 20  1  0
 26 18  1  0
 27 26  1  0
 28 26  2  0
M  END
$$$$
