QTF.pdb
     RDKit          3D

 28 28  0  0  1  0  0  0  0  0999 V2000
    7.9142  -13.9351   15.5643 N   0  0  0  0  0  0  0  0  0  0  0  0
    9.1354  -14.4436   15.0385 C   0  0  0  0  0  0  0  0  0  0  0  0
    9.5569  -13.9499   13.9668 O   0  0  0  0  0  0  0  0  0  0  0  0
    9.8980  -15.5392   15.7514 C   0  0  0  0  0  0  0  0  0  0  0  0
    9.1273  -15.8862   16.9881 C   0  0  0  0  0  0  0  0  0  0  0  0
    9.9432  -16.1242   18.2069 C   0  0  2  0  0  0  0  0  0  0  0  0
   10.0210  -17.5633   18.4350 N   0  0  0  0  0  0  0  0  0  0  0  0
    9.6059  -15.3414   19.3961 C   0  0  0  0  0  0  0  0  0  0  0  0
    9.9962  -14.1598   19.4743 O   0  0  0  0  0  0  0  0  0  0  0  0
    6.6245  -14.1097   20.5211 C   0  0  0  0  0  0  0  0  0  0  0  0
    6.9697  -14.9129   21.7708 C   0  0  1  0  0  0  0  0  0  0  0  0
    6.3501  -16.1410   21.6052 O   0  0  0  0  0  0  0  0  0  0  0  0
    8.4911  -15.1532   21.6908 C   0  0  2  0  0  0  0  0  0  0  0  0
    8.8458  -15.8496   20.5019 N   0  0  0  0  0  0  0  0  0  0  0  0
    8.9637  -15.7453   22.9482 C   0  0  0  0  0  0  0  0  0  0  0  0
    9.5433  -16.8723   23.0067 O   0  0  0  0  0  0  0  0  0  0  0  0
    8.8158  -15.0937   24.2183 N   0  0  0  0  0  0  0  0  0  0  0  0
    9.2631  -15.7029   25.4689 C   0  0  1  0  0  0  0  0  0  0  0  0
    9.3359  -14.7080   26.5716 C   0  0  0  0  0  0  0  0  0  0  0  0
    8.1753  -13.8052   26.5506 C   0  0  0  0  0  0  0  0  0  0  0  0
    8.3617  -12.4368   26.3856 C   0  0  0  0  0  0  0  0  0  0  0  0
    7.3188  -11.5507   26.3570 C   0  0  0  0  0  0  0  0  0  0  0  0
    5.9952  -11.9885   26.4946 C   0  0  0  0  0  0  0  0  0  0  0  0
    5.8078  -13.3473   26.6578 C   0  0  0  0  0  0  0  0  0  0  0  0
    6.8612  -14.2349   26.6861 C   0  0  0  0  0  0  0  0  0  0  0  0
    8.4406  -16.8772   25.8213 C   0  0  0  0  0  0  0  0  0  0  0  0
    7.2714  -17.2637   25.2205 O   0  0  0  0  0  0  0  0  0  0  0  0
    8.8394  -17.6315   26.7921 O   0  0  0  0  0  0  0  0  0  0  0  0
  2  3  2  0
  2  1  1  0
  4  2  1  0
  5  4  1  0
  6  5  1  0
  6  7  1  1
  8  9  2  0
  8  6  1  0
 11 10  1  6
 11 13  1  0
 12 11  1  0
 13 14  1  6
 14  8  1  0
 15 13  1  0
 15 16  2  0
 17 15  1  0
 18 17  1  0
 18 19  1  1
 20 19  1  0
 20 21  2  0
 22 21  1  0
 23 22  2  0
 24 25  2  0
 24 23  1  0
 25 20  1  0
 26 18  1  0
 27 26  1  0
 28 26  2  0
M  END
$$$$
