QTF.pdb
     RDKit          3D

 28 28  0  0  1  0  0  0  0  0999 V2000
    8.4834  -12.1828   18.1110 N   0  0  0  0  0  0  0  0  0  0  0  0
    8.8313  -12.3131   19.4852 C   0  0  0  0  0  0  0  0  0  0  0  0
    9.5222  -11.4024   19.9985 O   0  0  0  0  0  0  0  0  0  0  0  0
    8.3794  -13.5077   20.2967 C   0  0  0  0  0  0  0  0  0  0  0  0
    7.7246  -14.4669   19.3507 C   0  0  0  0  0  0  0  0  0  0  0  0
    8.0162  -15.9040   19.5900 C   0  0  2  0  0  0  0  0  0  0  0  0
    7.3696  -16.6858   18.5413 N   0  0  0  0  0  0  0  0  0  0  0  0
    7.7950  -16.4108   20.9446 C   0  0  0  0  0  0  0  0  0  0  0  0
    6.6272  -16.5171   21.3684 O   0  0  0  0  0  0  0  0  0  0  0  0
    8.5003  -19.5404   22.1607 C   0  0  0  0  0  0  0  0  0  0  0  0
    9.2456  -18.7667   23.2431 C   0  0  1  0  0  0  0  0  0  0  0  0
   10.5693  -18.7391   22.8344 O   0  0  0  0  0  0  0  0  0  0  0  0
    8.7084  -17.3238   23.1528 C   0  0  2  0  0  0  0  0  0  0  0  0
    8.8488  -16.7979   21.8382 N   0  0  0  0  0  0  0  0  0  0  0  0
    9.2840  -16.5146   24.2340 C   0  0  0  0  0  0  0  0  0  0  0  0
   10.2666  -15.7306   24.0627 O   0  0  0  0  0  0  0  0  0  0  0  0
    8.7770  -16.5373   25.5765 N   0  0  0  0  0  0  0  0  0  0  0  0
    9.4673  -15.8839   26.6863 C   0  0  1  0  0  0  0  0  0  0  0  0
    8.5273  -15.1136   27.5431 C   0  0  0  0  0  0  0  0  0  0  0  0
    8.0630  -13.8959   26.8618 C   0  0  0  0  0  0  0  0  0  0  0  0
    8.8668  -12.7611   26.8415 C   0  0  0  0  0  0  0  0  0  0  0  0
    8.4864  -11.6014   26.2217 C   0  0  0  0  0  0  0  0  0  0  0  0
    7.2507  -11.5030   25.5692 C   0  0  0  0  0  0  0  0  0  0  0  0
    6.4511  -12.6294   25.5875 C   0  0  0  0  0  0  0  0  0  0  0  0
    6.8389  -13.7941   26.2131 C   0  0  0  0  0  0  0  0  0  0  0  0
   10.2767  -16.8463   27.4597 C   0  0  0  0  0  0  0  0  0  0  0  0
   11.2137  -16.5434   28.4125 O   0  0  0  0  0  0  0  0  0  0  0  0
   10.1059  -18.1072   27.2331 O   0  0  0  0  0  0  0  0  0  0  0  0
  2  3  2  0
  2  1  1  0
  4  2  1  0
  5  4  1  0
  6  5  1  0
  6  7  1  6
  8  9  2  0
  8  6  1  0
 11 10  1  6
 11 13  1  0
 12 11  1  0
 13 14  1  6
 14  8  1  0
 15 13  1  0
 15 16  2  0
 17 15  1  0
 18 17  1  0
 18 19  1  1
 20 19  1  0
 20 21  2  0
 22 21  1  0
 23 22  2  0
 24 25  2  0
 24 23  1  0
 25 20  1  0
 26 18  1  0
 27 26  1  0
 28 26  2  0
M  END
$$$$
