QTF.pdb
     RDKit          3D

 28 28  0  0  1  0  0  0  0  0999 V2000
   10.0982  -15.8474   13.8796 N   0  0  0  0  0  0  0  0  0  0  0  0
   10.9347  -16.6842   14.6710 C   0  0  0  0  0  0  0  0  0  0  0  0
   12.1634  -16.6766   14.4253 O   0  0  0  0  0  0  0  0  0  0  0  0
   10.3597  -17.5491   15.7716 C   0  0  0  0  0  0  0  0  0  0  0  0
   10.0573  -16.6511   16.9317 C   0  0  0  0  0  0  0  0  0  0  0  0
   10.2692  -17.2466   18.2764 C   0  0  2  0  0  0  0  0  0  0  0  0
    9.8803  -18.6520   18.2239 N   0  0  0  0  0  0  0  0  0  0  0  0
    9.7292  -16.5128   19.4212 C   0  0  0  0  0  0  0  0  0  0  0  0
   10.0696  -15.3260   19.5951 O   0  0  0  0  0  0  0  0  0  0  0  0
    6.0523  -16.8758   20.5252 C   0  0  0  0  0  0  0  0  0  0  0  0
    6.8435  -16.9871   21.8243 C   0  0  1  0  0  0  0  0  0  0  0  0
    6.9954  -18.3455   22.0508 O   0  0  0  0  0  0  0  0  0  0  0  0
    8.2395  -16.4182   21.4986 C   0  0  2  0  0  0  0  0  0  0  0  0
    8.8207  -17.0756   20.3786 N   0  0  0  0  0  0  0  0  0  0  0  0
    9.0552  -16.3842   22.7188 C   0  0  0  0  0  0  0  0  0  0  0  0
   10.0879  -17.1031   22.8802 O   0  0  0  0  0  0  0  0  0  0  0  0
    8.7558  -15.5273   23.8304 N   0  0  0  0  0  0  0  0  0  0  0  0
    9.5247  -15.5570   25.0726 C   0  0  1  0  0  0  0  0  0  0  0  0
    9.8291  -14.1875   25.5654 C   0  0  0  0  0  0  0  0  0  0  0  0
    8.5964  -13.4202   25.7985 C   0  0  0  0  0  0  0  0  0  0  0  0
    7.8675  -12.9307   24.7199 C   0  0  0  0  0  0  0  0  0  0  0  0
    6.7132  -12.2121   24.8777 C   0  0  0  0  0  0  0  0  0  0  0  0
    6.2052  -11.9325   26.1529 C   0  0  0  0  0  0  0  0  0  0  0  0
    6.9273  -12.4184   27.2257 C   0  0  0  0  0  0  0  0  0  0  0  0
    8.0888  -13.1411   27.0612 C   0  0  0  0  0  0  0  0  0  0  0  0
    8.8644  -16.3915   26.0960 C   0  0  0  0  0  0  0  0  0  0  0  0
    7.6325  -16.9830   25.9952 O   0  0  0  0  0  0  0  0  0  0  0  0
    9.4879  -16.5983   27.2090 O   0  0  0  0  0  0  0  0  0  0  0  0
  2  3  2  0
  2  1  1  0
  4  2  1  0
  5  4  1  0
  6  5  1  0
  6  7  1  6
  8  9  2  0
  8  6  1  0
 11 10  1  6
 11 13  1  0
 12 11  1  0
 13 14  1  6
 14  8  1  0
 15 13  1  0
 15 16  2  0
 17 15  1  0
 18 17  1  0
 18 19  1  1
 20 19  1  0
 20 21  2  0
 22 21  1  0
 23 22  2  0
 24 25  2  0
 24 23  1  0
 25 20  1  0
 26 18  1  0
 27 26  1  0
 28 26  2  0
M  END
$$$$
