QTF.pdb
     RDKit          3D

 28 28  0  0  1  0  0  0  0  0999 V2000
    7.4470  -12.3400   16.5852 N   0  0  0  0  0  0  0  0  0  0  0  0
    7.9894  -13.6168   16.2662 C   0  0  0  0  0  0  0  0  0  0  0  0
    7.7213  -14.0972   15.1403 O   0  0  0  0  0  0  0  0  0  0  0  0
    8.8614  -14.3647   17.2512 C   0  0  0  0  0  0  0  0  0  0  0  0
    8.5058  -13.8756   18.6216 C   0  0  0  0  0  0  0  0  0  0  0  0
    9.2923  -14.4633   19.7368 C   0  0  2  0  0  0  0  0  0  0  0  0
   10.2162  -15.4462   19.1805 N   0  0  0  0  0  0  0  0  0  0  0  0
    8.5442  -14.9305   20.9041 C   0  0  0  0  0  0  0  0  0  0  0  0
    7.6370  -14.2126   21.3692 O   0  0  0  0  0  0  0  0  0  0  0  0
    6.9497  -18.3312   21.4022 C   0  0  0  0  0  0  0  0  0  0  0  0
    7.8532  -18.1840   22.6220 C   0  0  1  0  0  0  0  0  0  0  0  0
    9.0433  -18.8053   22.2792 O   0  0  0  0  0  0  0  0  0  0  0  0
    8.1410  -16.6729   22.7332 C   0  0  2  0  0  0  0  0  0  0  0  0
    8.7888  -16.1796   21.5664 N   0  0  0  0  0  0  0  0  0  0  0  0
    8.8111  -16.3909   24.0086 C   0  0  0  0  0  0  0  0  0  0  0  0
   10.0577  -16.1747   24.1015 O   0  0  0  0  0  0  0  0  0  0  0  0
    8.1088  -16.3288   25.2587 N   0  0  0  0  0  0  0  0  0  0  0  0
    8.7789  -16.0195   26.5198 C   0  0  1  0  0  0  0  0  0  0  0  0
    7.8957  -15.2558   27.4405 C   0  0  0  0  0  0  0  0  0  0  0  0
    7.5180  -13.9583   26.8605 C   0  0  0  0  0  0  0  0  0  0  0  0
    6.2394  -13.7725   26.3456 C   0  0  0  0  0  0  0  0  0  0  0  0
    5.8333  -12.5866   25.7955 C   0  0  0  0  0  0  0  0  0  0  0  0
    6.7004  -11.4887   25.7252 C   0  0  0  0  0  0  0  0  0  0  0  0
    7.9706  -11.6708   26.2368 C   0  0  0  0  0  0  0  0  0  0  0  0
    8.3743  -12.8668   26.7892 C   0  0  0  0  0  0  0  0  0  0  0  0
    9.3335  -17.2349   27.1482 C   0  0  0  0  0  0  0  0  0  0  0  0
   10.2840  -17.2820   28.1340 O   0  0  0  0  0  0  0  0  0  0  0  0
    8.8978  -18.3828   26.7446 O   0  0  0  0  0  0  0  0  0  0  0  0
  2  3  2  0
  2  1  1  0
  4  2  1  0
  5  4  1  0
  6  5  1  0
  6  7  1  6
  8  9  2  0
  8  6  1  0
 11 10  1  6
 11 13  1  0
 12 11  1  0
 13 14  1  6
 14  8  1  0
 15 13  1  0
 15 16  2  0
 17 15  1  0
 18 17  1  0
 18 19  1  1
 20 19  1  0
 20 21  2  0
 22 21  1  0
 23 22  2  0
 24 25  2  0
 24 23  1  0
 25 20  1  0
 26 18  1  0
 27 26  1  0
 28 26  2  0
M  END
$$$$
