QTF.pdb
     RDKit          3D

 28 28  0  0  1  0  0  0  0  0999 V2000
    7.6581  -13.1023   16.7079 N   0  0  0  0  0  0  0  0  0  0  0  0
    8.0845  -14.3045   16.0762 C   0  0  0  0  0  0  0  0  0  0  0  0
    7.4978  -14.6474   15.0234 O   0  0  0  0  0  0  0  0  0  0  0  0
    9.2086  -15.1362   16.6549 C   0  0  0  0  0  0  0  0  0  0  0  0
    9.7565  -14.3879   17.8311 C   0  0  0  0  0  0  0  0  0  0  0  0
   10.0272  -15.2051   19.0420 C   0  0  2  0  0  0  0  0  0  0  0  0
   10.6164  -16.4717   18.6203 N   0  0  0  0  0  0  0  0  0  0  0  0
    8.9394  -15.3380   20.0114 C   0  0  0  0  0  0  0  0  0  0  0  0
    7.7603  -15.2889   19.6091 O   0  0  0  0  0  0  0  0  0  0  0  0
    6.7123  -16.5188   20.5951 C   0  0  0  0  0  0  0  0  0  0  0  0
    7.1750  -16.8653   22.0064 C   0  0  1  0  0  0  0  0  0  0  0  0
    7.9332  -18.0175   21.8757 O   0  0  0  0  0  0  0  0  0  0  0  0
    8.1360  -15.7279   22.4086 C   0  0  2  0  0  0  0  0  0  0  0  0
    9.1386  -15.5205   21.4206 N   0  0  0  0  0  0  0  0  0  0  0  0
    8.6181  -15.9504   23.7772 C   0  0  0  0  0  0  0  0  0  0  0  0
    9.8230  -16.2421   24.0468 O   0  0  0  0  0  0  0  0  0  0  0  0
    7.7662  -15.8488   24.9277 N   0  0  0  0  0  0  0  0  0  0  0  0
    8.2734  -15.9739   26.2923 C   0  0  1  0  0  0  0  0  0  0  0  0
    7.3652  -15.3316   27.2791 C   0  0  0  0  0  0  0  0  0  0  0  0
    7.1721  -13.9059   26.9745 C   0  0  0  0  0  0  0  0  0  0  0  0
    5.9500  -13.4591   26.4835 C   0  0  0  0  0  0  0  0  0  0  0  0
    5.7140  -12.1443   26.1844 C   0  0  0  0  0  0  0  0  0  0  0  0
    6.7082  -11.1735   26.3620 C   0  0  0  0  0  0  0  0  0  0  0  0
    7.9225  -11.6151   26.8504 C   0  0  0  0  0  0  0  0  0  0  0  0
    8.1549  -12.9398   27.1497 C   0  0  0  0  0  0  0  0  0  0  0  0
    8.5708  -17.3799   26.6305 C   0  0  0  0  0  0  0  0  0  0  0  0
    9.4287  -17.8206   27.6039 O   0  0  0  0  0  0  0  0  0  0  0  0
    7.9779  -18.3081   25.9542 O   0  0  0  0  0  0  0  0  0  0  0  0
  2  3  2  0
  2  1  1  0
  4  2  1  0
  5  4  1  0
  6  5  1  0
  6  7  1  6
  8  9  2  0
  8  6  1  0
 11 10  1  6
 11 13  1  0
 12 11  1  0
 13 14  1  6
 14  8  1  0
 15 13  1  0
 15 16  2  0
 17 15  1  0
 18 17  1  0
 18 19  1  1
 20 19  1  0
 20 21  2  0
 22 21  1  0
 23 22  2  0
 24 25  2  0
 24 23  1  0
 25 20  1  0
 26 18  1  0
 27 26  1  0
 28 26  2  0
M  END
$$$$
