QTF.pdb
     RDKit          3D

 28 28  0  0  1  0  0  0  0  0999 V2000
    6.8173  -19.5308   16.7939 N   0  0  0  0  0  0  0  0  0  0  0  0
    7.8740  -18.5911   16.6302 C   0  0  0  0  0  0  0  0  0  0  0  0
    8.8670  -18.9455   15.9532 O   0  0  0  0  0  0  0  0  0  0  0  0
    7.7978  -17.2125   17.2496 C   0  0  0  0  0  0  0  0  0  0  0  0
    9.1908  -16.8204   17.6363 C   0  0  0  0  0  0  0  0  0  0  0  0
    9.2948  -15.7499   18.6614 C   0  0  2  0  0  0  0  0  0  0  0  0
   10.6950  -15.6201   19.0510 N   0  0  0  0  0  0  0  0  0  0  0  0
    8.3586  -15.8112   19.7842 C   0  0  0  0  0  0  0  0  0  0  0  0
    7.1336  -15.7806   19.5537 O   0  0  0  0  0  0  0  0  0  0  0  0
    6.3239  -16.9578   20.7249 C   0  0  0  0  0  0  0  0  0  0  0  0
    6.8637  -17.1029   22.1439 C   0  0  1  0  0  0  0  0  0  0  0  0
    7.5489  -18.3071   22.1587 O   0  0  0  0  0  0  0  0  0  0  0  0
    7.9090  -15.9793   22.2968 C   0  0  2  0  0  0  0  0  0  0  0  0
    8.7596  -15.9019   21.1589 N   0  0  0  0  0  0  0  0  0  0  0  0
    8.5821  -16.1052   23.5954 C   0  0  0  0  0  0  0  0  0  0  0  0
    9.8295  -16.3060   23.7108 O   0  0  0  0  0  0  0  0  0  0  0  0
    7.8847  -16.0040   24.8456 N   0  0  0  0  0  0  0  0  0  0  0  0
    8.5771  -16.0114   26.1323 C   0  0  1  0  0  0  0  0  0  0  0  0
    7.8102  -15.2794   27.1751 C   0  0  0  0  0  0  0  0  0  0  0  0
    7.4554  -13.9260   26.7223 C   0  0  0  0  0  0  0  0  0  0  0  0
    8.3984  -12.9052   26.7765 C   0  0  0  0  0  0  0  0  0  0  0  0
    8.1239  -11.6280   26.3675 C   0  0  0  0  0  0  0  0  0  0  0  0
    6.8609  -11.2855   25.8677 C   0  0  0  0  0  0  0  0  0  0  0  0
    5.9230  -12.2982   25.8123 C   0  0  0  0  0  0  0  0  0  0  0  0
    6.2045  -13.5821   26.2256 C   0  0  0  0  0  0  0  0  0  0  0  0
    8.9276  -17.3838   26.5485 C   0  0  0  0  0  0  0  0  0  0  0  0
    8.5511  -18.5456   25.9271 O   0  0  0  0  0  0  0  0  0  0  0  0
    9.6600  -17.5328   27.6029 O   0  0  0  0  0  0  0  0  0  0  0  0
  2  3  2  0
  2  1  1  0
  4  2  1  0
  5  4  1  0
  6  5  1  0
  6  7  1  1
  8  9  2  0
  8  6  1  0
 11 10  1  6
 11 13  1  0
 12 11  1  0
 13 14  1  6
 14  8  1  0
 15 13  1  0
 15 16  2  0
 17 15  1  0
 18 17  1  0
 18 19  1  1
 20 19  1  0
 20 21  2  0
 22 21  1  0
 23 22  2  0
 24 25  2  0
 24 23  1  0
 25 20  1  0
 26 18  1  0
 27 26  1  0
 28 26  2  0
M  END
$$$$
