QTF.pdb
     RDKit          3D

 28 28  0  0  1  0  0  0  0  0999 V2000
    1.8556  -18.1037   22.7178 N   0  0  0  0  0  0  0  0  0  0  0  0
    2.1274  -19.3668   22.1204 C   0  0  0  0  0  0  0  0  0  0  0  0
    1.1710  -20.1658   21.9901 O   0  0  0  0  0  0  0  0  0  0  0  0
    3.5216  -19.7291   21.6567 C   0  0  0  0  0  0  0  0  0  0  0  0
    4.4119  -18.5663   21.9713 C   0  0  0  0  0  0  0  0  0  0  0  0
    5.3702  -18.1841   20.9020 C   0  0  2  0  0  0  0  0  0  0  0  0
    5.3132  -19.1940   19.8504 N   0  0  0  0  0  0  0  0  0  0  0  0
    6.7250  -17.8240   21.3210 C   0  0  0  0  0  0  0  0  0  0  0  0
    7.5468  -18.7312   21.5585 O   0  0  0  0  0  0  0  0  0  0  0  0
    8.8959  -15.5363   19.5374 C   0  0  0  0  0  0  0  0  0  0  0  0
    9.0310  -14.9592   20.9426 C   0  0  1  0  0  0  0  0  0  0  0  0
    8.1500  -13.8909   20.9910 O   0  0  0  0  0  0  0  0  0  0  0  0
    8.4801  -16.0501   21.8835 C   0  0  2  0  0  0  0  0  0  0  0  0
    7.1818  -16.4737   21.4846 N   0  0  0  0  0  0  0  0  0  0  0  0
    8.6133  -15.6117   23.2782 C   0  0  0  0  0  0  0  0  0  0  0  0
    8.1290  -14.5212   23.7093 O   0  0  0  0  0  0  0  0  0  0  0  0
    9.2976  -16.3856   24.2744 N   0  0  0  0  0  0  0  0  0  0  0  0
    9.2786  -16.0316   25.6919 C   0  0  1  0  0  0  0  0  0  0  0  0
    7.8909  -15.9344   26.2172 C   0  0  0  0  0  0  0  0  0  0  0  0
    7.4538  -14.5332   26.3081 C   0  0  0  0  0  0  0  0  0  0  0  0
    6.1906  -14.1681   25.8549 C   0  0  0  0  0  0  0  0  0  0  0  0
    5.7313  -12.8800   25.9160 C   0  0  0  0  0  0  0  0  0  0  0  0
    6.5249  -11.8547   26.4464 C   0  0  0  0  0  0  0  0  0  0  0  0
    7.7796  -12.2154   26.8978 C   0  0  0  0  0  0  0  0  0  0  0  0
    8.2371  -13.5134   26.8337 C   0  0  0  0  0  0  0  0  0  0  0  0
   10.1207  -16.9465   26.4878 C   0  0  0  0  0  0  0  0  0  0  0  0
   10.6820  -16.6828   27.7097 O   0  0  0  0  0  0  0  0  0  0  0  0
   10.3711  -18.1192   26.0056 O   0  0  0  0  0  0  0  0  0  0  0  0
  2  3  2  0
  2  1  1  0
  4  2  1  0
  5  4  1  0
  6  5  1  0
  6  7  1  6
  8  9  2  0
  8  6  1  0
 11 10  1  6
 11 13  1  0
 12 11  1  0
 13 14  1  6
 14  8  1  0
 15 13  1  0
 15 16  2  0
 17 15  1  0
 18 17  1  0
 18 19  1  1
 20 19  1  0
 20 21  2  0
 22 21  1  0
 23 22  2  0
 24 25  2  0
 24 23  1  0
 25 20  1  0
 26 18  1  0
 27 26  1  0
 28 26  2  0
M  END
$$$$
