QTF.pdb
     RDKit          3D

 28 28  0  0  1  0  0  0  0  0999 V2000
    9.0093  -14.1969   15.6033 N   0  0  0  0  0  0  0  0  0  0  0  0
    7.6448  -14.1566   16.0067 C   0  0  0  0  0  0  0  0  0  0  0  0
    6.7893  -14.6045   15.2081 O   0  0  0  0  0  0  0  0  0  0  0  0
    7.2434  -13.5957   17.3537 C   0  0  0  0  0  0  0  0  0  0  0  0
    8.5002  -13.1843   18.0573 C   0  0  0  0  0  0  0  0  0  0  0  0
    9.1640  -14.2454   18.8578 C   0  0  2  0  0  0  0  0  0  0  0  0
    9.2518  -15.4513   18.0410 N   0  0  0  0  0  0  0  0  0  0  0  0
    8.6602  -14.4691   20.2132 C   0  0  0  0  0  0  0  0  0  0  0  0
    8.6051  -13.5077   21.0052 O   0  0  0  0  0  0  0  0  0  0  0  0
    5.9673  -17.3260   20.9348 C   0  0  0  0  0  0  0  0  0  0  0  0
    7.0077  -17.3968   22.0476 C   0  0  1  0  0  0  0  0  0  0  0  0
    7.9173  -18.3610   21.6442 O   0  0  0  0  0  0  0  0  0  0  0  0
    7.7347  -16.0372   22.0099 C   0  0  2  0  0  0  0  0  0  0  0  0
    8.2202  -15.7431   20.7053 N   0  0  0  0  0  0  0  0  0  0  0  0
    8.7239  -15.9766   23.0930 C   0  0  0  0  0  0  0  0  0  0  0  0
    9.9677  -16.1384   22.9030 O   0  0  0  0  0  0  0  0  0  0  0  0
    8.3661  -15.7211   24.4592 N   0  0  0  0  0  0  0  0  0  0  0  0
    9.3359  -15.7919   25.5499 C   0  0  1  0  0  0  0  0  0  0  0  0
    9.6873  -14.4414   26.0635 C   0  0  0  0  0  0  0  0  0  0  0  0
    8.4915  -13.5962   26.1984 C   0  0  0  0  0  0  0  0  0  0  0  0
    7.9340  -13.3754   27.4533 C   0  0  0  0  0  0  0  0  0  0  0  0
    6.8231  -12.5972   27.6379 C   0  0  0  0  0  0  0  0  0  0  0  0
    6.1871  -11.9777   26.5543 C   0  0  0  0  0  0  0  0  0  0  0  0
    6.7397  -12.1951   25.3071 C   0  0  0  0  0  0  0  0  0  0  0  0
    7.8579  -12.9796   25.1269 C   0  0  0  0  0  0  0  0  0  0  0  0
    8.8794  -16.7015   26.6195 C   0  0  0  0  0  0  0  0  0  0  0  0
    7.6800  -17.3620   26.6714 O   0  0  0  0  0  0  0  0  0  0  0  0
    9.6701  -16.9111   27.6201 O   0  0  0  0  0  0  0  0  0  0  0  0
  2  3  2  0
  2  1  1  0
  4  2  1  0
  5  4  1  0
  6  5  1  0
  6  7  1  6
  8  9  2  0
  8  6  1  0
 11 10  1  6
 11 13  1  0
 12 11  1  0
 13 14  1  6
 14  8  1  0
 15 13  1  0
 15 16  2  0
 17 15  1  0
 18 17  1  0
 18 19  1  1
 20 19  1  0
 20 21  2  0
 22 21  1  0
 23 22  2  0
 24 25  2  0
 24 23  1  0
 25 20  1  0
 26 18  1  0
 27 26  1  0
 28 26  2  0
M  END
$$$$
