QTF.pdb
     RDKit          3D

 28 28  0  0  1  0  0  0  0  0999 V2000
    8.6755  -12.2163   16.7825 N   0  0  0  0  0  0  0  0  0  0  0  0
    8.4083  -13.5971   17.0022 C   0  0  0  0  0  0  0  0  0  0  0  0
    9.1618  -14.4302   16.4469 O   0  0  0  0  0  0  0  0  0  0  0  0
    7.2572  -14.0415   17.8782 C   0  0  0  0  0  0  0  0  0  0  0  0
    7.5439  -13.5616   19.2679 C   0  0  0  0  0  0  0  0  0  0  0  0
    8.4121  -14.4472   20.0862 C   0  0  2  0  0  0  0  0  0  0  0  0
    8.9202  -15.5132   19.2292 N   0  0  0  0  0  0  0  0  0  0  0  0
    7.8744  -14.9064   21.3671 C   0  0  0  0  0  0  0  0  0  0  0  0
    7.3030  -14.0867   22.1130 O   0  0  0  0  0  0  0  0  0  0  0  0
    6.3449  -18.5086   21.9090 C   0  0  0  0  0  0  0  0  0  0  0  0
    7.3183  -18.2818   23.0610 C   0  0  1  0  0  0  0  0  0  0  0  0
    8.5088  -18.8674   22.6613 O   0  0  0  0  0  0  0  0  0  0  0  0
    7.5492  -16.7575   23.1025 C   0  0  2  0  0  0  0  0  0  0  0  0
    7.9637  -16.2596   21.8358 N   0  0  0  0  0  0  0  0  0  0  0  0
    8.4136  -16.4203   24.2402 C   0  0  0  0  0  0  0  0  0  0  0  0
    9.6149  -16.0354   24.1053 O   0  0  0  0  0  0  0  0  0  0  0  0
    7.9683  -16.4910   25.6027 N   0  0  0  0  0  0  0  0  0  0  0  0
    8.8449  -16.1846   26.7308 C   0  0  1  0  0  0  0  0  0  0  0  0
    8.1650  -15.3316   27.7414 C   0  0  0  0  0  0  0  0  0  0  0  0
    7.6881  -14.0758   27.1427 C   0  0  0  0  0  0  0  0  0  0  0  0
    6.3744  -13.9725   26.6981 C   0  0  0  0  0  0  0  0  0  0  0  0
    5.8766  -12.8286   26.1346 C   0  0  0  0  0  0  0  0  0  0  0  0
    6.6802  -11.6919   25.9778 C   0  0  0  0  0  0  0  0  0  0  0  0
    7.9851  -11.7922   26.4195 C   0  0  0  0  0  0  0  0  0  0  0  0
    8.4813  -12.9462   26.9858 C   0  0  0  0  0  0  0  0  0  0  0  0
    9.4148  -17.4125   27.3201 C   0  0  0  0  0  0  0  0  0  0  0  0
    9.0776  -18.7020   27.0024 O   0  0  0  0  0  0  0  0  0  0  0  0
   10.3229  -17.2867   28.2312 O   0  0  0  0  0  0  0  0  0  0  0  0
  2  3  2  0
  2  1  1  0
  4  2  1  0
  5  4  1  0
  6  5  1  0
  6  7  1  6
  8  9  2  0
  8  6  1  0
 11 10  1  6
 11 13  1  0
 12 11  1  0
 13 14  1  6
 14  8  1  0
 15 13  1  0
 15 16  2  0
 17 15  1  0
 18 17  1  0
 18 19  1  1
 20 19  1  0
 20 21  2  0
 22 21  1  0
 23 22  2  0
 24 25  2  0
 24 23  1  0
 25 20  1  0
 26 18  1  0
 27 26  1  0
 28 26  2  0
M  END
$$$$
