QTF.pdb
     RDKit          3D

 28 28  0  0  1  0  0  0  0  0999 V2000
    7.1579  -14.8898   15.9085 N   0  0  0  0  0  0  0  0  0  0  0  0
    8.2216  -13.9442   15.9308 C   0  0  0  0  0  0  0  0  0  0  0  0
    9.1297  -14.0709   15.0767 O   0  0  0  0  0  0  0  0  0  0  0  0
    8.2517  -12.8244   16.9482 C   0  0  0  0  0  0  0  0  0  0  0  0
    7.7644  -13.3893   18.2470 C   0  0  0  0  0  0  0  0  0  0  0  0
    8.7714  -14.1446   19.0364 C   0  0  2  0  0  0  0  0  0  0  0  0
    9.3280  -15.1938   18.1888 N   0  0  0  0  0  0  0  0  0  0  0  0
    8.3702  -14.5943   20.3696 C   0  0  0  0  0  0  0  0  0  0  0  0
    8.0979  -13.7435   21.2394 O   0  0  0  0  0  0  0  0  0  0  0  0
    6.5490  -18.0980   20.8561 C   0  0  0  0  0  0  0  0  0  0  0  0
    7.5753  -17.9799   21.9780 C   0  0  1  0  0  0  0  0  0  0  0  0
    8.6977  -18.6552   21.5264 O   0  0  0  0  0  0  0  0  0  0  0  0
    7.9366  -16.4819   22.0408 C   0  0  2  0  0  0  0  0  0  0  0  0
    8.2698  -15.9729   20.7547 N   0  0  0  0  0  0  0  0  0  0  0  0
    8.9301  -16.2580   23.0982 C   0  0  0  0  0  0  0  0  0  0  0  0
   10.1766  -16.1896   22.8722 O   0  0  0  0  0  0  0  0  0  0  0  0
    8.5727  -16.0901   24.4779 N   0  0  0  0  0  0  0  0  0  0  0  0
    9.5626  -15.8117   25.5160 C   0  0  1  0  0  0  0  0  0  0  0  0
    9.7882  -14.3517   25.6852 C   0  0  0  0  0  0  0  0  0  0  0  0
    8.5435  -13.6606   26.0534 C   0  0  0  0  0  0  0  0  0  0  0  0
    7.6218  -13.3172   25.0700 C   0  0  0  0  0  0  0  0  0  0  0  0
    6.4472  -12.6749   25.3553 C   0  0  0  0  0  0  0  0  0  0  0  0
    6.1144  -12.3286   26.6712 C   0  0  0  0  0  0  0  0  0  0  0  0
    7.0282  -12.6694   27.6495 C   0  0  0  0  0  0  0  0  0  0  0  0
    8.2093  -13.3158   27.3569 C   0  0  0  0  0  0  0  0  0  0  0  0
    9.2154  -16.4802   26.7858 C   0  0  0  0  0  0  0  0  0  0  0  0
    8.0717  -17.1875   27.0488 O   0  0  0  0  0  0  0  0  0  0  0  0
   10.0559  -16.4037   27.7646 O   0  0  0  0  0  0  0  0  0  0  0  0
  2  3  2  0
  2  1  1  0
  4  2  1  0
  5  4  1  0
  6  5  1  0
  6  7  1  6
  8  9  2  0
  8  6  1  0
 11 10  1  6
 11 13  1  0
 12 11  1  0
 13 14  1  6
 14  8  1  0
 15 13  1  0
 15 16  2  0
 17 15  1  0
 18 17  1  0
 18 19  1  1
 20 19  1  0
 20 21  2  0
 22 21  1  0
 23 22  2  0
 24 25  2  0
 24 23  1  0
 25 20  1  0
 26 18  1  0
 27 26  1  0
 28 26  2  0
M  END
$$$$
