QTF.pdb
     RDKit          3D

 28 28  0  0  1  0  0  0  0  0999 V2000
   13.5978  -14.5527   21.3929 N   0  0  0  0  0  0  0  0  0  0  0  0
   13.5571  -14.7994   19.9916 C   0  0  0  0  0  0  0  0  0  0  0  0
   14.2918  -15.7086   19.5402 O   0  0  0  0  0  0  0  0  0  0  0  0
   12.6560  -13.9937   19.0811 C   0  0  0  0  0  0  0  0  0  0  0  0
   11.9360  -14.9635   18.1953 C   0  0  0  0  0  0  0  0  0  0  0  0
   10.4536  -14.9445   18.2945 C   0  0  2  0  0  0  0  0  0  0  0  0
    9.9169  -14.3797   17.0608 N   0  0  0  0  0  0  0  0  0  0  0  0
    9.8761  -14.3843   19.5166 C   0  0  0  0  0  0  0  0  0  0  0  0
    9.9630  -13.1573   19.7204 O   0  0  0  0  0  0  0  0  0  0  0  0
    6.6380  -14.0736   20.4920 C   0  0  0  0  0  0  0  0  0  0  0  0
    7.1046  -14.8285   21.7322 C   0  0  1  0  0  0  0  0  0  0  0  0
    6.8099  -16.1603   21.4884 O   0  0  0  0  0  0  0  0  0  0  0  0
    8.6409  -14.6926   21.7354 C   0  0  2  0  0  0  0  0  0  0  0  0
    9.2072  -15.1641   20.5183 N   0  0  0  0  0  0  0  0  0  0  0  0
    9.1852  -15.2776   22.9669 C   0  0  0  0  0  0  0  0  0  0  0  0
    9.9909  -16.2576   22.9694 O   0  0  0  0  0  0  0  0  0  0  0  0
    8.8565  -14.7835   24.2736 N   0  0  0  0  0  0  0  0  0  0  0  0
    9.3004  -15.4472   25.4973 C   0  0  1  0  0  0  0  0  0  0  0  0
    9.2338  -14.5386   26.6725 C   0  0  0  0  0  0  0  0  0  0  0  0
    8.0249  -13.7023   26.6301 C   0  0  0  0  0  0  0  0  0  0  0  0
    8.1219  -12.3567   26.2919 C   0  0  0  0  0  0  0  0  0  0  0  0
    7.0306  -11.5322   26.2354 C   0  0  0  0  0  0  0  0  0  0  0  0
    5.7462  -12.0136   26.5199 C   0  0  0  0  0  0  0  0  0  0  0  0
    5.6477  -13.3500   26.8553 C   0  0  0  0  0  0  0  0  0  0  0  0
    6.7494  -14.1755   26.9110 C   0  0  0  0  0  0  0  0  0  0  0  0
    8.5720  -16.7121   25.7197 C   0  0  0  0  0  0  0  0  0  0  0  0
    8.9070  -17.7007   26.6072 O   0  0  0  0  0  0  0  0  0  0  0  0
    7.5099  -16.9353   25.0179 O   0  0  0  0  0  0  0  0  0  0  0  0
  2  3  2  0
  2  1  1  0
  4  2  1  0
  5  4  1  0
  6  5  1  0
  6  7  1  6
  8  9  2  0
  8  6  1  0
 11 10  1  6
 11 13  1  0
 12 11  1  0
 13 14  1  6
 14  8  1  0
 15 13  1  0
 15 16  2  0
 17 15  1  0
 18 17  1  0
 18 19  1  1
 20 19  1  0
 20 21  2  0
 22 21  1  0
 23 22  2  0
 24 25  2  0
 24 23  1  0
 25 20  1  0
 26 18  1  0
 27 26  1  0
 28 26  2  0
M  END
$$$$
