AFN.pdb
     RDKit          3D

 25 25  0  0  1  0  0  0  0  0999 V2000
    7.9849  -18.3553   19.6820 C   0  0  0  0  0  0  0  0  0  0  0  0
    7.9444  -16.8801   19.4038 C   0  0  2  0  0  0  0  0  0  0  0  0
    8.6730  -16.4855   18.2354 N   0  0  0  0  0  0  0  0  0  0  0  0
    8.3196  -16.1196   20.6192 C   0  0  0  0  0  0  0  0  0  0  0  0
    9.5240  -15.8257   20.7893 O   0  0  0  0  0  0  0  0  0  0  0  0
    7.3482  -15.7276   21.5757 N   0  0  0  0  0  0  0  0  0  0  0  0
    7.7231  -15.0025   22.7931 C   0  0  1  0  0  0  0  0  0  0  0  0
    6.5338  -14.3100   23.3890 C   0  0  0  0  0  0  0  0  0  0  0  0
    6.8356  -13.5730   24.6335 C   0  0  0  0  0  0  0  0  0  0  0  0
    6.5038  -14.0552   25.8725 C   0  0  0  0  0  0  0  0  0  0  0  0
    6.8210  -13.3136   27.0066 C   0  0  0  0  0  0  0  0  0  0  0  0
    7.4601  -12.1059   26.9167 C   0  0  0  0  0  0  0  0  0  0  0  0
    7.8040  -11.6011   25.6672 C   0  0  0  0  0  0  0  0  0  0  0  0
    7.4839  -12.3461   24.5558 C   0  0  0  0  0  0  0  0  0  0  0  0
    8.3821  -15.9661   23.6992 C   0  0  0  0  0  0  0  0  0  0  0  0
    7.8820  -17.1185   23.8968 O   0  0  0  0  0  0  0  0  0  0  0  0
   13.2850  -18.2921   24.8497 N   0  0  0  0  0  0  0  0  0  0  0  0
   12.7602  -17.2141   25.5780 C   0  0  0  0  0  0  0  0  0  0  0  0
   13.0262  -17.0711   26.7967 O   0  0  0  0  0  0  0  0  0  0  0  0
   11.8819  -16.2298   24.9082 C   0  0  0  0  0  0  0  0  0  0  0  0
   10.4200  -16.6333   25.0471 C   0  0  2  0  0  0  0  0  0  0  0  0
    9.5838  -15.6569   24.3804 N   0  0  0  0  0  0  0  0  0  0  0  0
   10.0557  -16.7737   26.4792 C   0  0  0  0  0  0  0  0  0  0  0  0
    9.7029  -15.6889   27.2587 O   0  0  0  0  0  0  0  0  0  0  0  0
   10.0705  -17.9185   26.9945 O   0  0  0  0  0  0  0  0  0  0  0  0
  2  1  1  1
  2  4  1  0
  2  3  1  0
  4  5  2  0
  6  7  1  0
  6  4  1  0
  7  8  1  1
  9  8  1  0
  9 10  2  0
 11 10  1  0
 12 11  2  0
 13 14  2  0
 13 12  1  0
 14  9  1  0
 15 22  1  0
 15  7  1  0
 16 15  2  0
 18 19  2  0
 18 17  1  0
 21 20  1  1
 20 18  1  0
 21 23  1  0
 21 22  1  0
 23 24  1  0
 25 23  2  0
M  END
$$$$
