AFN.pdb
     RDKit          3D

 25 25  0  0  1  0  0  0  0  0999 V2000
    9.1544  -18.5168   20.2982 C   0  0  0  0  0  0  0  0  0  0  0  0
    9.4399  -17.0577   20.0862 C   0  0  2  0  0  0  0  0  0  0  0  0
   10.5795  -16.7997   19.2577 N   0  0  0  0  0  0  0  0  0  0  0  0
    9.4831  -16.3503   21.3877 C   0  0  0  0  0  0  0  0  0  0  0  0
   10.5842  -16.2479   21.9734 O   0  0  0  0  0  0  0  0  0  0  0  0
    8.3128  -15.7975   21.9682 N   0  0  0  0  0  0  0  0  0  0  0  0
    8.3594  -15.0758   23.2432 C   0  0  1  0  0  0  0  0  0  0  0  0
    7.1354  -14.2276   23.4209 C   0  0  0  0  0  0  0  0  0  0  0  0
    7.0572  -13.5638   24.7385 C   0  0  0  0  0  0  0  0  0  0  0  0
    7.8364  -12.4851   25.0658 C   0  0  0  0  0  0  0  0  0  0  0  0
    7.7107  -11.9020   26.3231 C   0  0  0  0  0  0  0  0  0  0  0  0
    6.8226  -12.3811   27.2489 C   0  0  0  0  0  0  0  0  0  0  0  0
    6.0240  -13.4753   26.9339 C   0  0  0  0  0  0  0  0  0  0  0  0
    6.1600  -14.0405   25.6869 C   0  0  0  0  0  0  0  0  0  0  0  0
    8.5667  -16.0750   24.3121 C   0  0  0  0  0  0  0  0  0  0  0  0
    7.8913  -17.1522   24.3342 O   0  0  0  0  0  0  0  0  0  0  0  0
   13.1106  -18.5969   26.9178 N   0  0  0  0  0  0  0  0  0  0  0  0
   11.7829  -18.6299   26.4661 C   0  0  0  0  0  0  0  0  0  0  0  0
   11.0205  -19.5771   26.7791 O   0  0  0  0  0  0  0  0  0  0  0  0
   11.2679  -17.5383   25.6106 C   0  0  0  0  0  0  0  0  0  0  0  0
   10.0042  -16.9367   26.2110 C   0  0  2  0  0  0  0  0  0  0  0  0
    9.5129  -15.8833   25.3472 N   0  0  0  0  0  0  0  0  0  0  0  0
   10.2708  -16.4352   27.5824 C   0  0  0  0  0  0  0  0  0  0  0  0
   10.3950  -17.2842   28.6653 O   0  0  0  0  0  0  0  0  0  0  0  0
   10.3862  -15.1975   27.7588 O   0  0  0  0  0  0  0  0  0  0  0  0
  2  1  1  1
  2  4  1  0
  2  3  1  0
  4  5  2  0
  6  7  1  0
  6  4  1  0
  7  8  1  1
  9  8  1  0
  9 10  2  0
 11 10  1  0
 12 11  2  0
 13 14  2  0
 13 12  1  0
 14  9  1  0
 15 22  1  0
 15  7  1  0
 16 15  2  0
 18 19  2  0
 18 17  1  0
 21 20  1  6
 20 18  1  0
 21 23  1  0
 21 22  1  0
 23 24  1  0
 25 23  2  0
M  END
$$$$
