AFN.pdb
     RDKit          3D

 25 25  0  0  1  0  0  0  0  0999 V2000
    8.8610  -19.6609   18.2333 C   0  0  0  0  0  0  0  0  0  0  0  0
    8.8665  -18.1660   18.0906 C   0  0  2  0  0  0  0  0  0  0  0  0
    9.5496  -17.6928   16.9239 N   0  0  0  0  0  0  0  0  0  0  0  0
    9.3342  -17.5336   19.3466 C   0  0  0  0  0  0  0  0  0  0  0  0
   10.5336  -17.1859   19.4272 O   0  0  0  0  0  0  0  0  0  0  0  0
    8.4555  -17.3213   20.4397 N   0  0  0  0  0  0  0  0  0  0  0  0
    8.8961  -16.6222   21.6503 C   0  0  1  0  0  0  0  0  0  0  0  0
    7.8246  -15.7020   22.1546 C   0  0  0  0  0  0  0  0  0  0  0  0
    7.5309  -14.5752   21.2452 C   0  0  0  0  0  0  0  0  0  0  0  0
    6.6208  -14.6714   20.2252 C   0  0  0  0  0  0  0  0  0  0  0  0
    6.3863  -13.5707   19.4066 C   0  0  0  0  0  0  0  0  0  0  0  0
    7.0459  -12.3854   19.5944 C   0  0  0  0  0  0  0  0  0  0  0  0
    7.9732  -12.2700   20.6245 C   0  0  0  0  0  0  0  0  0  0  0  0
    8.1936  -13.3669   21.4251 C   0  0  0  0  0  0  0  0  0  0  0  0
    9.3246  -17.6474   22.6246 C   0  0  0  0  0  0  0  0  0  0  0  0
    8.9198  -18.8486   22.5238 O   0  0  0  0  0  0  0  0  0  0  0  0
   13.5464  -20.1990   22.9163 N   0  0  0  0  0  0  0  0  0  0  0  0
   13.5717  -18.8046   23.0680 C   0  0  0  0  0  0  0  0  0  0  0  0
   14.6224  -18.2151   23.4217 O   0  0  0  0  0  0  0  0  0  0  0  0
   12.3491  -18.0126   22.8094 C   0  0  0  0  0  0  0  0  0  0  0  0
   11.4054  -18.0775   24.0029 C   0  0  2  0  0  0  0  0  0  0  0  0
   10.1931  -17.3454   23.7008 N   0  0  0  0  0  0  0  0  0  0  0  0
   12.0717  -17.5477   25.2189 C   0  0  0  0  0  0  0  0  0  0  0  0
   12.1224  -16.1960   25.5006 O   0  0  0  0  0  0  0  0  0  0  0  0
   12.6056  -18.3589   26.0146 O   0  0  0  0  0  0  0  0  0  0  0  0
  2  1  1  1
  2  4  1  0
  2  3  1  0
  4  5  2  0
  6  7  1  0
  6  4  1  0
  7  8  1  1
  9  8  1  0
  9 10  2  0
 11 10  1  0
 12 11  2  0
 13 14  2  0
 13 12  1  0
 14  9  1  0
 15 22  1  0
 15  7  1  0
 16 15  2  0
 18 19  2  0
 18 17  1  0
 21 20  1  6
 20 18  1  0
 21 23  1  0
 21 22  1  0
 23 24  1  0
 25 23  2  0
M  END
$$$$
