AFN.pdb
     RDKit          3D

 25 25  0  0  1  0  0  0  0  0999 V2000
    9.8787  -16.7093   18.2884 C   0  0  0  0  0  0  0  0  0  0  0  0
   10.1187  -17.5326   19.5213 C   0  0  2  0  0  0  0  0  0  0  0  0
    9.0963  -18.5003   19.7859 N   0  0  0  0  0  0  0  0  0  0  0  0
   10.4116  -16.6513   20.6761 C   0  0  0  0  0  0  0  0  0  0  0  0
   11.3891  -15.8740   20.5989 O   0  0  0  0  0  0  0  0  0  0  0  0
    9.6124  -16.6773   21.8478 N   0  0  0  0  0  0  0  0  0  0  0  0
    9.8147  -15.7129   22.9329 C   0  0  1  0  0  0  0  0  0  0  0  0
    8.5360  -15.0001   23.2583 C   0  0  0  0  0  0  0  0  0  0  0  0
    7.9680  -14.2472   22.1210 C   0  0  0  0  0  0  0  0  0  0  0  0
    6.9957  -14.7668   21.3072 C   0  0  0  0  0  0  0  0  0  0  0  0
    6.4989  -14.0033   20.2551 C   0  0  0  0  0  0  0  0  0  0  0  0
    6.9594  -12.7373   20.0095 C   0  0  0  0  0  0  0  0  0  0  0  0
    7.9463  -12.1941   20.8251 C   0  0  0  0  0  0  0  0  0  0  0  0
    8.4270  -12.9613   21.8610 C   0  0  0  0  0  0  0  0  0  0  0  0
   10.4099  -16.4433   24.0714 C   0  0  0  0  0  0  0  0  0  0  0  0
   10.2351  -16.0401   25.2646 O   0  0  0  0  0  0  0  0  0  0  0  0
    9.7825  -20.7143   23.5398 N   0  0  0  0  0  0  0  0  0  0  0  0
   10.2865  -20.1348   24.7137 C   0  0  0  0  0  0  0  0  0  0  0  0
    9.5330  -19.9016   25.6906 O   0  0  0  0  0  0  0  0  0  0  0  0
   11.7225  -19.7920   24.8088 C   0  0  0  0  0  0  0  0  0  0  0  0
   11.9066  -18.2870   24.9521 C   0  0  2  0  0  0  0  0  0  0  0  0
   11.1916  -17.6095   23.8905 N   0  0  0  0  0  0  0  0  0  0  0  0
   13.3495  -17.9390   24.9439 C   0  0  0  0  0  0  0  0  0  0  0  0
   13.9051  -17.1261   23.9746 O   0  0  0  0  0  0  0  0  0  0  0  0
   14.0853  -18.4015   25.8500 O   0  0  0  0  0  0  0  0  0  0  0  0
  2  1  1  6
  2  4  1  0
  2  3  1  0
  4  5  2  0
  6  7  1  0
  6  4  1  0
  7  8  1  1
  9  8  1  0
  9 10  2  0
 11 10  1  0
 12 11  2  0
 13 14  2  0
 13 12  1  0
 14  9  1  0
 15 22  1  0
 15  7  1  0
 16 15  2  0
 18 19  2  0
 18 17  1  0
 21 20  1  6
 20 18  1  0
 21 23  1  0
 21 22  1  0
 23 24  1  0
 25 23  2  0
M  END
$$$$
