AFN.pdb
     RDKit          3D

 25 25  0  0  1  0  0  0  0  0999 V2000
    8.8632  -18.1604   19.8887 C   0  0  0  0  0  0  0  0  0  0  0  0
    8.6420  -16.6994   19.6208 C   0  0  2  0  0  0  0  0  0  0  0  0
    9.3426  -16.2029   18.4743 N   0  0  0  0  0  0  0  0  0  0  0  0
    8.8877  -15.9105   20.8510 C   0  0  0  0  0  0  0  0  0  0  0  0
   10.0474  -15.4941   21.0695 O   0  0  0  0  0  0  0  0  0  0  0  0
    7.8437  -15.6265   21.7684 N   0  0  0  0  0  0  0  0  0  0  0  0
    8.0988  -14.9015   23.0165 C   0  0  1  0  0  0  0  0  0  0  0  0
    6.8642  -14.1877   23.4805 C   0  0  0  0  0  0  0  0  0  0  0  0
    7.0384  -13.4657   24.7577 C   0  0  0  0  0  0  0  0  0  0  0  0
    7.8759  -12.3887   24.8854 C   0  0  0  0  0  0  0  0  0  0  0  0
    7.9913  -11.7491   26.1160 C   0  0  0  0  0  0  0  0  0  0  0  0
    7.2852  -12.1708   27.2109 C   0  0  0  0  0  0  0  0  0  0  0  0
    6.4308  -13.2625   27.0996 C   0  0  0  0  0  0  0  0  0  0  0  0
    6.3275  -13.8838   25.8765 C   0  0  0  0  0  0  0  0  0  0  0  0
    8.6424  -15.8710   23.9904 C   0  0  0  0  0  0  0  0  0  0  0  0
    8.0613  -16.9839   24.1926 O   0  0  0  0  0  0  0  0  0  0  0  0
   11.4499  -17.5140   23.4603 N   0  0  0  0  0  0  0  0  0  0  0  0
   12.3692  -17.0622   24.4189 C   0  0  0  0  0  0  0  0  0  0  0  0
   13.6051  -17.1587   24.2202 O   0  0  0  0  0  0  0  0  0  0  0  0
   11.8832  -16.4635   25.6815 C   0  0  0  0  0  0  0  0  0  0  0  0
   10.3619  -16.4982   25.7411 C   0  0  2  0  0  0  0  0  0  0  0  0
    9.8184  -15.6107   24.7341 N   0  0  0  0  0  0  0  0  0  0  0  0
    9.8888  -16.1332   27.0999 C   0  0  0  0  0  0  0  0  0  0  0  0
   10.1422  -14.8958   27.6597 O   0  0  0  0  0  0  0  0  0  0  0  0
    9.2372  -16.9808   27.7582 O   0  0  0  0  0  0  0  0  0  0  0  0
  2  1  1  1
  2  4  1  0
  2  3  1  0
  4  5  2  0
  6  7  1  0
  6  4  1  0
  7  8  1  1
  9  8  1  0
  9 10  2  0
 11 10  1  0
 12 11  2  0
 13 14  2  0
 13 12  1  0
 14  9  1  0
 15 22  1  0
 15  7  1  0
 16 15  2  0
 18 19  2  0
 18 17  1  0
 21 20  1  1
 20 18  1  0
 21 23  1  0
 21 22  1  0
 23 24  1  0
 25 23  2  0
M  END
$$$$
