AFN.pdb
     RDKit          3D

 25 25  0  0  1  0  0  0  0  0999 V2000
    8.8590  -18.5781   19.9235 C   0  0  0  0  0  0  0  0  0  0  0  0
    8.7957  -17.1038   19.6447 C   0  0  2  0  0  0  0  0  0  0  0  0
    9.6296  -16.6778   18.5608 N   0  0  0  0  0  0  0  0  0  0  0  0
    9.0125  -16.3369   20.8940 C   0  0  0  0  0  0  0  0  0  0  0  0
   10.1848  -16.0359   21.2119 O   0  0  0  0  0  0  0  0  0  0  0  0
    7.9274  -15.9466   21.7201 N   0  0  0  0  0  0  0  0  0  0  0  0
    8.1357  -15.1375   22.9244 C   0  0  1  0  0  0  0  0  0  0  0  0
    6.8733  -14.4287   23.3157 C   0  0  0  0  0  0  0  0  0  0  0  0
    6.9783  -13.6838   24.5872 C   0  0  0  0  0  0  0  0  0  0  0  0
    6.4291  -14.1426   25.7558 C   0  0  0  0  0  0  0  0  0  0  0  0
    6.5680  -13.3948   26.9213 C   0  0  0  0  0  0  0  0  0  0  0  0
    7.2436  -12.2038   26.9314 C   0  0  0  0  0  0  0  0  0  0  0  0
    7.8072  -11.7227   25.7544 C   0  0  0  0  0  0  0  0  0  0  0  0
    7.6614  -12.4736   24.6109 C   0  0  0  0  0  0  0  0  0  0  0  0
    8.6811  -16.0285   23.9696 C   0  0  0  0  0  0  0  0  0  0  0  0
    8.1743  -17.1768   24.1736 O   0  0  0  0  0  0  0  0  0  0  0  0
   12.2806  -18.3090   26.7871 N   0  0  0  0  0  0  0  0  0  0  0  0
   12.8883  -17.3214   25.9974 C   0  0  0  0  0  0  0  0  0  0  0  0
   14.1381  -17.2599   25.8936 O   0  0  0  0  0  0  0  0  0  0  0  0
   12.0523  -16.3376   25.2750 C   0  0  0  0  0  0  0  0  0  0  0  0
   10.5754  -16.5773   25.5588 C   0  0  2  0  0  0  0  0  0  0  0  0
    9.7775  -15.6517   24.7818 N   0  0  0  0  0  0  0  0  0  0  0  0
   10.2996  -16.4462   27.0113 C   0  0  0  0  0  0  0  0  0  0  0  0
    9.3696  -15.5523   27.5061 O   0  0  0  0  0  0  0  0  0  0  0  0
   10.9355  -17.1740   27.8128 O   0  0  0  0  0  0  0  0  0  0  0  0
  2  1  1  1
  2  4  1  0
  2  3  1  0
  4  5  2  0
  6  7  1  0
  6  4  1  0
  7  8  1  1
  9  8  1  0
  9 10  2  0
 11 10  1  0
 12 11  2  0
 13 14  2  0
 13 12  1  0
 14  9  1  0
 15 22  1  0
 15  7  1  0
 16 15  2  0
 18 19  2  0
 18 17  1  0
 21 20  1  1
 20 18  1  0
 21 23  1  0
 21 22  1  0
 23 24  1  0
 25 23  2  0
M  END
$$$$
