AFN.pdb
     RDKit          3D

 25 25  0  0  1  0  0  0  0  0999 V2000
    7.5029  -13.0227   20.2221 C   0  0  0  0  0  0  0  0  0  0  0  0
    7.6830  -14.4122   20.7626 C   0  0  2  0  0  0  0  0  0  0  0  0
    6.4612  -15.1456   20.9081 N   0  0  0  0  0  0  0  0  0  0  0  0
    8.5029  -14.3790   21.9966 C   0  0  0  0  0  0  0  0  0  0  0  0
    9.6230  -13.8228   21.9523 O   0  0  0  0  0  0  0  0  0  0  0  0
    8.0428  -14.9598   23.2062 N   0  0  0  0  0  0  0  0  0  0  0  0
    8.7970  -14.8227   24.4556 C   0  0  1  0  0  0  0  0  0  0  0  0
    7.8771  -14.8506   25.6397 C   0  0  0  0  0  0  0  0  0  0  0  0
    7.2730  -13.5398   25.9554 C   0  0  0  0  0  0  0  0  0  0  0  0
    5.9238  -13.3745   26.1290 C   0  0  0  0  0  0  0  0  0  0  0  0
    5.4184  -12.1133   26.4299 C   0  0  0  0  0  0  0  0  0  0  0  0
    6.2395  -11.0249   26.5578 C   0  0  0  0  0  0  0  0  0  0  0  0
    7.6114  -11.1741   26.3846 C   0  0  0  0  0  0  0  0  0  0  0  0
    8.0954  -12.4272   26.0877 C   0  0  0  0  0  0  0  0  0  0  0  0
    9.8338  -15.8757   24.4666 C   0  0  0  0  0  0  0  0  0  0  0  0
   10.5374  -16.0836   25.5052 O   0  0  0  0  0  0  0  0  0  0  0  0
   12.8399  -19.7998   22.9884 N   0  0  0  0  0  0  0  0  0  0  0  0
   12.0692  -19.4890   21.8581 C   0  0  0  0  0  0  0  0  0  0  0  0
   12.1815  -20.1556   20.8001 O   0  0  0  0  0  0  0  0  0  0  0  0
   11.1102  -18.3635   21.9066 C   0  0  0  0  0  0  0  0  0  0  0  0
   11.1044  -17.7228   23.2882 C   0  0  2  0  0  0  0  0  0  0  0  0
   10.0895  -16.6910   23.3381 N   0  0  0  0  0  0  0  0  0  0  0  0
   12.4474  -17.1805   23.6129 C   0  0  0  0  0  0  0  0  0  0  0  0
   13.0093  -16.1346   22.9063 O   0  0  0  0  0  0  0  0  0  0  0  0
   13.0901  -17.6929   24.5619 O   0  0  0  0  0  0  0  0  0  0  0  0
  2  1  1  1
  2  4  1  0
  2  3  1  0
  4  5  2  0
  6  7  1  0
  6  4  1  0
  7  8  1  1
  9  8  1  0
  9 10  2  0
 11 10  1  0
 12 11  2  0
 13 14  2  0
 13 12  1  0
 14  9  1  0
 15 22  1  0
 15  7  1  0
 16 15  2  0
 18 19  2  0
 18 17  1  0
 21 20  1  6
 20 18  1  0
 21 23  1  0
 21 22  1  0
 23 24  1  0
 25 23  2  0
M  END
$$$$
