AFN.pdb
     RDKit          3D

 25 25  0  0  1  0  0  0  0  0999 V2000
    7.8327  -18.0998   19.7935 C   0  0  0  0  0  0  0  0  0  0  0  0
    8.2444  -16.6741   19.5630 C   0  0  2  0  0  0  0  0  0  0  0  0
    9.2478  -16.5115   18.5538 N   0  0  0  0  0  0  0  0  0  0  0  0
    8.5906  -16.0268   20.8503 C   0  0  0  0  0  0  0  0  0  0  0  0
    9.7900  -16.0146   21.2069 O   0  0  0  0  0  0  0  0  0  0  0  0
    7.5973  -15.4315   21.6696 N   0  0  0  0  0  0  0  0  0  0  0  0
    7.9438  -14.7603   22.9257 C   0  0  1  0  0  0  0  0  0  0  0  0
    6.8101  -13.9016   23.4018 C   0  0  0  0  0  0  0  0  0  0  0  0
    7.0428  -13.2885   24.7258 C   0  0  0  0  0  0  0  0  0  0  0  0
    8.0353  -12.3698   24.9466 C   0  0  0  0  0  0  0  0  0  0  0  0
    8.1988  -11.8259   26.2171 C   0  0  0  0  0  0  0  0  0  0  0  0
    7.3886  -12.1872   27.2602 C   0  0  0  0  0  0  0  0  0  0  0  0
    6.3764  -13.1185   27.0543 C   0  0  0  0  0  0  0  0  0  0  0  0
    6.2274  -13.6469   25.7928 C   0  0  0  0  0  0  0  0  0  0  0  0
    8.3612  -15.8029   23.8863 C   0  0  0  0  0  0  0  0  0  0  0  0
    7.6293  -16.8208   24.0989 O   0  0  0  0  0  0  0  0  0  0  0  0
   11.4251  -19.1742   26.1520 N   0  0  0  0  0  0  0  0  0  0  0  0
   12.2235  -18.0916   25.7539 C   0  0  0  0  0  0  0  0  0  0  0  0
   13.4494  -18.0631   26.0238 O   0  0  0  0  0  0  0  0  0  0  0  0
   11.6203  -16.9665   25.0062 C   0  0  0  0  0  0  0  0  0  0  0  0
   10.1506  -16.8061   25.3717 C   0  0  2  0  0  0  0  0  0  0  0  0
    9.5777  -15.7192   24.6051 N   0  0  0  0  0  0  0  0  0  0  0  0
   10.0019  -16.5795   26.8311 C   0  0  0  0  0  0  0  0  0  0  0  0
    9.9680  -17.6212   27.7380 O   0  0  0  0  0  0  0  0  0  0  0  0
    9.9039  -15.4000   27.2501 O   0  0  0  0  0  0  0  0  0  0  0  0
  2  1  1  1
  2  4  1  0
  2  3  1  0
  4  5  2  0
  6  7  1  0
  6  4  1  0
  7  8  1  1
  9  8  1  0
  9 10  2  0
 11 10  1  0
 12 11  2  0
 13 14  2  0
 13 12  1  0
 14  9  1  0
 15 22  1  0
 15  7  1  0
 16 15  2  0
 18 19  2  0
 18 17  1  0
 21 20  1  1
 20 18  1  0
 21 23  1  0
 21 22  1  0
 23 24  1  0
 25 23  2  0
M  END
$$$$
