AFN.pdb
     RDKit          3D

 25 25  0  0  1  0  0  0  0  0999 V2000
   10.3570  -16.0199   18.8988 C   0  0  0  0  0  0  0  0  0  0  0  0
    9.6302  -16.7606   19.9843 C   0  0  2  0  0  0  0  0  0  0  0  0
    8.3062  -17.1727   19.6250 N   0  0  0  0  0  0  0  0  0  0  0  0
    9.6875  -15.9961   21.2525 C   0  0  0  0  0  0  0  0  0  0  0  0
   10.8104  -15.7031   21.7206 O   0  0  0  0  0  0  0  0  0  0  0  0
    8.5067  -15.5993   21.9310 N   0  0  0  0  0  0  0  0  0  0  0  0
    8.5628  -14.8984   23.2171 C   0  0  1  0  0  0  0  0  0  0  0  0
    7.3323  -14.0667   23.4252 C   0  0  0  0  0  0  0  0  0  0  0  0
    7.2313  -13.4810   24.7779 C   0  0  0  0  0  0  0  0  0  0  0  0
    7.9429  -12.3721   25.1542 C   0  0  0  0  0  0  0  0  0  0  0  0
    7.7987  -11.8669   26.4428 C   0  0  0  0  0  0  0  0  0  0  0  0
    6.9586  -12.4530   27.3517 C   0  0  0  0  0  0  0  0  0  0  0  0
    6.2289  -13.5794   26.9871 C   0  0  0  0  0  0  0  0  0  0  0  0
    6.3822  -14.0665   25.7097 C   0  0  0  0  0  0  0  0  0  0  0  0
    8.7951  -15.9128   24.2663 C   0  0  0  0  0  0  0  0  0  0  0  0
    7.9394  -16.8273   24.4866 O   0  0  0  0  0  0  0  0  0  0  0  0
   12.7552  -16.5844   23.6413 N   0  0  0  0  0  0  0  0  0  0  0  0
   12.5641  -16.7622   25.0197 C   0  0  0  0  0  0  0  0  0  0  0  0
   13.2556  -16.1257   25.8522 O   0  0  0  0  0  0  0  0  0  0  0  0
   11.5366  -17.7094   25.5053 C   0  0  0  0  0  0  0  0  0  0  0  0
   10.3093  -16.9595   26.0060 C   0  0  2  0  0  0  0  0  0  0  0  0
    9.9640  -15.9146   25.0647 N   0  0  0  0  0  0  0  0  0  0  0  0
   10.5566  -16.4093   27.3623 C   0  0  0  0  0  0  0  0  0  0  0  0
   10.8353  -17.2199   28.4458 O   0  0  0  0  0  0  0  0  0  0  0  0
   10.5096  -15.1652   27.5249 O   0  0  0  0  0  0  0  0  0  0  0  0
  2  1  1  6
  2  4  1  0
  2  3  1  0
  4  5  2  0
  6  7  1  0
  6  4  1  0
  7  8  1  1
  9  8  1  0
  9 10  2  0
 11 10  1  0
 12 11  2  0
 13 14  2  0
 13 12  1  0
 14  9  1  0
 15 22  1  0
 15  7  1  0
 16 15  2  0
 18 19  2  0
 18 17  1  0
 21 20  1  6
 20 18  1  0
 21 23  1  0
 21 22  1  0
 23 24  1  0
 25 23  2  0
M  END
$$$$
