AFN.pdb
     RDKit          3D

 25 25  0  0  1  0  0  0  0  0999 V2000
    8.2743  -17.8630   19.8677 C   0  0  0  0  0  0  0  0  0  0  0  0
    8.8352  -16.4711   19.8093 C   0  0  2  0  0  0  0  0  0  0  0  0
   10.0092  -16.3477   18.9980 N   0  0  0  0  0  0  0  0  0  0  0  0
    9.0030  -15.9290   21.1783 C   0  0  0  0  0  0  0  0  0  0  0  0
   10.1039  -16.0895   21.7512 O   0  0  0  0  0  0  0  0  0  0  0  0
    7.9503  -15.2427   21.8363 N   0  0  0  0  0  0  0  0  0  0  0  0
    8.1176  -14.7023   23.1885 C   0  0  1  0  0  0  0  0  0  0  0  0
    7.0443  -13.7021   23.4996 C   0  0  0  0  0  0  0  0  0  0  0  0
    7.1061  -13.1715   24.8771 C   0  0  0  0  0  0  0  0  0  0  0  0
    6.1125  -13.3909   25.7949 C   0  0  0  0  0  0  0  0  0  0  0  0
    6.2340  -12.8672   27.0785 C   0  0  0  0  0  0  0  0  0  0  0  0
    7.3279  -12.1328   27.4516 C   0  0  0  0  0  0  0  0  0  0  0  0
    8.3458  -11.9000   26.5329 C   0  0  0  0  0  0  0  0  0  0  0  0
    8.2111  -12.4245   25.2682 C   0  0  0  0  0  0  0  0  0  0  0  0
    8.1700  -15.8472   24.1214 C   0  0  0  0  0  0  0  0  0  0  0  0
    7.4120  -16.8548   23.9563 O   0  0  0  0  0  0  0  0  0  0  0  0
   11.1764  -19.7745   24.9226 N   0  0  0  0  0  0  0  0  0  0  0  0
   11.7164  -18.4919   25.0994 C   0  0  0  0  0  0  0  0  0  0  0  0
   12.8546  -18.3376   25.6064 O   0  0  0  0  0  0  0  0  0  0  0  0
   10.9408  -17.3020   24.6852 C   0  0  0  0  0  0  0  0  0  0  0  0
    9.7923  -17.0470   25.6523 C   0  0  2  0  0  0  0  0  0  0  0  0
    9.0534  -15.8764   25.2270 N   0  0  0  0  0  0  0  0  0  0  0  0
   10.3058  -16.8926   27.0364 C   0  0  0  0  0  0  0  0  0  0  0  0
   11.0288  -15.7843   27.4338 O   0  0  0  0  0  0  0  0  0  0  0  0
   10.0728  -17.8023   27.8698 O   0  0  0  0  0  0  0  0  0  0  0  0
  2  1  1  1
  2  4  1  0
  2  3  1  0
  4  5  2  0
  6  7  1  0
  6  4  1  0
  7  8  1  1
  9  8  1  0
  9 10  2  0
 11 10  1  0
 12 11  2  0
 13 14  2  0
 13 12  1  0
 14  9  1  0
 15 22  1  0
 15  7  1  0
 16 15  2  0
 18 19  2  0
 18 17  1  0
 21 20  1  6
 20 18  1  0
 21 23  1  0
 21 22  1  0
 23 24  1  0
 25 23  2  0
M  END
$$$$
