AFN.pdb
     RDKit          3D

 25 25  0  0  1  0  0  0  0  0999 V2000
    7.1905  -15.2704   19.5387 C   0  0  0  0  0  0  0  0  0  0  0  0
    7.3075  -13.9924   20.3187 C   0  0  2  0  0  0  0  0  0  0  0  0
    7.7734  -12.8782   19.5484 N   0  0  0  0  0  0  0  0  0  0  0  0
    8.0850  -14.2195   21.5596 C   0  0  0  0  0  0  0  0  0  0  0  0
    9.3083  -13.9560   21.5522 O   0  0  0  0  0  0  0  0  0  0  0  0
    7.4714  -14.7233   22.7352 N   0  0  0  0  0  0  0  0  0  0  0  0
    8.1891  -14.7699   24.0124 C   0  0  1  0  0  0  0  0  0  0  0  0
    7.2280  -14.8086   25.1630 C   0  0  0  0  0  0  0  0  0  0  0  0
    6.9525  -13.4827   25.7536 C   0  0  0  0  0  0  0  0  0  0  0  0
    5.6872  -12.9629   25.8358 C   0  0  0  0  0  0  0  0  0  0  0  0
    5.4946  -11.7093   26.4085 C   0  0  0  0  0  0  0  0  0  0  0  0
    6.5434  -10.9757   26.8953 C   0  0  0  0  0  0  0  0  0  0  0  0
    7.8344  -11.4876   26.8198 C   0  0  0  0  0  0  0  0  0  0  0  0
    8.0084  -12.7282   26.2511 C   0  0  0  0  0  0  0  0  0  0  0  0
    9.1186  -15.9175   23.9582 C   0  0  0  0  0  0  0  0  0  0  0  0
    8.7245  -17.0537   23.5452 O   0  0  0  0  0  0  0  0  0  0  0  0
   13.9583  -18.0500   22.6061 N   0  0  0  0  0  0  0  0  0  0  0  0
   13.8115  -17.3970   23.8390 C   0  0  0  0  0  0  0  0  0  0  0  0
   14.5162  -17.7212   24.8263 O   0  0  0  0  0  0  0  0  0  0  0  0
   12.8163  -16.3121   23.9846 C   0  0  0  0  0  0  0  0  0  0  0  0
   11.4368  -16.8855   24.2804 C   0  0  2  0  0  0  0  0  0  0  0  0
   10.4722  -15.8082   24.3579 N   0  0  0  0  0  0  0  0  0  0  0  0
   11.4649  -17.6812   25.5331 C   0  0  0  0  0  0  0  0  0  0  0  0
   11.3283  -17.0986   26.7784 O   0  0  0  0  0  0  0  0  0  0  0  0
   11.6184  -18.9248   25.4529 O   0  0  0  0  0  0  0  0  0  0  0  0
  2  1  1  6
  2  4  1  0
  2  3  1  0
  4  5  2  0
  6  7  1  0
  6  4  1  0
  7  8  1  1
  9  8  1  0
  9 10  2  0
 11 10  1  0
 12 11  2  0
 13 14  2  0
 13 12  1  0
 14  9  1  0
 15 22  1  0
 15  7  1  0
 16 15  2  0
 18 19  2  0
 18 17  1  0
 21 20  1  1
 20 18  1  0
 21 23  1  0
 21 22  1  0
 23 24  1  0
 25 23  2  0
M  END
$$$$
