AFN.pdb
     RDKit          3D

 25 25  0  0  1  0  0  0  0  0999 V2000
    7.6577  -13.0725   20.3286 C   0  0  0  0  0  0  0  0  0  0  0  0
    8.0872  -14.4393   20.7789 C   0  0  2  0  0  0  0  0  0  0  0  0
    7.1338  -15.4720   20.5027 N   0  0  0  0  0  0  0  0  0  0  0  0
    8.5210  -14.3987   22.1953 C   0  0  0  0  0  0  0  0  0  0  0  0
    9.4564  -13.6292   22.5095 O   0  0  0  0  0  0  0  0  0  0  0  0
    7.9007  -15.2069   23.1823 N   0  0  0  0  0  0  0  0  0  0  0  0
    8.3305  -15.1680   24.5831 C   0  0  1  0  0  0  0  0  0  0  0  0
    7.1547  -14.9908   25.4970 C   0  0  0  0  0  0  0  0  0  0  0  0
    6.9591  -13.5990   25.9525 C   0  0  0  0  0  0  0  0  0  0  0  0
    5.8393  -12.8735   25.6402 C   0  0  0  0  0  0  0  0  0  0  0  0
    5.7140  -11.5678   26.1051 C   0  0  0  0  0  0  0  0  0  0  0  0
    6.6871  -10.9842   26.8716 C   0  0  0  0  0  0  0  0  0  0  0  0
    7.8305  -11.7057   27.1979 C   0  0  0  0  0  0  0  0  0  0  0  0
    7.9395  -12.9952   26.7310 C   0  0  0  0  0  0  0  0  0  0  0  0
    9.1206  -16.3902   24.8396 C   0  0  0  0  0  0  0  0  0  0  0  0
    9.3476  -16.7793   26.0288 O   0  0  0  0  0  0  0  0  0  0  0  0
   13.3218  -18.4933   21.8720 N   0  0  0  0  0  0  0  0  0  0  0  0
   13.2311  -17.4222   22.7734 C   0  0  0  0  0  0  0  0  0  0  0  0
   14.2492  -16.9995   23.3744 O   0  0  0  0  0  0  0  0  0  0  0  0
   11.9230  -16.7779   23.0234 C   0  0  0  0  0  0  0  0  0  0  0  0
   10.9957  -17.7213   23.7779 C   0  0  2  0  0  0  0  0  0  0  0  0
    9.6548  -17.1745   23.7892 N   0  0  0  0  0  0  0  0  0  0  0  0
   11.5005  -17.9517   25.1547 C   0  0  0  0  0  0  0  0  0  0  0  0
   12.4556  -18.9090   25.4378 O   0  0  0  0  0  0  0  0  0  0  0  0
   11.0406  -17.2509   26.0895 O   0  0  0  0  0  0  0  0  0  0  0  0
  2  1  1  1
  2  4  1  0
  2  3  1  0
  4  5  2  0
  6  7  1  0
  6  4  1  0
  7  8  1  1
  9  8  1  0
  9 10  2  0
 11 10  1  0
 12 11  2  0
 13 14  2  0
 13 12  1  0
 14  9  1  0
 15 22  1  0
 15  7  1  0
 16 15  2  0
 18 19  2  0
 18 17  1  0
 21 20  1  1
 20 18  1  0
 21 23  1  0
 21 22  1  0
 23 24  1  0
 25 23  2  0
M  END
$$$$
