AFN.pdb
     RDKit          3D

 25 25  0  0  1  0  0  0  0  0999 V2000
    8.4508  -19.0049   20.0649 C   0  0  0  0  0  0  0  0  0  0  0  0
    8.1500  -17.5608   19.7832 C   0  0  2  0  0  0  0  0  0  0  0  0
    8.6659  -17.0896   18.5328 N   0  0  0  0  0  0  0  0  0  0  0  0
    8.5436  -16.7211   20.9391 C   0  0  0  0  0  0  0  0  0  0  0  0
    9.7097  -16.2689   20.9767 O   0  0  0  0  0  0  0  0  0  0  0  0
    7.6315  -16.4286   21.9854 N   0  0  0  0  0  0  0  0  0  0  0  0
    7.9650  -15.4729   23.0455 C   0  0  1  0  0  0  0  0  0  0  0  0
    6.7230  -14.9618   23.7129 C   0  0  0  0  0  0  0  0  0  0  0  0
    6.9877  -14.0693   24.8601 C   0  0  0  0  0  0  0  0  0  0  0  0
    6.7715  -14.4550   26.1571 C   0  0  0  0  0  0  0  0  0  0  0  0
    7.0460  -13.5677   27.1935 C   0  0  0  0  0  0  0  0  0  0  0  0
    7.5298  -12.3100   26.9498 C   0  0  0  0  0  0  0  0  0  0  0  0
    7.7549  -11.9016   25.6395 C   0  0  0  0  0  0  0  0  0  0  0  0
    7.4788  -12.7903   24.6263 C   0  0  0  0  0  0  0  0  0  0  0  0
    8.9165  -16.1378   23.9601 C   0  0  0  0  0  0  0  0  0  0  0  0
    8.6718  -17.2972   24.4214 O   0  0  0  0  0  0  0  0  0  0  0  0
   13.7958  -17.6799   24.8504 N   0  0  0  0  0  0  0  0  0  0  0  0
   13.7167  -16.2931   25.0470 C   0  0  0  0  0  0  0  0  0  0  0  0
   14.6283  -15.6762   25.6511 O   0  0  0  0  0  0  0  0  0  0  0  0
   12.5478  -15.5421   24.5387 C   0  0  0  0  0  0  0  0  0  0  0  0
   11.2509  -16.2333   24.9381 C   0  0  2  0  0  0  0  0  0  0  0  0
   10.1278  -15.5245   24.3606 N   0  0  0  0  0  0  0  0  0  0  0  0
   11.1411  -16.3136   26.4161 C   0  0  0  0  0  0  0  0  0  0  0  0
   10.1935  -15.5993   27.1237 O   0  0  0  0  0  0  0  0  0  0  0  0
   11.9385  -17.0566   27.0394 O   0  0  0  0  0  0  0  0  0  0  0  0
  2  1  1  1
  2  4  1  0
  2  3  1  0
  4  5  2  0
  6  7  1  0
  6  4  1  0
  7  8  1  1
  9  8  1  0
  9 10  2  0
 11 10  1  0
 12 11  2  0
 13 14  2  0
 13 12  1  0
 14  9  1  0
 15 22  1  0
 15  7  1  0
 16 15  2  0
 18 19  2  0
 18 17  1  0
 21 20  1  1
 20 18  1  0
 21 23  1  0
 21 22  1  0
 23 24  1  0
 25 23  2  0
M  END
$$$$
