AFN.pdb
     RDKit          3D

 25 25  0  0  1  0  0  0  0  0999 V2000
    7.8761  -16.5740   18.8724 C   0  0  0  0  0  0  0  0  0  0  0  0
    7.4097  -15.1685   19.1220 C   0  0  2  0  0  0  0  0  0  0  0  0
    7.6907  -14.2606   18.0503 N   0  0  0  0  0  0  0  0  0  0  0  0
    7.8938  -14.6951   20.4401 C   0  0  0  0  0  0  0  0  0  0  0  0
    9.0114  -14.1350   20.4977 O   0  0  0  0  0  0  0  0  0  0  0  0
    7.1206  -14.8657   21.6170 N   0  0  0  0  0  0  0  0  0  0  0  0
    7.6228  -14.4478   22.9291 C   0  0  1  0  0  0  0  0  0  0  0  0
    6.4914  -14.0629   23.8353 C   0  0  0  0  0  0  0  0  0  0  0  0
    6.9291  -13.5665   25.1562 C   0  0  0  0  0  0  0  0  0  0  0  0
    6.9342  -12.2341   25.4764 C   0  0  0  0  0  0  0  0  0  0  0  0
    7.3538  -11.8322   26.7409 C   0  0  0  0  0  0  0  0  0  0  0  0
    7.7651  -12.7394   27.6806 C   0  0  0  0  0  0  0  0  0  0  0  0
    7.7668  -14.0957   27.3728 C   0  0  0  0  0  0  0  0  0  0  0  0
    7.3490  -14.4770   26.1187 C   0  0  0  0  0  0  0  0  0  0  0  0
    8.4724  -15.5398   23.4482 C   0  0  0  0  0  0  0  0  0  0  0  0
    8.1339  -16.7558   23.2936 O   0  0  0  0  0  0  0  0  0  0  0  0
   14.0943  -16.5438   25.0703 N   0  0  0  0  0  0  0  0  0  0  0  0
   13.0895  -16.8251   24.1327 C   0  0  0  0  0  0  0  0  0  0  0  0
   13.0700  -17.9209   23.5202 O   0  0  0  0  0  0  0  0  0  0  0  0
   12.0366  -15.8229   23.8575 C   0  0  0  0  0  0  0  0  0  0  0  0
   10.6944  -16.2910   24.4041 C   0  0  2  0  0  0  0  0  0  0  0  0
    9.6856  -15.2880   24.1326 N   0  0  0  0  0  0  0  0  0  0  0  0
   10.7986  -16.5778   25.8567 C   0  0  0  0  0  0  0  0  0  0  0  0
   11.1625  -17.8210   26.3372 O   0  0  0  0  0  0  0  0  0  0  0  0
   10.5465  -15.6566   26.6717 O   0  0  0  0  0  0  0  0  0  0  0  0
  2  1  1  6
  2  4  1  0
  2  3  1  0
  4  5  2  0
  6  7  1  0
  6  4  1  0
  7  8  1  1
  9  8  1  0
  9 10  2  0
 11 10  1  0
 12 11  2  0
 13 14  2  0
 13 12  1  0
 14  9  1  0
 15 22  1  0
 15  7  1  0
 16 15  2  0
 18 19  2  0
 18 17  1  0
 21 20  1  1
 20 18  1  0
 21 23  1  0
 21 22  1  0
 23 24  1  0
 25 23  2  0
M  END
$$$$
