AFN.pdb
     RDKit          3D

 25 25  0  0  1  0  0  0  0  0999 V2000
    8.6827  -18.1668   19.8854 C   0  0  0  0  0  0  0  0  0  0  0  0
    8.2959  -16.7159   19.8642 C   0  0  2  0  0  0  0  0  0  0  0  0
    8.7212  -16.0149   18.6897 N   0  0  0  0  0  0  0  0  0  0  0  0
    8.7075  -16.0580   21.1267 C   0  0  0  0  0  0  0  0  0  0  0  0
    9.8981  -15.6921   21.2466 O   0  0  0  0  0  0  0  0  0  0  0  0
    7.7855  -15.8417   22.1828 N   0  0  0  0  0  0  0  0  0  0  0  0
    8.1505  -15.0611   23.3685 C   0  0  1  0  0  0  0  0  0  0  0  0
    6.9257  -14.5921   24.0960 C   0  0  0  0  0  0  0  0  0  0  0  0
    7.2196  -13.8400   25.3332 C   0  0  0  0  0  0  0  0  0  0  0  0
    7.7110  -14.4431   26.4613 C   0  0  0  0  0  0  0  0  0  0  0  0
    7.9716  -13.6765   27.5931 C   0  0  0  0  0  0  0  0  0  0  0  0
    7.7481  -12.3256   27.6099 C   0  0  0  0  0  0  0  0  0  0  0  0
    7.2492  -11.6969   26.4740 C   0  0  0  0  0  0  0  0  0  0  0  0
    6.9970  -12.4684   25.3632 C   0  0  0  0  0  0  0  0  0  0  0  0
    9.0609  -15.8915   24.1842 C   0  0  0  0  0  0  0  0  0  0  0  0
    8.8104  -17.1213   24.3887 O   0  0  0  0  0  0  0  0  0  0  0  0
   14.4573  -17.1499   24.5305 N   0  0  0  0  0  0  0  0  0  0  0  0
   13.8078  -16.2620   25.4010 C   0  0  0  0  0  0  0  0  0  0  0  0
   14.1902  -16.1318   26.5898 O   0  0  0  0  0  0  0  0  0  0  0  0
   12.6578  -15.4660   24.9189 C   0  0  0  0  0  0  0  0  0  0  0  0
   11.3458  -16.1690   25.2412 C   0  0  2  0  0  0  0  0  0  0  0  0
   10.2379  -15.3651   24.7685 N   0  0  0  0  0  0  0  0  0  0  0  0
   11.2439  -16.4318   26.6985 C   0  0  0  0  0  0  0  0  0  0  0  0
   11.6734  -17.6167   27.2646 O   0  0  0  0  0  0  0  0  0  0  0  0
   10.7499  -15.5446   27.4370 O   0  0  0  0  0  0  0  0  0  0  0  0
  2  1  1  6
  2  4  1  0
  2  3  1  0
  4  5  2  0
  6  7  1  0
  6  4  1  0
  7  8  1  1
  9  8  1  0
  9 10  2  0
 11 10  1  0
 12 11  2  0
 13 14  2  0
 13 12  1  0
 14  9  1  0
 15 22  1  0
 15  7  1  0
 16 15  2  0
 18 19  2  0
 18 17  1  0
 21 20  1  1
 20 18  1  0
 21 23  1  0
 21 22  1  0
 23 24  1  0
 25 23  2  0
M  END
$$$$
