AFN.pdb
     RDKit          3D

 25 25  0  0  1  0  0  0  0  0999 V2000
    9.3784  -15.7091   18.5927 C   0  0  0  0  0  0  0  0  0  0  0  0
    9.1801  -16.5566   19.8166 C   0  0  2  0  0  0  0  0  0  0  0  0
    7.9872  -17.3492   19.7914 N   0  0  0  0  0  0  0  0  0  0  0  0
    9.3147  -15.7297   21.0389 C   0  0  0  0  0  0  0  0  0  0  0  0
   10.4167  -15.1839   21.2701 O   0  0  0  0  0  0  0  0  0  0  0  0
    8.2294  -15.5521   21.9350 N   0  0  0  0  0  0  0  0  0  0  0  0
    8.3971  -14.8459   23.2085 C   0  0  1  0  0  0  0  0  0  0  0  0
    7.1573  -14.0788   23.5601 C   0  0  0  0  0  0  0  0  0  0  0  0
    7.2150  -13.4292   24.8859 C   0  0  0  0  0  0  0  0  0  0  0  0
    8.0180  -12.3486   25.1409 C   0  0  0  0  0  0  0  0  0  0  0  0
    8.0225  -11.7795   26.4109 C   0  0  0  0  0  0  0  0  0  0  0  0
    7.2402  -12.2745   27.4200 C   0  0  0  0  0  0  0  0  0  0  0  0
    6.4193  -13.3710   27.1790 C   0  0  0  0  0  0  0  0  0  0  0  0
    6.4260  -13.9221   25.9185 C   0  0  0  0  0  0  0  0  0  0  0  0
    8.8015  -15.8441   24.2204 C   0  0  0  0  0  0  0  0  0  0  0  0
    8.0670  -16.8522   24.4681 O   0  0  0  0  0  0  0  0  0  0  0  0
   12.9125  -16.3321   23.4298 N   0  0  0  0  0  0  0  0  0  0  0  0
   12.2794  -17.2663   24.2632 C   0  0  0  0  0  0  0  0  0  0  0  0
   11.9504  -18.3971   23.8281 O   0  0  0  0  0  0  0  0  0  0  0  0
   11.9932  -16.9215   25.6732 C   0  0  0  0  0  0  0  0  0  0  0  0
   10.4983  -16.7211   25.8837 C   0  0  2  0  0  0  0  0  0  0  0  0
   10.0079  -15.7272   24.9516 N   0  0  0  0  0  0  0  0  0  0  0  0
   10.2211  -16.3320   27.2890 C   0  0  0  0  0  0  0  0  0  0  0  0
    9.6341  -15.1249   27.6164 O   0  0  0  0  0  0  0  0  0  0  0  0
   10.5327  -17.1298   28.2071 O   0  0  0  0  0  0  0  0  0  0  0  0
  2  1  1  6
  2  4  1  0
  2  3  1  0
  4  5  2  0
  6  7  1  0
  6  4  1  0
  7  8  1  1
  9  8  1  0
  9 10  2  0
 11 10  1  0
 12 11  2  0
 13 14  2  0
 13 12  1  0
 14  9  1  0
 15 22  1  0
 15  7  1  0
 16 15  2  0
 18 19  2  0
 18 17  1  0
 21 20  1  1
 20 18  1  0
 21 23  1  0
 21 22  1  0
 23 24  1  0
 25 23  2  0
M  END
$$$$
