AFN.pdb
     RDKit          3D

 25 25  0  0  1  0  0  0  0  0999 V2000
    9.7914  -16.6717   19.3563 C   0  0  0  0  0  0  0  0  0  0  0  0
    9.6385  -17.3318   20.6966 C   0  0  2  0  0  0  0  0  0  0  0  0
    8.5089  -18.2075   20.7912 N   0  0  0  0  0  0  0  0  0  0  0  0
    9.6921  -16.3175   21.7757 C   0  0  0  0  0  0  0  0  0  0  0  0
   10.7317  -15.6317   21.8970 O   0  0  0  0  0  0  0  0  0  0  0  0
    8.5993  -16.1177   22.6579 N   0  0  0  0  0  0  0  0  0  0  0  0
    8.6207  -15.0621   23.6746 C   0  0  1  0  0  0  0  0  0  0  0  0
    7.2560  -14.4667   23.8540 C   0  0  0  0  0  0  0  0  0  0  0  0
    7.1916  -13.4312   24.9059 C   0  0  0  0  0  0  0  0  0  0  0  0
    7.9483  -12.2897   24.8613 C   0  0  0  0  0  0  0  0  0  0  0  0
    7.8372  -11.3505   25.8822 C   0  0  0  0  0  0  0  0  0  0  0  0
    6.9857  -11.5382   26.9381 C   0  0  0  0  0  0  0  0  0  0  0  0
    6.2103  -12.6912   26.9997 C   0  0  0  0  0  0  0  0  0  0  0  0
    6.3314  -13.6099   25.9829 C   0  0  0  0  0  0  0  0  0  0  0  0
    9.1970  -15.6422   24.9055 C   0  0  0  0  0  0  0  0  0  0  0  0
    9.3225  -14.9395   25.9579 O   0  0  0  0  0  0  0  0  0  0  0  0
    9.0361  -19.4811   28.8606 N   0  0  0  0  0  0  0  0  0  0  0  0
    9.6069  -19.6450   27.5896 C   0  0  0  0  0  0  0  0  0  0  0  0
   10.5355  -20.4693   27.4032 O   0  0  0  0  0  0  0  0  0  0  0  0
    9.1133  -18.8404   26.4505 C   0  0  0  0  0  0  0  0  0  0  0  0
   10.0367  -17.6579   26.1888 C   0  0  2  0  0  0  0  0  0  0  0  0
    9.6309  -16.9881   24.9708 N   0  0  0  0  0  0  0  0  0  0  0  0
   11.4486  -18.1101   26.1160 C   0  0  0  0  0  0  0  0  0  0  0  0
   12.2554  -18.1871   27.2350 O   0  0  0  0  0  0  0  0  0  0  0  0
   11.9207  -18.4318   24.9980 O   0  0  0  0  0  0  0  0  0  0  0  0
  2  1  1  6
  2  4  1  0
  2  3  1  0
  4  5  2  0
  6  7  1  0
  6  4  1  0
  7  8  1  1
  9  8  1  0
  9 10  2  0
 11 10  1  0
 12 11  2  0
 13 14  2  0
 13 12  1  0
 14  9  1  0
 15 22  1  0
 15  7  1  0
 16 15  2  0
 18 19  2  0
 18 17  1  0
 21 20  1  6
 20 18  1  0
 21 23  1  0
 21 22  1  0
 23 24  1  0
 25 23  2  0
M  END
$$$$
