MTA.pdb
     RDKit          3D

 21 20  0  0  1  0  0  0  0  0999 V2000
    7.3172  -10.9740   26.5133 C   0  0  0  0  0  0  0  0  0  0  0  0
    6.5574  -12.1434   27.6728 S   0  0  0  0  0  0  0  0  0  0  0  0
    5.8126  -13.4769   26.6617 C   0  0  0  0  0  0  0  0  0  0  0  0
    6.9131  -14.2107   25.9709 C   0  0  0  0  0  0  0  0  0  0  0  0
    6.4442  -15.3613   25.1391 C   0  0  2  0  0  0  0  0  0  0  0  0
    5.7600  -16.3399   25.9747 N   0  0  0  0  0  0  0  0  0  0  0  0
    7.5487  -15.9679   24.3888 C   0  0  0  0  0  0  0  0  0  0  0  0
    8.2012  -16.9435   24.8284 O   0  0  0  0  0  0  0  0  0  0  0  0
    7.3225  -15.6590   20.4721 C   0  0  0  0  0  0  0  0  0  0  0  0
    8.7494  -15.6982   20.8930 C   0  0  1  0  0  0  0  0  0  0  0  0
    9.2255  -14.3669   20.8161 O   0  0  0  0  0  0  0  0  0  0  0  0
    8.9855  -16.1842   22.3057 C   0  0  2  0  0  0  0  0  0  0  0  0
    7.9603  -15.4896   23.1016 N   0  0  0  0  0  0  0  0  0  0  0  0
   10.3168  -15.8821   22.8296 C   0  0  0  0  0  0  0  0  0  0  0  0
   10.4418  -14.9542   23.7006 O   0  0  0  0  0  0  0  0  0  0  0  0
   12.4914  -17.0857   24.6484 C   0  0  0  0  0  0  0  0  0  0  0  0
   12.7200  -16.4652   23.2997 C   0  0  2  0  0  0  0  0  0  0  0  0
   11.5243  -16.5282   22.4651 N   0  0  0  0  0  0  0  0  0  0  0  0
   13.8889  -17.0535   22.6076 C   0  0  0  0  0  0  0  0  0  0  0  0
   13.7278  -17.7658   21.4282 O   0  0  0  0  0  0  0  0  0  0  0  0
   15.0198  -16.9065   23.0888 O   0  0  0  0  0  0  0  0  0  0  0  0
  2  1  1  0
  3  4  1  0
  3  2  1  0
  4  5  1  0
  5  7  1  0
  5  6  1  1
  7 13  1  0
  8  7  2  0
 10  9  1  1
 10 11  1  0
 10 12  1  0
 12 14  1  0
 12 13  1  1
 14 15  2  0
 14 18  1  0
 17 19  1  0
 17 16  1  1
 18 17  1  0
 19 20  1  0
 21 19  2  0
M  END
$$$$
