MTA.pdb
     RDKit          3D

 21 20  0  0  1  0  0  0  0  0999 V2000
    8.6832  -12.4565   27.6617 C   0  0  0  0  0  0  0  0  0  0  0  0
    7.0204  -11.8438   27.2762 S   0  0  0  0  0  0  0  0  0  0  0  0
    6.0935  -13.2532   26.5621 C   0  0  0  0  0  0  0  0  0  0  0  0
    7.0468  -14.0904   25.7764 C   0  0  0  0  0  0  0  0  0  0  0  0
    6.4162  -15.2847   25.1348 C   0  0  2  0  0  0  0  0  0  0  0  0
    5.8133  -16.1405   26.1487 N   0  0  0  0  0  0  0  0  0  0  0  0
    7.3773  -16.0206   24.3069 C   0  0  0  0  0  0  0  0  0  0  0  0
    7.9113  -17.0882   24.6889 O   0  0  0  0  0  0  0  0  0  0  0  0
    9.5343  -16.2850   19.7862 C   0  0  0  0  0  0  0  0  0  0  0  0
    8.6588  -15.6769   20.8246 C   0  0  1  0  0  0  0  0  0  0  0  0
    7.3273  -15.8437   20.3725 O   0  0  0  0  0  0  0  0  0  0  0  0
    8.7564  -16.3115   22.1940 C   0  0  2  0  0  0  0  0  0  0  0  0
    7.7742  -15.5726   23.0042 N   0  0  0  0  0  0  0  0  0  0  0  0
   10.0815  -16.2189   22.8053 C   0  0  0  0  0  0  0  0  0  0  0  0
   10.6903  -15.0943   22.7927 O   0  0  0  0  0  0  0  0  0  0  0  0
   12.3961  -18.1725   25.0514 C   0  0  0  0  0  0  0  0  0  0  0  0
   12.0754  -17.0662   24.0871 C   0  0  2  0  0  0  0  0  0  0  0  0
   10.7882  -17.2756   23.4318 N   0  0  0  0  0  0  0  0  0  0  0  0
   13.1553  -16.8621   23.0955 C   0  0  0  0  0  0  0  0  0  0  0  0
   12.9262  -17.0818   21.7450 O   0  0  0  0  0  0  0  0  0  0  0  0
   14.2725  -16.4917   23.4784 O   0  0  0  0  0  0  0  0  0  0  0  0
  2  1  1  0
  3  4  1  0
  3  2  1  0
  4  5  1  0
  5  7  1  0
  5  6  1  1
  7 13  1  0
  8  7  2  0
 10  9  1  6
 10 11  1  0
 10 12  1  0
 12 14  1  0
 12 13  1  1
 14 15  2  0
 14 18  1  0
 17 19  1  0
 17 16  1  6
 18 17  1  0
 19 20  1  0
 21 19  2  0
M  END
$$$$
