MTA.pdb
     RDKit          3D

 21 20  0  0  1  0  0  0  0  0999 V2000
    8.3847  -12.1730   27.4013 C   0  0  0  0  0  0  0  0  0  0  0  0
    6.6693  -11.7852   26.9586 S   0  0  0  0  0  0  0  0  0  0  0  0
    5.9875  -13.2763   26.1418 C   0  0  0  0  0  0  0  0  0  0  0  0
    7.1270  -14.1508   25.7373 C   0  0  0  0  0  0  0  0  0  0  0  0
    6.7195  -15.3394   24.9269 C   0  0  2  0  0  0  0  0  0  0  0  0
    5.7991  -16.1750   25.6877 N   0  0  0  0  0  0  0  0  0  0  0  0
    7.8849  -16.1001   24.4643 C   0  0  0  0  0  0  0  0  0  0  0  0
    8.2854  -17.1339   25.0488 O   0  0  0  0  0  0  0  0  0  0  0  0
    8.2951  -16.2681   20.6352 C   0  0  0  0  0  0  0  0  0  0  0  0
    9.6481  -16.2714   21.2547 C   0  0  1  0  0  0  0  0  0  0  0  0
   10.1619  -14.9610   21.0998 O   0  0  0  0  0  0  0  0  0  0  0  0
    9.6738  -16.5978   22.7314 C   0  0  2  0  0  0  0  0  0  0  0  0
    8.6480  -15.7165   23.3128 N   0  0  0  0  0  0  0  0  0  0  0  0
   10.9640  -16.3590   23.3765 C   0  0  0  0  0  0  0  0  0  0  0  0
   11.2775  -15.1640   23.7070 O   0  0  0  0  0  0  0  0  0  0  0  0
   14.0040  -18.2071   24.6828 C   0  0  0  0  0  0  0  0  0  0  0  0
   13.2457  -16.9916   24.2311 C   0  0  2  0  0  0  0  0  0  0  0  0
   11.9376  -17.3412   23.6862 N   0  0  0  0  0  0  0  0  0  0  0  0
   14.0244  -16.1740   23.2740 C   0  0  0  0  0  0  0  0  0  0  0  0
   13.7694  -16.2447   21.9122 O   0  0  0  0  0  0  0  0  0  0  0  0
   14.9113  -15.4207   23.6961 O   0  0  0  0  0  0  0  0  0  0  0  0
  2  1  1  0
  3  4  1  0
  3  2  1  0
  4  5  1  0
  5  7  1  0
  5  6  1  1
  7 13  1  0
  8  7  2  0
 10  9  1  1
 10 11  1  0
 10 12  1  0
 12 14  1  0
 12 13  1  1
 14 15  2  0
 14 18  1  0
 17 19  1  0
 17 16  1  6
 18 17  1  0
 19 20  1  0
 21 19  2  0
M  END
$$$$
