MTA.pdb
     RDKit          3D

 21 20  0  0  1  0  0  0  0  0999 V2000
    6.4320  -11.1774   26.3670 C   0  0  0  0  0  0  0  0  0  0  0  0
    7.3780  -12.1786   27.5467 S   0  0  0  0  0  0  0  0  0  0  0  0
    6.9513  -13.9282   27.2117 C   0  0  0  0  0  0  0  0  0  0  0  0
    7.0679  -14.1655   25.7431 C   0  0  0  0  0  0  0  0  0  0  0  0
    6.6478  -15.5356   25.3163 C   0  0  2  0  0  0  0  0  0  0  0  0
    6.3140  -16.3448   26.4815 N   0  0  0  0  0  0  0  0  0  0  0  0
    7.6722  -16.1780   24.4864 C   0  0  0  0  0  0  0  0  0  0  0  0
    8.2251  -17.2531   24.8171 O   0  0  0  0  0  0  0  0  0  0  0  0
    7.4574  -15.5930   20.5620 C   0  0  0  0  0  0  0  0  0  0  0  0
    8.8723  -15.6923   21.0122 C   0  0  1  0  0  0  0  0  0  0  0  0
    9.3605  -14.3655   21.0917 O   0  0  0  0  0  0  0  0  0  0  0  0
    9.0675  -16.3302   22.3696 C   0  0  2  0  0  0  0  0  0  0  0  0
    8.1135  -15.6237   23.2401 N   0  0  0  0  0  0  0  0  0  0  0  0
   10.4227  -16.2024   22.9035 C   0  0  0  0  0  0  0  0  0  0  0  0
   10.7246  -15.1595   23.5792 O   0  0  0  0  0  0  0  0  0  0  0  0
   13.5455  -18.2441   23.4578 C   0  0  0  0  0  0  0  0  0  0  0  0
   12.7774  -16.9556   23.3778 C   0  0  2  0  0  0  0  0  0  0  0  0
   11.4734  -17.1409   22.7488 N   0  0  0  0  0  0  0  0  0  0  0  0
   13.5508  -15.8879   22.7047 C   0  0  0  0  0  0  0  0  0  0  0  0
   14.5635  -15.2179   23.3755 O   0  0  0  0  0  0  0  0  0  0  0  0
   13.2887  -15.5923   21.5316 O   0  0  0  0  0  0  0  0  0  0  0  0
  2  1  1  0
  3  4  1  0
  3  2  1  0
  4  5  1  0
  5  7  1  0
  5  6  1  1
  7 13  1  0
  8  7  2  0
 10  9  1  1
 10 11  1  0
 10 12  1  0
 12 14  1  0
 12 13  1  1
 14 15  2  0
 14 18  1  0
 17 19  1  0
 17 16  1  6
 18 17  1  0
 19 20  1  0
 21 19  2  0
M  END
$$$$
