MTA.pdb
     RDKit          3D

 21 20  0  0  1  0  0  0  0  0999 V2000
    8.3369  -11.5436   20.6326 C   0  0  0  0  0  0  0  0  0  0  0  0
    7.8187  -12.3454   19.0906 S   0  0  0  0  0  0  0  0  0  0  0  0
    8.5475  -14.0258   19.1015 C   0  0  0  0  0  0  0  0  0  0  0  0
    8.5213  -14.5384   20.5028 C   0  0  0  0  0  0  0  0  0  0  0  0
    9.1648  -15.8777   20.6692 C   0  0  2  0  0  0  0  0  0  0  0  0
    8.6359  -16.8152   19.6867 N   0  0  0  0  0  0  0  0  0  0  0  0
    9.0097  -16.3825   22.0374 C   0  0  0  0  0  0  0  0  0  0  0  0
    7.9333  -16.8718   22.4531 O   0  0  0  0  0  0  0  0  0  0  0  0
   10.4116  -19.1714   23.5478 C   0  0  0  0  0  0  0  0  0  0  0  0
   10.7864  -18.0554   24.4581 C   0  0  1  0  0  0  0  0  0  0  0  0
   12.0919  -17.6551   24.0832 O   0  0  0  0  0  0  0  0  0  0  0  0
    9.8956  -16.8360   24.3742 C   0  0  2  0  0  0  0  0  0  0  0  0
   10.0758  -16.3526   22.9954 N   0  0  0  0  0  0  0  0  0  0  0  0
   10.2353  -15.7780   25.3247 C   0  0  0  0  0  0  0  0  0  0  0  0
   11.2766  -15.0671   25.1113 O   0  0  0  0  0  0  0  0  0  0  0  0
    8.9772  -13.3812   27.7109 C   0  0  0  0  0  0  0  0  0  0  0  0
    9.9971  -14.4532   27.4518 C   0  0  2  0  0  0  0  0  0  0  0  0
    9.5110  -15.4433   26.4960 N   0  0  0  0  0  0  0  0  0  0  0  0
   10.4581  -15.0965   28.7028 C   0  0  0  0  0  0  0  0  0  0  0  0
   11.1541  -14.3692   29.6573 O   0  0  0  0  0  0  0  0  0  0  0  0
   10.2184  -16.2954   28.8960 O   0  0  0  0  0  0  0  0  0  0  0  0
  2  1  1  0
  3  4  1  0
  3  2  1  0
  4  5  1  0
  5  7  1  0
  5  6  1  6
  7 13  1  0
  8  7  2  0
 10  9  1  6
 10 11  1  0
 10 12  1  0
 12 14  1  0
 12 13  1  6
 14 15  2  0
 14 18  1  0
 17 19  1  0
 17 16  1  1
 18 17  1  0
 19 20  1  0
 21 19  2  0
M  END
$$$$
