MTA.pdb
     RDKit          3D

 21 20  0  0  1  0  0  0  0  0999 V2000
    8.1084  -11.5690   20.9841 C   0  0  0  0  0  0  0  0  0  0  0  0
    8.1170  -12.3416   19.3434 S   0  0  0  0  0  0  0  0  0  0  0  0
    7.7965  -14.1265   19.6015 C   0  0  0  0  0  0  0  0  0  0  0  0
    9.0177  -14.7395   20.2011 C   0  0  0  0  0  0  0  0  0  0  0  0
    8.8427  -16.1694   20.6017 C   0  0  2  0  0  0  0  0  0  0  0  0
    7.8791  -16.8228   19.7250 N   0  0  0  0  0  0  0  0  0  0  0  0
    8.4597  -16.2897   22.0122 C   0  0  0  0  0  0  0  0  0  0  0  0
    7.2701  -16.1911   22.3943 O   0  0  0  0  0  0  0  0  0  0  0  0
    9.0570  -19.2471   23.8596 C   0  0  0  0  0  0  0  0  0  0  0  0
    9.5584  -18.1603   24.7440 C   0  0  1  0  0  0  0  0  0  0  0  0
   10.9605  -18.1055   24.5544 O   0  0  0  0  0  0  0  0  0  0  0  0
    9.0051  -16.7852   24.4428 C   0  0  2  0  0  0  0  0  0  0  0  0
    9.4165  -16.5281   23.0530 N   0  0  0  0  0  0  0  0  0  0  0  0
    9.5113  -15.7296   25.3189 C   0  0  0  0  0  0  0  0  0  0  0  0
   10.6487  -15.2052   25.0606 O   0  0  0  0  0  0  0  0  0  0  0  0
    8.4449  -13.2309   27.8547 C   0  0  0  0  0  0  0  0  0  0  0  0
    9.4672  -14.1852   27.3062 C   0  0  2  0  0  0  0  0  0  0  0  0
    8.8560  -15.2065   26.4614 N   0  0  0  0  0  0  0  0  0  0  0  0
   10.2891  -14.7951   28.3756 C   0  0  0  0  0  0  0  0  0  0  0  0
   10.3337  -16.1725   28.5348 O   0  0  0  0  0  0  0  0  0  0  0  0
   10.9419  -14.0661   29.1336 O   0  0  0  0  0  0  0  0  0  0  0  0
  2  1  1  0
  3  4  1  0
  3  2  1  0
  4  5  1  0
  5  7  1  0
  5  6  1  6
  7 13  1  0
  8  7  2  0
 10  9  1  6
 10 11  1  0
 10 12  1  0
 12 14  1  0
 12 13  1  6
 14 15  2  0
 14 18  1  0
 17 19  1  0
 17 16  1  1
 18 17  1  0
 19 20  1  0
 21 19  2  0
M  END
$$$$
