MTA.pdb
     RDKit          3D

 21 20  0  0  1  0  0  0  0  0999 V2000
    7.5527  -11.5149   26.3177 C   0  0  0  0  0  0  0  0  0  0  0  0
    6.4365  -12.1797   27.5831 S   0  0  0  0  0  0  0  0  0  0  0  0
    5.7304  -13.7260   26.9010 C   0  0  0  0  0  0  0  0  0  0  0  0
    6.7309  -14.3273   25.9713 C   0  0  0  0  0  0  0  0  0  0  0  0
    6.2607  -15.5802   25.3044 C   0  0  2  0  0  0  0  0  0  0  0  0
    5.9906  -16.6091   26.3005 N   0  0  0  0  0  0  0  0  0  0  0  0
    7.2174  -16.0430   24.2938 C   0  0  0  0  0  0  0  0  0  0  0  0
    7.8712  -17.1041   24.4262 O   0  0  0  0  0  0  0  0  0  0  0  0
    8.4412  -13.4948   21.0733 C   0  0  0  0  0  0  0  0  0  0  0  0
    8.1278  -14.9332   20.8556 C   0  0  1  0  0  0  0  0  0  0  0  0
    8.9707  -15.3715   19.8056 O   0  0  0  0  0  0  0  0  0  0  0  0
    8.3821  -15.8299   22.0468 C   0  0  2  0  0  0  0  0  0  0  0  0
    7.4728  -15.3166   23.0845 N   0  0  0  0  0  0  0  0  0  0  0  0
    9.7611  -15.8060   22.5323 C   0  0  0  0  0  0  0  0  0  0  0  0
   10.0883  -14.9466   23.4210 O   0  0  0  0  0  0  0  0  0  0  0  0
   12.4340  -17.4753   23.7581 C   0  0  0  0  0  0  0  0  0  0  0  0
   12.1708  -16.5287   22.6218 C   0  0  2  0  0  0  0  0  0  0  0  0
   10.8099  -16.6611   22.1111 N   0  0  0  0  0  0  0  0  0  0  0  0
   13.1672  -16.6716   21.5365 C   0  0  0  0  0  0  0  0  0  0  0  0
   14.5106  -16.4176   21.7718 O   0  0  0  0  0  0  0  0  0  0  0  0
   12.7949  -17.0214   20.4091 O   0  0  0  0  0  0  0  0  0  0  0  0
  2  1  1  0
  3  4  1  0
  3  2  1  0
  4  5  1  0
  5  7  1  0
  5  6  1  1
  7 13  1  0
  8  7  2  0
 10  9  1  1
 10 11  1  0
 10 12  1  0
 12 14  1  0
 12 13  1  1
 14 15  2  0
 14 18  1  0
 17 19  1  0
 17 16  1  1
 18 17  1  0
 19 20  1  0
 21 19  2  0
M  END
$$$$
