MTA.pdb
     RDKit          3D

 21 20  0  0  1  0  0  0  0  0999 V2000
   -9.2281  -20.6592   26.6523 C   0  0  0  0  0  0  0  0  0  0  0  0
   -9.6476  -21.0495   24.9317 S   0  0  0  0  0  0  0  0  0  0  0  0
   -8.2759  -22.0707   24.2751 C   0  0  0  0  0  0  0  0  0  0  0  0
   -7.9887  -23.1564   25.2577 C   0  0  0  0  0  0  0  0  0  0  0  0
   -6.7581  -23.9458   24.9447 C   0  0  2  0  0  0  0  0  0  0  0  0
   -6.7140  -24.2658   23.5236 N   0  0  0  0  0  0  0  0  0  0  0  0
   -6.6672  -25.1517   25.7744 C   0  0  0  0  0  0  0  0  0  0  0  0
   -7.1501  -26.2507   25.4142 O   0  0  0  0  0  0  0  0  0  0  0  0
   -3.4728  -26.6595   26.7915 C   0  0  0  0  0  0  0  0  0  0  0  0
   -4.2855  -26.4273   28.0163 C   0  0  1  0  0  0  0  0  0  0  0  0
   -3.9121  -25.1531   28.5081 O   0  0  0  0  0  0  0  0  0  0  0  0
   -5.7818  -26.4086   27.7960 C   0  0  2  0  0  0  0  0  0  0  0  0
   -6.0209  -25.1598   27.0541 N   0  0  0  0  0  0  0  0  0  0  0  0
   -6.5698  -26.4186   29.0276 C   0  0  0  0  0  0  0  0  0  0  0  0
   -6.6780  -25.3366   29.7005 O   0  0  0  0  0  0  0  0  0  0  0  0
   -8.9664  -28.6021   30.9638 C   0  0  0  0  0  0  0  0  0  0  0  0
   -8.0236  -27.4429   30.8092 C   0  0  2  0  0  0  0  0  0  0  0  0
   -7.2503  -27.5349   29.5748 N   0  0  0  0  0  0  0  0  0  0  0  0
   -7.1393  -27.2844   31.9857 C   0  0  0  0  0  0  0  0  0  0  0  0
   -7.6123  -26.7026   33.1529 O   0  0  0  0  0  0  0  0  0  0  0  0
   -5.9667  -27.6759   31.9241 O   0  0  0  0  0  0  0  0  0  0  0  0
  2  1  1  0
  3  4  1  0
  3  2  1  0
  4  5  1  0
  5  7  1  0
  5  6  1  6
  7 13  1  0
  8  7  2  0
 10  9  1  6
 10 11  1  0
 10 12  1  0
 12 14  1  0
 12 13  1  1
 14 15  2  0
 14 18  1  0
 17 19  1  0
 17 16  1  1
 18 17  1  0
 19 20  1  0
 21 19  2  0
M  END
$$$$
