MTA.pdb
     RDKit          3D

 21 20  0  0  1  0  0  0  0  0999 V2000
    7.0847  -12.1922   20.1601 C   0  0  0  0  0  0  0  0  0  0  0  0
    8.4501  -12.3797   18.9812 S   0  0  0  0  0  0  0  0  0  0  0  0
    9.0236  -14.1144   19.1131 C   0  0  0  0  0  0  0  0  0  0  0  0
    9.0493  -14.4904   20.5570 C   0  0  0  0  0  0  0  0  0  0  0  0
    9.4559  -15.9076   20.8060 C   0  0  2  0  0  0  0  0  0  0  0  0
    8.8375  -16.7882   19.8231 N   0  0  0  0  0  0  0  0  0  0  0  0
    9.1443  -16.3234   22.1774 C   0  0  0  0  0  0  0  0  0  0  0  0
    7.9812  -16.6170   22.5406 O   0  0  0  0  0  0  0  0  0  0  0  0
   10.0965  -19.2650   23.7079 C   0  0  0  0  0  0  0  0  0  0  0  0
   10.5492  -18.2203   24.6661 C   0  0  1  0  0  0  0  0  0  0  0  0
   11.9162  -17.9835   24.3830 O   0  0  0  0  0  0  0  0  0  0  0  0
    9.8265  -16.8962   24.5559 C   0  0  2  0  0  0  0  0  0  0  0  0
   10.1454  -16.4238   23.1986 N   0  0  0  0  0  0  0  0  0  0  0  0
   10.2425  -15.9014   25.5436 C   0  0  0  0  0  0  0  0  0  0  0  0
   11.3893  -15.3494   25.4190 O   0  0  0  0  0  0  0  0  0  0  0  0
    9.0199  -13.5525   28.1202 C   0  0  0  0  0  0  0  0  0  0  0  0
   10.0365  -14.5598   27.6635 C   0  0  2  0  0  0  0  0  0  0  0  0
    9.4870  -15.4674   26.6613 N   0  0  0  0  0  0  0  0  0  0  0  0
   10.6278  -15.3064   28.7967 C   0  0  0  0  0  0  0  0  0  0  0  0
   11.4478  -14.6663   29.7145 O   0  0  0  0  0  0  0  0  0  0  0  0
   10.3861  -16.5137   28.9237 O   0  0  0  0  0  0  0  0  0  0  0  0
  2  1  1  0
  3  4  1  0
  3  2  1  0
  4  5  1  0
  5  7  1  0
  5  6  1  6
  7 13  1  0
  8  7  2  0
 10  9  1  6
 10 11  1  0
 10 12  1  0
 12 14  1  0
 12 13  1  6
 14 15  2  0
 14 18  1  0
 17 19  1  0
 17 16  1  1
 18 17  1  0
 19 20  1  0
 21 19  2  0
M  END
$$$$
