MTA.pdb
     RDKit          3D

 21 20  0  0  1  0  0  0  0  0999 V2000
    5.5522  -11.5419   27.1219 C   0  0  0  0  0  0  0  0  0  0  0  0
    7.1700  -12.2351   27.5593 S   0  0  0  0  0  0  0  0  0  0  0  0
    7.1017  -14.0215   27.1598 C   0  0  0  0  0  0  0  0  0  0  0  0
    6.5101  -14.1744   25.7984 C   0  0  0  0  0  0  0  0  0  0  0  0
    6.2973  -15.5962   25.3873 C   0  0  2  0  0  0  0  0  0  0  0  0
    6.3317  -16.4676   26.5550 N   0  0  0  0  0  0  0  0  0  0  0  0
    7.2693  -16.0135   24.3715 C   0  0  0  0  0  0  0  0  0  0  0  0
    8.0541  -16.9743   24.5498 O   0  0  0  0  0  0  0  0  0  0  0  0
    8.2868  -13.5233   21.0798 C   0  0  0  0  0  0  0  0  0  0  0  0
    7.9934  -14.9658   20.8615 C   0  0  1  0  0  0  0  0  0  0  0  0
    8.8281  -15.3871   19.7982 O   0  0  0  0  0  0  0  0  0  0  0  0
    8.2790  -15.8621   22.0459 C   0  0  2  0  0  0  0  0  0  0  0  0
    7.3912  -15.3539   23.1045 N   0  0  0  0  0  0  0  0  0  0  0  0
    9.6686  -15.8321   22.4999 C   0  0  0  0  0  0  0  0  0  0  0  0
   10.0402  -14.8976   23.2898 O   0  0  0  0  0  0  0  0  0  0  0  0
   12.5401  -18.0038   23.1529 C   0  0  0  0  0  0  0  0  0  0  0  0
   12.0357  -16.6677   22.6874 C   0  0  2  0  0  0  0  0  0  0  0  0
   10.6825  -16.7578   22.1482 N   0  0  0  0  0  0  0  0  0  0  0  0
   12.9576  -16.0315   21.7196 C   0  0  0  0  0  0  0  0  0  0  0  0
   14.2086  -15.5867   22.1218 O   0  0  0  0  0  0  0  0  0  0  0  0
   12.6057  -15.8965   20.5407 O   0  0  0  0  0  0  0  0  0  0  0  0
  2  1  1  0
  3  4  1  0
  3  2  1  0
  4  5  1  0
  5  7  1  0
  5  6  1  1
  7 13  1  0
  8  7  2  0
 10  9  1  1
 10 11  1  0
 10 12  1  0
 12 14  1  0
 12 13  1  1
 14 15  2  0
 14 18  1  0
 17 19  1  0
 17 16  1  6
 18 17  1  0
 19 20  1  0
 21 19  2  0
M  END
$$$$
