MTA.pdb
     RDKit          3D

 21 20  0  0  1  0  0  0  0  0999 V2000
    5.6491  -11.5566   27.5880 C   0  0  0  0  0  0  0  0  0  0  0  0
    6.5424  -11.3241   26.0269 S   0  0  0  0  0  0  0  0  0  0  0  0
    6.1605  -12.7787   24.9812 C   0  0  0  0  0  0  0  0  0  0  0  0
    7.1646  -13.8428   25.2748 C   0  0  0  0  0  0  0  0  0  0  0  0
    6.9542  -15.1038   24.4994 C   0  0  2  0  0  0  0  0  0  0  0  0
    5.6175  -15.6292   24.7470 N   0  0  0  0  0  0  0  0  0  0  0  0
    7.9904  -16.0979   24.7977 C   0  0  0  0  0  0  0  0  0  0  0  0
    7.8975  -16.8942   25.7609 O   0  0  0  0  0  0  0  0  0  0  0  0
   10.0596  -17.9619   21.9463 C   0  0  0  0  0  0  0  0  0  0  0  0
   10.9374  -17.4606   23.0384 C   0  0  1  0  0  0  0  0  0  0  0  0
   11.4717  -16.2290   22.5883 O   0  0  0  0  0  0  0  0  0  0  0  0
   10.2357  -17.1983   24.3524 C   0  0  2  0  0  0  0  0  0  0  0  0
    9.1814  -16.2296   24.0105 N   0  0  0  0  0  0  0  0  0  0  0  0
   11.1011  -16.6500   25.3958 C   0  0  0  0  0  0  0  0  0  0  0  0
   11.4974  -15.4383   25.2958 O   0  0  0  0  0  0  0  0  0  0  0  0
   11.0192  -15.6394   28.2271 C   0  0  0  0  0  0  0  0  0  0  0  0
   12.0310  -16.6347   27.7349 C   0  0  2  0  0  0  0  0  0  0  0  0
   11.5633  -17.3387   26.5450 N   0  0  0  0  0  0  0  0  0  0  0  0
   12.4380  -17.5846   28.7948 C   0  0  0  0  0  0  0  0  0  0  0  0
   11.4895  -18.3337   29.4756 O   0  0  0  0  0  0  0  0  0  0  0  0
   13.6375  -17.7093   29.0738 O   0  0  0  0  0  0  0  0  0  0  0  0
  2  1  1  0
  3  4  1  0
  3  2  1  0
  4  5  1  0
  5  7  1  0
  5  6  1  1
  7 13  1  0
  8  7  2  0
 10  9  1  6
 10 11  1  0
 10 12  1  0
 12 14  1  0
 12 13  1  6
 14 15  2  0
 14 18  1  0
 17 19  1  0
 17 16  1  1
 18 17  1  0
 19 20  1  0
 21 19  2  0
M  END
$$$$
