MTA.pdb
     RDKit          3D

 21 20  0  0  1  0  0  0  0  0999 V2000
    6.7115  -18.2684   27.5139 C   0  0  0  0  0  0  0  0  0  0  0  0
    6.5173  -20.0415   27.1864 S   0  0  0  0  0  0  0  0  0  0  0  0
    6.0933  -20.2047   25.4118 C   0  0  0  0  0  0  0  0  0  0  0  0
    5.8347  -18.8405   24.8650 C   0  0  0  0  0  0  0  0  0  0  0  0
    5.5351  -18.8226   23.4002 C   0  0  2  0  0  0  0  0  0  0  0  0
    5.2468  -20.1714   22.9295 N   0  0  0  0  0  0  0  0  0  0  0  0
    6.6233  -18.2036   22.6363 C   0  0  0  0  0  0  0  0  0  0  0  0
    7.1815  -18.7832   21.6755 O   0  0  0  0  0  0  0  0  0  0  0  0
    6.5864  -14.3259   21.7110 C   0  0  0  0  0  0  0  0  0  0  0  0
    7.8975  -14.7766   22.2516 C   0  0  1  0  0  0  0  0  0  0  0  0
    7.8852  -14.4732   23.6347 O   0  0  0  0  0  0  0  0  0  0  0  0
    8.1701  -16.2580   22.1139 C   0  0  2  0  0  0  0  0  0  0  0  0
    7.1254  -16.8940   22.9332 N   0  0  0  0  0  0  0  0  0  0  0  0
    9.4932  -16.6706   22.5800 C   0  0  0  0  0  0  0  0  0  0  0  0
    9.6261  -17.0685   23.7880 O   0  0  0  0  0  0  0  0  0  0  0  0
   13.0234  -17.2115   21.3047 C   0  0  0  0  0  0  0  0  0  0  0  0
   11.9571  -17.1368   22.3601 C   0  0  2  0  0  0  0  0  0  0  0  0
   10.6844  -16.6783   21.8122 N   0  0  0  0  0  0  0  0  0  0  0  0
   12.3737  -16.3088   23.5142 C   0  0  0  0  0  0  0  0  0  0  0  0
   11.6629  -15.1687   23.8601 O   0  0  0  0  0  0  0  0  0  0  0  0
   13.3666  -16.6396   24.1751 O   0  0  0  0  0  0  0  0  0  0  0  0
  2  1  1  0
  3  4  1  0
  3  2  1  0
  4  5  1  0
  5  7  1  0
  5  6  1  6
  7 13  1  0
  8  7  2  0
 10  9  1  1
 10 11  1  0
 10 12  1  0
 12 14  1  0
 12 13  1  1
 14 15  2  0
 14 18  1  0
 17 19  1  0
 17 16  1  6
 18 17  1  0
 19 20  1  0
 21 19  2  0
M  END
$$$$
