MTA.pdb
     RDKit          3D

 21 20  0  0  1  0  0  0  0  0999 V2000
    8.5042  -11.8465   26.7129 C   0  0  0  0  0  0  0  0  0  0  0  0
    6.7467  -12.2012   26.9855 S   0  0  0  0  0  0  0  0  0  0  0  0
    6.2066  -13.2745   25.6029 C   0  0  0  0  0  0  0  0  0  0  0  0
    7.1732  -14.4050   25.4827 C   0  0  0  0  0  0  0  0  0  0  0  0
    6.8951  -15.3192   24.3327 C   0  0  2  0  0  0  0  0  0  0  0  0
    5.5540  -15.8780   24.4476 N   0  0  0  0  0  0  0  0  0  0  0  0
    7.9120  -16.3703   24.2232 C   0  0  0  0  0  0  0  0  0  0  0  0
    7.8084  -17.4676   24.8199 O   0  0  0  0  0  0  0  0  0  0  0  0
    9.7945  -16.7295   20.7603 C   0  0  0  0  0  0  0  0  0  0  0  0
   10.7140  -16.9886   21.9014 C   0  0  1  0  0  0  0  0  0  0  0  0
   11.4445  -15.7930   22.1056 O   0  0  0  0  0  0  0  0  0  0  0  0
   10.0313  -17.3325   23.2065 C   0  0  2  0  0  0  0  0  0  0  0  0
    9.0948  -16.2184   23.4274 N   0  0  0  0  0  0  0  0  0  0  0  0
   10.9405  -17.4563   24.3450 C   0  0  0  0  0  0  0  0  0  0  0  0
   11.5598  -16.4159   24.7568 O   0  0  0  0  0  0  0  0  0  0  0  0
   11.8132  -19.7633   27.1656 C   0  0  0  0  0  0  0  0  0  0  0  0
   12.1456  -18.6673   26.1937 C   0  0  2  0  0  0  0  0  0  0  0  0
   11.2189  -18.6440   25.0664 N   0  0  0  0  0  0  0  0  0  0  0  0
   13.5501  -18.7402   25.7321 C   0  0  0  0  0  0  0  0  0  0  0  0
   13.8446  -18.9764   24.3972 O   0  0  0  0  0  0  0  0  0  0  0  0
   14.4686  -18.5884   26.5478 O   0  0  0  0  0  0  0  0  0  0  0  0
  2  1  1  0
  3  4  1  0
  3  2  1  0
  4  5  1  0
  5  7  1  0
  5  6  1  1
  7 13  1  0
  8  7  2  0
 10  9  1  6
 10 11  1  0
 10 12  1  0
 12 14  1  0
 12 13  1  1
 14 15  2  0
 14 18  1  0
 17 19  1  0
 17 16  1  1
 18 17  1  0
 19 20  1  0
 21 19  2  0
M  END
$$$$
