KPI.pdb
     RDKit          3D

 25 25  0  0  1  0  0  0  0  0999 V2000
    7.2426  -19.1523   20.8644 N   0  0  0  0  0  0  0  0  0  0  0  0
    6.7373  -17.8905   21.4222 C   0  0  1  0  0  0  0  0  0  0  0  0
    6.0757  -18.1850   22.7767 C   0  0  0  0  0  0  0  0  0  0  0  0
    6.2137  -19.6901   22.9550 C   0  0  0  0  0  0  0  0  0  0  0  0
    6.5842  -20.0493   24.3775 C   0  0  0  0  0  0  0  0  0  0  0  0
    6.6153  -21.5481   24.5787 C   0  0  0  0  0  0  0  0  0  0  0  0
    7.0823  -21.7697   25.9515 N   0  0  0  0  0  0  0  0  0  0  0  0
    7.8397  -16.9503   21.6604 C   0  0  0  0  0  0  0  0  0  0  0  0
    8.9974  -17.3876   21.9297 O   0  0  0  0  0  0  0  0  0  0  0  0
    7.6506  -15.5690   21.5961 N   0  0  0  0  0  0  0  0  0  0  0  0
    6.4252  -14.8601   21.2863 C   0  0  0  0  0  0  0  0  0  0  0  0
    6.8918  -13.6464   20.4907 C   0  0  0  0  0  0  0  0  0  0  0  0
    8.2821  -13.4211   20.9388 C   0  0  0  0  0  0  0  0  0  0  0  0
    8.6678  -14.5541   21.8158 C   0  0  1  0  0  0  0  0  0  0  0  0
    8.7154  -14.2061   23.2508 C   0  0  0  0  0  0  0  0  0  0  0  0
    8.5639  -12.9774   23.5564 O   0  0  0  0  0  0  0  0  0  0  0  0
    6.3980  -11.9312   25.5750 C   0  0  0  0  0  0  0  0  0  0  0  0
    7.5640  -12.7826   25.1717 C   0  0  0  0  0  0  0  0  0  0  0  0
    7.8303  -13.9494   26.0512 C   0  0  2  0  0  0  0  0  0  0  0  0
    8.1318  -13.4638   27.4544 C   0  0  0  0  0  0  0  0  0  0  0  0
    8.9698  -14.8345   25.6228 C   0  0  2  0  0  0  0  0  0  0  0  0
    8.9207  -15.1966   24.2448 N   0  0  0  0  0  0  0  0  0  0  0  0
    9.1771  -16.0081   26.5081 C   0  0  0  0  0  0  0  0  0  0  0  0
    8.7699  -17.1366   26.1356 O   0  0  0  0  0  0  0  0  0  0  0  0
    9.8037  -15.9330   27.7433 O   0  0  0  0  0  0  0  0  0  0  0  0
  2  1  1  1
  2  3  1  0
  2  8  1  0
  4  3  1  0
  5  6  1  0
  5  4  1  0
  6  7  1  0
  8  9  2  0
  8 10  1  0
 10 11  1  0
 11 12  1  0
 13 12  1  0
 14 10  1  0
 14 13  1  0
 14 15  1  1
 16 15  2  0
 18 17  1  0
 19 18  1  0
 19 21  1  0
 19 20  1  1
 21 22  1  6
 22 15  1  0
 23 25  1  0
 23 21  1  0
 24 23  2  0
M  END
$$$$
