KPI.pdb
     RDKit          3D

 25 25  0  0  1  0  0  0  0  0999 V2000
   11.9828  -17.5326   20.2988 N   0  0  0  0  0  0  0  0  0  0  0  0
   10.5592  -17.5996   20.6559 C   0  0  1  0  0  0  0  0  0  0  0  0
   10.3394  -18.8197   21.5626 C   0  0  0  0  0  0  0  0  0  0  0  0
   10.5187  -20.0205   20.6448 C   0  0  0  0  0  0  0  0  0  0  0  0
   10.3705  -21.3236   21.3997 C   0  0  0  0  0  0  0  0  0  0  0  0
   10.5391  -22.5151   20.4835 C   0  0  0  0  0  0  0  0  0  0  0  0
   10.2299  -23.7013   21.2892 N   0  0  0  0  0  0  0  0  0  0  0  0
   10.1570  -16.4060   21.4108 C   0  0  0  0  0  0  0  0  0  0  0  0
   11.0319  -15.7060   22.0012 O   0  0  0  0  0  0  0  0  0  0  0  0
    8.8214  -16.0105   21.4977 N   0  0  0  0  0  0  0  0  0  0  0  0
    7.6664  -16.6732   20.9259 C   0  0  0  0  0  0  0  0  0  0  0  0
    6.7513  -15.5270   20.5104 C   0  0  0  0  0  0  0  0  0  0  0  0
    7.1254  -14.4108   21.4040 C   0  0  0  0  0  0  0  0  0  0  0  0
    8.3211  -14.8271   22.1777 C   0  0  1  0  0  0  0  0  0  0  0  0
    8.0320  -15.1546   23.5890 C   0  0  0  0  0  0  0  0  0  0  0  0
    7.9494  -16.3900   23.8941 O   0  0  0  0  0  0  0  0  0  0  0  0
    5.7780  -11.4429   27.4496 C   0  0  0  0  0  0  0  0  0  0  0  0
    6.1917  -12.4661   26.4351 C   0  0  0  0  0  0  0  0  0  0  0  0
    7.3707  -13.2882   26.8094 C   0  0  2  0  0  0  0  0  0  0  0  0
    8.6143  -12.4231   26.7901 C   0  0  0  0  0  0  0  0  0  0  0  0
    7.6332  -14.4798   25.9282 C   0  0  2  0  0  0  0  0  0  0  0  0
    7.8541  -14.1382   24.5618 N   0  0  0  0  0  0  0  0  0  0  0  0
    6.6343  -15.5669   26.0841 C   0  0  0  0  0  0  0  0  0  0  0  0
    5.7420  -15.7095   25.2115 O   0  0  0  0  0  0  0  0  0  0  0  0
    6.6261  -16.4501   27.1537 O   0  0  0  0  0  0  0  0  0  0  0  0
  2  1  1  1
  2  3  1  0
  2  8  1  0
  4  3  1  0
  5  6  1  0
  5  4  1  0
  6  7  1  0
  8  9  2  0
  8 10  1  0
 10 11  1  0
 11 12  1  0
 13 12  1  0
 14 10  1  0
 14 13  1  0
 14 15  1  1
 16 15  2  0
 18 17  1  0
 19 18  1  0
 19 21  1  0
 19 20  1  6
 21 22  1  6
 22 15  1  0
 23 25  1  0
 23 21  1  0
 24 23  2  0
M  END
$$$$
