KPI.pdb
     RDKit          3D

 25 25  0  0  1  0  0  0  0  0999 V2000
   10.3354  -17.8418   19.9628 N   0  0  0  0  0  0  0  0  0  0  0  0
    9.0899  -17.1390   20.2998 C   0  0  1  0  0  0  0  0  0  0  0  0
    8.1154  -18.1457   20.9290 C   0  0  0  0  0  0  0  0  0  0  0  0
    7.3382  -18.7183   19.7523 C   0  0  0  0  0  0  0  0  0  0  0  0
    6.3061  -19.7273   20.2067 C   0  0  0  0  0  0  0  0  0  0  0  0
    5.5856  -20.3483   19.0306 C   0  0  0  0  0  0  0  0  0  0  0  0
    4.7292  -21.4036   19.5829 N   0  0  0  0  0  0  0  0  0  0  0  0
    9.3411  -16.0843   21.2902 C   0  0  0  0  0  0  0  0  0  0  0  0
   10.3210  -16.1843   22.0864 O   0  0  0  0  0  0  0  0  0  0  0  0
    8.5239  -14.9567   21.3820 N   0  0  0  0  0  0  0  0  0  0  0  0
    7.3898  -14.6190   20.5455 C   0  0  0  0  0  0  0  0  0  0  0  0
    7.4633  -13.1016   20.4190 C   0  0  0  0  0  0  0  0  0  0  0  0
    8.1820  -12.6624   21.6334 C   0  0  0  0  0  0  0  0  0  0  0  0
    8.6631  -13.8741   22.3420 C   0  0  1  0  0  0  0  0  0  0  0  0
    7.8936  -14.1946   23.5617 C   0  0  0  0  0  0  0  0  0  0  0  0
    6.9106  -14.9969   23.4350 O   0  0  0  0  0  0  0  0  0  0  0  0
   10.4098  -14.1910   28.4738 C   0  0  0  0  0  0  0  0  0  0  0  0
    9.4721  -14.6017   27.3787 C   0  0  0  0  0  0  0  0  0  0  0  0
    8.2356  -13.7868   27.2652 C   0  0  2  0  0  0  0  0  0  0  0  0
    7.2974  -14.1341   28.4030 C   0  0  0  0  0  0  0  0  0  0  0  0
    7.4698  -13.9505   25.9798 C   0  0  2  0  0  0  0  0  0  0  0  0
    8.2343  -13.6336   24.8189 N   0  0  0  0  0  0  0  0  0  0  0  0
    6.1465  -13.2778   25.9856 C   0  0  0  0  0  0  0  0  0  0  0  0
    5.1479  -13.8929   26.4358 O   0  0  0  0  0  0  0  0  0  0  0  0
    5.9417  -11.9889   25.5156 O   0  0  0  0  0  0  0  0  0  0  0  0
  2  1  1  1
  2  3  1  0
  2  8  1  0
  4  3  1  0
  5  6  1  0
  5  4  1  0
  6  7  1  0
  8  9  2  0
  8 10  1  0
 10 11  1  0
 11 12  1  0
 13 12  1  0
 14 10  1  0
 14 13  1  0
 14 15  1  1
 16 15  2  0
 18 17  1  0
 19 18  1  0
 19 21  1  0
 19 20  1  1
 21 22  1  6
 22 15  1  0
 23 25  1  0
 23 21  1  0
 24 23  2  0
M  END
$$$$
