KPI.pdb
     RDKit          3D

 25 25  0  0  1  0  0  0  0  0999 V2000
    9.6545  -18.5712   20.4338 N   0  0  0  0  0  0  0  0  0  0  0  0
    8.6239  -17.5241   20.4463 C   0  0  1  0  0  0  0  0  0  0  0  0
    7.2896  -18.1563   20.8695 C   0  0  0  0  0  0  0  0  0  0  0  0
    7.6371  -19.5974   21.2146 C   0  0  0  0  0  0  0  0  0  0  0  0
    6.4226  -20.3619   21.6945 C   0  0  0  0  0  0  0  0  0  0  0  0
    6.7783  -21.7822   22.0738 C   0  0  0  0  0  0  0  0  0  0  0  0
    7.4080  -21.7098   23.3968 N   0  0  0  0  0  0  0  0  0  0  0  0
    8.9541  -16.4829   21.4277 C   0  0  0  0  0  0  0  0  0  0  0  0
    9.9182  -16.6534   22.2310 O   0  0  0  0  0  0  0  0  0  0  0  0
    8.2302  -15.2920   21.5030 N   0  0  0  0  0  0  0  0  0  0  0  0
    7.0703  -14.9141   20.7210 C   0  0  0  0  0  0  0  0  0  0  0  0
    7.2466  -13.4162   20.4993 C   0  0  0  0  0  0  0  0  0  0  0  0
    8.0761  -12.9677   21.6374 C   0  0  0  0  0  0  0  0  0  0  0  0
    8.5132  -14.1722   22.3856 C   0  0  1  0  0  0  0  0  0  0  0  0
    7.8064  -14.3645   23.6685 C   0  0  0  0  0  0  0  0  0  0  0  0
    6.7334  -15.0532   23.6437 O   0  0  0  0  0  0  0  0  0  0  0  0
   10.6816  -14.0095   28.4407 C   0  0  0  0  0  0  0  0  0  0  0  0
    9.7137  -14.4956   27.4043 C   0  0  0  0  0  0  0  0  0  0  0  0
    8.4404  -13.7356   27.3212 C   0  0  2  0  0  0  0  0  0  0  0  0
    7.5907  -14.0421   28.5375 C   0  0  0  0  0  0  0  0  0  0  0  0
    7.6025  -14.0105   26.1015 C   0  0  2  0  0  0  0  0  0  0  0  0
    8.3005  -13.8068   24.8751 N   0  0  0  0  0  0  0  0  0  0  0  0
    6.2831  -13.3303   26.1201 C   0  0  0  0  0  0  0  0  0  0  0  0
    6.1661  -12.2042   25.5759 O   0  0  0  0  0  0  0  0  0  0  0  0
    5.1519  -13.8719   26.7126 O   0  0  0  0  0  0  0  0  0  0  0  0
  2  1  1  1
  2  3  1  0
  2  8  1  0
  4  3  1  0
  5  6  1  0
  5  4  1  0
  6  7  1  0
  8  9  2  0
  8 10  1  0
 10 11  1  0
 11 12  1  0
 13 12  1  0
 14 10  1  0
 14 13  1  0
 14 15  1  1
 16 15  2  0
 18 17  1  0
 19 18  1  0
 19 21  1  0
 19 20  1  1
 21 22  1  6
 22 15  1  0
 23 25  1  0
 23 21  1  0
 24 23  2  0
M  END
$$$$
