KPI.pdb
     RDKit          3D

 25 25  0  0  1  0  0  0  0  0999 V2000
   11.5237  -16.6860   19.5444 N   0  0  0  0  0  0  0  0  0  0  0  0
   10.1384  -16.7146   20.0333 C   0  0  1  0  0  0  0  0  0  0  0  0
    9.7423  -18.1754   20.2945 C   0  0  0  0  0  0  0  0  0  0  0  0
   11.0234  -18.8438   20.7724 C   0  0  0  0  0  0  0  0  0  0  0  0
   10.7899  -20.2927   21.1409 C   0  0  0  0  0  0  0  0  0  0  0  0
   12.0342  -20.9207   21.7286 C   0  0  0  0  0  0  0  0  0  0  0  0
   11.6818  -22.3073   22.0529 N   0  0  0  0  0  0  0  0  0  0  0  0
   10.0217  -15.9879   21.3040 C   0  0  0  0  0  0  0  0  0  0  0  0
   11.0636  -15.5842   21.9002 O   0  0  0  0  0  0  0  0  0  0  0  0
    8.7803  -15.7213   21.8834 N   0  0  0  0  0  0  0  0  0  0  0  0
    7.4777  -16.1478   21.4129 C   0  0  0  0  0  0  0  0  0  0  0  0
    6.5633  -14.9736   21.7430 C   0  0  0  0  0  0  0  0  0  0  0  0
    7.2233  -14.2974   22.8795 C   0  0  0  0  0  0  0  0  0  0  0  0
    8.5465  -14.9366   23.0844 C   0  0  1  0  0  0  0  0  0  0  0  0
    8.6042  -15.8183   24.2685 C   0  0  0  0  0  0  0  0  0  0  0  0
    8.5975  -17.0760   24.0578 O   0  0  0  0  0  0  0  0  0  0  0  0
   10.2414  -12.6971   28.5963 C   0  0  0  0  0  0  0  0  0  0  0  0
   10.2803  -13.6719   27.4582 C   0  0  0  0  0  0  0  0  0  0  0  0
    9.7489  -15.0245   27.7646 C   0  0  2  0  0  0  0  0  0  0  0  0
   10.7230  -15.7561   28.6654 C   0  0  0  0  0  0  0  0  0  0  0  0
    9.4888  -15.9023   26.5699 C   0  0  2  0  0  0  0  0  0  0  0  0
    8.6644  -15.2879   25.5823 N   0  0  0  0  0  0  0  0  0  0  0  0
    9.0243  -17.2671   26.9240 C   0  0  0  0  0  0  0  0  0  0  0  0
    9.8709  -18.1417   27.2344 O   0  0  0  0  0  0  0  0  0  0  0  0
    7.6889  -17.6421   26.9328 O   0  0  0  0  0  0  0  0  0  0  0  0
  2  1  1  1
  2  3  1  0
  2  8  1  0
  4  3  1  0
  5  6  1  0
  5  4  1  0
  6  7  1  0
  8  9  2  0
  8 10  1  0
 10 11  1  0
 11 12  1  0
 13 12  1  0
 14 10  1  0
 14 13  1  0
 14 15  1  1
 16 15  2  0
 18 17  1  0
 19 18  1  0
 19 21  1  0
 19 20  1  1
 21 22  1  6
 22 15  1  0
 23 25  1  0
 23 21  1  0
 24 23  2  0
M  END
$$$$
