KPI.pdb
     RDKit          3D

 25 25  0  0  1  0  0  0  0  0999 V2000
    7.7654  -19.6868   21.5519 N   0  0  0  0  0  0  0  0  0  0  0  0
    7.0184  -18.4908   21.9646 C   0  0  1  0  0  0  0  0  0  0  0  0
    6.2786  -18.8040   23.2737 C   0  0  0  0  0  0  0  0  0  0  0  0
    7.1426  -19.8488   23.9654 C   0  0  0  0  0  0  0  0  0  0  0  0
    6.4994  -20.3444   25.2423 C   0  0  0  0  0  0  0  0  0  0  0  0
    7.3776  -21.3541   25.9474 C   0  0  0  0  0  0  0  0  0  0  0  0
    6.6207  -21.8122   27.1175 N   0  0  0  0  0  0  0  0  0  0  0  0
    7.9333  -17.3727   22.2271 C   0  0  0  0  0  0  0  0  0  0  0  0
    9.1115  -17.6007   22.6320 O   0  0  0  0  0  0  0  0  0  0  0  0
    7.5413  -16.0465   22.0393 N   0  0  0  0  0  0  0  0  0  0  0  0
    6.2106  -15.5533   21.7461 C   0  0  0  0  0  0  0  0  0  0  0  0
    6.4511  -14.3796   20.8037 C   0  0  0  0  0  0  0  0  0  0  0  0
    7.8158  -13.9152   21.1301 C   0  0  0  0  0  0  0  0  0  0  0  0
    8.4098  -14.8818   22.0864 C   0  0  1  0  0  0  0  0  0  0  0  0
    8.4836  -14.3775   23.4730 C   0  0  0  0  0  0  0  0  0  0  0  0
    8.1383  -13.1659   23.6703 O   0  0  0  0  0  0  0  0  0  0  0  0
    5.8907  -12.4972   25.9574 C   0  0  0  0  0  0  0  0  0  0  0  0
    7.1882  -13.0591   25.4597 C   0  0  0  0  0  0  0  0  0  0  0  0
    7.8740  -13.9901   26.3917 C   0  0  2  0  0  0  0  0  0  0  0  0
    8.2834  -13.2396   27.6425 C   0  0  0  0  0  0  0  0  0  0  0  0
    9.1036  -14.6633   25.8437 C   0  0  2  0  0  0  0  0  0  0  0  0
    8.9201  -15.2059   24.5382 N   0  0  0  0  0  0  0  0  0  0  0  0
    9.7149  -15.6396   26.7802 C   0  0  0  0  0  0  0  0  0  0  0  0
   10.0956  -15.2484   27.9116 O   0  0  0  0  0  0  0  0  0  0  0  0
    9.8947  -16.9811   26.4766 O   0  0  0  0  0  0  0  0  0  0  0  0
  2  1  1  1
  2  3  1  0
  2  8  1  0
  4  3  1  0
  5  6  1  0
  5  4  1  0
  6  7  1  0
  8  9  2  0
  8 10  1  0
 10 11  1  0
 11 12  1  0
 13 12  1  0
 14 10  1  0
 14 13  1  0
 14 15  1  1
 16 15  2  0
 18 17  1  0
 19 18  1  0
 19 21  1  0
 19 20  1  1
 21 22  1  6
 22 15  1  0
 23 25  1  0
 23 21  1  0
 24 23  2  0
M  END
$$$$
