KPI.pdb
     RDKit          3D

 25 25  0  0  1  0  0  0  0  0999 V2000
    7.5052  -18.9804   20.5087 N   0  0  0  0  0  0  0  0  0  0  0  0
    6.9154  -17.8002   21.1554 C   0  0  1  0  0  0  0  0  0  0  0  0
    6.2833  -18.2364   22.4855 C   0  0  0  0  0  0  0  0  0  0  0  0
    6.9937  -19.5338   22.8440 C   0  0  0  0  0  0  0  0  0  0  0  0
    6.5073  -20.0864   24.1660 C   0  0  0  0  0  0  0  0  0  0  0  0
    7.3366  -21.2716   24.6080 C   0  0  0  0  0  0  0  0  0  0  0  0
    6.8807  -21.6119   25.9602 N   0  0  0  0  0  0  0  0  0  0  0  0
    7.9504  -16.8042   21.4600 C   0  0  0  0  0  0  0  0  0  0  0  0
    9.1457  -17.1735   21.6572 O   0  0  0  0  0  0  0  0  0  0  0  0
    7.6554  -15.4423   21.5379 N   0  0  0  0  0  0  0  0  0  0  0  0
    6.3490  -14.8181   21.4764 C   0  0  0  0  0  0  0  0  0  0  0  0
    6.5965  -13.5175   20.7208 C   0  0  0  0  0  0  0  0  0  0  0  0
    8.0203  -13.2089   20.9696 C   0  0  0  0  0  0  0  0  0  0  0  0
    8.6194  -14.3640   21.6826 C   0  0  1  0  0  0  0  0  0  0  0  0
    8.8675  -14.1137   23.1173 C   0  0  0  0  0  0  0  0  0  0  0  0
    9.1464  -12.9172   23.4591 O   0  0  0  0  0  0  0  0  0  0  0  0
    6.8934  -11.4988   25.5913 C   0  0  0  0  0  0  0  0  0  0  0  0
    7.8871  -12.5343   25.1587 C   0  0  0  0  0  0  0  0  0  0  0  0
    7.8024  -13.8319   25.8762 C   0  0  2  0  0  0  0  0  0  0  0  0
    7.9644  -13.5962   27.3640 C   0  0  0  0  0  0  0  0  0  0  0  0
    8.8189  -14.8638   25.4670 C   0  0  2  0  0  0  0  0  0  0  0  0
    8.7984  -15.1596   24.0726 N   0  0  0  0  0  0  0  0  0  0  0  0
    8.7933  -16.0892   26.3047 C   0  0  0  0  0  0  0  0  0  0  0  0
    8.1181  -17.0779   25.9244 O   0  0  0  0  0  0  0  0  0  0  0  0
    9.4813  -16.2109   27.5030 O   0  0  0  0  0  0  0  0  0  0  0  0
  2  1  1  1
  2  3  1  0
  2  8  1  0
  4  3  1  0
  5  6  1  0
  5  4  1  0
  6  7  1  0
  8  9  2  0
  8 10  1  0
 10 11  1  0
 11 12  1  0
 13 12  1  0
 14 10  1  0
 14 13  1  0
 14 15  1  1
 16 15  2  0
 18 17  1  0
 19 18  1  0
 19 21  1  0
 19 20  1  1
 21 22  1  6
 22 15  1  0
 23 25  1  0
 23 21  1  0
 24 23  2  0
M  END
$$$$
