KPI.pdb
     RDKit          3D

 25 25  0  0  1  0  0  0  0  0999 V2000
    9.7494  -18.2792   20.4340 N   0  0  0  0  0  0  0  0  0  0  0  0
    8.6299  -17.3302   20.5040 C   0  0  1  0  0  0  0  0  0  0  0  0
    7.3506  -18.1077   20.8475 C   0  0  0  0  0  0  0  0  0  0  0  0
    6.9903  -18.8446   19.5655 C   0  0  0  0  0  0  0  0  0  0  0  0
    5.7539  -19.6985   19.7445 C   0  0  0  0  0  0  0  0  0  0  0  0
    5.3616  -20.3802   18.4525 C   0  0  0  0  0  0  0  0  0  0  0  0
    4.1948  -21.2130   18.7642 N   0  0  0  0  0  0  0  0  0  0  0  0
    8.8513  -16.3446   21.5697 C   0  0  0  0  0  0  0  0  0  0  0  0
    9.6754  -16.5918   22.4992 O   0  0  0  0  0  0  0  0  0  0  0  0
    8.1745  -15.1242   21.5902 N   0  0  0  0  0  0  0  0  0  0  0  0
    7.0402  -14.7311   20.7786 C   0  0  0  0  0  0  0  0  0  0  0  0
    7.2786  -13.2509   20.5031 C   0  0  0  0  0  0  0  0  0  0  0  0
    8.1113  -12.7922   21.6348 C   0  0  0  0  0  0  0  0  0  0  0  0
    8.4910  -13.9834   22.4337 C   0  0  1  0  0  0  0  0  0  0  0  0
    7.7614  -14.0987   23.7132 C   0  0  0  0  0  0  0  0  0  0  0  0
    6.6848  -14.7822   23.7090 O   0  0  0  0  0  0  0  0  0  0  0  0
   10.6468  -13.8327   28.5114 C   0  0  0  0  0  0  0  0  0  0  0  0
    9.6883  -14.2424   27.4341 C   0  0  0  0  0  0  0  0  0  0  0  0
    8.4569  -13.4179   27.3351 C   0  0  2  0  0  0  0  0  0  0  0  0
    7.6126  -13.6229   28.5763 C   0  0  0  0  0  0  0  0  0  0  0  0
    7.5847  -13.7003   26.1414 C   0  0  2  0  0  0  0  0  0  0  0  0
    8.2384  -13.4757   24.8945 N   0  0  0  0  0  0  0  0  0  0  0  0
    6.2544  -13.0447   26.2079 C   0  0  0  0  0  0  0  0  0  0  0  0
    6.0850  -11.9416   25.6312 O   0  0  0  0  0  0  0  0  0  0  0  0
    5.1682  -13.5854   26.8800 O   0  0  0  0  0  0  0  0  0  0  0  0
  2  1  1  1
  2  3  1  0
  2  8  1  0
  4  3  1  0
  5  6  1  0
  5  4  1  0
  6  7  1  0
  8  9  2  0
  8 10  1  0
 10 11  1  0
 11 12  1  0
 13 12  1  0
 14 10  1  0
 14 13  1  0
 14 15  1  1
 16 15  2  0
 18 17  1  0
 19 18  1  0
 19 21  1  0
 19 20  1  1
 21 22  1  6
 22 15  1  0
 23 25  1  0
 23 21  1  0
 24 23  2  0
M  END
$$$$
