KPI.pdb
     RDKit          3D

 25 25  0  0  1  0  0  0  0  0999 V2000
    7.4872  -18.9886   20.2046 N   0  0  0  0  0  0  0  0  0  0  0  0
    6.9496  -17.7295   20.7377 C   0  0  1  0  0  0  0  0  0  0  0  0
    6.1658  -18.0375   22.0222 C   0  0  0  0  0  0  0  0  0  0  0  0
    6.2728  -19.5466   22.1877 C   0  0  0  0  0  0  0  0  0  0  0  0
    7.2458  -19.9173   23.2858 C   0  0  0  0  0  0  0  0  0  0  0  0
    7.1767  -21.3931   23.6101 C   0  0  0  0  0  0  0  0  0  0  0  0
    8.1298  -21.6198   24.7020 N   0  0  0  0  0  0  0  0  0  0  0  0
    8.0378  -16.8088   21.0904 C   0  0  0  0  0  0  0  0  0  0  0  0
    9.2229  -17.2420   21.1993 O   0  0  0  0  0  0  0  0  0  0  0  0
    7.8050  -15.4503   21.3102 N   0  0  0  0  0  0  0  0  0  0  0  0
    6.5332  -14.7566   21.2751 C   0  0  0  0  0  0  0  0  0  0  0  0
    6.8717  -13.3952   20.6785 C   0  0  0  0  0  0  0  0  0  0  0  0
    8.2978  -13.1898   21.0079 C   0  0  0  0  0  0  0  0  0  0  0  0
    8.8129  -14.4458   21.6069 C   0  0  1  0  0  0  0  0  0  0  0  0
    9.0164  -14.3681   23.0681 C   0  0  0  0  0  0  0  0  0  0  0  0
    9.8009  -13.4595   23.4984 O   0  0  0  0  0  0  0  0  0  0  0  0
    6.8747  -11.3850   26.4601 C   0  0  0  0  0  0  0  0  0  0  0  0
    7.7874  -12.5549   26.2470 C   0  0  0  0  0  0  0  0  0  0  0  0
    7.2351  -13.6428   25.4000 C   0  0  2  0  0  0  0  0  0  0  0  0
    5.8844  -14.0655   25.9406 C   0  0  0  0  0  0  0  0  0  0  0  0
    8.0892  -14.8778   25.2968 C   0  0  2  0  0  0  0  0  0  0  0  0
    8.3669  -15.2658   23.9533 N   0  0  0  0  0  0  0  0  0  0  0  0
    7.5996  -16.0106   26.1220 C   0  0  0  0  0  0  0  0  0  0  0  0
    6.8073  -16.8422   25.6134 O   0  0  0  0  0  0  0  0  0  0  0  0
    7.9701  -16.2100   27.4438 O   0  0  0  0  0  0  0  0  0  0  0  0
  2  1  1  1
  2  3  1  0
  2  8  1  0
  4  3  1  0
  5  6  1  0
  5  4  1  0
  6  7  1  0
  8  9  2  0
  8 10  1  0
 10 11  1  0
 11 12  1  0
 13 12  1  0
 14 10  1  0
 14 13  1  0
 14 15  1  1
 16 15  2  0
 18 17  1  0
 19 18  1  0
 19 21  1  0
 19 20  1  1
 21 22  1  6
 22 15  1  0
 23 25  1  0
 23 21  1  0
 24 23  2  0
M  END
$$$$
