KPI.pdb
     RDKit          3D

 25 25  0  0  1  0  0  0  0  0999 V2000
    7.8067  -18.9702   19.9577 N   0  0  0  0  0  0  0  0  0  0  0  0
    7.1686  -17.7738   20.5233 C   0  0  1  0  0  0  0  0  0  0  0  0
    6.3378  -18.1940   21.7449 C   0  0  0  0  0  0  0  0  0  0  0  0
    7.2500  -19.1248   22.5310 C   0  0  0  0  0  0  0  0  0  0  0  0
    6.5547  -19.6812   23.7544 C   0  0  0  0  0  0  0  0  0  0  0  0
    7.4798  -20.5644   24.5618 C   0  0  0  0  0  0  0  0  0  0  0  0
    6.7323  -20.9557   25.7618 N   0  0  0  0  0  0  0  0  0  0  0  0
    8.1808  -16.8140   20.9824 C   0  0  0  0  0  0  0  0  0  0  0  0
    9.3478  -17.2138   21.2694 O   0  0  0  0  0  0  0  0  0  0  0  0
    7.8946  -15.4542   21.1121 N   0  0  0  0  0  0  0  0  0  0  0  0
    6.5913  -14.8211   21.0874 C   0  0  0  0  0  0  0  0  0  0  0  0
    6.8382  -13.4957   20.3760 C   0  0  0  0  0  0  0  0  0  0  0  0
    8.2664  -13.2040   20.6198 C   0  0  0  0  0  0  0  0  0  0  0  0
    8.8664  -14.3871   21.2845 C   0  0  1  0  0  0  0  0  0  0  0  0
    9.1316  -14.1896   22.7244 C   0  0  0  0  0  0  0  0  0  0  0  0
   10.1192  -13.4459   23.0371 O   0  0  0  0  0  0  0  0  0  0  0  0
    6.8999  -11.3564   27.0037 C   0  0  0  0  0  0  0  0  0  0  0  0
    7.7002  -12.5944   26.7320 C   0  0  0  0  0  0  0  0  0  0  0  0
    7.5848  -13.1330   25.3527 C   0  0  2  0  0  0  0  0  0  0  0  0
    6.1350  -13.4614   25.0601 C   0  0  0  0  0  0  0  0  0  0  0  0
    8.3956  -14.3696   25.0722 C   0  0  2  0  0  0  0  0  0  0  0  0
    8.3224  -14.8013   23.7154 N   0  0  0  0  0  0  0  0  0  0  0  0
    8.1457  -15.4753   26.0308 C   0  0  0  0  0  0  0  0  0  0  0  0
    8.3768  -15.2920   27.2519 O   0  0  0  0  0  0  0  0  0  0  0  0
    7.6643  -16.7203   25.6537 O   0  0  0  0  0  0  0  0  0  0  0  0
  2  1  1  1
  2  3  1  0
  2  8  1  0
  4  3  1  0
  5  6  1  0
  5  4  1  0
  6  7  1  0
  8  9  2  0
  8 10  1  0
 10 11  1  0
 11 12  1  0
 13 12  1  0
 14 10  1  0
 14 13  1  0
 14 15  1  1
 16 15  2  0
 18 17  1  0
 19 18  1  0
 19 21  1  0
 19 20  1  1
 21 22  1  6
 22 15  1  0
 23 25  1  0
 23 21  1  0
 24 23  2  0
M  END
$$$$
