SNP.pdb
     RDKit          3D

 22 22  0  0  1  0  0  0  0  0999 V2000
   15.1240  -13.3733  -11.6191 O   0  0  0  0  0  0  0  0  0  0  0  0
   14.6923  -12.0732  -11.7959 C   0  0  0  0  0  0  0  0  0  0  0  0
   14.1495  -11.5572  -10.4773 C   0  0  2  0  0  0  0  0  0  0  0  0
   12.8135  -12.0481  -10.3297 N   0  0  0  0  0  0  0  0  0  0  0  0
   14.0997  -10.0576  -10.4988 C   0  0  0  0  0  0  0  0  0  0  0  0
   13.2185   -9.4498  -11.1637 O   0  0  0  0  0  0  0  0  0  0  0  0
   14.7723   -5.1498   -9.2914 N   0  0  0  0  0  0  0  0  0  0  0  0
   15.1126   -5.9123   -8.1559 C   0  0  0  0  0  0  0  0  0  0  0  0
   15.2187   -5.3235   -7.0528 O   0  0  0  0  0  0  0  0  0  0  0  0
   15.3250   -7.3634   -8.3310 C   0  0  0  0  0  0  0  0  0  0  0  0
   14.9955   -7.8470   -9.7338 C   0  0  2  0  0  0  0  0  0  0  0  0
   15.0399   -9.2970   -9.7739 N   0  0  0  0  0  0  0  0  0  0  0  0
   16.1078   -7.3468  -10.5975 C   0  0  0  0  0  0  0  0  0  0  0  0
   17.2744   -7.8393  -10.3674 O   0  0  0  0  0  0  0  0  0  0  0  0
   15.9571   -6.3945  -11.6217 N   0  0  0  0  0  0  0  0  0  0  0  0
   14.7421   -5.6982  -11.9592 C   0  0  0  0  0  0  0  0  0  0  0  0
   14.9119   -5.2321  -13.3986 C   0  0  0  0  0  0  0  0  0  0  0  0
   16.1911   -5.9593  -13.8360 C   0  0  0  0  0  0  0  0  0  0  0  0
   16.9702   -5.8965  -12.5101 C   0  0  1  0  0  0  0  0  0  0  0  0
   17.2175   -4.4309  -12.2414 C   0  0  0  0  0  0  0  0  0  0  0  0
   18.2384   -3.7451  -12.8536 O   0  0  0  0  0  0  0  0  0  0  0  0
   16.4759   -3.8138  -11.4388 O   0  0  0  0  0  0  0  0  0  0  0  0
  1  2  1  0
  3  4  1  6
  3  2  1  0
  3  5  1  0
  5 12  1  0
  5  6  2  0
  8  7  1  0
  8 10  1  0
  9  8  2  0
 11 10  1  1
 11 13  1  0
 12 11  1  0
 13 14  2  0
 13 15  1  0
 15 16  1  0
 16 17  1  0
 18 17  1  0
 19 15  1  0
 19 18  1  0
 19 20  1  1
 21 20  1  0
 22 20  2  0
M  END
$$$$
