SNP.pdb
     RDKit          3D

 22 22  0  0  1  0  0  0  0  0999 V2000
   17.8316  -11.5741  -13.8411 O   0  0  0  0  0  0  0  0  0  0  0  0
   17.1428  -11.2802  -15.0018 C   0  0  0  0  0  0  0  0  0  0  0  0
   18.0028  -11.6677  -16.1892 C   0  0  2  0  0  0  0  0  0  0  0  0
   18.6563  -12.9013  -15.8746 N   0  0  0  0  0  0  0  0  0  0  0  0
   19.0553  -10.6231  -16.4183 C   0  0  0  0  0  0  0  0  0  0  0  0
   20.2549  -10.8323  -16.0937 O   0  0  0  0  0  0  0  0  0  0  0  0
   17.5145   -7.8135  -20.0553 N   0  0  0  0  0  0  0  0  0  0  0  0
   18.8466   -7.8485  -19.5960 C   0  0  0  0  0  0  0  0  0  0  0  0
   19.7277   -8.3144  -20.3584 O   0  0  0  0  0  0  0  0  0  0  0  0
   19.1285   -7.3334  -18.2408 C   0  0  0  0  0  0  0  0  0  0  0  0
   19.7256   -8.3836  -17.3184 C   0  0  2  0  0  0  0  0  0  0  0  0
   18.7225   -9.3838  -17.0026 N   0  0  0  0  0  0  0  0  0  0  0  0
   20.0448   -7.6619  -16.0493 C   0  0  0  0  0  0  0  0  0  0  0  0
   19.2057   -7.8066  -15.0842 O   0  0  0  0  0  0  0  0  0  0  0  0
   21.1806   -6.8555  -15.8532 N   0  0  0  0  0  0  0  0  0  0  0  0
   22.1318   -6.4714  -16.8644 C   0  0  0  0  0  0  0  0  0  0  0  0
   23.4084   -6.1032  -16.1209 C   0  0  0  0  0  0  0  0  0  0  0  0
   23.1070   -6.5691  -14.6896 C   0  0  0  0  0  0  0  0  0  0  0  0
   21.6076   -6.2262  -14.6345 C   0  0  1  0  0  0  0  0  0  0  0  0
   21.5186   -4.7245  -14.7702 C   0  0  0  0  0  0  0  0  0  0  0  0
   21.6926   -3.8890  -13.6936 O   0  0  0  0  0  0  0  0  0  0  0  0
   21.2796   -4.2163  -15.8925 O   0  0  0  0  0  0  0  0  0  0  0  0
  1  2  1  0
  3  4  1  1
  3  2  1  0
  3  5  1  0
  5 12  1  0
  5  6  2  0
  8  7  1  0
  8 10  1  0
  9  8  2  0
 11 10  1  6
 11 13  1  0
 12 11  1  0
 13 14  2  0
 13 15  1  0
 15 16  1  0
 16 17  1  0
 18 17  1  0
 19 15  1  0
 19 18  1  0
 19 20  1  6
 21 20  1  0
 22 20  2  0
M  END
$$$$
