SNP.pdb
     RDKit          3D

 22 22  0  0  1  0  0  0  0  0999 V2000
   14.9862  -20.4618    1.3641 O   0  0  0  0  0  0  0  0  0  0  0  0
   16.0032  -20.2112    2.2645 C   0  0  0  0  0  0  0  0  0  0  0  0
   15.9165  -18.7629    2.7057 C   0  0  2  0  0  0  0  0  0  0  0  0
   16.1348  -17.9393    1.5560 N   0  0  0  0  0  0  0  0  0  0  0  0
   16.9959  -18.4697    3.7060 C   0  0  0  0  0  0  0  0  0  0  0  0
   18.1996  -18.3694    3.3470 O   0  0  0  0  0  0  0  0  0  0  0  0
   15.1151  -15.7587    7.1960 N   0  0  0  0  0  0  0  0  0  0  0  0
   16.5033  -15.9814    7.0958 C   0  0  0  0  0  0  0  0  0  0  0  0
   17.2476  -15.0016    6.8493 O   0  0  0  0  0  0  0  0  0  0  0  0
   17.0022  -17.3583    7.2874 C   0  0  0  0  0  0  0  0  0  0  0  0
   17.6846  -17.9203    6.0509 C   0  0  2  0  0  0  0  0  0  0  0  0
   16.6841  -18.3001    5.0706 N   0  0  0  0  0  0  0  0  0  0  0  0
   18.3573  -19.1752    6.5047 C   0  0  0  0  0  0  0  0  0  0  0  0
   17.7589  -20.2785    6.2197 O   0  0  0  0  0  0  0  0  0  0  0  0
   19.5758  -19.2193    7.2061 N   0  0  0  0  0  0  0  0  0  0  0  0
   20.2745  -18.0892    7.7626 C   0  0  0  0  0  0  0  0  0  0  0  0
   21.7253  -18.5259    7.9130 C   0  0  0  0  0  0  0  0  0  0  0  0
   21.7506  -19.8642    7.1614 C   0  0  0  0  0  0  0  0  0  0  0  0
   20.3515  -20.3811    7.5412 C   0  0  1  0  0  0  0  0  0  0  0  0
   20.3713  -20.5741    9.0392 C   0  0  0  0  0  0  0  0  0  0  0  0
   20.8305  -21.7347    9.6133 O   0  0  0  0  0  0  0  0  0  0  0  0
   19.9592  -19.6554    9.7883 O   0  0  0  0  0  0  0  0  0  0  0  0
  1  2  1  0
  3  4  1  6
  3  2  1  0
  3  5  1  0
  5 12  1  0
  5  6  2  0
  8  7  1  0
  8 10  1  0
  9  8  2  0
 11 10  1  1
 11 13  1  0
 12 11  1  0
 13 14  2  0
 13 15  1  0
 15 16  1  0
 16 17  1  0
 18 17  1  0
 19 15  1  0
 19 18  1  0
 19 20  1  1
 21 20  1  0
 22 20  2  0
M  END
$$$$
