SNP.pdb
     RDKit          3D

 22 22  0  0  1  0  0  0  0  0999 V2000
   18.5133  -12.4796  -16.7211 O   0  0  0  0  0  0  0  0  0  0  0  0
   18.1251  -11.1939  -16.3983 C   0  0  0  0  0  0  0  0  0  0  0  0
   17.4029  -11.2241  -15.0652 C   0  0  2  0  0  0  0  0  0  0  0  0
   16.0616  -11.6629  -15.3017 N   0  0  0  0  0  0  0  0  0  0  0  0
   17.3496   -9.8419  -14.4834 C   0  0  0  0  0  0  0  0  0  0  0  0
   16.5659   -8.9734  -14.9518 O   0  0  0  0  0  0  0  0  0  0  0  0
   18.1851   -5.7078  -11.6028 N   0  0  0  0  0  0  0  0  0  0  0  0
   18.1251   -6.8257  -10.7463 C   0  0  0  0  0  0  0  0  0  0  0  0
   18.0859   -6.6261   -9.5081 O   0  0  0  0  0  0  0  0  0  0  0  0
   18.1120   -8.1701  -11.3578 C   0  0  0  0  0  0  0  0  0  0  0  0
   18.2254   -8.1346  -12.8731 C   0  0  2  0  0  0  0  0  0  0  0  0
   18.1773   -9.4865  -13.3986 N   0  0  0  0  0  0  0  0  0  0  0  0
   19.5913   -7.5987  -13.1564 C   0  0  0  0  0  0  0  0  0  0  0  0
   20.5804   -8.3455  -12.8095 O   0  0  0  0  0  0  0  0  0  0  0  0
   19.8518   -6.3579  -13.7658 N   0  0  0  0  0  0  0  0  0  0  0  0
   18.8729   -5.3542  -14.0963 C   0  0  0  0  0  0  0  0  0  0  0  0
   19.5038   -4.4953  -15.1836 C   0  0  0  0  0  0  0  0  0  0  0  0
   20.7648   -5.2913  -15.5479 C   0  0  0  0  0  0  0  0  0  0  0  0
   21.1281   -5.8218  -14.1496 C   0  0  1  0  0  0  0  0  0  0  0  0
   21.4498   -4.6057  -13.3134 C   0  0  0  0  0  0  0  0  0  0  0  0
   22.7165   -4.0761  -13.2637 O   0  0  0  0  0  0  0  0  0  0  0  0
   20.5424   -4.0569  -12.6423 O   0  0  0  0  0  0  0  0  0  0  0  0
  1  2  1  0
  3  4  1  6
  3  2  1  0
  3  5  1  0
  5 12  1  0
  5  6  2  0
  8  7  1  0
  8 10  1  0
  9  8  2  0
 11 10  1  1
 11 13  1  0
 12 11  1  0
 13 14  2  0
 13 15  1  0
 15 16  1  0
 16 17  1  0
 18 17  1  0
 19 15  1  0
 19 18  1  0
 19 20  1  1
 21 20  1  0
 22 20  2  0
M  END
$$$$
