SNP.pdb
     RDKit          3D

 22 22  0  0  1  0  0  0  0  0999 V2000
   27.3004  -27.4291  -17.3868 O   0  0  0  0  0  0  0  0  0  0  0  0
   27.2611  -26.2990  -16.5936 C   0  0  0  0  0  0  0  0  0  0  0  0
   28.0212  -25.1880  -17.2918 C   0  0  2  0  0  0  0  0  0  0  0  0
   29.4128  -25.5202  -17.2602 N   0  0  0  0  0  0  0  0  0  0  0  0
   27.8292  -23.8966  -16.5522 C   0  0  0  0  0  0  0  0  0  0  0  0
   28.7060  -23.4738  -15.7519 O   0  0  0  0  0  0  0  0  0  0  0  0
   26.2928  -18.6290  -16.2769 N   0  0  0  0  0  0  0  0  0  0  0  0
   25.3242  -19.6525  -16.2456 C   0  0  0  0  0  0  0  0  0  0  0  0
   24.2409  -19.4296  -15.6528 O   0  0  0  0  0  0  0  0  0  0  0  0
   25.6416  -20.9307  -16.9140 C   0  0  0  0  0  0  0  0  0  0  0  0
   26.4359  -21.8808  -16.0326 C   0  0  2  0  0  0  0  0  0  0  0  0
   26.6613  -23.1288  -16.7382 N   0  0  0  0  0  0  0  0  0  0  0  0
   25.5446  -22.1841  -14.8721 C   0  0  0  0  0  0  0  0  0  0  0  0
   24.7016  -23.1428  -15.0354 O   0  0  0  0  0  0  0  0  0  0  0  0
   25.5739  -21.5010  -13.6427 N   0  0  0  0  0  0  0  0  0  0  0  0
   26.3863  -20.3532  -13.3304 C   0  0  0  0  0  0  0  0  0  0  0  0
   26.4981  -20.3192  -11.8124 C   0  0  0  0  0  0  0  0  0  0  0  0
   25.8945  -21.6700  -11.4031 C   0  0  0  0  0  0  0  0  0  0  0  0
   24.7904  -21.7746  -12.4702 C   0  0  1  0  0  0  0  0  0  0  0  0
   23.8432  -20.6287  -12.2033 C   0  0  0  0  0  0  0  0  0  0  0  0
   22.8839  -20.6963  -11.2221 O   0  0  0  0  0  0  0  0  0  0  0  0
   23.9267  -19.5822  -12.8908 O   0  0  0  0  0  0  0  0  0  0  0  0
  1  2  1  0
  3  4  1  1
  3  2  1  0
  3  5  1  0
  5 12  1  0
  5  6  2  0
  8  7  1  0
  8 10  1  0
  9  8  2  0
 11 10  1  6
 11 13  1  0
 12 11  1  0
 13 14  2  0
 13 15  1  0
 15 16  1  0
 16 17  1  0
 18 17  1  0
 19 15  1  0
 19 18  1  0
 19 20  1  1
 21 20  1  0
 22 20  2  0
M  END
$$$$
