SNP.pdb
     RDKit          3D

 22 22  0  0  1  0  0  0  0  0999 V2000
   17.7154  -27.0779   -3.0291 O   0  0  0  0  0  0  0  0  0  0  0  0
   17.1700  -26.0465   -2.2899 C   0  0  0  0  0  0  0  0  0  0  0  0
   15.9594  -25.5069   -3.0270 C   0  0  2  0  0  0  0  0  0  0  0  0
   16.3660  -25.1793   -4.3593 N   0  0  0  0  0  0  0  0  0  0  0  0
   15.4752  -24.2523   -2.3612 C   0  0  0  0  0  0  0  0  0  0  0  0
   15.0080  -23.2993   -3.0406 O   0  0  0  0  0  0  0  0  0  0  0  0
   11.8103  -22.3624    1.5581 N   0  0  0  0  0  0  0  0  0  0  0  0
   12.6446  -22.1735    0.4378 C   0  0  0  0  0  0  0  0  0  0  0  0
   12.6897  -21.0341   -0.0861 O   0  0  0  0  0  0  0  0  0  0  0  0
   13.4191  -23.3305   -0.0553 C   0  0  0  0  0  0  0  0  0  0  0  0
   14.8913  -23.0147   -0.2631 C   0  0  2  0  0  0  0  0  0  0  0  0
   15.5334  -24.1144   -0.9592 N   0  0  0  0  0  0  0  0  0  0  0  0
   15.4818  -22.9549    1.1084 C   0  0  0  0  0  0  0  0  0  0  0  0
   15.6028  -24.0771    1.7269 O   0  0  0  0  0  0  0  0  0  0  0  0
   15.9035  -21.7738    1.7455 N   0  0  0  0  0  0  0  0  0  0  0  0
   15.6872  -20.4312    1.2703 C   0  0  0  0  0  0  0  0  0  0  0  0
   16.7465  -19.5715    1.9461 C   0  0  0  0  0  0  0  0  0  0  0  0
   17.6613  -20.6190    2.5962 C   0  0  0  0  0  0  0  0  0  0  0  0
   16.5957  -21.6541    2.9985 C   0  0  1  0  0  0  0  0  0  0  0  0
   15.7115  -20.9687    4.0133 C   0  0  0  0  0  0  0  0  0  0  0  0
   16.0882  -20.8337    5.3276 O   0  0  0  0  0  0  0  0  0  0  0  0
   14.6006  -20.5066    3.6564 O   0  0  0  0  0  0  0  0  0  0  0  0
  1  2  1  0
  3  4  1  6
  3  2  1  0
  3  5  1  0
  5 12  1  0
  5  6  2  0
  8  7  1  0
  8 10  1  0
  9  8  2  0
 11 10  1  1
 11 13  1  0
 12 11  1  0
 13 14  2  0
 13 15  1  0
 15 16  1  0
 16 17  1  0
 18 17  1  0
 19 15  1  0
 19 18  1  0
 19 20  1  1
 21 20  1  0
 22 20  2  0
M  END
$$$$
