SNP.pdb
     RDKit          3D

 22 22  0  0  1  0  0  0  0  0999 V2000
   28.5539  -18.7167  -17.8818 O   0  0  0  0  0  0  0  0  0  0  0  0
   27.6776  -19.6090  -17.2955 C   0  0  0  0  0  0  0  0  0  0  0  0
   28.4672  -20.5606  -16.4176 C   0  0  2  0  0  0  0  0  0  0  0  0
   28.9654  -21.6140  -17.2482 N   0  0  0  0  0  0  0  0  0  0  0  0
   27.5653  -21.1651  -15.3818 C   0  0  0  0  0  0  0  0  0  0  0  0
   26.9731  -22.2562  -15.5982 O   0  0  0  0  0  0  0  0  0  0  0  0
   24.8582  -21.8453  -11.0627 N   0  0  0  0  0  0  0  0  0  0  0  0
   25.8144  -20.8623  -10.7369 C   0  0  0  0  0  0  0  0  0  0  0  0
   25.8860  -20.4723   -9.5463 O   0  0  0  0  0  0  0  0  0  0  0  0
   26.6783  -20.3474  -11.8185 C   0  0  0  0  0  0  0  0  0  0  0  0
   26.4287  -21.0293  -13.1537 C   0  0  2  0  0  0  0  0  0  0  0  0
   27.3621  -20.5230  -14.1431 N   0  0  0  0  0  0  0  0  0  0  0  0
   25.0618  -20.5938  -13.5723 C   0  0  0  0  0  0  0  0  0  0  0  0
   24.9357  -19.3590  -13.9128 O   0  0  0  0  0  0  0  0  0  0  0  0
   23.9344  -21.4339  -13.6158 N   0  0  0  0  0  0  0  0  0  0  0  0
   23.8412  -22.7566  -13.0531 C   0  0  0  0  0  0  0  0  0  0  0  0
   22.7076  -23.4497  -13.7965 C   0  0  0  0  0  0  0  0  0  0  0  0
   22.4080  -22.4680  -14.9380 C   0  0  0  0  0  0  0  0  0  0  0  0
   22.6491  -21.1453  -14.1888 C   0  0  1  0  0  0  0  0  0  0  0  0
   21.6014  -21.0851  -13.1025 C   0  0  0  0  0  0  0  0  0  0  0  0
   21.9016  -21.3640  -11.7912 O   0  0  0  0  0  0  0  0  0  0  0  0
   20.4217  -20.7728  -13.3953 O   0  0  0  0  0  0  0  0  0  0  0  0
  1  2  1  0
  3  4  1  6
  3  2  1  0
  3  5  1  0
  5 12  1  0
  5  6  2  0
  8  7  1  0
  8 10  1  0
  9  8  2  0
 11 10  1  1
 11 13  1  0
 12 11  1  0
 13 14  2  0
 13 15  1  0
 15 16  1  0
 16 17  1  0
 18 17  1  0
 19 15  1  0
 19 18  1  0
 19 20  1  1
 21 20  1  0
 22 20  2  0
M  END
$$$$
