SNP.pdb
     RDKit          3D

 22 22  0  0  1  0  0  0  0  0999 V2000
   25.2460  -15.3488  -17.8064 O   0  0  0  0  0  0  0  0  0  0  0  0
   24.7580  -16.5980  -17.4760 C   0  0  0  0  0  0  0  0  0  0  0  0
   25.6798  -17.6507  -18.0608 C   0  0  2  0  0  0  0  0  0  0  0  0
   25.2480  -17.9189  -19.3984 N   0  0  0  0  0  0  0  0  0  0  0  0
   25.5708  -18.9201  -17.2681 C   0  0  0  0  0  0  0  0  0  0  0  0
   24.6075  -19.7126  -17.4465 O   0  0  0  0  0  0  0  0  0  0  0  0
   27.3378  -22.5726  -16.9795 N   0  0  0  0  0  0  0  0  0  0  0  0
   28.2631  -22.0847  -16.0347 C   0  0  0  0  0  0  0  0  0  0  0  0
   29.3932  -22.6268  -15.9727 O   0  0  0  0  0  0  0  0  0  0  0  0
   27.8476  -20.9612  -15.1707 C   0  0  0  0  0  0  0  0  0  0  0  0
   26.4527  -20.4497  -15.4912 C   0  0  2  0  0  0  0  0  0  0  0  0
   26.5464  -19.2523  -16.3058 N   0  0  0  0  0  0  0  0  0  0  0  0
   25.8665  -20.0456  -14.1773 C   0  0  0  0  0  0  0  0  0  0  0  0
   26.2123  -18.8894  -13.7298 O   0  0  0  0  0  0  0  0  0  0  0  0
   24.9807  -20.8347  -13.4214 N   0  0  0  0  0  0  0  0  0  0  0  0
   24.6054  -22.1960  -13.7057 C   0  0  0  0  0  0  0  0  0  0  0  0
   23.2794  -22.4229  -12.9927 C   0  0  0  0  0  0  0  0  0  0  0  0
   22.8968  -21.0066  -12.5410 C   0  0  0  0  0  0  0  0  0  0  0  0
   24.3011  -20.4712  -12.2091 C   0  0  1  0  0  0  0  0  0  0  0  0
   24.8072  -21.3126  -11.0614 C   0  0  0  0  0  0  0  0  0  0  0  0
   24.5170  -21.0037   -9.7545 O   0  0  0  0  0  0  0  0  0  0  0  0
   25.5125  -22.3235  -11.2974 O   0  0  0  0  0  0  0  0  0  0  0  0
  1  2  1  0
  3  4  1  6
  3  2  1  0
  3  5  1  0
  5 12  1  0
  5  6  2  0
  8  7  1  0
  8 10  1  0
  9  8  2  0
 11 10  1  1
 11 13  1  0
 12 11  1  0
 13 14  2  0
 13 15  1  0
 15 16  1  0
 16 17  1  0
 18 17  1  0
 19 15  1  0
 19 18  1  0
 19 20  1  1
 21 20  1  0
 22 20  2  0
M  END
$$$$
