SNP.pdb
     RDKit          3D

 22 22  0  0  1  0  0  0  0  0999 V2000
   27.5008  -10.3598  -16.9744 O   0  0  0  0  0  0  0  0  0  0  0  0
   27.0924  -10.3377  -15.6551 C   0  0  0  0  0  0  0  0  0  0  0  0
   25.7428  -11.0215  -15.5521 C   0  0  2  0  0  0  0  0  0  0  0  0
   25.8417  -12.2902  -16.2067 N   0  0  0  0  0  0  0  0  0  0  0  0
   24.7029  -10.2057  -16.2625 C   0  0  0  0  0  0  0  0  0  0  0  0
   24.1457  -10.6372  -17.3072 O   0  0  0  0  0  0  0  0  0  0  0  0
   20.4295   -8.3550  -18.0691 N   0  0  0  0  0  0  0  0  0  0  0  0
   20.8039   -8.0628  -16.7420 C   0  0  0  0  0  0  0  0  0  0  0  0
   20.1631   -7.1791  -16.1231 O   0  0  0  0  0  0  0  0  0  0  0  0
   21.9314   -8.8155  -16.1559 C   0  0  0  0  0  0  0  0  0  0  0  0
   23.2772   -8.1502  -16.3935 C   0  0  2  0  0  0  0  0  0  0  0  0
   24.3276   -8.9373  -15.7743 N   0  0  0  0  0  0  0  0  0  0  0  0
   23.2110   -6.8486  -15.6623 C   0  0  0  0  0  0  0  0  0  0  0  0
   23.2732   -6.9117  -14.3783 O   0  0  0  0  0  0  0  0  0  0  0  0
   23.0892   -5.5908  -16.2802 N   0  0  0  0  0  0  0  0  0  0  0  0
   22.8207   -5.3548  -17.6756 C   0  0  0  0  0  0  0  0  0  0  0  0
   23.3155   -3.9444  -17.9651 C   0  0  0  0  0  0  0  0  0  0  0  0
   24.0753   -3.5870  -16.6799 C   0  0  0  0  0  0  0  0  0  0  0  0
   23.1701   -4.2983  -15.6584 C   0  0  1  0  0  0  0  0  0  0  0  0
   21.8308   -3.6042  -15.7343 C   0  0  0  0  0  0  0  0  0  0  0  0
   20.8466   -4.0226  -16.5967 O   0  0  0  0  0  0  0  0  0  0  0  0
   21.6008   -2.6175  -14.9936 O   0  0  0  0  0  0  0  0  0  0  0  0
  1  2  1  0
  3  4  1  6
  3  2  1  0
  3  5  1  0
  5 12  1  0
  5  6  2  0
  8  7  1  0
  8 10  1  0
  9  8  2  0
 11 10  1  1
 11 13  1  0
 12 11  1  0
 13 14  2  0
 13 15  1  0
 15 16  1  0
 16 17  1  0
 18 17  1  0
 19 15  1  0
 19 18  1  0
 19 20  1  6
 21 20  1  0
 22 20  2  0
M  END
$$$$
