SNP.pdb
     RDKit          3D

 22 22  0  0  1  0  0  0  0  0999 V2000
   16.0969  -15.6877  -13.0852 O   0  0  0  0  0  0  0  0  0  0  0  0
   16.0325  -14.4125  -13.6119 C   0  0  0  0  0  0  0  0  0  0  0  0
   14.9375  -13.6453  -12.8963 C   0  0  2  0  0  0  0  0  0  0  0  0
   13.7276  -13.8069  -13.6431 N   0  0  0  0  0  0  0  0  0  0  0  0
   15.2777  -12.1842  -12.8628 C   0  0  0  0  0  0  0  0  0  0  0  0
   14.9457  -11.4215  -13.8095 O   0  0  0  0  0  0  0  0  0  0  0  0
   16.0158   -7.3891  -10.5176 N   0  0  0  0  0  0  0  0  0  0  0  0
   16.8933   -8.4039  -10.0850 C   0  0  0  0  0  0  0  0  0  0  0  0
   17.9952   -8.0668   -9.5882 O   0  0  0  0  0  0  0  0  0  0  0  0
   16.4635   -9.8082  -10.2422 C   0  0  0  0  0  0  0  0  0  0  0  0
   16.3136  -10.2243  -11.6964 C   0  0  2  0  0  0  0  0  0  0  0  0
   15.9772  -11.6342  -11.7691 N   0  0  0  0  0  0  0  0  0  0  0  0
   17.6722  -10.0627  -12.2975 C   0  0  0  0  0  0  0  0  0  0  0  0
   18.5235  -10.9935  -12.0420 O   0  0  0  0  0  0  0  0  0  0  0  0
   18.0639   -8.9806  -13.1065 N   0  0  0  0  0  0  0  0  0  0  0  0
   17.2762   -7.8095  -13.3948 C   0  0  0  0  0  0  0  0  0  0  0  0
   17.8441   -7.2289  -14.6825 C   0  0  0  0  0  0  0  0  0  0  0  0
   18.8060   -8.3304  -15.1495 C   0  0  0  0  0  0  0  0  0  0  0  0
   19.3213   -8.7990  -13.7770 C   0  0  1  0  0  0  0  0  0  0  0  0
   20.0571   -7.6208  -13.1839 C   0  0  0  0  0  0  0  0  0  0  0  0
   21.3713   -7.3604  -13.4884 O   0  0  0  0  0  0  0  0  0  0  0  0
   19.4608   -6.8528  -12.3904 O   0  0  0  0  0  0  0  0  0  0  0  0
  1  2  1  0
  3  4  1  6
  3  2  1  0
  3  5  1  0
  5 12  1  0
  5  6  2  0
  8  7  1  0
  8 10  1  0
  9  8  2  0
 11 10  1  1
 11 13  1  0
 12 11  1  0
 13 14  2  0
 13 15  1  0
 15 16  1  0
 16 17  1  0
 18 17  1  0
 19 15  1  0
 19 18  1  0
 19 20  1  1
 21 20  1  0
 22 20  2  0
M  END
$$$$
