SNP.pdb
     RDKit          3D

 22 22  0  0  1  0  0  0  0  0999 V2000
   19.4340  -21.7334  -15.8754 O   0  0  0  0  0  0  0  0  0  0  0  0
   20.3262  -20.7578  -15.4752 C   0  0  0  0  0  0  0  0  0  0  0  0
   20.5298  -20.8701  -13.9766 C   0  0  2  0  0  0  0  0  0  0  0  0
   19.5161  -20.0896  -13.3356 N   0  0  0  0  0  0  0  0  0  0  0  0
   21.8674  -20.3035  -13.6006 C   0  0  0  0  0  0  0  0  0  0  0  0
   21.9762  -19.1127  -13.2029 O   0  0  0  0  0  0  0  0  0  0  0  0
   26.9705  -20.7896  -11.4204 N   0  0  0  0  0  0  0  0  0  0  0  0
   26.6695  -21.1580  -12.7472 C   0  0  0  0  0  0  0  0  0  0  0  0
   27.5706  -21.0517  -13.6140 O   0  0  0  0  0  0  0  0  0  0  0  0
   25.3077  -21.6489  -13.0405 C   0  0  0  0  0  0  0  0  0  0  0  0
   24.3575  -20.5433  -13.4706 C   0  0  2  0  0  0  0  0  0  0  0  0
   23.0319  -21.0940  -13.6848 N   0  0  0  0  0  0  0  0  0  0  0  0
   24.8632  -20.0796  -14.7982 C   0  0  0  0  0  0  0  0  0  0  0  0
   24.3258  -20.6217  -15.8344 O   0  0  0  0  0  0  0  0  0  0  0  0
   25.8656  -19.1089  -14.9762 N   0  0  0  0  0  0  0  0  0  0  0  0
   26.7280  -18.5833  -13.9491 C   0  0  0  0  0  0  0  0  0  0  0  0
   27.2226  -17.2388  -14.4645 C   0  0  0  0  0  0  0  0  0  0  0  0
   26.3508  -17.0172  -15.7084 C   0  0  0  0  0  0  0  0  0  0  0  0
   26.2598  -18.4721  -16.2020 C   0  0  1  0  0  0  0  0  0  0  0  0
   27.6688  -18.8778  -16.5647 C   0  0  0  0  0  0  0  0  0  0  0  0
   28.3907  -19.7554  -15.7925 O   0  0  0  0  0  0  0  0  0  0  0  0
   28.2036  -18.4061  -17.5974 O   0  0  0  0  0  0  0  0  0  0  0  0
  1  2  1  0
  3  4  1  1
  3  2  1  0
  3  5  1  0
  5 12  1  0
  5  6  2  0
  8  7  1  0
  8 10  1  0
  9  8  2  0
 11 10  1  6
 11 13  1  0
 12 11  1  0
 13 14  2  0
 13 15  1  0
 15 16  1  0
 16 17  1  0
 18 17  1  0
 19 15  1  0
 19 18  1  0
 19 20  1  1
 21 20  1  0
 22 20  2  0
M  END
$$$$
