AYF.pdb
     RDKit          3D

 29 30  0  0  1  0  0  0  0  0999 V2000
    8.5291  -19.5818   21.6885 C   0  0  0  0  0  0  0  0  0  0  0  0
    8.6218  -18.4383   20.7332 C   0  0  2  0  0  0  0  0  0  0  0  0
    9.5029  -18.8049   19.6459 N   0  0  0  0  0  0  0  0  0  0  0  0
    9.1237  -17.1944   21.3531 C   0  0  0  0  0  0  0  0  0  0  0  0
   10.3479  -16.9271   21.2559 O   0  0  0  0  0  0  0  0  0  0  0  0
    7.9282  -12.9717   16.5555 O   0  0  0  0  0  0  0  0  0  0  0  0
    7.9266  -13.2057   17.9205 C   0  0  0  0  0  0  0  0  0  0  0  0
    8.8138  -12.4869   18.7211 C   0  0  0  0  0  0  0  0  0  0  0  0
    8.7961  -12.7358   20.0772 C   0  0  0  0  0  0  0  0  0  0  0  0
    7.9623  -13.6414   20.6711 C   0  0  0  0  0  0  0  0  0  0  0  0
    8.0047  -13.8471   22.1387 C   0  0  0  0  0  0  0  0  0  0  0  0
    8.8767  -15.0256   22.5097 C   0  0  2  0  0  0  0  0  0  0  0  0
    8.3254  -16.2766   22.0518 N   0  0  0  0  0  0  0  0  0  0  0  0
    9.1366  -15.0709   23.9684 C   0  0  0  0  0  0  0  0  0  0  0  0
    9.8314  -14.1703   24.4946 O   0  0  0  0  0  0  0  0  0  0  0  0
    7.0855  -14.3466   19.8509 C   0  0  0  0  0  0  0  0  0  0  0  0
    7.0716  -14.1254   18.4791 C   0  0  0  0  0  0  0  0  0  0  0  0
    8.6035  -16.1149   24.7287 N   0  0  0  0  0  0  0  0  0  0  0  0
    8.7776  -16.2490   26.1669 C   0  0  1  0  0  0  0  0  0  0  0  0
    7.4681  -15.9256   26.8009 C   0  0  0  0  0  0  0  0  0  0  0  0
    7.1913  -14.4844   26.8787 C   0  0  0  0  0  0  0  0  0  0  0  0
    6.0075  -14.0102   26.3352 C   0  0  0  0  0  0  0  0  0  0  0  0
    5.7588  -12.6614   26.4108 C   0  0  0  0  0  0  0  0  0  0  0  0
    6.6142  -11.7564   26.9930 C   0  0  0  0  0  0  0  0  0  0  0  0
    7.8041  -12.2289   27.5401 C   0  0  0  0  0  0  0  0  0  0  0  0
    8.0800  -13.5848   27.4776 C   0  0  0  0  0  0  0  0  0  0  0  0
    9.3571  -17.5456   26.5292 C   0  0  0  0  0  0  0  0  0  0  0  0
    9.6883  -18.5294   25.6010 O   0  0  0  0  0  0  0  0  0  0  0  0
    9.5858  -17.8309   27.7304 O   0  0  0  0  0  0  0  0  0  0  0  0
  2  1  1  1
  3  2  1  0
  4 13  1  0
  4  2  1  0
  5  4  2  0
  7  8  2  0
  7  6  1  0
  9  8  1  0
 10  9  2  0
 11 10  1  0
 12 11  1  1
 12 13  1  0
 14 18  1  0
 14 12  1  0
 15 14  2  0
 16 10  1  0
 16 17  2  0
 17  7  1  0
 19 18  1  0
 19 20  1  1
 21 26  1  0
 21 20  1  0
 22 21  2  0
 23 24  2  0
 23 22  1  0
 24 25  1  0
 25 26  2  0
 27 19  1  0
 28 27  1  0
 29 27  2  0
M  END
$$$$
