AYF.pdb
     RDKit          3D

 29 30  0  0  1  0  0  0  0  0999 V2000
    5.9554  -19.8497   25.2346 C   0  0  0  0  0  0  0  0  0  0  0  0
    5.8751  -19.7435   23.7476 C   0  0  2  0  0  0  0  0  0  0  0  0
    6.4039  -20.9554   23.1609 N   0  0  0  0  0  0  0  0  0  0  0  0
    6.6158  -18.5878   23.2005 C   0  0  0  0  0  0  0  0  0  0  0  0
    7.8074  -18.7562   22.8378 O   0  0  0  0  0  0  0  0  0  0  0  0
    9.2627  -12.2804   18.1318 O   0  0  0  0  0  0  0  0  0  0  0  0
    8.4755  -12.9836   19.0285 C   0  0  0  0  0  0  0  0  0  0  0  0
    8.1090  -14.2912   18.7110 C   0  0  0  0  0  0  0  0  0  0  0  0
    7.3247  -14.9728   19.6174 C   0  0  0  0  0  0  0  0  0  0  0  0
    6.8924  -14.4385   20.7987 C   0  0  0  0  0  0  0  0  0  0  0  0
    6.0531  -15.2413   21.7203 C   0  0  0  0  0  0  0  0  0  0  0  0
    6.8823  -16.2322   22.5061 C   0  0  2  0  0  0  0  0  0  0  0  0
    6.0818  -17.2990   23.0536 N   0  0  0  0  0  0  0  0  0  0  0  0
    7.6617  -15.5617   23.5741 C   0  0  0  0  0  0  0  0  0  0  0  0
    7.2071  -14.5194   24.1010 O   0  0  0  0  0  0  0  0  0  0  0  0
    7.2714  -13.1315   21.0934 C   0  0  0  0  0  0  0  0  0  0  0  0
    8.0615  -12.4099   20.2068 C   0  0  0  0  0  0  0  0  0  0  0  0
    8.8866  -16.1027   23.9730 N   0  0  0  0  0  0  0  0  0  0  0  0
    9.7296  -15.5349   25.0138 C   0  0  1  0  0  0  0  0  0  0  0  0
    8.9203  -15.4986   26.2648 C   0  0  0  0  0  0  0  0  0  0  0  0
    8.0750  -14.3025   26.3850 C   0  0  0  0  0  0  0  0  0  0  0  0
    6.6984  -14.4653   26.3833 C   0  0  0  0  0  0  0  0  0  0  0  0
    5.9166  -13.3413   26.4939 C   0  0  0  0  0  0  0  0  0  0  0  0
    6.4195  -12.0667   26.6059 C   0  0  0  0  0  0  0  0  0  0  0  0
    7.8017  -11.8992   26.6083 C   0  0  0  0  0  0  0  0  0  0  0  0
    8.6135  -13.0161   26.4981 C   0  0  0  0  0  0  0  0  0  0  0  0
   11.0194  -16.2245   25.1100 C   0  0  0  0  0  0  0  0  0  0  0  0
   12.1716  -15.6377   25.6267 O   0  0  0  0  0  0  0  0  0  0  0  0
   11.1413  -17.4108   24.7174 O   0  0  0  0  0  0  0  0  0  0  0  0
  2  1  1  1
  3  2  1  0
  4 13  1  0
  4  2  1  0
  5  4  2  0
  7  8  2  0
  7  6  1  0
  9  8  1  0
 10  9  2  0
 11 10  1  0
 12 11  1  1
 12 13  1  0
 14 18  1  0
 14 12  1  0
 15 14  2  0
 16 10  1  0
 16 17  2  0
 17  7  1  0
 19 18  1  0
 19 20  1  1
 21 26  1  0
 21 20  1  0
 22 21  2  0
 23 24  2  0
 23 22  1  0
 24 25  1  0
 25 26  2  0
 27 19  1  0
 28 27  1  0
 29 27  2  0
M  END
$$$$
