AYF.pdb
     RDKit          3D

 29 30  0  0  1  0  0  0  0  0999 V2000
    7.5818  -19.4654   21.8111 C   0  0  0  0  0  0  0  0  0  0  0  0
    7.8637  -18.3684   20.8385 C   0  0  2  0  0  0  0  0  0  0  0  0
    8.7546  -18.8668   19.8135 N   0  0  0  0  0  0  0  0  0  0  0  0
    8.4743  -17.1750   21.4601 C   0  0  0  0  0  0  0  0  0  0  0  0
    9.7231  -17.0435   21.4069 O   0  0  0  0  0  0  0  0  0  0  0  0
    7.8903  -13.5576   16.3830 O   0  0  0  0  0  0  0  0  0  0  0  0
    7.8833  -13.5812   17.7677 C   0  0  0  0  0  0  0  0  0  0  0  0
    6.8207  -14.2075   18.4184 C   0  0  0  0  0  0  0  0  0  0  0  0
    6.8332  -14.2190   19.7972 C   0  0  0  0  0  0  0  0  0  0  0  0
    7.8232  -13.6541   20.5513 C   0  0  0  0  0  0  0  0  0  0  0  0
    7.7624  -13.7131   22.0314 C   0  0  0  0  0  0  0  0  0  0  0  0
    8.4195  -14.9663   22.5650 C   0  0  2  0  0  0  0  0  0  0  0  0
    7.7551  -16.1638   22.1143 N   0  0  0  0  0  0  0  0  0  0  0  0
    8.5108  -14.9437   24.0444 C   0  0  0  0  0  0  0  0  0  0  0  0
    8.4621  -13.8442   24.6439 O   0  0  0  0  0  0  0  0  0  0  0  0
    8.8736  -13.0349   19.8788 C   0  0  0  0  0  0  0  0  0  0  0  0
    8.8988  -13.0014   18.4898 C   0  0  0  0  0  0  0  0  0  0  0  0
    8.6494  -16.1462   24.7422 N   0  0  0  0  0  0  0  0  0  0  0  0
    8.5203  -16.2718   26.1858 C   0  0  1  0  0  0  0  0  0  0  0  0
    7.1449  -15.8245   26.5455 C   0  0  0  0  0  0  0  0  0  0  0  0
    7.0328  -14.3739   26.7531 C   0  0  0  0  0  0  0  0  0  0  0  0
    8.0757  -13.7161   27.3864 C   0  0  0  0  0  0  0  0  0  0  0  0
    7.9607  -12.3607   27.5779 C   0  0  0  0  0  0  0  0  0  0  0  0
    6.8733  -11.6205   27.1787 C   0  0  0  0  0  0  0  0  0  0  0  0
    5.8238  -12.2777   26.5421 C   0  0  0  0  0  0  0  0  0  0  0  0
    5.9140  -13.6445   26.3363 C   0  0  0  0  0  0  0  0  0  0  0  0
    8.8977  -17.6084   26.6545 C   0  0  0  0  0  0  0  0  0  0  0  0
    9.3119  -17.8815   27.9556 O   0  0  0  0  0  0  0  0  0  0  0  0
    8.8618  -18.5930   25.8763 O   0  0  0  0  0  0  0  0  0  0  0  0
  2  1  1  1
  3  2  1  0
  4 13  1  0
  4  2  1  0
  5  4  2  0
  7  8  2  0
  7  6  1  0
  9  8  1  0
 10  9  2  0
 11 10  1  0
 12 11  1  1
 12 13  1  0
 14 18  1  0
 14 12  1  0
 15 14  2  0
 16 10  1  0
 16 17  2  0
 17  7  1  0
 19 18  1  0
 19 20  1  6
 21 26  1  0
 21 20  1  0
 22 21  2  0
 23 24  2  0
 23 22  1  0
 24 25  1  0
 25 26  2  0
 27 19  1  0
 28 27  1  0
 29 27  2  0
M  END
$$$$
