AYF.pdb
     RDKit          3D

 29 30  0  0  1  0  0  0  0  0999 V2000
    6.1515  -18.6306   19.8872 C   0  0  0  0  0  0  0  0  0  0  0  0
    6.5898  -18.4390   21.3014 C   0  0  2  0  0  0  0  0  0  0  0  0
    5.5174  -17.8146   22.0451 N   0  0  0  0  0  0  0  0  0  0  0  0
    7.8053  -17.6088   21.4322 C   0  0  0  0  0  0  0  0  0  0  0  0
    8.8861  -18.0502   20.9667 O   0  0  0  0  0  0  0  0  0  0  0  0
    8.0082  -13.7779   15.9313 O   0  0  0  0  0  0  0  0  0  0  0  0
    8.2106  -13.8801   17.2976 C   0  0  0  0  0  0  0  0  0  0  0  0
    7.3491  -13.1930   18.1524 C   0  0  0  0  0  0  0  0  0  0  0  0
    7.5689  -13.3081   19.5087 C   0  0  0  0  0  0  0  0  0  0  0  0
    8.5771  -14.0531   20.0531 C   0  0  0  0  0  0  0  0  0  0  0  0
    8.7427  -14.1265   21.5246 C   0  0  0  0  0  0  0  0  0  0  0  0
    9.0354  -15.5382   21.9811 C   0  0  2  0  0  0  0  0  0  0  0  0
    7.8441  -16.3478   22.0453 N   0  0  0  0  0  0  0  0  0  0  0  0
    9.7480  -15.5517   23.2808 C   0  0  0  0  0  0  0  0  0  0  0  0
   10.9215  -15.1155   23.3400 O   0  0  0  0  0  0  0  0  0  0  0  0
    9.4240  -14.7300   19.1793 C   0  0  0  0  0  0  0  0  0  0  0  0
    9.2367  -14.6405   17.8053 C   0  0  0  0  0  0  0  0  0  0  0  0
    9.1001  -16.0499   24.4141 N   0  0  0  0  0  0  0  0  0  0  0  0
    9.6653  -16.0256   25.7544 C   0  0  1  0  0  0  0  0  0  0  0  0
    9.8582  -14.5950   26.1250 C   0  0  0  0  0  0  0  0  0  0  0  0
    8.5995  -13.8662   26.3353 C   0  0  0  0  0  0  0  0  0  0  0  0
    7.8071  -13.5872   25.2326 C   0  0  0  0  0  0  0  0  0  0  0  0
    6.6336  -12.9036   25.4390 C   0  0  0  0  0  0  0  0  0  0  0  0
    6.2005  -12.4810   26.6733 C   0  0  0  0  0  0  0  0  0  0  0  0
    6.9935  -12.7596   27.7833 C   0  0  0  0  0  0  0  0  0  0  0  0
    8.1821  -13.4476   27.6035 C   0  0  0  0  0  0  0  0  0  0  0  0
    8.8764  -16.8260   26.6953 C   0  0  0  0  0  0  0  0  0  0  0  0
    9.2146  -16.9975   28.0352 O   0  0  0  0  0  0  0  0  0  0  0  0
    7.8298  -17.4084   26.3188 O   0  0  0  0  0  0  0  0  0  0  0  0
  2  1  1  6
  3  2  1  0
  4 13  1  0
  4  2  1  0
  5  4  2  0
  7  8  2  0
  7  6  1  0
  9  8  1  0
 10  9  2  0
 11 10  1  0
 12 11  1  1
 12 13  1  0
 14 18  1  0
 14 12  1  0
 15 14  2  0
 16 10  1  0
 16 17  2  0
 17  7  1  0
 19 18  1  0
 19 20  1  1
 21 26  1  0
 21 20  1  0
 22 21  2  0
 23 24  2  0
 23 22  1  0
 24 25  1  0
 25 26  2  0
 27 19  1  0
 28 27  1  0
 29 27  2  0
M  END
$$$$
