AYF.pdb
     RDKit          3D

 29 30  0  0  1  0  0  0  0  0999 V2000
    8.7364  -12.0930   19.8580 C   0  0  0  0  0  0  0  0  0  0  0  0
    8.6921  -13.4818   19.3120 C   0  0  2  0  0  0  0  0  0  0  0  0
    7.5308  -13.6146   18.4597 N   0  0  0  0  0  0  0  0  0  0  0  0
    8.6351  -14.5230   20.3591 C   0  0  0  0  0  0  0  0  0  0  0  0
    7.5104  -14.8673   20.8021 O   0  0  0  0  0  0  0  0  0  0  0  0
    7.3801  -19.4582   16.8902 O   0  0  0  0  0  0  0  0  0  0  0  0
    8.0823  -18.9754   17.9820 C   0  0  0  0  0  0  0  0  0  0  0  0
    7.5398  -19.1519   19.2545 C   0  0  0  0  0  0  0  0  0  0  0  0
    8.2550  -18.6632   20.3274 C   0  0  0  0  0  0  0  0  0  0  0  0
    9.4559  -18.0214   20.2091 C   0  0  0  0  0  0  0  0  0  0  0  0
   10.1627  -17.5283   21.4154 C   0  0  0  0  0  0  0  0  0  0  0  0
    9.6001  -16.2065   21.8877 C   0  0  2  0  0  0  0  0  0  0  0  0
    9.7573  -15.1648   20.9034 N   0  0  0  0  0  0  0  0  0  0  0  0
   10.1923  -15.7961   23.1832 C   0  0  0  0  0  0  0  0  0  0  0  0
   11.3197  -15.2488   23.1947 O   0  0  0  0  0  0  0  0  0  0  0  0
    9.9771  -17.8575   18.9283 C   0  0  0  0  0  0  0  0  0  0  0  0
    9.2878  -18.3355   17.8204 C   0  0  0  0  0  0  0  0  0  0  0  0
    9.4844  -16.0265   24.3655 N   0  0  0  0  0  0  0  0  0  0  0  0
    9.9512  -15.6335   25.6862 C   0  0  1  0  0  0  0  0  0  0  0  0
    9.7763  -14.1573   25.7938 C   0  0  0  0  0  0  0  0  0  0  0  0
    8.3808  -13.7426   25.9944 C   0  0  0  0  0  0  0  0  0  0  0  0
    8.0724  -12.9863   27.1144 C   0  0  0  0  0  0  0  0  0  0  0  0
    6.7650  -12.6052   27.2943 C   0  0  0  0  0  0  0  0  0  0  0  0
    5.7467  -12.9300   26.4297 C   0  0  0  0  0  0  0  0  0  0  0  0
    6.0527  -13.6894   25.3036 C   0  0  0  0  0  0  0  0  0  0  0  0
    7.3634  -14.0870   25.0978 C   0  0  0  0  0  0  0  0  0  0  0  0
    9.3240  -16.4276   26.7467 C   0  0  0  0  0  0  0  0  0  0  0  0
    9.7358  -16.4011   28.0767 O   0  0  0  0  0  0  0  0  0  0  0  0
    8.3589  -17.1886   26.4903 O   0  0  0  0  0  0  0  0  0  0  0  0
  2  1  1  1
  3  2  1  0
  4 13  1  0
  4  2  1  0
  5  4  2  0
  7  8  2  0
  7  6  1  0
  9  8  1  0
 10  9  2  0
 11 10  1  0
 12 11  1  6
 12 13  1  0
 14 18  1  0
 14 12  1  0
 15 14  2  0
 16 10  1  0
 16 17  2  0
 17  7  1  0
 19 18  1  0
 19 20  1  1
 21 26  1  0
 21 20  1  0
 22 21  2  0
 23 24  2  0
 23 22  1  0
 24 25  1  0
 25 26  2  0
 27 19  1  0
 28 27  1  0
 29 27  2  0
M  END
$$$$
