AYF.pdb
     RDKit          3D

 29 30  0  0  1  0  0  0  0  0999 V2000
    8.3672  -19.4851   22.2350 C   0  0  0  0  0  0  0  0  0  0  0  0
    8.2047  -18.5035   21.1220 C   0  0  2  0  0  0  0  0  0  0  0  0
    8.9258  -18.9834   19.9634 N   0  0  0  0  0  0  0  0  0  0  0  0
    8.6914  -17.1491   21.4576 C   0  0  0  0  0  0  0  0  0  0  0  0
    9.8855  -16.8585   21.1947 O   0  0  0  0  0  0  0  0  0  0  0  0
    7.8639  -13.6201   16.2519 O   0  0  0  0  0  0  0  0  0  0  0  0
    7.8548  -13.6228   17.6368 C   0  0  0  0  0  0  0  0  0  0  0  0
    6.9264  -14.4283   18.2958 C   0  0  0  0  0  0  0  0  0  0  0  0
    6.9342  -14.4156   19.6746 C   0  0  0  0  0  0  0  0  0  0  0  0
    7.7961  -13.6620   20.4211 C   0  0  0  0  0  0  0  0  0  0  0  0
    7.7404  -13.7083   21.9019 C   0  0  0  0  0  0  0  0  0  0  0  0
    8.5010  -14.8949   22.4497 C   0  0  2  0  0  0  0  0  0  0  0  0
    7.9100  -16.1496   22.0560 N   0  0  0  0  0  0  0  0  0  0  0  0
    8.6358  -14.8198   23.9241 C   0  0  0  0  0  0  0  0  0  0  0  0
    7.9998  -13.9418   24.5529 O   0  0  0  0  0  0  0  0  0  0  0  0
    8.7137  -12.8661   19.7404 C   0  0  0  0  0  0  0  0  0  0  0  0
    8.7389  -12.8503   18.3512 C   0  0  0  0  0  0  0  0  0  0  0  0
    9.4681  -15.7270   24.5846 N   0  0  0  0  0  0  0  0  0  0  0  0
    9.6159  -15.7960   26.0303 C   0  0  1  0  0  0  0  0  0  0  0  0
    8.2442  -15.8351   26.6118 C   0  0  0  0  0  0  0  0  0  0  0  0
    7.6149  -14.5120   26.7259 C   0  0  0  0  0  0  0  0  0  0  0  0
    6.3477  -14.3365   26.1923 C   0  0  0  0  0  0  0  0  0  0  0  0
    5.7687  -13.0957   26.3020 C   0  0  0  0  0  0  0  0  0  0  0  0
    6.3722  -12.0200   26.9090 C   0  0  0  0  0  0  0  0  0  0  0  0
    7.6450  -12.1924   27.4463 C   0  0  0  0  0  0  0  0  0  0  0  0
    8.2520  -13.4336   27.3496 C   0  0  0  0  0  0  0  0  0  0  0  0
   10.5109  -16.8830   26.4374 C   0  0  0  0  0  0  0  0  0  0  0  0
   11.1950  -16.9063   27.6500 O   0  0  0  0  0  0  0  0  0  0  0  0
   10.7032  -17.8692   25.6845 O   0  0  0  0  0  0  0  0  0  0  0  0
  2  1  1  1
  3  2  1  0
  4 13  1  0
  4  2  1  0
  5  4  2  0
  7  8  2  0
  7  6  1  0
  9  8  1  0
 10  9  2  0
 11 10  1  0
 12 11  1  1
 12 13  1  0
 14 18  1  0
 14 12  1  0
 15 14  2  0
 16 10  1  0
 16 17  2  0
 17  7  1  0
 19 18  1  0
 19 20  1  1
 21 26  1  0
 21 20  1  0
 22 21  2  0
 23 24  2  0
 23 22  1  0
 24 25  1  0
 25 26  2  0
 27 19  1  0
 28 27  1  0
 29 27  2  0
M  END
$$$$
