AYF.pdb
     RDKit          3D

 29 30  0  0  1  0  0  0  0  0999 V2000
    8.0174  -12.5199   19.3027 C   0  0  0  0  0  0  0  0  0  0  0  0
    8.4783  -13.8196   18.7307 C   0  0  2  0  0  0  0  0  0  0  0  0
    7.4495  -14.3394   17.8566 N   0  0  0  0  0  0  0  0  0  0  0  0
    8.7881  -14.8361   19.7575 C   0  0  0  0  0  0  0  0  0  0  0  0
    7.8548  -15.5620   20.1838 O   0  0  0  0  0  0  0  0  0  0  0  0
   10.8823  -20.3988   16.8217 O   0  0  0  0  0  0  0  0  0  0  0  0
   11.0407  -19.5101   17.8721 C   0  0  0  0  0  0  0  0  0  0  0  0
   10.6134  -19.8963   19.1422 C   0  0  0  0  0  0  0  0  0  0  0  0
   10.7800  -18.9963   20.1735 C   0  0  0  0  0  0  0  0  0  0  0  0
   11.3367  -17.7580   20.0167 C   0  0  0  0  0  0  0  0  0  0  0  0
   11.4824  -16.8504   21.1799 C   0  0  0  0  0  0  0  0  0  0  0  0
   10.2501  -15.9960   21.3759 C   0  0  2  0  0  0  0  0  0  0  0  0
   10.0632  -15.0549   20.2998 N   0  0  0  0  0  0  0  0  0  0  0  0
   10.2759  -15.2977   22.6833 C   0  0  0  0  0  0  0  0  0  0  0  0
   10.8185  -14.1709   22.7647 O   0  0  0  0  0  0  0  0  0  0  0  0
   11.7557  -17.3954   18.7393 C   0  0  0  0  0  0  0  0  0  0  0  0
   11.6059  -18.2734   17.6727 C   0  0  0  0  0  0  0  0  0  0  0  0
    9.6963  -15.9072   23.7989 N   0  0  0  0  0  0  0  0  0  0  0  0
    9.2409  -15.1871   24.9781 C   0  0  1  0  0  0  0  0  0  0  0  0
    8.1963  -14.2234   24.5294 C   0  0  0  0  0  0  0  0  0  0  0  0
    7.6381  -13.4103   25.6189 C   0  0  0  0  0  0  0  0  0  0  0  0
    6.3854  -13.7400   26.1123 C   0  0  0  0  0  0  0  0  0  0  0  0
    5.8711  -12.9728   27.1291 C   0  0  0  0  0  0  0  0  0  0  0  0
    6.5257  -11.8991   27.6845 C   0  0  0  0  0  0  0  0  0  0  0  0
    7.7843  -11.5650   27.1917 C   0  0  0  0  0  0  0  0  0  0  0  0
    8.3265  -12.3222   26.1664 C   0  0  0  0  0  0  0  0  0  0  0  0
    8.8456  -16.0978   26.0564 C   0  0  0  0  0  0  0  0  0  0  0  0
    8.1745  -17.2994   25.8447 O   0  0  0  0  0  0  0  0  0  0  0  0
    9.1045  -15.8222   27.2537 O   0  0  0  0  0  0  0  0  0  0  0  0
  2  1  1  1
  3  2  1  0
  4 13  1  0
  4  2  1  0
  5  4  2  0
  7  8  2  0
  7  6  1  0
  9  8  1  0
 10  9  2  0
 11 10  1  0
 12 11  1  6
 12 13  1  0
 14 18  1  0
 14 12  1  0
 15 14  2  0
 16 10  1  0
 16 17  2  0
 17  7  1  0
 19 18  1  0
 19 20  1  6
 21 26  1  0
 21 20  1  0
 22 21  2  0
 23 24  2  0
 23 22  1  0
 24 25  1  0
 25 26  2  0
 27 19  1  0
 28 27  1  0
 29 27  2  0
M  END
$$$$
