AYF.pdb
     RDKit          3D

 29 30  0  0  1  0  0  0  0  0999 V2000
    8.0766  -12.3212   19.9553 C   0  0  0  0  0  0  0  0  0  0  0  0
    8.1450  -13.7377   19.4889 C   0  0  2  0  0  0  0  0  0  0  0  0
    6.9513  -14.0405   18.7299 N   0  0  0  0  0  0  0  0  0  0  0  0
    8.2676  -14.7137   20.5917 C   0  0  0  0  0  0  0  0  0  0  0  0
    7.2171  -15.1939   21.0874 O   0  0  0  0  0  0  0  0  0  0  0  0
    8.9135  -20.2831   17.5450 O   0  0  0  0  0  0  0  0  0  0  0  0
    9.2722  -19.5490   18.6634 C   0  0  0  0  0  0  0  0  0  0  0  0
   10.1365  -18.4667   18.5013 C   0  0  0  0  0  0  0  0  0  0  0  0
   10.4810  -17.7499   19.6277 C   0  0  0  0  0  0  0  0  0  0  0  0
   10.0238  -18.0425   20.8820 C   0  0  0  0  0  0  0  0  0  0  0  0
   10.4411  -17.2184   22.0416 C   0  0  0  0  0  0  0  0  0  0  0  0
    9.5043  -16.0516   22.2599 C   0  0  2  0  0  0  0  0  0  0  0  0
    9.4850  -15.1507   21.1344 N   0  0  0  0  0  0  0  0  0  0  0  0
    9.8278  -15.3217   23.5089 C   0  0  0  0  0  0  0  0  0  0  0  0
    9.9179  -14.0720   23.4817 O   0  0  0  0  0  0  0  0  0  0  0  0
    9.1620  -19.1277   21.0183 C   0  0  0  0  0  0  0  0  0  0  0  0
    8.7900  -19.8760   19.9081 C   0  0  0  0  0  0  0  0  0  0  0  0
   10.0264  -16.0388   24.6915 N   0  0  0  0  0  0  0  0  0  0  0  0
    9.4104  -15.6996   25.9651 C   0  0  1  0  0  0  0  0  0  0  0  0
    7.9465  -15.5596   25.7227 C   0  0  0  0  0  0  0  0  0  0  0  0
    7.4634  -14.1750   25.8187 C   0  0  0  0  0  0  0  0  0  0  0  0
    7.4819  -13.5549   27.0582 C   0  0  0  0  0  0  0  0  0  0  0  0
    7.0263  -12.2614   27.1382 C   0  0  0  0  0  0  0  0  0  0  0  0
    6.5539  -11.5480   26.0623 C   0  0  0  0  0  0  0  0  0  0  0  0
    6.5340  -12.1675   24.8156 C   0  0  0  0  0  0  0  0  0  0  0  0
    6.9878  -13.4716   24.7066 C   0  0  0  0  0  0  0  0  0  0  0  0
    9.7932  -16.6372   27.0247 C   0  0  0  0  0  0  0  0  0  0  0  0
   10.1259  -16.2452   28.3188 O   0  0  0  0  0  0  0  0  0  0  0  0
    9.8381  -17.8718   26.8010 O   0  0  0  0  0  0  0  0  0  0  0  0
  2  1  1  1
  3  2  1  0
  4 13  1  0
  4  2  1  0
  5  4  2  0
  7  8  2  0
  7  6  1  0
  9  8  1  0
 10  9  2  0
 11 10  1  0
 12 11  1  6
 12 13  1  0
 14 18  1  0
 14 12  1  0
 15 14  2  0
 16 10  1  0
 16 17  2  0
 17  7  1  0
 19 18  1  0
 19 20  1  6
 21 26  1  0
 21 20  1  0
 22 21  2  0
 23 24  2  0
 23 22  1  0
 24 25  1  0
 25 26  2  0
 27 19  1  0
 28 27  1  0
 29 27  2  0
M  END
$$$$
