AYF.pdb
     RDKit          3D

 29 30  0  0  1  0  0  0  0  0999 V2000
    7.7560  -12.0917   20.1600 C   0  0  0  0  0  0  0  0  0  0  0  0
    8.4720  -13.2064   19.4719 C   0  0  2  0  0  0  0  0  0  0  0  0
    7.7572  -13.5474   18.2613 N   0  0  0  0  0  0  0  0  0  0  0  0
    8.6052  -14.4207   20.3035 C   0  0  0  0  0  0  0  0  0  0  0  0
    7.7948  -15.3640   20.1219 O   0  0  0  0  0  0  0  0  0  0  0  0
   14.9611  -14.1515   19.0140 O   0  0  0  0  0  0  0  0  0  0  0  0
   13.8884  -14.7974   19.6058 C   0  0  0  0  0  0  0  0  0  0  0  0
   14.0239  -15.2496   20.9181 C   0  0  0  0  0  0  0  0  0  0  0  0
   12.9441  -15.8905   21.4878 C   0  0  0  0  0  0  0  0  0  0  0  0
   11.7600  -16.1033   20.8394 C   0  0  0  0  0  0  0  0  0  0  0  0
   10.6455  -16.7993   21.5260 C   0  0  0  0  0  0  0  0  0  0  0  0
    9.6265  -15.8201   22.0644 C   0  0  2  0  0  0  0  0  0  0  0  0
    9.5817  -14.6022   21.2941 N   0  0  0  0  0  0  0  0  0  0  0  0
    9.8621  -15.5244   23.4977 C   0  0  0  0  0  0  0  0  0  0  0  0
   10.7670  -14.7175   23.8155 O   0  0  0  0  0  0  0  0  0  0  0  0
   11.6488  -15.6426   19.5301 C   0  0  0  0  0  0  0  0  0  0  0  0
   12.7137  -14.9915   18.9192 C   0  0  0  0  0  0  0  0  0  0  0  0
    9.0731  -16.1495   24.4666 N   0  0  0  0  0  0  0  0  0  0  0  0
    9.2813  -16.0151   25.9001 C   0  0  1  0  0  0  0  0  0  0  0  0
    8.0066  -15.5109   26.4849 C   0  0  0  0  0  0  0  0  0  0  0  0
    7.7108  -14.1141   26.1367 C   0  0  0  0  0  0  0  0  0  0  0  0
    8.3768  -13.1090   26.8205 C   0  0  0  0  0  0  0  0  0  0  0  0
    8.0919  -11.8066   26.4894 C   0  0  0  0  0  0  0  0  0  0  0  0
    7.1863  -11.4431   25.5213 C   0  0  0  0  0  0  0  0  0  0  0  0
    6.5155  -12.4499   24.8321 C   0  0  0  0  0  0  0  0  0  0  0  0
    6.7838  -13.7720   25.1460 C   0  0  0  0  0  0  0  0  0  0  0  0
    9.8106  -17.2464   26.4937 C   0  0  0  0  0  0  0  0  0  0  0  0
    9.9939  -18.4293   25.7824 O   0  0  0  0  0  0  0  0  0  0  0  0
   10.1305  -17.2853   27.7072 O   0  0  0  0  0  0  0  0  0  0  0  0
  2  1  1  1
  3  2  1  0
  4 13  1  0
  4  2  1  0
  5  4  2  0
  7  8  2  0
  7  6  1  0
  9  8  1  0
 10  9  2  0
 11 10  1  0
 12 11  1  6
 12 13  1  0
 14 18  1  0
 14 12  1  0
 15 14  2  0
 16 10  1  0
 16 17  2  0
 17  7  1  0
 19 18  1  0
 19 20  1  1
 21 26  1  0
 21 20  1  0
 22 21  2  0
 23 24  2  0
 23 22  1  0
 24 25  1  0
 25 26  2  0
 27 19  1  0
 28 27  1  0
 29 27  2  0
M  END
$$$$
