AYF.pdb
     RDKit          3D

 29 30  0  0  1  0  0  0  0  0999 V2000
    8.2478  -12.5631   19.9213 C   0  0  0  0  0  0  0  0  0  0  0  0
    7.6985  -13.9258   19.6565 C   0  0  2  0  0  0  0  0  0  0  0  0
    6.5168  -13.8037   18.8311 N   0  0  0  0  0  0  0  0  0  0  0  0
    7.3456  -14.6658   20.8859 C   0  0  0  0  0  0  0  0  0  0  0  0
    6.2298  -14.4438   21.4203 O   0  0  0  0  0  0  0  0  0  0  0  0
    3.0369  -19.1242   19.4746 O   0  0  0  0  0  0  0  0  0  0  0  0
    4.1766  -18.7976   20.1905 C   0  0  0  0  0  0  0  0  0  0  0  0
    4.0648  -18.5957   21.5659 C   0  0  0  0  0  0  0  0  0  0  0  0
    5.2115  -18.2709   22.2593 C   0  0  0  0  0  0  0  0  0  0  0  0
    6.4395  -18.1380   21.6741 C   0  0  0  0  0  0  0  0  0  0  0  0
    7.6248  -17.7888   22.4933 C   0  0  0  0  0  0  0  0  0  0  0  0
    7.7360  -16.2950   22.7012 C   0  0  2  0  0  0  0  0  0  0  0  0
    8.1736  -15.6105   21.5102 N   0  0  0  0  0  0  0  0  0  0  0  0
    8.6202  -15.9704   23.8460 C   0  0  0  0  0  0  0  0  0  0  0  0
    9.8491  -15.8248   23.6480 O   0  0  0  0  0  0  0  0  0  0  0  0
    6.5257  -18.3446   20.2998 C   0  0  0  0  0  0  0  0  0  0  0  0
    5.3936  -18.6737   19.5642 C   0  0  0  0  0  0  0  0  0  0  0  0
    8.0686  -15.8333   25.1223 N   0  0  0  0  0  0  0  0  0  0  0  0
    8.8453  -15.5648   26.3227 C   0  0  1  0  0  0  0  0  0  0  0  0
    7.9565  -14.8305   27.2672 C   0  0  0  0  0  0  0  0  0  0  0  0
    7.6168  -13.4721   26.8208 C   0  0  0  0  0  0  0  0  0  0  0  0
    8.5896  -12.7296   26.1698 C   0  0  0  0  0  0  0  0  0  0  0  0
    8.2633  -11.4603   25.7583 C   0  0  0  0  0  0  0  0  0  0  0  0
    7.0303  -10.8850   25.9544 C   0  0  0  0  0  0  0  0  0  0  0  0
    6.0505  -11.6278   26.6077 C   0  0  0  0  0  0  0  0  0  0  0  0
    6.3529  -12.9108   27.0332 C   0  0  0  0  0  0  0  0  0  0  0  0
    9.4714  -16.7798   26.8523 C   0  0  0  0  0  0  0  0  0  0  0  0
    9.2756  -18.0477   26.3110 O   0  0  0  0  0  0  0  0  0  0  0  0
   10.2342  -16.7244   27.8480 O   0  0  0  0  0  0  0  0  0  0  0  0
  2  1  1  1
  3  2  1  0
  4 13  1  0
  4  2  1  0
  5  4  2  0
  7  8  2  0
  7  6  1  0
  9  8  1  0
 10  9  2  0
 11 10  1  0
 12 11  1  6
 12 13  1  0
 14 18  1  0
 14 12  1  0
 15 14  2  0
 16 10  1  0
 16 17  2  0
 17  7  1  0
 19 18  1  0
 19 20  1  1
 21 26  1  0
 21 20  1  0
 22 21  2  0
 23 24  2  0
 23 22  1  0
 24 25  1  0
 25 26  2  0
 27 19  1  0
 28 27  1  0
 29 27  2  0
M  END
$$$$
