AYF.pdb
     RDKit          3D

 29 30  0  0  1  0  0  0  0  0999 V2000
    7.7255  -12.4388   20.4264 C   0  0  0  0  0  0  0  0  0  0  0  0
    7.7740  -13.8572   19.9634 C   0  0  2  0  0  0  0  0  0  0  0  0
    6.4732  -14.2289   19.4510 N   0  0  0  0  0  0  0  0  0  0  0  0
    8.1559  -14.8094   21.0270 C   0  0  0  0  0  0  0  0  0  0  0  0
    7.2476  -15.3184   21.7309 O   0  0  0  0  0  0  0  0  0  0  0  0
   11.4127  -21.8098   24.8570 O   0  0  0  0  0  0  0  0  0  0  0  0
   11.3364  -20.6231   24.1470 C   0  0  0  0  0  0  0  0  0  0  0  0
   10.3757  -20.5078   23.1427 C   0  0  0  0  0  0  0  0  0  0  0  0
   10.3173  -19.3182   22.4479 C   0  0  0  0  0  0  0  0  0  0  0  0
   11.1440  -18.2571   22.6904 C   0  0  0  0  0  0  0  0  0  0  0  0
   11.0131  -17.0105   21.8986 C   0  0  0  0  0  0  0  0  0  0  0  0
    9.7399  -16.2681   22.2374 C   0  0  2  0  0  0  0  0  0  0  0  0
    9.4742  -15.1931   21.3141 N   0  0  0  0  0  0  0  0  0  0  0  0
    9.7583  -15.7673   23.6324 C   0  0  0  0  0  0  0  0  0  0  0  0
   10.5849  -14.8818   23.9540 O   0  0  0  0  0  0  0  0  0  0  0  0
   12.0948  -18.3963   23.6980 C   0  0  0  0  0  0  0  0  0  0  0  0
   12.1866  -19.5789   24.4219 C   0  0  0  0  0  0  0  0  0  0  0  0
    8.8557  -16.2905   24.5618 N   0  0  0  0  0  0  0  0  0  0  0  0
    8.8700  -15.9732   25.9815 C   0  0  1  0  0  0  0  0  0  0  0  0
    7.4909  -15.5458   26.3511 C   0  0  0  0  0  0  0  0  0  0  0  0
    7.2436  -14.1119   26.1453 C   0  0  0  0  0  0  0  0  0  0  0  0
    7.9433  -13.2038   26.9247 C   0  0  0  0  0  0  0  0  0  0  0  0
    7.7037  -11.8658   26.7265 C   0  0  0  0  0  0  0  0  0  0  0  0
    6.8120  -11.3762   25.8019 C   0  0  0  0  0  0  0  0  0  0  0  0
    6.1076  -12.2852   25.0171 C   0  0  0  0  0  0  0  0  0  0  0  0
    6.3300  -13.6405   25.1962 C   0  0  0  0  0  0  0  0  0  0  0  0
    9.4333  -17.0654   26.7804 C   0  0  0  0  0  0  0  0  0  0  0  0
    9.6288  -18.3557   26.2946 O   0  0  0  0  0  0  0  0  0  0  0  0
    9.7733  -16.8754   27.9741 O   0  0  0  0  0  0  0  0  0  0  0  0
  2  1  1  1
  3  2  1  0
  4 13  1  0
  4  2  1  0
  5  4  2  0
  7  8  2  0
  7  6  1  0
  9  8  1  0
 10  9  2  0
 11 10  1  0
 12 11  1  6
 12 13  1  0
 14 18  1  0
 14 12  1  0
 15 14  2  0
 16 10  1  0
 16 17  2  0
 17  7  1  0
 19 18  1  0
 19 20  1  1
 21 26  1  0
 21 20  1  0
 22 21  2  0
 23 24  2  0
 23 22  1  0
 24 25  1  0
 25 26  2  0
 27 19  1  0
 28 27  1  0
 29 27  2  0
M  END
$$$$
