AYF.pdb
     RDKit          3D

 29 30  0  0  1  0  0  0  0  0999 V2000
   10.3408  -19.0638   19.4252 C   0  0  0  0  0  0  0  0  0  0  0  0
   10.3015  -17.5752   19.3186 C   0  0  2  0  0  0  0  0  0  0  0  0
   11.5333  -17.1146   18.7160 N   0  0  0  0  0  0  0  0  0  0  0  0
   10.1265  -16.8977   20.6202 C   0  0  0  0  0  0  0  0  0  0  0  0
   11.1518  -16.5883   21.2781 O   0  0  0  0  0  0  0  0  0  0  0  0
    7.1942  -12.2113   27.4221 O   0  0  0  0  0  0  0  0  0  0  0  0
    7.2761  -13.0009   26.2873 C   0  0  0  0  0  0  0  0  0  0  0  0
    6.0962  -13.3479   25.6299 C   0  0  0  0  0  0  0  0  0  0  0  0
    6.2005  -14.1351   24.5026 C   0  0  0  0  0  0  0  0  0  0  0  0
    7.3885  -14.5881   24.0015 C   0  0  0  0  0  0  0  0  0  0  0  0
    7.4136  -15.4290   22.7806 C   0  0  0  0  0  0  0  0  0  0  0  0
    8.8136  -15.9033   22.4613 C   0  0  2  0  0  0  0  0  0  0  0  0
    8.8850  -16.5693   21.1846 N   0  0  0  0  0  0  0  0  0  0  0  0
    9.3509  -16.7720   23.5355 C   0  0  0  0  0  0  0  0  0  0  0  0
    8.9991  -17.9740   23.5840 O   0  0  0  0  0  0  0  0  0  0  0  0
    8.5528  -14.2283   24.6751 C   0  0  0  0  0  0  0  0  0  0  0  0
    8.4913  -13.4361   25.8151 C   0  0  0  0  0  0  0  0  0  0  0  0
   10.2377  -16.2363   24.4728 N   0  0  0  0  0  0  0  0  0  0  0  0
   10.8832  -17.0107   25.5217 C   0  0  1  0  0  0  0  0  0  0  0  0
   11.8163  -16.0936   26.2354 C   0  0  0  0  0  0  0  0  0  0  0  0
   11.1820  -15.3398   27.3259 C   0  0  0  0  0  0  0  0  0  0  0  0
   10.6970  -14.0699   27.0543 C   0  0  0  0  0  0  0  0  0  0  0  0
   10.1078  -13.3723   28.0805 C   0  0  0  0  0  0  0  0  0  0  0  0
    9.9717  -13.8596   29.3587 C   0  0  0  0  0  0  0  0  0  0  0  0
   10.4575  -15.1348   29.6353 C   0  0  0  0  0  0  0  0  0  0  0  0
   11.0563  -15.8602   28.6185 C   0  0  0  0  0  0  0  0  0  0  0  0
    9.9084  -17.7091   26.3646 C   0  0  0  0  0  0  0  0  0  0  0  0
   10.2417  -18.7439   27.2347 O   0  0  0  0  0  0  0  0  0  0  0  0
    8.6938  -17.3923   26.3349 O   0  0  0  0  0  0  0  0  0  0  0  0
  2  1  1  1
  3  2  1  0
  4 13  1  0
  4  2  1  0
  5  4  2  0
  7  8  2  0
  7  6  1  0
  9  8  1  0
 10  9  2  0
 11 10  1  0
 12 11  1  1
 12 13  1  0
 14 18  1  0
 14 12  1  0
 15 14  2  0
 16 10  1  0
 16 17  2  0
 17  7  1  0
 19 18  1  0
 19 20  1  1
 21 26  1  0
 21 20  1  0
 22 21  2  0
 23 24  2  0
 23 22  1  0
 24 25  1  0
 25 26  2  0
 27 19  1  0
 28 27  1  0
 29 27  2  0
M  END
$$$$
