AYF.pdb
     RDKit          3D

 29 30  0  0  1  0  0  0  0  0999 V2000
    6.4615  -19.1256   19.0839 C   0  0  0  0  0  0  0  0  0  0  0  0
    5.6635  -19.8108   20.1433 C   0  0  2  0  0  0  0  0  0  0  0  0
    4.2572  -19.6821   19.8292 N   0  0  0  0  0  0  0  0  0  0  0  0
    5.8995  -19.2704   21.4982 C   0  0  0  0  0  0  0  0  0  0  0  0
    5.3690  -18.1738   21.8076 O   0  0  0  0  0  0  0  0  0  0  0  0
    8.9067  -17.8030   29.6253 O   0  0  0  0  0  0  0  0  0  0  0  0
    8.4489  -18.4003   28.4626 C   0  0  0  0  0  0  0  0  0  0  0  0
    9.3700  -19.0425   27.6357 C   0  0  0  0  0  0  0  0  0  0  0  0
    8.8930  -19.6300   26.4830 C   0  0  0  0  0  0  0  0  0  0  0  0
    7.5774  -19.6154   26.1130 C   0  0  0  0  0  0  0  0  0  0  0  0
    7.1461  -20.2746   24.8570 C   0  0  0  0  0  0  0  0  0  0  0  0
    6.9006  -19.2668   23.7565 C   0  0  2  0  0  0  0  0  0  0  0  0
    6.6820  -19.8979   22.4788 N   0  0  0  0  0  0  0  0  0  0  0  0
    8.0017  -18.2780   23.6702 C   0  0  0  0  0  0  0  0  0  0  0  0
    9.0405  -18.5729   23.0340 O   0  0  0  0  0  0  0  0  0  0  0  0
    6.6769  -18.9682   26.9550 C   0  0  0  0  0  0  0  0  0  0  0  0
    7.1168  -18.3636   28.1263 C   0  0  0  0  0  0  0  0  0  0  0  0
    7.8619  -17.0380   24.2986 N   0  0  0  0  0  0  0  0  0  0  0  0
    8.8119  -15.9441   24.1662 C   0  0  1  0  0  0  0  0  0  0  0  0
    8.0209  -14.6904   24.0112 C   0  0  0  0  0  0  0  0  0  0  0  0
    7.5431  -14.1342   25.2848 C   0  0  0  0  0  0  0  0  0  0  0  0
    8.4354  -13.4185   26.0677 C   0  0  0  0  0  0  0  0  0  0  0  0
    7.9800  -12.9045   27.2573 C   0  0  0  0  0  0  0  0  0  0  0  0
    6.6931  -13.0585   27.7155 C   0  0  0  0  0  0  0  0  0  0  0  0
    5.7939  -13.7766   26.9318 C   0  0  0  0  0  0  0  0  0  0  0  0
    6.2269  -14.3059   25.7273 C   0  0  0  0  0  0  0  0  0  0  0  0
    9.7998  -15.9435   25.2490 C   0  0  0  0  0  0  0  0  0  0  0  0
    9.6090  -16.5888   26.4681 O   0  0  0  0  0  0  0  0  0  0  0  0
   10.8936  -15.3414   25.1167 O   0  0  0  0  0  0  0  0  0  0  0  0
  2  1  1  6
  3  2  1  0
  4 13  1  0
  4  2  1  0
  5  4  2  0
  7  8  2  0
  7  6  1  0
  9  8  1  0
 10  9  2  0
 11 10  1  0
 12 11  1  1
 12 13  1  0
 14 18  1  0
 14 12  1  0
 15 14  2  0
 16 10  1  0
 16 17  2  0
 17  7  1  0
 19 18  1  0
 19 20  1  1
 21 26  1  0
 21 20  1  0
 22 21  2  0
 23 24  2  0
 23 22  1  0
 24 25  1  0
 25 26  2  0
 27 19  1  0
 28 27  1  0
 29 27  2  0
M  END
$$$$
