PCT.pdb
     RDKit          3D

 21 21  0  0  1  0  0  0  0  0999 V2000
   20.6341  -10.1789  -17.4736 N   0  0  0  0  0  0  0  0  0  0  0  0
   20.5629  -11.3928  -18.2525 C   0  0  0  0  0  0  0  0  0  0  0  0
   19.4671  -12.2131  -17.6259 C   0  0  0  0  0  0  0  0  0  0  0  0
   18.8768  -11.3484  -16.5550 C   0  0  0  0  0  0  0  0  0  0  0  0
   19.3085   -9.9637  -16.9455 C   0  0  1  0  0  0  0  0  0  0  0  0
   19.3125   -9.0136  -15.8131 C   0  0  0  0  0  0  0  0  0  0  0  0
   18.2319   -8.7851  -15.2140 O   0  0  0  0  0  0  0  0  0  0  0  0
   20.4896   -8.3723  -15.4038 N   0  0  0  0  0  0  0  0  0  0  0  0
   20.5375   -7.4020  -14.3018 C   0  0  1  0  0  0  0  0  0  0  0  0
   21.4004   -7.9488  -13.1858 C   0  0  0  0  0  0  0  0  0  0  0  0
   21.6898   -6.7416  -11.8815 S   0  0  0  0  0  0  0  0  0  0  0  0
   20.9923   -6.1220  -14.8511 C   0  0  0  0  0  0  0  0  0  0  0  0
   22.0548   -6.0828  -15.5641 O   0  0  0  0  0  0  0  0  0  0  0  0
   19.0274   -3.5002  -16.8480 C   0  0  0  0  0  0  0  0  0  0  0  0
   19.7509   -2.7946  -15.7292 C   0  0  1  0  0  0  0  0  0  0  0  0
   18.8513   -2.5839  -14.6866 O   0  0  0  0  0  0  0  0  0  0  0  0
   20.9085   -3.6704  -15.2537 C   0  0  2  0  0  0  0  0  0  0  0  0
   20.3425   -4.8860  -14.6609 N   0  0  0  0  0  0  0  0  0  0  0  0
   21.7527   -2.9616  -14.2761 C   0  0  0  0  0  0  0  0  0  0  0  0
   21.8999   -3.3898  -13.0883 O   0  0  0  0  0  0  0  0  0  0  0  0
   22.4177   -1.8003  -14.6175 O   0  0  0  0  0  0  0  0  0  0  0  0
  2  1  1  0
  3  2  1  0
  4  5  1  0
  4  3  1  0
  5  1  1  0
  6  8  1  0
  5  6  1  1
  7  6  2  0
  9 12  1  0
  9  8  1  0
  9 10  1  1
 11 10  1  0
 12 18  1  0
 13 12  2  0
 15 16  1  0
 15 14  1  6
 17 19  1  0
 17 15  1  0
 17 18  1  1
 19 21  1  0
 20 19  2  0
M  END
$$$$
