PCT.pdb
     RDKit          3D

 21 21  0  0  1  0  0  0  0  0999 V2000
   18.7292  -11.8352  -16.4320 N   0  0  0  0  0  0  0  0  0  0  0  0
   18.4940  -13.2077  -16.8144 C   0  0  0  0  0  0  0  0  0  0  0  0
   16.9974  -13.3673  -16.8523 C   0  0  0  0  0  0  0  0  0  0  0  0
   16.4386  -12.0032  -16.5880 C   0  0  0  0  0  0  0  0  0  0  0  0
   17.5875  -11.0876  -16.9007 C   0  0  1  0  0  0  0  0  0  0  0  0
   17.4798   -9.7705  -16.2383 C   0  0  0  0  0  0  0  0  0  0  0  0
   16.5390   -9.0053  -16.5673 O   0  0  0  0  0  0  0  0  0  0  0  0
   18.4006   -9.3686  -15.2611 N   0  0  0  0  0  0  0  0  0  0  0  0
   18.3263   -8.0761  -14.5668 C   0  0  1  0  0  0  0  0  0  0  0  0
   17.7728   -8.2831  -13.1740 C   0  0  0  0  0  0  0  0  0  0  0  0
   19.0254   -8.8465  -12.0095 S   0  0  0  0  0  0  0  0  0  0  0  0
   19.6588   -7.4680  -14.6077 C   0  0  0  0  0  0  0  0  0  0  0  0
   20.6927   -8.2181  -14.6941 O   0  0  0  0  0  0  0  0  0  0  0  0
   20.4426   -3.3385  -15.1649 C   0  0  0  0  0  0  0  0  0  0  0  0
   21.3351   -4.4519  -15.6513 C   0  0  1  0  0  0  0  0  0  0  0  0
   22.6329   -3.9586  -15.7650 O   0  0  0  0  0  0  0  0  0  0  0  0
   21.2966   -5.5983  -14.6426 C   0  0  2  0  0  0  0  0  0  0  0  0
   19.9154   -6.0831  -14.5609 N   0  0  0  0  0  0  0  0  0  0  0  0
   21.7731   -5.1648  -13.3175 C   0  0  0  0  0  0  0  0  0  0  0  0
   21.0040   -5.1478  -12.3055 O   0  0  0  0  0  0  0  0  0  0  0  0
   23.0795   -4.7593  -13.1269 O   0  0  0  0  0  0  0  0  0  0  0  0
  2  1  1  0
  3  2  1  0
  4  5  1  0
  4  3  1  0
  5  1  1  0
  6  8  1  0
  5  6  1  1
  7  6  2  0
  9 12  1  0
  9  8  1  0
  9 10  1  1
 11 10  1  0
 12 18  1  0
 13 12  2  0
 15 16  1  0
 15 14  1  1
 17 19  1  0
 17 15  1  0
 17 18  1  1
 19 21  1  0
 20 19  2  0
M  END
$$$$
