PCT.pdb
     RDKit          3D

 21 21  0  0  1  0  0  0  0  0999 V2000
   19.3480  -10.6931  -14.9884 N   0  0  0  0  0  0  0  0  0  0  0  0
   19.0548  -11.9502  -15.6357 C   0  0  0  0  0  0  0  0  0  0  0  0
   17.5734  -11.9330  -15.9030 C   0  0  0  0  0  0  0  0  0  0  0  0
   17.1020  -10.5760  -15.4797 C   0  0  0  0  0  0  0  0  0  0  0  0
   18.3605   -9.7562  -15.4675 C   0  0  1  0  0  0  0  0  0  0  0  0
   18.2686   -8.5604  -14.6035 C   0  0  0  0  0  0  0  0  0  0  0  0
   17.4847   -7.6359  -14.9348 O   0  0  0  0  0  0  0  0  0  0  0  0
   19.0337   -8.4449  -13.4349 N   0  0  0  0  0  0  0  0  0  0  0  0
   19.0191   -7.2526  -12.5766 C   0  0  1  0  0  0  0  0  0  0  0  0
   19.1596   -7.6715  -11.1295 C   0  0  0  0  0  0  0  0  0  0  0  0
   19.3845   -6.2688  -10.0231 S   0  0  0  0  0  0  0  0  0  0  0  0
   20.0670   -6.3454  -13.0518 C   0  0  0  0  0  0  0  0  0  0  0  0
   21.2967   -6.6455  -12.8599 O   0  0  0  0  0  0  0  0  0  0  0  0
   21.6345   -5.6150  -16.0045 C   0  0  0  0  0  0  0  0  0  0  0  0
   21.1450   -4.2573  -15.5685 C   0  0  1  0  0  0  0  0  0  0  0  0
   19.9251   -4.0073  -16.1929 O   0  0  0  0  0  0  0  0  0  0  0  0
   20.9674   -4.2551  -14.0513 C   0  0  2  0  0  0  0  0  0  0  0  0
   19.8366   -5.1299  -13.7267 N   0  0  0  0  0  0  0  0  0  0  0  0
   20.7331   -2.8935  -13.5395 C   0  0  0  0  0  0  0  0  0  0  0  0
   21.6060   -1.9771  -13.6593 O   0  0  0  0  0  0  0  0  0  0  0  0
   19.5504   -2.5626  -12.9079 O   0  0  0  0  0  0  0  0  0  0  0  0
  2  1  1  0
  3  2  1  0
  4  5  1  0
  4  3  1  0
  5  1  1  0
  6  8  1  0
  5  6  1  1
  7  6  2  0
  9 12  1  0
  9  8  1  0
  9 10  1  1
 11 10  1  0
 12 18  1  0
 13 12  2  0
 15 16  1  0
 15 14  1  6
 17 19  1  0
 17 15  1  0
 17 18  1  6
 19 21  1  0
 20 19  2  0
M  END
$$$$
