PCT.pdb
     RDKit          3D

 21 21  0  0  1  0  0  0  0  0999 V2000
   22.2606  -11.5414  -18.9449 N   0  0  0  0  0  0  0  0  0  0  0  0
   22.2973  -12.5713  -19.9565 C   0  0  0  0  0  0  0  0  0  0  0  0
   21.2092  -13.5433  -19.5855 C   0  0  0  0  0  0  0  0  0  0  0  0
   20.5134  -12.9396  -18.4046 C   0  0  0  0  0  0  0  0  0  0  0  0
   20.8968  -11.4891  -18.4761 C   0  0  1  0  0  0  0  0  0  0  0  0
   20.7855  -10.7923  -17.1772 C   0  0  0  0  0  0  0  0  0  0  0  0
   19.6553  -10.7045  -16.6350 O   0  0  0  0  0  0  0  0  0  0  0  0
   21.9084  -10.2355  -16.5502 N   0  0  0  0  0  0  0  0  0  0  0  0
   21.8452   -9.5269  -15.2648 C   0  0  1  0  0  0  0  0  0  0  0  0
   22.8094  -10.1654  -14.2892 C   0  0  0  0  0  0  0  0  0  0  0  0
   22.7008   -9.4482  -12.6411 S   0  0  0  0  0  0  0  0  0  0  0  0
   22.0932   -8.1061  -15.5235 C   0  0  0  0  0  0  0  0  0  0  0  0
   23.0380   -7.7643  -16.3169 O   0  0  0  0  0  0  0  0  0  0  0  0
   20.3969   -5.6132  -17.3190 C   0  0  0  0  0  0  0  0  0  0  0  0
   20.5794   -4.9813  -15.9625 C   0  0  1  0  0  0  0  0  0  0  0  0
   19.4062   -5.1581  -15.2325 O   0  0  0  0  0  0  0  0  0  0  0  0
   21.7476   -5.6597  -15.2496 C   0  0  2  0  0  0  0  0  0  0  0  0
   21.3590   -7.0434  -14.9599 N   0  0  0  0  0  0  0  0  0  0  0  0
   22.1049   -4.9509  -14.0084 C   0  0  0  0  0  0  0  0  0  0  0  0
   21.9760   -5.4977  -12.8680 O   0  0  0  0  0  0  0  0  0  0  0  0
   22.5952   -3.6601  -14.0399 O   0  0  0  0  0  0  0  0  0  0  0  0
  2  1  1  0
  3  2  1  0
  4  5  1  0
  4  3  1  0
  5  1  1  0
  6  8  1  0
  5  6  1  1
  7  6  2  0
  9 12  1  0
  9  8  1  0
  9 10  1  1
 11 10  1  0
 12 18  1  0
 13 12  2  0
 15 16  1  0
 15 14  1  6
 17 19  1  0
 17 15  1  0
 17 18  1  1
 19 21  1  0
 20 19  2  0
M  END
$$$$
