PCT.pdb
     RDKit          3D

 21 21  0  0  1  0  0  0  0  0999 V2000
   28.0938  -20.7440  -15.7034 N   0  0  0  0  0  0  0  0  0  0  0  0
   28.7383  -19.7700  -16.5527 C   0  0  0  0  0  0  0  0  0  0  0  0
   28.2317  -18.4300  -16.0899 C   0  0  0  0  0  0  0  0  0  0  0  0
   27.3815  -18.7118  -14.8896 C   0  0  0  0  0  0  0  0  0  0  0  0
   27.8353  -20.0749  -14.4513 C   0  0  1  0  0  0  0  0  0  0  0  0
   26.8287  -20.7911  -13.6397 C   0  0  0  0  0  0  0  0  0  0  0  0
   26.3809  -21.8861  -14.0633 O   0  0  0  0  0  0  0  0  0  0  0  0
   26.3728  -20.2726  -12.4200 N   0  0  0  0  0  0  0  0  0  0  0  0
   25.2865  -20.8819  -11.6409 C   0  0  1  0  0  0  0  0  0  0  0  0
   25.3520  -20.3876  -10.2125 C   0  0  0  0  0  0  0  0  0  0  0  0
   26.6518  -21.1932   -9.2617 S   0  0  0  0  0  0  0  0  0  0  0  0
   24.0251  -20.5920  -12.3278 C   0  0  0  0  0  0  0  0  0  0  0  0
   23.7027  -19.3769  -12.5698 O   0  0  0  0  0  0  0  0  0  0  0  0
   22.9033  -21.9767  -15.5950 C   0  0  0  0  0  0  0  0  0  0  0  0
   21.7143  -22.0961  -14.6758 C   0  0  1  0  0  0  0  0  0  0  0  0
   21.6363  -23.4118  -14.2247 O   0  0  0  0  0  0  0  0  0  0  0  0
   21.9009  -21.1468  -13.4937 C   0  0  2  0  0  0  0  0  0  0  0  0
   23.1021  -21.5637  -12.7637 N   0  0  0  0  0  0  0  0  0  0  0  0
   20.7252  -21.1565  -12.6057 C   0  0  0  0  0  0  0  0  0  0  0  0
   20.7956  -21.5864  -11.4114 O   0  0  0  0  0  0  0  0  0  0  0  0
   19.4982  -20.6963  -13.0417 O   0  0  0  0  0  0  0  0  0  0  0  0
  2  1  1  0
  3  2  1  0
  4  5  1  0
  4  3  1  0
  5  1  1  0
  6  8  1  0
  5  6  1  6
  7  6  2  0
  9 12  1  0
  9  8  1  0
  9 10  1  1
 11 10  1  0
 12 18  1  0
 13 12  2  0
 15 16  1  0
 15 14  1  6
 17 19  1  0
 17 15  1  0
 17 18  1  1
 19 21  1  0
 20 19  2  0
M  END
$$$$
