PCT.pdb
     RDKit          3D

 21 21  0  0  1  0  0  0  0  0999 V2000
   19.0194  -13.2747  -16.4117 N   0  0  0  0  0  0  0  0  0  0  0  0
   17.8649  -13.5116  -17.2460 C   0  0  0  0  0  0  0  0  0  0  0  0
   17.5615  -12.1913  -17.9029 C   0  0  0  0  0  0  0  0  0  0  0  0
   18.6615  -11.2672  -17.4800 C   0  0  0  0  0  0  0  0  0  0  0  0
   19.7520  -12.2004  -17.0374 C   0  0  1  0  0  0  0  0  0  0  0  0
   20.7141  -11.5727  -16.1072 C   0  0  0  0  0  0  0  0  0  0  0  0
   20.3867  -11.4376  -14.9016 O   0  0  0  0  0  0  0  0  0  0  0  0
   21.9702  -11.1317  -16.5456 N   0  0  0  0  0  0  0  0  0  0  0  0
   22.9519  -10.4882  -15.6622 C   0  0  1  0  0  0  0  0  0  0  0  0
   24.3490  -10.7769  -16.1662 C   0  0  0  0  0  0  0  0  0  0  0  0
   25.0385  -12.2852  -15.4646 S   0  0  0  0  0  0  0  0  0  0  0  0
   22.6165   -9.0642  -15.5813 C   0  0  0  0  0  0  0  0  0  0  0  0
   23.3765   -8.2730  -14.9214 O   0  0  0  0  0  0  0  0  0  0  0  0
   22.1778   -6.4310  -18.2044 C   0  0  0  0  0  0  0  0  0  0  0  0
   20.9294   -6.4216  -17.3592 C   0  0  1  0  0  0  0  0  0  0  0  0
   19.9538   -7.1771  -18.0058 O   0  0  0  0  0  0  0  0  0  0  0  0
   21.2463   -7.0318  -15.9952 C   0  0  2  0  0  0  0  0  0  0  0  0
   21.4943   -8.4641  -16.1867 N   0  0  0  0  0  0  0  0  0  0  0  0
   20.1431   -6.8197  -15.0419 C   0  0  0  0  0  0  0  0  0  0  0  0
   19.4915   -7.7938  -14.5492 O   0  0  0  0  0  0  0  0  0  0  0  0
   19.7758   -5.5481  -14.6475 O   0  0  0  0  0  0  0  0  0  0  0  0
  2  1  1  0
  3  2  1  0
  4  5  1  0
  4  3  1  0
  5  1  1  0
  6  8  1  0
  5  6  1  1
  7  6  2  0
  9 12  1  0
  9  8  1  0
  9 10  1  6
 11 10  1  0
 12 18  1  0
 13 12  2  0
 15 16  1  0
 15 14  1  6
 17 19  1  0
 17 15  1  0
 17 18  1  6
 19 21  1  0
 20 19  2  0
M  END
$$$$
