PCT.pdb
     RDKit          3D

 21 21  0  0  1  0  0  0  0  0999 V2000
   15.7441  -11.5478  -12.7646 N   0  0  0  0  0  0  0  0  0  0  0  0
   15.2949  -12.8865  -13.0673 C   0  0  0  0  0  0  0  0  0  0  0  0
   15.7858  -13.7454  -11.9325 C   0  0  0  0  0  0  0  0  0  0  0  0
   16.4153  -12.8019  -10.9546 C   0  0  0  0  0  0  0  0  0  0  0  0
   15.8293  -11.4698  -11.3262 C   0  0  1  0  0  0  0  0  0  0  0  0
   16.6543  -10.3262  -10.8830 C   0  0  0  0  0  0  0  0  0  0  0  0
   16.7891  -10.1217   -9.6505 O   0  0  0  0  0  0  0  0  0  0  0  0
   17.2802   -9.4776  -11.8063 N   0  0  0  0  0  0  0  0  0  0  0  0
   18.1072   -8.3288  -11.4133 C   0  0  1  0  0  0  0  0  0  0  0  0
   19.2324   -8.1534  -12.4095 C   0  0  0  0  0  0  0  0  0  0  0  0
   20.1936   -6.6604  -12.1101 S   0  0  0  0  0  0  0  0  0  0  0  0
   17.2253   -7.1662  -11.2807 C   0  0  0  0  0  0  0  0  0  0  0  0
   16.4376   -6.8584  -12.2417 O   0  0  0  0  0  0  0  0  0  0  0  0
   14.9304   -6.0700   -8.2441 C   0  0  0  0  0  0  0  0  0  0  0  0
   15.8103   -4.9343   -8.7012 C   0  0  1  0  0  0  0  0  0  0  0  0
   16.9284   -4.8819   -7.8719 O   0  0  0  0  0  0  0  0  0  0  0  0
   16.2400   -5.1866  -10.1451 C   0  0  2  0  0  0  0  0  0  0  0  0
   17.1616   -6.3268  -10.1504 N   0  0  0  0  0  0  0  0  0  0  0  0
   16.8835   -3.9972  -10.7302 C   0  0  0  0  0  0  0  0  0  0  0  0
   16.2595   -2.8971  -10.8583 O   0  0  0  0  0  0  0  0  0  0  0  0
   18.1945   -4.0356  -11.1625 O   0  0  0  0  0  0  0  0  0  0  0  0
  2  1  1  0
  3  2  1  0
  4  5  1  0
  4  3  1  0
  5  1  1  0
  6  8  1  0
  5  6  1  6
  7  6  2  0
  9 12  1  0
  9  8  1  0
  9 10  1  6
 11 10  1  0
 12 18  1  0
 13 12  2  0
 15 16  1  0
 15 14  1  1
 17 19  1  0
 17 15  1  0
 17 18  1  1
 19 21  1  0
 20 19  2  0
M  END
$$$$
