PCT.pdb
     RDKit          3D

 21 21  0  0  1  0  0  0  0  0999 V2000
   19.3848  -12.9844  -17.3892 N   0  0  0  0  0  0  0  0  0  0  0  0
   19.0884  -13.8063  -18.5389 C   0  0  0  0  0  0  0  0  0  0  0  0
   18.3416  -12.9136  -19.4939 C   0  0  0  0  0  0  0  0  0  0  0  0
   18.3476  -11.5544  -18.8652 C   0  0  0  0  0  0  0  0  0  0  0  0
   19.4774  -11.6299  -17.8784 C   0  0  1  0  0  0  0  0  0  0  0  0
   19.3650  -10.6395  -16.7869 C   0  0  0  0  0  0  0  0  0  0  0  0
   18.4395  -10.7703  -15.9470 O   0  0  0  0  0  0  0  0  0  0  0  0
   20.2646   -9.5704  -16.6772 N   0  0  0  0  0  0  0  0  0  0  0  0
   20.1271   -8.5005  -15.6799 C   0  0  1  0  0  0  0  0  0  0  0  0
   21.3085   -8.5370  -14.7354 C   0  0  0  0  0  0  0  0  0  0  0  0
   20.8652   -8.0621  -13.0560 S   0  0  0  0  0  0  0  0  0  0  0  0
   19.9627   -7.2349  -16.3999 C   0  0  0  0  0  0  0  0  0  0  0  0
   20.6986   -6.9874  -17.4177 O   0  0  0  0  0  0  0  0  0  0  0  0
   17.2094   -5.9925  -18.3642 C   0  0  0  0  0  0  0  0  0  0  0  0
   17.4969   -4.8933  -17.3732 C   0  0  1  0  0  0  0  0  0  0  0  0
   16.6193   -5.0272  -16.2997 O   0  0  0  0  0  0  0  0  0  0  0  0
   18.9401   -5.0228  -16.8898 C   0  0  2  0  0  0  0  0  0  0  0  0
   19.0338   -6.2300  -16.0631 N   0  0  0  0  0  0  0  0  0  0  0  0
   19.3590   -3.8361  -16.1236 C   0  0  0  0  0  0  0  0  0  0  0  0
   19.6470   -3.9084  -14.8875 O   0  0  0  0  0  0  0  0  0  0  0  0
   19.4543   -2.5962  -16.7245 O   0  0  0  0  0  0  0  0  0  0  0  0
  2  1  1  0
  3  2  1  0
  4  5  1  0
  4  3  1  0
  5  1  1  0
  6  8  1  0
  5  6  1  1
  7  6  2  0
  9 12  1  0
  9  8  1  0
  9 10  1  6
 11 10  1  0
 12 18  1  0
 13 12  2  0
 15 16  1  0
 15 14  1  6
 17 19  1  0
 17 15  1  0
 17 18  1  1
 19 21  1  0
 20 19  2  0
M  END
$$$$
