PCT.pdb
     RDKit          3D

 21 21  0  0  1  0  0  0  0  0999 V2000
   27.8624  -19.6939  -14.4449 N   0  0  0  0  0  0  0  0  0  0  0  0
   29.1843  -19.5985  -15.0182 C   0  0  0  0  0  0  0  0  0  0  0  0
   29.4620  -20.9485  -15.6241 C   0  0  0  0  0  0  0  0  0  0  0  0
   28.1985  -21.7347  -15.4555 C   0  0  0  0  0  0  0  0  0  0  0  0
   27.1558  -20.6776  -15.2293 C   0  0  1  0  0  0  0  0  0  0  0  0
   25.9556  -21.1833  -14.5302 C   0  0  0  0  0  0  0  0  0  0  0  0
   25.1522  -21.9136  -15.1628 O   0  0  0  0  0  0  0  0  0  0  0  0
   25.7044  -20.8636  -13.1889 N   0  0  0  0  0  0  0  0  0  0  0  0
   24.5749  -21.4133  -12.4272 C   0  0  1  0  0  0  0  0  0  0  0  0
   24.9514  -21.5079  -10.9648 C   0  0  0  0  0  0  0  0  0  0  0  0
   25.7030  -19.9931  -10.3457 S   0  0  0  0  0  0  0  0  0  0  0  0
   23.4016  -20.5793  -12.7006 C   0  0  0  0  0  0  0  0  0  0  0  0
   23.4426  -19.3267  -12.4393 O   0  0  0  0  0  0  0  0  0  0  0  0
   21.9643  -19.0796  -15.4222 C   0  0  0  0  0  0  0  0  0  0  0  0
   20.8162  -19.8842  -14.8678 C   0  0  1  0  0  0  0  0  0  0  0  0
   20.7590  -21.0978  -15.5494 O   0  0  0  0  0  0  0  0  0  0  0  0
   21.0527  -20.1299  -13.3789 C   0  0  2  0  0  0  0  0  0  0  0  0
   22.1892  -21.0465  -13.2464 N   0  0  0  0  0  0  0  0  0  0  0  0
   19.8553  -20.6916  -12.7297 C   0  0  0  0  0  0  0  0  0  0  0  0
   19.8660  -21.8451  -12.1956 O   0  0  0  0  0  0  0  0  0  0  0  0
   18.6722  -19.9809  -12.6783 O   0  0  0  0  0  0  0  0  0  0  0  0
  2  1  1  0
  3  2  1  0
  4  5  1  0
  4  3  1  0
  5  1  1  0
  6  8  1  0
  5  6  1  1
  7  6  2  0
  9 12  1  0
  9  8  1  0
  9 10  1  1
 11 10  1  0
 12 18  1  0
 13 12  2  0
 15 16  1  0
 15 14  1  6
 17 19  1  0
 17 15  1  0
 17 18  1  6
 19 21  1  0
 20 19  2  0
M  END
$$$$
