PCT.pdb
     RDKit          3D

 21 21  0  0  1  0  0  0  0  0999 V2000
   24.3779  -22.3474  -15.8454 N   0  0  0  0  0  0  0  0  0  0  0  0
   25.7490  -22.4524  -16.2863 C   0  0  0  0  0  0  0  0  0  0  0  0
   26.5720  -22.5593  -15.0302 C   0  0  0  0  0  0  0  0  0  0  0  0
   25.5856  -22.6225  -13.9049 C   0  0  0  0  0  0  0  0  0  0  0  0
   24.3101  -23.0383  -14.5803 C   0  0  1  0  0  0  0  0  0  0  0  0
   23.0995  -22.6723  -13.8152 C   0  0  0  0  0  0  0  0  0  0  0  0
   22.9880  -23.0799  -12.6318 O   0  0  0  0  0  0  0  0  0  0  0  0
   22.0874  -21.8870  -14.3839 N   0  0  0  0  0  0  0  0  0  0  0  0
   20.8808  -21.4751  -13.6541 C   0  0  1  0  0  0  0  0  0  0  0  0
   20.6522  -19.9929  -13.8539 C   0  0  0  0  0  0  0  0  0  0  0  0
   21.2276  -19.4155  -15.4595 S   0  0  0  0  0  0  0  0  0  0  0  0
   19.7749  -22.3268  -14.0996 C   0  0  0  0  0  0  0  0  0  0  0  0
   19.7172  -22.6978  -15.3235 O   0  0  0  0  0  0  0  0  0  0  0  0
   18.9361  -25.7291  -13.5951 C   0  0  0  0  0  0  0  0  0  0  0  0
   17.7035  -24.9821  -13.1528 C   0  0  1  0  0  0  0  0  0  0  0  0
   17.7635  -24.8116  -11.7715 O   0  0  0  0  0  0  0  0  0  0  0  0
   17.6684  -23.6224  -13.8478 C   0  0  2  0  0  0  0  0  0  0  0  0
   18.7325  -22.7931  -13.2738 N   0  0  0  0  0  0  0  0  0  0  0  0
   16.3577  -22.9693  -13.6855 C   0  0  0  0  0  0  0  0  0  0  0  0
   15.2920  -23.4912  -14.1416 O   0  0  0  0  0  0  0  0  0  0  0  0
   16.2397  -21.7603  -13.0285 O   0  0  0  0  0  0  0  0  0  0  0  0
  2  1  1  0
  3  2  1  0
  4  5  1  0
  4  3  1  0
  5  1  1  0
  6  8  1  0
  5  6  1  1
  7  6  2  0
  9 12  1  0
  9  8  1  0
  9 10  1  6
 11 10  1  0
 12 18  1  0
 13 12  2  0
 15 16  1  0
 15 14  1  6
 17 19  1  0
 17 15  1  0
 17 18  1  1
 19 21  1  0
 20 19  2  0
M  END
$$$$
