PCT.pdb
     RDKit          3D

 21 21  0  0  1  0  0  0  0  0999 V2000
   26.7624  -19.2692  -19.0104 N   0  0  0  0  0  0  0  0  0  0  0  0
   26.9682  -19.1333  -20.4333 C   0  0  0  0  0  0  0  0  0  0  0  0
   28.3877  -18.6586  -20.5943 C   0  0  0  0  0  0  0  0  0  0  0  0
   28.9713  -18.6539  -19.2150 C   0  0  0  0  0  0  0  0  0  0  0  0
   28.0570  -19.5634  -18.4449 C   0  0  1  0  0  0  0  0  0  0  0  0
   28.0901  -19.3242  -16.9866 C   0  0  0  0  0  0  0  0  0  0  0  0
   29.1664  -19.5186  -16.3680 O   0  0  0  0  0  0  0  0  0  0  0  0
   26.9524  -18.8892  -16.2933 N   0  0  0  0  0  0  0  0  0  0  0  0
   26.9480  -18.5998  -14.8530 C   0  0  1  0  0  0  0  0  0  0  0  0
   26.3734  -17.2200  -14.6179 C   0  0  0  0  0  0  0  0  0  0  0  0
   24.6388  -17.1049  -15.0873 S   0  0  0  0  0  0  0  0  0  0  0  0
   26.2252  -19.6825  -14.1805 C   0  0  0  0  0  0  0  0  0  0  0  0
   25.4578  -20.4478  -14.8618 O   0  0  0  0  0  0  0  0  0  0  0  0
   26.0472  -20.1477  -10.0043 C   0  0  0  0  0  0  0  0  0  0  0  0
   26.0286  -21.3890  -10.8597 C   0  0  1  0  0  0  0  0  0  0  0  0
   25.2154  -22.3371  -10.2428 O   0  0  0  0  0  0  0  0  0  0  0  0
   25.4707  -21.0368  -12.2373 C   0  0  2  0  0  0  0  0  0  0  0  0
   26.3019  -19.9697  -12.8029 N   0  0  0  0  0  0  0  0  0  0  0  0
   24.0633  -20.6086  -12.1540 C   0  0  0  0  0  0  0  0  0  0  0  0
   23.7277  -19.3908  -12.2973 O   0  0  0  0  0  0  0  0  0  0  0  0
   23.0534  -21.5200  -11.9161 O   0  0  0  0  0  0  0  0  0  0  0  0
  2  1  1  0
  3  2  1  0
  4  5  1  0
  4  3  1  0
  5  1  1  0
  6  8  1  0
  5  6  1  1
  7  6  2  0
  9 12  1  0
  9  8  1  0
  9 10  1  6
 11 10  1  0
 12 18  1  0
 13 12  2  0
 15 16  1  0
 15 14  1  1
 17 19  1  0
 17 15  1  0
 17 18  1  1
 19 21  1  0
 20 19  2  0
M  END
$$$$
