PCT.pdb
     RDKit          3D

 21 21  0  0  1  0  0  0  0  0999 V2000
   18.2101  -11.8168  -15.1954 N   0  0  0  0  0  0  0  0  0  0  0  0
   17.8331  -13.0945  -15.7528 C   0  0  0  0  0  0  0  0  0  0  0  0
   16.7487  -12.7962  -16.7537 C   0  0  0  0  0  0  0  0  0  0  0  0
   16.6371  -11.3033  -16.7958 C   0  0  0  0  0  0  0  0  0  0  0  0
   17.9449  -10.8381  -16.2220 C   0  0  1  0  0  0  0  0  0  0  0  0
   17.8862   -9.4660  -15.6753 C   0  0  0  0  0  0  0  0  0  0  0  0
   17.6333   -8.5156  -16.4574 O   0  0  0  0  0  0  0  0  0  0  0  0
   18.1058   -9.2137  -14.3142 N   0  0  0  0  0  0  0  0  0  0  0  0
   18.0052   -7.8756  -13.7162 C   0  0  1  0  0  0  0  0  0  0  0  0
   17.0969   -7.9307  -12.5074 C   0  0  0  0  0  0  0  0  0  0  0  0
   17.6824   -9.0849  -11.2554 S   0  0  0  0  0  0  0  0  0  0  0  0
   19.3647   -7.4071  -13.4347 C   0  0  0  0  0  0  0  0  0  0  0  0
   20.0289   -7.9355  -12.4763 O   0  0  0  0  0  0  0  0  0  0  0  0
   22.4735   -7.8881  -14.8609 C   0  0  0  0  0  0  0  0  0  0  0  0
   22.3546   -6.3853  -14.8378 C   0  0  1  0  0  0  0  0  0  0  0  0
   21.8808   -5.9617  -16.0774 O   0  0  0  0  0  0  0  0  0  0  0  0
   21.3772   -5.9794  -13.7364 C   0  0  2  0  0  0  0  0  0  0  0  0
   20.0326   -6.3928  -14.1497 N   0  0  0  0  0  0  0  0  0  0  0  0
   21.4197   -4.5278  -13.4880 C   0  0  0  0  0  0  0  0  0  0  0  0
   20.4367   -3.7738  -13.7731 O   0  0  0  0  0  0  0  0  0  0  0  0
   22.5352   -3.9314  -12.9334 O   0  0  0  0  0  0  0  0  0  0  0  0
  2  1  1  0
  3  2  1  0
  4  5  1  0
  4  3  1  0
  5  1  1  0
  6  8  1  0
  5  6  1  1
  7  6  2  0
  9 12  1  0
  9  8  1  0
  9 10  1  1
 11 10  1  0
 12 18  1  0
 13 12  2  0
 15 16  1  0
 15 14  1  6
 17 19  1  0
 17 15  1  0
 17 18  1  6
 19 21  1  0
 20 19  2  0
M  END
$$$$
