CEG.pdb
     RDKit          3D

 20 19  0  0  1  0  0  0  0  0999 V2000
   19.6480  -10.9606  -15.3566 N   0  0  0  0  0  0  0  0  0  0  0  0
   18.6119   -9.9276  -15.3838 C   0  0  1  0  0  0  0  0  0  0  0  0
   17.2890  -10.6284  -15.1137 C   0  0  0  0  0  0  0  0  0  0  0  0
   16.6996  -11.4282  -16.6176 S   0  0  0  0  0  0  0  0  0  0  0  0
   18.9049   -8.9246  -14.3545 C   0  0  0  0  0  0  0  0  0  0  0  0
   19.3716   -9.3403  -13.2519 O   0  0  0  0  0  0  0  0  0  0  0  0
   18.6928   -7.5467  -14.5385 N   0  0  0  0  0  0  0  0  0  0  0  0
   19.0555   -6.5369  -13.5340 C   0  0  1  0  0  0  0  0  0  0  0  0
   19.8522   -5.4340  -14.1578 C   0  0  0  0  0  0  0  0  0  0  0  0
   21.3155   -5.6805  -14.2668 C   0  0  0  0  0  0  0  0  0  0  0  0
   22.0319   -5.6919  -12.9658 C   0  0  0  0  0  0  0  0  0  0  0  0
   22.1627   -4.6925  -12.2211 O   0  0  0  0  0  0  0  0  0  0  0  0
   17.8268   -6.0745  -12.8336 C   0  0  0  0  0  0  0  0  0  0  0  0
   16.7808   -5.7556  -13.4448 O   0  0  0  0  0  0  0  0  0  0  0  0
   22.6120   -6.8711  -12.5051 O   0  0  0  0  0  0  0  0  0  0  0  0
   17.7728   -5.9680  -11.4087 N   0  0  0  0  0  0  0  0  0  0  0  0
   16.5734   -5.5406  -10.7341 C   0  0  0  0  0  0  0  0  0  0  0  0
   16.7523   -5.4409   -9.2705 C   0  0  0  0  0  0  0  0  0  0  0  0
   17.8299   -5.8032   -8.7487 O   0  0  0  0  0  0  0  0  0  0  0  0
   15.7468   -4.9523   -8.4619 O   0  0  0  0  0  0  0  0  0  0  0  0
  2  1  1  1
  3  2  1  0
  4  3  1  0
  5  2  1  0
  6  5  2  0
  7  5  1  0
  8  7  1  0
  8  9  1  6
 10  9  1  0
 11 10  1  0
 11 12  2  0
 13 14  2  0
 13  8  1  0
 15 11  1  0
 16 13  1  0
 17 18  1  0
 17 16  1  0
 18 20  1  0
 19 18  2  0
M  END
$$$$
