CEG.pdb
     RDKit          3D

 20 19  0  0  1  0  0  0  0  0999 V2000
   28.1190  -20.9950   -9.6194 N   0  0  0  0  0  0  0  0  0  0  0  0
   26.6933  -20.8067   -9.3489 C   0  0  1  0  0  0  0  0  0  0  0  0
   26.5903  -19.7357   -8.2736 C   0  0  0  0  0  0  0  0  0  0  0  0
   27.4480  -20.2770   -6.7836 S   0  0  0  0  0  0  0  0  0  0  0  0
   26.0198  -20.3906  -10.5835 C   0  0  0  0  0  0  0  0  0  0  0  0
   26.4728  -19.3669  -11.1778 O   0  0  0  0  0  0  0  0  0  0  0  0
   24.9128  -21.0688  -11.1239 N   0  0  0  0  0  0  0  0  0  0  0  0
   24.2195  -20.6310  -12.3436 C   0  0  1  0  0  0  0  0  0  0  0  0
   24.6345  -21.4649  -13.5151 C   0  0  0  0  0  0  0  0  0  0  0  0
   25.9753  -21.1556  -14.0814 C   0  0  0  0  0  0  0  0  0  0  0  0
   26.3385  -21.9675  -15.2709 C   0  0  0  0  0  0  0  0  0  0  0  0
   25.6031  -22.8453  -15.7800 O   0  0  0  0  0  0  0  0  0  0  0  0
   22.7518  -20.6187  -12.0993 C   0  0  0  0  0  0  0  0  0  0  0  0
   22.2132  -21.2897  -11.1887 O   0  0  0  0  0  0  0  0  0  0  0  0
   27.5691  -21.7726  -15.8928 O   0  0  0  0  0  0  0  0  0  0  0  0
   21.8664  -19.8313  -12.8997 N   0  0  0  0  0  0  0  0  0  0  0  0
   20.4434  -19.8397  -12.6727 C   0  0  0  0  0  0  0  0  0  0  0  0
   19.7087  -19.0165  -13.6560 C   0  0  0  0  0  0  0  0  0  0  0  0
   18.4600  -18.9569  -13.6090 O   0  0  0  0  0  0  0  0  0  0  0  0
   20.3775  -18.3069  -14.6319 O   0  0  0  0  0  0  0  0  0  0  0  0
  2  1  1  6
  3  2  1  0
  4  3  1  0
  5  2  1  0
  6  5  2  0
  7  5  1  0
  8  7  1  0
  8  9  1  6
 10  9  1  0
 11 10  1  0
 11 12  2  0
 13 14  2  0
 13  8  1  0
 15 11  1  0
 16 13  1  0
 17 18  1  0
 17 16  1  0
 18 20  1  0
 19 18  2  0
M  END
$$$$
