CEG.pdb
     RDKit          3D

 20 19  0  0  1  0  0  0  0  0999 V2000
   25.4400  -11.9218  -17.8830 N   0  0  0  0  0  0  0  0  0  0  0  0
   25.3827  -11.1174  -16.6620 C   0  0  1  0  0  0  0  0  0  0  0  0
   26.7157  -10.3926  -16.5534 C   0  0  0  0  0  0  0  0  0  0  0  0
   26.7331   -9.3569  -15.0783 S   0  0  0  0  0  0  0  0  0  0  0  0
   24.2666  -10.1710  -16.7609 C   0  0  0  0  0  0  0  0  0  0  0  0
   24.1013   -9.5786  -17.8691 O   0  0  0  0  0  0  0  0  0  0  0  0
   23.3893   -9.8998  -15.6958 N   0  0  0  0  0  0  0  0  0  0  0  0
   22.2653   -8.9586  -15.8006 C   0  0  1  0  0  0  0  0  0  0  0  0
   20.9596   -9.6893  -15.7630 C   0  0  0  0  0  0  0  0  0  0  0  0
   19.7451   -8.8433  -15.9160 C   0  0  0  0  0  0  0  0  0  0  0  0
   18.4714   -9.6057  -15.9649 C   0  0  0  0  0  0  0  0  0  0  0  0
   18.3499  -10.7495  -16.4624 O   0  0  0  0  0  0  0  0  0  0  0  0
   22.4017   -7.9090  -14.7548 C   0  0  0  0  0  0  0  0  0  0  0  0
   22.7700   -8.1652  -13.5851 O   0  0  0  0  0  0  0  0  0  0  0  0
   17.3105   -9.0494  -15.4337 O   0  0  0  0  0  0  0  0  0  0  0  0
   22.1168   -6.5354  -15.0314 N   0  0  0  0  0  0  0  0  0  0  0  0
   22.2004   -5.5306  -14.0019 C   0  0  0  0  0  0  0  0  0  0  0  0
   21.8409   -4.1844  -14.4945 C   0  0  0  0  0  0  0  0  0  0  0  0
   21.5243   -4.0242  -15.6941 O   0  0  0  0  0  0  0  0  0  0  0  0
   21.8472   -3.0925  -13.6512 O   0  0  0  0  0  0  0  0  0  0  0  0
  2  1  1  6
  3  2  1  0
  4  3  1  0
  5  2  1  0
  6  5  2  0
  7  5  1  0
  8  7  1  0
  8  9  1  1
 10  9  1  0
 11 10  1  0
 11 12  2  0
 13 14  2  0
 13  8  1  0
 15 11  1  0
 16 13  1  0
 17 18  1  0
 17 16  1  0
 18 20  1  0
 19 18  2  0
M  END
$$$$
