CEG.pdb
     RDKit          3D

 20 19  0  0  1  0  0  0  0  0999 V2000
   19.1451  -12.6069  -16.2292 N   0  0  0  0  0  0  0  0  0  0  0  0
   19.1476  -11.2349  -16.7379 C   0  0  1  0  0  0  0  0  0  0  0  0
   17.8363  -10.6028  -16.2961 C   0  0  0  0  0  0  0  0  0  0  0  0
   16.4695  -11.2986  -17.2429 S   0  0  0  0  0  0  0  0  0  0  0  0
   20.3001  -10.5176  -16.1827 C   0  0  0  0  0  0  0  0  0  0  0  0
   20.5648  -10.7003  -14.9567 O   0  0  0  0  0  0  0  0  0  0  0  0
   21.1077   -9.6520  -16.9416 N   0  0  0  0  0  0  0  0  0  0  0  0
   22.2977   -8.9814  -16.3988 C   0  0  1  0  0  0  0  0  0  0  0  0
   23.3640   -8.8709  -17.4433 C   0  0  0  0  0  0  0  0  0  0  0  0
   24.5872   -8.1276  -17.0369 C   0  0  0  0  0  0  0  0  0  0  0  0
   25.5503   -7.8852  -18.1413 C   0  0  0  0  0  0  0  0  0  0  0  0
   25.4764   -8.4160  -19.2741 O   0  0  0  0  0  0  0  0  0  0  0  0
   21.8997   -7.6787  -15.8001 C   0  0  0  0  0  0  0  0  0  0  0  0
   21.2385   -6.8204  -16.4291 O   0  0  0  0  0  0  0  0  0  0  0  0
   26.6218   -7.0170  -17.9476 O   0  0  0  0  0  0  0  0  0  0  0  0
   22.2544   -7.3318  -14.4590 N   0  0  0  0  0  0  0  0  0  0  0  0
   21.9238   -6.0430  -13.9059 C   0  0  0  0  0  0  0  0  0  0  0  0
   22.7732   -4.9607  -14.4458 C   0  0  0  0  0  0  0  0  0  0  0  0
   23.7009   -5.2342  -15.2392 O   0  0  0  0  0  0  0  0  0  0  0  0
   22.5617   -3.6447  -14.0897 O   0  0  0  0  0  0  0  0  0  0  0  0
  2  1  1  1
  3  2  1  0
  4  3  1  0
  5  2  1  0
  6  5  2  0
  7  5  1  0
  8  7  1  0
  8  9  1  6
 10  9  1  0
 11 10  1  0
 11 12  2  0
 13 14  2  0
 13  8  1  0
 15 11  1  0
 16 13  1  0
 17 18  1  0
 17 16  1  0
 18 20  1  0
 19 18  2  0
M  END
$$$$
