CEG.pdb
     RDKit          3D

 20 19  0  0  1  0  0  0  0  0999 V2000
   16.2414  -13.1995  -11.7524 N   0  0  0  0  0  0  0  0  0  0  0  0
   15.5292  -11.9691  -12.0988 C   0  0  1  0  0  0  0  0  0  0  0  0
   14.0639  -12.2034  -11.7639 C   0  0  0  0  0  0  0  0  0  0  0  0
   13.3302  -13.3246  -12.9694 S   0  0  0  0  0  0  0  0  0  0  0  0
   16.0837  -10.8564  -11.3206 C   0  0  0  0  0  0  0  0  0  0  0  0
   16.4017  -11.0893  -10.1160 O   0  0  0  0  0  0  0  0  0  0  0  0
   16.2730   -9.5664  -11.8473 N   0  0  0  0  0  0  0  0  0  0  0  0
   16.8551   -8.4604  -11.0739 C   0  0  1  0  0  0  0  0  0  0  0  0
   17.9288   -7.7745  -11.8594 C   0  0  0  0  0  0  0  0  0  0  0  0
   19.2587   -8.4417  -11.8487 C   0  0  0  0  0  0  0  0  0  0  0  0
   20.2954   -7.7512  -12.6577 C   0  0  0  0  0  0  0  0  0  0  0  0
   20.0847   -6.7342  -13.3589 O   0  0  0  0  0  0  0  0  0  0  0  0
   15.7682   -7.5538  -10.6150 C   0  0  0  0  0  0  0  0  0  0  0  0
   14.7086   -7.3882  -11.2626 O   0  0  0  0  0  0  0  0  0  0  0  0
   21.6019   -8.2331  -12.6660 O   0  0  0  0  0  0  0  0  0  0  0  0
   15.8752   -6.8141   -9.3960 N   0  0  0  0  0  0  0  0  0  0  0  0
   14.8308   -5.9179   -8.9690 C   0  0  0  0  0  0  0  0  0  0  0  0
   15.0666   -5.3792   -7.6131 C   0  0  0  0  0  0  0  0  0  0  0  0
   14.2781   -4.5354   -7.1324 O   0  0  0  0  0  0  0  0  0  0  0  0
   16.1473   -5.7917   -6.8611 O   0  0  0  0  0  0  0  0  0  0  0  0
  2  1  1  1
  3  2  1  0
  4  3  1  0
  5  2  1  0
  6  5  2  0
  7  5  1  0
  8  7  1  0
  8  9  1  6
 10  9  1  0
 11 10  1  0
 11 12  2  0
 13 14  2  0
 13  8  1  0
 15 11  1  0
 16 13  1  0
 17 18  1  0
 17 16  1  0
 18 20  1  0
 19 18  2  0
M  END
$$$$
