CEG.pdb
     RDKit          3D

 20 19  0  0  1  0  0  0  0  0999 V2000
   27.3289  -19.5865  -15.7131 N   0  0  0  0  0  0  0  0  0  0  0  0
   26.1352  -20.3711  -16.0302 C   0  0  1  0  0  0  0  0  0  0  0  0
   26.4450  -21.8110  -15.6498 C   0  0  0  0  0  0  0  0  0  0  0  0
   26.8925  -21.9029  -13.9062 S   0  0  0  0  0  0  0  0  0  0  0  0
   24.9984  -19.8491  -15.2643 C   0  0  0  0  0  0  0  0  0  0  0  0
   25.2529  -19.0420  -14.3208 O   0  0  0  0  0  0  0  0  0  0  0  0
   23.6632  -20.2014  -15.5300 N   0  0  0  0  0  0  0  0  0  0  0  0
   22.5307  -19.7226  -14.7248 C   0  0  1  0  0  0  0  0  0  0  0  0
   21.5346  -19.0104  -15.5856 C   0  0  0  0  0  0  0  0  0  0  0  0
   21.8333  -17.5798  -15.8651 C   0  0  0  0  0  0  0  0  0  0  0  0
   20.8217  -16.8986  -16.7129 C   0  0  0  0  0  0  0  0  0  0  0  0
   21.0386  -15.8562  -17.3739 O   0  0  0  0  0  0  0  0  0  0  0  0
   21.9598  -20.8586  -13.9519 C   0  0  0  0  0  0  0  0  0  0  0  0
   21.9680  -22.0368  -14.3777 O   0  0  0  0  0  0  0  0  0  0  0  0
   19.5337  -17.4194  -16.8078 O   0  0  0  0  0  0  0  0  0  0  0  0
   21.3642  -20.6650  -12.6664 N   0  0  0  0  0  0  0  0  0  0  0  0
   20.9336  -21.7818  -11.8641 C   0  0  0  0  0  0  0  0  0  0  0  0
   19.5859  -22.2602  -12.2369 C   0  0  0  0  0  0  0  0  0  0  0  0
   19.0169  -23.1267  -11.5367 O   0  0  0  0  0  0  0  0  0  0  0  0
   18.9377  -21.7662  -13.3501 O   0  0  0  0  0  0  0  0  0  0  0  0
  2  1  1  1
  3  2  1  0
  4  3  1  0
  5  2  1  0
  6  5  2  0
  7  5  1  0
  8  7  1  0
  8  9  1  6
 10  9  1  0
 11 10  1  0
 11 12  2  0
 13 14  2  0
 13  8  1  0
 15 11  1  0
 16 13  1  0
 17 18  1  0
 17 16  1  0
 18 20  1  0
 19 18  2  0
M  END
$$$$
