CEG.pdb
     RDKit          3D

 20 19  0  0  1  0  0  0  0  0999 V2000
   27.5273  -20.8621  -13.4092 N   0  0  0  0  0  0  0  0  0  0  0  0
   26.3155  -21.6243  -13.1060 C   0  0  1  0  0  0  0  0  0  0  0  0
   26.5356  -22.2724  -11.7475 C   0  0  0  0  0  0  0  0  0  0  0  0
   26.7726  -21.0013  -10.4918 S   0  0  0  0  0  0  0  0  0  0  0  0
   25.1666  -20.7129  -13.0832 C   0  0  0  0  0  0  0  0  0  0  0  0
   25.3468  -19.5604  -12.5875 O   0  0  0  0  0  0  0  0  0  0  0  0
   23.8976  -21.0599  -13.5797 N   0  0  0  0  0  0  0  0  0  0  0  0
   22.7254  -20.1796  -13.4741 C   0  0  1  0  0  0  0  0  0  0  0  0
   22.3567  -19.6280  -14.8158 C   0  0  0  0  0  0  0  0  0  0  0  0
   23.2312  -18.5370  -15.3246 C   0  0  0  0  0  0  0  0  0  0  0  0
   22.7581  -17.9127  -16.5865 C   0  0  0  0  0  0  0  0  0  0  0  0
   23.0171  -18.3491  -17.7324 O   0  0  0  0  0  0  0  0  0  0  0  0
   21.6203  -20.9089  -12.7953 C   0  0  0  0  0  0  0  0  0  0  0  0
   21.3839  -22.1215  -13.0029 O   0  0  0  0  0  0  0  0  0  0  0  0
   21.9717  -16.7645  -16.5387 O   0  0  0  0  0  0  0  0  0  0  0  0
   20.7585  -20.2578  -11.8582 N   0  0  0  0  0  0  0  0  0  0  0  0
   19.6914  -20.9695  -11.2016 C   0  0  0  0  0  0  0  0  0  0  0  0
   18.5200  -21.1695  -12.0803 C   0  0  0  0  0  0  0  0  0  0  0  0
   18.5771  -20.8263  -13.2819 O   0  0  0  0  0  0  0  0  0  0  0  0
   17.3560  -21.7316  -11.5982 O   0  0  0  0  0  0  0  0  0  0  0  0
  2  1  1  1
  3  2  1  0
  4  3  1  0
  5  2  1  0
  6  5  2  0
  7  5  1  0
  8  7  1  0
  8  9  1  6
 10  9  1  0
 11 10  1  0
 11 12  2  0
 13 14  2  0
 13  8  1  0
 15 11  1  0
 16 13  1  0
 17 18  1  0
 17 16  1  0
 18 20  1  0
 19 18  2  0
M  END
$$$$
