CEG.pdb
     RDKit          3D

 20 19  0  0  1  0  0  0  0  0999 V2000
   28.2288  -10.5075  -17.7913 N   0  0  0  0  0  0  0  0  0  0  0  0
   26.9400  -10.8129  -17.1691 C   0  0  1  0  0  0  0  0  0  0  0  0
   27.2273  -11.1569  -15.7154 C   0  0  0  0  0  0  0  0  0  0  0  0
   27.9796  -12.7913  -15.6082 S   0  0  0  0  0  0  0  0  0  0  0  0
   26.0634   -9.6420  -17.2778 C   0  0  0  0  0  0  0  0  0  0  0  0
   26.6098   -8.4992  -17.2361 O   0  0  0  0  0  0  0  0  0  0  0  0
   24.6679   -9.7349  -17.4236 N   0  0  0  0  0  0  0  0  0  0  0  0
   23.8081   -8.5715  -17.6831 C   0  0  1  0  0  0  0  0  0  0  0  0
   22.7375   -8.9159  -18.6708 C   0  0  0  0  0  0  0  0  0  0  0  0
   21.8466   -7.7933  -19.0706 C   0  0  0  0  0  0  0  0  0  0  0  0
   20.8181   -8.1582  -20.0780 C   0  0  0  0  0  0  0  0  0  0  0  0
   20.0339   -7.3422  -20.6163 O   0  0  0  0  0  0  0  0  0  0  0  0
   23.2924   -8.0413  -16.3920 C   0  0  0  0  0  0  0  0  0  0  0  0
   23.0178   -8.7818  -15.4195 O   0  0  0  0  0  0  0  0  0  0  0  0
   20.6820   -9.4847  -20.4795 O   0  0  0  0  0  0  0  0  0  0  0  0
   23.0801   -6.6420  -16.1889 N   0  0  0  0  0  0  0  0  0  0  0  0
   22.6068   -6.1312  -14.9274 C   0  0  0  0  0  0  0  0  0  0  0  0
   22.4639   -4.6602  -14.9302 C   0  0  0  0  0  0  0  0  0  0  0  0
   22.6816   -4.0154  -15.9798 O   0  0  0  0  0  0  0  0  0  0  0  0
   22.0923   -3.9787  -13.7896 O   0  0  0  0  0  0  0  0  0  0  0  0
  2  1  1  6
  3  2  1  0
  4  3  1  0
  5  2  1  0
  6  5  2  0
  7  5  1  0
  8  7  1  0
  8  9  1  6
 10  9  1  0
 11 10  1  0
 11 12  2  0
 13 14  2  0
 13  8  1  0
 15 11  1  0
 16 13  1  0
 17 18  1  0
 17 16  1  0
 18 20  1  0
 19 18  2  0
M  END
$$$$
