CEG.pdb
     RDKit          3D

 20 19  0  0  1  0  0  0  0  0999 V2000
   17.5914   -9.7367  -13.7433 N   0  0  0  0  0  0  0  0  0  0  0  0
   18.1235   -9.6402  -15.1030 C   0  0  1  0  0  0  0  0  0  0  0  0
   17.1534   -8.7733  -15.8914 C   0  0  0  0  0  0  0  0  0  0  0  0
   16.8161   -7.2511  -14.9871 S   0  0  0  0  0  0  0  0  0  0  0  0
   19.4602   -9.0385  -15.0554 C   0  0  0  0  0  0  0  0  0  0  0  0
   19.8793   -8.6384  -13.9282 O   0  0  0  0  0  0  0  0  0  0  0  0
   20.2796   -8.8906  -16.1886 N   0  0  0  0  0  0  0  0  0  0  0  0
   21.6348   -8.3246  -16.1316 C   0  0  1  0  0  0  0  0  0  0  0  0
   22.4390   -8.7594  -17.3167 C   0  0  0  0  0  0  0  0  0  0  0  0
   22.7926  -10.2041  -17.3583 C   0  0  0  0  0  0  0  0  0  0  0  0
   21.6533  -11.1034  -17.6732 C   0  0  0  0  0  0  0  0  0  0  0  0
   20.9788  -11.0484  -18.7279 O   0  0  0  0  0  0  0  0  0  0  0  0
   21.5463   -6.8482  -15.9692 C   0  0  0  0  0  0  0  0  0  0  0  0
   20.7309   -6.1460  -16.6108 O   0  0  0  0  0  0  0  0  0  0  0  0
   21.2759  -12.0876  -16.7631 O   0  0  0  0  0  0  0  0  0  0  0  0
   22.3966   -6.1427  -15.0616 N   0  0  0  0  0  0  0  0  0  0  0  0
   22.3219   -4.7102  -14.9244 C   0  0  0  0  0  0  0  0  0  0  0  0
   21.3719   -4.2913  -13.8726 C   0  0  0  0  0  0  0  0  0  0  0  0
   20.7048   -5.1521  -13.2572 O   0  0  0  0  0  0  0  0  0  0  0  0
   21.2049   -2.9594  -13.5534 O   0  0  0  0  0  0  0  0  0  0  0  0
  2  1  1  1
  3  2  1  0
  4  3  1  0
  5  2  1  0
  6  5  2  0
  7  5  1  0
  8  7  1  0
  8  9  1  6
 10  9  1  0
 11 10  1  0
 11 12  2  0
 13 14  2  0
 13  8  1  0
 15 11  1  0
 16 13  1  0
 17 18  1  0
 17 16  1  0
 18 20  1  0
 19 18  2  0
M  END
$$$$
