CEG.pdb
     RDKit          3D

 20 19  0  0  1  0  0  0  0  0999 V2000
   26.5333  -14.9456  -17.3793 N   0  0  0  0  0  0  0  0  0  0  0  0
   26.2667  -15.5300  -16.0645 C   0  0  1  0  0  0  0  0  0  0  0  0
   25.5860  -14.4505  -15.2365 C   0  0  0  0  0  0  0  0  0  0  0  0
   26.8226  -13.3377  -14.5426 S   0  0  0  0  0  0  0  0  0  0  0  0
   25.4025  -16.7040  -16.2256 C   0  0  0  0  0  0  0  0  0  0  0  0
   24.5434  -16.6717  -17.1570 O   0  0  0  0  0  0  0  0  0  0  0  0
   25.4873  -17.8420  -15.4040 N   0  0  0  0  0  0  0  0  0  0  0  0
   24.7232  -19.0724  -15.6545 C   0  0  1  0  0  0  0  0  0  0  0  0
   25.6273  -20.2652  -15.6517 C   0  0  0  0  0  0  0  0  0  0  0  0
   26.1352  -20.6898  -16.9842 C   0  0  0  0  0  0  0  0  0  0  0  0
   26.9681  -21.9193  -16.9575 C   0  0  0  0  0  0  0  0  0  0  0  0
   27.4622  -22.4616  -17.9735 O   0  0  0  0  0  0  0  0  0  0  0  0
   23.6002  -19.1620  -14.6825 C   0  0  0  0  0  0  0  0  0  0  0  0
   23.7814  -19.2079  -13.4437 O   0  0  0  0  0  0  0  0  0  0  0  0
   27.2428  -22.5433  -15.7432 O   0  0  0  0  0  0  0  0  0  0  0  0
   22.2377  -19.2011  -15.1146 N   0  0  0  0  0  0  0  0  0  0  0  0
   21.1526  -19.2547  -14.1681 C   0  0  0  0  0  0  0  0  0  0  0  0
   19.8290  -19.2786  -14.8253 C   0  0  0  0  0  0  0  0  0  0  0  0
   18.7893  -19.3125  -14.1306 O   0  0  0  0  0  0  0  0  0  0  0  0
   19.7164  -19.2640  -16.2003 O   0  0  0  0  0  0  0  0  0  0  0  0
  2  1  1  6
  3  2  1  0
  4  3  1  0
  5  2  1  0
  6  5  2  0
  7  5  1  0
  8  7  1  0
  8  9  1  1
 10  9  1  0
 11 10  1  0
 11 12  2  0
 13 14  2  0
 13  8  1  0
 15 11  1  0
 16 13  1  0
 17 18  1  0
 17 16  1  0
 18 20  1  0
 19 18  2  0
M  END
$$$$
