GDM.pdb
     RDKit          3D

 21 20  0  0  1  0  0  0  0  0999 V2000
   26.0448  -22.4368  -11.7611 N   0  0  0  0  0  0  0  0  0  0  0  0
   25.0713  -21.3797  -11.5673 C   0  0  0  0  0  0  0  0  0  0  0  0
   24.4129  -21.0522  -12.8568 C   0  0  0  0  0  0  0  0  0  0  0  0
   24.9278  -21.3435  -13.9480 O   0  0  0  0  0  0  0  0  0  0  0  0
   23.1514  -20.3835  -12.8498 N   0  0  0  0  0  0  0  0  0  0  0  0
   22.4287  -20.0167  -14.0347 C   0  0  1  0  0  0  0  0  0  0  0  0
   20.9646  -19.7784  -13.7918 C   0  0  0  0  0  0  0  0  0  0  0  0
   20.2726  -20.9395  -13.2248 C   0  0  0  0  0  0  0  0  0  0  0  0
   20.3982  -22.0639  -13.8009 O   0  0  0  0  0  0  0  0  0  0  0  0
   23.0500  -18.8239  -14.6932 C   0  0  0  0  0  0  0  0  0  0  0  0
   23.1352  -17.7581  -14.0333 O   0  0  0  0  0  0  0  0  0  0  0  0
   19.4730  -20.9283  -12.0907 O   0  0  0  0  0  0  0  0  0  0  0  0
   29.4534  -16.4752  -18.2182 C   0  0  0  0  0  0  0  0  0  0  0  0
   28.3268  -17.6458  -17.4866 S   0  0  0  0  0  0  0  0  0  0  0  0
   26.6286  -17.1444  -17.3244 C   0  0  0  0  0  0  0  0  0  0  0  0
   25.7168  -18.1145  -16.6578 C   0  0  0  0  0  0  0  0  0  0  0  0
   24.2684  -17.7132  -16.6225 C   0  0  2  0  0  0  0  0  0  0  0  0
   23.5383  -18.8354  -16.0017 N   0  0  0  0  0  0  0  0  0  0  0  0
   23.7670  -17.5227  -18.0039 C   0  0  0  0  0  0  0  0  0  0  0  0
   23.6762  -16.2895  -18.5810 O   0  0  0  0  0  0  0  0  0  0  0  0
   23.4180  -18.5304  -18.6583 O   0  0  0  0  0  0  0  0  0  0  0  0
  2  1  1  0
  3  2  1  0
  4  3  2  0
  5  3  1  0
  6 10  1  0
  6  5  1  0
  7  8  1  0
  6  7  1  1
  8 12  1  0
  9  8  2  0
 10 11  2  0
 13 14  1  0
 14 15  1  0
 16 15  1  0
 17 16  1  6
 18 17  1  0
 18 10  1  0
 19 20  1  0
 19 17  1  0
 21 19  2  0
M  END
$$$$
