GDM.pdb
     RDKit          3D

 21 20  0  0  1  0  0  0  0  0999 V2000
   24.5648  -24.7644  -14.7636 N   0  0  0  0  0  0  0  0  0  0  0  0
   23.3801  -24.2562  -15.4275 C   0  0  0  0  0  0  0  0  0  0  0  0
   23.1514  -22.8400  -15.0461 C   0  0  0  0  0  0  0  0  0  0  0  0
   23.4415  -21.9019  -15.8055 O   0  0  0  0  0  0  0  0  0  0  0  0
   22.5821  -22.5404  -13.7715 N   0  0  0  0  0  0  0  0  0  0  0  0
   22.3589  -21.2092  -13.2829 C   0  0  1  0  0  0  0  0  0  0  0  0
   21.2210  -21.1144  -12.3052 C   0  0  0  0  0  0  0  0  0  0  0  0
   19.9372  -21.5488  -12.8634 C   0  0  0  0  0  0  0  0  0  0  0  0
   19.3375  -20.7822  -13.6786 O   0  0  0  0  0  0  0  0  0  0  0  0
   23.6093  -20.6412  -12.6857 C   0  0  0  0  0  0  0  0  0  0  0  0
   23.4987  -19.7081  -11.8517 O   0  0  0  0  0  0  0  0  0  0  0  0
   19.2975  -22.7471  -12.5795 O   0  0  0  0  0  0  0  0  0  0  0  0
   26.2281  -19.6291   -8.1638 C   0  0  0  0  0  0  0  0  0  0  0  0
   27.6060  -20.5860   -8.7641 S   0  0  0  0  0  0  0  0  0  0  0  0
   27.7018  -20.8574  -10.5187 C   0  0  0  0  0  0  0  0  0  0  0  0
   26.4339  -21.2474  -11.1945 C   0  0  0  0  0  0  0  0  0  0  0  0
   26.1346  -20.5115  -12.4709 C   0  0  2  0  0  0  0  0  0  0  0  0
   24.8903  -21.0949  -13.0084 N   0  0  0  0  0  0  0  0  0  0  0  0
   27.2275  -20.7349  -13.4465 C   0  0  0  0  0  0  0  0  0  0  0  0
   28.4241  -20.0850  -13.3594 O   0  0  0  0  0  0  0  0  0  0  0  0
   27.0410  -21.5491  -14.3781 O   0  0  0  0  0  0  0  0  0  0  0  0
  2  1  1  0
  3  2  1  0
  4  3  2  0
  5  3  1  0
  6 10  1  0
  6  5  1  0
  7  8  1  0
  6  7  1  1
  8 12  1  0
  9  8  2  0
 10 11  2  0
 13 14  1  0
 14 15  1  0
 16 15  1  0
 17 16  1  1
 18 17  1  0
 18 10  1  0
 19 20  1  0
 19 17  1  0
 21 19  2  0
M  END
$$$$
