GDM.pdb
     RDKit          3D

 21 20  0  0  1  0  0  0  0  0999 V2000
   13.9583   -9.7384   -8.9094 N   0  0  0  0  0  0  0  0  0  0  0  0
   14.2428   -8.3243   -8.7604 C   0  0  0  0  0  0  0  0  0  0  0  0
   15.1591   -7.8737   -9.8377 C   0  0  0  0  0  0  0  0  0  0  0  0
   15.6230   -8.6628  -10.6760 O   0  0  0  0  0  0  0  0  0  0  0  0
   15.5217   -6.4951   -9.9184 N   0  0  0  0  0  0  0  0  0  0  0  0
   16.2916   -5.9270  -10.9886 C   0  0  1  0  0  0  0  0  0  0  0  0
   15.8582   -4.5376  -11.3645 C   0  0  0  0  0  0  0  0  0  0  0  0
   14.5012   -4.4809  -11.9155 C   0  0  0  0  0  0  0  0  0  0  0  0
   14.1591   -5.3446  -12.7808 O   0  0  0  0  0  0  0  0  0  0  0  0
   17.7539   -5.9490  -10.6666 C   0  0  0  0  0  0  0  0  0  0  0  0
   18.0955   -6.0649   -9.4630 O   0  0  0  0  0  0  0  0  0  0  0  0
   13.5297   -3.5506  -11.5743 O   0  0  0  0  0  0  0  0  0  0  0  0
   23.7221   -9.9958   -9.7402 C   0  0  0  0  0  0  0  0  0  0  0  0
   22.0586   -9.5279  -10.1743 S   0  0  0  0  0  0  0  0  0  0  0  0
   21.8042   -7.8571  -10.7269 C   0  0  0  0  0  0  0  0  0  0  0  0
   20.3918   -7.4504  -10.9644 C   0  0  0  0  0  0  0  0  0  0  0  0
   20.1956   -6.0121  -11.3554 C   0  0  2  0  0  0  0  0  0  0  0  0
   18.7559   -5.8468  -11.6342 N   0  0  0  0  0  0  0  0  0  0  0  0
   20.9584   -5.7201  -12.5919 C   0  0  0  0  0  0  0  0  0  0  0  0
   22.2046   -5.1650  -12.5636 O   0  0  0  0  0  0  0  0  0  0  0  0
   20.4374   -5.9954  -13.6957 O   0  0  0  0  0  0  0  0  0  0  0  0
  2  1  1  0
  3  2  1  0
  4  3  2  0
  5  3  1  0
  6 10  1  0
  6  5  1  0
  7  8  1  0
  6  7  1  1
  8 12  1  0
  9  8  2  0
 10 11  2  0
 13 14  1  0
 14 15  1  0
 16 15  1  0
 17 16  1  6
 18 17  1  0
 18 10  1  0
 19 20  1  0
 19 17  1  0
 21 19  2  0
M  END
$$$$
