GDM.pdb
     RDKit          3D

 21 20  0  0  1  0  0  0  0  0999 V2000
   24.4198  -19.9328  -15.4803 N   0  0  0  0  0  0  0  0  0  0  0  0
   23.0692  -19.7245  -14.9956 C   0  0  0  0  0  0  0  0  0  0  0  0
   22.4555  -18.5615  -15.6843 C   0  0  0  0  0  0  0  0  0  0  0  0
   23.0206  -17.9855  -16.6275 O   0  0  0  0  0  0  0  0  0  0  0  0
   21.1792  -18.0862  -15.2554 N   0  0  0  0  0  0  0  0  0  0  0  0
   20.4819  -16.9904  -15.8666 C   0  0  1  0  0  0  0  0  0  0  0  0
   19.0064  -16.9865  -15.5796 C   0  0  0  0  0  0  0  0  0  0  0  0
   18.3188  -18.1915  -16.0524 C   0  0  0  0  0  0  0  0  0  0  0  0
   18.3858  -18.4860  -17.2856 O   0  0  0  0  0  0  0  0  0  0  0  0
   21.0937  -15.6809  -15.4748 C   0  0  0  0  0  0  0  0  0  0  0  0
   20.9071  -15.2646  -14.3041 O   0  0  0  0  0  0  0  0  0  0  0  0
   17.5829  -19.0635  -15.2626 O   0  0  0  0  0  0  0  0  0  0  0  0
   27.0501  -14.8282  -15.0005 C   0  0  0  0  0  0  0  0  0  0  0  0
   26.5916  -13.1337  -15.3051 S   0  0  0  0  0  0  0  0  0  0  0  0
   24.8600  -12.7865  -15.5110 C   0  0  0  0  0  0  0  0  0  0  0  0
   23.9881  -13.9514  -15.8261 C   0  0  0  0  0  0  0  0  0  0  0  0
   22.5230  -13.6397  -15.9554 C   0  0  2  0  0  0  0  0  0  0  0  0
   21.8597  -14.8997  -16.3429 N   0  0  0  0  0  0  0  0  0  0  0  0
   22.3159  -12.6405  -17.0299 C   0  0  0  0  0  0  0  0  0  0  0  0
   22.2716  -11.3002  -16.7779 O   0  0  0  0  0  0  0  0  0  0  0  0
   22.1791  -13.0457  -18.2058 O   0  0  0  0  0  0  0  0  0  0  0  0
  2  1  1  0
  3  2  1  0
  4  3  2  0
  5  3  1  0
  6 10  1  0
  6  5  1  0
  7  8  1  0
  6  7  1  1
  8 12  1  0
  9  8  2  0
 10 11  2  0
 13 14  1  0
 14 15  1  0
 16 15  1  0
 17 16  1  6
 18 17  1  0
 18 10  1  0
 19 20  1  0
 19 17  1  0
 21 19  2  0
M  END
$$$$
