GDM.pdb
     RDKit          3D

 21 20  0  0  1  0  0  0  0  0999 V2000
   18.8837  -14.7408  -15.8016 N   0  0  0  0  0  0  0  0  0  0  0  0
   18.8171  -14.3171  -17.1868 C   0  0  0  0  0  0  0  0  0  0  0  0
   19.0898  -12.8614  -17.2868 C   0  0  0  0  0  0  0  0  0  0  0  0
   20.0701  -12.4194  -17.9069 O   0  0  0  0  0  0  0  0  0  0  0  0
   18.2039  -11.9372  -16.6547 N   0  0  0  0  0  0  0  0  0  0  0  0
   18.3874  -10.5134  -16.6618 C   0  0  1  0  0  0  0  0  0  0  0  0
   17.1103   -9.7453  -16.4653 C   0  0  0  0  0  0  0  0  0  0  0  0
   17.2616   -8.3024  -16.6742 C   0  0  0  0  0  0  0  0  0  0  0  0
   16.5775   -7.5088  -15.9572 O   0  0  0  0  0  0  0  0  0  0  0  0
   19.4073  -10.0999  -15.6463 C   0  0  0  0  0  0  0  0  0  0  0  0
   19.5788  -10.8360  -14.6426 O   0  0  0  0  0  0  0  0  0  0  0  0
   18.1012   -7.7049  -17.6035 O   0  0  0  0  0  0  0  0  0  0  0  0
   26.5056  -10.9750  -14.6360 C   0  0  0  0  0  0  0  0  0  0  0  0
   24.9064  -10.9587  -15.4214 S   0  0  0  0  0  0  0  0  0  0  0  0
   23.7616   -9.7005  -14.9041 C   0  0  0  0  0  0  0  0  0  0  0  0
   22.4186   -9.7285  -15.5460 C   0  0  0  0  0  0  0  0  0  0  0  0
   21.4397   -8.7106  -15.0302 C   0  0  2  0  0  0  0  0  0  0  0  0
   20.1761   -8.9391  -15.7574 N   0  0  0  0  0  0  0  0  0  0  0  0
   21.9276   -7.3454  -15.3371 C   0  0  0  0  0  0  0  0  0  0  0  0
   22.6547   -6.6149  -14.4430 O   0  0  0  0  0  0  0  0  0  0  0  0
   21.6618   -6.8522  -16.4560 O   0  0  0  0  0  0  0  0  0  0  0  0
  2  1  1  0
  3  2  1  0
  4  3  2  0
  5  3  1  0
  6 10  1  0
  6  5  1  0
  7  8  1  0
  6  7  1  1
  8 12  1  0
  9  8  2  0
 10 11  2  0
 13 14  1  0
 14 15  1  0
 16 15  1  0
 17 16  1  6
 18 17  1  0
 18 10  1  0
 19 20  1  0
 19 17  1  0
 21 19  2  0
M  END
$$$$
