GDM.pdb
     RDKit          3D

 21 20  0  0  1  0  0  0  0  0999 V2000
   29.0249  -18.6717  -16.5877 N   0  0  0  0  0  0  0  0  0  0  0  0
   27.9899  -17.7935  -17.0977 C   0  0  0  0  0  0  0  0  0  0  0  0
   26.8145  -17.8127  -16.1912 C   0  0  0  0  0  0  0  0  0  0  0  0
   26.8901  -17.4321  -15.0122 O   0  0  0  0  0  0  0  0  0  0  0  0
   25.5582  -18.2809  -16.6822 N   0  0  0  0  0  0  0  0  0  0  0  0
   24.3351  -18.2389  -15.9320 C   0  0  1  0  0  0  0  0  0  0  0  0
   23.1129  -18.0698  -16.7907 C   0  0  0  0  0  0  0  0  0  0  0  0
   21.8913  -17.8187  -16.0204 C   0  0  0  0  0  0  0  0  0  0  0  0
   21.5625  -18.6450  -15.1145 O   0  0  0  0  0  0  0  0  0  0  0  0
   24.1987  -19.4502  -15.0620 C   0  0  0  0  0  0  0  0  0  0  0  0
   24.2863  -20.5817  -15.6010 O   0  0  0  0  0  0  0  0  0  0  0  0
   21.0378  -16.7378  -16.1903 O   0  0  0  0  0  0  0  0  0  0  0  0
   27.4954  -20.7353   -9.4786 C   0  0  0  0  0  0  0  0  0  0  0  0
   25.7761  -21.0731   -9.1552 S   0  0  0  0  0  0  0  0  0  0  0  0
   24.7256  -21.3510  -10.5625 C   0  0  0  0  0  0  0  0  0  0  0  0
   24.7348  -20.2928  -11.6098 C   0  0  0  0  0  0  0  0  0  0  0  0
   23.8695  -20.5687  -12.8079 C   0  0  2  0  0  0  0  0  0  0  0  0
   23.9789  -19.3864  -13.6842 N   0  0  0  0  0  0  0  0  0  0  0  0
   22.4579  -20.7197  -12.3830 C   0  0  0  0  0  0  0  0  0  0  0  0
   21.9018  -21.9393  -12.1277 O   0  0  0  0  0  0  0  0  0  0  0  0
   21.7582  -19.6904  -12.2544 O   0  0  0  0  0  0  0  0  0  0  0  0
  2  1  1  0
  3  2  1  0
  4  3  2  0
  5  3  1  0
  6 10  1  0
  6  5  1  0
  7  8  1  0
  6  7  1  6
  8 12  1  0
  9  8  2  0
 10 11  2  0
 13 14  1  0
 14 15  1  0
 16 15  1  0
 17 16  1  1
 18 17  1  0
 18 10  1  0
 19 20  1  0
 19 17  1  0
 21 19  2  0
M  END
$$$$
