GDM.pdb
     RDKit          3D

 21 20  0  0  1  0  0  0  0  0999 V2000
   19.1993  -13.3468  -16.6062 N   0  0  0  0  0  0  0  0  0  0  0  0
   18.3501  -12.3516  -15.9810 C   0  0  0  0  0  0  0  0  0  0  0  0
   18.8494  -10.9889  -16.2927 C   0  0  0  0  0  0  0  0  0  0  0  0
   19.7953  -10.8004  -17.0741 O   0  0  0  0  0  0  0  0  0  0  0  0
   18.2292   -9.8580  -15.6804 N   0  0  0  0  0  0  0  0  0  0  0  0
   18.5656   -8.4951  -15.9808 C   0  0  1  0  0  0  0  0  0  0  0  0
   17.5012   -7.5138  -15.5764 C   0  0  0  0  0  0  0  0  0  0  0  0
   16.1777   -7.8354  -16.1182 C   0  0  0  0  0  0  0  0  0  0  0  0
   15.9927   -7.7380  -17.3704 O   0  0  0  0  0  0  0  0  0  0  0  0
   19.8805   -8.1209  -15.3694 C   0  0  0  0  0  0  0  0  0  0  0  0
   20.0775   -8.4078  -14.1622 O   0  0  0  0  0  0  0  0  0  0  0  0
   15.0796   -8.2462  -15.3758 O   0  0  0  0  0  0  0  0  0  0  0  0
   27.4595   -7.2533  -17.6162 C   0  0  0  0  0  0  0  0  0  0  0  0
   25.7051   -7.2812  -17.9260 S   0  0  0  0  0  0  0  0  0  0  0  0
   24.6323   -7.3437  -16.5095 C   0  0  0  0  0  0  0  0  0  0  0  0
   23.1712   -7.3867  -16.7919 C   0  0  0  0  0  0  0  0  0  0  0  0
   22.2819   -7.3279  -15.5811 C   0  0  2  0  0  0  0  0  0  0  0  0
   20.8973   -7.4699  -16.0716 N   0  0  0  0  0  0  0  0  0  0  0  0
   22.4218   -6.0091  -14.9198 C   0  0  0  0  0  0  0  0  0  0  0  0
   23.3451   -5.7805  -13.9415 O   0  0  0  0  0  0  0  0  0  0  0  0
   21.6659   -5.0778  -15.2760 O   0  0  0  0  0  0  0  0  0  0  0  0
  2  1  1  0
  3  2  1  0
  4  3  2  0
  5  3  1  0
  6 10  1  0
  6  5  1  0
  7  8  1  0
  6  7  1  1
  8 12  1  0
  9  8  2  0
 10 11  2  0
 13 14  1  0
 14 15  1  0
 16 15  1  0
 17 16  1  6
 18 17  1  0
 18 10  1  0
 19 20  1  0
 19 17  1  0
 21 19  2  0
M  END
$$$$
