GDM.pdb
     RDKit          3D

 21 20  0  0  1  0  0  0  0  0999 V2000
   18.2673  -15.1659  -15.6310 N   0  0  0  0  0  0  0  0  0  0  0  0
   17.4007  -14.0627  -15.9979 C   0  0  0  0  0  0  0  0  0  0  0  0
   18.2146  -12.8959  -16.4215 C   0  0  0  0  0  0  0  0  0  0  0  0
   19.3326  -13.0316  -16.9434 O   0  0  0  0  0  0  0  0  0  0  0  0
   17.7038  -11.5769  -16.2263 N   0  0  0  0  0  0  0  0  0  0  0  0
   18.3649  -10.3838  -16.6737 C   0  0  1  0  0  0  0  0  0  0  0  0
   17.4167   -9.2731  -17.0298 C   0  0  0  0  0  0  0  0  0  0  0  0
   18.0921   -8.0612  -17.5027 C   0  0  0  0  0  0  0  0  0  0  0  0
   18.9561   -8.1673  -18.4269 O   0  0  0  0  0  0  0  0  0  0  0  0
   19.3639   -9.9137  -15.6620 C   0  0  0  0  0  0  0  0  0  0  0  0
   19.0368   -9.9364  -14.4491 O   0  0  0  0  0  0  0  0  0  0  0  0
   17.8731   -6.7766  -17.0257 O   0  0  0  0  0  0  0  0  0  0  0  0
   26.4023  -12.0021  -14.8334 C   0  0  0  0  0  0  0  0  0  0  0  0
   25.3931  -10.7948  -15.6692 S   0  0  0  0  0  0  0  0  0  0  0  0
   23.8413  -10.3709  -14.9120 C   0  0  0  0  0  0  0  0  0  0  0  0
   22.9982   -9.3870  -15.6453 C   0  0  0  0  0  0  0  0  0  0  0  0
   21.6706   -9.0804  -15.0100 C   0  0  2  0  0  0  0  0  0  0  0  0
   20.6385   -9.4515  -15.9973 N   0  0  0  0  0  0  0  0  0  0  0  0
   21.5694   -7.6276  -14.7358 C   0  0  0  0  0  0  0  0  0  0  0  0
   22.0680   -7.0661  -13.5966 O   0  0  0  0  0  0  0  0  0  0  0  0
   21.0080   -6.8965  -15.5820 O   0  0  0  0  0  0  0  0  0  0  0  0
  2  1  1  0
  3  2  1  0
  4  3  2  0
  5  3  1  0
  6 10  1  0
  6  5  1  0
  7  8  1  0
  6  7  1  1
  8 12  1  0
  9  8  2  0
 10 11  2  0
 13 14  1  0
 14 15  1  0
 16 15  1  0
 17 16  1  6
 18 17  1  0
 18 10  1  0
 19 20  1  0
 19 17  1  0
 21 19  2  0
M  END
$$$$
