GDM.pdb
     RDKit          3D

 21 20  0  0  1  0  0  0  0  0999 V2000
   15.2283   -7.0842   -7.7867 N   0  0  0  0  0  0  0  0  0  0  0  0
   14.4861   -7.2086   -9.0262 C   0  0  0  0  0  0  0  0  0  0  0  0
   15.4140   -7.5006  -10.1474 C   0  0  0  0  0  0  0  0  0  0  0  0
   16.3792   -8.2700  -10.0158 O   0  0  0  0  0  0  0  0  0  0  0  0
   15.1967   -6.8829  -11.4162 N   0  0  0  0  0  0  0  0  0  0  0  0
   15.8727   -7.2652  -12.6235 C   0  0  1  0  0  0  0  0  0  0  0  0
   15.1382   -6.8643  -13.8722 C   0  0  0  0  0  0  0  0  0  0  0  0
   13.9285   -7.6557  -14.1147 C   0  0  0  0  0  0  0  0  0  0  0  0
   12.8176   -7.0510  -14.2244 O   0  0  0  0  0  0  0  0  0  0  0  0
   17.2716   -6.7313  -12.6460 C   0  0  0  0  0  0  0  0  0  0  0  0
   17.4728   -5.5734  -12.2017 O   0  0  0  0  0  0  0  0  0  0  0  0
   13.8789   -9.0369  -14.2390 O   0  0  0  0  0  0  0  0  0  0  0  0
   22.9219  -10.1007  -10.7782 C   0  0  0  0  0  0  0  0  0  0  0  0
   23.1027   -9.3330  -12.3758 S   0  0  0  0  0  0  0  0  0  0  0  0
   22.0729   -7.9250  -12.7203 C   0  0  0  0  0  0  0  0  0  0  0  0
   20.6066   -8.1782  -12.7688 C   0  0  0  0  0  0  0  0  0  0  0  0
   19.7586   -6.9781  -13.0865 C   0  0  2  0  0  0  0  0  0  0  0  0
   18.3624   -7.4534  -13.1353 N   0  0  0  0  0  0  0  0  0  0  0  0
   20.1277   -6.4416  -14.4177 C   0  0  0  0  0  0  0  0  0  0  0  0
   19.3585   -6.6514  -15.5250 O   0  0  0  0  0  0  0  0  0  0  0  0
   21.1803   -5.7733  -14.5228 O   0  0  0  0  0  0  0  0  0  0  0  0
  2  1  1  0
  3  2  1  0
  4  3  2  0
  5  3  1  0
  6 10  1  0
  6  5  1  0
  7  8  1  0
  6  7  1  6
  8 12  1  0
  9  8  2  0
 10 11  2  0
 13 14  1  0
 14 15  1  0
 16 15  1  0
 17 16  1  6
 18 17  1  0
 18 10  1  0
 19 20  1  0
 19 17  1  0
 21 19  2  0
M  END
$$$$
