GDM.pdb
     RDKit          3D

 21 20  0  0  1  0  0  0  0  0999 V2000
   28.8600  -20.7136  -16.6203 N   0  0  0  0  0  0  0  0  0  0  0  0
   28.2541  -21.7150  -15.7645 C   0  0  0  0  0  0  0  0  0  0  0  0
   27.3517  -21.0651  -14.7813 C   0  0  0  0  0  0  0  0  0  0  0  0
   27.6397  -19.9850  -14.2417 O   0  0  0  0  0  0  0  0  0  0  0  0
   26.1156  -21.6939  -14.4417 N   0  0  0  0  0  0  0  0  0  0  0  0
   25.1130  -21.0980  -13.6048 C   0  0  1  0  0  0  0  0  0  0  0  0
   23.7089  -21.3795  -14.0615 C   0  0  0  0  0  0  0  0  0  0  0  0
   22.7000  -20.5686  -13.3737 C   0  0  0  0  0  0  0  0  0  0  0  0
   21.4742  -20.7747  -13.6319 O   0  0  0  0  0  0  0  0  0  0  0  0
   25.2912  -21.5133  -12.1771 C   0  0  0  0  0  0  0  0  0  0  0  0
   25.2435  -22.7389  -11.9045 O   0  0  0  0  0  0  0  0  0  0  0  0
   22.9620  -19.5720  -12.4443 O   0  0  0  0  0  0  0  0  0  0  0  0
   29.6116  -19.2569   -7.4681 C   0  0  0  0  0  0  0  0  0  0  0  0
   27.9498  -19.1503   -6.8346 S   0  0  0  0  0  0  0  0  0  0  0  0
   26.7219  -20.1832   -7.6007 C   0  0  0  0  0  0  0  0  0  0  0  0
   26.5832  -20.0558   -9.0775 C   0  0  0  0  0  0  0  0  0  0  0  0
   25.5922  -20.9918   -9.7118 C   0  0  2  0  0  0  0  0  0  0  0  0
   25.5068  -20.6093  -11.1345 N   0  0  0  0  0  0  0  0  0  0  0  0
   24.2606  -20.8105   -9.0874 C   0  0  0  0  0  0  0  0  0  0  0  0
   23.9405  -21.3662   -7.8830 O   0  0  0  0  0  0  0  0  0  0  0  0
   23.4060  -20.1225   -9.6890 O   0  0  0  0  0  0  0  0  0  0  0  0
  2  1  1  0
  3  2  1  0
  4  3  2  0
  5  3  1  0
  6 10  1  0
  6  5  1  0
  7  8  1  0
  6  7  1  6
  8 12  1  0
  9  8  2  0
 10 11  2  0
 13 14  1  0
 14 15  1  0
 16 15  1  0
 17 16  1  1
 18 17  1  0
 18 10  1  0
 19 20  1  0
 19 17  1  0
 21 19  2  0
M  END
$$$$
