GDM.pdb
     RDKit          3D

 21 20  0  0  1  0  0  0  0  0999 V2000
   16.5662  -14.6106  -14.0645 N   0  0  0  0  0  0  0  0  0  0  0  0
   16.4617  -13.7787  -15.2475 C   0  0  0  0  0  0  0  0  0  0  0  0
   17.7844  -13.6720  -15.9127 C   0  0  0  0  0  0  0  0  0  0  0  0
   18.6095  -14.5989  -15.8827 O   0  0  0  0  0  0  0  0  0  0  0  0
   18.1244  -12.4726  -16.6086 N   0  0  0  0  0  0  0  0  0  0  0  0
   19.3593  -12.2737  -17.3130 C   0  0  1  0  0  0  0  0  0  0  0  0
   19.1788  -11.6626  -18.6745 C   0  0  0  0  0  0  0  0  0  0  0  0
   18.9548  -12.6532  -19.7314 C   0  0  0  0  0  0  0  0  0  0  0  0
   17.7680  -12.8544  -20.1351 O   0  0  0  0  0  0  0  0  0  0  0  0
   20.3159  -11.4596  -16.4977 C   0  0  0  0  0  0  0  0  0  0  0  0
   19.8483  -10.5574  -15.7587 O   0  0  0  0  0  0  0  0  0  0  0  0
   19.9393  -13.4116  -20.3488 O   0  0  0  0  0  0  0  0  0  0  0  0
   28.1399  -10.5476  -14.8499 C   0  0  0  0  0  0  0  0  0  0  0  0
   26.7775  -11.3395  -15.6813 S   0  0  0  0  0  0  0  0  0  0  0  0
   25.1579  -10.6550  -15.4172 C   0  0  0  0  0  0  0  0  0  0  0  0
   24.0258  -11.3756  -16.0619 C   0  0  0  0  0  0  0  0  0  0  0  0
   22.6618  -10.8088  -15.7813 C   0  0  2  0  0  0  0  0  0  0  0  0
   21.6992  -11.6513  -16.5170 N   0  0  0  0  0  0  0  0  0  0  0  0
   22.5782   -9.4232  -16.3001 C   0  0  0  0  0  0  0  0  0  0  0  0
   22.6233   -8.3350  -15.4781 O   0  0  0  0  0  0  0  0  0  0  0  0
   22.4639   -9.2521  -17.5343 O   0  0  0  0  0  0  0  0  0  0  0  0
  2  1  1  0
  3  2  1  0
  4  3  2  0
  5  3  1  0
  6 10  1  0
  6  5  1  0
  7  8  1  0
  6  7  1  6
  8 12  1  0
  9  8  2  0
 10 11  2  0
 13 14  1  0
 14 15  1  0
 16 15  1  0
 17 16  1  6
 18 17  1  0
 18 10  1  0
 19 20  1  0
 19 17  1  0
 21 19  2  0
M  END
$$$$
