KTR.pdb
     RDKit          3D

 28 27  0  0  1  0  0  0  0  0999 V2000
   32.3600  -10.2884  -19.1572 N   0  0  0  0  0  0  0  0  0  0  0  0
   32.2294   -9.6589  -17.8576 C   0  0  1  0  0  0  0  0  0  0  0  0
   31.4156  -10.5330  -16.9325 C   0  0  0  0  0  0  0  0  0  0  0  0
   30.0205  -10.7471  -17.3947 C   0  0  0  0  0  0  0  0  0  0  0  0
   29.2189  -11.7141  -16.6117 C   0  0  0  0  0  0  0  0  0  0  0  0
   27.7985  -11.8713  -17.0665 C   0  0  0  0  0  0  0  0  0  0  0  0
   27.0992  -12.8086  -16.2009 N   0  0  0  0  0  0  0  0  0  0  0  0
   33.5679   -9.3706  -17.3433 C   0  0  0  0  0  0  0  0  0  0  0  0
   34.5007  -10.2466  -17.3800 O   0  0  0  0  0  0  0  0  0  0  0  0
   36.0631   -7.2976  -18.5436 C   0  0  0  0  0  0  0  0  0  0  0  0
   35.8523   -6.7506  -17.1457 C   0  0  1  0  0  0  0  0  0  0  0  0
   35.0772   -5.6207  -17.1252 O   0  0  0  0  0  0  0  0  0  0  0  0
   35.3187   -7.8808  -16.2871 C   0  0  2  0  0  0  0  0  0  0  0  0
   33.9577   -8.1232  -16.7670 N   0  0  0  0  0  0  0  0  0  0  0  0
   35.3223   -7.5467  -14.8426 C   0  0  0  0  0  0  0  0  0  0  0  0
   34.3031   -7.0868  -14.2579 O   0  0  0  0  0  0  0  0  0  0  0  0
   40.7855  -10.9846   -8.7028 N   0  0  0  0  0  0  0  0  0  0  0  0
   39.9062  -10.0720   -8.0515 C   0  0  0  0  0  0  0  0  0  0  0  0
   39.9035  -10.0423   -6.7558 N   0  0  0  0  0  0  0  0  0  0  0  0
   39.0449   -9.2053   -8.7649 N   0  0  0  0  0  0  0  0  0  0  0  0
   38.8676   -9.2811  -10.1983 C   0  0  0  0  0  0  0  0  0  0  0  0
   37.8393   -8.2302  -10.6070 C   0  0  0  0  0  0  0  0  0  0  0  0
   37.6204   -8.3796  -12.0838 C   0  0  0  0  0  0  0  0  0  0  0  0
   36.6254   -7.4265  -12.6732 C   0  0  2  0  0  0  0  0  0  0  0  0
   36.4946   -7.7475  -14.1006 N   0  0  0  0  0  0  0  0  0  0  0  0
   37.1472   -6.0483  -12.5760 C   0  0  0  0  0  0  0  0  0  0  0  0
   37.0295   -5.3358  -11.3690 O   0  0  0  0  0  0  0  0  0  0  0  0
   37.7116   -5.4321  -13.5219 O   0  0  0  0  0  0  0  0  0  0  0  0
  2  1  1  6
  3  2  1  0
  4  3  1  0
  5  4  1  0
  6  5  1  0
  7  6  1  0
  8  9  2  0
  8  2  1  0
 11 10  1  6
 11 13  1  0
 12 11  1  0
 13 14  1  6
 14  8  1  0
 15 13  1  0
 16 15  2  0
 18 17  1  0
 19 18  2  0
 20 18  1  0
 21 20  1  0
 21 22  1  0
 22 23  1  0
 24 23  1  6
 24 26  1  0
 24 25  1  0
 25 15  1  0
 26 27  1  0
 28 26  2  0
M  END
$$$$
