KTR.pdb
     RDKit          3D

 28 27  0  0  1  0  0  0  0  0999 V2000
   29.8172  -23.3023  -16.7650 N   0  0  0  0  0  0  0  0  0  0  0  0
   28.6281  -22.9627  -17.5220 C   0  0  1  0  0  0  0  0  0  0  0  0
   28.0674  -24.1935  -18.1949 C   0  0  0  0  0  0  0  0  0  0  0  0
   28.8396  -25.4293  -17.9079 C   0  0  0  0  0  0  0  0  0  0  0  0
   28.3188  -26.6750  -18.5143 C   0  0  0  0  0  0  0  0  0  0  0  0
   29.1238  -27.9055  -18.2188 C   0  0  0  0  0  0  0  0  0  0  0  0
   28.5361  -29.0572  -18.8858 N   0  0  0  0  0  0  0  0  0  0  0  0
   27.6728  -22.3158  -16.6229 C   0  0  0  0  0  0  0  0  0  0  0  0
   27.5103  -22.7188  -15.4188 O   0  0  0  0  0  0  0  0  0  0  0  0
   27.5539  -19.0555  -15.2077 C   0  0  0  0  0  0  0  0  0  0  0  0
   26.2440  -19.1542  -15.9640 C   0  0  1  0  0  0  0  0  0  0  0  0
   26.2742  -18.5079  -17.1719 O   0  0  0  0  0  0  0  0  0  0  0  0
   25.8793  -20.6230  -16.0589 C   0  0  2  0  0  0  0  0  0  0  0  0
   26.8513  -21.2049  -16.9851 N   0  0  0  0  0  0  0  0  0  0  0  0
   24.4929  -20.8337  -16.5402 C   0  0  0  0  0  0  0  0  0  0  0  0
   24.2174  -20.9380  -17.7671 O   0  0  0  0  0  0  0  0  0  0  0  0
   19.1700  -24.9880  -12.1736 N   0  0  0  0  0  0  0  0  0  0  0  0
   18.2955  -23.9118  -12.5014 C   0  0  0  0  0  0  0  0  0  0  0  0
   17.0502  -24.0068  -12.1554 N   0  0  0  0  0  0  0  0  0  0  0  0
   18.7371  -22.7541  -13.1848 N   0  0  0  0  0  0  0  0  0  0  0  0
   19.4346  -22.8089  -14.4506 C   0  0  0  0  0  0  0  0  0  0  0  0
   19.7806  -21.3816  -14.8654 C   0  0  0  0  0  0  0  0  0  0  0  0
   21.2613  -21.2181  -14.6866 C   0  0  0  0  0  0  0  0  0  0  0  0
   22.0451  -21.1370  -15.9613 C   0  0  2  0  0  0  0  0  0  0  0  0
   23.4533  -20.9204  -15.6038 N   0  0  0  0  0  0  0  0  0  0  0  0
   21.6005  -19.9623  -16.7382 C   0  0  0  0  0  0  0  0  0  0  0  0
   20.7324  -20.1308  -17.8321 O   0  0  0  0  0  0  0  0  0  0  0  0
   21.9477  -18.7737  -16.4937 O   0  0  0  0  0  0  0  0  0  0  0  0
  2  1  1  1
  3  2  1  0
  4  3  1  0
  5  4  1  0
  6  5  1  0
  7  6  1  0
  8  9  2  0
  8  2  1  0
 11 10  1  6
 11 13  1  0
 12 11  1  0
 13 14  1  6
 14  8  1  0
 15 13  1  0
 16 15  2  0
 18 17  1  0
 19 18  2  0
 20 18  1  0
 21 20  1  0
 21 22  1  0
 22 23  1  0
 24 23  1  1
 24 26  1  0
 24 25  1  0
 25 15  1  0
 26 27  1  0
 28 26  2  0
M  END
$$$$
