KTR.pdb
     RDKit          3D

 28 27  0  0  1  0  0  0  0  0999 V2000
   24.5372  -20.1035  -17.6917 N   0  0  0  0  0  0  0  0  0  0  0  0
   25.1415  -19.6003  -16.4736 C   0  0  1  0  0  0  0  0  0  0  0  0
   26.0107  -18.4027  -16.7772 C   0  0  0  0  0  0  0  0  0  0  0  0
   26.7409  -18.5121  -18.0659 C   0  0  0  0  0  0  0  0  0  0  0  0
   28.0456  -19.2091  -18.0150 C   0  0  0  0  0  0  0  0  0  0  0  0
   28.8204  -19.1931  -19.2990 C   0  0  0  0  0  0  0  0  0  0  0  0
   30.1145  -19.8299  -19.1079 N   0  0  0  0  0  0  0  0  0  0  0  0
   24.0784  -19.3079  -15.5128 C   0  0  0  0  0  0  0  0  0  0  0  0
   23.9396  -18.1412  -15.0045 O   0  0  0  0  0  0  0  0  0  0  0  0
   22.3636  -17.6206  -14.9675 C   0  0  0  0  0  0  0  0  0  0  0  0
   21.3369  -18.7221  -14.7934 C   0  0  1  0  0  0  0  0  0  0  0  0
   20.6841  -19.0332  -15.9574 O   0  0  0  0  0  0  0  0  0  0  0  0
   22.0353  -19.9008  -14.1435 C   0  0  2  0  0  0  0  0  0  0  0  0
   23.1180  -20.2628  -15.0589 N   0  0  0  0  0  0  0  0  0  0  0  0
   21.1228  -21.0474  -13.9181 C   0  0  0  0  0  0  0  0  0  0  0  0
   20.9269  -21.9315  -14.7968 O   0  0  0  0  0  0  0  0  0  0  0  0
   19.3873  -25.1656   -6.6379 N   0  0  0  0  0  0  0  0  0  0  0  0
   18.2106  -25.3962   -7.4076 C   0  0  0  0  0  0  0  0  0  0  0  0
   17.3821  -26.3069   -7.0028 N   0  0  0  0  0  0  0  0  0  0  0  0
   17.9191  -24.6710   -8.5870 N   0  0  0  0  0  0  0  0  0  0  0  0
   18.7490  -23.5881   -9.0671 C   0  0  0  0  0  0  0  0  0  0  0  0
   18.1770  -23.1033  -10.3963 C   0  0  0  0  0  0  0  0  0  0  0  0
   19.1142  -22.0568  -10.9231 C   0  0  0  0  0  0  0  0  0  0  0  0
   19.5645  -22.2679  -12.3368 C   0  0  2  0  0  0  0  0  0  0  0  0
   20.4555  -21.1548  -12.6900 N   0  0  0  0  0  0  0  0  0  0  0  0
   18.3974  -22.2037  -13.2395 C   0  0  0  0  0  0  0  0  0  0  0  0
   17.7922  -23.3903  -13.6913 O   0  0  0  0  0  0  0  0  0  0  0  0
   17.8774  -21.1317  -13.6561 O   0  0  0  0  0  0  0  0  0  0  0  0
  2  1  1  6
  3  2  1  0
  4  3  1  0
  5  4  1  0
  6  5  1  0
  7  6  1  0
  8  9  2  0
  8  2  1  0
 11 10  1  6
 11 13  1  0
 12 11  1  0
 13 14  1  6
 14  8  1  0
 15 13  1  0
 16 15  2  0
 18 17  1  0
 19 18  2  0
 20 18  1  0
 21 20  1  0
 21 22  1  0
 22 23  1  0
 24 23  1  1
 24 26  1  0
 24 25  1  0
 25 15  1  0
 26 27  1  0
 28 26  2  0
M  END
$$$$
