KTR.pdb
     RDKit          3D

 28 27  0  0  1  0  0  0  0  0999 V2000
   21.2937  -13.2404  -16.4669 N   0  0  0  0  0  0  0  0  0  0  0  0
   20.2789  -12.2460  -16.7563 C   0  0  1  0  0  0  0  0  0  0  0  0
   18.9582  -12.9173  -17.0515 C   0  0  0  0  0  0  0  0  0  0  0  0
   19.0644  -14.0287  -18.0310 C   0  0  0  0  0  0  0  0  0  0  0  0
   17.7968  -14.7079  -18.3812 C   0  0  0  0  0  0  0  0  0  0  0  0
   17.9175  -15.7623  -19.4409 C   0  0  0  0  0  0  0  0  0  0  0  0
   16.6216  -16.3792  -19.6794 N   0  0  0  0  0  0  0  0  0  0  0  0
   20.2085  -11.3120  -15.6330 C   0  0  0  0  0  0  0  0  0  0  0  0
   20.1689  -11.7253  -14.4220 O   0  0  0  0  0  0  0  0  0  0  0  0
   22.5115   -8.6708  -14.7249 C   0  0  0  0  0  0  0  0  0  0  0  0
   21.1747   -7.9623  -14.8168 C   0  0  1  0  0  0  0  0  0  0  0  0
   21.0348   -7.2322  -15.9680 O   0  0  0  0  0  0  0  0  0  0  0  0
   20.0901   -9.0015  -14.6094 C   0  0  2  0  0  0  0  0  0  0  0  0
   20.1781   -9.8904  -15.7684 N   0  0  0  0  0  0  0  0  0  0  0  0
   18.7398   -8.3989  -14.5017 C   0  0  0  0  0  0  0  0  0  0  0  0
   17.9469   -8.3501  -15.4821 O   0  0  0  0  0  0  0  0  0  0  0  0
   13.4344   -8.8787   -7.5392 N   0  0  0  0  0  0  0  0  0  0  0  0
   12.7884   -8.0306   -8.4845 C   0  0  0  0  0  0  0  0  0  0  0  0
   11.5768   -7.6446   -8.2341 N   0  0  0  0  0  0  0  0  0  0  0  0
   13.4194   -7.5995   -9.6754 N   0  0  0  0  0  0  0  0  0  0  0  0
   14.6969   -8.1144  -10.1166 C   0  0  0  0  0  0  0  0  0  0  0  0
   15.0876   -7.3835  -11.3981 C   0  0  0  0  0  0  0  0  0  0  0  0
   16.4321   -7.9065  -11.8105 C   0  0  0  0  0  0  0  0  0  0  0  0
   17.0065   -7.2694  -13.0392 C   0  0  2  0  0  0  0  0  0  0  0  0
   18.3285   -7.8659  -13.2721 N   0  0  0  0  0  0  0  0  0  0  0  0
   17.2089   -5.8268  -12.7966 C   0  0  0  0  0  0  0  0  0  0  0  0
   16.1616   -4.9197  -13.0388 O   0  0  0  0  0  0  0  0  0  0  0  0
   18.2847   -5.3197  -12.3738 O   0  0  0  0  0  0  0  0  0  0  0  0
  2  1  1  1
  3  2  1  0
  4  3  1  0
  5  4  1  0
  6  5  1  0
  7  6  1  0
  8  9  2  0
  8  2  1  0
 11 10  1  6
 11 13  1  0
 12 11  1  0
 13 14  1  6
 14  8  1  0
 15 13  1  0
 16 15  2  0
 18 17  1  0
 19 18  2  0
 20 18  1  0
 21 20  1  0
 21 22  1  0
 22 23  1  0
 24 23  1  1
 24 26  1  0
 24 25  1  0
 25 15  1  0
 26 27  1  0
 28 26  2  0
M  END
$$$$
