KTR.pdb
     RDKit          3D

 28 27  0  0  1  0  0  0  0  0999 V2000
   19.5688  -14.1520  -16.5863 N   0  0  0  0  0  0  0  0  0  0  0  0
   19.0894  -15.5156  -16.7004 C   0  0  1  0  0  0  0  0  0  0  0  0
   18.9942  -15.9164  -18.1538 C   0  0  0  0  0  0  0  0  0  0  0  0
   18.0291  -15.0985  -18.9319 C   0  0  0  0  0  0  0  0  0  0  0  0
   16.6013  -15.2737  -18.5831 C   0  0  0  0  0  0  0  0  0  0  0  0
   15.6436  -14.4917  -19.4318 C   0  0  0  0  0  0  0  0  0  0  0  0
   14.2789  -14.7198  -18.9821 N   0  0  0  0  0  0  0  0  0  0  0  0
   19.9710  -16.3857  -15.9226 C   0  0  0  0  0  0  0  0  0  0  0  0
   21.2371  -16.1993  -15.8930 O   0  0  0  0  0  0  0  0  0  0  0  0
   20.0674  -16.7010  -12.4559 C   0  0  0  0  0  0  0  0  0  0  0  0
   19.8839  -18.1414  -12.8908 C   0  0  1  0  0  0  0  0  0  0  0  0
   18.5930  -18.5804  -12.7551 O   0  0  0  0  0  0  0  0  0  0  0  0
   20.4345  -18.2687  -14.2980 C   0  0  2  0  0  0  0  0  0  0  0  0
   19.5235  -17.4952  -15.1423 N   0  0  0  0  0  0  0  0  0  0  0  0
   20.5132  -19.6782  -14.7513 C   0  0  0  0  0  0  0  0  0  0  0  0
   19.5772  -20.2295  -15.3933 O   0  0  0  0  0  0  0  0  0  0  0  0
   26.5253  -24.3193  -16.8643 N   0  0  0  0  0  0  0  0  0  0  0  0
   26.2181  -25.3695  -15.9517 C   0  0  0  0  0  0  0  0  0  0  0  0
   26.6197  -26.5679  -16.2386 N   0  0  0  0  0  0  0  0  0  0  0  0
   25.4969  -25.1499  -14.7543 N   0  0  0  0  0  0  0  0  0  0  0  0
   25.0599  -23.8376  -14.3316 C   0  0  0  0  0  0  0  0  0  0  0  0
   23.6729  -23.5866  -14.9166 C   0  0  0  0  0  0  0  0  0  0  0  0
   23.2738  -22.1953  -14.5213 C   0  0  0  0  0  0  0  0  0  0  0  0
   21.8771  -21.8079  -14.9021 C   0  0  2  0  0  0  0  0  0  0  0  0
   21.6634  -20.4240  -14.4584 N   0  0  0  0  0  0  0  0  0  0  0  0
   20.9147  -22.6593  -14.1741 C   0  0  0  0  0  0  0  0  0  0  0  0
   20.5810  -22.3610  -12.8407 O   0  0  0  0  0  0  0  0  0  0  0  0
   20.3444  -23.6716  -14.6672 O   0  0  0  0  0  0  0  0  0  0  0  0
  2  1  1  6
  3  2  1  0
  4  3  1  0
  5  4  1  0
  6  5  1  0
  7  6  1  0
  8  9  2  0
  8  2  1  0
 11 10  1  6
 11 13  1  0
 12 11  1  0
 13 14  1  6
 14  8  1  0
 15 13  1  0
 16 15  2  0
 18 17  1  0
 19 18  2  0
 20 18  1  0
 21 20  1  0
 21 22  1  0
 22 23  1  0
 24 23  1  1
 24 26  1  0
 24 25  1  0
 25 15  1  0
 26 27  1  0
 28 26  2  0
M  END
$$$$
