KTR.pdb
     RDKit          3D

 28 27  0  0  1  0  0  0  0  0999 V2000
   15.6480  -26.2527  -10.3304 N   0  0  0  0  0  0  0  0  0  0  0  0
   16.0570  -24.8667  -10.4482 C   0  0  1  0  0  0  0  0  0  0  0  0
   16.0924  -24.2144   -9.0862 C   0  0  0  0  0  0  0  0  0  0  0  0
   16.2239  -25.1835   -7.9684 C   0  0  0  0  0  0  0  0  0  0  0  0
   17.3144  -24.9170   -7.0037 C   0  0  0  0  0  0  0  0  0  0  0  0
   17.3350  -25.8224   -5.8083 C   0  0  0  0  0  0  0  0  0  0  0  0
   18.4144  -25.4387   -4.9115 N   0  0  0  0  0  0  0  0  0  0  0  0
   17.3446  -24.8184  -11.1403 C   0  0  0  0  0  0  0  0  0  0  0  0
   18.2141  -25.7472  -10.9993 O   0  0  0  0  0  0  0  0  0  0  0  0
   18.0552  -25.5604  -14.2731 C   0  0  0  0  0  0  0  0  0  0  0  0
   18.5341  -24.1231  -14.2230 C   0  0  1  0  0  0  0  0  0  0  0  0
   17.6093  -23.2344  -14.7055 O   0  0  0  0  0  0  0  0  0  0  0  0
   18.9810  -23.8383  -12.8022 C   0  0  2  0  0  0  0  0  0  0  0  0
   17.7493  -23.7647  -12.0156 N   0  0  0  0  0  0  0  0  0  0  0  0
   19.7585  -22.5807  -12.6931 C   0  0  0  0  0  0  0  0  0  0  0  0
   19.2514  -21.5153  -12.2458 O   0  0  0  0  0  0  0  0  0  0  0  0
   28.3878  -21.0058  -14.0455 N   0  0  0  0  0  0  0  0  0  0  0  0
   27.6829  -19.9178  -14.6370 C   0  0  0  0  0  0  0  0  0  0  0  0
   28.3720  -18.9582  -15.1698 N   0  0  0  0  0  0  0  0  0  0  0  0
   26.2697  -19.8511  -14.6624 N   0  0  0  0  0  0  0  0  0  0  0  0
   25.4253  -20.9278  -14.1939 C   0  0  0  0  0  0  0  0  0  0  0  0
   23.9722  -20.5407  -14.4539 C   0  0  0  0  0  0  0  0  0  0  0  0
   23.1251  -21.7081  -14.0409 C   0  0  0  0  0  0  0  0  0  0  0  0
   21.9027  -21.3517  -13.2507 C   0  0  2  0  0  0  0  0  0  0  0  0
   21.1002  -22.5727  -13.0990 N   0  0  0  0  0  0  0  0  0  0  0  0
   21.0908  -20.3807  -14.0117 C   0  0  0  0  0  0  0  0  0  0  0  0
   21.0605  -19.0302  -13.6200 O   0  0  0  0  0  0  0  0  0  0  0  0
   20.3946  -20.6724  -15.0233 O   0  0  0  0  0  0  0  0  0  0  0  0
  2  1  1  1
  3  2  1  0
  4  3  1  0
  5  4  1  0
  6  5  1  0
  7  6  1  0
  8  9  2  0
  8  2  1  0
 11 10  1  1
 11 13  1  0
 12 11  1  0
 13 14  1  1
 14  8  1  0
 15 13  1  0
 16 15  2  0
 18 17  1  0
 19 18  2  0
 20 18  1  0
 21 20  1  0
 21 22  1  0
 22 23  1  0
 24 23  1  6
 24 26  1  0
 24 25  1  0
 25 15  1  0
 26 27  1  0
 28 26  2  0
M  END
$$$$
