KTR.pdb
     RDKit          3D

 28 27  0  0  1  0  0  0  0  0999 V2000
   23.9120  -22.2735  -18.1831 N   0  0  0  0  0  0  0  0  0  0  0  0
   25.0953  -21.4356  -18.1851 C   0  0  1  0  0  0  0  0  0  0  0  0
   25.1773  -20.6498  -19.4726 C   0  0  0  0  0  0  0  0  0  0  0  0
   24.9467  -21.4748  -20.6859 C   0  0  0  0  0  0  0  0  0  0  0  0
   26.1268  -21.7013  -21.5502 C   0  0  0  0  0  0  0  0  0  0  0  0
   25.8414  -22.4286  -22.8304 C   0  0  0  0  0  0  0  0  0  0  0  0
   27.0592  -22.5484  -23.6173 N   0  0  0  0  0  0  0  0  0  0  0  0
   25.0655  -20.5850  -16.9956 C   0  0  0  0  0  0  0  0  0  0  0  0
   25.8044  -19.5441  -16.9000 O   0  0  0  0  0  0  0  0  0  0  0  0
   23.0629  -18.2689  -15.9294 C   0  0  0  0  0  0  0  0  0  0  0  0
   23.0095  -19.1552  -14.7009 C   0  0  1  0  0  0  0  0  0  0  0  0
   21.8663  -19.9078  -14.6340 O   0  0  0  0  0  0  0  0  0  0  0  0
   24.2878  -19.9702  -14.6681 C   0  0  2  0  0  0  0  0  0  0  0  0
   24.2358  -20.8213  -15.8573 N   0  0  0  0  0  0  0  0  0  0  0  0
   24.4102  -20.7847  -13.4353 C   0  0  0  0  0  0  0  0  0  0  0  0
   24.1321  -22.0153  -13.4140 O   0  0  0  0  0  0  0  0  0  0  0  0
   28.7054  -18.3188   -5.9708 N   0  0  0  0  0  0  0  0  0  0  0  0
   28.1167  -19.5933   -5.7270 C   0  0  0  0  0  0  0  0  0  0  0  0
   28.3181  -20.1511   -4.5747 N   0  0  0  0  0  0  0  0  0  0  0  0
   27.3268  -20.2631   -6.6911 N   0  0  0  0  0  0  0  0  0  0  0  0
   27.0963  -19.7372   -8.0185 C   0  0  0  0  0  0  0  0  0  0  0  0
   26.1094  -20.6582   -8.7305 C   0  0  0  0  0  0  0  0  0  0  0  0
   25.9511  -20.1370  -10.1285 C   0  0  0  0  0  0  0  0  0  0  0  0
   24.9268  -20.8526  -10.9559 C   0  0  2  0  0  0  0  0  0  0  0  0
   24.8489  -20.1700  -12.2543 N   0  0  0  0  0  0  0  0  0  0  0  0
   23.6029  -20.7314  -10.3126 C   0  0  0  0  0  0  0  0  0  0  0  0
   22.6500  -19.8349  -10.8289 O   0  0  0  0  0  0  0  0  0  0  0  0
   23.2408  -21.3904   -9.2988 O   0  0  0  0  0  0  0  0  0  0  0  0
  2  1  1  6
  3  2  1  0
  4  3  1  0
  5  4  1  0
  6  5  1  0
  7  6  1  0
  8  9  2  0
  8  2  1  0
 11 10  1  6
 11 13  1  0
 12 11  1  0
 13 14  1  6
 14  8  1  0
 15 13  1  0
 16 15  2  0
 18 17  1  0
 19 18  2  0
 20 18  1  0
 21 20  1  0
 21 22  1  0
 22 23  1  0
 24 23  1  1
 24 26  1  0
 24 25  1  0
 25 15  1  0
 26 27  1  0
 28 26  2  0
M  END
$$$$
