KTR.pdb
     RDKit          3D

 28 27  0  0  1  0  0  0  0  0999 V2000
   29.7182  -22.1073  -19.1221 N   0  0  0  0  0  0  0  0  0  0  0  0
   29.0075  -22.7113  -18.0120 C   0  0  1  0  0  0  0  0  0  0  0  0
   29.9156  -23.6578  -17.2626 C   0  0  0  0  0  0  0  0  0  0  0  0
   30.5150  -24.7095  -18.1231 C   0  0  0  0  0  0  0  0  0  0  0  0
   31.3532  -25.7141  -17.4309 C   0  0  0  0  0  0  0  0  0  0  0  0
   31.9756  -26.7427  -18.3275 C   0  0  0  0  0  0  0  0  0  0  0  0
   32.7674  -27.6756  -17.5406 N   0  0  0  0  0  0  0  0  0  0  0  0
   28.4695  -21.6448  -17.1680 C   0  0  0  0  0  0  0  0  0  0  0  0
   29.0380  -20.5001  -17.0944 O   0  0  0  0  0  0  0  0  0  0  0  0
   27.6971  -19.2076  -17.3684 C   0  0  0  0  0  0  0  0  0  0  0  0
   26.4018  -19.5948  -16.6829 C   0  0  1  0  0  0  0  0  0  0  0  0
   25.4269  -19.9845  -17.5634 O   0  0  0  0  0  0  0  0  0  0  0  0
   26.7337  -20.6341  -15.6299 C   0  0  2  0  0  0  0  0  0  0  0  0
   27.2936  -21.7677  -16.3667 N   0  0  0  0  0  0  0  0  0  0  0  0
   25.5458  -21.0447  -14.8434 C   0  0  0  0  0  0  0  0  0  0  0  0
   24.7671  -21.9583  -15.2320 O   0  0  0  0  0  0  0  0  0  0  0  0
   23.0105  -20.2261   -7.2979 N   0  0  0  0  0  0  0  0  0  0  0  0
   23.9919  -21.2591   -7.2993 C   0  0  0  0  0  0  0  0  0  0  0  0
   23.7950  -22.2927   -6.5426 N   0  0  0  0  0  0  0  0  0  0  0  0
   25.1623  -21.1951   -8.0919 N   0  0  0  0  0  0  0  0  0  0  0  0
   25.2622  -20.3735   -9.2780 C   0  0  0  0  0  0  0  0  0  0  0  0
   24.1351  -20.7694  -10.2276 C   0  0  0  0  0  0  0  0  0  0  0  0
   24.3120  -19.9636  -11.4808 C   0  0  0  0  0  0  0  0  0  0  0  0
   24.1455  -20.7346  -12.7549 C   0  0  2  0  0  0  0  0  0  0  0  0
   25.2774  -20.3985  -13.6287 N   0  0  0  0  0  0  0  0  0  0  0  0
   22.9129  -20.2941  -13.4389 C   0  0  0  0  0  0  0  0  0  0  0  0
   21.6913  -20.9368  -13.1689 O   0  0  0  0  0  0  0  0  0  0  0  0
   22.8618  -19.3529  -14.2783 O   0  0  0  0  0  0  0  0  0  0  0  0
  2  1  1  6
  3  2  1  0
  4  3  1  0
  5  4  1  0
  6  5  1  0
  7  6  1  0
  8  9  2  0
  8  2  1  0
 11 10  1  6
 11 13  1  0
 12 11  1  0
 13 14  1  6
 14  8  1  0
 15 13  1  0
 16 15  2  0
 18 17  1  0
 19 18  2  0
 20 18  1  0
 21 20  1  0
 21 22  1  0
 22 23  1  0
 24 23  1  1
 24 26  1  0
 24 25  1  0
 25 15  1  0
 26 27  1  0
 28 26  2  0
M  END
$$$$
