KTR.pdb
     RDKit          3D

 28 27  0  0  1  0  0  0  0  0999 V2000
   24.1700  -13.4906  -17.2059 N   0  0  0  0  0  0  0  0  0  0  0  0
   23.4014  -12.3960  -17.7656 C   0  0  1  0  0  0  0  0  0  0  0  0
   22.6310  -12.8641  -18.9777 C   0  0  0  0  0  0  0  0  0  0  0  0
   23.1980  -14.0851  -19.6049 C   0  0  0  0  0  0  0  0  0  0  0  0
   22.5654  -14.5173  -20.8713 C   0  0  0  0  0  0  0  0  0  0  0  0
   23.1704  -15.7402  -21.4940 C   0  0  0  0  0  0  0  0  0  0  0  0
   22.5005  -16.0432  -22.7494 N   0  0  0  0  0  0  0  0  0  0  0  0
   22.5420  -11.8468  -16.7172 C   0  0  0  0  0  0  0  0  0  0  0  0
   21.9374  -12.6065  -15.8828 O   0  0  0  0  0  0  0  0  0  0  0  0
   23.3456  -10.2777  -13.9142 C   0  0  0  0  0  0  0  0  0  0  0  0
   22.4029   -9.2400  -14.4906 C   0  0  1  0  0  0  0  0  0  0  0  0
   23.0584   -8.1778  -15.0561 O   0  0  0  0  0  0  0  0  0  0  0  0
   21.4565   -9.9552  -15.4352 C   0  0  2  0  0  0  0  0  0  0  0  0
   22.2980  -10.4528  -16.5240 N   0  0  0  0  0  0  0  0  0  0  0  0
   20.3893   -9.0647  -15.9513 C   0  0  0  0  0  0  0  0  0  0  0  0
   20.5209   -8.4111  -17.0225 O   0  0  0  0  0  0  0  0  0  0  0  0
   11.8487   -8.9675  -13.2201 N   0  0  0  0  0  0  0  0  0  0  0  0
   12.0005   -7.9892  -14.2449 C   0  0  0  0  0  0  0  0  0  0  0  0
   10.9378   -7.3910  -14.6834 N   0  0  0  0  0  0  0  0  0  0  0  0
   13.2603   -7.6520  -14.7938 N   0  0  0  0  0  0  0  0  0  0  0  0
   14.4818   -8.3371  -14.4327 C   0  0  0  0  0  0  0  0  0  0  0  0
   15.6329   -7.6948  -15.2017 C   0  0  0  0  0  0  0  0  0  0  0  0
   16.8633   -8.5014  -14.9070 C   0  0  0  0  0  0  0  0  0  0  0  0
   18.1095   -8.0214  -15.5868 C   0  0  2  0  0  0  0  0  0  0  0  0
   19.1948   -8.9439  -15.2277 N   0  0  0  0  0  0  0  0  0  0  0  0
   18.4719   -6.6880  -15.0654 C   0  0  0  0  0  0  0  0  0  0  0  0
   18.0164   -5.5296  -15.7203 O   0  0  0  0  0  0  0  0  0  0  0  0
   19.1840   -6.4931  -14.0416 O   0  0  0  0  0  0  0  0  0  0  0  0
  2  1  1  1
  3  2  1  0
  4  3  1  0
  5  4  1  0
  6  5  1  0
  7  6  1  0
  8  9  2  0
  8  2  1  0
 11 10  1  6
 11 13  1  0
 12 11  1  0
 13 14  1  6
 14  8  1  0
 15 13  1  0
 16 15  2  0
 18 17  1  0
 19 18  2  0
 20 18  1  0
 21 20  1  0
 21 22  1  0
 22 23  1  0
 24 23  1  1
 24 26  1  0
 24 25  1  0
 25 15  1  0
 26 27  1  0
 28 26  2  0
M  END
$$$$
