KTR.pdb
     RDKit          3D

 28 27  0  0  1  0  0  0  0  0999 V2000
   22.7915  -19.2333  -17.4638 N   0  0  0  0  0  0  0  0  0  0  0  0
   22.4012  -20.5842  -17.1103 C   0  0  1  0  0  0  0  0  0  0  0  0
   23.4910  -21.5594  -17.4891 C   0  0  0  0  0  0  0  0  0  0  0  0
   24.2528  -21.1559  -18.6985 C   0  0  0  0  0  0  0  0  0  0  0  0
   25.2630  -22.1239  -19.1817 C   0  0  0  0  0  0  0  0  0  0  0  0
   25.9306  -21.7489  -20.4712 C   0  0  0  0  0  0  0  0  0  0  0  0
   26.8796  -22.7812  -20.8593 N   0  0  0  0  0  0  0  0  0  0  0  0
   22.0735  -20.6164  -15.6853 C   0  0  0  0  0  0  0  0  0  0  0  0
   22.6518  -19.8387  -14.8490 O   0  0  0  0  0  0  0  0  0  0  0  0
   21.1337  -18.9366  -13.9420 C   0  0  0  0  0  0  0  0  0  0  0  0
   20.0272  -19.9370  -13.6726 C   0  0  1  0  0  0  0  0  0  0  0  0
   18.9465  -19.7740  -14.4991 O   0  0  0  0  0  0  0  0  0  0  0  0
   20.6401  -21.3230  -13.7240 C   0  0  2  0  0  0  0  0  0  0  0  0
   21.1062  -21.4900  -15.1010 N   0  0  0  0  0  0  0  0  0  0  0  0
   19.6732  -22.3852  -13.3566 C   0  0  0  0  0  0  0  0  0  0  0  0
   18.8768  -22.8871  -14.1968 O   0  0  0  0  0  0  0  0  0  0  0  0
   16.4795  -24.8143   -6.3323 N   0  0  0  0  0  0  0  0  0  0  0  0
   16.8004  -26.1493   -6.7132 C   0  0  0  0  0  0  0  0  0  0  0  0
   15.9757  -27.0946   -6.3878 N   0  0  0  0  0  0  0  0  0  0  0  0
   17.9773  -26.4741   -7.4284 N   0  0  0  0  0  0  0  0  0  0  0  0
   18.7944  -25.4789   -8.0871 C   0  0  0  0  0  0  0  0  0  0  0  0
   18.2216  -25.2398   -9.4813 C   0  0  0  0  0  0  0  0  0  0  0  0
   19.1029  -24.2270  -10.1513 C   0  0  0  0  0  0  0  0  0  0  0  0
   18.6827  -23.8449  -11.5381 C   0  0  2  0  0  0  0  0  0  0  0  0
   19.6412  -22.8484  -12.0339 N   0  0  0  0  0  0  0  0  0  0  0  0
   17.3565  -23.1969  -11.4893 C   0  0  0  0  0  0  0  0  0  0  0  0
   16.2040  -23.9282  -11.8286 O   0  0  0  0  0  0  0  0  0  0  0  0
   17.1631  -21.9950  -11.1559 O   0  0  0  0  0  0  0  0  0  0  0  0
  2  1  1  1
  3  2  1  0
  4  3  1  0
  5  4  1  0
  6  5  1  0
  7  6  1  0
  8  9  2  0
  8  2  1  0
 11 10  1  6
 11 13  1  0
 12 11  1  0
 13 14  1  6
 14  8  1  0
 15 13  1  0
 16 15  2  0
 18 17  1  0
 19 18  2  0
 20 18  1  0
 21 20  1  0
 21 22  1  0
 22 23  1  0
 24 23  1  1
 24 26  1  0
 24 25  1  0
 25 15  1  0
 26 27  1  0
 28 26  2  0
M  END
$$$$
