KTR.pdb
     RDKit          3D

 28 27  0  0  1  0  0  0  0  0999 V2000
   17.0492  -11.5003  -16.8774 N   0  0  0  0  0  0  0  0  0  0  0  0
   17.4887  -10.3085  -16.1783 C   0  0  1  0  0  0  0  0  0  0  0  0
   17.5225   -9.1304  -17.1232 C   0  0  0  0  0  0  0  0  0  0  0  0
   18.0845   -9.4580  -18.4585 C   0  0  0  0  0  0  0  0  0  0  0  0
   19.4142   -8.8826  -18.7614 C   0  0  0  0  0  0  0  0  0  0  0  0
   19.8555   -9.0292  -20.1872 C   0  0  0  0  0  0  0  0  0  0  0  0
   21.1371   -8.3689  -20.3823 N   0  0  0  0  0  0  0  0  0  0  0  0
   16.6126  -10.0945  -15.0268 C   0  0  0  0  0  0  0  0  0  0  0  0
   15.3402  -10.1927  -15.1281 O   0  0  0  0  0  0  0  0  0  0  0  0
   16.0089  -12.0733  -12.4766 C   0  0  0  0  0  0  0  0  0  0  0  0
   16.4288  -10.8392  -11.7031 C   0  0  1  0  0  0  0  0  0  0  0  0
   17.7158  -10.9119  -11.2384 O   0  0  0  0  0  0  0  0  0  0  0  0
   16.1568   -9.6334  -12.5814 C   0  0  2  0  0  0  0  0  0  0  0  0
   17.0724   -9.7652  -13.7152 N   0  0  0  0  0  0  0  0  0  0  0  0
   16.3731   -8.3516  -11.8685 C   0  0  0  0  0  0  0  0  0  0  0  0
   17.3955   -7.6389  -12.0652 O   0  0  0  0  0  0  0  0  0  0  0  0
   10.4842   -4.7614   -6.0967 N   0  0  0  0  0  0  0  0  0  0  0  0
   11.6756   -3.9817   -6.0429 C   0  0  0  0  0  0  0  0  0  0  0  0
   11.7432   -3.0249   -5.1713 N   0  0  0  0  0  0  0  0  0  0  0  0
   12.7767   -4.2153   -6.9002 N   0  0  0  0  0  0  0  0  0  0  0  0
   12.8128   -5.3043   -7.8513 C   0  0  0  0  0  0  0  0  0  0  0  0
   14.1717   -5.2849   -8.5457 C   0  0  0  0  0  0  0  0  0  0  0  0
   14.1998   -6.4502   -9.4904 C   0  0  0  0  0  0  0  0  0  0  0  0
   15.4997   -6.6475  -10.2095 C   0  0  2  0  0  0  0  0  0  0  0  0
   15.4119   -7.9154  -10.9460 N   0  0  0  0  0  0  0  0  0  0  0  0
   16.5913   -6.7833   -9.2241 C   0  0  0  0  0  0  0  0  0  0  0  0
   17.2301   -5.6359   -8.7203 O   0  0  0  0  0  0  0  0  0  0  0  0
   17.0158   -7.8855   -8.7788 O   0  0  0  0  0  0  0  0  0  0  0  0
  2  1  1  6
  3  2  1  0
  4  3  1  0
  5  4  1  0
  6  5  1  0
  7  6  1  0
  8  9  2  0
  8  2  1  0
 11 10  1  6
 11 13  1  0
 12 11  1  0
 13 14  1  6
 14  8  1  0
 15 13  1  0
 16 15  2  0
 18 17  1  0
 19 18  2  0
 20 18  1  0
 21 20  1  0
 21 22  1  0
 22 23  1  0
 24 23  1  1
 24 26  1  0
 24 25  1  0
 25 15  1  0
 26 27  1  0
 28 26  2  0
M  END
$$$$
