KTR.pdb
     RDKit          3D

 28 27  0  0  1  0  0  0  0  0999 V2000
   28.9289  -16.7698  -19.6610 N   0  0  0  0  0  0  0  0  0  0  0  0
   28.5401  -18.0516  -19.1059 C   0  0  1  0  0  0  0  0  0  0  0  0
   29.7476  -18.9485  -18.9655 C   0  0  0  0  0  0  0  0  0  0  0  0
   30.4469  -19.2059  -20.2503 C   0  0  0  0  0  0  0  0  0  0  0  0
   31.5702  -20.1682  -20.1959 C   0  0  0  0  0  0  0  0  0  0  0  0
   32.2694  -20.3969  -21.5028 C   0  0  0  0  0  0  0  0  0  0  0  0
   33.3218  -21.3877  -21.3379 N   0  0  0  0  0  0  0  0  0  0  0  0
   27.8484  -17.8194  -17.8383 C   0  0  0  0  0  0  0  0  0  0  0  0
   28.1366  -16.8190  -17.0934 O   0  0  0  0  0  0  0  0  0  0  0  0
   24.8448  -16.6450  -17.1906 C   0  0  0  0  0  0  0  0  0  0  0  0
   24.7408  -17.9462  -16.4201 C   0  0  1  0  0  0  0  0  0  0  0  0
   24.0245  -18.9060  -17.0861 O   0  0  0  0  0  0  0  0  0  0  0  0
   26.1478  -18.3726  -16.0488 C   0  0  2  0  0  0  0  0  0  0  0  0
   26.8147  -18.6577  -17.3197 N   0  0  0  0  0  0  0  0  0  0  0  0
   26.1654  -19.5594  -15.1603 C   0  0  0  0  0  0  0  0  0  0  0  0
   26.3793  -20.7229  -15.5993 O   0  0  0  0  0  0  0  0  0  0  0  0
   22.1919  -20.7761   -8.3718 N   0  0  0  0  0  0  0  0  0  0  0  0
   23.3201  -21.3440   -7.7121 C   0  0  0  0  0  0  0  0  0  0  0  0
   23.1078  -22.1715   -6.7375 N   0  0  0  0  0  0  0  0  0  0  0  0
   24.6511  -21.0380   -8.0822 N   0  0  0  0  0  0  0  0  0  0  0  0
   24.9767  -20.0989   -9.1327 C   0  0  0  0  0  0  0  0  0  0  0  0
   25.2726  -20.8902  -10.4036 C   0  0  0  0  0  0  0  0  0  0  0  0
   25.6288  -19.8952  -11.4687 C   0  0  0  0  0  0  0  0  0  0  0  0
   25.9065  -20.4873  -12.8171 C   0  0  2  0  0  0  0  0  0  0  0  0
   25.9376  -19.3855  -13.7881 N   0  0  0  0  0  0  0  0  0  0  0  0
   24.7958  -21.3824  -13.1994 C   0  0  0  0  0  0  0  0  0  0  0  0
   24.9321  -22.7745  -13.0511 O   0  0  0  0  0  0  0  0  0  0  0  0
   23.6916  -20.9878  -13.6666 O   0  0  0  0  0  0  0  0  0  0  0  0
  2  1  1  1
  3  2  1  0
  4  3  1  0
  5  4  1  0
  6  5  1  0
  7  6  1  0
  8  9  2  0
  8  2  1  0
 11 10  1  6
 11 13  1  0
 12 11  1  0
 13 14  1  6
 14  8  1  0
 15 13  1  0
 16 15  2  0
 18 17  1  0
 19 18  2  0
 20 18  1  0
 21 20  1  0
 21 22  1  0
 22 23  1  0
 24 23  1  1
 24 26  1  0
 24 25  1  0
 25 15  1  0
 26 27  1  0
 28 26  2  0
M  END
$$$$
