FHD.pdb
     RDKit          3D

 30 31  0  0  1  0  0  0  0  0999 V2000
    8.2563  -15.4879   25.1332 N   0  0  0  0  0  0  0  0  0  0  0  0
    7.2857  -15.3721   24.0439 C   0  0  1  0  0  0  0  0  0  0  0  0
    6.9699  -13.9019   23.9127 C   0  0  0  0  0  0  0  0  0  0  0  0
    6.9170  -13.3319   25.2844 C   0  0  0  0  0  0  0  0  0  0  0  0
    5.9232  -13.6549   26.1822 C   0  0  0  0  0  0  0  0  0  0  0  0
    5.9052  -13.1016   27.4578 C   0  0  0  0  0  0  0  0  0  0  0  0
    6.8808  -12.2123   27.8653 C   0  0  0  0  0  0  0  0  0  0  0  0
    7.8782  -11.8824   26.9774 C   0  0  0  0  0  0  0  0  0  0  0  0
    7.8897  -12.4347   25.7143 C   0  0  0  0  0  0  0  0  0  0  0  0
    7.9260  -15.9252   22.8332 C   0  0  0  0  0  0  0  0  0  0  0  0
    7.3923  -16.8500   22.1366 O   0  0  0  0  0  0  0  0  0  0  0  0
    9.1767  -15.4933   22.3296 N   0  0  0  0  0  0  0  0  0  0  0  0
    9.8226  -16.0027   21.1655 C   0  0  1  0  0  0  0  0  0  0  0  0
   10.1659  -15.0173   20.1154 C   0  0  0  0  0  0  0  0  0  0  0  0
    8.9307  -14.2386   19.7961 C   0  0  0  0  0  0  0  0  0  0  0  0
    7.9612  -14.5411   18.8477 C   0  0  0  0  0  0  0  0  0  0  0  0
    7.0025  -13.6248   18.8406 N   0  0  0  0  0  0  0  0  0  0  0  0
    7.3294  -12.7179   19.7766 C   0  0  0  0  0  0  0  0  0  0  0  0
    8.5025  -13.0913   20.3579 N   0  0  0  0  0  0  0  0  0  0  0  0
   10.9331  -16.8792   21.5855 C   0  0  0  0  0  0  0  0  0  0  0  0
   11.6522  -17.4639   20.7338 O   0  0  0  0  0  0  0  0  0  0  0  0
   11.2698  -17.1252   22.9664 N   0  0  0  0  0  0  0  0  0  0  0  0
   12.3167  -18.0092   23.3687 C   0  0  1  0  0  0  0  0  0  0  0  0
   13.0019  -17.4505   24.5972 C   0  0  0  0  0  0  0  0  0  0  0  0
   14.0690  -18.3202   25.0987 C   0  0  0  0  0  0  0  0  0  0  0  0
   15.0742  -18.5695   24.4021 O   0  0  0  0  0  0  0  0  0  0  0  0
   11.8936  -19.4002   23.5334 C   0  0  0  0  0  0  0  0  0  0  0  0
   10.7128  -19.7236   23.8414 O   0  0  0  0  0  0  0  0  0  0  0  0
   13.9745  -18.8775   26.3555 O   0  0  0  0  0  0  0  0  0  0  0  0
   12.7852  -20.4512   23.3559 O   0  0  0  0  0  0  0  0  0  0  0  0
  2  1  1  1
  2 10  1  0
  3  2  1  0
  3  4  1  0
  4  5  2  0
  4  9  1  0
  5  6  1  0
  6  7  2  0
  8  7  1  0
  9  8  2  0
 10 11  2  0
 12 10  1  0
 12 13  1  0
 13 20  1  0
 13 14  1  1
 14 15  1  0
 15 16  2  0
 16 17  1  0
 18 17  1  0
 19 15  1  0
 19 18  2  0
 20 21  2  0
 22 23  1  0
 22 20  1  0
 23 27  1  0
 23 24  1  1
 25 24  1  0
 25 29  1  0
 26 25  2  0
 27 28  2  0
 27 30  1  0
M  END
$$$$
