FHD.pdb
     RDKit          3D

 30 31  0  0  1  0  0  0  0  0999 V2000
    5.5759  -17.1844   25.2931 N   0  0  0  0  0  0  0  0  0  0  0  0
    6.1360  -15.8770   24.9483 C   0  0  1  0  0  0  0  0  0  0  0  0
    7.2331  -15.6088   25.9497 C   0  0  0  0  0  0  0  0  0  0  0  0
    7.1416  -14.1777   26.3406 C   0  0  0  0  0  0  0  0  0  0  0  0
    8.1082  -13.2553   26.0044 C   0  0  0  0  0  0  0  0  0  0  0  0
    7.9895  -11.9240   26.3878 C   0  0  0  0  0  0  0  0  0  0  0  0
    6.9013  -11.4839   27.1162 C   0  0  0  0  0  0  0  0  0  0  0  0
    5.9297  -12.3958   27.4577 C   0  0  0  0  0  0  0  0  0  0  0  0
    6.0539  -13.7142   27.0743 C   0  0  0  0  0  0  0  0  0  0  0  0
    6.6426  -15.9746   23.5643 C   0  0  0  0  0  0  0  0  0  0  0  0
    6.7273  -17.0839   22.9416 O   0  0  0  0  0  0  0  0  0  0  0  0
    7.0791  -14.8662   22.7992 N   0  0  0  0  0  0  0  0  0  0  0  0
    7.5309  -14.9174   21.4483 C   0  0  1  0  0  0  0  0  0  0  0  0
    7.7184  -13.6179   20.7643 C   0  0  0  0  0  0  0  0  0  0  0  0
    8.0881  -13.8971   19.3433 C   0  0  0  0  0  0  0  0  0  0  0  0
    7.8181  -15.0453   18.6086 C   0  0  0  0  0  0  0  0  0  0  0  0
    8.2954  -14.9425   17.3756 N   0  0  0  0  0  0  0  0  0  0  0  0
    8.8793  -13.7355   17.2878 C   0  0  0  0  0  0  0  0  0  0  0  0
    8.7533  -13.0996   18.4849 N   0  0  0  0  0  0  0  0  0  0  0  0
    8.6831  -15.8361   21.3689 C   0  0  0  0  0  0  0  0  0  0  0  0
    8.8496  -16.5784   20.3661 O   0  0  0  0  0  0  0  0  0  0  0  0
    9.6790  -15.9497   22.4062 N   0  0  0  0  0  0  0  0  0  0  0  0
   10.7119  -16.9358   22.3917 C   0  0  1  0  0  0  0  0  0  0  0  0
   11.6948  -16.6179   21.2857 C   0  0  0  0  0  0  0  0  0  0  0  0
   12.5487  -15.4684   21.5961 C   0  0  0  0  0  0  0  0  0  0  0  0
   13.4276  -15.0873   20.7959 O   0  0  0  0  0  0  0  0  0  0  0  0
   11.3580  -17.1430   23.6882 C   0  0  0  0  0  0  0  0  0  0  0  0
   11.0925  -16.4420   24.7040 O   0  0  0  0  0  0  0  0  0  0  0  0
   12.3902  -14.7894   22.7847 O   0  0  0  0  0  0  0  0  0  0  0  0
   12.3112  -18.1381   23.8682 O   0  0  0  0  0  0  0  0  0  0  0  0
  2  1  1  1
  2 10  1  0
  3  2  1  0
  3  4  1  0
  4  5  2  0
  4  9  1  0
  5  6  1  0
  6  7  2  0
  8  7  1  0
  9  8  2  0
 10 11  2  0
 12 10  1  0
 12 13  1  0
 13 20  1  0
 13 14  1  1
 14 15  1  0
 15 16  2  0
 16 17  1  0
 18 17  1  0
 19 15  1  0
 19 18  2  0
 20 21  2  0
 22 23  1  0
 22 20  1  0
 23 27  1  0
 23 24  1  6
 25 24  1  0
 25 29  1  0
 26 25  2  0
 27 28  2  0
 27 30  1  0
M  END
$$$$
