FHD.pdb
     RDKit          3D

 30 31  0  0  1  0  0  0  0  0999 V2000
    7.0754  -17.2648   26.2868 N   0  0  0  0  0  0  0  0  0  0  0  0
    7.6604  -16.0139   25.8019 C   0  0  1  0  0  0  0  0  0  0  0  0
    9.1188  -16.0503   26.1895 C   0  0  0  0  0  0  0  0  0  0  0  0
    9.3091  -15.0867   27.3051 C   0  0  0  0  0  0  0  0  0  0  0  0
    9.8488  -15.4557   28.5178 C   0  0  0  0  0  0  0  0  0  0  0  0
   10.0117  -14.5268   29.5396 C   0  0  0  0  0  0  0  0  0  0  0  0
    9.6388  -13.2071   29.3725 C   0  0  0  0  0  0  0  0  0  0  0  0
    9.0987  -12.8270   28.1658 C   0  0  0  0  0  0  0  0  0  0  0  0
    8.9401  -13.7533   27.1572 C   0  0  0  0  0  0  0  0  0  0  0  0
    7.4628  -15.9825   24.3385 C   0  0  0  0  0  0  0  0  0  0  0  0
    7.0072  -16.9787   23.6864 O   0  0  0  0  0  0  0  0  0  0  0  0
    7.7540  -14.8627   23.5226 N   0  0  0  0  0  0  0  0  0  0  0  0
    7.7273  -14.8456   22.0976 C   0  0  1  0  0  0  0  0  0  0  0  0
    7.8634  -13.5216   21.4497 C   0  0  0  0  0  0  0  0  0  0  0  0
    7.7107  -13.7148   19.9755 C   0  0  0  0  0  0  0  0  0  0  0  0
    7.5446  -14.9132   19.2919 C   0  0  0  0  0  0  0  0  0  0  0  0
    7.4403  -14.7039   17.9864 N   0  0  0  0  0  0  0  0  0  0  0  0
    7.5360  -13.3767   17.8001 C   0  0  0  0  0  0  0  0  0  0  0  0
    7.7006  -12.7749   19.0101 N   0  0  0  0  0  0  0  0  0  0  0  0
    8.6475  -15.8839   21.5944 C   0  0  0  0  0  0  0  0  0  0  0  0
    8.4892  -16.3890   20.4524 O   0  0  0  0  0  0  0  0  0  0  0  0
    9.7678  -16.3847   22.3525 N   0  0  0  0  0  0  0  0  0  0  0  0
   10.8712  -17.0673   21.7557 C   0  0  1  0  0  0  0  0  0  0  0  0
   11.4422  -16.2197   20.6394 C   0  0  0  0  0  0  0  0  0  0  0  0
   12.5970  -16.8415   19.9863 C   0  0  0  0  0  0  0  0  0  0  0  0
   12.6437  -18.0754   19.8041 O   0  0  0  0  0  0  0  0  0  0  0  0
   11.8860  -17.5122   22.7116 C   0  0  0  0  0  0  0  0  0  0  0  0
   11.9862  -17.0324   23.8749 O   0  0  0  0  0  0  0  0  0  0  0  0
   13.6535  -16.0650   19.5623 O   0  0  0  0  0  0  0  0  0  0  0  0
   12.8043  -18.5012   22.3804 O   0  0  0  0  0  0  0  0  0  0  0  0
  2  1  1  6
  2 10  1  0
  3  2  1  0
  3  4  1  0
  4  5  2  0
  4  9  1  0
  5  6  1  0
  6  7  2  0
  8  7  1  0
  9  8  2  0
 10 11  2  0
 12 10  1  0
 12 13  1  0
 13 20  1  0
 13 14  1  6
 14 15  1  0
 15 16  2  0
 16 17  1  0
 18 17  1  0
 19 15  1  0
 19 18  2  0
 20 21  2  0
 22 23  1  0
 22 20  1  0
 23 27  1  0
 23 24  1  6
 25 24  1  0
 25 29  1  0
 26 25  2  0
 27 28  2  0
 27 30  1  0
M  END
$$$$
