FHD.pdb
     RDKit          3D

 30 31  0  0  1  0  0  0  0  0999 V2000
    8.6231  -16.1759   16.3424 N   0  0  0  0  0  0  0  0  0  0  0  0
    8.7480  -15.1885   17.4154 C   0  0  1  0  0  0  0  0  0  0  0  0
    7.4876  -15.2963   18.2389 C   0  0  0  0  0  0  0  0  0  0  0  0
    7.6978  -14.5107   19.4831 C   0  0  0  0  0  0  0  0  0  0  0  0
    7.6817  -15.0874   20.7342 C   0  0  0  0  0  0  0  0  0  0  0  0
    7.8819  -14.3209   21.8769 C   0  0  0  0  0  0  0  0  0  0  0  0
    8.1031  -12.9596   21.7952 C   0  0  0  0  0  0  0  0  0  0  0  0
    8.1214  -12.3727   20.5513 C   0  0  0  0  0  0  0  0  0  0  0  0
    7.9221  -13.1388   19.4227 C   0  0  0  0  0  0  0  0  0  0  0  0
    9.9598  -15.5366   18.1849 C   0  0  0  0  0  0  0  0  0  0  0  0
   10.2258  -16.7312   18.5422 O   0  0  0  0  0  0  0  0  0  0  0  0
   10.9343  -14.5964   18.5982 N   0  0  0  0  0  0  0  0  0  0  0  0
   12.1168  -14.8973   19.3350 C   0  0  1  0  0  0  0  0  0  0  0  0
   13.1877  -13.8754   19.3127 C   0  0  0  0  0  0  0  0  0  0  0  0
   14.1878  -14.2820   18.2791 C   0  0  0  0  0  0  0  0  0  0  0  0
   14.1913  -15.4430   17.5156 C   0  0  0  0  0  0  0  0  0  0  0  0
   15.2340  -15.4688   16.6965 N   0  0  0  0  0  0  0  0  0  0  0  0
   15.9209  -14.3342   16.9114 C   0  0  0  0  0  0  0  0  0  0  0  0
   15.2846  -13.6122   17.8743 N   0  0  0  0  0  0  0  0  0  0  0  0
   11.7301  -15.3664   20.6798 C   0  0  0  0  0  0  0  0  0  0  0  0
   10.5684  -15.1707   21.1229 O   0  0  0  0  0  0  0  0  0  0  0  0
   12.6297  -16.0661   21.5641 N   0  0  0  0  0  0  0  0  0  0  0  0
   12.2071  -16.6759   22.7843 C   0  0  1  0  0  0  0  0  0  0  0  0
   11.0082  -17.5597   22.5156 C   0  0  0  0  0  0  0  0  0  0  0  0
   10.5298  -18.2504   23.7159 C   0  0  0  0  0  0  0  0  0  0  0  0
   11.2880  -18.9907   24.3754 O   0  0  0  0  0  0  0  0  0  0  0  0
   13.2751  -17.3664   23.5081 C   0  0  0  0  0  0  0  0  0  0  0  0
   14.1779  -18.0292   22.9255 O   0  0  0  0  0  0  0  0  0  0  0  0
    9.2266  -18.0895   24.1340 O   0  0  0  0  0  0  0  0  0  0  0  0
   13.3496  -17.3258   24.8951 O   0  0  0  0  0  0  0  0  0  0  0  0
  2  1  1  6
  2 10  1  0
  3  2  1  0
  3  4  1  0
  4  5  2  0
  4  9  1  0
  5  6  1  0
  6  7  2  0
  8  7  1  0
  9  8  2  0
 10 11  2  0
 12 10  1  0
 12 13  1  0
 13 20  1  0
 13 14  1  1
 14 15  1  0
 15 16  2  0
 16 17  1  0
 18 17  1  0
 19 15  1  0
 19 18  2  0
 20 21  2  0
 22 23  1  0
 22 20  1  0
 23 27  1  0
 23 24  1  6
 25 24  1  0
 25 29  1  0
 26 25  2  0
 27 28  2  0
 27 30  1  0
M  END
$$$$
