FHD.pdb
     RDKit          3D

 30 31  0  0  1  0  0  0  0  0999 V2000
    5.6699  -16.6938   24.0977 N   0  0  0  0  0  0  0  0  0  0  0  0
    6.6980  -15.6598   24.2237 C   0  0  1  0  0  0  0  0  0  0  0  0
    7.0464  -15.5855   25.6905 C   0  0  0  0  0  0  0  0  0  0  0  0
    6.9622  -14.1587   26.0983 C   0  0  0  0  0  0  0  0  0  0  0  0
    5.8045  -13.5965   26.5902 C   0  0  0  0  0  0  0  0  0  0  0  0
    5.7624  -12.2572   26.9616 C   0  0  0  0  0  0  0  0  0  0  0  0
    6.8771  -11.4487   26.8500 C   0  0  0  0  0  0  0  0  0  0  0  0
    8.0387  -11.9990   26.3603 C   0  0  0  0  0  0  0  0  0  0  0  0
    8.0732  -13.3276   25.9938 C   0  0  0  0  0  0  0  0  0  0  0  0
    7.8414  -16.0825   23.3897 C   0  0  0  0  0  0  0  0  0  0  0  0
    8.1353  -17.3084   23.1993 O   0  0  0  0  0  0  0  0  0  0  0  0
    8.7142  -15.1861   22.7271 N   0  0  0  0  0  0  0  0  0  0  0  0
    9.8214  -15.5584   21.9102 C   0  0  1  0  0  0  0  0  0  0  0  0
   10.2305  -14.5884   20.8693 C   0  0  0  0  0  0  0  0  0  0  0  0
    9.0470  -14.3289   19.9941 C   0  0  0  0  0  0  0  0  0  0  0  0
    7.8163  -14.9735   20.0220 C   0  0  0  0  0  0  0  0  0  0  0  0
    7.0015  -14.4801   19.0993 N   0  0  0  0  0  0  0  0  0  0  0  0
    7.6827  -13.5140   18.4606 C   0  0  0  0  0  0  0  0  0  0  0  0
    8.9271  -13.4220   19.0049 N   0  0  0  0  0  0  0  0  0  0  0  0
   10.9128  -16.0363   22.7810 C   0  0  0  0  0  0  0  0  0  0  0  0
   12.0541  -15.5074   22.7357 O   0  0  0  0  0  0  0  0  0  0  0  0
   10.7584  -17.1161   23.7248 N   0  0  0  0  0  0  0  0  0  0  0  0
   11.8442  -17.6518   24.4821 C   0  0  1  0  0  0  0  0  0  0  0  0
   11.3770  -17.9468   25.8911 C   0  0  0  0  0  0  0  0  0  0  0  0
   12.4191  -18.5580   26.7201 C   0  0  0  0  0  0  0  0  0  0  0  0
   13.5723  -18.7327   26.2757 O   0  0  0  0  0  0  0  0  0  0  0  0
   12.5081  -18.7923   23.8497 C   0  0  0  0  0  0  0  0  0  0  0  0
   13.6641  -18.7182   23.3480 O   0  0  0  0  0  0  0  0  0  0  0  0
   12.1357  -18.9503   28.0104 O   0  0  0  0  0  0  0  0  0  0  0  0
   11.8886  -20.0337   23.7692 O   0  0  0  0  0  0  0  0  0  0  0  0
  2  1  1  1
  2 10  1  0
  3  2  1  0
  3  4  1  0
  4  5  2  0
  4  9  1  0
  5  6  1  0
  6  7  2  0
  8  7  1  0
  9  8  2  0
 10 11  2  0
 12 10  1  0
 12 13  1  0
 13 20  1  0
 13 14  1  1
 14 15  1  0
 15 16  2  0
 16 17  1  0
 18 17  1  0
 19 15  1  0
 19 18  2  0
 20 21  2  0
 22 23  1  0
 22 20  1  0
 23 27  1  0
 23 24  1  1
 25 24  1  0
 25 29  1  0
 26 25  2  0
 27 28  2  0
 27 30  1  0
M  END
$$$$
