FHD.pdb
     RDKit          3D

 30 31  0  0  1  0  0  0  0  0999 V2000
    8.0358  -15.1651   25.2787 N   0  0  0  0  0  0  0  0  0  0  0  0
    7.0868  -15.3658   24.1827 C   0  0  1  0  0  0  0  0  0  0  0  0
    6.3205  -14.0727   24.0440 C   0  0  0  0  0  0  0  0  0  0  0  0
    6.6574  -13.2254   25.2178 C   0  0  0  0  0  0  0  0  0  0  0  0
    5.9280  -13.2556   26.3862 C   0  0  0  0  0  0  0  0  0  0  0  0
    6.2723  -12.4480   27.4645 C   0  0  0  0  0  0  0  0  0  0  0  0
    7.3542  -11.5913   27.3996 C   0  0  0  0  0  0  0  0  0  0  0  0
    8.0900  -11.5525   26.2381 C   0  0  0  0  0  0  0  0  0  0  0  0
    7.7429  -12.3560   25.1729 C   0  0  0  0  0  0  0  0  0  0  0  0
    7.8787  -15.6879   22.9782 C   0  0  0  0  0  0  0  0  0  0  0  0
    7.3408  -16.0490   21.8801 O   0  0  0  0  0  0  0  0  0  0  0  0
    9.2920  -15.6303   22.9192 N   0  0  0  0  0  0  0  0  0  0  0  0
   10.0894  -15.9722   21.7882 C   0  0  1  0  0  0  0  0  0  0  0  0
   10.4923  -14.8570   20.9019 C   0  0  0  0  0  0  0  0  0  0  0  0
    9.2823  -14.4127   20.1454 C   0  0  0  0  0  0  0  0  0  0  0  0
    8.7461  -13.1322   20.0832 C   0  0  0  0  0  0  0  0  0  0  0  0
    7.6669  -13.1069   19.3128 N   0  0  0  0  0  0  0  0  0  0  0  0
    7.4841  -14.3603   18.8644 C   0  0  0  0  0  0  0  0  0  0  0  0
    8.4668  -15.1547   19.3709 N   0  0  0  0  0  0  0  0  0  0  0  0
   11.1930  -16.8450   22.2336 C   0  0  0  0  0  0  0  0  0  0  0  0
   11.6458  -16.7668   23.4054 O   0  0  0  0  0  0  0  0  0  0  0  0
   11.8190  -17.8274   21.3829 N   0  0  0  0  0  0  0  0  0  0  0  0
   12.9533  -18.5971   21.7834 C   0  0  1  0  0  0  0  0  0  0  0  0
   13.0849  -19.8051   20.8812 C   0  0  0  0  0  0  0  0  0  0  0  0
   11.9194  -20.6909   20.9423 C   0  0  0  0  0  0  0  0  0  0  0  0
   11.3657  -21.0958   19.8995 O   0  0  0  0  0  0  0  0  0  0  0  0
   14.1919  -17.8251   21.8889 C   0  0  0  0  0  0  0  0  0  0  0  0
   14.3033  -16.6478   21.4471 O   0  0  0  0  0  0  0  0  0  0  0  0
   11.4167  -21.0903   22.1617 O   0  0  0  0  0  0  0  0  0  0  0  0
   15.3253  -18.3586   22.4905 O   0  0  0  0  0  0  0  0  0  0  0  0
  2  1  1  1
  2 10  1  0
  3  2  1  0
  3  4  1  0
  4  5  2  0
  4  9  1  0
  5  6  1  0
  6  7  2  0
  8  7  1  0
  9  8  2  0
 10 11  2  0
 12 10  1  0
 12 13  1  0
 13 20  1  0
 13 14  1  1
 14 15  1  0
 15 16  2  0
 16 17  1  0
 18 17  1  0
 19 15  1  0
 19 18  2  0
 20 21  2  0
 22 23  1  0
 22 20  1  0
 23 27  1  0
 23 24  1  6
 25 24  1  0
 25 29  1  0
 26 25  2  0
 27 28  2  0
 27 30  1  0
M  END
$$$$
