FHD.pdb
     RDKit          3D

 30 31  0  0  1  0  0  0  0  0999 V2000
    6.7096  -16.0935   25.3814 N   0  0  0  0  0  0  0  0  0  0  0  0
    6.3705  -16.0191   23.9596 C   0  0  1  0  0  0  0  0  0  0  0  0
    5.9550  -14.5918   23.6975 C   0  0  0  0  0  0  0  0  0  0  0  0
    6.3956  -13.7773   24.8602 C   0  0  0  0  0  0  0  0  0  0  0  0
    7.5570  -13.0362   24.8471 C   0  0  0  0  0  0  0  0  0  0  0  0
    7.9383  -12.2859   25.9539 C   0  0  0  0  0  0  0  0  0  0  0  0
    7.1670  -12.2590   27.0998 C   0  0  0  0  0  0  0  0  0  0  0  0
    6.0052  -12.9950   27.1245 C   0  0  0  0  0  0  0  0  0  0  0  0
    5.6334  -13.7367   26.0235 C   0  0  0  0  0  0  0  0  0  0  0  0
    7.5803  -16.4053   23.2054 C   0  0  0  0  0  0  0  0  0  0  0  0
    7.7713  -17.5903   22.7755 O   0  0  0  0  0  0  0  0  0  0  0  0
    8.6347  -15.5156   22.8875 N   0  0  0  0  0  0  0  0  0  0  0  0
    9.7571  -15.8206   22.0635 C   0  0  1  0  0  0  0  0  0  0  0  0
   10.2948  -14.7126   21.2422 C   0  0  0  0  0  0  0  0  0  0  0  0
    9.1724  -14.1632   20.4223 C   0  0  0  0  0  0  0  0  0  0  0  0
    8.0373  -14.8344   19.9841 C   0  0  0  0  0  0  0  0  0  0  0  0
    7.2532  -14.0299   19.2792 N   0  0  0  0  0  0  0  0  0  0  0  0
    7.8600  -12.8315   19.2471 C   0  0  0  0  0  0  0  0  0  0  0  0
    9.0276  -12.9126   19.9424 N   0  0  0  0  0  0  0  0  0  0  0  0
   10.7589  -16.5387   22.8751 C   0  0  0  0  0  0  0  0  0  0  0  0
   11.8363  -15.9821   23.2123 O   0  0  0  0  0  0  0  0  0  0  0  0
   10.5839  -17.8958   23.3313 N   0  0  0  0  0  0  0  0  0  0  0  0
   11.3355  -18.4607   24.4063 C   0  0  1  0  0  0  0  0  0  0  0  0
   11.3805  -17.4799   25.5580 C   0  0  0  0  0  0  0  0  0  0  0  0
   12.1059  -17.9995   26.7201 C   0  0  0  0  0  0  0  0  0  0  0  0
   11.5592  -18.7890   27.5174 O   0  0  0  0  0  0  0  0  0  0  0  0
   10.8907  -19.7953   24.8094 C   0  0  0  0  0  0  0  0  0  0  0  0
   11.5609  -20.5344   25.5829 O   0  0  0  0  0  0  0  0  0  0  0  0
   13.4107  -17.6193   26.9483 O   0  0  0  0  0  0  0  0  0  0  0  0
    9.6890  -20.3234   24.3533 O   0  0  0  0  0  0  0  0  0  0  0  0
  2  1  1  1
  2 10  1  0
  3  2  1  0
  3  4  1  0
  4  5  2  0
  4  9  1  0
  5  6  1  0
  6  7  2  0
  8  7  1  0
  9  8  2  0
 10 11  2  0
 12 10  1  0
 12 13  1  0
 13 20  1  0
 13 14  1  1
 14 15  1  0
 15 16  2  0
 16 17  1  0
 18 17  1  0
 19 15  1  0
 19 18  2  0
 20 21  2  0
 22 23  1  0
 22 20  1  0
 23 27  1  0
 23 24  1  1
 25 24  1  0
 25 29  1  0
 26 25  2  0
 27 28  2  0
 27 30  1  0
M  END
$$$$
