FHD.pdb
     RDKit          3D

 30 31  0  0  1  0  0  0  0  0999 V2000
    7.9957  -15.1584   25.4213 N   0  0  0  0  0  0  0  0  0  0  0  0
    7.0970  -15.1473   24.2662 C   0  0  1  0  0  0  0  0  0  0  0  0
    6.9173  -13.6983   23.8834 C   0  0  0  0  0  0  0  0  0  0  0  0
    6.8609  -12.9075   25.1407 C   0  0  0  0  0  0  0  0  0  0  0  0
    7.9212  -12.1490   25.5862 C   0  0  0  0  0  0  0  0  0  0  0  0
    7.8328  -11.4218   26.7681 C   0  0  0  0  0  0  0  0  0  0  0  0
    6.6818  -11.4360   27.5321 C   0  0  0  0  0  0  0  0  0  0  0  0
    5.6165  -12.1898   27.0972 C   0  0  0  0  0  0  0  0  0  0  0  0
    5.7112  -12.9083   25.9245 C   0  0  0  0  0  0  0  0  0  0  0  0
    7.7493  -15.9383   23.2029 C   0  0  0  0  0  0  0  0  0  0  0  0
    7.2690  -16.0327   22.0257 O   0  0  0  0  0  0  0  0  0  0  0  0
    8.9540  -16.6611   23.3777 N   0  0  0  0  0  0  0  0  0  0  0  0
    9.7631  -17.1901   22.3302 C   0  0  1  0  0  0  0  0  0  0  0  0
    9.9683  -16.3205   21.1499 C   0  0  0  0  0  0  0  0  0  0  0  0
    8.7153  -16.3497   20.3356 C   0  0  0  0  0  0  0  0  0  0  0  0
    7.5404  -15.6440   20.5650 C   0  0  0  0  0  0  0  0  0  0  0  0
    6.6349  -15.9153   19.6347 N   0  0  0  0  0  0  0  0  0  0  0  0
    7.2007  -16.7949   18.7912 C   0  0  0  0  0  0  0  0  0  0  0  0
    8.4663  -17.0593   19.2176 N   0  0  0  0  0  0  0  0  0  0  0  0
   10.9978  -17.7438   22.9192 C   0  0  0  0  0  0  0  0  0  0  0  0
   11.6805  -18.6015   22.3006 O   0  0  0  0  0  0  0  0  0  0  0  0
   11.5022  -17.3544   24.2132 N   0  0  0  0  0  0  0  0  0  0  0  0
   12.4808  -18.1093   24.9288 C   0  0  1  0  0  0  0  0  0  0  0  0
   13.6900  -17.2392   25.1960 C   0  0  0  0  0  0  0  0  0  0  0  0
   14.1861  -16.5686   23.9916 C   0  0  0  0  0  0  0  0  0  0  0  0
   14.8354  -15.5055   24.0704 O   0  0  0  0  0  0  0  0  0  0  0  0
   11.9681  -18.7611   26.1344 C   0  0  0  0  0  0  0  0  0  0  0  0
   12.6960  -19.4526   26.8997 O   0  0  0  0  0  0  0  0  0  0  0  0
   13.9395  -17.1080   22.7477 O   0  0  0  0  0  0  0  0  0  0  0  0
   10.6328  -18.6489   26.5026 O   0  0  0  0  0  0  0  0  0  0  0  0
  2  1  1  1
  2 10  1  0
  3  2  1  0
  3  4  1  0
  4  5  2  0
  4  9  1  0
  5  6  1  0
  6  7  2  0
  8  7  1  0
  9  8  2  0
 10 11  2  0
 12 10  1  0
 12 13  1  0
 13 20  1  0
 13 14  1  6
 14 15  1  0
 15 16  2  0
 16 17  1  0
 18 17  1  0
 19 15  1  0
 19 18  2  0
 20 21  2  0
 22 23  1  0
 22 20  1  0
 23 27  1  0
 23 24  1  1
 25 24  1  0
 25 29  1  0
 26 25  2  0
 27 28  2  0
 27 30  1  0
M  END
$$$$
