FHD.pdb
     RDKit          3D

 30 31  0  0  1  0  0  0  0  0999 V2000
    6.0795  -17.9212   25.2928 N   0  0  0  0  0  0  0  0  0  0  0  0
    6.2225  -16.4666   25.2176 C   0  0  1  0  0  0  0  0  0  0  0  0
    6.8424  -16.0340   26.5241 C   0  0  0  0  0  0  0  0  0  0  0  0
    6.6763  -14.5608   26.6316 C   0  0  0  0  0  0  0  0  0  0  0  0
    7.7471  -13.6939   26.6397 C   0  0  0  0  0  0  0  0  0  0  0  0
    7.5539  -12.3207   26.7420 C   0  0  0  0  0  0  0  0  0  0  0  0
    6.2852  -11.7823   26.8385 C   0  0  0  0  0  0  0  0  0  0  0  0
    5.2084  -12.6381   26.8314 C   0  0  0  0  0  0  0  0  0  0  0  0
    5.4074  -13.9984   26.7297 C   0  0  0  0  0  0  0  0  0  0  0  0
    7.0872  -16.1764   24.0558 C   0  0  0  0  0  0  0  0  0  0  0  0
    8.0288  -16.9544   23.6902 O   0  0  0  0  0  0  0  0  0  0  0  0
    6.9625  -15.0244   23.2423 N   0  0  0  0  0  0  0  0  0  0  0  0
    7.6363  -14.8059   22.0054 C   0  0  1  0  0  0  0  0  0  0  0  0
    7.3640  -13.5211   21.3222 C   0  0  0  0  0  0  0  0  0  0  0  0
    7.9157  -13.6130   19.9362 C   0  0  0  0  0  0  0  0  0  0  0  0
    7.2225  -13.9017   18.7669 C   0  0  0  0  0  0  0  0  0  0  0  0
    8.0364  -13.8970   17.7198 N   0  0  0  0  0  0  0  0  0  0  0  0
    9.2628  -13.6076   18.1862 C   0  0  0  0  0  0  0  0  0  0  0  0
    9.1894  -13.4349   19.5346 N   0  0  0  0  0  0  0  0  0  0  0  0
    9.0657  -15.1280   22.1816 C   0  0  0  0  0  0  0  0  0  0  0  0
    9.7384  -14.5978   23.1039 O   0  0  0  0  0  0  0  0  0  0  0  0
    9.7807  -16.0500   21.3334 N   0  0  0  0  0  0  0  0  0  0  0  0
   11.1867  -16.2771   21.4385 C   0  0  1  0  0  0  0  0  0  0  0  0
   11.4356  -17.7212   21.8169 C   0  0  0  0  0  0  0  0  0  0  0  0
   11.6749  -17.9007   23.2511 C   0  0  0  0  0  0  0  0  0  0  0  0
   11.7294  -16.9192   24.0203 O   0  0  0  0  0  0  0  0  0  0  0  0
   11.9493  -15.8548   20.2631 C   0  0  0  0  0  0  0  0  0  0  0  0
   11.3997  -15.4764   19.1915 O   0  0  0  0  0  0  0  0  0  0  0  0
   11.8441  -19.1654   23.7717 O   0  0  0  0  0  0  0  0  0  0  0  0
   13.3389  -15.8493   20.2689 O   0  0  0  0  0  0  0  0  0  0  0  0
  2  1  1  1
  2 10  1  0
  3  2  1  0
  3  4  1  0
  4  5  2  0
  4  9  1  0
  5  6  1  0
  6  7  2  0
  8  7  1  0
  9  8  2  0
 10 11  2  0
 12 10  1  0
 12 13  1  0
 13 20  1  0
 13 14  1  1
 14 15  1  0
 15 16  2  0
 16 17  1  0
 18 17  1  0
 19 15  1  0
 19 18  2  0
 20 21  2  0
 22 23  1  0
 22 20  1  0
 23 27  1  0
 23 24  1  6
 25 24  1  0
 25 29  1  0
 26 25  2  0
 27 28  2  0
 27 30  1  0
M  END
$$$$
