FHD.pdb
     RDKit          3D

 30 31  0  0  1  0  0  0  0  0999 V2000
    5.8769  -17.9607   25.1797 N   0  0  0  0  0  0  0  0  0  0  0  0
    6.2371  -16.5490   25.0406 C   0  0  1  0  0  0  0  0  0  0  0  0
    6.9707  -16.1726   26.3050 C   0  0  0  0  0  0  0  0  0  0  0  0
    6.9071  -14.6933   26.4352 C   0  0  0  0  0  0  0  0  0  0  0  0
    5.7210  -14.0168   26.6181 C   0  0  0  0  0  0  0  0  0  0  0  0
    5.6994  -12.6314   26.7356 C   0  0  0  0  0  0  0  0  0  0  0  0
    6.8636  -11.8902   26.6731 C   0  0  0  0  0  0  0  0  0  0  0  0
    8.0540  -12.5548   26.4908 C   0  0  0  0  0  0  0  0  0  0  0  0
    8.0679  -13.9285   26.3750 C   0  0  0  0  0  0  0  0  0  0  0  0
    7.0858  -16.4355   23.8371 C   0  0  0  0  0  0  0  0  0  0  0  0
    7.5350  -17.4543   23.2161 O   0  0  0  0  0  0  0  0  0  0  0  0
    7.4816  -15.2054   23.2586 N   0  0  0  0  0  0  0  0  0  0  0  0
    7.8022  -15.0001   21.8850 C   0  0  1  0  0  0  0  0  0  0  0  0
    7.2547  -13.7781   21.2539 C   0  0  0  0  0  0  0  0  0  0  0  0
    7.6326  -13.8003   19.8080 C   0  0  0  0  0  0  0  0  0  0  0  0
    8.4854  -12.9277   19.1429 C   0  0  0  0  0  0  0  0  0  0  0  0
    8.5891  -13.2511   17.8609 N   0  0  0  0  0  0  0  0  0  0  0  0
    7.8120  -14.3307   17.6717 C   0  0  0  0  0  0  0  0  0  0  0  0
    7.2300  -14.6648   18.8562 N   0  0  0  0  0  0  0  0  0  0  0  0
    9.2530  -15.2000   21.7025 C   0  0  0  0  0  0  0  0  0  0  0  0
    9.8028  -14.9673   20.5944 O   0  0  0  0  0  0  0  0  0  0  0  0
   10.1271  -15.6642   22.7519 N   0  0  0  0  0  0  0  0  0  0  0  0
   11.4502  -16.1441   22.5100 C   0  0  1  0  0  0  0  0  0  0  0  0
   11.8530  -17.0893   23.6213 C   0  0  0  0  0  0  0  0  0  0  0  0
   11.9388  -16.4295   24.9266 C   0  0  0  0  0  0  0  0  0  0  0  0
   11.8348  -15.1897   25.0270 O   0  0  0  0  0  0  0  0  0  0  0  0
   11.6442  -16.7145   21.1764 C   0  0  0  0  0  0  0  0  0  0  0  0
   12.4966  -16.2677   20.3594 O   0  0  0  0  0  0  0  0  0  0  0  0
   12.1372  -17.1760   26.0678 O   0  0  0  0  0  0  0  0  0  0  0  0
   10.8875  -17.7938   20.7365 O   0  0  0  0  0  0  0  0  0  0  0  0
  2  1  1  1
  2 10  1  0
  3  2  1  0
  3  4  1  0
  4  5  2  0
  4  9  1  0
  5  6  1  0
  6  7  2  0
  8  7  1  0
  9  8  2  0
 10 11  2  0
 12 10  1  0
 12 13  1  0
 13 20  1  0
 13 14  1  1
 14 15  1  0
 15 16  2  0
 16 17  1  0
 18 17  1  0
 19 15  1  0
 19 18  2  0
 20 21  2  0
 22 23  1  0
 22 20  1  0
 23 27  1  0
 23 24  1  1
 25 24  1  0
 25 29  1  0
 26 25  2  0
 27 28  2  0
 27 30  1  0
M  END
$$$$
