FHD.pdb
     RDKit          3D

 30 31  0  0  1  0  0  0  0  0999 V2000
    5.9892  -17.3845   25.3355 N   0  0  0  0  0  0  0  0  0  0  0  0
    6.4516  -16.0304   25.0281 C   0  0  1  0  0  0  0  0  0  0  0  0
    7.4542  -15.6722   26.0982 C   0  0  0  0  0  0  0  0  0  0  0  0
    7.2160  -14.2549   26.4776 C   0  0  0  0  0  0  0  0  0  0  0  0
    5.9504  -13.7284   26.6158 C   0  0  0  0  0  0  0  0  0  0  0  0
    5.7654  -12.3971   26.9718 C   0  0  0  0  0  0  0  0  0  0  0  0
    6.8418  -11.5611   27.1980 C   0  0  0  0  0  0  0  0  0  0  0  0
    8.1102  -12.0757   27.0630 C   0  0  0  0  0  0  0  0  0  0  0  0
    8.2862  -13.3965   26.7097 C   0  0  0  0  0  0  0  0  0  0  0  0
    7.0524  -16.0740   23.6795 C   0  0  0  0  0  0  0  0  0  0  0  0
    7.5177  -17.1462   23.1703 O   0  0  0  0  0  0  0  0  0  0  0  0
    7.1720  -14.9496   22.8276 N   0  0  0  0  0  0  0  0  0  0  0  0
    7.5910  -14.9820   21.4656 C   0  0  1  0  0  0  0  0  0  0  0  0
    7.4944  -13.7103   20.7138 C   0  0  0  0  0  0  0  0  0  0  0  0
    7.9275  -13.9750   19.3080 C   0  0  0  0  0  0  0  0  0  0  0  0
    8.2932  -15.1942   18.7505 C   0  0  0  0  0  0  0  0  0  0  0  0
    8.6186  -15.0528   17.4727 N   0  0  0  0  0  0  0  0  0  0  0  0
    8.4714  -13.7498   17.1795 C   0  0  0  0  0  0  0  0  0  0  0  0
    8.0510  -13.0940   18.2960 N   0  0  0  0  0  0  0  0  0  0  0  0
    8.9031  -15.6533   21.3898 C   0  0  0  0  0  0  0  0  0  0  0  0
    9.4035  -15.9701   20.2791 O   0  0  0  0  0  0  0  0  0  0  0  0
    9.6903  -15.9878   22.5513 N   0  0  0  0  0  0  0  0  0  0  0  0
   11.0170  -16.5102   22.4707 C   0  0  1  0  0  0  0  0  0  0  0  0
   11.8634  -15.6013   21.6057 C   0  0  0  0  0  0  0  0  0  0  0  0
   13.2528  -16.0528   21.4950 C   0  0  0  0  0  0  0  0  0  0  0  0
   13.5419  -17.2645   21.5718 O   0  0  0  0  0  0  0  0  0  0  0  0
   11.6273  -16.7934   23.7701 C   0  0  0  0  0  0  0  0  0  0  0  0
   11.0446  -16.5575   24.8649 O   0  0  0  0  0  0  0  0  0  0  0  0
   14.2649  -15.1372   21.3034 O   0  0  0  0  0  0  0  0  0  0  0  0
   12.8993  -17.3450   23.8647 O   0  0  0  0  0  0  0  0  0  0  0  0
  2  1  1  1
  2 10  1  0
  3  2  1  0
  3  4  1  0
  4  5  2  0
  4  9  1  0
  5  6  1  0
  6  7  2  0
  8  7  1  0
  9  8  2  0
 10 11  2  0
 12 10  1  0
 12 13  1  0
 13 20  1  0
 13 14  1  1
 14 15  1  0
 15 16  2  0
 16 17  1  0
 18 17  1  0
 19 15  1  0
 19 18  2  0
 20 21  2  0
 22 23  1  0
 22 20  1  0
 23 27  1  0
 23 24  1  1
 25 24  1  0
 25 29  1  0
 26 25  2  0
 27 28  2  0
 27 30  1  0
M  END
$$$$
