FHD.pdb
     RDKit          3D

 30 31  0  0  1  0  0  0  0  0999 V2000
    8.6811  -14.8676   24.8638 N   0  0  0  0  0  0  0  0  0  0  0  0
    7.4877  -14.9562   24.0212 C   0  0  1  0  0  0  0  0  0  0  0  0
    6.9657  -13.5473   23.8767 C   0  0  0  0  0  0  0  0  0  0  0  0
    6.8707  -12.9637   25.2404 C   0  0  0  0  0  0  0  0  0  0  0  0
    7.8472  -12.1455   25.7650 C   0  0  0  0  0  0  0  0  0  0  0  0
    7.7250  -11.6175   27.0455 C   0  0  0  0  0  0  0  0  0  0  0  0
    6.6232  -11.8952   27.8314 C   0  0  0  0  0  0  0  0  0  0  0  0
    5.6417  -12.7109   27.3182 C   0  0  0  0  0  0  0  0  0  0  0  0
    5.7695  -13.2310   26.0479 C   0  0  0  0  0  0  0  0  0  0  0  0
    7.9107  -15.5395   22.7318 C   0  0  0  0  0  0  0  0  0  0  0  0
    7.0776  -15.9532   21.8599 O   0  0  0  0  0  0  0  0  0  0  0  0
    9.2613  -15.6972   22.3375 N   0  0  0  0  0  0  0  0  0  0  0  0
    9.7089  -16.3629   21.1593 C   0  0  1  0  0  0  0  0  0  0  0  0
   10.1700  -15.5009   20.0476 C   0  0  0  0  0  0  0  0  0  0  0  0
    9.0415  -14.5962   19.6707 C   0  0  0  0  0  0  0  0  0  0  0  0
    8.8464  -13.2778   20.0642 C   0  0  0  0  0  0  0  0  0  0  0  0
    7.7354  -12.7843   19.5342 N   0  0  0  0  0  0  0  0  0  0  0  0
    7.1932  -13.7652   18.7930 C   0  0  0  0  0  0  0  0  0  0  0  0
    7.9878  -14.8676   18.8762 N   0  0  0  0  0  0  0  0  0  0  0  0
   10.6464  -17.4343   21.5482 C   0  0  0  0  0  0  0  0  0  0  0  0
   11.2722  -18.0927   20.6769 O   0  0  0  0  0  0  0  0  0  0  0  0
   10.9098  -17.7978   22.9189 N   0  0  0  0  0  0  0  0  0  0  0  0
   11.9821  -18.6580   23.3059 C   0  0  1  0  0  0  0  0  0  0  0  0
   13.2636  -18.1896   22.6510 C   0  0  0  0  0  0  0  0  0  0  0  0
   14.3338  -17.9280   23.6168 C   0  0  0  0  0  0  0  0  0  0  0  0
   14.5596  -16.7709   24.0266 O   0  0  0  0  0  0  0  0  0  0  0  0
   12.1120  -18.8370   24.7524 C   0  0  0  0  0  0  0  0  0  0  0  0
   12.9513  -19.6245   25.2710 O   0  0  0  0  0  0  0  0  0  0  0  0
   15.1099  -18.9649   24.0877 O   0  0  0  0  0  0  0  0  0  0  0  0
   11.3047  -18.1374   25.6411 O   0  0  0  0  0  0  0  0  0  0  0  0
  2  1  1  1
  2 10  1  0
  3  2  1  0
  3  4  1  0
  4  5  2  0
  4  9  1  0
  5  6  1  0
  6  7  2  0
  8  7  1  0
  9  8  2  0
 10 11  2  0
 12 10  1  0
 12 13  1  0
 13 20  1  0
 13 14  1  6
 14 15  1  0
 15 16  2  0
 16 17  1  0
 18 17  1  0
 19 15  1  0
 19 18  2  0
 20 21  2  0
 22 23  1  0
 22 20  1  0
 23 27  1  0
 23 24  1  1
 25 24  1  0
 25 29  1  0
 26 25  2  0
 27 28  2  0
 27 30  1  0
M  END
$$$$
