FHD.pdb
     RDKit          3D

 30 31  0  0  1  0  0  0  0  0999 V2000
    6.1310  -17.0943   25.2599 N   0  0  0  0  0  0  0  0  0  0  0  0
    6.5578  -15.7513   24.8649 C   0  0  1  0  0  0  0  0  0  0  0  0
    7.6801  -15.3715   25.8001 C   0  0  0  0  0  0  0  0  0  0  0  0
    7.3620  -14.0316   26.3593 C   0  0  0  0  0  0  0  0  0  0  0  0
    7.9227  -13.5652   27.5281 C   0  0  0  0  0  0  0  0  0  0  0  0
    7.6013  -12.3057   28.0220 C   0  0  0  0  0  0  0  0  0  0  0  0
    6.7116  -11.4831   27.3584 C   0  0  0  0  0  0  0  0  0  0  0  0
    6.1454  -11.9380   26.1903 C   0  0  0  0  0  0  0  0  0  0  0  0
    6.4686  -13.1878   25.7065 C   0  0  0  0  0  0  0  0  0  0  0  0
    6.9958  -15.8331   23.4567 C   0  0  0  0  0  0  0  0  0  0  0  0
    7.3813  -16.9237   22.9206 O   0  0  0  0  0  0  0  0  0  0  0  0
    7.0326  -14.7285   22.5719 N   0  0  0  0  0  0  0  0  0  0  0  0
    7.5643  -14.7427   21.2495 C   0  0  1  0  0  0  0  0  0  0  0  0
    7.3623  -13.5181   20.4426 C   0  0  0  0  0  0  0  0  0  0  0  0
    7.8641  -13.7912   19.0615 C   0  0  0  0  0  0  0  0  0  0  0  0
    7.1584  -14.3411   17.9981 C   0  0  0  0  0  0  0  0  0  0  0  0
    7.9242  -14.4363   16.9195 N   0  0  0  0  0  0  0  0  0  0  0  0
    9.1312  -13.9539   17.2600 C   0  0  0  0  0  0  0  0  0  0  0  0
    9.0947  -13.5615   18.5632 N   0  0  0  0  0  0  0  0  0  0  0  0
    8.9558  -15.2314   21.3039 C   0  0  0  0  0  0  0  0  0  0  0  0
    9.8048  -14.6812   22.0527 O   0  0  0  0  0  0  0  0  0  0  0  0
    9.4350  -16.3465   20.5246 N   0  0  0  0  0  0  0  0  0  0  0  0
   10.8134  -16.7129   20.4523 C   0  0  1  0  0  0  0  0  0  0  0  0
   11.0680  -17.8939   21.3640 C   0  0  0  0  0  0  0  0  0  0  0  0
   12.3171  -17.7706   22.1198 C   0  0  0  0  0  0  0  0  0  0  0  0
   13.0858  -16.8046   21.9357 O   0  0  0  0  0  0  0  0  0  0  0  0
   11.3041  -16.9264   19.0903 C   0  0  0  0  0  0  0  0  0  0  0  0
   12.5318  -17.0272   18.8141 O   0  0  0  0  0  0  0  0  0  0  0  0
   12.6606  -18.7276   23.0500 O   0  0  0  0  0  0  0  0  0  0  0  0
   10.4285  -17.0305   18.0163 O   0  0  0  0  0  0  0  0  0  0  0  0
  2  1  1  1
  2 10  1  0
  3  2  1  0
  3  4  1  0
  4  5  2  0
  4  9  1  0
  5  6  1  0
  6  7  2  0
  8  7  1  0
  9  8  2  0
 10 11  2  0
 12 10  1  0
 12 13  1  0
 13 20  1  0
 13 14  1  1
 14 15  1  0
 15 16  2  0
 16 17  1  0
 18 17  1  0
 19 15  1  0
 19 18  2  0
 20 21  2  0
 22 23  1  0
 22 20  1  0
 23 27  1  0
 23 24  1  1
 25 24  1  0
 25 29  1  0
 26 25  2  0
 27 28  2  0
 27 30  1  0
M  END
$$$$
