FHD.pdb
     RDKit          3D

 30 31  0  0  1  0  0  0  0  0999 V2000
   -7.4665  -22.7744   26.0353 N   0  0  0  0  0  0  0  0  0  0  0  0
   -6.0622  -23.1744   26.1351 C   0  0  1  0  0  0  0  0  0  0  0  0
   -5.4319  -22.2565   27.1542 C   0  0  0  0  0  0  0  0  0  0  0  0
   -5.2842  -20.9199   26.5210 C   0  0  0  0  0  0  0  0  0  0  0  0
   -5.9226  -19.7981   27.0028 C   0  0  0  0  0  0  0  0  0  0  0  0
   -5.7614  -18.5632   26.3842 C   0  0  0  0  0  0  0  0  0  0  0  0
   -4.9579  -18.4213   25.2694 C   0  0  0  0  0  0  0  0  0  0  0  0
   -4.3153  -19.5344   24.7794 C   0  0  0  0  0  0  0  0  0  0  0  0
   -4.4797  -20.7555   25.3976 C   0  0  0  0  0  0  0  0  0  0  0  0
   -6.0444  -24.5895   26.5583 C   0  0  0  0  0  0  0  0  0  0  0  0
   -7.0451  -25.1522   27.1126 O   0  0  0  0  0  0  0  0  0  0  0  0
   -4.9338  -25.4522   26.3953 N   0  0  0  0  0  0  0  0  0  0  0  0
   -4.8793  -26.8187   26.7972 C   0  0  1  0  0  0  0  0  0  0  0  0
   -4.4606  -27.7949   25.7660 C   0  0  0  0  0  0  0  0  0  0  0  0
   -5.5046  -27.8081   24.6966 C   0  0  0  0  0  0  0  0  0  0  0  0
   -5.4100  -27.2794   23.4150 C   0  0  0  0  0  0  0  0  0  0  0  0
   -6.5325  -27.4760   22.7368 N   0  0  0  0  0  0  0  0  0  0  0  0
   -7.3697  -28.1308   23.5589 C   0  0  0  0  0  0  0  0  0  0  0  0
   -6.7445  -28.3327   24.7512 N   0  0  0  0  0  0  0  0  0  0  0  0
   -4.1457  -26.9075   28.0747 C   0  0  0  0  0  0  0  0  0  0  0  0
   -2.9742  -26.4593   28.1794 O   0  0  0  0  0  0  0  0  0  0  0  0
   -4.7007  -27.4984   29.2678 N   0  0  0  0  0  0  0  0  0  0  0  0
   -3.9655  -27.6378   30.4841 C   0  0  1  0  0  0  0  0  0  0  0  0
   -4.9305  -27.7893   31.6402 C   0  0  0  0  0  0  0  0  0  0  0  0
   -5.7290  -26.5839   31.8768 C   0  0  0  0  0  0  0  0  0  0  0  0
   -5.2170  -25.4486   31.7938 O   0  0  0  0  0  0  0  0  0  0  0  0
   -2.9466  -28.6876   30.4491 C   0  0  0  0  0  0  0  0  0  0  0  0
   -2.2102  -28.9585   31.4380 O   0  0  0  0  0  0  0  0  0  0  0  0
   -7.0652  -26.6904   32.1965 O   0  0  0  0  0  0  0  0  0  0  0  0
   -2.7361  -29.4506   29.3069 O   0  0  0  0  0  0  0  0  0  0  0  0
  2  1  1  1
  2 10  1  0
  3  2  1  0
  3  4  1  0
  4  5  2  0
  4  9  1  0
  5  6  1  0
  6  7  2  0
  8  7  1  0
  9  8  2  0
 10 11  2  0
 12 10  1  0
 12 13  1  0
 13 20  1  0
 13 14  1  6
 14 15  1  0
 15 16  2  0
 16 17  1  0
 18 17  1  0
 19 15  1  0
 19 18  2  0
 20 21  2  0
 22 23  1  0
 22 20  1  0
 23 27  1  0
 23 24  1  1
 25 24  1  0
 25 29  1  0
 26 25  2  0
 27 28  2  0
 27 30  1  0
M  END
$$$$
