FHD.pdb
     RDKit          3D

 30 31  0  0  1  0  0  0  0  0999 V2000
    8.9027  -14.4638   25.0342 N   0  0  0  0  0  0  0  0  0  0  0  0
    7.7206  -14.9556   24.3251 C   0  0  1  0  0  0  0  0  0  0  0  0
    6.8751  -13.7430   24.0198 C   0  0  0  0  0  0  0  0  0  0  0  0
    6.6775  -13.0035   25.2939 C   0  0  0  0  0  0  0  0  0  0  0  0
    5.7795  -13.4124   26.2555 C   0  0  0  0  0  0  0  0  0  0  0  0
    5.6208  -12.6951   27.4360 C   0  0  0  0  0  0  0  0  0  0  0  0
    6.3564  -11.5520   27.6827 C   0  0  0  0  0  0  0  0  0  0  0  0
    7.2561  -11.1340   26.7299 C   0  0  0  0  0  0  0  0  0  0  0  0
    7.4083  -11.8500   25.5617 C   0  0  0  0  0  0  0  0  0  0  0  0
    8.1998  -15.6350   23.1043 C   0  0  0  0  0  0  0  0  0  0  0  0
    7.4551  -16.4008   22.4083 O   0  0  0  0  0  0  0  0  0  0  0  0
    9.5126  -15.5087   22.5897 N   0  0  0  0  0  0  0  0  0  0  0  0
   10.0389  -16.2250   21.4753 C   0  0  1  0  0  0  0  0  0  0  0  0
   10.1772  -15.4697   20.2096 C   0  0  0  0  0  0  0  0  0  0  0  0
    8.9374  -14.6560   20.0235 C   0  0  0  0  0  0  0  0  0  0  0  0
    7.6918  -15.0978   19.5942 C   0  0  0  0  0  0  0  0  0  0  0  0
    6.8233  -14.0966   19.5487 N   0  0  0  0  0  0  0  0  0  0  0  0
    7.4837  -12.9953   19.9444 C   0  0  0  0  0  0  0  0  0  0  0  0
    8.7699  -13.3356   20.2331 N   0  0  0  0  0  0  0  0  0  0  0  0
   11.2516  -16.9471   21.9066 C   0  0  0  0  0  0  0  0  0  0  0  0
   11.8108  -17.7813   21.1479 O   0  0  0  0  0  0  0  0  0  0  0  0
   11.8712  -16.7564   23.1951 N   0  0  0  0  0  0  0  0  0  0  0  0
   13.0615  -17.4357   23.5968 C   0  0  1  0  0  0  0  0  0  0  0  0
   14.0676  -16.4273   24.1080 C   0  0  0  0  0  0  0  0  0  0  0  0
   15.4544  -16.8564   23.9102 C   0  0  0  0  0  0  0  0  0  0  0  0
   15.7170  -17.9420   23.3530 O   0  0  0  0  0  0  0  0  0  0  0  0
   12.8332  -18.5390   24.5306 C   0  0  0  0  0  0  0  0  0  0  0  0
   13.7647  -19.2755   24.9591 O   0  0  0  0  0  0  0  0  0  0  0  0
   16.4935  -16.0600   24.3406 O   0  0  0  0  0  0  0  0  0  0  0  0
   11.5591  -18.8349   24.9997 O   0  0  0  0  0  0  0  0  0  0  0  0
  2  1  1  1
  2 10  1  0
  3  2  1  0
  3  4  1  0
  4  5  2  0
  4  9  1  0
  5  6  1  0
  6  7  2  0
  8  7  1  0
  9  8  2  0
 10 11  2  0
 12 10  1  0
 12 13  1  0
 13 20  1  0
 13 14  1  6
 14 15  1  0
 15 16  2  0
 16 17  1  0
 18 17  1  0
 19 15  1  0
 19 18  2  0
 20 21  2  0
 22 23  1  0
 22 20  1  0
 23 27  1  0
 23 24  1  1
 25 24  1  0
 25 29  1  0
 26 25  2  0
 27 28  2  0
 27 30  1  0
M  END
$$$$
