LVF.pdb
     RDKit          3D

 27 27  0  0  1  0  0  0  0  0999 V2000
   28.0511  -14.7847  -17.0342 C   0  0  0  0  0  0  0  0  0  0  0  0
   26.5659  -15.1074  -17.3080 C   0  0  1  0  0  0  0  0  0  0  0  0
   26.0701  -15.8428  -16.0822 C   0  0  0  0  0  0  0  0  0  0  0  0
   25.8321  -13.8408  -17.6174 C   0  0  0  0  0  0  0  0  0  0  0  0
   24.3861  -13.9062  -17.8674 C   0  0  2  0  0  0  0  0  0  0  0  0
   24.1665  -14.7561  -19.0978 N   0  0  0  0  0  0  0  0  0  0  0  0
   23.6088  -12.6951  -18.0555 C   0  0  0  0  0  0  0  0  0  0  0  0
   23.7661  -12.0049  -19.0891 O   0  0  0  0  0  0  0  0  0  0  0  0
   19.8245  -11.5569  -18.5741 C   0  0  0  0  0  0  0  0  0  0  0  0
   20.4218  -11.2272  -17.2465 C   0  0  1  0  0  0  0  0  0  0  0  0
   20.1615  -12.2483  -16.1824 C   0  0  0  0  0  0  0  0  0  0  0  0
   21.9132  -10.9723  -17.3074 C   0  0  2  0  0  0  0  0  0  0  0  0
   22.6408  -12.1949  -17.1349 N   0  0  0  0  0  0  0  0  0  0  0  0
   22.3398   -9.9071  -16.3680 C   0  0  0  0  0  0  0  0  0  0  0  0
   22.4517  -10.1466  -15.1372 O   0  0  0  0  0  0  0  0  0  0  0  0
   22.6411   -8.5833  -16.7887 N   0  0  0  0  0  0  0  0  0  0  0  0
   23.0371   -7.5325  -15.8491 C   0  0  1  0  0  0  0  0  0  0  0  0
   24.3972   -7.0311  -16.1889 C   0  0  0  0  0  0  0  0  0  0  0  0
   25.4011   -8.0814  -16.2803 C   0  0  0  0  0  0  0  0  0  0  0  0
   25.8185   -8.7433  -15.1313 C   0  0  0  0  0  0  0  0  0  0  0  0
   26.7677   -9.7531  -15.1595 C   0  0  0  0  0  0  0  0  0  0  0  0
   27.3254  -10.1242  -16.3599 C   0  0  0  0  0  0  0  0  0  0  0  0
   26.9434   -9.4970  -17.5240 C   0  0  0  0  0  0  0  0  0  0  0  0
   25.9969   -8.4983  -17.4521 C   0  0  0  0  0  0  0  0  0  0  0  0
   22.0423   -6.4633  -15.8610 C   0  0  0  0  0  0  0  0  0  0  0  0
   21.1217   -6.3645  -16.7245 O   0  0  0  0  0  0  0  0  0  0  0  0
   22.0919   -5.4818  -14.8700 O   0  0  0  0  0  0  0  0  0  0  0  0
  2  3  1  1
  2  1  1  0
  4  2  1  0
  5  7  1  0
  5  4  1  0
  5  6  1  6
  7  8  2  0
  7 13  1  0
 10  9  1  6
 10 12  1  0
 11 10  1  0
 12 14  1  0
 12 13  1  1
 14 15  2  0
 14 16  1  0
 16 17  1  0
 17 25  1  0
 17 18  1  6
 19 18  1  0
 19 20  2  0
 21 20  1  0
 22 21  2  0
 23 24  2  0
 23 22  1  0
 24 19  1  0
 25 27  1  0
 26 25  2  0
M  END
$$$$
