LVF.pdb
     RDKit          3D

 27 27  0  0  1  0  0  0  0  0999 V2000
   19.0320  -14.9651  -16.9032 C   0  0  0  0  0  0  0  0  0  0  0  0
   18.3689  -14.1010  -17.9980 C   0  0  1  0  0  0  0  0  0  0  0  0
   16.8861  -14.1211  -17.6987 C   0  0  0  0  0  0  0  0  0  0  0  0
   18.9890  -12.7394  -17.9984 C   0  0  0  0  0  0  0  0  0  0  0  0
   18.4855  -11.7350  -18.9447 C   0  0  2  0  0  0  0  0  0  0  0  0
   18.9277  -12.1424  -20.3314 N   0  0  0  0  0  0  0  0  0  0  0  0
   18.8303  -10.3333  -18.7943 C   0  0  0  0  0  0  0  0  0  0  0  0
   19.9393   -9.9148  -19.1996 O   0  0  0  0  0  0  0  0  0  0  0  0
   17.4283   -6.7971  -20.0479 C   0  0  0  0  0  0  0  0  0  0  0  0
   17.2791   -7.0594  -18.5860 C   0  0  1  0  0  0  0  0  0  0  0  0
   15.9434   -7.6098  -18.1913 C   0  0  0  0  0  0  0  0  0  0  0  0
   18.3531   -7.9694  -18.0281 C   0  0  2  0  0  0  0  0  0  0  0  0
   17.9892   -9.3445  -18.2030 N   0  0  0  0  0  0  0  0  0  0  0  0
   18.6989   -7.6360  -16.6251 C   0  0  0  0  0  0  0  0  0  0  0  0
   17.7972   -7.5179  -15.7547 O   0  0  0  0  0  0  0  0  0  0  0  0
   20.0361   -7.4341  -16.1876 N   0  0  0  0  0  0  0  0  0  0  0  0
   20.3618   -7.0438  -14.8146 C   0  0  1  0  0  0  0  0  0  0  0  0
   20.4032   -8.2473  -13.9388 C   0  0  0  0  0  0  0  0  0  0  0  0
   21.3488   -9.2610  -14.3832 C   0  0  0  0  0  0  0  0  0  0  0  0
   20.8828  -10.4590  -14.9124 C   0  0  0  0  0  0  0  0  0  0  0  0
   21.7369  -11.4574  -15.3545 C   0  0  0  0  0  0  0  0  0  0  0  0
   23.0963  -11.2703  -15.2728 C   0  0  0  0  0  0  0  0  0  0  0  0
   23.6041  -10.1001  -14.7557 C   0  0  0  0  0  0  0  0  0  0  0  0
   22.7208   -9.1331  -14.3275 C   0  0  0  0  0  0  0  0  0  0  0  0
   21.6265   -6.3136  -14.7990 C   0  0  0  0  0  0  0  0  0  0  0  0
   22.1319   -5.7984  -13.7588 O   0  0  0  0  0  0  0  0  0  0  0  0
   22.3359   -6.1633  -15.9914 O   0  0  0  0  0  0  0  0  0  0  0  0
  2  3  1  1
  2  1  1  0
  4  2  1  0
  5  7  1  0
  5  4  1  0
  5  6  1  6
  7  8  2  0
  7 13  1  0
 10  9  1  6
 10 12  1  0
 11 10  1  0
 12 14  1  0
 12 13  1  1
 14 15  2  0
 14 16  1  0
 16 17  1  0
 17 25  1  0
 17 18  1  1
 19 18  1  0
 19 20  2  0
 21 20  1  0
 22 21  2  0
 23 24  2  0
 23 22  1  0
 24 19  1  0
 25 27  1  0
 26 25  2  0
M  END
$$$$
