LVF.pdb
     RDKit          3D

 27 27  0  0  1  0  0  0  0  0999 V2000
   26.2100  -26.9295  -17.5676 C   0  0  0  0  0  0  0  0  0  0  0  0
   26.8934  -28.1888  -18.1438 C   0  0  1  0  0  0  0  0  0  0  0  0
   28.3395  -28.1112  -17.7059 C   0  0  0  0  0  0  0  0  0  0  0  0
   26.1623  -29.4076  -17.6761 C   0  0  0  0  0  0  0  0  0  0  0  0
   26.6851  -30.7295  -18.0466 C   0  0  2  0  0  0  0  0  0  0  0  0
   26.4707  -30.9130  -19.5315 N   0  0  0  0  0  0  0  0  0  0  0  0
   26.1882  -31.9321  -17.4038 C   0  0  0  0  0  0  0  0  0  0  0  0
   25.0298  -32.3403  -17.6503 O   0  0  0  0  0  0  0  0  0  0  0  0
   27.8580  -34.8779  -17.6299 C   0  0  0  0  0  0  0  0  0  0  0  0
   26.8923  -35.1502  -16.5247 C   0  0  1  0  0  0  0  0  0  0  0  0
   27.3953  -36.1065  -15.4878 C   0  0  0  0  0  0  0  0  0  0  0  0
   26.4147  -33.8956  -15.8240 C   0  0  2  0  0  0  0  0  0  0  0  0
   26.9264  -32.7275  -16.4780 N   0  0  0  0  0  0  0  0  0  0  0  0
   26.7051  -33.9192  -14.3700 C   0  0  0  0  0  0  0  0  0  0  0  0
   27.8933  -33.9018  -13.9544 O   0  0  0  0  0  0  0  0  0  0  0  0
   25.6854  -33.9618  -13.3807 N   0  0  0  0  0  0  0  0  0  0  0  0
   25.9839  -34.0331  -11.9490 C   0  0  1  0  0  0  0  0  0  0  0  0
   25.5610  -32.7736  -11.2770 C   0  0  0  0  0  0  0  0  0  0  0  0
   25.6648  -32.8224   -9.8257 C   0  0  0  0  0  0  0  0  0  0  0  0
   24.5366  -33.0899   -9.0587 C   0  0  0  0  0  0  0  0  0  0  0  0
   24.5776  -33.1523   -7.6746 C   0  0  0  0  0  0  0  0  0  0  0  0
   25.7700  -32.9443   -7.0228 C   0  0  0  0  0  0  0  0  0  0  0  0
   26.9135  -32.6761   -7.7404 C   0  0  0  0  0  0  0  0  0  0  0  0
   26.8295  -32.6230   -9.1147 C   0  0  0  0  0  0  0  0  0  0  0  0
   25.3339  -35.2057  -11.3700 C   0  0  0  0  0  0  0  0  0  0  0  0
   24.1445  -35.5540  -11.6289 O   0  0  0  0  0  0  0  0  0  0  0  0
   26.0491  -36.0035  -10.4757 O   0  0  0  0  0  0  0  0  0  0  0  0
  2  3  1  1
  2  1  1  0
  4  2  1  0
  5  7  1  0
  5  4  1  0
  5  6  1  6
  7  8  2  0
  7 13  1  0
 10  9  1  6
 10 12  1  0
 11 10  1  0
 12 14  1  0
 12 13  1  6
 14 15  2  0
 14 16  1  0
 16 17  1  0
 17 25  1  0
 17 18  1  1
 19 18  1  0
 19 20  2  0
 21 20  1  0
 22 21  2  0
 23 24  2  0
 23 22  1  0
 24 19  1  0
 25 27  1  0
 26 25  2  0
M  END
$$$$
