LVF.pdb
     RDKit          3D

 27 27  0  0  1  0  0  0  0  0999 V2000
   27.8647  -14.3055  -14.6781 C   0  0  0  0  0  0  0  0  0  0  0  0
   27.3234  -15.5741  -15.3727 C   0  0  1  0  0  0  0  0  0  0  0  0
   28.5248  -16.4650  -15.6003 C   0  0  0  0  0  0  0  0  0  0  0  0
   26.2459  -16.1797  -14.5296 C   0  0  0  0  0  0  0  0  0  0  0  0
   25.7793  -17.5357  -14.8478 C   0  0  2  0  0  0  0  0  0  0  0  0
   24.7301  -17.4227  -15.9299 N   0  0  0  0  0  0  0  0  0  0  0  0
   25.2212  -18.3909  -13.8165 C   0  0  0  0  0  0  0  0  0  0  0  0
   24.1233  -18.0993  -13.2884 O   0  0  0  0  0  0  0  0  0  0  0  0
   26.4031  -22.4258  -13.3062 C   0  0  0  0  0  0  0  0  0  0  0  0
   25.1260  -21.8415  -12.8004 C   0  0  1  0  0  0  0  0  0  0  0  0
   24.4609  -22.6481  -11.7281 C   0  0  0  0  0  0  0  0  0  0  0  0
   25.2736  -20.4186  -12.3039 C   0  0  2  0  0  0  0  0  0  0  0  0
   25.8313  -19.5835  -13.3264 N   0  0  0  0  0  0  0  0  0  0  0  0
   26.0201  -20.3446  -11.0247 C   0  0  0  0  0  0  0  0  0  0  0  0
   27.2315  -20.0022  -11.0097 O   0  0  0  0  0  0  0  0  0  0  0  0
   25.4289  -20.6482   -9.7682 N   0  0  0  0  0  0  0  0  0  0  0  0
   26.2119  -20.7389   -8.5344 C   0  0  1  0  0  0  0  0  0  0  0  0
   26.9224  -19.4542   -8.2860 C   0  0  0  0  0  0  0  0  0  0  0  0
   27.6342  -19.4161   -7.0166 C   0  0  0  0  0  0  0  0  0  0  0  0
   29.0112  -19.6042   -6.9882 C   0  0  0  0  0  0  0  0  0  0  0  0
   29.7405  -19.5744   -5.8098 C   0  0  0  0  0  0  0  0  0  0  0  0
   29.0921  -19.3519   -4.6182 C   0  0  0  0  0  0  0  0  0  0  0  0
   27.7292  -19.1604   -4.5970 C   0  0  0  0  0  0  0  0  0  0  0  0
   27.0419  -19.1977   -5.7906 C   0  0  0  0  0  0  0  0  0  0  0  0
   25.3363  -21.1022   -7.4233 C   0  0  0  0  0  0  0  0  0  0  0  0
   25.7038  -21.8013   -6.4338 O   0  0  0  0  0  0  0  0  0  0  0  0
   24.0118  -20.6625   -7.4337 O   0  0  0  0  0  0  0  0  0  0  0  0
  2  3  1  1
  2  1  1  0
  4  2  1  0
  5  7  1  0
  5  4  1  0
  5  6  1  6
  7  8  2  0
  7 13  1  0
 10  9  1  1
 10 12  1  0
 11 10  1  0
 12 14  1  0
 12 13  1  6
 14 15  2  0
 14 16  1  0
 16 17  1  0
 17 25  1  0
 17 18  1  1
 19 18  1  0
 19 20  2  0
 21 20  1  0
 22 21  2  0
 23 24  2  0
 23 22  1  0
 24 19  1  0
 25 27  1  0
 26 25  2  0
M  END
$$$$
