LVF.pdb
     RDKit          3D

 27 27  0  0  1  0  0  0  0  0999 V2000
   24.1833  -15.8216  -19.3757 C   0  0  0  0  0  0  0  0  0  0  0  0
   25.3578  -16.7748  -19.0647 C   0  0  1  0  0  0  0  0  0  0  0  0
   26.4226  -15.9198  -18.4133 C   0  0  0  0  0  0  0  0  0  0  0  0
   24.8658  -17.9102  -18.2237 C   0  0  0  0  0  0  0  0  0  0  0  0
   25.8485  -18.8289  -17.6338 C   0  0  2  0  0  0  0  0  0  0  0  0
   26.5107  -19.5859  -18.7620 N   0  0  0  0  0  0  0  0  0  0  0  0
   25.4451  -19.8179  -16.6512 C   0  0  0  0  0  0  0  0  0  0  0  0
   24.7815  -20.8190  -17.0071 O   0  0  0  0  0  0  0  0  0  0  0  0
   27.5745  -21.5724  -13.9673 C   0  0  0  0  0  0  0  0  0  0  0  0
   26.3424  -21.0551  -13.3022 C   0  0  1  0  0  0  0  0  0  0  0  0
   26.5777  -19.8956  -12.3841 C   0  0  0  0  0  0  0  0  0  0  0  0
   25.2490  -20.6753  -14.2786 C   0  0  2  0  0  0  0  0  0  0  0  0
   25.7459  -19.7547  -15.2582 N   0  0  0  0  0  0  0  0  0  0  0  0
   24.0279  -20.1878  -13.5928 C   0  0  0  0  0  0  0  0  0  0  0  0
   24.0121  -19.0560  -13.0420 O   0  0  0  0  0  0  0  0  0  0  0  0
   22.8301  -20.9493  -13.5171 N   0  0  0  0  0  0  0  0  0  0  0  0
   21.5962  -20.4150  -12.9377 C   0  0  1  0  0  0  0  0  0  0  0  0
   21.1689  -19.1983  -13.6820 C   0  0  0  0  0  0  0  0  0  0  0  0
   20.7254  -19.4708  -15.0416 C   0  0  0  0  0  0  0  0  0  0  0  0
   21.6620  -19.6760  -16.0481 C   0  0  0  0  0  0  0  0  0  0  0  0
   21.2972  -19.9427  -17.3586 C   0  0  0  0  0  0  0  0  0  0  0  0
   19.9647  -20.0097  -17.6898 C   0  0  0  0  0  0  0  0  0  0  0  0
   19.0013  -19.8131  -16.7266 C   0  0  0  0  0  0  0  0  0  0  0  0
   19.4064  -19.5505  -15.4361 C   0  0  0  0  0  0  0  0  0  0  0  0
   20.5643  -21.4485  -12.9425 C   0  0  0  0  0  0  0  0  0  0  0  0
   20.7357  -22.6158  -13.4016 O   0  0  0  0  0  0  0  0  0  0  0  0
   19.3070  -21.1519  -12.4141 O   0  0  0  0  0  0  0  0  0  0  0  0
  2  3  1  1
  2  1  1  0
  4  2  1  0
  5  7  1  0
  5  4  1  0
  5  6  1  6
  7  8  2  0
  7 13  1  0
 10  9  1  6
 10 12  1  0
 11 10  1  0
 12 14  1  0
 12 13  1  6
 14 15  2  0
 14 16  1  0
 16 17  1  0
 17 25  1  0
 17 18  1  6
 19 18  1  0
 19 20  2  0
 21 20  1  0
 22 21  2  0
 23 24  2  0
 23 22  1  0
 24 19  1  0
 25 27  1  0
 26 25  2  0
M  END
$$$$
