LVF.pdb
     RDKit          3D

 27 27  0  0  1  0  0  0  0  0999 V2000
   22.9256  -23.9417  -18.3436 C   0  0  0  0  0  0  0  0  0  0  0  0
   24.2460  -24.3125  -19.0535 C   0  0  1  0  0  0  0  0  0  0  0  0
   24.3715  -23.3554  -20.2186 C   0  0  0  0  0  0  0  0  0  0  0  0
   25.3717  -24.2521  -18.0699 C   0  0  0  0  0  0  0  0  0  0  0  0
   26.4075  -23.2253  -18.2451 C   0  0  2  0  0  0  0  0  0  0  0  0
   27.5457  -23.8435  -19.0240 N   0  0  0  0  0  0  0  0  0  0  0  0
   27.0009  -22.5647  -17.0971 C   0  0  0  0  0  0  0  0  0  0  0  0
   27.8507  -23.1653  -16.3997 O   0  0  0  0  0  0  0  0  0  0  0  0
   28.4206  -18.8656  -16.9802 C   0  0  0  0  0  0  0  0  0  0  0  0
   27.5098  -19.1186  -15.8250 C   0  0  1  0  0  0  0  0  0  0  0  0
   26.1688  -18.4621  -15.9415 C   0  0  0  0  0  0  0  0  0  0  0  0
   27.2964  -20.5908  -15.5418 C   0  0  2  0  0  0  0  0  0  0  0  0
   26.6945  -21.2387  -16.6696 N   0  0  0  0  0  0  0  0  0  0  0  0
   26.5530  -20.8179  -14.2789 C   0  0  0  0  0  0  0  0  0  0  0  0
   25.3059  -20.9896  -14.2925 O   0  0  0  0  0  0  0  0  0  0  0  0
   27.1867  -20.8546  -13.0071 N   0  0  0  0  0  0  0  0  0  0  0  0
   26.4352  -20.7686  -11.7535 C   0  0  1  0  0  0  0  0  0  0  0  0
   27.3642  -20.8702  -10.5944 C   0  0  0  0  0  0  0  0  0  0  0  0
   26.7487  -20.5270   -9.3205 C   0  0  0  0  0  0  0  0  0  0  0  0
   27.0817  -19.3343   -8.6889 C   0  0  0  0  0  0  0  0  0  0  0  0
   26.5244  -18.9548   -7.4777 C   0  0  0  0  0  0  0  0  0  0  0  0
   25.6080  -19.7777   -6.8671 C   0  0  0  0  0  0  0  0  0  0  0  0
   25.2476  -20.9689   -7.4549 C   0  0  0  0  0  0  0  0  0  0  0  0
   25.8250  -21.3086   -8.6590 C   0  0  0  0  0  0  0  0  0  0  0  0
   25.6638  -19.5287  -11.7279 C   0  0  0  0  0  0  0  0  0  0  0  0
   26.1205  -18.4051  -12.0909 O   0  0  0  0  0  0  0  0  0  0  0  0
   24.3425  -19.5629  -11.2800 O   0  0  0  0  0  0  0  0  0  0  0  0
  2  3  1  6
  2  1  1  0
  4  2  1  0
  5  7  1  0
  5  4  1  0
  5  6  1  1
  7  8  2  0
  7 13  1  0
 10  9  1  6
 10 12  1  0
 11 10  1  0
 12 14  1  0
 12 13  1  6
 14 15  2  0
 14 16  1  0
 16 17  1  0
 17 25  1  0
 17 18  1  1
 19 18  1  0
 19 20  2  0
 21 20  1  0
 22 21  2  0
 23 24  2  0
 23 22  1  0
 24 19  1  0
 25 27  1  0
 26 25  2  0
M  END
$$$$
