LVF.pdb
     RDKit          3D

 27 27  0  0  1  0  0  0  0  0999 V2000
   27.2670  -18.0579  -18.2085 C   0  0  0  0  0  0  0  0  0  0  0  0
   27.9597  -19.0680  -17.2679 C   0  0  1  0  0  0  0  0  0  0  0  0
   28.9075  -18.2545  -16.4140 C   0  0  0  0  0  0  0  0  0  0  0  0
   26.9211  -19.8255  -16.5024 C   0  0  0  0  0  0  0  0  0  0  0  0
   27.3385  -20.6081  -15.3315 C   0  0  2  0  0  0  0  0  0  0  0  0
   28.0707  -21.8329  -15.8298 N   0  0  0  0  0  0  0  0  0  0  0  0
   26.3635  -21.0733  -14.3623 C   0  0  0  0  0  0  0  0  0  0  0  0
   25.5928  -22.0169  -14.6537 O   0  0  0  0  0  0  0  0  0  0  0  0
   24.4723  -20.9576   -9.7333 C   0  0  0  0  0  0  0  0  0  0  0  0
   25.5518  -20.6551  -10.7188 C   0  0  1  0  0  0  0  0  0  0  0  0
   26.8383  -21.3788  -10.4659 C   0  0  0  0  0  0  0  0  0  0  0  0
   25.1392  -20.9043  -12.1543 C   0  0  2  0  0  0  0  0  0  0  0  0
   26.1927  -20.5341  -13.0528 N   0  0  0  0  0  0  0  0  0  0  0  0
   23.8436  -20.2635  -12.4858 C   0  0  0  0  0  0  0  0  0  0  0  0
   23.7303  -19.0097  -12.4816 O   0  0  0  0  0  0  0  0  0  0  0  0
   22.6791  -21.0067  -12.8201 N   0  0  0  0  0  0  0  0  0  0  0  0
   21.4033  -20.3637  -13.1407 C   0  0  1  0  0  0  0  0  0  0  0  0
   21.5361  -19.5613  -14.3878 C   0  0  0  0  0  0  0  0  0  0  0  0
   21.8713  -20.3557  -15.5608 C   0  0  0  0  0  0  0  0  0  0  0  0
   20.8981  -21.1424  -16.1662 C   0  0  0  0  0  0  0  0  0  0  0  0
   21.1596  -21.9155  -17.2867 C   0  0  0  0  0  0  0  0  0  0  0  0
   22.4224  -21.9144  -17.8300 C   0  0  0  0  0  0  0  0  0  0  0  0
   23.4184  -21.1510  -17.2646 C   0  0  0  0  0  0  0  0  0  0  0  0
   23.1167  -20.3969  -16.1516 C   0  0  0  0  0  0  0  0  0  0  0  0
   20.3575  -21.3770  -13.2522 C   0  0  0  0  0  0  0  0  0  0  0  0
   20.5664  -22.6217  -13.1525 O   0  0  0  0  0  0  0  0  0  0  0  0
   19.0426  -20.9699  -13.4824 O   0  0  0  0  0  0  0  0  0  0  0  0
  2  3  1  1
  2  1  1  0
  4  2  1  0
  5  7  1  0
  5  4  1  0
  5  6  1  6
  7  8  2  0
  7 13  1  0
 10  9  1  1
 10 12  1  0
 11 10  1  0
 12 14  1  0
 12 13  1  6
 14 15  2  0
 14 16  1  0
 16 17  1  0
 17 25  1  0
 17 18  1  6
 19 18  1  0
 19 20  2  0
 21 20  1  0
 22 21  2  0
 23 24  2  0
 23 22  1  0
 24 19  1  0
 25 27  1  0
 26 25  2  0
M  END
$$$$
