LVF.pdb
     RDKit          3D

 27 27  0  0  1  0  0  0  0  0999 V2000
   28.6131  -14.8455  -15.6071 C   0  0  0  0  0  0  0  0  0  0  0  0
   27.6224  -15.9374  -16.0667 C   0  0  1  0  0  0  0  0  0  0  0  0
   28.4684  -17.0304  -16.6821 C   0  0  0  0  0  0  0  0  0  0  0  0
   26.7883  -16.3717  -14.9031 C   0  0  0  0  0  0  0  0  0  0  0  0
   26.1105  -17.6734  -14.9676 C   0  0  2  0  0  0  0  0  0  0  0  0
   24.9450  -17.5421  -15.9209 N   0  0  0  0  0  0  0  0  0  0  0  0
   25.5949  -18.3033  -13.7660 C   0  0  0  0  0  0  0  0  0  0  0  0
   24.6868  -17.7454  -13.1075 O   0  0  0  0  0  0  0  0  0  0  0  0
   25.9982  -22.4475  -13.1207 C   0  0  0  0  0  0  0  0  0  0  0  0
   24.9532  -21.5833  -12.4967 C   0  0  1  0  0  0  0  0  0  0  0  0
   24.2825  -22.1907  -11.3033 C   0  0  0  0  0  0  0  0  0  0  0  0
   25.4637  -20.2113  -12.1093 C   0  0  2  0  0  0  0  0  0  0  0  0
   26.0439  -19.5515  -13.2415 N   0  0  0  0  0  0  0  0  0  0  0  0
   26.3730  -20.2601  -10.9389 C   0  0  0  0  0  0  0  0  0  0  0  0
   27.5937  -20.5290  -11.0878 O   0  0  0  0  0  0  0  0  0  0  0  0
   25.9333  -20.0125   -9.6101 N   0  0  0  0  0  0  0  0  0  0  0  0
   26.7325  -20.3768   -8.4387 C   0  0  1  0  0  0  0  0  0  0  0  0
   27.3070  -19.1537   -7.8133 C   0  0  0  0  0  0  0  0  0  0  0  0
   28.0499  -19.4172   -6.5894 C   0  0  0  0  0  0  0  0  0  0  0  0
   27.5497  -18.9818   -5.3676 C   0  0  0  0  0  0  0  0  0  0  0  0
   28.2121  -19.2079   -4.1711 C   0  0  0  0  0  0  0  0  0  0  0  0
   29.4080  -19.8859   -4.1773 C   0  0  0  0  0  0  0  0  0  0  0  0
   29.9423  -20.3361   -5.3631 C   0  0  0  0  0  0  0  0  0  0  0  0
   29.2520  -20.0905   -6.5300 C   0  0  0  0  0  0  0  0  0  0  0  0
   25.9099  -21.1350   -7.4999 C   0  0  0  0  0  0  0  0  0  0  0  0
   24.6441  -21.1482   -7.5209 O   0  0  0  0  0  0  0  0  0  0  0  0
   26.5370  -21.8971   -6.5131 O   0  0  0  0  0  0  0  0  0  0  0  0
  2  3  1  1
  2  1  1  0
  4  2  1  0
  5  7  1  0
  5  4  1  0
  5  6  1  6
  7  8  2  0
  7 13  1  0
 10  9  1  1
 10 12  1  0
 11 10  1  0
 12 14  1  0
 12 13  1  6
 14 15  2  0
 14 16  1  0
 16 17  1  0
 17 25  1  0
 17 18  1  1
 19 18  1  0
 19 20  2  0
 21 20  1  0
 22 21  2  0
 23 24  2  0
 23 22  1  0
 24 19  1  0
 25 27  1  0
 26 25  2  0
M  END
$$$$
