LVF.pdb
     RDKit          3D

 27 27  0  0  1  0  0  0  0  0999 V2000
   30.6983  -21.4498  -20.3014 C   0  0  0  0  0  0  0  0  0  0  0  0
   29.5203  -20.5024  -19.9855 C   0  0  1  0  0  0  0  0  0  0  0  0
   28.2674  -21.2586  -20.3696 C   0  0  0  0  0  0  0  0  0  0  0  0
   29.5869  -20.0903  -18.5488 C   0  0  0  0  0  0  0  0  0  0  0  0
   28.4323  -19.4003  -17.9584 C   0  0  2  0  0  0  0  0  0  0  0  0
   28.3415  -18.0285  -18.5864 N   0  0  0  0  0  0  0  0  0  0  0  0
   28.3361  -19.2068  -16.5232 C   0  0  0  0  0  0  0  0  0  0  0  0
   29.3528  -18.8855  -15.8657 O   0  0  0  0  0  0  0  0  0  0  0  0
   27.1573  -16.5519  -14.7738 C   0  0  0  0  0  0  0  0  0  0  0  0
   26.3640  -17.6751  -14.1930 C   0  0  1  0  0  0  0  0  0  0  0  0
   24.9592  -17.7668  -14.7037 C   0  0  0  0  0  0  0  0  0  0  0  0
   27.0235  -19.0270  -14.3675 C   0  0  2  0  0  0  0  0  0  0  0  0
   27.1415  -19.3544  -15.7577 N   0  0  0  0  0  0  0  0  0  0  0  0
   26.3499  -20.0866  -13.5783 C   0  0  0  0  0  0  0  0  0  0  0  0
   25.5943  -20.9213  -14.1415 O   0  0  0  0  0  0  0  0  0  0  0  0
   26.5117  -20.2217  -12.1727 N   0  0  0  0  0  0  0  0  0  0  0  0
   25.8403  -21.2708  -11.4030 C   0  0  1  0  0  0  0  0  0  0  0  0
   26.7756  -21.8407  -10.3944 C   0  0  0  0  0  0  0  0  0  0  0  0
   27.0846  -20.9283   -9.3029 C   0  0  0  0  0  0  0  0  0  0  0  0
   26.0586  -20.2496   -8.6553 C   0  0  0  0  0  0  0  0  0  0  0  0
   26.2939  -19.3724   -7.6081 C   0  0  0  0  0  0  0  0  0  0  0  0
   27.5833  -19.1556   -7.1836 C   0  0  0  0  0  0  0  0  0  0  0  0
   28.6317  -19.8052   -7.7948 C   0  0  0  0  0  0  0  0  0  0  0  0
   28.3545  -20.6689   -8.8319 C   0  0  0  0  0  0  0  0  0  0  0  0
   24.6336  -20.7291  -10.7839 C   0  0  0  0  0  0  0  0  0  0  0  0
   24.3824  -19.4918  -10.6897 O   0  0  0  0  0  0  0  0  0  0  0  0
   23.6882  -21.6111  -10.2585 O   0  0  0  0  0  0  0  0  0  0  0  0
  2  3  1  1
  2  1  1  0
  4  2  1  0
  5  7  1  0
  5  4  1  0
  5  6  1  6
  7  8  2  0
  7 13  1  0
 10  9  1  6
 10 12  1  0
 11 10  1  0
 12 14  1  0
 12 13  1  6
 14 15  2  0
 14 16  1  0
 16 17  1  0
 17 25  1  0
 17 18  1  1
 19 18  1  0
 19 20  2  0
 21 20  1  0
 22 21  2  0
 23 24  2  0
 23 22  1  0
 24 19  1  0
 25 27  1  0
 26 25  2  0
M  END
$$$$
