LVF.pdb
     RDKit          3D

 27 27  0  0  1  0  0  0  0  0999 V2000
   22.2107   -9.6502  -22.9331 C   0  0  0  0  0  0  0  0  0  0  0  0
   22.1272  -10.8373  -21.9489 C   0  0  1  0  0  0  0  0  0  0  0  0
   23.4880  -11.4977  -21.9815 C   0  0  0  0  0  0  0  0  0  0  0  0
   21.7064  -10.3370  -20.6031 C   0  0  0  0  0  0  0  0  0  0  0  0
   21.6973  -11.2751  -19.4727 C   0  0  2  0  0  0  0  0  0  0  0  0
   20.5573  -12.2447  -19.6845 N   0  0  0  0  0  0  0  0  0  0  0  0
   21.5846  -10.7938  -18.1082 C   0  0  0  0  0  0  0  0  0  0  0  0
   20.4724  -10.4253  -17.6646 O   0  0  0  0  0  0  0  0  0  0  0  0
   23.4527  -10.3796  -13.5239 C   0  0  0  0  0  0  0  0  0  0  0  0
   23.3483  -10.9980  -14.8785 C   0  0  1  0  0  0  0  0  0  0  0  0
   22.7824  -12.3845  -14.8817 C   0  0  0  0  0  0  0  0  0  0  0  0
   22.5583  -10.1588  -15.8607 C   0  0  2  0  0  0  0  0  0  0  0  0
   22.6673  -10.6966  -17.1847 N   0  0  0  0  0  0  0  0  0  0  0  0
   22.9176   -8.7219  -15.7880 C   0  0  0  0  0  0  0  0  0  0  0  0
   24.0140   -8.3122  -16.2516 O   0  0  0  0  0  0  0  0  0  0  0  0
   22.0676   -7.7431  -15.2050 N   0  0  0  0  0  0  0  0  0  0  0  0
   22.4373   -6.3284  -15.1286 C   0  0  1  0  0  0  0  0  0  0  0  0
   22.1411   -5.6537  -16.4224 C   0  0  0  0  0  0  0  0  0  0  0  0
   20.7295   -5.6656  -16.7779 C   0  0  0  0  0  0  0  0  0  0  0  0
   20.2550   -6.5903  -17.7011 C   0  0  0  0  0  0  0  0  0  0  0  0
   18.9212   -6.6499  -18.0739 C   0  0  0  0  0  0  0  0  0  0  0  0
   18.0235   -5.7689  -17.5191 C   0  0  0  0  0  0  0  0  0  0  0  0
   18.4472   -4.8355  -16.6006 C   0  0  0  0  0  0  0  0  0  0  0  0
   19.7815   -4.8100  -16.2574 C   0  0  0  0  0  0  0  0  0  0  0  0
   21.7384   -5.6983  -14.0117 C   0  0  0  0  0  0  0  0  0  0  0  0
   20.8058   -6.2524  -13.3590 O   0  0  0  0  0  0  0  0  0  0  0  0
   22.1052   -4.4085  -13.6250 O   0  0  0  0  0  0  0  0  0  0  0  0
  2  3  1  1
  2  1  1  0
  4  2  1  0
  5  7  1  0
  5  4  1  0
  5  6  1  6
  7  8  2  0
  7 13  1  0
 10  9  1  1
 10 12  1  0
 11 10  1  0
 12 14  1  0
 12 13  1  6
 14 15  2  0
 14 16  1  0
 16 17  1  0
 17 25  1  0
 17 18  1  6
 19 18  1  0
 19 20  2  0
 21 20  1  0
 22 21  2  0
 23 24  2  0
 23 22  1  0
 24 19  1  0
 25 27  1  0
 26 25  2  0
M  END
$$$$
