LVF.pdb
     RDKit          3D

 27 27  0  0  1  0  0  0  0  0999 V2000
   17.2851   -9.9849  -20.7410 C   0  0  0  0  0  0  0  0  0  0  0  0
   18.2675  -11.0073  -20.1290 C   0  0  1  0  0  0  0  0  0  0  0  0
   19.3693  -11.1843  -21.1506 C   0  0  0  0  0  0  0  0  0  0  0  0
   18.7263  -10.5154  -18.7925 C   0  0  0  0  0  0  0  0  0  0  0  0
   19.8042  -11.2398  -18.1060 C   0  0  2  0  0  0  0  0  0  0  0  0
   19.2449  -12.5610  -17.6305 N   0  0  0  0  0  0  0  0  0  0  0  0
   20.4928  -10.6489  -16.9733 C   0  0  0  0  0  0  0  0  0  0  0  0
   19.8669  -10.4132  -15.9141 O   0  0  0  0  0  0  0  0  0  0  0  0
   23.3947  -11.8949  -14.9308 C   0  0  0  0  0  0  0  0  0  0  0  0
   23.7501  -10.5358  -15.4354 C   0  0  1  0  0  0  0  0  0  0  0  0
   24.7151  -10.5359  -16.5807 C   0  0  0  0  0  0  0  0  0  0  0  0
   22.5442   -9.7087  -15.8286 C   0  0  2  0  0  0  0  0  0  0  0  0
   21.8748  -10.2961  -16.9515 N   0  0  0  0  0  0  0  0  0  0  0  0
   22.8868   -8.2815  -16.0406 C   0  0  0  0  0  0  0  0  0  0  0  0
   23.5433   -7.9247  -17.0537 O   0  0  0  0  0  0  0  0  0  0  0  0
   22.5048   -7.2542  -15.1356 N   0  0  0  0  0  0  0  0  0  0  0  0
   22.7994   -5.8415  -15.3828 C   0  0  1  0  0  0  0  0  0  0  0  0
   22.1277   -5.3920  -16.6332 C   0  0  0  0  0  0  0  0  0  0  0  0
   20.6754   -5.3595  -16.5371 C   0  0  0  0  0  0  0  0  0  0  0  0
   20.0341   -4.1978  -16.1226 C   0  0  0  0  0  0  0  0  0  0  0  0
   18.6548   -4.1086  -16.0166 C   0  0  0  0  0  0  0  0  0  0  0  0
   17.8801   -5.2005  -16.3290 C   0  0  0  0  0  0  0  0  0  0  0  0
   18.4708   -6.3724  -16.7438 C   0  0  0  0  0  0  0  0  0  0  0  0
   19.8448   -6.4190  -16.8358 C   0  0  0  0  0  0  0  0  0  0  0  0
   22.3920   -5.0459  -14.2278 C   0  0  0  0  0  0  0  0  0  0  0  0
   21.8028   -5.5229  -13.2138 O   0  0  0  0  0  0  0  0  0  0  0  0
   22.6587   -3.6760  -14.2216 O   0  0  0  0  0  0  0  0  0  0  0  0
  2  3  1  6
  2  1  1  0
  4  2  1  0
  5  7  1  0
  5  4  1  0
  5  6  1  1
  7  8  2  0
  7 13  1  0
 10  9  1  6
 10 12  1  0
 11 10  1  0
 12 14  1  0
 12 13  1  6
 14 15  2  0
 14 16  1  0
 16 17  1  0
 17 25  1  0
 17 18  1  6
 19 18  1  0
 19 20  2  0
 21 20  1  0
 22 21  2  0
 23 24  2  0
 23 22  1  0
 24 19  1  0
 25 27  1  0
 26 25  2  0
M  END
$$$$
