EAK.pdb
     RDKit          3D

 24 23  0  0  1  0  0  0  0  0999 V2000
   12.4674  -18.4108   20.2046 N   0  0  0  0  0  0  0  0  0  0  0  0
   11.7322  -17.1713   20.0638 C   0  0  1  0  0  0  0  0  0  0  0  0
   11.1241  -17.0657   18.6830 C   0  0  0  0  0  0  0  0  0  0  0  0
   11.0280  -18.4304   18.0234 C   0  0  0  0  0  0  0  0  0  0  0  0
   11.5170  -18.3198   16.6343 C   0  0  0  0  0  0  0  0  0  0  0  0
   12.2606  -17.3732   16.2637 O   0  0  0  0  0  0  0  0  0  0  0  0
   10.7345  -17.0887   21.1324 C   0  0  0  0  0  0  0  0  0  0  0  0
    9.9219  -16.1332   21.1696 O   0  0  0  0  0  0  0  0  0  0  0  0
   11.1718  -19.2654   15.6743 O   0  0  0  0  0  0  0  0  0  0  0  0
    9.3103  -19.3630   23.7935 C   0  0  0  0  0  0  0  0  0  0  0  0
    9.5899  -18.0191   23.1623 C   0  0  2  0  0  0  0  0  0  0  0  0
   10.6289  -18.0720   22.1763 N   0  0  0  0  0  0  0  0  0  0  0  0
    9.8779  -17.0081   24.2263 C   0  0  0  0  0  0  0  0  0  0  0  0
   11.0870  -16.7957   24.4861 O   0  0  0  0  0  0  0  0  0  0  0  0
    8.8822  -16.3160   24.9170 N   0  0  0  0  0  0  0  0  0  0  0  0
    9.1325  -15.3161   25.9722 C   0  0  1  0  0  0  0  0  0  0  0  0
    7.8817  -14.5950   26.1831 C   0  0  0  0  0  0  0  0  0  0  0  0
    7.7912  -13.1439   26.3136 C   0  0  0  0  0  0  0  0  0  0  0  0
    6.5188  -12.4450   26.4947 C   0  0  0  0  0  0  0  0  0  0  0  0
    6.4950  -10.9663   26.6385 C   0  0  0  0  0  0  0  0  0  0  0  0
    5.1930  -10.3866   26.8603 N   0  0  0  0  0  0  0  0  0  0  0  0
    9.6252  -16.0456   27.1856 C   0  0  0  0  0  0  0  0  0  0  0  0
   10.4331  -15.5194   28.1610 O   0  0  0  0  0  0  0  0  0  0  0  0
    9.2832  -17.2651   27.3635 O   0  0  0  0  0  0  0  0  0  0  0  0
  2  1  1  6
  2  3  1  0
  3  4  1  0
  4  5  1  0
  5  6  2  0
  5  9  1  0
  7  2  1  0
  8  7  2  0
 11 10  1  1
 11 13  1  0
 11 12  1  0
 12  7  1  0
 13 15  1  0
 14 13  2  0
 15 16  1  0
 16 17  1  1
 16 22  1  0
 17 18  1  0
 18 19  1  0
 19 20  1  0
 21 20  1  0
 22 24  2  0
 22 23  1  0
M  END
$$$$
