EAK.pdb
     RDKit          3D

 24 23  0  0  1  0  0  0  0  0999 V2000
    7.5571  -18.2999   18.3559 N   0  0  0  0  0  0  0  0  0  0  0  0
    6.7064  -17.2406   18.8570 C   0  0  1  0  0  0  0  0  0  0  0  0
    5.3997  -17.8035   19.3701 C   0  0  0  0  0  0  0  0  0  0  0  0
    5.6208  -18.6530   20.6094 C   0  0  0  0  0  0  0  0  0  0  0  0
    4.3206  -19.2014   21.0451 C   0  0  0  0  0  0  0  0  0  0  0  0
    4.0348  -19.3491   22.2628 O   0  0  0  0  0  0  0  0  0  0  0  0
    7.4398  -16.4865   19.8756 C   0  0  0  0  0  0  0  0  0  0  0  0
    8.2763  -17.0628   20.6124 O   0  0  0  0  0  0  0  0  0  0  0  0
    3.3541  -19.5788   20.1188 O   0  0  0  0  0  0  0  0  0  0  0  0
    7.6420  -12.8858   21.1199 C   0  0  0  0  0  0  0  0  0  0  0  0
    7.9928  -14.3547   21.0781 C   0  0  2  0  0  0  0  0  0  0  0  0
    7.2504  -15.0768   20.0871 N   0  0  0  0  0  0  0  0  0  0  0  0
    7.8387  -14.9529   22.4402 C   0  0  0  0  0  0  0  0  0  0  0  0
    6.6699  -15.0308   22.8899 O   0  0  0  0  0  0  0  0  0  0  0  0
    8.9135  -15.4119   23.2029 N   0  0  0  0  0  0  0  0  0  0  0  0
    8.8164  -15.8644   24.6035 C   0  0  1  0  0  0  0  0  0  0  0  0
    8.6021  -17.3074   24.5727 C   0  0  0  0  0  0  0  0  0  0  0  0
    7.3479  -17.9351   24.1675 C   0  0  0  0  0  0  0  0  0  0  0  0
    7.1987  -19.3836   24.0279 C   0  0  0  0  0  0  0  0  0  0  0  0
    5.9163  -19.9571   23.5437 C   0  0  0  0  0  0  0  0  0  0  0  0
    5.8591  -21.3978   23.5015 N   0  0  0  0  0  0  0  0  0  0  0  0
   10.0753  -15.4522   25.3054 C   0  0  0  0  0  0  0  0  0  0  0  0
   11.2115  -14.9821   24.6979 O   0  0  0  0  0  0  0  0  0  0  0  0
   10.1338  -15.5290   26.5807 O   0  0  0  0  0  0  0  0  0  0  0  0
  2  1  1  1
  2  3  1  0
  3  4  1  0
  4  5  1  0
  5  6  2  0
  5  9  1  0
  7  2  1  0
  8  7  2  0
 11 10  1  1
 11 13  1  0
 11 12  1  0
 12  7  1  0
 13 15  1  0
 14 13  2  0
 15 16  1  0
 16 17  1  6
 16 22  1  0
 17 18  1  0
 18 19  1  0
 19 20  1  0
 21 20  1  0
 22 24  2  0
 22 23  1  0
M  END
$$$$
