EAK.pdb
     RDKit          3D

 24 23  0  0  1  0  0  0  0  0999 V2000
   10.6127  -16.8233   17.7356 N   0  0  0  0  0  0  0  0  0  0  0  0
    9.5986  -17.4273   18.5745 C   0  0  1  0  0  0  0  0  0  0  0  0
   10.0215  -18.8130   19.0089 C   0  0  0  0  0  0  0  0  0  0  0  0
   10.7029  -19.5564   17.8732 C   0  0  0  0  0  0  0  0  0  0  0  0
   11.0977  -20.8957   18.3544 C   0  0  0  0  0  0  0  0  0  0  0  0
   11.2682  -21.1398   19.5781 O   0  0  0  0  0  0  0  0  0  0  0  0
    9.3258  -16.5358   19.7037 C   0  0  0  0  0  0  0  0  0  0  0  0
   10.2706  -16.0523   20.3732 O   0  0  0  0  0  0  0  0  0  0  0  0
   11.2978  -21.9473   17.4662 O   0  0  0  0  0  0  0  0  0  0  0  0
    6.3169  -14.8566   21.3206 C   0  0  0  0  0  0  0  0  0  0  0  0
    7.7477  -15.3354   21.2414 C   0  0  2  0  0  0  0  0  0  0  0  0
    7.9935  -16.1705   20.1026 N   0  0  0  0  0  0  0  0  0  0  0  0
    8.1304  -16.0068   22.5219 C   0  0  0  0  0  0  0  0  0  0  0  0
    8.1731  -17.2608   22.5071 O   0  0  0  0  0  0  0  0  0  0  0  0
    8.4315  -15.3107   23.6933 N   0  0  0  0  0  0  0  0  0  0  0  0
    8.7228  -15.9425   24.9941 C   0  0  1  0  0  0  0  0  0  0  0  0
    9.0545  -14.8696   25.9256 C   0  0  0  0  0  0  0  0  0  0  0  0
    9.4788  -15.0917   27.3046 C   0  0  0  0  0  0  0  0  0  0  0  0
    9.8307  -13.9968   28.2089 C   0  0  0  0  0  0  0  0  0  0  0  0
   10.2545  -14.2888   29.6027 C   0  0  0  0  0  0  0  0  0  0  0  0
   10.6274  -13.1393   30.3902 N   0  0  0  0  0  0  0  0  0  0  0  0
    7.5197  -16.7429   25.3930 C   0  0  0  0  0  0  0  0  0  0  0  0
    7.5318  -17.8632   26.1842 O   0  0  0  0  0  0  0  0  0  0  0  0
    6.3638  -16.3812   24.9820 O   0  0  0  0  0  0  0  0  0  0  0  0
  2  1  1  1
  2  3  1  0
  3  4  1  0
  4  5  1  0
  5  6  2  0
  5  9  1  0
  7  2  1  0
  8  7  2  0
 11 10  1  1
 11 13  1  0
 11 12  1  0
 12  7  1  0
 13 15  1  0
 14 13  2  0
 15 16  1  0
 16 17  1  1
 16 22  1  0
 17 18  1  0
 18 19  1  0
 19 20  1  0
 21 20  1  0
 22 24  2  0
 22 23  1  0
M  END
$$$$
