EAK.pdb
     RDKit          3D

 24 23  0  0  1  0  0  0  0  0999 V2000
    8.6315  -14.7064   20.3927 N   0  0  0  0  0  0  0  0  0  0  0  0
    7.6842  -15.0611   21.4289 C   0  0  1  0  0  0  0  0  0  0  0  0
    7.5098  -16.5618   21.5012 C   0  0  0  0  0  0  0  0  0  0  0  0
    6.4616  -17.0376   20.5105 C   0  0  0  0  0  0  0  0  0  0  0  0
    6.2314  -18.4809   20.7221 C   0  0  0  0  0  0  0  0  0  0  0  0
    6.8134  -19.3566   20.0287 O   0  0  0  0  0  0  0  0  0  0  0  0
    8.1289  -14.4784   22.6965 C   0  0  0  0  0  0  0  0  0  0  0  0
    9.3038  -14.6567   23.0994 O   0  0  0  0  0  0  0  0  0  0  0  0
    5.3554  -18.9317   21.7041 O   0  0  0  0  0  0  0  0  0  0  0  0
    6.7172  -12.2436   25.4398 C   0  0  0  0  0  0  0  0  0  0  0  0
    7.6839  -13.2298   24.8270 C   0  0  2  0  0  0  0  0  0  0  0  0
    7.2681  -13.6875   23.5339 N   0  0  0  0  0  0  0  0  0  0  0  0
    7.9214  -14.3635   25.7732 C   0  0  0  0  0  0  0  0  0  0  0  0
    7.0513  -15.2674   25.7955 O   0  0  0  0  0  0  0  0  0  0  0  0
    9.0392  -14.4482   26.6043 N   0  0  0  0  0  0  0  0  0  0  0  0
    9.2968  -15.5456   27.5558 C   0  0  1  0  0  0  0  0  0  0  0  0
   10.3763  -16.3520   26.9961 C   0  0  0  0  0  0  0  0  0  0  0  0
   10.9593  -17.5097   27.6676 C   0  0  0  0  0  0  0  0  0  0  0  0
   12.0861  -18.2600   27.1130 C   0  0  0  0  0  0  0  0  0  0  0  0
   12.6213  -19.4428   27.8356 C   0  0  0  0  0  0  0  0  0  0  0  0
   13.7701  -20.0707   27.2301 N   0  0  0  0  0  0  0  0  0  0  0  0
    9.6229  -14.9318   28.8841 C   0  0  0  0  0  0  0  0  0  0  0  0
    9.7142  -15.6060   30.0749 O   0  0  0  0  0  0  0  0  0  0  0  0
    9.8436  -13.6740   28.9541 O   0  0  0  0  0  0  0  0  0  0  0  0
  2  1  1  6
  2  3  1  0
  3  4  1  0
  4  5  1  0
  5  6  2  0
  5  9  1  0
  7  2  1  0
  8  7  2  0
 11 10  1  1
 11 13  1  0
 11 12  1  0
 12  7  1  0
 13 15  1  0
 14 13  2  0
 15 16  1  0
 16 17  1  6
 16 22  1  0
 17 18  1  0
 18 19  1  0
 19 20  1  0
 21 20  1  0
 22 24  2  0
 22 23  1  0
M  END
$$$$
