EAK.pdb
     RDKit          3D

 24 23  0  0  1  0  0  0  0  0999 V2000
    9.1609  -17.1896   18.1797 N   0  0  0  0  0  0  0  0  0  0  0  0
    8.0648  -16.6320   18.9442 C   0  0  1  0  0  0  0  0  0  0  0  0
    6.9636  -17.6536   19.1207 C   0  0  0  0  0  0  0  0  0  0  0  0
    7.4311  -19.0373   18.7042 C   0  0  0  0  0  0  0  0  0  0  0  0
    6.3012  -19.9786   18.8385 C   0  0  0  0  0  0  0  0  0  0  0  0
    5.1363  -19.5857   19.1123 O   0  0  0  0  0  0  0  0  0  0  0  0
    8.5837  -16.1292   20.2178 C   0  0  0  0  0  0  0  0  0  0  0  0
    9.6699  -16.5600   20.6751 O   0  0  0  0  0  0  0  0  0  0  0  0
    6.4825  -21.3469   18.6660 O   0  0  0  0  0  0  0  0  0  0  0  0
    7.5599  -13.5946   22.8786 C   0  0  0  0  0  0  0  0  0  0  0  0
    8.4155  -14.6712   22.2531 C   0  0  2  0  0  0  0  0  0  0  0  0
    7.8973  -15.1372   21.0005 N   0  0  0  0  0  0  0  0  0  0  0  0
    8.6182  -15.7887   23.2264 C   0  0  0  0  0  0  0  0  0  0  0  0
    7.6430  -16.5567   23.4100 O   0  0  0  0  0  0  0  0  0  0  0  0
    9.8138  -15.9999   23.9143 N   0  0  0  0  0  0  0  0  0  0  0  0
   10.0410  -17.0824   24.8903 C   0  0  1  0  0  0  0  0  0  0  0  0
   11.1793  -17.8588   24.4103 C   0  0  0  0  0  0  0  0  0  0  0  0
   12.5698  -17.5414   24.7214 C   0  0  0  0  0  0  0  0  0  0  0  0
   13.6814  -17.9258   23.8515 C   0  0  0  0  0  0  0  0  0  0  0  0
   15.0830  -17.7026   24.2911 C   0  0  0  0  0  0  0  0  0  0  0  0
   16.0976  -18.0555   23.3285 N   0  0  0  0  0  0  0  0  0  0  0  0
   10.2595  -16.4500   26.2318 C   0  0  0  0  0  0  0  0  0  0  0  0
   10.3463  -17.1190   27.4259 O   0  0  0  0  0  0  0  0  0  0  0  0
   10.3823  -15.1793   26.3113 O   0  0  0  0  0  0  0  0  0  0  0  0
  2  1  1  1
  2  3  1  0
  3  4  1  0
  4  5  1  0
  5  6  2  0
  5  9  1  0
  7  2  1  0
  8  7  2  0
 11 10  1  1
 11 13  1  0
 11 12  1  0
 12  7  1  0
 13 15  1  0
 14 13  2  0
 15 16  1  0
 16 17  1  6
 16 22  1  0
 17 18  1  0
 18 19  1  0
 19 20  1  0
 21 20  1  0
 22 24  2  0
 22 23  1  0
M  END
$$$$
