EAK.pdb
     RDKit          3D

 24 23  0  0  1  0  0  0  0  0999 V2000
    7.9361  -12.7258   19.2888 N   0  0  0  0  0  0  0  0  0  0  0  0
    7.0681  -13.5108   20.1416 C   0  0  1  0  0  0  0  0  0  0  0  0
    6.7795  -14.8567   19.5148 C   0  0  0  0  0  0  0  0  0  0  0  0
    7.9905  -15.3783   18.7610 C   0  0  0  0  0  0  0  0  0  0  0  0
    8.1343  -16.8218   19.0378 C   0  0  0  0  0  0  0  0  0  0  0  0
    7.4349  -17.4057   19.9074 O   0  0  0  0  0  0  0  0  0  0  0  0
    7.6800  -13.6203   21.4674 C   0  0  0  0  0  0  0  0  0  0  0  0
    8.9223  -13.7536   21.5840 O   0  0  0  0  0  0  0  0  0  0  0  0
    9.0556  -17.5978   18.3423 O   0  0  0  0  0  0  0  0  0  0  0  0
    6.6242  -13.3912   25.1127 C   0  0  0  0  0  0  0  0  0  0  0  0
    7.5190  -13.7976   23.9652 C   0  0  2  0  0  0  0  0  0  0  0  0
    6.9139  -13.5826   22.6837 N   0  0  0  0  0  0  0  0  0  0  0  0
    7.9636  -15.2143   24.1445 C   0  0  0  0  0  0  0  0  0  0  0  0
    7.1608  -16.1053   23.7754 O   0  0  0  0  0  0  0  0  0  0  0  0
    9.1986  -15.5680   24.6896 N   0  0  0  0  0  0  0  0  0  0  0  0
    9.6073  -16.9466   25.0186 C   0  0  1  0  0  0  0  0  0  0  0  0
   10.8972  -17.1749   24.3760 C   0  0  0  0  0  0  0  0  0  0  0  0
   11.6940  -18.3844   24.5579 C   0  0  0  0  0  0  0  0  0  0  0  0
   12.9799  -18.5909   23.8915 C   0  0  0  0  0  0  0  0  0  0  0  0
   13.7704  -19.8195   24.1621 C   0  0  0  0  0  0  0  0  0  0  0  0
   15.0574  -19.8830   23.5138 N   0  0  0  0  0  0  0  0  0  0  0  0
    9.6428  -17.0687   26.5124 C   0  0  0  0  0  0  0  0  0  0  0  0
    9.6926  -18.2443   27.2169 O   0  0  0  0  0  0  0  0  0  0  0  0
    9.6286  -16.0079   27.2267 O   0  0  0  0  0  0  0  0  0  0  0  0
  2  1  1  6
  2  3  1  0
  3  4  1  0
  4  5  1  0
  5  6  2  0
  5  9  1  0
  7  2  1  0
  8  7  2  0
 11 10  1  1
 11 13  1  0
 11 12  1  0
 12  7  1  0
 13 15  1  0
 14 13  2  0
 15 16  1  0
 16 17  1  1
 16 22  1  0
 17 18  1  0
 18 19  1  0
 19 20  1  0
 21 20  1  0
 22 24  2  0
 22 23  1  0
M  END
$$$$
