EAK.pdb
     RDKit          3D

 24 23  0  0  1  0  0  0  0  0999 V2000
    8.3729  -17.0697   16.7229 N   0  0  0  0  0  0  0  0  0  0  0  0
    7.4263  -17.0102   17.8171 C   0  0  1  0  0  0  0  0  0  0  0  0
    6.8665  -18.3836   18.1135 C   0  0  0  0  0  0  0  0  0  0  0  0
    7.9722  -19.4236   18.1661 C   0  0  0  0  0  0  0  0  0  0  0  0
    7.3661  -20.7456   18.4230 C   0  0  0  0  0  0  0  0  0  0  0  0
    8.0648  -21.7872   18.5379 O   0  0  0  0  0  0  0  0  0  0  0  0
    8.0806  -16.4003   18.9764 C   0  0  0  0  0  0  0  0  0  0  0  0
    9.2834  -16.6514   19.2314 O   0  0  0  0  0  0  0  0  0  0  0  0
    5.9886  -20.8915   18.5487 O   0  0  0  0  0  0  0  0  0  0  0  0
    7.1895  -13.9078   21.7238 C   0  0  0  0  0  0  0  0  0  0  0  0
    8.0925  -14.8161   20.9224 C   0  0  2  0  0  0  0  0  0  0  0  0
    7.4016  -15.5004   19.8692 N   0  0  0  0  0  0  0  0  0  0  0  0
    8.8005  -15.7644   21.8369 C   0  0  0  0  0  0  0  0  0  0  0  0
    8.2128  -16.8437   22.0905 O   0  0  0  0  0  0  0  0  0  0  0  0
   10.0499  -15.4997   22.3993 N   0  0  0  0  0  0  0  0  0  0  0  0
   10.7615  -16.4003   23.3259 C   0  0  1  0  0  0  0  0  0  0  0  0
   12.1897  -16.1845   23.1193 C   0  0  0  0  0  0  0  0  0  0  0  0
   13.2341  -16.9380   23.8067 C   0  0  0  0  0  0  0  0  0  0  0  0
   14.6585  -16.6558   23.6291 C   0  0  0  0  0  0  0  0  0  0  0  0
   15.6715  -17.4224   24.3997 C   0  0  0  0  0  0  0  0  0  0  0  0
   17.0401  -17.0114   24.2034 N   0  0  0  0  0  0  0  0  0  0  0  0
   10.2947  -16.0879   24.7158 C   0  0  0  0  0  0  0  0  0  0  0  0
    9.5085  -15.0228   25.0741 O   0  0  0  0  0  0  0  0  0  0  0  0
   10.6362  -16.8584   25.6778 O   0  0  0  0  0  0  0  0  0  0  0  0
  2  1  1  6
  2  3  1  0
  3  4  1  0
  4  5  1  0
  5  6  2  0
  5  9  1  0
  7  2  1  0
  8  7  2  0
 11 10  1  1
 11 13  1  0
 11 12  1  0
 12  7  1  0
 13 15  1  0
 14 13  2  0
 15 16  1  0
 16 17  1  1
 16 22  1  0
 17 18  1  0
 18 19  1  0
 19 20  1  0
 21 20  1  0
 22 24  2  0
 22 23  1  0
M  END
$$$$
