EAK.pdb
     RDKit          3D

 24 23  0  0  1  0  0  0  0  0999 V2000
   12.8008  -19.4440   20.3650 N   0  0  0  0  0  0  0  0  0  0  0  0
   12.7204  -18.0302   20.0624 C   0  0  1  0  0  0  0  0  0  0  0  0
   12.8792  -17.7926   18.5772 C   0  0  0  0  0  0  0  0  0  0  0  0
   14.2364  -18.2699   18.0905 C   0  0  0  0  0  0  0  0  0  0  0  0
   14.3277  -18.0321   16.6358 C   0  0  0  0  0  0  0  0  0  0  0  0
   15.4331  -18.0120   16.0326 O   0  0  0  0  0  0  0  0  0  0  0  0
   11.4603  -17.5040   20.5910 C   0  0  0  0  0  0  0  0  0  0  0  0
   11.1698  -16.2914   20.4497 O   0  0  0  0  0  0  0  0  0  0  0  0
   13.1860  -17.8195   15.8703 O   0  0  0  0  0  0  0  0  0  0  0  0
    8.3029  -18.8445   22.2350 C   0  0  0  0  0  0  0  0  0  0  0  0
    9.2948  -17.7799   21.8284 C   0  0  2  0  0  0  0  0  0  0  0  0
   10.5049  -18.3240   21.2857 N   0  0  0  0  0  0  0  0  0  0  0  0
    9.5594  -16.8650   22.9815 C   0  0  0  0  0  0  0  0  0  0  0  0
   10.6554  -17.0121   23.5747 O   0  0  0  0  0  0  0  0  0  0  0  0
    8.6601  -15.8862   23.4066 N   0  0  0  0  0  0  0  0  0  0  0  0
    8.8531  -15.0252   24.5888 C   0  0  1  0  0  0  0  0  0  0  0  0
    7.6908  -14.1472   24.6724 C   0  0  0  0  0  0  0  0  0  0  0  0
    7.4760  -13.1819   25.7463 C   0  0  0  0  0  0  0  0  0  0  0  0
    6.3250  -12.2795   25.7786 C   0  0  0  0  0  0  0  0  0  0  0  0
    6.1964  -11.2748   26.8657 C   0  0  0  0  0  0  0  0  0  0  0  0
    5.0772  -10.3728   26.7461 N   0  0  0  0  0  0  0  0  0  0  0  0
    9.0273  -15.9176   25.7807 C   0  0  0  0  0  0  0  0  0  0  0  0
    8.4364  -17.1430   25.9545 O   0  0  0  0  0  0  0  0  0  0  0  0
    9.7861  -15.5401   26.7386 O   0  0  0  0  0  0  0  0  0  0  0  0
  2  1  1  6
  2  3  1  0
  3  4  1  0
  4  5  1  0
  5  6  2  0
  5  9  1  0
  7  2  1  0
  8  7  2  0
 11 10  1  1
 11 13  1  0
 11 12  1  0
 12  7  1  0
 13 15  1  0
 14 13  2  0
 15 16  1  0
 16 17  1  1
 16 22  1  0
 17 18  1  0
 18 19  1  0
 19 20  1  0
 21 20  1  0
 22 24  2  0
 22 23  1  0
M  END
$$$$
