EAK.pdb
     RDKit          3D

 24 23  0  0  1  0  0  0  0  0999 V2000
    8.3604  -17.7321   18.0245 N   0  0  0  0  0  0  0  0  0  0  0  0
    9.5750  -16.9614   17.8574 C   0  0  1  0  0  0  0  0  0  0  0  0
    9.8706  -16.7431   16.3903 C   0  0  0  0  0  0  0  0  0  0  0  0
    8.6200  -16.3212   15.6387 C   0  0  0  0  0  0  0  0  0  0  0  0
    8.9764  -16.0787   14.2261 C   0  0  0  0  0  0  0  0  0  0  0  0
    8.4597  -16.7391   13.2864 O   0  0  0  0  0  0  0  0  0  0  0  0
    9.4471  -15.7085   18.6044 C   0  0  0  0  0  0  0  0  0  0  0  0
   10.4693  -15.1049   19.0112 O   0  0  0  0  0  0  0  0  0  0  0  0
    9.9043  -15.1030   13.8773 O   0  0  0  0  0  0  0  0  0  0  0  0
    6.7491  -13.2284   19.5759 C   0  0  0  0  0  0  0  0  0  0  0  0
    8.0664  -13.9492   19.7423 C   0  0  2  0  0  0  0  0  0  0  0  0
    8.1754  -15.1102   18.9087 N   0  0  0  0  0  0  0  0  0  0  0  0
    8.2901  -14.2723   21.1854 C   0  0  0  0  0  0  0  0  0  0  0  0
    8.2088  -13.3160   21.9937 O   0  0  0  0  0  0  0  0  0  0  0  0
    8.5765  -15.5572   21.6487 N   0  0  0  0  0  0  0  0  0  0  0  0
    8.8495  -15.9003   23.0571 C   0  0  1  0  0  0  0  0  0  0  0  0
    8.3216  -17.2421   23.2803 C   0  0  0  0  0  0  0  0  0  0  0  0
    6.8973  -17.5569   23.3373 C   0  0  0  0  0  0  0  0  0  0  0  0
    6.3961  -18.9189   23.5211 C   0  0  0  0  0  0  0  0  0  0  0  0
    4.9332  -19.1737   23.5735 C   0  0  0  0  0  0  0  0  0  0  0  0
    4.5514  -20.5461   23.8000 N   0  0  0  0  0  0  0  0  0  0  0  0
   10.3279  -15.7848   23.2774 C   0  0  0  0  0  0  0  0  0  0  0  0
   11.2827  -15.7580   22.2931 O   0  0  0  0  0  0  0  0  0  0  0  0
   10.7771  -15.6998   24.4719 O   0  0  0  0  0  0  0  0  0  0  0  0
  2  1  1  6
  2  3  1  0
  3  4  1  0
  4  5  1  0
  5  6  2  0
  5  9  1  0
  7  2  1  0
  8  7  2  0
 11 10  1  1
 11 13  1  0
 11 12  1  0
 12  7  1  0
 13 15  1  0
 14 13  2  0
 15 16  1  0
 16 17  1  6
 16 22  1  0
 17 18  1  0
 18 19  1  0
 19 20  1  0
 21 20  1  0
 22 24  2  0
 22 23  1  0
M  END
$$$$
