EAK.pdb
     RDKit          3D

 24 23  0  0  1  0  0  0  0  0999 V2000
    8.6762  -17.0662   16.4114 N   0  0  0  0  0  0  0  0  0  0  0  0
    7.6554  -16.7105   17.3749 C   0  0  1  0  0  0  0  0  0  0  0  0
    6.9057  -17.9404   17.8363 C   0  0  0  0  0  0  0  0  0  0  0  0
    6.1575  -18.5875   16.6838 C   0  0  0  0  0  0  0  0  0  0  0  0
    5.4134  -19.7546   17.1990 C   0  0  0  0  0  0  0  0  0  0  0  0
    5.7206  -20.9336   16.8801 O   0  0  0  0  0  0  0  0  0  0  0  0
    8.2805  -15.9782   18.4781 C   0  0  0  0  0  0  0  0  0  0  0  0
    9.3517  -16.3891   18.9863 O   0  0  0  0  0  0  0  0  0  0  0  0
    4.3356  -19.5941   18.0634 O   0  0  0  0  0  0  0  0  0  0  0  0
    7.4920  -12.9327   20.6352 C   0  0  0  0  0  0  0  0  0  0  0  0
    8.2823  -14.1391   20.1852 C   0  0  2  0  0  0  0  0  0  0  0  0
    7.7188  -14.7755   19.0310 N   0  0  0  0  0  0  0  0  0  0  0  0
    8.4482  -15.0922   21.3258 C   0  0  0  0  0  0  0  0  0  0  0  0
    7.4272  -15.7327   21.6750 O   0  0  0  0  0  0  0  0  0  0  0  0
    9.6583  -15.2876   21.9929 N   0  0  0  0  0  0  0  0  0  0  0  0
    9.8423  -16.1776   23.1548 C   0  0  1  0  0  0  0  0  0  0  0  0
   10.5330  -17.3699   22.6748 C   0  0  0  0  0  0  0  0  0  0  0  0
   10.9523  -18.4701   23.5379 C   0  0  0  0  0  0  0  0  0  0  0  0
   11.6230  -19.6648   23.0251 C   0  0  0  0  0  0  0  0  0  0  0  0
   11.8982  -20.8108   23.9299 C   0  0  0  0  0  0  0  0  0  0  0  0
   12.5889  -21.9241   23.3265 N   0  0  0  0  0  0  0  0  0  0  0  0
   10.6009  -15.4151   24.1991 C   0  0  0  0  0  0  0  0  0  0  0  0
   11.3681  -14.3005   23.9749 O   0  0  0  0  0  0  0  0  0  0  0  0
   10.5523  -15.8048   25.4163 O   0  0  0  0  0  0  0  0  0  0  0  0
  2  1  1  6
  2  3  1  0
  3  4  1  0
  4  5  1  0
  5  6  2  0
  5  9  1  0
  7  2  1  0
  8  7  2  0
 11 10  1  1
 11 13  1  0
 11 12  1  0
 12  7  1  0
 13 15  1  0
 14 13  2  0
 15 16  1  0
 16 17  1  6
 16 22  1  0
 17 18  1  0
 18 19  1  0
 19 20  1  0
 21 20  1  0
 22 24  2  0
 22 23  1  0
M  END
$$$$
