EAK.pdb
     RDKit          3D

 24 23  0  0  1  0  0  0  0  0999 V2000
    8.8175  -12.8892   17.8674 N   0  0  0  0  0  0  0  0  0  0  0  0
    9.0119  -14.1977   18.4565 C   0  0  1  0  0  0  0  0  0  0  0  0
   10.4522  -14.6375   18.3156 C   0  0  0  0  0  0  0  0  0  0  0  0
   10.8343  -14.7937   16.8540 C   0  0  0  0  0  0  0  0  0  0  0  0
   12.1637  -15.4325   16.7784 C   0  0  0  0  0  0  0  0  0  0  0  0
   12.5502  -16.0453   15.7482 O   0  0  0  0  0  0  0  0  0  0  0  0
    8.5621  -14.1611   19.8495 C   0  0  0  0  0  0  0  0  0  0  0  0
    9.0657  -13.3440   20.6578 O   0  0  0  0  0  0  0  0  0  0  0  0
   13.0469  -15.3809   17.8517 O   0  0  0  0  0  0  0  0  0  0  0  0
    5.7866  -15.6825   21.9487 C   0  0  0  0  0  0  0  0  0  0  0  0
    7.0946  -14.9616   21.7209 C   0  0  2  0  0  0  0  0  0  0  0  0
    7.5428  -15.0367   20.3614 N   0  0  0  0  0  0  0  0  0  0  0  0
    8.1261  -15.4653   22.6797 C   0  0  0  0  0  0  0  0  0  0  0  0
    9.0037  -16.2291   22.2098 O   0  0  0  0  0  0  0  0  0  0  0  0
    8.1459  -15.1267   24.0334 N   0  0  0  0  0  0  0  0  0  0  0  0
    9.1260  -15.6348   25.0117 C   0  0  1  0  0  0  0  0  0  0  0  0
    9.0008  -14.8111   26.2095 C   0  0  0  0  0  0  0  0  0  0  0  0
    9.7880  -15.0137   27.4221 C   0  0  0  0  0  0  0  0  0  0  0  0
    9.5771  -14.2318   28.6405 C   0  0  0  0  0  0  0  0  0  0  0  0
   10.3672  -14.5300   29.8631 C   0  0  0  0  0  0  0  0  0  0  0  0
   10.1072  -13.6718   30.9929 N   0  0  0  0  0  0  0  0  0  0  0  0
    8.8332  -17.0872   25.2399 C   0  0  0  0  0  0  0  0  0  0  0  0
    9.7457  -18.0350   25.6273 O   0  0  0  0  0  0  0  0  0  0  0  0
    7.6411  -17.5186   25.0710 O   0  0  0  0  0  0  0  0  0  0  0  0
  2  1  1  1
  2  3  1  0
  3  4  1  0
  4  5  1  0
  5  6  2  0
  5  9  1  0
  7  2  1  0
  8  7  2  0
 11 10  1  6
 11 13  1  0
 11 12  1  0
 12  7  1  0
 13 15  1  0
 14 13  2  0
 15 16  1  0
 16 17  1  1
 16 22  1  0
 17 18  1  0
 18 19  1  0
 19 20  1  0
 21 20  1  0
 22 24  2  0
 22 23  1  0
M  END
$$$$
