TVN.pdb
     RDKit          3D

 23 22  0  0  1  0  0  0  0  0999 V2000
   22.4843  -13.7375  -19.7119 C   0  0  0  0  0  0  0  0  0  0  0  0
   22.8040  -15.0488  -19.0320 C   0  0  1  0  0  0  0  0  0  0  0  0
   22.9503  -16.0129  -20.0436 O   0  0  0  0  0  0  0  0  0  0  0  0
   24.0793  -14.9952  -18.2418 C   0  0  2  0  0  0  0  0  0  0  0  0
   24.4113  -16.3186  -17.7828 N   0  0  0  0  0  0  0  0  0  0  0  0
   24.0708  -13.9984  -17.1678 C   0  0  0  0  0  0  0  0  0  0  0  0
   23.2355  -14.0292  -16.2315 O   0  0  0  0  0  0  0  0  0  0  0  0
   26.8514  -10.7022  -17.4508 C   0  0  0  0  0  0  0  0  0  0  0  0
   26.4113  -11.2142  -16.1177 C   0  0  1  0  0  0  0  0  0  0  0  0
   26.4043  -10.0617  -15.1404 C   0  0  0  0  0  0  0  0  0  0  0  0
   25.0616  -11.8967  -16.1778 C   0  0  2  0  0  0  0  0  0  0  0  0
   25.0303  -12.9482  -17.1604 N   0  0  0  0  0  0  0  0  0  0  0  0
   24.0385  -10.8514  -16.4423 C   0  0  0  0  0  0  0  0  0  0  0  0
   23.8748  -10.5125  -17.6428 O   0  0  0  0  0  0  0  0  0  0  0  0
   18.8401   -8.7642  -16.0529 N   0  0  0  0  0  0  0  0  0  0  0  0
   19.9746   -8.4305  -15.2744 C   0  0  0  0  0  0  0  0  0  0  0  0
   20.1029   -7.2541  -14.8766 O   0  0  0  0  0  0  0  0  0  0  0  0
   20.9972   -9.4363  -14.9278 C   0  0  0  0  0  0  0  0  0  0  0  0
   22.2113   -9.3040  -15.8218 C   0  0  2  0  0  0  0  0  0  0  0  0
   23.2562  -10.2283  -15.4542 N   0  0  0  0  0  0  0  0  0  0  0  0
   22.7375   -7.9271  -15.6980 C   0  0  0  0  0  0  0  0  0  0  0  0
   23.5923   -7.6629  -14.8086 O   0  0  0  0  0  0  0  0  0  0  0  0
   22.2853   -6.9437  -16.5601 O   0  0  0  0  0  0  0  0  0  0  0  0
  2  3  1  0
  2  1  1  6
  4  2  1  0
  4  5  1  1
  6 12  1  0
  6  4  1  0
  7  6  2  0
  9  8  1  6
  9 11  1  0
 10  9  1  0
 11 12  1  6
 11 13  1  0
 13 20  1  0
 14 13  2  0
 16 15  1  0
 17 16  2  0
 18 16  1  0
 19 21  1  0
 19 18  1  1
 20 19  1  0
 21 23  1  0
 22 21  2  0
M  END
$$$$
