TVN.pdb
     RDKit          3D

 23 22  0  0  1  0  0  0  0  0999 V2000
   17.5043   -8.7818  -17.7769 C   0  0  0  0  0  0  0  0  0  0  0  0
   16.6765   -9.7472  -16.9603 C   0  0  1  0  0  0  0  0  0  0  0  0
   15.7512  -10.3399  -17.8358 O   0  0  0  0  0  0  0  0  0  0  0  0
   17.5026  -10.8353  -16.3380 C   0  0  2  0  0  0  0  0  0  0  0  0
   16.6306  -11.8243  -15.7603 N   0  0  0  0  0  0  0  0  0  0  0  0
   18.5195  -10.3473  -15.4025 C   0  0  0  0  0  0  0  0  0  0  0  0
   18.2207   -9.7632  -14.3327 O   0  0  0  0  0  0  0  0  0  0  0  0
   22.6929  -10.8853  -16.4555 C   0  0  0  0  0  0  0  0  0  0  0  0
   22.2454  -10.7928  -15.0327 C   0  0  1  0  0  0  0  0  0  0  0  0
   23.3672  -10.1949  -14.2157 C   0  0  0  0  0  0  0  0  0  0  0  0
   20.9659   -9.9989  -14.8798 C   0  0  2  0  0  0  0  0  0  0  0  0
   19.9008  -10.5279  -15.6910 N   0  0  0  0  0  0  0  0  0  0  0  0
   21.2714   -8.5822  -15.2098 C   0  0  0  0  0  0  0  0  0  0  0  0
   21.1832   -8.2528  -16.4209 O   0  0  0  0  0  0  0  0  0  0  0  0
   21.8718   -3.5545  -15.3895 N   0  0  0  0  0  0  0  0  0  0  0  0
   20.6289   -4.2204  -15.5179 C   0  0  0  0  0  0  0  0  0  0  0  0
   19.6489   -3.5804  -15.9523 O   0  0  0  0  0  0  0  0  0  0  0  0
   20.4717   -5.6413  -15.1522 C   0  0  0  0  0  0  0  0  0  0  0  0
   21.7818   -6.2235  -14.6672 C   0  0  2  0  0  0  0  0  0  0  0  0
   21.6460   -7.6043  -14.2718 N   0  0  0  0  0  0  0  0  0  0  0  0
   22.2378   -5.4426  -13.4966 C   0  0  0  0  0  0  0  0  0  0  0  0
   22.3409   -6.0054  -12.3722 O   0  0  0  0  0  0  0  0  0  0  0  0
   22.5459   -4.1022  -13.6486 O   0  0  0  0  0  0  0  0  0  0  0  0
  2  3  1  0
  2  1  1  6
  4  2  1  0
  4  5  1  1
  6 12  1  0
  6  4  1  0
  7  6  2  0
  9  8  1  6
  9 11  1  0
 10  9  1  0
 11 12  1  6
 11 13  1  0
 13 20  1  0
 14 13  2  0
 16 15  1  0
 17 16  2  0
 18 16  1  0
 19 21  1  0
 19 18  1  1
 20 19  1  0
 21 23  1  0
 22 21  2  0
M  END
$$$$
