TVN.pdb
     RDKit          3D

 23 22  0  0  1  0  0  0  0  0999 V2000
   20.9577  -13.3103  -21.1139 C   0  0  0  0  0  0  0  0  0  0  0  0
   20.5530  -12.6700  -19.8062 C   0  0  1  0  0  0  0  0  0  0  0  0
   20.5731  -13.6795  -18.8292 O   0  0  0  0  0  0  0  0  0  0  0  0
   21.4934  -11.5804  -19.3797 C   0  0  2  0  0  0  0  0  0  0  0  0
   22.8275  -12.1129  -19.2841 N   0  0  0  0  0  0  0  0  0  0  0  0
   21.0691  -10.8695  -18.1707 C   0  0  0  0  0  0  0  0  0  0  0  0
   19.9235  -10.3702  -18.0541 O   0  0  0  0  0  0  0  0  0  0  0  0
   24.0021  -10.2058  -15.0336 C   0  0  0  0  0  0  0  0  0  0  0  0
   22.5498  -10.3716  -14.7229 C   0  0  1  0  0  0  0  0  0  0  0  0
   22.2300   -9.5669  -13.4845 C   0  0  0  0  0  0  0  0  0  0  0  0
   21.6620   -9.9768  -15.8836 C   0  0  2  0  0  0  0  0  0  0  0  0
   21.9654  -10.7247  -17.0756 N   0  0  0  0  0  0  0  0  0  0  0  0
   21.8103   -8.5121  -16.0877 C   0  0  0  0  0  0  0  0  0  0  0  0
   22.9851   -8.0635  -16.1272 O   0  0  0  0  0  0  0  0  0  0  0  0
   21.3661   -3.5721  -17.2324 N   0  0  0  0  0  0  0  0  0  0  0  0
   20.7851   -4.4231  -18.2033 C   0  0  0  0  0  0  0  0  0  0  0  0
   20.4692   -3.9404  -19.3105 O   0  0  0  0  0  0  0  0  0  0  0  0
   20.5487   -5.8546  -17.9343 C   0  0  0  0  0  0  0  0  0  0  0  0
   20.9886   -6.2221  -16.5336 C   0  0  2  0  0  0  0  0  0  0  0  0
   20.7407   -7.6119  -16.2366 N   0  0  0  0  0  0  0  0  0  0  0  0
   20.2300   -5.3937  -15.5710 C   0  0  0  0  0  0  0  0  0  0  0  0
   19.0142   -5.6483  -15.3504 O   0  0  0  0  0  0  0  0  0  0  0  0
   20.8635   -4.3480  -14.9231 O   0  0  0  0  0  0  0  0  0  0  0  0
  2  3  1  0
  2  1  1  6
  4  2  1  0
  4  5  1  1
  6 12  1  0
  6  4  1  0
  7  6  2  0
  9  8  1  6
  9 11  1  0
 10  9  1  0
 11 12  1  6
 11 13  1  0
 13 20  1  0
 14 13  2  0
 16 15  1  0
 17 16  2  0
 18 16  1  0
 19 21  1  0
 19 18  1  6
 20 19  1  0
 21 23  1  0
 22 21  2  0
M  END
$$$$
