TVN.pdb
     RDKit          3D

 23 22  0  0  1  0  0  0  0  0999 V2000
   15.4709  -11.0985  -17.9492 C   0  0  0  0  0  0  0  0  0  0  0  0
   16.3588  -10.7970  -16.7640 C   0  0  1  0  0  0  0  0  0  0  0  0
   16.8893  -12.0213  -16.3241 O   0  0  0  0  0  0  0  0  0  0  0  0
   17.4994   -9.8852  -17.1124 C   0  0  2  0  0  0  0  0  0  0  0  0
   18.2442  -10.4507  -18.2069 N   0  0  0  0  0  0  0  0  0  0  0  0
   18.3412   -9.5239  -15.9688 C   0  0  0  0  0  0  0  0  0  0  0  0
   17.8637   -9.0573  -14.9060 O   0  0  0  0  0  0  0  0  0  0  0  0
   22.5490  -10.2209  -16.3458 C   0  0  0  0  0  0  0  0  0  0  0  0
   21.9323  -10.0866  -14.9913 C   0  0  1  0  0  0  0  0  0  0  0  0
   22.9598   -9.4965  -14.0535 C   0  0  0  0  0  0  0  0  0  0  0  0
   20.6643   -9.2604  -15.0130 C   0  0  2  0  0  0  0  0  0  0  0  0
   19.7515   -9.6971  -16.0370 N   0  0  0  0  0  0  0  0  0  0  0  0
   21.0560   -7.8365  -15.1812 C   0  0  0  0  0  0  0  0  0  0  0  0
   21.5281   -7.5091  -16.3005 O   0  0  0  0  0  0  0  0  0  0  0  0
   19.9680   -3.8334  -16.9052 N   0  0  0  0  0  0  0  0  0  0  0  0
   19.4977   -4.5900  -15.8048 C   0  0  0  0  0  0  0  0  0  0  0  0
   18.4913   -5.3120  -15.9610 O   0  0  0  0  0  0  0  0  0  0  0  0
   20.1676   -4.5420  -14.4908 C   0  0  0  0  0  0  0  0  0  0  0  0
   21.3453   -5.4918  -14.4487 C   0  0  2  0  0  0  0  0  0  0  0  0
   20.9350   -6.8498  -14.1870 N   0  0  0  0  0  0  0  0  0  0  0  0
   22.2576   -5.0602  -13.3672 C   0  0  0  0  0  0  0  0  0  0  0  0
   22.8827   -3.9697  -13.4755 O   0  0  0  0  0  0  0  0  0  0  0  0
   22.4152   -5.8588  -12.2482 O   0  0  0  0  0  0  0  0  0  0  0  0
  2  3  1  0
  2  1  1  6
  4  2  1  0
  4  5  1  6
  6 12  1  0
  6  4  1  0
  7  6  2  0
  9  8  1  6
  9 11  1  0
 10  9  1  0
 11 12  1  6
 11 13  1  0
 13 20  1  0
 14 13  2  0
 16 15  1  0
 17 16  2  0
 18 16  1  0
 19 21  1  0
 19 18  1  1
 20 19  1  0
 21 23  1  0
 22 21  2  0
M  END
$$$$
