TVN.pdb
     RDKit          3D

 23 22  0  0  1  0  0  0  0  0999 V2000
   18.5023  -12.5438  -20.0179 C   0  0  0  0  0  0  0  0  0  0  0  0
   18.6422  -12.0912  -18.5828 C   0  0  1  0  0  0  0  0  0  0  0  0
   19.2018  -13.1619  -17.8654 O   0  0  0  0  0  0  0  0  0  0  0  0
   19.5452  -10.9008  -18.4367 C   0  0  2  0  0  0  0  0  0  0  0  0
   20.8205  -11.1939  -19.0366 N   0  0  0  0  0  0  0  0  0  0  0  0
   19.6556  -10.4046  -17.0624 C   0  0  0  0  0  0  0  0  0  0  0  0
   18.6480  -10.1597  -16.3553 O   0  0  0  0  0  0  0  0  0  0  0  0
   21.8141  -11.8163  -14.2199 C   0  0  0  0  0  0  0  0  0  0  0  0
   22.1681  -10.3728  -14.3747 C   0  0  1  0  0  0  0  0  0  0  0  0
   23.5396  -10.2806  -15.0025 C   0  0  0  0  0  0  0  0  0  0  0  0
   21.1390   -9.6085  -15.1795 C   0  0  2  0  0  0  0  0  0  0  0  0
   20.9361  -10.1834  -16.4836 N   0  0  0  0  0  0  0  0  0  0  0  0
   21.5848   -8.1925  -15.2542 C   0  0  0  0  0  0  0  0  0  0  0  0
   22.5766   -7.9508  -15.9897 O   0  0  0  0  0  0  0  0  0  0  0  0
   22.2996   -3.1506  -14.9711 N   0  0  0  0  0  0  0  0  0  0  0  0
   20.9275   -3.4294  -15.1807 C   0  0  0  0  0  0  0  0  0  0  0  0
   20.1606   -2.4850  -15.4613 O   0  0  0  0  0  0  0  0  0  0  0  0
   20.3923   -4.8005  -15.0752 C   0  0  0  0  0  0  0  0  0  0  0  0
   21.4855   -5.7816  -14.7104 C   0  0  2  0  0  0  0  0  0  0  0  0
   20.9799   -7.1252  -14.5676 N   0  0  0  0  0  0  0  0  0  0  0  0
   22.0799   -5.3642  -13.4217 C   0  0  0  0  0  0  0  0  0  0  0  0
   21.7998   -6.0011  -12.3694 O   0  0  0  0  0  0  0  0  0  0  0  0
   22.9369   -4.2785  -13.3855 O   0  0  0  0  0  0  0  0  0  0  0  0
  2  3  1  0
  2  1  1  6
  4  2  1  0
  4  5  1  1
  6 12  1  0
  6  4  1  0
  7  6  2  0
  9  8  1  6
  9 11  1  0
 10  9  1  0
 11 12  1  6
 11 13  1  0
 13 20  1  0
 14 13  2  0
 16 15  1  0
 17 16  2  0
 18 16  1  0
 19 21  1  0
 19 18  1  1
 20 19  1  0
 21 23  1  0
 22 21  2  0
M  END
$$$$
