TVN.pdb
     RDKit          3D

 23 22  0  0  1  0  0  0  0  0999 V2000
   21.1622  -12.6542  -20.1532 C   0  0  0  0  0  0  0  0  0  0  0  0
   20.6539  -11.9360  -18.9245 C   0  0  1  0  0  0  0  0  0  0  0  0
   20.8362  -12.8037  -17.8346 O   0  0  0  0  0  0  0  0  0  0  0  0
   21.4017  -10.6642  -18.6466 C   0  0  2  0  0  0  0  0  0  0  0  0
   22.8139  -10.9408  -18.6074 N   0  0  0  0  0  0  0  0  0  0  0  0
   20.9236   -9.9404  -17.4657 C   0  0  0  0  0  0  0  0  0  0  0  0
   19.7281   -9.5798  -17.3391 O   0  0  0  0  0  0  0  0  0  0  0  0
   21.1181  -11.0266  -13.9180 C   0  0  0  0  0  0  0  0  0  0  0  0
   21.7839   -9.6896  -13.9623 C   0  0  1  0  0  0  0  0  0  0  0  0
   23.2754   -9.8926  -13.8293 C   0  0  0  0  0  0  0  0  0  0  0  0
   21.4409   -8.9145  -15.2164 C   0  0  2  0  0  0  0  0  0  0  0  0
   21.8231   -9.6215  -16.4108 N   0  0  0  0  0  0  0  0  0  0  0  0
   22.0963   -7.5841  -15.1183 C   0  0  0  0  0  0  0  0  0  0  0  0
   23.2537   -7.4877  -15.6023 O   0  0  0  0  0  0  0  0  0  0  0  0
   23.2520   -3.1826  -17.5252 N   0  0  0  0  0  0  0  0  0  0  0  0
   22.0868   -3.5203  -16.7953 C   0  0  0  0  0  0  0  0  0  0  0  0
   21.3034   -2.6072  -16.4618 O   0  0  0  0  0  0  0  0  0  0  0  0
   21.7839   -4.9163  -16.4253 C   0  0  0  0  0  0  0  0  0  0  0  0
   21.9253   -5.1235  -14.9327 C   0  0  2  0  0  0  0  0  0  0  0  0
   21.5159   -6.4469  -14.5298 N   0  0  0  0  0  0  0  0  0  0  0  0
   21.0702   -4.1359  -14.2387 C   0  0  0  0  0  0  0  0  0  0  0  0
   19.8574   -4.4050  -14.0191 O   0  0  0  0  0  0  0  0  0  0  0  0
   21.6111   -2.9268  -13.8384 O   0  0  0  0  0  0  0  0  0  0  0  0
  2  3  1  0
  2  1  1  6
  4  2  1  0
  4  5  1  1
  6 12  1  0
  6  4  1  0
  7  6  2  0
  9  8  1  6
  9 11  1  0
 10  9  1  0
 11 12  1  6
 11 13  1  0
 13 20  1  0
 14 13  2  0
 16 15  1  0
 17 16  2  0
 18 16  1  0
 19 21  1  0
 19 18  1  6
 20 19  1  0
 21 23  1  0
 22 21  2  0
M  END
$$$$
