TVN.pdb
     RDKit          3D

 23 22  0  0  1  0  0  0  0  0999 V2000
   21.3438  -13.6655  -20.3162 C   0  0  0  0  0  0  0  0  0  0  0  0
   21.7624  -12.6462  -19.2820 C   0  0  1  0  0  0  0  0  0  0  0  0
   20.6085  -11.9339  -18.9142 O   0  0  0  0  0  0  0  0  0  0  0  0
   22.3418  -13.2769  -18.0490 C   0  0  2  0  0  0  0  0  0  0  0  0
   21.4396  -14.2875  -17.5620 N   0  0  0  0  0  0  0  0  0  0  0  0
   22.7369  -12.3129  -17.0186 C   0  0  0  0  0  0  0  0  0  0  0  0
   22.0464  -12.1103  -15.9903 O   0  0  0  0  0  0  0  0  0  0  0  0
   26.3114   -9.2948  -15.2992 C   0  0  0  0  0  0  0  0  0  0  0  0
   25.8673  -10.4052  -16.1951 C   0  0  1  0  0  0  0  0  0  0  0  0
   26.5198  -11.6863  -15.7298 C   0  0  0  0  0  0  0  0  0  0  0  0
   24.3605  -10.5390  -16.2462 C   0  0  2  0  0  0  0  0  0  0  0  0
   23.9393  -11.5665  -17.1623 N   0  0  0  0  0  0  0  0  0  0  0  0
   23.8008   -9.2083  -16.6003 C   0  0  0  0  0  0  0  0  0  0  0  0
   24.1129   -8.7465  -17.7283 O   0  0  0  0  0  0  0  0  0  0  0  0
   20.9578   -5.5717  -18.8533 N   0  0  0  0  0  0  0  0  0  0  0  0
   20.5491   -6.4447  -17.8163 C   0  0  0  0  0  0  0  0  0  0  0  0
   19.4769   -6.2080  -17.2221 O   0  0  0  0  0  0  0  0  0  0  0  0
   21.3577   -7.6166  -17.4288 C   0  0  0  0  0  0  0  0  0  0  0  0
   22.2870   -7.2781  -16.2831 C   0  0  2  0  0  0  0  0  0  0  0  0
   22.9601   -8.4464  -15.7701 N   0  0  0  0  0  0  0  0  0  0  0  0
   21.4877   -6.6797  -15.1916 C   0  0  0  0  0  0  0  0  0  0  0  0
   20.9775   -5.5362  -15.3459 O   0  0  0  0  0  0  0  0  0  0  0  0
   21.3091   -7.3818  -14.0127 O   0  0  0  0  0  0  0  0  0  0  0  0
  2  3  1  0
  2  1  1  6
  4  2  1  0
  4  5  1  1
  6 12  1  0
  6  4  1  0
  7  6  2  0
  9  8  1  1
  9 11  1  0
 10  9  1  0
 11 12  1  6
 11 13  1  0
 13 20  1  0
 14 13  2  0
 16 15  1  0
 17 16  2  0
 18 16  1  0
 19 21  1  0
 19 18  1  6
 20 19  1  0
 21 23  1  0
 22 21  2  0
M  END
$$$$
