TVN.pdb
     RDKit          3D

 23 22  0  0  1  0  0  0  0  0999 V2000
   16.7588  -14.6318  -15.9585 C   0  0  0  0  0  0  0  0  0  0  0  0
   17.0008  -13.2768  -16.5825 C   0  0  1  0  0  0  0  0  0  0  0  0
   15.7562  -12.7989  -17.0262 O   0  0  0  0  0  0  0  0  0  0  0  0
   17.5688  -12.2845  -15.6097 C   0  0  2  0  0  0  0  0  0  0  0  0
   16.5774  -11.9729  -14.6135 N   0  0  0  0  0  0  0  0  0  0  0  0
   18.1430  -11.0943  -16.2428 C   0  0  0  0  0  0  0  0  0  0  0  0
   19.0933  -11.1623  -17.0599 O   0  0  0  0  0  0  0  0  0  0  0  0
   16.4369   -8.6800  -18.4658 C   0  0  0  0  0  0  0  0  0  0  0  0
   16.9479   -7.8876  -17.3065 C   0  0  1  0  0  0  0  0  0  0  0  0
   15.7897   -7.5885  -16.3831 C   0  0  0  0  0  0  0  0  0  0  0  0
   18.0707   -8.5916  -16.5753 C   0  0  2  0  0  0  0  0  0  0  0  0
   17.6257   -9.8043  -15.9398 N   0  0  0  0  0  0  0  0  0  0  0  0
   18.6496   -7.6286  -15.6023 C   0  0  0  0  0  0  0  0  0  0  0  0
   18.2595   -7.7269  -14.4102 O   0  0  0  0  0  0  0  0  0  0  0  0
   21.6801   -4.3953  -13.0395 N   0  0  0  0  0  0  0  0  0  0  0  0
   22.4215   -5.0431  -14.0569 C   0  0  0  0  0  0  0  0  0  0  0  0
   23.6650   -4.9322  -14.0546 O   0  0  0  0  0  0  0  0  0  0  0  0
   21.7594   -5.8386  -15.1087 C   0  0  0  0  0  0  0  0  0  0  0  0
   20.2643   -5.8993  -14.8810 C   0  0  2  0  0  0  0  0  0  0  0  0
   19.5884   -6.6325  -15.9234 N   0  0  0  0  0  0  0  0  0  0  0  0
   19.7363   -4.5177  -14.8606 C   0  0  0  0  0  0  0  0  0  0  0  0
   20.0768   -3.7327  -13.9335 O   0  0  0  0  0  0  0  0  0  0  0  0
   18.8738   -4.1020  -15.8596 O   0  0  0  0  0  0  0  0  0  0  0  0
  2  3  1  0
  2  1  1  1
  4  2  1  0
  4  5  1  1
  6 12  1  0
  6  4  1  0
  7  6  2  0
  9  8  1  6
  9 11  1  0
 10  9  1  0
 11 12  1  1
 11 13  1  0
 13 20  1  0
 14 13  2  0
 16 15  1  0
 17 16  2  0
 18 16  1  0
 19 21  1  0
 19 18  1  6
 20 19  1  0
 21 23  1  0
 22 21  2  0
M  END
$$$$
