TVN.pdb
     RDKit          3D

 23 22  0  0  1  0  0  0  0  0999 V2000
   22.9421  -10.8306  -21.1146 C   0  0  0  0  0  0  0  0  0  0  0  0
   22.3226  -10.1570  -19.9119 C   0  0  1  0  0  0  0  0  0  0  0  0
   21.1687   -9.4925  -20.3602 O   0  0  0  0  0  0  0  0  0  0  0  0
   21.9214  -11.1334  -18.8444 C   0  0  2  0  0  0  0  0  0  0  0  0
   21.0982  -12.1620  -19.4246 N   0  0  0  0  0  0  0  0  0  0  0  0
   21.3163  -10.5083  -17.6653 C   0  0  0  0  0  0  0  0  0  0  0  0
   20.0761  -10.5007  -17.4729 O   0  0  0  0  0  0  0  0  0  0  0  0
   23.5930   -9.9972  -14.2113 C   0  0  0  0  0  0  0  0  0  0  0  0
   22.1097   -9.8185  -14.2397 C   0  0  1  0  0  0  0  0  0  0  0  0
   21.7037   -8.9923  -13.0414 C   0  0  0  0  0  0  0  0  0  0  0  0
   21.6275   -9.1936  -15.5313 C   0  0  2  0  0  0  0  0  0  0  0  0
   22.1383   -9.8809  -16.6884 N   0  0  0  0  0  0  0  0  0  0  0  0
   22.0186   -7.7598  -15.5127 C   0  0  0  0  0  0  0  0  0  0  0  0
   23.2459   -7.5077  -15.6275 O   0  0  0  0  0  0  0  0  0  0  0  0
   20.9761   -2.2881  -17.6740 N   0  0  0  0  0  0  0  0  0  0  0  0
   21.4926   -3.2157  -16.7374 C   0  0  0  0  0  0  0  0  0  0  0  0
   22.4294   -2.8574  -15.9941 O   0  0  0  0  0  0  0  0  0  0  0  0
   20.9503   -4.5834  -16.6243 C   0  0  0  0  0  0  0  0  0  0  0  0
   21.5876   -5.3246  -15.4689 C   0  0  2  0  0  0  0  0  0  0  0  0
   21.1207   -6.6865  -15.3773 N   0  0  0  0  0  0  0  0  0  0  0  0
   21.2405   -4.6238  -14.2132 C   0  0  0  0  0  0  0  0  0  0  0  0
   21.7067   -3.4728  -13.9910 O   0  0  0  0  0  0  0  0  0  0  0  0
   20.4077   -5.2398  -13.2958 O   0  0  0  0  0  0  0  0  0  0  0  0
  2  3  1  0
  2  1  1  6
  4  2  1  0
  4  5  1  6
  6 12  1  0
  6  4  1  0
  7  6  2  0
  9  8  1  6
  9 11  1  0
 10  9  1  0
 11 12  1  6
 11 13  1  0
 13 20  1  0
 14 13  2  0
 16 15  1  0
 17 16  2  0
 18 16  1  0
 19 21  1  0
 19 18  1  6
 20 19  1  0
 21 23  1  0
 22 21  2  0
M  END
$$$$
