TVN.pdb
     RDKit          3D

 23 22  0  0  1  0  0  0  0  0999 V2000
   13.2996  -12.3505    6.4781 C   0  0  0  0  0  0  0  0  0  0  0  0
   12.5497  -11.8759    5.2548 C   0  0  1  0  0  0  0  0  0  0  0  0
   11.8958  -10.6837    5.6087 O   0  0  0  0  0  0  0  0  0  0  0  0
   13.4577  -11.5905    4.0939 C   0  0  2  0  0  0  0  0  0  0  0  0
   12.6988  -10.9782    3.0349 N   0  0  0  0  0  0  0  0  0  0  0  0
   14.2350  -12.7503    3.6490 C   0  0  0  0  0  0  0  0  0  0  0  0
   13.6915  -13.7926    3.2093 O   0  0  0  0  0  0  0  0  0  0  0  0
   18.5112  -12.6338    4.2450 C   0  0  0  0  0  0  0  0  0  0  0  0
   17.9251  -13.4521    3.1405 C   0  0  1  0  0  0  0  0  0  0  0  0
   18.8072  -14.6587    2.9183 C   0  0  0  0  0  0  0  0  0  0  0  0
   16.4935  -13.8573    3.4187 C   0  0  2  0  0  0  0  0  0  0  0  0
   15.6561  -12.7223    3.7063 N   0  0  0  0  0  0  0  0  0  0  0  0
   16.5107  -14.8386    4.5349 C   0  0  0  0  0  0  0  0  0  0  0  0
   16.3643  -14.3760    5.6958 O   0  0  0  0  0  0  0  0  0  0  0  0
   15.5174  -16.9142    8.7356 N   0  0  0  0  0  0  0  0  0  0  0  0
   15.4052  -17.6993    7.5628 C   0  0  0  0  0  0  0  0  0  0  0  0
   15.3854  -18.9426    7.6742 O   0  0  0  0  0  0  0  0  0  0  0  0
   15.3119  -17.0824    6.2256 C   0  0  0  0  0  0  0  0  0  0  0  0
   16.6542  -17.1001    5.5265 C   0  0  2  0  0  0  0  0  0  0  0  0
   16.6773  -16.2259    4.3792 N   0  0  0  0  0  0  0  0  0  0  0  0
   16.9278  -18.4805    5.0706 C   0  0  0  0  0  0  0  0  0  0  0  0
   16.9952  -18.7283    3.8355 O   0  0  0  0  0  0  0  0  0  0  0  0
   17.1065  -19.4849    6.0054 O   0  0  0  0  0  0  0  0  0  0  0  0
  2  3  1  0
  2  1  1  1
  4  2  1  0
  4  5  1  6
  6 12  1  0
  6  4  1  0
  7  6  2  0
  9  8  1  1
  9 11  1  0
 10  9  1  0
 11 12  1  1
 11 13  1  0
 13 20  1  0
 14 13  2  0
 16 15  1  0
 17 16  2  0
 18 16  1  0
 19 21  1  0
 19 18  1  6
 20 19  1  0
 21 23  1  0
 22 21  2  0
M  END
$$$$
