TVN.pdb
     RDKit          3D

 23 22  0  0  1  0  0  0  0  0999 V2000
   15.8936  -13.1562  -10.8697 C   0  0  0  0  0  0  0  0  0  0  0  0
   15.8635  -11.6797  -11.1906 C   0  0  1  0  0  0  0  0  0  0  0  0
   15.5810  -11.5614  -12.5618 O   0  0  0  0  0  0  0  0  0  0  0  0
   14.8041  -10.9422  -10.4242 C   0  0  2  0  0  0  0  0  0  0  0  0
   13.5229  -11.5463  -10.6809 N   0  0  0  0  0  0  0  0  0  0  0  0
   14.8122   -9.4936  -10.6441 C   0  0  0  0  0  0  0  0  0  0  0  0
   14.0441   -8.9360  -11.4653 O   0  0  0  0  0  0  0  0  0  0  0  0
   13.8464   -6.5576   -8.6853 C   0  0  0  0  0  0  0  0  0  0  0  0
   15.3292   -6.4895   -8.8577 C   0  0  1  0  0  0  0  0  0  0  0  0
   15.9823   -7.0175   -7.6014 C   0  0  0  0  0  0  0  0  0  0  0  0
   15.8034   -7.2389  -10.0843 C   0  0  2  0  0  0  0  0  0  0  0  0
   15.7110   -8.6656   -9.9159 N   0  0  0  0  0  0  0  0  0  0  0  0
   17.1927   -6.7973  -10.3742 C   0  0  0  0  0  0  0  0  0  0  0  0
   18.0894   -7.2030   -9.5903 O   0  0  0  0  0  0  0  0  0  0  0  0
   21.5787   -5.1360  -12.3757 N   0  0  0  0  0  0  0  0  0  0  0  0
   21.0819   -6.4344  -12.6440 C   0  0  0  0  0  0  0  0  0  0  0  0
   21.8495   -7.2751  -13.1564 O   0  0  0  0  0  0  0  0  0  0  0  0
   19.6890   -6.8087  -12.3325 C   0  0  0  0  0  0  0  0  0  0  0  0
   18.9497   -5.6557  -11.6886 C   0  0  2  0  0  0  0  0  0  0  0  0
   17.5622   -5.9699  -11.4491 N   0  0  0  0  0  0  0  0  0  0  0  0
   19.0170   -4.4896  -12.5963 C   0  0  0  0  0  0  0  0  0  0  0  0
   18.0142   -4.1868  -13.2994 O   0  0  0  0  0  0  0  0  0  0  0  0
   20.1806   -3.7438  -12.6639 O   0  0  0  0  0  0  0  0  0  0  0  0
  2  3  1  0
  2  1  1  1
  4  2  1  0
  4  5  1  6
  6 12  1  0
  6  4  1  0
  7  6  2  0
  9  8  1  1
  9 11  1  0
 10  9  1  0
 11 12  1  1
 11 13  1  0
 13 20  1  0
 14 13  2  0
 16 15  1  0
 17 16  2  0
 18 16  1  0
 19 21  1  0
 19 18  1  6
 20 19  1  0
 21 23  1  0
 22 21  2  0
M  END
$$$$
