CSM.pdb
     RDKit          3D

 21 20  0  0  1  0  0  0  0  0999 V2000
   13.9144   -8.7136   -8.7062 N   0  0  0  0  0  0  0  0  0  0  0  0
   14.3346   -7.3337   -8.9605 C   0  0  1  0  0  0  0  0  0  0  0  0
   15.1151   -6.8836   -7.7330 C   0  0  0  0  0  0  0  0  0  0  0  0
   13.9621   -6.7758   -6.3139 S   0  0  0  0  0  0  0  0  0  0  0  0
   15.2566   -7.3108  -10.1149 C   0  0  0  0  0  0  0  0  0  0  0  0
   15.8635   -8.3633  -10.4885 O   0  0  0  0  0  0  0  0  0  0  0  0
   15.7308   -3.8021  -12.0966 O   0  0  0  0  0  0  0  0  0  0  0  0
   15.6554   -4.9223  -12.9253 C   0  0  0  0  0  0  0  0  0  0  0  0
   16.1091   -6.1054  -12.0717 C   0  0  2  0  0  0  0  0  0  0  0  0
   15.4498   -6.0806  -10.8003 N   0  0  0  0  0  0  0  0  0  0  0  0
   17.5877   -5.9268  -11.9051 C   0  0  0  0  0  0  0  0  0  0  0  0
   17.9979   -5.6133  -10.7618 O   0  0  0  0  0  0  0  0  0  0  0  0
   21.5581  -10.0197  -13.4488 C   0  0  0  0  0  0  0  0  0  0  0  0
   22.6801   -8.9604  -12.5141 S   0  0  0  0  0  0  0  0  0  0  0  0
   22.0349   -7.2476  -12.5288 C   0  0  0  0  0  0  0  0  0  0  0  0
   20.5485   -7.3251  -12.6435 C   0  0  0  0  0  0  0  0  0  0  0  0
   19.9276   -5.9531  -12.7042 C   0  0  2  0  0  0  0  0  0  0  0  0
   18.4867   -6.1006  -12.9772 N   0  0  0  0  0  0  0  0  0  0  0  0
   20.4571   -5.1076  -13.7891 C   0  0  0  0  0  0  0  0  0  0  0  0
   19.8667   -4.9781  -14.8817 O   0  0  0  0  0  0  0  0  0  0  0  0
   21.6407   -4.4152  -13.6364 O   0  0  0  0  0  0  0  0  0  0  0  0
  2  1  1  1
  3  2  1  0
  4  3  1  0
  5  2  1  0
  6  5  2  0
  7  8  1  0
  9  8  1  6
  9 11  1  0
  9 10  1  0
 10  5  1  0
 11 12  2  0
 14 13  1  0
 14 15  1  0
 15 16  1  0
 17 16  1  6
 18 17  1  0
 18 11  1  0
 19 21  1  0
 19 17  1  0
 20 19  2  0
M  END
$$$$
