CSM.pdb
     RDKit          3D

 21 20  0  0  1  0  0  0  0  0999 V2000
   22.9525   -9.5803  -15.2642 N   0  0  0  0  0  0  0  0  0  0  0  0
   21.5013   -9.5115  -15.4510 C   0  0  1  0  0  0  0  0  0  0  0  0
   20.9646  -10.9155  -15.2075 C   0  0  0  0  0  0  0  0  0  0  0  0
   21.3535  -11.9516  -16.6672 S   0  0  0  0  0  0  0  0  0  0  0  0
   20.9202   -8.6219  -14.4242 C   0  0  0  0  0  0  0  0  0  0  0  0
   21.2517   -8.7295  -13.2018 O   0  0  0  0  0  0  0  0  0  0  0  0
   18.4433   -5.7880  -15.7313 O   0  0  0  0  0  0  0  0  0  0  0  0
   19.0669   -5.4080  -14.5422 C   0  0  0  0  0  0  0  0  0  0  0  0
   19.4974   -6.7066  -13.8621 C   0  0  2  0  0  0  0  0  0  0  0  0
   19.9788   -7.6399  -14.8363 N   0  0  0  0  0  0  0  0  0  0  0  0
   18.2624   -7.2292  -13.1931 C   0  0  0  0  0  0  0  0  0  0  0  0
   17.6099   -8.1066  -13.8080 O   0  0  0  0  0  0  0  0  0  0  0  0
   13.7762   -7.4976   -6.7226 C   0  0  0  0  0  0  0  0  0  0  0  0
   15.3213   -6.9899   -7.5033 S   0  0  0  0  0  0  0  0  0  0  0  0
   15.2514   -7.3984   -9.2862 C   0  0  0  0  0  0  0  0  0  0  0  0
   16.5543   -6.9962   -9.8938 C   0  0  0  0  0  0  0  0  0  0  0  0
   16.5986   -7.3164  -11.3660 C   0  0  2  0  0  0  0  0  0  0  0  0
   17.8429   -6.7635  -11.9302 N   0  0  0  0  0  0  0  0  0  0  0  0
   15.5019   -6.7086  -12.1406 C   0  0  0  0  0  0  0  0  0  0  0  0
   15.5464   -5.5283  -12.5457 O   0  0  0  0  0  0  0  0  0  0  0  0
   14.3691   -7.4310  -12.4545 O   0  0  0  0  0  0  0  0  0  0  0  0
  2  1  1  1
  3  2  1  0
  4  3  1  0
  5  2  1  0
  6  5  2  0
  7  8  1  0
  9  8  1  6
  9 11  1  0
  9 10  1  0
 10  5  1  0
 11 12  2  0
 14 13  1  0
 14 15  1  0
 15 16  1  0
 17 16  1  1
 18 17  1  0
 18 11  1  0
 19 21  1  0
 19 17  1  0
 20 19  2  0
M  END
$$$$
