CSM.pdb
     RDKit          3D

 21 20  0  0  1  0  0  0  0  0999 V2000
   18.2629  -12.7092  -16.7238 N   0  0  0  0  0  0  0  0  0  0  0  0
   18.6697  -11.5352  -17.4995 C   0  0  1  0  0  0  0  0  0  0  0  0
   17.5800  -10.4889  -17.3085 C   0  0  0  0  0  0  0  0  0  0  0  0
   16.0986  -11.0083  -18.2524 S   0  0  0  0  0  0  0  0  0  0  0  0
   19.9223  -10.9902  -16.9364 C   0  0  0  0  0  0  0  0  0  0  0  0
   20.0716  -10.8563  -15.6812 O   0  0  0  0  0  0  0  0  0  0  0  0
   23.7629  -11.7733  -17.6614 O   0  0  0  0  0  0  0  0  0  0  0  0
   23.3666  -10.5273  -18.1488 C   0  0  0  0  0  0  0  0  0  0  0  0
   22.1789  -10.0998  -17.2881 C   0  0  2  0  0  0  0  0  0  0  0  0
   20.9599  -10.6177  -17.8337 N   0  0  0  0  0  0  0  0  0  0  0  0
   22.1825   -8.6017  -17.3279 C   0  0  0  0  0  0  0  0  0  0  0  0
   21.5384   -8.0554  -18.2555 O   0  0  0  0  0  0  0  0  0  0  0  0
   21.9633   -1.7866  -13.7574 C   0  0  0  0  0  0  0  0  0  0  0  0
   21.9598   -3.5896  -13.6947 S   0  0  0  0  0  0  0  0  0  0  0  0
   22.5116   -4.2441  -15.3124 C   0  0  0  0  0  0  0  0  0  0  0  0
   22.4101   -5.7325  -15.2567 C   0  0  0  0  0  0  0  0  0  0  0  0
   22.8856   -6.3662  -16.5389 C   0  0  2  0  0  0  0  0  0  0  0  0
   22.8748   -7.8306  -16.3719 N   0  0  0  0  0  0  0  0  0  0  0  0
   24.2706   -6.0136  -16.8992 C   0  0  0  0  0  0  0  0  0  0  0  0
   25.2406   -6.7465  -16.6142 O   0  0  0  0  0  0  0  0  0  0  0  0
   24.5525   -4.8452  -17.5767 O   0  0  0  0  0  0  0  0  0  0  0  0
  2  1  1  1
  3  2  1  0
  4  3  1  0
  5  2  1  0
  6  5  2  0
  7  8  1  0
  9  8  1  6
  9 11  1  0
  9 10  1  0
 10  5  1  0
 11 12  2  0
 14 13  1  0
 14 15  1  0
 15 16  1  0
 17 16  1  1
 18 17  1  0
 18 11  1  0
 19 21  1  0
 19 17  1  0
 20 19  2  0
M  END
$$$$
