CSM.pdb
     RDKit          3D

 21 20  0  0  1  0  0  0  0  0999 V2000
   17.1821  -12.6713  -13.8428 N   0  0  0  0  0  0  0  0  0  0  0  0
   16.5867  -11.3463  -14.0315 C   0  0  1  0  0  0  0  0  0  0  0  0
   15.0768  -11.5377  -13.9868 C   0  0  0  0  0  0  0  0  0  0  0  0
   14.5057  -12.0721  -15.6432 S   0  0  0  0  0  0  0  0  0  0  0  0
   16.9652  -10.4770  -12.8983 C   0  0  0  0  0  0  0  0  0  0  0  0
   16.8434  -10.8767  -11.6979 O   0  0  0  0  0  0  0  0  0  0  0  0
   18.0099   -6.6490  -13.6879 O   0  0  0  0  0  0  0  0  0  0  0  0
   18.6848   -7.1637  -12.5803 C   0  0  0  0  0  0  0  0  0  0  0  0
   17.8412   -8.3371  -12.0846 C   0  0  2  0  0  0  0  0  0  0  0  0
   17.4701   -9.1790  -13.1825 N   0  0  0  0  0  0  0  0  0  0  0  0
   16.6288   -7.7149  -11.4610 C   0  0  0  0  0  0  0  0  0  0  0  0
   15.6295   -7.5496  -12.2010 O   0  0  0  0  0  0  0  0  0  0  0  0
   11.5676   -7.3723   -5.7620 C   0  0  0  0  0  0  0  0  0  0  0  0
   13.1174   -7.9979   -6.4413 S   0  0  0  0  0  0  0  0  0  0  0  0
   13.6446   -6.9158   -7.8202 C   0  0  0  0  0  0  0  0  0  0  0  0
   14.9034   -7.4848   -8.3860 C   0  0  0  0  0  0  0  0  0  0  0  0
   15.3702   -6.7041   -9.5879 C   0  0  2  0  0  0  0  0  0  0  0  0
   16.6009   -7.3288  -10.1053 N   0  0  0  0  0  0  0  0  0  0  0  0
   15.7256   -5.3056   -9.2879 C   0  0  0  0  0  0  0  0  0  0  0  0
   14.8675   -4.4495   -8.9879 O   0  0  0  0  0  0  0  0  0  0  0  0
   17.0385   -4.8830   -9.3252 O   0  0  0  0  0  0  0  0  0  0  0  0
  2  1  1  1
  3  2  1  0
  4  3  1  0
  5  2  1  0
  6  5  2  0
  7  8  1  0
  9  8  1  6
  9 11  1  0
  9 10  1  0
 10  5  1  0
 11 12  2  0
 14 13  1  0
 14 15  1  0
 15 16  1  0
 17 16  1  1
 18 17  1  0
 18 11  1  0
 19 21  1  0
 19 17  1  0
 20 19  2  0
M  END
$$$$
