CSM.pdb
     RDKit          3D

 21 20  0  0  1  0  0  0  0  0999 V2000
   16.9553  -13.0969  -17.3637 N   0  0  0  0  0  0  0  0  0  0  0  0
   17.1400  -12.2556  -16.1789 C   0  0  1  0  0  0  0  0  0  0  0  0
   17.8816  -13.1039  -15.1547 C   0  0  0  0  0  0  0  0  0  0  0  0
   16.6810  -14.2251  -14.3444 S   0  0  0  0  0  0  0  0  0  0  0  0
   18.0047  -11.1090  -16.5263 C   0  0  0  0  0  0  0  0  0  0  0  0
   19.0253  -11.2605  -17.2688 O   0  0  0  0  0  0  0  0  0  0  0  0
   17.3437   -7.5548  -14.7211 O   0  0  0  0  0  0  0  0  0  0  0  0
   17.7226   -7.4006  -16.0552 C   0  0  0  0  0  0  0  0  0  0  0  0
   18.4332   -8.6970  -16.4407 C   0  0  2  0  0  0  0  0  0  0  0  0
   17.6679   -9.8285  -16.0094 N   0  0  0  0  0  0  0  0  0  0  0  0
   19.7527   -8.6488  -15.7318 C   0  0  0  0  0  0  0  0  0  0  0  0
   19.8088   -9.1804  -14.5969 O   0  0  0  0  0  0  0  0  0  0  0  0
   27.4023   -9.2983  -16.5229 C   0  0  0  0  0  0  0  0  0  0  0  0
   25.8071   -8.9368  -17.2842 S   0  0  0  0  0  0  0  0  0  0  0  0
   24.5938   -8.5463  -15.9707 C   0  0  0  0  0  0  0  0  0  0  0  0
   23.2390   -8.5277  -16.5973 C   0  0  0  0  0  0  0  0  0  0  0  0
   22.1732   -8.1617  -15.5964 C   0  0  2  0  0  0  0  0  0  0  0  0
   20.8864   -8.0366  -16.3042 N   0  0  0  0  0  0  0  0  0  0  0  0
   22.3966   -6.8626  -14.9373 C   0  0  0  0  0  0  0  0  0  0  0  0
   23.0175   -6.7603  -13.8588 O   0  0  0  0  0  0  0  0  0  0  0  0
   21.9237   -5.6927  -15.4954 O   0  0  0  0  0  0  0  0  0  0  0  0
  2  1  1  6
  3  2  1  0
  4  3  1  0
  5  2  1  0
  6  5  2  0
  7  8  1  0
  9  8  1  1
  9 11  1  0
  9 10  1  0
 10  5  1  0
 11 12  2  0
 14 13  1  0
 14 15  1  0
 15 16  1  0
 17 16  1  6
 18 17  1  0
 18 11  1  0
 19 21  1  0
 19 17  1  0
 20 19  2  0
M  END
$$$$
