CSM.pdb
     RDKit          3D

 21 20  0  0  1  0  0  0  0  0999 V2000
   28.1617  -20.9009  -15.9099 N   0  0  0  0  0  0  0  0  0  0  0  0
   27.8249  -20.0169  -14.7916 C   0  0  1  0  0  0  0  0  0  0  0  0
   27.2024  -18.7666  -15.3979 C   0  0  0  0  0  0  0  0  0  0  0  0
   28.5404  -17.7222  -16.0867 S   0  0  0  0  0  0  0  0  0  0  0  0
   26.8006  -20.6676  -13.9486 C   0  0  0  0  0  0  0  0  0  0  0  0
   25.9588  -21.4776  -14.4497 O   0  0  0  0  0  0  0  0  0  0  0  0
   24.8682  -21.1325   -9.5995 O   0  0  0  0  0  0  0  0  0  0  0  0
   25.9137  -20.5246  -10.2954 C   0  0  0  0  0  0  0  0  0  0  0  0
   25.7247  -20.9160  -11.7601 C   0  0  2  0  0  0  0  0  0  0  0  0
   26.7781  -20.3658  -12.5598 N   0  0  0  0  0  0  0  0  0  0  0  0
   24.4011  -20.3349  -12.1554 C   0  0  0  0  0  0  0  0  0  0  0  0
   24.4038  -19.1604  -12.5960 O   0  0  0  0  0  0  0  0  0  0  0  0
   19.7847  -19.1793  -17.4260 C   0  0  0  0  0  0  0  0  0  0  0  0
   21.2625  -19.7757  -16.5804 S   0  0  0  0  0  0  0  0  0  0  0  0
   20.9299  -19.8557  -14.7823 C   0  0  0  0  0  0  0  0  0  0  0  0
   22.1563  -20.3888  -14.1187 C   0  0  0  0  0  0  0  0  0  0  0  0
   21.9779  -20.4845  -12.6251 C   0  0  2  0  0  0  0  0  0  0  0  0
   23.2006  -21.0655  -12.0418 N   0  0  0  0  0  0  0  0  0  0  0  0
   20.8758  -21.3720  -12.2129 C   0  0  0  0  0  0  0  0  0  0  0  0
   20.9698  -22.6163  -12.2574 O   0  0  0  0  0  0  0  0  0  0  0  0
   19.6820  -20.8550  -11.7533 O   0  0  0  0  0  0  0  0  0  0  0  0
  2  1  1  6
  3  2  1  0
  4  3  1  0
  5  2  1  0
  6  5  2  0
  7  8  1  0
  9  8  1  1
  9 11  1  0
  9 10  1  0
 10  5  1  0
 11 12  2  0
 14 13  1  0
 14 15  1  0
 15 16  1  0
 17 16  1  6
 18 17  1  0
 18 11  1  0
 19 21  1  0
 19 17  1  0
 20 19  2  0
M  END
$$$$
