CSM.pdb
     RDKit          3D

 21 20  0  0  1  0  0  0  0  0999 V2000
    9.2327  -17.1856   -1.1817 N   0  0  0  0  0  0  0  0  0  0  0  0
    9.2184  -17.4294    0.2626 C   0  0  1  0  0  0  0  0  0  0  0  0
    8.7327  -18.8593    0.4574 C   0  0  0  0  0  0  0  0  0  0  0  0
    6.9157  -18.8961    0.2286 S   0  0  0  0  0  0  0  0  0  0  0  0
   10.5985  -17.3466    0.7837 C   0  0  0  0  0  0  0  0  0  0  0  0
   11.5883  -17.7137    0.0757 O   0  0  0  0  0  0  0  0  0  0  0  0
   12.3790  -14.2946    2.8542 O   0  0  0  0  0  0  0  0  0  0  0  0
   12.1482  -15.4684    3.5725 C   0  0  0  0  0  0  0  0  0  0  0  0
   12.1340  -16.5947    2.5402 C   0  0  2  0  0  0  0  0  0  0  0  0
   10.7944  -16.8455    2.0994 N   0  0  0  0  0  0  0  0  0  0  0  0
   12.6893  -17.7899    3.2536 C   0  0  0  0  0  0  0  0  0  0  0  0
   11.8931  -18.4496    3.9639 O   0  0  0  0  0  0  0  0  0  0  0  0
   14.7322  -22.6015   -0.4931 C   0  0  0  0  0  0  0  0  0  0  0  0
   15.6758  -21.8257    0.8346 S   0  0  0  0  0  0  0  0  0  0  0  0
   14.5339  -20.8692    1.8981 C   0  0  0  0  0  0  0  0  0  0  0  0
   15.3525  -20.1933    2.9477 C   0  0  0  0  0  0  0  0  0  0  0  0
   14.4937  -19.3649    3.8686 C   0  0  2  0  0  0  0  0  0  0  0  0
   14.0434  -18.1657    3.1394 N   0  0  0  0  0  0  0  0  0  0  0  0
   15.2059  -18.8669    5.0589 C   0  0  0  0  0  0  0  0  0  0  0  0
   15.5582  -17.6745    5.1746 O   0  0  0  0  0  0  0  0  0  0  0  0
   15.5131  -19.7100    6.1070 O   0  0  0  0  0  0  0  0  0  0  0  0
  2  1  1  6
  3  2  1  0
  4  3  1  0
  5  2  1  0
  6  5  2  0
  7  8  1  0
  9  8  1  1
  9 11  1  0
  9 10  1  0
 10  5  1  0
 11 12  2  0
 14 13  1  0
 14 15  1  0
 15 16  1  0
 17 16  1  6
 18 17  1  0
 18 11  1  0
 19 21  1  0
 19 17  1  0
 20 19  2  0
M  END
$$$$
