CSM.pdb
     RDKit          3D

 21 20  0  0  1  0  0  0  0  0999 V2000
   18.8608  -12.3943  -18.2379 N   0  0  0  0  0  0  0  0  0  0  0  0
   20.1459  -11.7038  -18.1061 C   0  0  1  0  0  0  0  0  0  0  0  0
   20.3006  -10.8328  -19.3454 C   0  0  0  0  0  0  0  0  0  0  0  0
   20.5673  -11.9202  -20.7950 S   0  0  0  0  0  0  0  0  0  0  0  0
   20.1000  -10.8109  -16.9298 C   0  0  0  0  0  0  0  0  0  0  0  0
   19.0691  -10.1105  -16.6797 O   0  0  0  0  0  0  0  0  0  0  0  0
   23.2214  -10.9119  -14.3994 O   0  0  0  0  0  0  0  0  0  0  0  0
   22.0408  -10.4620  -13.8071 C   0  0  0  0  0  0  0  0  0  0  0  0
   21.1966   -9.8852  -14.9425 C   0  0  2  0  0  0  0  0  0  0  0  0
   21.2390  -10.7530  -16.0813 N   0  0  0  0  0  0  0  0  0  0  0  0
   21.8195   -8.5604  -15.2627 C   0  0  0  0  0  0  0  0  0  0  0  0
   22.3348   -8.4336  -16.3994 O   0  0  0  0  0  0  0  0  0  0  0  0
   21.5634   -5.0178  -19.2091 C   0  0  0  0  0  0  0  0  0  0  0  0
   21.1177   -3.8914  -17.8722 S   0  0  0  0  0  0  0  0  0  0  0  0
   22.0579   -4.3474  -16.3693 C   0  0  0  0  0  0  0  0  0  0  0  0
   21.6409   -5.7256  -15.9757 C   0  0  0  0  0  0  0  0  0  0  0  0
   22.4029   -6.2088  -14.7684 C   0  0  2  0  0  0  0  0  0  0  0  0
   21.8320   -7.4973  -14.3367 N   0  0  0  0  0  0  0  0  0  0  0  0
   22.3001   -5.3135  -13.6021 C   0  0  0  0  0  0  0  0  0  0  0  0
   21.5322   -5.5495  -12.6463 O   0  0  0  0  0  0  0  0  0  0  0  0
   23.0608   -4.1654  -13.5192 O   0  0  0  0  0  0  0  0  0  0  0  0
  2  1  1  6
  3  2  1  0
  4  3  1  0
  5  2  1  0
  6  5  2  0
  7  8  1  0
  9  8  1  1
  9 11  1  0
  9 10  1  0
 10  5  1  0
 11 12  2  0
 14 13  1  0
 14 15  1  0
 15 16  1  0
 17 16  1  6
 18 17  1  0
 18 11  1  0
 19 21  1  0
 19 17  1  0
 20 19  2  0
M  END
$$$$
