CSM.pdb
     RDKit          3D

 21 20  0  0  1  0  0  0  0  0999 V2000
   23.0135  -14.7652  -18.3580 N   0  0  0  0  0  0  0  0  0  0  0  0
   23.1161  -13.7697  -17.2885 C   0  0  1  0  0  0  0  0  0  0  0  0
   24.6005  -13.5953  -16.9977 C   0  0  0  0  0  0  0  0  0  0  0  0
   25.1308  -14.9195  -15.8484 S   0  0  0  0  0  0  0  0  0  0  0  0
   22.5969  -12.4755  -17.7770 C   0  0  0  0  0  0  0  0  0  0  0  0
   22.7917  -12.1032  -18.9767 O   0  0  0  0  0  0  0  0  0  0  0  0
   19.3671   -9.1745  -17.6313 O   0  0  0  0  0  0  0  0  0  0  0  0
   19.8136  -10.3851  -17.1001 C   0  0  0  0  0  0  0  0  0  0  0  0
   21.3187  -10.4260  -17.3596 C   0  0  2  0  0  0  0  0  0  0  0  0
   21.8723  -11.6536  -16.8715 N   0  0  0  0  0  0  0  0  0  0  0  0
   21.8797   -9.2566  -16.6088 C   0  0  0  0  0  0  0  0  0  0  0  0
   22.1978   -9.4490  -15.4107 O   0  0  0  0  0  0  0  0  0  0  0  0
   25.9305   -2.6095  -16.8112 C   0  0  0  0  0  0  0  0  0  0  0  0
   25.2225   -4.0278  -17.6727 S   0  0  0  0  0  0  0  0  0  0  0  0
   24.1248   -4.9366  -16.5241 C   0  0  0  0  0  0  0  0  0  0  0  0
   23.5451   -6.0917  -17.2712 C   0  0  0  0  0  0  0  0  0  0  0  0
   22.6282   -6.9093  -16.3980 C   0  0  2  0  0  0  0  0  0  0  0  0
   22.0472   -7.9928  -17.2109 N   0  0  0  0  0  0  0  0  0  0  0  0
   21.4833   -6.1510  -15.8629 C   0  0  0  0  0  0  0  0  0  0  0  0
   20.3691   -6.1401  -16.4264 O   0  0  0  0  0  0  0  0  0  0  0  0
   21.5994   -5.4155  -14.7013 O   0  0  0  0  0  0  0  0  0  0  0  0
  2  1  1  6
  3  2  1  0
  4  3  1  0
  5  2  1  0
  6  5  2  0
  7  8  1  0
  9  8  1  1
  9 11  1  0
  9 10  1  0
 10  5  1  0
 11 12  2  0
 14 13  1  0
 14 15  1  0
 15 16  1  0
 17 16  1  6
 18 17  1  0
 18 11  1  0
 19 21  1  0
 19 17  1  0
 20 19  2  0
M  END
$$$$
