CSM.pdb
     RDKit          3D

 21 20  0  0  1  0  0  0  0  0999 V2000
   17.8327  -11.0661  -18.1418 N   0  0  0  0  0  0  0  0  0  0  0  0
   18.3958  -11.1320  -16.7912 C   0  0  1  0  0  0  0  0  0  0  0  0
   19.7726  -11.7684  -16.9247 C   0  0  0  0  0  0  0  0  0  0  0  0
   19.5765  -13.5895  -16.9370 S   0  0  0  0  0  0  0  0  0  0  0  0
   18.5808   -9.7604  -16.2738 C   0  0  0  0  0  0  0  0  0  0  0  0
   18.9572   -8.8177  -17.0389 O   0  0  0  0  0  0  0  0  0  0  0  0
   18.4888   -9.0529  -12.2474 O   0  0  0  0  0  0  0  0  0  0  0  0
   17.8425   -8.0749  -13.0042 C   0  0  0  0  0  0  0  0  0  0  0  0
   18.4328   -8.1755  -14.4098 C   0  0  2  0  0  0  0  0  0  0  0  0
   18.3275   -9.5187  -14.8962 N   0  0  0  0  0  0  0  0  0  0  0  0
   19.8699   -7.7766  -14.2628 C   0  0  0  0  0  0  0  0  0  0  0  0
   20.7323   -8.6509  -14.5186 O   0  0  0  0  0  0  0  0  0  0  0  0
   25.4932   -5.1415  -17.7018 C   0  0  0  0  0  0  0  0  0  0  0  0
   23.8737   -5.8715  -17.3868 S   0  0  0  0  0  0  0  0  0  0  0  0
   23.4683   -5.6813  -15.6121 C   0  0  0  0  0  0  0  0  0  0  0  0
   22.0947   -6.2263  -15.4009 C   0  0  0  0  0  0  0  0  0  0  0  0
   21.6703   -6.1089  -13.9594 C   0  0  2  0  0  0  0  0  0  0  0  0
   20.2477   -6.4805  -13.8564 N   0  0  0  0  0  0  0  0  0  0  0  0
   21.7679   -4.7410  -13.4197 C   0  0  0  0  0  0  0  0  0  0  0  0
   20.8354   -3.9166  -13.5204 O   0  0  0  0  0  0  0  0  0  0  0  0
   22.9082   -4.3132  -12.7713 O   0  0  0  0  0  0  0  0  0  0  0  0
  2  1  1  6
  3  2  1  0
  4  3  1  0
  5  2  1  0
  6  5  2  0
  7  8  1  0
  9  8  1  1
  9 11  1  0
  9 10  1  0
 10  5  1  0
 11 12  2  0
 14 13  1  0
 14 15  1  0
 15 16  1  0
 17 16  1  6
 18 17  1  0
 18 11  1  0
 19 21  1  0
 19 17  1  0
 20 19  2  0
M  END
$$$$
