CSM.pdb
     RDKit          3D

 21 20  0  0  1  0  0  0  0  0999 V2000
   24.8237  -35.3824  -12.3578 N   0  0  0  0  0  0  0  0  0  0  0  0
   24.2743  -34.2834  -11.5602 C   0  0  1  0  0  0  0  0  0  0  0  0
   22.7666  -34.4914  -11.5135 C   0  0  0  0  0  0  0  0  0  0  0  0
   22.0042  -33.0569  -10.6674 S   0  0  0  0  0  0  0  0  0  0  0  0
   24.7865  -34.3821  -10.1778 C   0  0  0  0  0  0  0  0  0  0  0  0
   25.0132  -35.5129   -9.6432 O   0  0  0  0  0  0  0  0  0  0  0  0
   24.9080  -31.0721   -7.8795 O   0  0  0  0  0  0  0  0  0  0  0  0
   26.0324  -31.8732   -7.6768 C   0  0  0  0  0  0  0  0  0  0  0  0
   25.6483  -33.2665   -8.1725 C   0  0  2  0  0  0  0  0  0  0  0  0
   25.0206  -33.1795   -9.4571 N   0  0  0  0  0  0  0  0  0  0  0  0
   24.6903  -33.7981   -7.1499 C   0  0  0  0  0  0  0  0  0  0  0  0
   23.4761  -33.5288   -7.3132 O   0  0  0  0  0  0  0  0  0  0  0  0
   24.6895  -37.4740   -0.7994 C   0  0  0  0  0  0  0  0  0  0  0  0
   24.5294  -38.1415   -2.4678 S   0  0  0  0  0  0  0  0  0  0  0  0
   23.6721  -36.9149   -3.5216 C   0  0  0  0  0  0  0  0  0  0  0  0
   24.7163  -36.1401   -4.2549 C   0  0  0  0  0  0  0  0  0  0  0  0
   24.1042  -35.0543   -5.1022 C   0  0  2  0  0  0  0  0  0  0  0  0
   25.1224  -34.5672   -6.0501 N   0  0  0  0  0  0  0  0  0  0  0  0
   23.6725  -33.8724   -4.3347 C   0  0  0  0  0  0  0  0  0  0  0  0
   24.4676  -32.9717   -3.9945 O   0  0  0  0  0  0  0  0  0  0  0  0
   22.3545  -33.7122   -3.9593 O   0  0  0  0  0  0  0  0  0  0  0  0
  2  1  1  6
  3  2  1  0
  4  3  1  0
  5  2  1  0
  6  5  2  0
  7  8  1  0
  9  8  1  1
  9 11  1  0
  9 10  1  0
 10  5  1  0
 11 12  2  0
 14 13  1  0
 14 15  1  0
 15 16  1  0
 17 16  1  1
 18 17  1  0
 18 11  1  0
 19 21  1  0
 19 17  1  0
 20 19  2  0
M  END
$$$$
