CSM.pdb
     RDKit          3D

 21 20  0  0  1  0  0  0  0  0999 V2000
   13.7578   -9.9607   -9.8410 N   0  0  0  0  0  0  0  0  0  0  0  0
   15.2044   -9.7302   -9.8485 C   0  0  1  0  0  0  0  0  0  0  0  0
   15.8099  -10.7965  -10.7512 C   0  0  0  0  0  0  0  0  0  0  0  0
   16.1244  -12.2991   -9.7519 S   0  0  0  0  0  0  0  0  0  0  0  0
   15.4839   -8.4127  -10.4561 C   0  0  0  0  0  0  0  0  0  0  0  0
   14.8248   -8.0033  -11.4629 O   0  0  0  0  0  0  0  0  0  0  0  0
   17.2982   -5.5402   -8.4209 O   0  0  0  0  0  0  0  0  0  0  0  0
   16.6661   -5.2020   -9.6181 C   0  0  0  0  0  0  0  0  0  0  0  0
   16.8717   -6.3943  -10.5510 C   0  0  2  0  0  0  0  0  0  0  0  0
   16.5104   -7.6109   -9.8868 N   0  0  0  0  0  0  0  0  0  0  0  0
   18.3328   -6.3865  -10.8842 C   0  0  0  0  0  0  0  0  0  0  0  0
   19.0543   -7.2298  -10.2995 O   0  0  0  0  0  0  0  0  0  0  0  0
   22.6575  -10.1403  -12.9619 C   0  0  0  0  0  0  0  0  0  0  0  0
   21.6517   -9.1231  -14.0613 S   0  0  0  0  0  0  0  0  0  0  0  0
   21.6656   -7.3960  -13.4554 C   0  0  0  0  0  0  0  0  0  0  0  0
   20.3143   -7.1031  -12.8927 C   0  0  0  0  0  0  0  0  0  0  0  0
   20.2548   -5.7224  -12.2911 C   0  0  2  0  0  0  0  0  0  0  0  0
   18.8829   -5.4775  -11.8109 N   0  0  0  0  0  0  0  0  0  0  0  0
   20.5428   -4.6419  -13.2511 C   0  0  0  0  0  0  0  0  0  0  0  0
   19.6525   -4.1198  -13.9539 O   0  0  0  0  0  0  0  0  0  0  0  0
   21.8247   -4.1571  -13.4108 O   0  0  0  0  0  0  0  0  0  0  0  0
  2  1  1  6
  3  2  1  0
  4  3  1  0
  5  2  1  0
  6  5  2  0
  7  8  1  0
  9  8  1  1
  9 11  1  0
  9 10  1  0
 10  5  1  0
 11 12  2  0
 14 13  1  0
 14 15  1  0
 15 16  1  0
 17 16  1  6
 18 17  1  0
 18 11  1  0
 19 21  1  0
 19 17  1  0
 20 19  2  0
M  END
$$$$
