CSM.pdb
     RDKit          3D

 21 20  0  0  1  0  0  0  0  0999 V2000
   17.3029  -12.8694  -17.0924 N   0  0  0  0  0  0  0  0  0  0  0  0
   17.0399  -11.7175  -16.2267 C   0  0  1  0  0  0  0  0  0  0  0  0
   17.3252  -12.1707  -14.8013 C   0  0  0  0  0  0  0  0  0  0  0  0
   16.0699  -13.4151  -14.3209 S   0  0  0  0  0  0  0  0  0  0  0  0
   17.9905  -10.6351  -16.5549 C   0  0  0  0  0  0  0  0  0  0  0  0
   19.1476  -10.8967  -17.0116 O   0  0  0  0  0  0  0  0  0  0  0  0
   17.1637   -6.7912  -15.4789 O   0  0  0  0  0  0  0  0  0  0  0  0
   17.7109   -6.8997  -16.7579 C   0  0  0  0  0  0  0  0  0  0  0  0
   18.4477   -8.2379  -16.7856 C   0  0  2  0  0  0  0  0  0  0  0  0
   17.5801   -9.2901  -16.3475 N   0  0  0  0  0  0  0  0  0  0  0  0
   19.5992   -8.0731  -15.8407 C   0  0  0  0  0  0  0  0  0  0  0  0
   19.4979   -8.6243  -14.7184 O   0  0  0  0  0  0  0  0  0  0  0  0
   24.7344  -10.8652  -14.5905 C   0  0  0  0  0  0  0  0  0  0  0  0
   25.3589   -9.2819  -15.1889 S   0  0  0  0  0  0  0  0  0  0  0  0
   24.1622   -7.9663  -14.7563 C   0  0  0  0  0  0  0  0  0  0  0  0
   22.9491   -8.1617  -15.6041 C   0  0  0  0  0  0  0  0  0  0  0  0
   21.8336   -7.2352  -15.1928 C   0  0  2  0  0  0  0  0  0  0  0  0
   20.7494   -7.3346  -16.1863 N   0  0  0  0  0  0  0  0  0  0  0  0
   22.2212   -5.8136  -15.1627 C   0  0  0  0  0  0  0  0  0  0  0  0
   22.9583   -5.3424  -14.2717 O   0  0  0  0  0  0  0  0  0  0  0  0
   21.7804   -4.9368  -16.1326 O   0  0  0  0  0  0  0  0  0  0  0  0
  2  1  1  6
  3  2  1  0
  4  3  1  0
  5  2  1  0
  6  5  2  0
  7  8  1  0
  9  8  1  1
  9 11  1  0
  9 10  1  0
 10  5  1  0
 11 12  2  0
 14 13  1  0
 14 15  1  0
 15 16  1  0
 17 16  1  6
 18 17  1  0
 18 11  1  0
 19 21  1  0
 19 17  1  0
 20 19  2  0
M  END
$$$$
