CSM.pdb
     RDKit          3D

 21 20  0  0  1  0  0  0  0  0999 V2000
   17.1602  -12.3807  -17.4965 N   0  0  0  0  0  0  0  0  0  0  0  0
   16.9017  -11.4605  -16.3866 C   0  0  1  0  0  0  0  0  0  0  0  0
   17.3023  -12.1922  -15.1128 C   0  0  0  0  0  0  0  0  0  0  0  0
   16.0049  -13.4214  -14.7117 S   0  0  0  0  0  0  0  0  0  0  0  0
   17.7766  -10.2775  -16.5216 C   0  0  0  0  0  0  0  0  0  0  0  0
   18.9524  -10.3835  -16.9928 O   0  0  0  0  0  0  0  0  0  0  0  0
   16.7259   -6.6983  -14.8153 O   0  0  0  0  0  0  0  0  0  0  0  0
   17.2649   -6.5850  -16.0974 C   0  0  0  0  0  0  0  0  0  0  0  0
   18.0860   -7.8542  -16.3196 C   0  0  2  0  0  0  0  0  0  0  0  0
   17.2714   -9.0139  -16.1110 N   0  0  0  0  0  0  0  0  0  0  0  0
   19.1888   -7.7924  -15.3068 C   0  0  0  0  0  0  0  0  0  0  0  0
   19.2219   -8.7034  -14.4451 O   0  0  0  0  0  0  0  0  0  0  0  0
   25.8922   -9.9402  -14.2611 C   0  0  0  0  0  0  0  0  0  0  0  0
   24.2637   -9.7634  -15.0171 S   0  0  0  0  0  0  0  0  0  0  0  0
   23.4615   -8.2550  -14.3604 C   0  0  0  0  0  0  0  0  0  0  0  0
   22.1267   -8.1300  -15.0172 C   0  0  0  0  0  0  0  0  0  0  0  0
   21.3630   -6.9413  -14.4925 C   0  0  2  0  0  0  0  0  0  0  0  0
   20.1511   -6.7620  -15.3121 N   0  0  0  0  0  0  0  0  0  0  0  0
   22.1026   -5.6699  -14.5863 C   0  0  0  0  0  0  0  0  0  0  0  0
   23.0580   -5.3973  -13.8300 O   0  0  0  0  0  0  0  0  0  0  0  0
   21.7647   -4.7198  -15.5279 O   0  0  0  0  0  0  0  0  0  0  0  0
  2  1  1  6
  3  2  1  0
  4  3  1  0
  5  2  1  0
  6  5  2  0
  7  8  1  0
  9  8  1  1
  9 11  1  0
  9 10  1  0
 10  5  1  0
 11 12  2  0
 14 13  1  0
 14 15  1  0
 15 16  1  0
 17 16  1  6
 18 17  1  0
 18 11  1  0
 19 21  1  0
 19 17  1  0
 20 19  2  0
M  END
$$$$
