KLD.pdb
     RDKit          3D

 26 25  0  0  1  0  0  0  0  0999 V2000
   17.9329  -12.3940  -17.0589 N   0  0  0  0  0  0  0  0  0  0  0  0
   19.0287  -11.7529  -17.7169 C   0  0  1  0  0  0  0  0  0  0  0  0
   18.5964  -10.8400  -18.8353 C   0  0  0  0  0  0  0  0  0  0  0  0
   17.6313  -11.5519  -19.7513 C   0  0  0  0  0  0  0  0  0  0  0  0
   17.2311  -10.6979  -20.9246 C   0  0  0  0  0  0  0  0  0  0  0  0
   16.3051  -11.4299  -21.8720 C   0  0  0  0  0  0  0  0  0  0  0  0
   16.0525  -10.5066  -22.9886 N   0  0  0  0  0  0  0  0  0  0  0  0
   19.8538  -10.9379  -16.7635 C   0  0  0  0  0  0  0  0  0  0  0  0
   19.2282  -10.3699  -15.8610 O   0  0  0  0  0  0  0  0  0  0  0  0
   24.1097   -9.9607  -13.6351 C   0  0  0  0  0  0  0  0  0  0  0  0
   24.4268   -9.7097  -15.1034 C   0  0  1  0  0  0  0  0  0  0  0  0
   25.8964  -10.1845  -15.2541 C   0  0  0  0  0  0  0  0  0  0  0  0
   23.5438  -10.5528  -15.9911 C   0  0  0  0  0  0  0  0  0  0  0  0
   22.1038  -10.0590  -16.0175 C   0  0  2  0  0  0  0  0  0  0  0  0
   21.2401  -10.8203  -16.8770 N   0  0  0  0  0  0  0  0  0  0  0  0
   21.9681   -8.6219  -16.2279 C   0  0  0  0  0  0  0  0  0  0  0  0
   22.2106   -8.0835  -17.3609 O   0  0  0  0  0  0  0  0  0  0  0  0
   21.5624   -7.7012  -15.2170 N   0  0  0  0  0  0  0  0  0  0  0  0
   21.4111   -6.3042  -15.4190 C   0  0  1  0  0  0  0  0  0  0  0  0
   20.0385   -5.7556  -15.2648 C   0  0  0  0  0  0  0  0  0  0  0  0
   19.9406   -4.2961  -15.4594 C   0  0  0  0  0  0  0  0  0  0  0  0
   19.5539   -3.5761  -14.5178 O   0  0  0  0  0  0  0  0  0  0  0  0
   22.2914   -5.6057  -14.4199 C   0  0  0  0  0  0  0  0  0  0  0  0
   22.8291   -6.3008  -13.3451 O   0  0  0  0  0  0  0  0  0  0  0  0
   20.2700   -3.7177  -16.6654 O   0  0  0  0  0  0  0  0  0  0  0  0
   22.5740   -4.3874  -14.5110 O   0  0  0  0  0  0  0  0  0  0  0  0
  2  1  1  1
  3  2  1  0
  4  3  1  0
  5  4  1  0
  5  6  1  0
  7  6  1  0
  8  9  2  0
  8  2  1  0
 11 10  1  1
 11 12  1  0
 13 11  1  0
 14 13  1  6
 14 15  1  0
 15  8  1  0
 16 18  1  0
 16 14  1  0
 17 16  2  0
 19 18  1  0
 19 20  1  1
 20 21  1  0
 21 22  2  0
 23 19  1  0
 24 23  1  0
 25 21  1  0
 26 23  2  0
M  END
$$$$
