KLD.pdb
     RDKit          3D

 26 25  0  0  1  0  0  0  0  0999 V2000
   27.9406  -21.5456  -15.8374 N   0  0  0  0  0  0  0  0  0  0  0  0
   26.9065  -20.6020  -15.5460 C   0  0  1  0  0  0  0  0  0  0  0  0
   26.2642  -20.0264  -16.7818 C   0  0  0  0  0  0  0  0  0  0  0  0
   27.2029  -19.0584  -17.4596 C   0  0  0  0  0  0  0  0  0  0  0  0
   28.1924  -19.7606  -18.3505 C   0  0  0  0  0  0  0  0  0  0  0  0
   29.1305  -18.7903  -19.0355 C   0  0  0  0  0  0  0  0  0  0  0  0
   30.1482  -19.6130  -19.7065 N   0  0  0  0  0  0  0  0  0  0  0  0
   25.8155  -21.2083  -14.7118 C   0  0  0  0  0  0  0  0  0  0  0  0
   25.4931  -22.3650  -15.0064 O   0  0  0  0  0  0  0  0  0  0  0  0
   25.9153  -20.4330   -9.3826 C   0  0  0  0  0  0  0  0  0  0  0  0
   25.7736  -20.8753  -10.8330 C   0  0  1  0  0  0  0  0  0  0  0  0
   26.0380  -22.4036  -10.7845 C   0  0  0  0  0  0  0  0  0  0  0  0
   24.3684  -20.6345  -11.3288 C   0  0  0  0  0  0  0  0  0  0  0  0
   24.1873  -21.0408  -12.7849 C   0  0  2  0  0  0  0  0  0  0  0  0
   25.1955  -20.5210  -13.6668 N   0  0  0  0  0  0  0  0  0  0  0  0
   22.8389  -20.8322  -13.3009 C   0  0  0  0  0  0  0  0  0  0  0  0
   22.3252  -19.6654  -13.3846 O   0  0  0  0  0  0  0  0  0  0  0  0
   21.9843  -21.8818  -13.7505 N   0  0  0  0  0  0  0  0  0  0  0  0
   20.6789  -21.6847  -14.2725 C   0  0  1  0  0  0  0  0  0  0  0  0
   20.1825  -22.7114  -15.2254 C   0  0  0  0  0  0  0  0  0  0  0  0
   18.8117  -22.4737  -15.7172 C   0  0  0  0  0  0  0  0  0  0  0  0
   18.4823  -21.3295  -16.0870 O   0  0  0  0  0  0  0  0  0  0  0  0
   19.7276  -21.6516  -13.1084 C   0  0  0  0  0  0  0  0  0  0  0  0
   20.1365  -22.0726  -11.8502 O   0  0  0  0  0  0  0  0  0  0  0  0
   17.8911  -23.4968  -15.7738 O   0  0  0  0  0  0  0  0  0  0  0  0
   18.5449  -21.2499  -13.2197 O   0  0  0  0  0  0  0  0  0  0  0  0
  2  1  1  6
  3  2  1  0
  4  3  1  0
  5  4  1  0
  5  6  1  0
  7  6  1  0
  8  9  2  0
  8  2  1  0
 11 10  1  1
 11 12  1  0
 13 11  1  0
 14 13  1  1
 14 15  1  0
 15  8  1  0
 16 18  1  0
 16 14  1  0
 17 16  2  0
 19 18  1  0
 19 20  1  6
 20 21  1  0
 21 22  2  0
 23 19  1  0
 24 23  1  0
 25 21  1  0
 26 23  2  0
M  END
$$$$
