KLD.pdb
     RDKit          3D

 26 25  0  0  1  0  0  0  0  0999 V2000
   20.5422  -20.1461   -9.9093 N   0  0  0  0  0  0  0  0  0  0  0  0
   21.2198  -21.0788  -10.7551 C   0  0  1  0  0  0  0  0  0  0  0  0
   20.2882  -21.8446  -11.6589 C   0  0  0  0  0  0  0  0  0  0  0  0
   19.3222  -22.6675  -10.8421 C   0  0  0  0  0  0  0  0  0  0  0  0
   18.3363  -23.4058  -11.7075 C   0  0  0  0  0  0  0  0  0  0  0  0
   17.3234  -24.1754  -10.8874 C   0  0  0  0  0  0  0  0  0  0  0  0
   16.4383  -24.8417  -11.8546 N   0  0  0  0  0  0  0  0  0  0  0  0
   22.2397  -20.4047  -11.6264 C   0  0  0  0  0  0  0  0  0  0  0  0
   22.0393  -19.2075  -11.8612 O   0  0  0  0  0  0  0  0  0  0  0  0
   26.0913  -20.6710  -10.4405 C   0  0  0  0  0  0  0  0  0  0  0  0
   26.6372  -20.5264  -11.8549 C   0  0  1  0  0  0  0  0  0  0  0  0
   27.9908  -21.2839  -11.8116 C   0  0  0  0  0  0  0  0  0  0  0  0
   25.7260  -21.2036  -12.8498 C   0  0  0  0  0  0  0  0  0  0  0  0
   24.3776  -20.5071  -12.9721 C   0  0  2  0  0  0  0  0  0  0  0  0
   23.3489  -21.0749  -12.1453 N   0  0  0  0  0  0  0  0  0  0  0  0
   23.9334  -20.3009  -14.3461 C   0  0  0  0  0  0  0  0  0  0  0  0
   23.3705  -21.2315  -15.0164 O   0  0  0  0  0  0  0  0  0  0  0  0
   24.0798  -19.0733  -15.0574 N   0  0  0  0  0  0  0  0  0  0  0  0
   23.5333  -18.8218  -16.3433 C   0  0  1  0  0  0  0  0  0  0  0  0
   23.3854  -17.3958  -16.7348 C   0  0  0  0  0  0  0  0  0  0  0  0
   22.7961  -17.1893  -18.0719 C   0  0  0  0  0  0  0  0  0  0  0  0
   22.3780  -16.0587  -18.3902 O   0  0  0  0  0  0  0  0  0  0  0  0
   24.4354  -19.4760  -17.3529 C   0  0  0  0  0  0  0  0  0  0  0  0
   23.9027  -20.1878  -18.4192 O   0  0  0  0  0  0  0  0  0  0  0  0
   22.7012  -18.2268  -18.9730 O   0  0  0  0  0  0  0  0  0  0  0  0
   25.6854  -19.4092  -17.2785 O   0  0  0  0  0  0  0  0  0  0  0  0
  2  1  1  6
  3  2  1  0
  4  3  1  0
  5  4  1  0
  5  6  1  0
  7  6  1  0
  8  9  2  0
  8  2  1  0
 11 10  1  1
 11 12  1  0
 13 11  1  0
 14 13  1  6
 14 15  1  0
 15  8  1  0
 16 18  1  0
 16 14  1  0
 17 16  2  0
 19 18  1  0
 19 20  1  6
 20 21  1  0
 21 22  2  0
 23 19  1  0
 24 23  1  0
 25 21  1  0
 26 23  2  0
M  END
$$$$
