KLD.pdb
     RDKit          3D

 26 25  0  0  1  0  0  0  0  0999 V2000
   27.4347  -18.7112  -16.6801 N   0  0  0  0  0  0  0  0  0  0  0  0
   26.3453  -19.4994  -17.1663 C   0  0  1  0  0  0  0  0  0  0  0  0
   26.7662  -20.5296  -18.1825 C   0  0  0  0  0  0  0  0  0  0  0  0
   27.2158  -19.8576  -19.4567 C   0  0  0  0  0  0  0  0  0  0  0  0
   28.3235  -18.8678  -19.2133 C   0  0  0  0  0  0  0  0  0  0  0  0
   28.7941  -18.2133  -20.4943 C   0  0  0  0  0  0  0  0  0  0  0  0
   29.2822  -19.3032  -21.3527 N   0  0  0  0  0  0  0  0  0  0  0  0
   25.6401  -20.2235  -16.0562 C   0  0  0  0  0  0  0  0  0  0  0  0
   24.8886  -21.1412  -16.4050 O   0  0  0  0  0  0  0  0  0  0  0  0
   25.1799  -22.4369  -11.0299 C   0  0  0  0  0  0  0  0  0  0  0  0
   25.0897  -20.9189  -11.1132 C   0  0  1  0  0  0  0  0  0  0  0  0
   25.7471  -20.4331   -9.7942 C   0  0  0  0  0  0  0  0  0  0  0  0
   25.8914  -20.4006  -12.2825 C   0  0  0  0  0  0  0  0  0  0  0  0
   25.1226  -20.4761  -13.5945 C   0  0  2  0  0  0  0  0  0  0  0  0
   25.8127  -19.8921  -14.7112 N   0  0  0  0  0  0  0  0  0  0  0  0
   23.7376  -20.0273  -13.5028 C   0  0  0  0  0  0  0  0  0  0  0  0
   23.4325  -18.8868  -13.0146 O   0  0  0  0  0  0  0  0  0  0  0  0
   22.6180  -20.7966  -13.9374 N   0  0  0  0  0  0  0  0  0  0  0  0
   21.2784  -20.3269  -13.9488 C   0  0  1  0  0  0  0  0  0  0  0  0
   20.6700  -20.0873  -15.2834 C   0  0  0  0  0  0  0  0  0  0  0  0
   19.3133  -19.5084  -15.2391 C   0  0  0  0  0  0  0  0  0  0  0  0
   18.8325  -19.1550  -14.1444 O   0  0  0  0  0  0  0  0  0  0  0  0
   20.4341  -21.3532  -13.2454 C   0  0  0  0  0  0  0  0  0  0  0  0
   19.2397  -20.9892  -12.6386 O   0  0  0  0  0  0  0  0  0  0  0  0
   18.5707  -19.3528  -16.3888 O   0  0  0  0  0  0  0  0  0  0  0  0
   20.7648  -22.5609  -13.1766 O   0  0  0  0  0  0  0  0  0  0  0  0
  2  1  1  1
  3  2  1  0
  4  3  1  0
  5  4  1  0
  5  6  1  0
  7  6  1  0
  8  9  2  0
  8  2  1  0
 11 10  1  1
 11 12  1  0
 13 11  1  0
 14 13  1  1
 14 15  1  0
 15  8  1  0
 16 18  1  0
 16 14  1  0
 17 16  2  0
 19 18  1  0
 19 20  1  6
 20 21  1  0
 21 22  2  0
 23 19  1  0
 24 23  1  0
 25 21  1  0
 26 23  2  0
M  END
$$$$
