KLD.pdb
     RDKit          3D

 26 25  0  0  1  0  0  0  0  0999 V2000
   25.6417  -35.2765  -11.6185 N   0  0  0  0  0  0  0  0  0  0  0  0
   26.9144  -34.6255  -11.5909 C   0  0  1  0  0  0  0  0  0  0  0  0
   27.1551  -33.7435  -12.7890 C   0  0  0  0  0  0  0  0  0  0  0  0
   27.2736  -34.5784  -14.0405 C   0  0  0  0  0  0  0  0  0  0  0  0
   27.4829  -33.7314  -15.2673 C   0  0  0  0  0  0  0  0  0  0  0  0
   27.6057  -34.5679  -16.5226 C   0  0  0  0  0  0  0  0  0  0  0  0
   27.8042  -33.6175  -17.6272 N   0  0  0  0  0  0  0  0  0  0  0  0
   27.0809  -33.7752  -10.3648 C   0  0  0  0  0  0  0  0  0  0  0  0
   28.1463  -33.1534  -10.2823 O   0  0  0  0  0  0  0  0  0  0  0  0
   23.1511  -33.6181   -7.5278 C   0  0  0  0  0  0  0  0  0  0  0  0
   23.6803  -32.5835   -8.5121 C   0  0  1  0  0  0  0  0  0  0  0  0
   22.5698  -31.5002   -8.5478 C   0  0  0  0  0  0  0  0  0  0  0  0
   24.9567  -31.9628   -7.9982 C   0  0  0  0  0  0  0  0  0  0  0  0
   26.1636  -32.8711   -8.1892 C   0  0  2  0  0  0  0  0  0  0  0  0
   26.1029  -33.6831   -9.3730 N   0  0  0  0  0  0  0  0  0  0  0  0
   26.5244  -33.6433   -7.0055 C   0  0  0  0  0  0  0  0  0  0  0  0
   26.5529  -33.1153   -5.8425 O   0  0  0  0  0  0  0  0  0  0  0  0
   26.8715  -35.0266   -7.0291 N   0  0  0  0  0  0  0  0  0  0  0  0
   27.2559  -35.7762   -5.8865 C   0  0  1  0  0  0  0  0  0  0  0  0
   26.7273  -37.1620   -5.7926 C   0  0  0  0  0  0  0  0  0  0  0  0
   26.3932  -37.5948   -4.4219 C   0  0  0  0  0  0  0  0  0  0  0  0
   26.5663  -36.8077   -3.4707 O   0  0  0  0  0  0  0  0  0  0  0  0
   28.7570  -35.8647   -5.8888 C   0  0  0  0  0  0  0  0  0  0  0  0
   29.4954  -35.3647   -4.8247 O   0  0  0  0  0  0  0  0  0  0  0  0
   25.8931  -38.8549   -4.1782 O   0  0  0  0  0  0  0  0  0  0  0  0
   29.3969  -36.3842   -6.8338 O   0  0  0  0  0  0  0  0  0  0  0  0
  2  1  1  6
  3  2  1  0
  4  3  1  0
  5  4  1  0
  5  6  1  0
  7  6  1  0
  8  9  2  0
  8  2  1  0
 11 10  1  1
 11 12  1  0
 13 11  1  0
 14 13  1  1
 14 15  1  0
 15  8  1  0
 16 18  1  0
 16 14  1  0
 17 16  2  0
 19 18  1  0
 19 20  1  6
 20 21  1  0
 21 22  2  0
 23 19  1  0
 24 23  1  0
 25 21  1  0
 26 23  2  0
M  END
$$$$
