KLD.pdb
     RDKit          3D

 26 25  0  0  1  0  0  0  0  0999 V2000
   18.6960  -12.3405  -18.3784 N   0  0  0  0  0  0  0  0  0  0  0  0
   17.9804  -11.7146  -17.3105 C   0  0  1  0  0  0  0  0  0  0  0  0
   17.0807  -12.6648  -16.5629 C   0  0  0  0  0  0  0  0  0  0  0  0
   16.0728  -13.2820  -17.5012 C   0  0  0  0  0  0  0  0  0  0  0  0
   14.8220  -12.4519  -17.6128 C   0  0  0  0  0  0  0  0  0  0  0  0
   13.8235  -13.0536  -18.5781 C   0  0  0  0  0  0  0  0  0  0  0  0
   12.7025  -12.1042  -18.6484 N   0  0  0  0  0  0  0  0  0  0  0  0
   18.9065  -11.0884  -16.3085 C   0  0  0  0  0  0  0  0  0  0  0  0
   18.3707  -10.6373  -15.2896 O   0  0  0  0  0  0  0  0  0  0  0  0
   23.2679  -10.1817  -13.3589 C   0  0  0  0  0  0  0  0  0  0  0  0
   23.5882  -10.0730  -14.8438 C   0  0  1  0  0  0  0  0  0  0  0  0
   25.0051  -10.6936  -14.9663 C   0  0  0  0  0  0  0  0  0  0  0  0
   22.6192  -10.8941  -15.6596 C   0  0  0  0  0  0  0  0  0  0  0  0
   21.2231  -10.2875  -15.6890 C   0  0  2  0  0  0  0  0  0  0  0  0
   20.2869  -11.0135  -16.5020 N   0  0  0  0  0  0  0  0  0  0  0  0
   21.1992   -8.8547  -15.9617 C   0  0  0  0  0  0  0  0  0  0  0  0
   21.6042   -8.3764  -17.0751 O   0  0  0  0  0  0  0  0  0  0  0  0
   20.7339   -7.8731  -15.0375 N   0  0  0  0  0  0  0  0  0  0  0  0
   20.6928   -6.4789  -15.3018 C   0  0  1  0  0  0  0  0  0  0  0  0
   19.3532   -5.8360  -15.2700 C   0  0  0  0  0  0  0  0  0  0  0  0
   19.3635   -4.3917  -15.5727 C   0  0  0  0  0  0  0  0  0  0  0  0
   20.3085   -3.9087  -16.2271 O   0  0  0  0  0  0  0  0  0  0  0  0
   21.5450   -5.7980  -14.2668 C   0  0  0  0  0  0  0  0  0  0  0  0
   22.1282   -4.5662  -14.5317 O   0  0  0  0  0  0  0  0  0  0  0  0
   18.3451   -3.5698  -15.1432 O   0  0  0  0  0  0  0  0  0  0  0  0
   21.7631   -6.3025  -13.1397 O   0  0  0  0  0  0  0  0  0  0  0  0
  2  1  1  6
  3  2  1  0
  4  3  1  0
  5  4  1  0
  5  6  1  0
  7  6  1  0
  8  9  2  0
  8  2  1  0
 11 10  1  1
 11 12  1  0
 13 11  1  0
 14 13  1  6
 14 15  1  0
 15  8  1  0
 16 18  1  0
 16 14  1  0
 17 16  2  0
 19 18  1  0
 19 20  1  1
 20 21  1  0
 21 22  2  0
 23 19  1  0
 24 23  1  0
 25 21  1  0
 26 23  2  0
M  END
$$$$
