KLD.pdb
     RDKit          3D

 26 25  0  0  1  0  0  0  0  0999 V2000
   28.7339  -32.5168  -16.3013 N   0  0  0  0  0  0  0  0  0  0  0  0
   28.2300  -31.5641  -17.2410 C   0  0  1  0  0  0  0  0  0  0  0  0
   26.8648  -31.9195  -17.7711 C   0  0  0  0  0  0  0  0  0  0  0  0
   26.9794  -32.5488  -19.1379 C   0  0  0  0  0  0  0  0  0  0  0  0
   28.2358  -33.3656  -19.2806 C   0  0  0  0  0  0  0  0  0  0  0  0
   28.3602  -33.9833  -20.6568 C   0  0  0  0  0  0  0  0  0  0  0  0
   29.6007  -34.7730  -20.6378 N   0  0  0  0  0  0  0  0  0  0  0  0
   28.1387  -30.1881  -16.6475 C   0  0  0  0  0  0  0  0  0  0  0  0
   28.2478  -30.1247  -15.4176 O   0  0  0  0  0  0  0  0  0  0  0  0
   30.8043  -27.9864  -17.8186 C   0  0  0  0  0  0  0  0  0  0  0  0
   30.1347  -26.6778  -17.4203 C   0  0  1  0  0  0  0  0  0  0  0  0
   30.8554  -25.6111  -18.2866 C   0  0  0  0  0  0  0  0  0  0  0  0
   28.6693  -26.6973  -17.7820 C   0  0  0  0  0  0  0  0  0  0  0  0
   27.8762  -27.6911  -16.9445 C   0  0  2  0  0  0  0  0  0  0  0  0
   27.9432  -29.0441  -17.4233 N   0  0  0  0  0  0  0  0  0  0  0  0
   26.5089  -27.2727  -16.6555 C   0  0  0  0  0  0  0  0  0  0  0  0
   26.2569  -26.1854  -16.0340 O   0  0  0  0  0  0  0  0  0  0  0  0
   25.3502  -28.0163  -17.0282 N   0  0  0  0  0  0  0  0  0  0  0  0
   24.0168  -27.6138  -16.7535 C   0  0  1  0  0  0  0  0  0  0  0  0
   23.2874  -26.9351  -17.8563 C   0  0  0  0  0  0  0  0  0  0  0  0
   23.0809  -25.4885  -17.6501 C   0  0  0  0  0  0  0  0  0  0  0  0
   24.0696  -24.7344  -17.5597 O   0  0  0  0  0  0  0  0  0  0  0  0
   23.2387  -28.8479  -16.3898 C   0  0  0  0  0  0  0  0  0  0  0  0
   22.0483  -28.7490  -15.6821 O   0  0  0  0  0  0  0  0  0  0  0  0
   21.8126  -24.9595  -17.5562 O   0  0  0  0  0  0  0  0  0  0  0  0
   23.6226  -29.9998  -16.7033 O   0  0  0  0  0  0  0  0  0  0  0  0
  2  1  1  1
  3  2  1  0
  4  3  1  0
  5  4  1  0
  5  6  1  0
  7  6  1  0
  8  9  2  0
  8  2  1  0
 11 10  1  6
 11 12  1  0
 13 11  1  0
 14 13  1  6
 14 15  1  0
 15  8  1  0
 16 18  1  0
 16 14  1  0
 17 16  2  0
 19 18  1  0
 19 20  1  6
 20 21  1  0
 21 22  2  0
 23 19  1  0
 24 23  1  0
 25 21  1  0
 26 23  2  0
M  END
$$$$
