KLD.pdb
     RDKit          3D

 26 25  0  0  1  0  0  0  0  0999 V2000
   27.3676  -16.5208  -20.8143 N   0  0  0  0  0  0  0  0  0  0  0  0
   26.0545  -16.0972  -20.4386 C   0  0  1  0  0  0  0  0  0  0  0  0
   25.3424  -17.0883  -19.5544 C   0  0  0  0  0  0  0  0  0  0  0  0
   25.6646  -18.4995  -19.9812 C   0  0  0  0  0  0  0  0  0  0  0  0
   24.4512  -19.2245  -20.4989 C   0  0  0  0  0  0  0  0  0  0  0  0
   24.7850  -20.6185  -20.9848 C   0  0  0  0  0  0  0  0  0  0  0  0
   23.5212  -21.1942  -21.4690 N   0  0  0  0  0  0  0  0  0  0  0  0
   26.0772  -14.7823  -19.7145 C   0  0  0  0  0  0  0  0  0  0  0  0
   24.9777  -14.3506  -19.3493 O   0  0  0  0  0  0  0  0  0  0  0  0
   28.0083  -11.0056  -16.3516 C   0  0  0  0  0  0  0  0  0  0  0  0
   28.7959  -11.0995  -17.6517 C   0  0  1  0  0  0  0  0  0  0  0  0
   30.2601  -10.8176  -17.2221 C   0  0  0  0  0  0  0  0  0  0  0  0
   28.7113  -12.4927  -18.2266 C   0  0  0  0  0  0  0  0  0  0  0  0
   27.3631  -12.7736  -18.8759 C   0  0  2  0  0  0  0  0  0  0  0  0
   27.2575  -14.0809  -19.4625 N   0  0  0  0  0  0  0  0  0  0  0  0
   26.9028  -11.7230  -19.7772 C   0  0  0  0  0  0  0  0  0  0  0  0
   27.5046  -11.4693  -20.8752 O   0  0  0  0  0  0  0  0  0  0  0  0
   25.7663  -10.8980  -19.5282 N   0  0  0  0  0  0  0  0  0  0  0  0
   25.2509   -9.9452  -20.4457 C   0  0  1  0  0  0  0  0  0  0  0  0
   23.8214  -10.0932  -20.8240 C   0  0  0  0  0  0  0  0  0  0  0  0
   23.3124   -9.0282  -21.7097 C   0  0  0  0  0  0  0  0  0  0  0  0
   22.1352   -8.6370  -21.5851 O   0  0  0  0  0  0  0  0  0  0  0  0
   25.4152   -8.5857  -19.8245 C   0  0  0  0  0  0  0  0  0  0  0  0
   25.5523   -8.4495  -18.4497 O   0  0  0  0  0  0  0  0  0  0  0  0
   24.1184   -8.4602  -22.6716 O   0  0  0  0  0  0  0  0  0  0  0  0
   25.4353   -7.5341  -20.5074 O   0  0  0  0  0  0  0  0  0  0  0  0
  2  1  1  1
  3  2  1  0
  4  3  1  0
  5  4  1  0
  5  6  1  0
  7  6  1  0
  8  9  2  0
  8  2  1  0
 11 10  1  1
 11 12  1  0
 13 11  1  0
 14 13  1  6
 14 15  1  0
 15  8  1  0
 16 18  1  0
 16 14  1  0
 17 16  2  0
 19 18  1  0
 19 20  1  1
 20 21  1  0
 21 22  2  0
 23 19  1  0
 24 23  1  0
 25 21  1  0
 26 23  2  0
M  END
$$$$
