KLD.pdb
     RDKit          3D

 26 25  0  0  1  0  0  0  0  0999 V2000
   18.5204  -15.0898  -16.7252 N   0  0  0  0  0  0  0  0  0  0  0  0
   18.3836  -13.7086  -17.0691 C   0  0  1  0  0  0  0  0  0  0  0  0
   16.9681  -13.2055  -16.9497 C   0  0  0  0  0  0  0  0  0  0  0  0
   16.0590  -13.9681  -17.8822 C   0  0  0  0  0  0  0  0  0  0  0  0
   14.6267  -13.5194  -17.7677 C   0  0  0  0  0  0  0  0  0  0  0  0
   13.7369  -14.1874  -18.7937 C   0  0  0  0  0  0  0  0  0  0  0  0
   12.3842  -13.6572  -18.5662 N   0  0  0  0  0  0  0  0  0  0  0  0
   19.2477  -12.8306  -16.2111 C   0  0  0  0  0  0  0  0  0  0  0  0
   18.9077  -12.7345  -15.0263 O   0  0  0  0  0  0  0  0  0  0  0  0
   23.5401  -10.8398  -13.8903 C   0  0  0  0  0  0  0  0  0  0  0  0
   23.5237  -10.4890  -15.3722 C   0  0  1  0  0  0  0  0  0  0  0  0
   25.0069  -10.6310  -15.8056 C   0  0  0  0  0  0  0  0  0  0  0  0
   22.6881  -11.4801  -16.1454 C   0  0  0  0  0  0  0  0  0  0  0  0
   21.1944  -11.2336  -15.9834 C   0  0  2  0  0  0  0  0  0  0  0  0
   20.3670  -12.1594  -16.7064 N   0  0  0  0  0  0  0  0  0  0  0  0
   20.7905   -9.8479  -16.1947 C   0  0  0  0  0  0  0  0  0  0  0  0
   20.7578   -9.3287  -17.3616 O   0  0  0  0  0  0  0  0  0  0  0  0
   20.4029   -8.9602  -15.1478 N   0  0  0  0  0  0  0  0  0  0  0  0
   20.0157   -7.6087  -15.3450 C   0  0  1  0  0  0  0  0  0  0  0  0
   18.7188   -7.1956  -14.7483 C   0  0  0  0  0  0  0  0  0  0  0  0
   17.5340   -7.7962  -15.3911 C   0  0  0  0  0  0  0  0  0  0  0  0
   17.5478   -8.0182  -16.6178 O   0  0  0  0  0  0  0  0  0  0  0  0
   21.0861   -6.7402  -14.7443 C   0  0  0  0  0  0  0  0  0  0  0  0
   22.1348   -7.3041  -14.0303 O   0  0  0  0  0  0  0  0  0  0  0  0
   16.4135   -8.1151  -14.6560 O   0  0  0  0  0  0  0  0  0  0  0  0
   21.0798   -5.4915  -14.8591 O   0  0  0  0  0  0  0  0  0  0  0  0
  2  1  1  1
  3  2  1  0
  4  3  1  0
  5  4  1  0
  5  6  1  0
  7  6  1  0
  8  9  2  0
  8  2  1  0
 11 10  1  1
 11 12  1  0
 13 11  1  0
 14 13  1  6
 14 15  1  0
 15  8  1  0
 16 18  1  0
 16 14  1  0
 17 16  2  0
 19 18  1  0
 19 20  1  1
 20 21  1  0
 21 22  2  0
 23 19  1  0
 24 23  1  0
 25 21  1  0
 26 23  2  0
M  END
$$$$
