KLD.pdb
     RDKit          3D

 26 25  0  0  1  0  0  0  0  0999 V2000
   26.4794  -21.8987  -15.8508 N   0  0  0  0  0  0  0  0  0  0  0  0
   25.3668  -21.0314  -15.6173 C   0  0  1  0  0  0  0  0  0  0  0  0
   24.4371  -20.9289  -16.7989 C   0  0  0  0  0  0  0  0  0  0  0  0
   25.1771  -20.4063  -18.0059 C   0  0  0  0  0  0  0  0  0  0  0  0
   25.9129  -19.1274  -17.7078 C   0  0  0  0  0  0  0  0  0  0  0  0
   26.5736  -18.5499  -18.9411 C   0  0  0  0  0  0  0  0  0  0  0  0
   27.2919  -17.3475  -18.4927 N   0  0  0  0  0  0  0  0  0  0  0  0
   24.5500  -21.4752  -14.4385 C   0  0  0  0  0  0  0  0  0  0  0  0
   23.9617  -22.5550  -14.5678 O   0  0  0  0  0  0  0  0  0  0  0  0
   26.2863  -20.0244   -9.4563 C   0  0  0  0  0  0  0  0  0  0  0  0
   25.7416  -20.6914  -10.7124 C   0  0  1  0  0  0  0  0  0  0  0  0
   26.0702  -22.1943  -10.5092 C   0  0  0  0  0  0  0  0  0  0  0  0
   24.2441  -20.5225  -10.7990 C   0  0  0  0  0  0  0  0  0  0  0  0
   23.6724  -21.0586  -12.1043 C   0  0  2  0  0  0  0  0  0  0  0  0
   24.4520  -20.7262  -13.2645 N   0  0  0  0  0  0  0  0  0  0  0  0
   22.2525  -20.7828  -12.2933 C   0  0  0  0  0  0  0  0  0  0  0  0
   21.3932  -21.0308  -11.3810 O   0  0  0  0  0  0  0  0  0  0  0  0
   21.6985  -20.2243  -13.4831 N   0  0  0  0  0  0  0  0  0  0  0  0
   20.3128  -19.9982  -13.6928 C   0  0  1  0  0  0  0  0  0  0  0  0
   19.9504  -19.0776  -14.8018 C   0  0  0  0  0  0  0  0  0  0  0  0
   18.4987  -18.8841  -14.9828 C   0  0  0  0  0  0  0  0  0  0  0  0
   17.7739  -18.7077  -13.9838 O   0  0  0  0  0  0  0  0  0  0  0  0
   19.6774  -21.3293  -13.9850 C   0  0  0  0  0  0  0  0  0  0  0  0
   20.4297  -22.3702  -14.5125 O   0  0  0  0  0  0  0  0  0  0  0  0
   17.9328  -18.8955  -16.2387 O   0  0  0  0  0  0  0  0  0  0  0  0
   18.4628  -21.5547  -13.7695 O   0  0  0  0  0  0  0  0  0  0  0  0
  2  1  1  6
  3  2  1  0
  4  3  1  0
  5  4  1  0
  5  6  1  0
  7  6  1  0
  8  9  2  0
  8  2  1  0
 11 10  1  1
 11 12  1  0
 13 11  1  0
 14 13  1  1
 14 15  1  0
 15  8  1  0
 16 18  1  0
 16 14  1  0
 17 16  2  0
 19 18  1  0
 19 20  1  6
 20 21  1  0
 21 22  2  0
 23 19  1  0
 24 23  1  0
 25 21  1  0
 26 23  2  0
M  END
$$$$
