KLD.pdb
     RDKit          3D

 26 25  0  0  1  0  0  0  0  0999 V2000
   23.7565  -16.2658  -16.6649 N   0  0  0  0  0  0  0  0  0  0  0  0
   23.1730  -15.1367  -17.3199 C   0  0  1  0  0  0  0  0  0  0  0  0
   21.7067  -15.3168  -17.6180 C   0  0  0  0  0  0  0  0  0  0  0  0
   21.4946  -16.5201  -18.5036 C   0  0  0  0  0  0  0  0  0  0  0  0
   21.3016  -17.7821  -17.7060 C   0  0  0  0  0  0  0  0  0  0  0  0
   21.0314  -18.9796  -18.5913 C   0  0  0  0  0  0  0  0  0  0  0  0
   20.7662  -20.1056  -17.6832 N   0  0  0  0  0  0  0  0  0  0  0  0
   23.3167  -13.8829  -16.5067 C   0  0  0  0  0  0  0  0  0  0  0  0
   22.6503  -13.8375  -15.4663 O   0  0  0  0  0  0  0  0  0  0  0  0
   28.1991  -11.5723  -16.2375 C   0  0  0  0  0  0  0  0  0  0  0  0
   26.7969  -12.1252  -16.0194 C   0  0  1  0  0  0  0  0  0  0  0  0
   26.7845  -12.5303  -14.5215 C   0  0  0  0  0  0  0  0  0  0  0  0
   25.7596  -11.0527  -16.2478 C   0  0  0  0  0  0  0  0  0  0  0  0
   24.3381  -11.5936  -16.1784 C   0  0  2  0  0  0  0  0  0  0  0  0
   24.1465  -12.8275  -16.8891 N   0  0  0  0  0  0  0  0  0  0  0  0
   23.3076  -10.6091  -16.4896 C   0  0  0  0  0  0  0  0  0  0  0  0
   23.0081  -10.3090  -17.6948 O   0  0  0  0  0  0  0  0  0  0  0  0
   22.5535   -9.9036  -15.5059 N   0  0  0  0  0  0  0  0  0  0  0  0
   21.5362   -8.9584  -15.8012 C   0  0  1  0  0  0  0  0  0  0  0  0
   20.2420   -9.1320  -15.0916 C   0  0  0  0  0  0  0  0  0  0  0  0
   19.2226   -8.1193  -15.4277 C   0  0  0  0  0  0  0  0  0  0  0  0
   18.7016   -7.4472  -14.5160 O   0  0  0  0  0  0  0  0  0  0  0  0
   22.0674   -7.5975  -15.4452 C   0  0  0  0  0  0  0  0  0  0  0  0
   21.3930   -6.4505  -15.8414 O   0  0  0  0  0  0  0  0  0  0  0  0
   18.8385   -7.9059  -16.7332 O   0  0  0  0  0  0  0  0  0  0  0  0
   23.1233   -7.4406  -14.7872 O   0  0  0  0  0  0  0  0  0  0  0  0
  2  1  1  1
  3  2  1  0
  4  3  1  0
  5  4  1  0
  5  6  1  0
  7  6  1  0
  8  9  2  0
  8  2  1  0
 11 10  1  1
 11 12  1  0
 13 11  1  0
 14 13  1  6
 14 15  1  0
 15  8  1  0
 16 18  1  0
 16 14  1  0
 17 16  2  0
 19 18  1  0
 19 20  1  1
 20 21  1  0
 21 22  2  0
 23 19  1  0
 24 23  1  0
 25 21  1  0
 26 23  2  0
M  END
$$$$
