KLD.pdb
     RDKit          3D

 26 25  0  0  1  0  0  0  0  0999 V2000
   27.2533  -21.2687  -14.0885 N   0  0  0  0  0  0  0  0  0  0  0  0
   26.5943  -20.2411  -13.3440 C   0  0  1  0  0  0  0  0  0  0  0  0
   25.3256  -19.7566  -13.9974 C   0  0  0  0  0  0  0  0  0  0  0  0
   25.5523  -19.5140  -15.4695 C   0  0  0  0  0  0  0  0  0  0  0  0
   24.7885  -20.4873  -16.3270 C   0  0  0  0  0  0  0  0  0  0  0  0
   24.9215  -20.1732  -17.8016 C   0  0  0  0  0  0  0  0  0  0  0  0
   24.1286  -21.1909  -18.5077 N   0  0  0  0  0  0  0  0  0  0  0  0
   26.2420  -20.6942  -11.9568 C   0  0  0  0  0  0  0  0  0  0  0  0
   25.5611  -21.7236  -11.8841 O   0  0  0  0  0  0  0  0  0  0  0  0
   28.1941  -19.7603   -6.0911 C   0  0  0  0  0  0  0  0  0  0  0  0
   27.1598  -20.3334   -7.0509 C   0  0  1  0  0  0  0  0  0  0  0  0
   25.8094  -19.7926   -6.5104 C   0  0  0  0  0  0  0  0  0  0  0  0
   27.3780  -19.8044   -8.4477 C   0  0  0  0  0  0  0  0  0  0  0  0
   26.3937  -20.3886   -9.4517 C   0  0  2  0  0  0  0  0  0  0  0  0
   26.6506  -20.0065  -10.8128 N   0  0  0  0  0  0  0  0  0  0  0  0
   24.9924  -20.2189   -9.0837 C   0  0  0  0  0  0  0  0  0  0  0  0
   24.4205  -19.0773   -9.1268 O   0  0  0  0  0  0  0  0  0  0  0  0
   24.1456  -21.2820   -8.6511 N   0  0  0  0  0  0  0  0  0  0  0  0
   22.7347  -21.1839   -8.5285 C   0  0  1  0  0  0  0  0  0  0  0  0
   21.9291  -21.8093   -9.6095 C   0  0  0  0  0  0  0  0  0  0  0  0
   21.5248  -20.8805  -10.6827 C   0  0  0  0  0  0  0  0  0  0  0  0
   21.8010  -19.6689  -10.5820 O   0  0  0  0  0  0  0  0  0  0  0  0
   22.3468  -21.8461   -7.2355 C   0  0  0  0  0  0  0  0  0  0  0  0
   22.8387  -23.1031   -6.9107 O   0  0  0  0  0  0  0  0  0  0  0  0
   20.8470  -21.3323  -11.7935 O   0  0  0  0  0  0  0  0  0  0  0  0
   21.5763  -21.3031   -6.4084 O   0  0  0  0  0  0  0  0  0  0  0  0
  2  1  1  6
  3  2  1  0
  4  3  1  0
  5  4  1  0
  5  6  1  0
  7  6  1  0
  8  9  2  0
  8  2  1  0
 11 10  1  1
 11 12  1  0
 13 11  1  0
 14 13  1  1
 14 15  1  0
 15  8  1  0
 16 18  1  0
 16 14  1  0
 17 16  2  0
 19 18  1  0
 19 20  1  6
 20 21  1  0
 21 22  2  0
 23 19  1  0
 24 23  1  0
 25 21  1  0
 26 23  2  0
M  END
$$$$
