PYN.pdb
     RDKit          3D

 28 29  0  0  1  0  0  0  0  0999 V2000
    7.5865  -15.2356   18.4754 N   0  0  0  0  0  0  0  0  0  0  0  0
    7.2926  -14.6915   17.1812 C   0  0  0  0  0  0  0  0  0  0  0  0
    7.5790  -13.2025   17.3135 C   0  0  0  0  0  0  0  0  0  0  0  0
    8.7429  -13.1991   18.2833 C   0  0  0  0  0  0  0  0  0  0  0  0
    8.8561  -14.6275   18.7921 C   0  0  1  0  0  0  0  0  0  0  0  0
    9.0384  -14.5222   20.2841 C   0  0  0  0  0  0  0  0  0  0  0  0
   10.1759  -14.3382   20.7877 O   0  0  0  0  0  0  0  0  0  0  0  0
    7.3085  -12.5890   28.6782 O   0  0  0  0  0  0  0  0  0  0  0  0
    7.1935  -12.8927   27.3179 C   0  0  0  0  0  0  0  0  0  0  0  0
    6.5671  -14.0372   26.9246 C   0  0  0  0  0  0  0  0  0  0  0  0
    6.4818  -14.2889   25.5549 C   0  0  0  0  0  0  0  0  0  0  0  0
    7.0027  -13.4294   24.6152 C   0  0  0  0  0  0  0  0  0  0  0  0
    6.9114  -13.7224   23.1943 C   0  0  0  0  0  0  0  0  0  0  0  0
    8.1267  -14.4410   22.6180 C   0  0  2  0  0  0  0  0  0  0  0  0
    7.9471  -14.6246   21.1752 N   0  0  0  0  0  0  0  0  0  0  0  0
    8.3754  -15.7166   23.2995 C   0  0  0  0  0  0  0  0  0  0  0  0
    7.5452  -16.6471   23.1662 O   0  0  0  0  0  0  0  0  0  0  0  0
    7.6281  -12.2841   25.0472 C   0  0  0  0  0  0  0  0  0  0  0  0
    7.7198  -12.0211   26.4131 C   0  0  0  0  0  0  0  0  0  0  0  0
   12.0225  -16.0862   24.0636 N   0  0  0  0  0  0  0  0  0  0  0  0
   11.8389  -17.4662   23.6799 C   0  0  0  0  0  0  0  0  0  0  0  0
   12.7648  -18.0463   23.0848 O   0  0  0  0  0  0  0  0  0  0  0  0
   10.5844  -18.1543   23.9917 C   0  0  0  0  0  0  0  0  0  0  0  0
    9.6511  -17.2802   24.7597 C   0  0  2  0  0  0  0  0  0  0  0  0
    9.5096  -15.9729   24.1097 N   0  0  0  0  0  0  0  0  0  0  0  0
   10.1418  -17.0819   26.1355 C   0  0  0  0  0  0  0  0  0  0  0  0
   10.3224  -18.1372   26.8401 O   0  0  0  0  0  0  0  0  0  0  0  0
   10.4296  -15.8995   26.7557 O   0  0  0  0  0  0  0  0  0  0  0  0
  1  5  1  0
  2  1  1  0
  3  2  1  0
  3  4  1  0
  4  5  1  0
  5  6  1  1
  6 15  1  0
  6  7  2  0
  9  8  1  0
 10  9  2  0
 11 10  1  0
 12 18  1  0
 12 11  2  0
 14 13  1  1
 13 12  1  0
 14 16  1  0
 15 14  1  0
 16 17  2  0
 18 19  2  0
 19  9  1  0
 20 21  1  0
 21 23  1  0
 22 21  2  0
 24 23  1  6
 24 26  1  0
 25 16  1  0
 25 24  1  0
 26 28  1  0
 27 26  2  0
M  END
$$$$
