PYN.pdb
     RDKit          3D

 28 29  0  0  1  0  0  0  0  0999 V2000
    7.5032  -15.4290   18.6430 N   0  0  0  0  0  0  0  0  0  0  0  0
    7.2094  -14.9275   17.3318 C   0  0  0  0  0  0  0  0  0  0  0  0
    7.6064  -13.4589   17.3814 C   0  0  0  0  0  0  0  0  0  0  0  0
    8.7968  -13.4946   18.3177 C   0  0  0  0  0  0  0  0  0  0  0  0
    8.8225  -14.9014   18.8941 C   0  0  1  0  0  0  0  0  0  0  0  0
    9.0578  -14.7385   20.3735 C   0  0  0  0  0  0  0  0  0  0  0  0
   10.1703  -14.3526   20.8151 O   0  0  0  0  0  0  0  0  0  0  0  0
    7.3154  -12.0094   28.4803 O   0  0  0  0  0  0  0  0  0  0  0  0
    7.2378  -12.5529   27.1940 C   0  0  0  0  0  0  0  0  0  0  0  0
    8.0538  -12.0883   26.2064 C   0  0  0  0  0  0  0  0  0  0  0  0
    7.9327  -12.6674   24.9428 C   0  0  0  0  0  0  0  0  0  0  0  0
    7.0308  -13.6720   24.6773 C   0  0  0  0  0  0  0  0  0  0  0  0
    6.9163  -14.2490   23.3479 C   0  0  0  0  0  0  0  0  0  0  0  0
    8.2383  -14.7083   22.7424 C   0  0  2  0  0  0  0  0  0  0  0  0
    8.0462  -15.0099   21.3213 N   0  0  0  0  0  0  0  0  0  0  0  0
    8.7977  -15.8543   23.4686 C   0  0  0  0  0  0  0  0  0  0  0  0
    8.2982  -16.9901   23.2859 O   0  0  0  0  0  0  0  0  0  0  0  0
    6.2232  -14.1164   25.6970 C   0  0  0  0  0  0  0  0  0  0  0  0
    6.3346  -13.5460   26.9641 C   0  0  0  0  0  0  0  0  0  0  0  0
   13.2048  -15.7835   23.0277 N   0  0  0  0  0  0  0  0  0  0  0  0
   12.4375  -16.9136   23.4963 C   0  0  0  0  0  0  0  0  0  0  0  0
   12.2056  -17.8447   22.7045 O   0  0  0  0  0  0  0  0  0  0  0  0
   11.9498  -16.9481   24.8768 C   0  0  0  0  0  0  0  0  0  0  0  0
   10.4599  -16.9900   24.9354 C   0  0  2  0  0  0  0  0  0  0  0  0
    9.8828  -15.7632   24.3757 N   0  0  0  0  0  0  0  0  0  0  0  0
   10.0009  -17.1451   26.3276 C   0  0  0  0  0  0  0  0  0  0  0  0
    9.4878  -16.1104   26.8833 O   0  0  0  0  0  0  0  0  0  0  0  0
   10.0569  -18.2677   27.1037 O   0  0  0  0  0  0  0  0  0  0  0  0
  1  5  1  0
  2  1  1  0
  3  2  1  0
  3  4  1  0
  4  5  1  0
  5  6  1  1
  6 15  1  0
  6  7  2  0
  9  8  1  0
 10  9  2  0
 11 10  1  0
 12 18  1  0
 12 11  2  0
 14 13  1  1
 13 12  1  0
 14 16  1  0
 15 14  1  0
 16 17  2  0
 18 19  2  0
 19  9  1  0
 20 21  1  0
 21 23  1  0
 22 21  2  0
 24 23  1  1
 24 26  1  0
 25 16  1  0
 25 24  1  0
 26 28  1  0
 27 26  2  0
M  END
$$$$
