PYN.pdb
     RDKit          3D

 28 29  0  0  1  0  0  0  0  0999 V2000
    8.3299  -18.6893   19.3754 N   0  0  0  0  0  0  0  0  0  0  0  0
    7.9914  -18.9183   18.0006 C   0  0  0  0  0  0  0  0  0  0  0  0
    8.4699  -17.6708   17.2715 C   0  0  0  0  0  0  0  0  0  0  0  0
    9.7069  -17.3064   18.0666 C   0  0  0  0  0  0  0  0  0  0  0  0
    9.6879  -18.2092   19.2900 C   0  0  1  0  0  0  0  0  0  0  0  0
   10.0136  -17.3225   20.4640 C   0  0  0  0  0  0  0  0  0  0  0  0
   11.1721  -16.8610   20.6271 O   0  0  0  0  0  0  0  0  0  0  0  0
    7.0292  -12.1005   18.1668 O   0  0  0  0  0  0  0  0  0  0  0  0
    7.3193  -12.8584   19.3058 C   0  0  0  0  0  0  0  0  0  0  0  0
    6.4723  -13.8507   19.6994 C   0  0  0  0  0  0  0  0  0  0  0  0
    6.8121  -14.5741   20.8430 C   0  0  0  0  0  0  0  0  0  0  0  0
    7.9546  -14.3153   21.5648 C   0  0  0  0  0  0  0  0  0  0  0  0
    8.2782  -15.0760   22.7606 C   0  0  0  0  0  0  0  0  0  0  0  0
    9.3729  -16.1200   22.5683 C   0  0  2  0  0  0  0  0  0  0  0  0
    9.0388  -16.9735   21.4248 N   0  0  0  0  0  0  0  0  0  0  0  0
    9.5902  -16.9080   23.7871 C   0  0  0  0  0  0  0  0  0  0  0  0
    8.6733  -17.6609   24.1936 O   0  0  0  0  0  0  0  0  0  0  0  0
    8.7864  -13.3071   21.1392 C   0  0  0  0  0  0  0  0  0  0  0  0
    8.4581  -12.5770   19.9981 C   0  0  0  0  0  0  0  0  0  0  0  0
   11.5031  -21.6390   24.5823 N   0  0  0  0  0  0  0  0  0  0  0  0
   12.1303  -20.3561   24.7974 C   0  0  0  0  0  0  0  0  0  0  0  0
   13.1470  -20.3036   25.5126 O   0  0  0  0  0  0  0  0  0  0  0  0
   11.5699  -19.1522   24.1801 C   0  0  0  0  0  0  0  0  0  0  0  0
   11.2613  -18.1036   25.1950 C   0  0  2  0  0  0  0  0  0  0  0  0
   10.7860  -16.8766   24.5470 N   0  0  0  0  0  0  0  0  0  0  0  0
   12.4583  -17.7908   25.9965 C   0  0  0  0  0  0  0  0  0  0  0  0
   12.6974  -18.5556   26.9967 O   0  0  0  0  0  0  0  0  0  0  0  0
   13.3510  -16.7758   25.8004 O   0  0  0  0  0  0  0  0  0  0  0  0
  1  5  1  0
  2  1  1  0
  3  2  1  0
  3  4  1  0
  4  5  1  0
  5  6  1  1
  6 15  1  0
  6  7  2  0
  9  8  1  0
 10  9  2  0
 11 10  1  0
 12 18  1  0
 12 11  2  0
 14 13  1  1
 13 12  1  0
 14 16  1  0
 15 14  1  0
 16 17  2  0
 18 19  2  0
 19  9  1  0
 20 21  1  0
 21 23  1  0
 22 21  2  0
 24 23  1  6
 24 26  1  0
 25 16  1  0
 25 24  1  0
 26 28  1  0
 27 26  2  0
M  END
$$$$
