PYN.pdb
     RDKit          3D

 28 29  0  0  1  0  0  0  0  0999 V2000
    7.5748  -15.4625   18.6689 N   0  0  0  0  0  0  0  0  0  0  0  0
    7.1973  -15.0604   17.3449 C   0  0  0  0  0  0  0  0  0  0  0  0
    7.3058  -13.5422   17.3560 C   0  0  0  0  0  0  0  0  0  0  0  0
    8.4762  -13.3254   18.2931 C   0  0  0  0  0  0  0  0  0  0  0  0
    8.7675  -14.6860   18.9062 C   0  0  1  0  0  0  0  0  0  0  0  0
    8.9597  -14.4429   20.3809 C   0  0  0  0  0  0  0  0  0  0  0  0
   10.0073  -13.9020   20.8184 O   0  0  0  0  0  0  0  0  0  0  0  0
    7.2137  -12.7626   28.8173 O   0  0  0  0  0  0  0  0  0  0  0  0
    7.1132  -13.0989   27.4635 C   0  0  0  0  0  0  0  0  0  0  0  0
    6.5504  -14.2839   27.0945 C   0  0  0  0  0  0  0  0  0  0  0  0
    6.4767  -14.5668   25.7303 C   0  0  0  0  0  0  0  0  0  0  0  0
    6.9473  -13.6984   24.7724 C   0  0  0  0  0  0  0  0  0  0  0  0
    6.8698  -14.0239   23.3577 C   0  0  0  0  0  0  0  0  0  0  0  0
    8.1699  -14.5482   22.7578 C   0  0  2  0  0  0  0  0  0  0  0  0
    7.9783  -14.8092   21.3285 N   0  0  0  0  0  0  0  0  0  0  0  0
    8.6518  -15.7398   23.4661 C   0  0  0  0  0  0  0  0  0  0  0  0
    8.0533  -16.8288   23.2971 O   0  0  0  0  0  0  0  0  0  0  0  0
    7.5091  -12.5120   25.1801 C   0  0  0  0  0  0  0  0  0  0  0  0
    7.5887  -12.2176   26.5403 C   0  0  0  0  0  0  0  0  0  0  0  0
   11.6799  -18.6781   22.8504 N   0  0  0  0  0  0  0  0  0  0  0  0
   12.1402  -17.4643   23.4831 C   0  0  0  0  0  0  0  0  0  0  0  0
   12.9088  -16.7183   22.8502 O   0  0  0  0  0  0  0  0  0  0  0  0
   11.7027  -17.1326   24.8406 C   0  0  0  0  0  0  0  0  0  0  0  0
   10.2187  -17.0093   24.9281 C   0  0  2  0  0  0  0  0  0  0  0  0
    9.7666  -15.7434   24.3411 N   0  0  0  0  0  0  0  0  0  0  0  0
    9.7760  -17.0726   26.3327 C   0  0  0  0  0  0  0  0  0  0  0  0
    9.5958  -15.9534   26.9306 O   0  0  0  0  0  0  0  0  0  0  0  0
    9.5325  -18.1894   27.0805 O   0  0  0  0  0  0  0  0  0  0  0  0
  1  5  1  0
  2  1  1  0
  3  2  1  0
  3  4  1  0
  4  5  1  0
  5  6  1  1
  6 15  1  0
  6  7  2  0
  9  8  1  0
 10  9  2  0
 11 10  1  0
 12 18  1  0
 12 11  2  0
 14 13  1  1
 13 12  1  0
 14 16  1  0
 15 14  1  0
 16 17  2  0
 18 19  2  0
 19  9  1  0
 20 21  1  0
 21 23  1  0
 22 21  2  0
 24 23  1  1
 24 26  1  0
 25 16  1  0
 25 24  1  0
 26 28  1  0
 27 26  2  0
M  END
$$$$
