PYN.pdb
     RDKit          3D

 28 29  0  0  1  0  0  0  0  0999 V2000
    7.7001  -15.5673   18.7601 N   0  0  0  0  0  0  0  0  0  0  0  0
    7.3386  -15.1782   17.4278 C   0  0  0  0  0  0  0  0  0  0  0  0
    7.4314  -13.6589   17.4299 C   0  0  0  0  0  0  0  0  0  0  0  0
    8.5853  -13.4235   18.3830 C   0  0  0  0  0  0  0  0  0  0  0  0
    8.8811  -14.7769   19.0099 C   0  0  1  0  0  0  0  0  0  0  0  0
    9.0485  -14.5219   20.4856 C   0  0  0  0  0  0  0  0  0  0  0  0
   10.1064  -14.0172   20.9412 O   0  0  0  0  0  0  0  0  0  0  0  0
    6.9830  -12.5316   28.7931 O   0  0  0  0  0  0  0  0  0  0  0  0
    6.9377  -12.8975   27.4440 C   0  0  0  0  0  0  0  0  0  0  0  0
    6.3205  -14.0537   27.0708 C   0  0  0  0  0  0  0  0  0  0  0  0
    6.3058  -14.3683   25.7116 C   0  0  0  0  0  0  0  0  0  0  0  0
    6.8857  -13.5582   24.7627 C   0  0  0  0  0  0  0  0  0  0  0  0
    6.8673  -13.9165   23.3539 C   0  0  0  0  0  0  0  0  0  0  0  0
    8.1741  -14.5068   22.8350 C   0  0  2  0  0  0  0  0  0  0  0  0
    8.0314  -14.8359   21.4141 N   0  0  0  0  0  0  0  0  0  0  0  0
    8.5920  -15.6730   23.6218 C   0  0  0  0  0  0  0  0  0  0  0  0
    7.9475  -16.7429   23.5088 O   0  0  0  0  0  0  0  0  0  0  0  0
    7.4998  -12.3994   25.1744 C   0  0  0  0  0  0  0  0  0  0  0  0
    7.5212  -12.0737   26.5297 C   0  0  0  0  0  0  0  0  0  0  0  0
   10.7743  -18.5619   23.0188 N   0  0  0  0  0  0  0  0  0  0  0  0
   11.8646  -18.0014   23.7821 C   0  0  0  0  0  0  0  0  0  0  0  0
   13.0302  -18.2657   23.4367 O   0  0  0  0  0  0  0  0  0  0  0  0
   11.5879  -17.1422   24.9353 C   0  0  0  0  0  0  0  0  0  0  0  0
   10.1239  -16.9323   25.1290 C   0  0  2  0  0  0  0  0  0  0  0  0
    9.6933  -15.6724   24.5137 N   0  0  0  0  0  0  0  0  0  0  0  0
    9.7905  -16.9041   26.5647 C   0  0  0  0  0  0  0  0  0  0  0  0
    9.5352  -15.7561   27.0741 O   0  0  0  0  0  0  0  0  0  0  0  0
    9.7204  -17.9626   27.4251 O   0  0  0  0  0  0  0  0  0  0  0  0
  1  5  1  0
  2  1  1  0
  3  2  1  0
  3  4  1  0
  4  5  1  0
  5  6  1  1
  6 15  1  0
  6  7  2  0
  9  8  1  0
 10  9  2  0
 11 10  1  0
 12 18  1  0
 12 11  2  0
 14 13  1  1
 13 12  1  0
 14 16  1  0
 15 14  1  0
 16 17  2  0
 18 19  2  0
 19  9  1  0
 20 21  1  0
 21 23  1  0
 22 21  2  0
 24 23  1  1
 24 26  1  0
 25 16  1  0
 25 24  1  0
 26 28  1  0
 27 26  2  0
M  END
$$$$
