PYN.pdb
     RDKit          3D

 28 29  0  0  1  0  0  0  0  0999 V2000
    7.5545  -15.4602   18.7338 N   0  0  0  0  0  0  0  0  0  0  0  0
    7.2299  -14.9918   17.4176 C   0  0  0  0  0  0  0  0  0  0  0  0
    7.5639  -13.5070   17.4421 C   0  0  0  0  0  0  0  0  0  0  0  0
    8.7617  -13.4775   18.3693 C   0  0  0  0  0  0  0  0  0  0  0  0
    8.8518  -14.8730   18.9664 C   0  0  1  0  0  0  0  0  0  0  0  0
    9.0908  -14.6776   20.4413 C   0  0  0  0  0  0  0  0  0  0  0  0
   10.2007  -14.2711   20.8707 O   0  0  0  0  0  0  0  0  0  0  0  0
    7.3998  -12.1835   28.6594 O   0  0  0  0  0  0  0  0  0  0  0  0
    7.2795  -12.6726   27.3547 C   0  0  0  0  0  0  0  0  0  0  0  0
    6.7508  -13.9093   27.1354 C   0  0  0  0  0  0  0  0  0  0  0  0
    6.6551  -14.3456   25.8136 C   0  0  0  0  0  0  0  0  0  0  0  0
    7.0719  -13.5752   24.7526 C   0  0  0  0  0  0  0  0  0  0  0  0
    6.9728  -14.0597   23.3855 C   0  0  0  0  0  0  0  0  0  0  0  0
    8.2772  -14.6020   22.8112 C   0  0  2  0  0  0  0  0  0  0  0  0
    8.0856  -14.9403   21.3983 N   0  0  0  0  0  0  0  0  0  0  0  0
    8.7723  -15.7494   23.5806 C   0  0  0  0  0  0  0  0  0  0  0  0
    8.1712  -16.8461   23.4881 O   0  0  0  0  0  0  0  0  0  0  0  0
    7.6005  -12.3327   25.0102 C   0  0  0  0  0  0  0  0  0  0  0  0
    7.7014  -11.8852   26.3266 C   0  0  0  0  0  0  0  0  0  0  0  0
   11.4331  -17.8931   22.7864 N   0  0  0  0  0  0  0  0  0  0  0  0
   12.3474  -17.5479   23.8496 C   0  0  0  0  0  0  0  0  0  0  0  0
   13.5664  -17.7122   23.6626 O   0  0  0  0  0  0  0  0  0  0  0  0
   11.8354  -17.0168   25.1146 C   0  0  0  0  0  0  0  0  0  0  0  0
   10.3467  -16.9237   25.1124 C   0  0  2  0  0  0  0  0  0  0  0  0
    9.9031  -15.7015   24.4335 N   0  0  0  0  0  0  0  0  0  0  0  0
    9.8262  -16.9230   26.4916 C   0  0  0  0  0  0  0  0  0  0  0  0
    9.5427  -15.7809   26.9994 O   0  0  0  0  0  0  0  0  0  0  0  0
    9.6077  -18.0016   27.3007 O   0  0  0  0  0  0  0  0  0  0  0  0
  1  5  1  0
  2  1  1  0
  3  2  1  0
  3  4  1  0
  4  5  1  0
  5  6  1  1
  6 15  1  0
  6  7  2  0
  9  8  1  0
 10  9  2  0
 11 10  1  0
 12 18  1  0
 12 11  2  0
 14 13  1  1
 13 12  1  0
 14 16  1  0
 15 14  1  0
 16 17  2  0
 18 19  2  0
 19  9  1  0
 20 21  1  0
 21 23  1  0
 22 21  2  0
 24 23  1  1
 24 26  1  0
 25 16  1  0
 25 24  1  0
 26 28  1  0
 27 26  2  0
M  END
$$$$
