PYN.pdb
     RDKit          3D

 28 29  0  0  1  0  0  0  0  0999 V2000
    6.9578  -15.1839   19.7404 N   0  0  0  0  0  0  0  0  0  0  0  0
    6.3799  -14.6453   18.5432 C   0  0  0  0  0  0  0  0  0  0  0  0
    6.6509  -13.1495   18.6221 C   0  0  0  0  0  0  0  0  0  0  0  0
    7.9951  -13.1179   19.3201 C   0  0  0  0  0  0  0  0  0  0  0  0
    8.2502  -14.5438   19.7823 C   0  0  1  0  0  0  0  0  0  0  0  0
    8.7453  -14.4368   21.2014 C   0  0  0  0  0  0  0  0  0  0  0  0
    9.9284  -14.0918   21.4519 O   0  0  0  0  0  0  0  0  0  0  0  0
    8.8432  -14.0005   30.0284 O   0  0  0  0  0  0  0  0  0  0  0  0
    8.4738  -14.0407   28.6801 C   0  0  0  0  0  0  0  0  0  0  0  0
    8.5760  -12.9206   27.9107 C   0  0  0  0  0  0  0  0  0  0  0  0
    8.1933  -13.0191   26.5727 C   0  0  0  0  0  0  0  0  0  0  0  0
    7.7267  -14.1920   26.0254 C   0  0  0  0  0  0  0  0  0  0  0  0
    7.3222  -14.2636   24.6308 C   0  0  0  0  0  0  0  0  0  0  0  0
    8.4269  -14.6992   23.6741 C   0  0  2  0  0  0  0  0  0  0  0  0
    7.9077  -14.7169   22.3038 N   0  0  0  0  0  0  0  0  0  0  0  0
    8.9930  -15.9983   24.0557 C   0  0  0  0  0  0  0  0  0  0  0  0
    8.2767  -17.0232   23.9600 O   0  0  0  0  0  0  0  0  0  0  0  0
    7.6365  -15.3026   26.8303 C   0  0  0  0  0  0  0  0  0  0  0  0
    8.0158  -15.2172   28.1690 C   0  0  0  0  0  0  0  0  0  0  0  0
   12.6893  -16.9091   22.1469 N   0  0  0  0  0  0  0  0  0  0  0  0
   12.0162  -17.9146   22.9351 C   0  0  0  0  0  0  0  0  0  0  0  0
   11.3972  -18.8177   22.3442 O   0  0  0  0  0  0  0  0  0  0  0  0
   12.0705  -17.8590   24.3975 C   0  0  0  0  0  0  0  0  0  0  0  0
   10.7472  -17.5020   24.9861 C   0  0  2  0  0  0  0  0  0  0  0  0
   10.3163  -16.1760   24.5309 N   0  0  0  0  0  0  0  0  0  0  0  0
   10.8180  -17.5049   26.4585 C   0  0  0  0  0  0  0  0  0  0  0  0
   11.1464  -18.6108   27.0170 O   0  0  0  0  0  0  0  0  0  0  0  0
   10.5738  -16.4627   27.3069 O   0  0  0  0  0  0  0  0  0  0  0  0
  1  5  1  0
  2  1  1  0
  3  2  1  0
  3  4  1  0
  4  5  1  0
  5  6  1  1
  6 15  1  0
  6  7  2  0
  9  8  1  0
 10  9  2  0
 11 10  1  0
 12 18  1  0
 12 11  2  0
 14 13  1  1
 13 12  1  0
 14 16  1  0
 15 14  1  0
 16 17  2  0
 18 19  2  0
 19  9  1  0
 20 21  1  0
 21 23  1  0
 22 21  2  0
 24 23  1  6
 24 26  1  0
 25 16  1  0
 25 24  1  0
 26 28  1  0
 27 26  2  0
M  END
$$$$
