PYN.pdb
     RDKit          3D

 28 29  0  0  1  0  0  0  0  0999 V2000
    7.6488  -15.4495   18.8105 N   0  0  0  0  0  0  0  0  0  0  0  0
    7.2804  -14.9953   17.5008 C   0  0  0  0  0  0  0  0  0  0  0  0
    7.4603  -13.4847   17.5506 C   0  0  0  0  0  0  0  0  0  0  0  0
    8.6470  -13.3478   18.4824 C   0  0  0  0  0  0  0  0  0  0  0  0
    8.8786  -14.7363   19.0572 C   0  0  1  0  0  0  0  0  0  0  0  0
    9.0934  -14.5417   20.5359 C   0  0  0  0  0  0  0  0  0  0  0  0
   10.1587  -14.0392   20.9764 O   0  0  0  0  0  0  0  0  0  0  0  0
    7.1222  -12.2146   28.7310 O   0  0  0  0  0  0  0  0  0  0  0  0
    7.0545  -12.7158   27.4271 C   0  0  0  0  0  0  0  0  0  0  0  0
    6.5303  -13.9526   27.1977 C   0  0  0  0  0  0  0  0  0  0  0  0
    6.4881  -14.4013   25.8773 C   0  0  0  0  0  0  0  0  0  0  0  0
    6.9520  -13.6427   24.8273 C   0  0  0  0  0  0  0  0  0  0  0  0
    6.9081  -14.1400   23.4620 C   0  0  0  0  0  0  0  0  0  0  0  0
    8.2607  -14.5646   22.9003 C   0  0  2  0  0  0  0  0  0  0  0  0
    8.1144  -14.9124   21.4842 N   0  0  0  0  0  0  0  0  0  0  0  0
    8.8454  -15.6679   23.6714 C   0  0  0  0  0  0  0  0  0  0  0  0
    8.3894  -16.8255   23.5145 O   0  0  0  0  0  0  0  0  0  0  0  0
    7.4745  -12.3998   25.0950 C   0  0  0  0  0  0  0  0  0  0  0  0
    7.5222  -11.9399   26.4101 C   0  0  0  0  0  0  0  0  0  0  0  0
   13.2497  -15.5902   23.3253 N   0  0  0  0  0  0  0  0  0  0  0  0
   12.5500  -16.7124   23.9055 C   0  0  0  0  0  0  0  0  0  0  0  0
   12.4454  -17.7574   23.2386 O   0  0  0  0  0  0  0  0  0  0  0  0
   11.9816  -16.6070   25.2511 C   0  0  0  0  0  0  0  0  0  0  0  0
   10.4929  -16.6973   25.2304 C   0  0  2  0  0  0  0  0  0  0  0  0
    9.9088  -15.5113   24.5951 N   0  0  0  0  0  0  0  0  0  0  0  0
    9.9627  -16.8185   26.6005 C   0  0  0  0  0  0  0  0  0  0  0  0
    9.2170  -15.8624   27.0160 O   0  0  0  0  0  0  0  0  0  0  0  0
   10.1718  -17.8351   27.4884 O   0  0  0  0  0  0  0  0  0  0  0  0
  1  5  1  0
  2  1  1  0
  3  2  1  0
  3  4  1  0
  4  5  1  0
  5  6  1  1
  6 15  1  0
  6  7  2  0
  9  8  1  0
 10  9  2  0
 11 10  1  0
 12 18  1  0
 12 11  2  0
 14 13  1  1
 13 12  1  0
 14 16  1  0
 15 14  1  0
 16 17  2  0
 18 19  2  0
 19  9  1  0
 20 21  1  0
 21 23  1  0
 22 21  2  0
 24 23  1  1
 24 26  1  0
 25 16  1  0
 25 24  1  0
 26 28  1  0
 27 26  2  0
M  END
$$$$
