PYN.pdb
     RDKit          3D

 28 29  0  0  1  0  0  0  0  0999 V2000
    7.5282  -15.3345   18.6034 N   0  0  0  0  0  0  0  0  0  0  0  0
    7.1948  -14.8733   17.2869 C   0  0  0  0  0  0  0  0  0  0  0  0
    7.4708  -13.3768   17.3198 C   0  0  0  0  0  0  0  0  0  0  0  0
    8.6600  -13.3049   18.2557 C   0  0  0  0  0  0  0  0  0  0  0  0
    8.8000  -14.6985   18.8477 C   0  0  1  0  0  0  0  0  0  0  0  0
    9.0210  -14.5003   20.3250 C   0  0  0  0  0  0  0  0  0  0  0  0
   10.1366  -14.1282   20.7703 O   0  0  0  0  0  0  0  0  0  0  0  0
    7.3116  -12.5893   28.7400 O   0  0  0  0  0  0  0  0  0  0  0  0
    7.2007  -12.9513   27.3936 C   0  0  0  0  0  0  0  0  0  0  0  0
    6.9237  -14.2417   27.0544 C   0  0  0  0  0  0  0  0  0  0  0  0
    6.8246  -14.5454   25.6963 C   0  0  0  0  0  0  0  0  0  0  0  0
    6.9958  -13.5956   24.7156 C   0  0  0  0  0  0  0  0  0  0  0  0
    6.9000  -13.9420   23.3070 C   0  0  0  0  0  0  0  0  0  0  0  0
    8.1982  -14.4543   22.6926 C   0  0  2  0  0  0  0  0  0  0  0  0
    7.9917  -14.7221   21.2667 N   0  0  0  0  0  0  0  0  0  0  0  0
    8.7016  -15.6383   23.3987 C   0  0  0  0  0  0  0  0  0  0  0  0
    8.1497  -16.7458   23.1949 O   0  0  0  0  0  0  0  0  0  0  0  0
    7.2742  -12.3037   25.0936 C   0  0  0  0  0  0  0  0  0  0  0  0
    7.3758  -11.9874   26.4474 C   0  0  0  0  0  0  0  0  0  0  0  0
   13.6361  -18.1318   25.7542 N   0  0  0  0  0  0  0  0  0  0  0  0
   12.4715  -18.1509   24.9005 C   0  0  0  0  0  0  0  0  0  0  0  0
   12.0149  -19.2512   24.5418 O   0  0  0  0  0  0  0  0  0  0  0  0
   11.8527  -16.8937   24.4748 C   0  0  0  0  0  0  0  0  0  0  0  0
   10.3867  -16.8787   24.7499 C   0  0  2  0  0  0  0  0  0  0  0  0
    9.7878  -15.6146   24.3087 N   0  0  0  0  0  0  0  0  0  0  0  0
   10.1287  -17.0555   26.1904 C   0  0  0  0  0  0  0  0  0  0  0  0
    9.8591  -15.9972   26.8612 O   0  0  0  0  0  0  0  0  0  0  0  0
   10.1424  -18.2208   26.9030 O   0  0  0  0  0  0  0  0  0  0  0  0
  1  5  1  0
  2  1  1  0
  3  2  1  0
  3  4  1  0
  4  5  1  0
  5  6  1  1
  6 15  1  0
  6  7  2  0
  9  8  1  0
 10  9  2  0
 11 10  1  0
 12 18  1  0
 12 11  2  0
 14 13  1  1
 13 12  1  0
 14 16  1  0
 15 14  1  0
 16 17  2  0
 18 19  2  0
 19  9  1  0
 20 21  1  0
 21 23  1  0
 22 21  2  0
 24 23  1  1
 24 26  1  0
 25 16  1  0
 25 24  1  0
 26 28  1  0
 27 26  2  0
M  END
$$$$
