RMV.pdb
     RDKit          3D

 27 26  0  0  1  0  0  0  0  0999 V2000
    7.3165  -13.2202   16.7159 N   0  0  0  0  0  0  0  0  0  0  0  0
    7.6037  -14.4659   16.1121 C   0  0  0  0  0  0  0  0  0  0  0  0
    7.6565  -14.6477   14.8472 N   0  0  0  0  0  0  0  0  0  0  0  0
    7.8457  -15.5779   16.9560 N   0  0  0  0  0  0  0  0  0  0  0  0
    7.8897  -15.3878   18.3808 C   0  0  0  0  0  0  0  0  0  0  0  0
    8.2044  -16.7590   19.0057 C   0  0  0  0  0  0  0  0  0  0  0  0
    8.4258  -16.6053   20.4870 C   0  0  0  0  0  0  0  0  0  0  0  0
    9.1033  -15.3852   20.9153 C   0  0  2  0  0  0  0  0  0  0  0  0
   10.5230  -15.3778   20.4700 N   0  0  0  0  0  0  0  0  0  0  0  0
    9.1233  -14.9939   22.3110 C   0  0  0  0  0  0  0  0  0  0  0  0
   10.2826  -15.0394   22.8715 O   0  0  0  0  0  0  0  0  0  0  0  0
    7.8681  -15.5462   14.3728 C   0  0  0  0  0  0  0  0  0  0  0  0
    6.1083  -11.1292   28.4509 S   0  0  0  0  0  0  0  0  0  0  0  0
    5.7762  -11.9710   26.8855 C   0  0  0  0  0  0  0  0  0  0  0  0
    7.2685  -12.8310   26.3361 C   0  0  0  0  0  0  0  0  0  0  0  0
    7.0233  -13.4257   24.9659 C   0  0  2  0  0  0  0  0  0  0  0  0
    8.3147  -14.0484   24.5027 N   0  0  0  0  0  0  0  0  0  0  0  0
    8.0869  -14.5786   23.1518 C   0  0  0  0  0  0  0  0  0  0  0  0
    8.7247  -15.2002   25.3474 O   0  0  0  0  0  0  0  0  0  0  0  0
    8.2102  -16.3471   25.2247 C   0  0  0  0  0  0  0  0  0  0  0  0
   11.1424  -14.8496   28.9371 C   0  0  1  0  0  0  0  0  0  0  0  0
   11.4186  -15.8981   27.9091 C   0  0  0  0  0  0  0  0  0  0  0  0
   12.6032  -15.5614   27.0415 C   0  0  1  0  0  0  0  0  0  0  0  0
   10.1822  -16.2125   27.0892 N   0  0  0  0  0  0  0  0  0  0  0  0
    9.7333  -15.0601   26.3501 C   0  0  0  0  0  0  0  0  0  0  0  0
    9.1036  -16.6093   28.0272 O   0  0  0  0  0  0  0  0  0  0  0  0
    9.1686  -17.8005   28.7187 O   0  0  0  0  0  0  0  0  0  0  0  0
  2  4  1  0
  2  1  1  0
  3  2  2  0
  5  4  1  0
  6  5  1  0
  7  6  1  0
  8  7  1  0
  8  9  1  1
 10 17  1  0
 10  8  1  0
 11 10  2  0
 13 12  1  0
 14 13  1  0
 16 15  1  6
 15 14  1  0
 16 17  1  0
 18 19  2  0
 18 16  1  0
 21 20  1  1
 21 23  1  0
 22 21  1  0
 23 25  1  0
 23 24  1  6
 24 18  1  0
 25 26  1  0
 27 25  2  0
M  END
$$$$
