RMV.pdb
     RDKit          3D

 27 26  0  0  1  0  0  0  0  0999 V2000
    8.4670  -12.8140   14.6585 N   0  0  0  0  0  0  0  0  0  0  0  0
    8.9240  -14.0047   15.2685 C   0  0  0  0  0  0  0  0  0  0  0  0
    9.2947  -15.0407   14.6166 N   0  0  0  0  0  0  0  0  0  0  0  0
    8.9733  -14.0547   16.6836 N   0  0  0  0  0  0  0  0  0  0  0  0
    9.3469  -15.2811   17.3351 C   0  0  0  0  0  0  0  0  0  0  0  0
    8.1780  -15.6720   18.2573 C   0  0  0  0  0  0  0  0  0  0  0  0
    8.3181  -14.9713   19.5826 C   0  0  0  0  0  0  0  0  0  0  0  0
    8.8011  -15.7840   20.6948 C   0  0  2  0  0  0  0  0  0  0  0  0
    7.9952  -17.0266   20.8382 N   0  0  0  0  0  0  0  0  0  0  0  0
    8.9157  -15.2293   22.0292 C   0  0  0  0  0  0  0  0  0  0  0  0
    9.8284  -14.3304   22.1673 O   0  0  0  0  0  0  0  0  0  0  0  0
    9.6234  -15.9328   15.0329 C   0  0  0  0  0  0  0  0  0  0  0  0
    5.4456  -11.1503   27.1141 S   0  0  0  0  0  0  0  0  0  0  0  0
    5.4513  -12.8271   26.4375 C   0  0  0  0  0  0  0  0  0  0  0  0
    6.9937  -13.1076   25.5371 C   0  0  0  0  0  0  0  0  0  0  0  0
    7.0304  -14.5398   25.0485 C   0  0  2  0  0  0  0  0  0  0  0  0
    8.3934  -14.7826   24.4539 N   0  0  0  0  0  0  0  0  0  0  0  0
    8.1993  -15.5144   23.1950 C   0  0  0  0  0  0  0  0  0  0  0  0
    9.2448  -15.6415   25.3174 O   0  0  0  0  0  0  0  0  0  0  0  0
    9.5782  -16.8142   24.9877 C   0  0  0  0  0  0  0  0  0  0  0  0
    9.7657  -15.1313   29.5896 C   0  0  1  0  0  0  0  0  0  0  0  0
   10.9422  -15.3417   28.6929 C   0  0  0  0  0  0  0  0  0  0  0  0
   11.7136  -14.0724   28.4414 C   0  0  1  0  0  0  0  0  0  0  0  0
   10.5420  -16.0309   27.4028 N   0  0  0  0  0  0  0  0  0  0  0  0
    9.7313  -15.1728   26.5768 C   0  0  0  0  0  0  0  0  0  0  0  0
    9.7379  -17.2264   27.7566 O   0  0  0  0  0  0  0  0  0  0  0  0
   10.3427  -18.3737   28.2252 O   0  0  0  0  0  0  0  0  0  0  0  0
  2  4  1  0
  2  1  1  0
  3  2  2  0
  5  4  1  0
  6  5  1  0
  7  6  1  0
  8  7  1  0
  8  9  1  1
 10 17  1  0
 10  8  1  0
 11 10  2  0
 13 12  1  0
 14 13  1  0
 16 15  1  6
 15 14  1  0
 16 17  1  0
 18 19  2  0
 18 16  1  0
 21 20  1  1
 21 23  1  0
 22 21  1  0
 23 25  1  0
 23 24  1  6
 24 18  1  0
 25 26  1  0
 27 25  2  0
M  END
$$$$
