RMV.pdb
     RDKit          3D

 27 26  0  0  1  0  0  0  0  0999 V2000
   13.7084  -19.3325   18.5178 N   0  0  0  0  0  0  0  0  0  0  0  0
   12.7509  -19.7840   17.5806 C   0  0  0  0  0  0  0  0  0  0  0  0
   12.9045  -20.8237   16.8518 N   0  0  0  0  0  0  0  0  0  0  0  0
   11.5525  -19.0417   17.4388 N   0  0  0  0  0  0  0  0  0  0  0  0
   11.3338  -17.8872   18.2679 C   0  0  0  0  0  0  0  0  0  0  0  0
   11.0276  -18.4053   19.6848 C   0  0  0  0  0  0  0  0  0  0  0  0
   10.9663  -17.2495   20.6478 C   0  0  0  0  0  0  0  0  0  0  0  0
    9.6339  -16.8412   21.0824 C   0  0  2  0  0  0  0  0  0  0  0  0
    8.9043  -16.1461   19.9877 N   0  0  0  0  0  0  0  0  0  0  0  0
    9.4536  -16.0200   22.2633 C   0  0  0  0  0  0  0  0  0  0  0  0
   10.1490  -14.9354   22.2822 O   0  0  0  0  0  0  0  0  0  0  0  0
   12.2075  -21.2027   16.1826 C   0  0  0  0  0  0  0  0  0  0  0  0
    6.0571  -11.5584   27.0180 S   0  0  0  0  0  0  0  0  0  0  0  0
    6.0488  -12.7353   25.6453 C   0  0  0  0  0  0  0  0  0  0  0  0
    7.0782  -14.1601   26.0678 C   0  0  0  0  0  0  0  0  0  0  0  0
    7.1400  -15.0978   24.8812 C   0  0  1  0  0  0  0  0  0  0  0  0
    8.5901  -15.2619   24.5063 N   0  0  0  0  0  0  0  0  0  0  0  0
    8.6500  -16.2150   23.3902 C   0  0  0  0  0  0  0  0  0  0  0  0
    9.3986  -15.8463   25.6077 O   0  0  0  0  0  0  0  0  0  0  0  0
    9.8184  -17.0371   25.5814 C   0  0  0  0  0  0  0  0  0  0  0  0
    9.5424  -14.6244   29.7356 C   0  0  1  0  0  0  0  0  0  0  0  0
   10.7991  -14.6802   28.9294 C   0  0  0  0  0  0  0  0  0  0  0  0
   11.2895  -13.3143   28.5253 C   0  0  1  0  0  0  0  0  0  0  0  0
   10.6561  -15.6097   27.7398 N   0  0  0  0  0  0  0  0  0  0  0  0
    9.7422  -15.0766   26.7618 C   0  0  0  0  0  0  0  0  0  0  0  0
   10.1072  -16.8970   28.2322 O   0  0  0  0  0  0  0  0  0  0  0  0
   10.9231  -17.8306   28.8356 O   0  0  0  0  0  0  0  0  0  0  0  0
  2  4  1  0
  2  1  1  0
  3  2  2  0
  5  4  1  0
  6  5  1  0
  7  6  1  0
  8  7  1  0
  8  9  1  6
 10 17  1  0
 10  8  1  0
 11 10  2  0
 13 12  1  0
 14 13  1  0
 16 15  1  6
 15 14  1  0
 16 17  1  0
 18 19  2  0
 18 16  1  0
 21 20  1  1
 21 23  1  0
 22 21  1  0
 23 25  1  0
 23 24  1  6
 24 18  1  0
 25 26  1  0
 27 25  2  0
M  END
$$$$
