RMV.pdb
     RDKit          3D

 27 26  0  0  1  0  0  0  0  0999 V2000
    7.1863  -15.3231   15.2695 N   0  0  0  0  0  0  0  0  0  0  0  0
    8.2178  -14.5308   15.8238 C   0  0  0  0  0  0  0  0  0  0  0  0
    9.2912  -14.2231   15.2002 N   0  0  0  0  0  0  0  0  0  0  0  0
    8.0545  -14.0508   17.1467 N   0  0  0  0  0  0  0  0  0  0  0  0
    9.0948  -13.2580   17.7446 C   0  0  0  0  0  0  0  0  0  0  0  0
    9.1547  -13.6471   19.2328 C   0  0  0  0  0  0  0  0  0  0  0  0
    8.6627  -15.0589   19.4105 C   0  0  0  0  0  0  0  0  0  0  0  0
    9.1466  -15.7674   20.5916 C   0  0  2  0  0  0  0  0  0  0  0  0
    8.4167  -17.0500   20.7818 N   0  0  0  0  0  0  0  0  0  0  0  0
    9.1652  -15.1251   21.8911 C   0  0  0  0  0  0  0  0  0  0  0  0
    9.9891  -14.1403   21.9986 O   0  0  0  0  0  0  0  0  0  0  0  0
   10.0877  -13.6867   15.5938 C   0  0  0  0  0  0  0  0  0  0  0  0
    5.7210  -11.5539   27.7001 S   0  0  0  0  0  0  0  0  0  0  0  0
    5.5936  -12.7696   26.3678 C   0  0  0  0  0  0  0  0  0  0  0  0
    7.2486  -13.3307   25.9046 C   0  0  0  0  0  0  0  0  0  0  0  0
    7.1424  -14.2666   24.7197 C   0  0  2  0  0  0  0  0  0  0  0  0
    8.5434  -14.5993   24.2760 N   0  0  0  0  0  0  0  0  0  0  0  0
    8.4370  -15.4032   23.0512 C   0  0  0  0  0  0  0  0  0  0  0  0
    9.2707  -15.4322   25.2689 O   0  0  0  0  0  0  0  0  0  0  0  0
    9.4794  -16.6656   25.0949 C   0  0  0  0  0  0  0  0  0  0  0  0
   10.6601  -13.6843   28.8797 C   0  0  1  0  0  0  0  0  0  0  0  0
   10.3876  -15.1525   28.8297 C   0  0  0  0  0  0  0  0  0  0  0  0
   11.2351  -15.9327   29.8005 C   0  0  2  0  0  0  0  0  0  0  0  0
   10.4973  -15.6908   27.4163 N   0  0  0  0  0  0  0  0  0  0  0  0
    9.7735  -14.8674   26.4815 C   0  0  0  0  0  0  0  0  0  0  0  0
    9.8970  -17.0474   27.3987 O   0  0  0  0  0  0  0  0  0  0  0  0
    8.5290  -17.2165   27.3634 O   0  0  0  0  0  0  0  0  0  0  0  0
  2  4  1  0
  2  1  1  0
  3  2  2  0
  5  4  1  0
  6  5  1  0
  7  6  1  0
  8  7  1  0
  8  9  1  1
 10 17  1  0
 10  8  1  0
 11 10  2  0
 13 12  1  0
 14 13  1  0
 16 15  1  6
 15 14  1  0
 16 17  1  0
 18 19  2  0
 18 16  1  0
 21 20  1  1
 21 23  1  0
 22 21  1  0
 23 25  1  0
 23 24  1  6
 24 18  1  0
 25 26  1  0
 27 25  2  0
M  END
$$$$
