RMV.pdb
     RDKit          3D

 27 26  0  0  1  0  0  0  0  0999 V2000
    8.4170  -13.1706   15.0427 N   0  0  0  0  0  0  0  0  0  0  0  0
    8.4964  -14.2743   15.9227 C   0  0  0  0  0  0  0  0  0  0  0  0
    8.8743  -15.4428   15.5655 N   0  0  0  0  0  0  0  0  0  0  0  0
    8.1353  -14.0759   17.2783 N   0  0  0  0  0  0  0  0  0  0  0  0
    8.0261  -15.2112   18.1542 C   0  0  0  0  0  0  0  0  0  0  0  0
    9.4398  -15.8035   18.2974 C   0  0  0  0  0  0  0  0  0  0  0  0
   10.0721  -15.3108   19.5719 C   0  0  0  0  0  0  0  0  0  0  0  0
    9.8086  -16.1008   20.7708 C   0  0  2  0  0  0  0  0  0  0  0  0
    8.5660  -16.9049   20.6186 N   0  0  0  0  0  0  0  0  0  0  0  0
    9.7167  -15.4714   22.0735 C   0  0  0  0  0  0  0  0  0  0  0  0
   10.7140  -14.7168   22.3838 O   0  0  0  0  0  0  0  0  0  0  0  0
    9.0163  -16.2532   16.1981 C   0  0  0  0  0  0  0  0  0  0  0  0
    5.6229  -11.5573   27.3094 S   0  0  0  0  0  0  0  0  0  0  0  0
    5.6054  -12.8967   26.0949 C   0  0  0  0  0  0  0  0  0  0  0  0
    7.3020  -13.4119   25.7424 C   0  0  0  0  0  0  0  0  0  0  0  0
    7.2937  -14.3959   24.5922 C   0  0  2  0  0  0  0  0  0  0  0  0
    8.7270  -14.7303   24.2694 N   0  0  0  0  0  0  0  0  0  0  0  0
    8.7227  -15.5532   23.0526 C   0  0  0  0  0  0  0  0  0  0  0  0
    9.3727  -15.5454   25.3311 O   0  0  0  0  0  0  0  0  0  0  0  0
    9.6228  -16.7745   25.1832 C   0  0  0  0  0  0  0  0  0  0  0  0
    9.4470  -14.8260   29.6115 C   0  0  1  0  0  0  0  0  0  0  0  0
   10.7118  -14.9664   28.8284 C   0  0  0  0  0  0  0  0  0  0  0  0
   11.3898  -13.6442   28.5805 C   0  0  1  0  0  0  0  0  0  0  0  0
   10.4880  -15.7421   27.5447 N   0  0  0  0  0  0  0  0  0  0  0  0
    9.7449  -14.9673   26.5839 C   0  0  0  0  0  0  0  0  0  0  0  0
    9.6950  -16.9512   27.8766 O   0  0  0  0  0  0  0  0  0  0  0  0
   10.3028  -18.0798   28.3846 O   0  0  0  0  0  0  0  0  0  0  0  0
  2  4  1  0
  2  1  1  0
  3  2  2  0
  5  4  1  0
  6  5  1  0
  7  6  1  0
  8  7  1  0
  8  9  1  6
 10 17  1  0
 10  8  1  0
 11 10  2  0
 13 12  1  0
 14 13  1  0
 16 15  1  6
 15 14  1  0
 16 17  1  0
 18 19  2  0
 18 16  1  0
 21 20  1  1
 21 23  1  0
 22 21  1  0
 23 25  1  0
 23 24  1  6
 24 18  1  0
 25 26  1  0
 27 25  2  0
M  END
$$$$
