RMV.pdb
     RDKit          3D

 27 26  0  0  1  0  0  0  0  0999 V2000
    7.0263  -15.9850   15.4870 N   0  0  0  0  0  0  0  0  0  0  0  0
    8.2589  -16.6773   15.4987 C   0  0  0  0  0  0  0  0  0  0  0  0
    9.0067  -16.8155   14.4703 N   0  0  0  0  0  0  0  0  0  0  0  0
    8.6909  -17.2528   16.7192 N   0  0  0  0  0  0  0  0  0  0  0  0
    7.8543  -17.1501   17.8844 C   0  0  0  0  0  0  0  0  0  0  0  0
    7.5049  -15.6606   18.0544 C   0  0  0  0  0  0  0  0  0  0  0  0
    8.4466  -15.0258   19.0429 C   0  0  0  0  0  0  0  0  0  0  0  0
    7.8839  -13.9787   19.8901 C   0  0  2  0  0  0  0  0  0  0  0  0
    8.1184  -12.6321   19.3024 N   0  0  0  0  0  0  0  0  0  0  0  0
    8.2532  -13.8713   21.2878 C   0  0  0  0  0  0  0  0  0  0  0  0
    9.4485  -13.4406   21.5024 O   0  0  0  0  0  0  0  0  0  0  0  0
    9.9365  -17.2765   14.4551 C   0  0  0  0  0  0  0  0  0  0  0  0
    5.7822  -11.1788   26.2580 S   0  0  0  0  0  0  0  0  0  0  0  0
    6.6165  -12.4884   27.1845 C   0  0  0  0  0  0  0  0  0  0  0  0
    7.7274  -13.3923   26.0813 C   0  0  0  0  0  0  0  0  0  0  0  0
    7.1335  -13.4168   24.6892 C   0  0  1  0  0  0  0  0  0  0  0  0
    8.1103  -14.1300   23.7906 N   0  0  0  0  0  0  0  0  0  0  0  0
    7.5243  -14.1638   22.4440 C   0  0  0  0  0  0  0  0  0  0  0  0
    8.3263  -15.5435   24.1952 O   0  0  0  0  0  0  0  0  0  0  0  0
    7.4424  -16.4332   24.0465 C   0  0  0  0  0  0  0  0  0  0  0  0
   12.2423  -17.1141   24.8551 C   0  0  1  0  0  0  0  0  0  0  0  0
   11.0351  -17.8822   24.4250 C   0  0  0  0  0  0  0  0  0  0  0  0
   10.8988  -17.9561   22.9265 C   0  0  1  0  0  0  0  0  0  0  0  0
    9.7762  -17.3562   25.0869 N   0  0  0  0  0  0  0  0  0  0  0  0
    9.5608  -15.9654   24.7787 C   0  0  0  0  0  0  0  0  0  0  0  0
    9.9474  -17.4835   26.5550 O   0  0  0  0  0  0  0  0  0  0  0  0
    9.9869  -18.7224   27.1590 O   0  0  0  0  0  0  0  0  0  0  0  0
  2  4  1  0
  2  1  1  0
  3  2  2  0
  5  4  1  0
  6  5  1  0
  7  6  1  0
  8  7  1  0
  8  9  1  6
 10 17  1  0
 10  8  1  0
 11 10  2  0
 13 12  1  0
 14 13  1  0
 16 15  1  6
 15 14  1  0
 16 17  1  0
 18 19  2  0
 18 16  1  0
 21 20  1  6
 21 23  1  0
 22 21  1  0
 23 25  1  0
 23 24  1  6
 24 18  1  0
 25 26  1  0
 27 25  2  0
M  END
$$$$
