RMV.pdb
     RDKit          3D

 27 26  0  0  1  0  0  0  0  0999 V2000
    9.1010  -12.4120   17.4625 N   0  0  0  0  0  0  0  0  0  0  0  0
    8.9362  -13.4975   16.5718 C   0  0  0  0  0  0  0  0  0  0  0  0
    9.7740  -13.7968   15.6528 N   0  0  0  0  0  0  0  0  0  0  0  0
    7.7759  -14.2998   16.7030 N   0  0  0  0  0  0  0  0  0  0  0  0
    6.8714  -14.0614   17.7953 C   0  0  0  0  0  0  0  0  0  0  0  0
    7.1798  -15.1189   18.8707 C   0  0  0  0  0  0  0  0  0  0  0  0
    7.8560  -14.4670   20.0474 C   0  0  0  0  0  0  0  0  0  0  0  0
    8.5829  -15.3562   20.9485 C   0  0  2  0  0  0  0  0  0  0  0  0
    7.9788  -16.7159   20.9598 N   0  0  0  0  0  0  0  0  0  0  0  0
    8.7898  -15.0025   22.3389 C   0  0  0  0  0  0  0  0  0  0  0  0
    9.4552  -13.9157   22.5298 O   0  0  0  0  0  0  0  0  0  0  0  0
    9.6327  -14.5118   14.9139 C   0  0  0  0  0  0  0  0  0  0  0  0
    6.3664  -11.0210   26.1936 S   0  0  0  0  0  0  0  0  0  0  0  0
    6.1278  -12.7798   26.5390 C   0  0  0  0  0  0  0  0  0  0  0  0
    6.6025  -13.7480   25.0879 C   0  0  0  0  0  0  0  0  0  0  0  0
    7.2796  -15.0235   25.5414 C   0  0  2  0  0  0  0  0  0  0  0  0
    8.6169  -15.0986   24.8513 N   0  0  0  0  0  0  0  0  0  0  0  0
    8.3885  -15.6517   23.5098 C   0  0  0  0  0  0  0  0  0  0  0  0
    9.5584  -16.0217   25.5367 O   0  0  0  0  0  0  0  0  0  0  0  0
    9.3751  -17.2707   25.5745 C   0  0  0  0  0  0  0  0  0  0  0  0
   10.3635  -13.4449   28.1323 C   0  0  1  0  0  0  0  0  0  0  0  0
   10.1193  -14.8803   28.4677 C   0  0  0  0  0  0  0  0  0  0  0  0
   10.3079  -15.1731   29.9334 C   0  0  2  0  0  0  0  0  0  0  0  0
   10.9423  -15.8043   27.5911 N   0  0  0  0  0  0  0  0  0  0  0  0
   10.7295  -15.5311   26.1925 C   0  0  0  0  0  0  0  0  0  0  0  0
   10.5060  -17.1960   27.8620 O   0  0  0  0  0  0  0  0  0  0  0  0
   11.3952  -18.1379   28.3351 O   0  0  0  0  0  0  0  0  0  0  0  0
  2  4  1  0
  2  1  1  0
  3  2  2  0
  5  4  1  0
  6  5  1  0
  7  6  1  0
  8  7  1  0
  8  9  1  1
 10 17  1  0
 10  8  1  0
 11 10  2  0
 13 12  1  0
 14 13  1  0
 16 15  1  6
 15 14  1  0
 16 17  1  0
 18 19  2  0
 18 16  1  0
 21 20  1  1
 21 23  1  0
 22 21  1  0
 23 25  1  0
 23 24  1  1
 24 18  1  0
 25 26  1  0
 27 25  2  0
M  END
$$$$
