RMV.pdb
     RDKit          3D

 27 26  0  0  1  0  0  0  0  0999 V2000
    8.1386  -13.2538   16.2214 N   0  0  0  0  0  0  0  0  0  0  0  0
    8.7388  -13.1703   17.4988 C   0  0  0  0  0  0  0  0  0  0  0  0
    8.8820  -12.0772   18.1471 N   0  0  0  0  0  0  0  0  0  0  0  0
    9.2104  -14.3658   18.0952 N   0  0  0  0  0  0  0  0  0  0  0  0
    8.5541  -15.6105   17.7986 C   0  0  0  0  0  0  0  0  0  0  0  0
    8.3440  -16.3363   19.1399 C   0  0  0  0  0  0  0  0  0  0  0  0
    9.6162  -16.2988   19.9443 C   0  0  0  0  0  0  0  0  0  0  0  0
    9.5857  -16.9841   21.2329 C   0  0  2  0  0  0  0  0  0  0  0  0
    8.5563  -18.0584   21.2426 N   0  0  0  0  0  0  0  0  0  0  0  0
    9.4000  -16.2454   22.4663 C   0  0  0  0  0  0  0  0  0  0  0  0
   10.3537  -15.4305   22.7605 O   0  0  0  0  0  0  0  0  0  0  0  0
    9.2665  -11.9882   19.1070 C   0  0  0  0  0  0  0  0  0  0  0  0
    5.7965  -12.6935   24.3056 S   0  0  0  0  0  0  0  0  0  0  0  0
    6.4036  -12.8618   26.0004 C   0  0  0  0  0  0  0  0  0  0  0  0
    6.8075  -14.5937   26.3259 C   0  0  0  0  0  0  0  0  0  0  0  0
    6.8501  -15.3489   25.0148 C   0  0  1  0  0  0  0  0  0  0  0  0
    8.2833  -15.3739   24.5507 N   0  0  0  0  0  0  0  0  0  0  0  0
    8.3547  -16.2761   23.3937 C   0  0  0  0  0  0  0  0  0  0  0  0
    9.2032  -15.9274   25.5782 O   0  0  0  0  0  0  0  0  0  0  0  0
    9.6910  -17.0894   25.4950 C   0  0  0  0  0  0  0  0  0  0  0  0
   11.0036  -13.3616   28.4086 C   0  0  1  0  0  0  0  0  0  0  0  0
   10.7173  -14.7603   28.8495 C   0  0  0  0  0  0  0  0  0  0  0  0
   11.7399  -15.2811   29.8254 C   0  0  2  0  0  0  0  0  0  0  0  0
   10.5332  -15.6900   27.6658 N   0  0  0  0  0  0  0  0  0  0  0  0
    9.5825  -15.1593   26.7221 C   0  0  0  0  0  0  0  0  0  0  0  0
   10.0064  -16.9789   28.1777 O   0  0  0  0  0  0  0  0  0  0  0  0
   10.8601  -17.9706   28.6127 O   0  0  0  0  0  0  0  0  0  0  0  0
  2  4  1  0
  2  1  1  0
  3  2  2  0
  5  4  1  0
  6  5  1  0
  7  6  1  0
  8  7  1  0
  8  9  1  6
 10 17  1  0
 10  8  1  0
 11 10  2  0
 13 12  1  0
 14 13  1  0
 16 15  1  6
 15 14  1  0
 16 17  1  0
 18 19  2  0
 18 16  1  0
 21 20  1  1
 21 23  1  0
 22 21  1  0
 23 25  1  0
 23 24  1  6
 24 18  1  0
 25 26  1  0
 27 25  2  0
M  END
$$$$
