RMV.pdb
     RDKit          3D

 27 26  0  0  1  0  0  0  0  0999 V2000
   10.8319  -17.7268   15.3866 N   0  0  0  0  0  0  0  0  0  0  0  0
    9.6404  -18.4619   15.5838 C   0  0  0  0  0  0  0  0  0  0  0  0
    8.8983  -18.8824   14.6308 N   0  0  0  0  0  0  0  0  0  0  0  0
    9.2441  -18.7485   16.9135 N   0  0  0  0  0  0  0  0  0  0  0  0
    9.9893  -18.1899   18.0093 C   0  0  0  0  0  0  0  0  0  0  0  0
    9.0548  -17.1993   18.7270 C   0  0  0  0  0  0  0  0  0  0  0  0
    9.8186  -16.4585   19.7922 C   0  0  0  0  0  0  0  0  0  0  0  0
    9.7148  -16.9889   21.1482 C   0  0  2  0  0  0  0  0  0  0  0  0
    8.5992  -17.9676   21.2553 N   0  0  0  0  0  0  0  0  0  0  0  0
    9.5757  -16.1027   22.2870 C   0  0  0  0  0  0  0  0  0  0  0  0
   10.4748  -15.1838   22.3733 O   0  0  0  0  0  0  0  0  0  0  0  0
    9.1676  -18.9309   13.6297 C   0  0  0  0  0  0  0  0  0  0  0  0
    6.7659  -11.3207   26.2438 S   0  0  0  0  0  0  0  0  0  0  0  0
    5.8417  -12.8020   25.7735 C   0  0  0  0  0  0  0  0  0  0  0  0
    6.6949  -13.6383   24.4167 C   0  0  0  0  0  0  0  0  0  0  0  0
    7.2305  -14.9655   24.9095 C   0  0  2  0  0  0  0  0  0  0  0  0
    8.6432  -15.1019   24.4036 N   0  0  0  0  0  0  0  0  0  0  0  0
    8.6260  -16.0850   23.3123 C   0  0  0  0  0  0  0  0  0  0  0  0
    9.5682  -15.6324   25.4386 O   0  0  0  0  0  0  0  0  0  0  0  0
   10.1085  -16.7701   25.3448 C   0  0  0  0  0  0  0  0  0  0  0  0
   11.9497  -14.9800   29.7528 C   0  0  1  0  0  0  0  0  0  0  0  0
   11.0610  -14.4054   28.6981 C   0  0  0  0  0  0  0  0  0  0  0  0
    9.7916  -13.8238   29.2635 C   0  0  2  0  0  0  0  0  0  0  0  0
   10.7865  -15.4088   27.5947 N   0  0  0  0  0  0  0  0  0  0  0  0
    9.8924  -14.8689   26.6023 C   0  0  0  0  0  0  0  0  0  0  0  0
   10.1359  -16.5925   28.2083 O   0  0  0  0  0  0  0  0  0  0  0  0
   10.8847  -17.6618   28.6526 O   0  0  0  0  0  0  0  0  0  0  0  0
  2  4  1  0
  2  1  1  0
  3  2  2  0
  5  4  1  0
  6  5  1  0
  7  6  1  0
  8  7  1  0
  8  9  1  6
 10 17  1  0
 10  8  1  0
 11 10  2  0
 13 12  1  0
 14 13  1  0
 16 15  1  6
 15 14  1  0
 16 17  1  0
 18 19  2  0
 18 16  1  0
 21 20  1  1
 21 23  1  0
 22 21  1  0
 23 25  1  0
 23 24  1  1
 24 18  1  0
 25 26  1  0
 27 25  2  0
M  END
$$$$
