RMV.pdb
     RDKit          3D

 27 26  0  0  1  0  0  0  0  0999 V2000
    8.6389  -13.9848   17.9177 N   0  0  0  0  0  0  0  0  0  0  0  0
    8.4519  -13.4915   19.2293 C   0  0  0  0  0  0  0  0  0  0  0  0
    7.5466  -12.6464   19.5489 N   0  0  0  0  0  0  0  0  0  0  0  0
    9.3177  -13.9585   20.2490 N   0  0  0  0  0  0  0  0  0  0  0  0
   10.3088  -14.9520   19.9348 C   0  0  0  0  0  0  0  0  0  0  0  0
    9.5721  -16.2990   19.8222 C   0  0  0  0  0  0  0  0  0  0  0  0
    9.9653  -17.1922   20.9687 C   0  0  0  0  0  0  0  0  0  0  0  0
    9.2928  -16.9441   22.2404 C   0  0  2  0  0  0  0  0  0  0  0  0
    8.7814  -15.5487   22.3113 N   0  0  0  0  0  0  0  0  0  0  0  0
    9.9683  -17.1836   23.5005 C   0  0  0  0  0  0  0  0  0  0  0  0
   10.0222  -18.4192   23.8619 O   0  0  0  0  0  0  0  0  0  0  0  0
    7.3967  -12.2483   20.4956 C   0  0  0  0  0  0  0  0  0  0  0  0
   11.8456  -12.8409   28.3329 S   0  0  0  0  0  0  0  0  0  0  0  0
   12.5375  -14.4618   28.7370 C   0  0  0  0  0  0  0  0  0  0  0  0
   11.5524  -15.7521   27.9413 C   0  0  0  0  0  0  0  0  0  0  0  0
   11.5129  -15.4981   26.4496 C   0  0  2  0  0  0  0  0  0  0  0  0
   10.5196  -16.4599   25.8507 N   0  0  0  0  0  0  0  0  0  0  0  0
   10.5684  -16.2903   24.3924 C   0  0  0  0  0  0  0  0  0  0  0  0
    9.1234  -16.1659   26.2660 O   0  0  0  0  0  0  0  0  0  0  0  0
    8.6246  -16.6197   27.3339 C   0  0  0  0  0  0  0  0  0  0  0  0
    7.6842  -12.5582   25.3360 C   0  0  1  0  0  0  0  0  0  0  0  0
    6.5905  -13.5761   25.3240 C   0  0  0  0  0  0  0  0  0  0  0  0
    5.2988  -13.0456   25.8892 C   0  0  2  0  0  0  0  0  0  0  0  0
    7.0217  -14.8641   25.9983 N   0  0  0  0  0  0  0  0  0  0  0  0
    8.2707  -15.3452   25.4648 C   0  0  0  0  0  0  0  0  0  0  0  0
    5.9806  -15.8870   25.7326 O   0  0  0  0  0  0  0  0  0  0  0  0
    4.8199  -15.9262   26.4759 O   0  0  0  0  0  0  0  0  0  0  0  0
  2  4  1  0
  2  1  1  0
  3  2  2  0
  5  4  1  0
  6  5  1  0
  7  6  1  0
  8  7  1  0
  8  9  1  6
 10 17  1  0
 10  8  1  0
 11 10  2  0
 13 12  1  0
 14 13  1  0
 16 15  1  6
 15 14  1  0
 16 17  1  0
 18 19  2  0
 18 16  1  0
 21 20  1  6
 21 23  1  0
 22 21  1  0
 23 25  1  0
 23 24  1  1
 24 18  1  0
 25 26  1  0
 27 25  2  0
M  END
$$$$
