RMV.pdb
     RDKit          3D

 27 26  0  0  1  0  0  0  0  0999 V2000
    9.5307  -20.0985   17.8494 N   0  0  0  0  0  0  0  0  0  0  0  0
   10.5413  -19.7604   16.9203 C   0  0  0  0  0  0  0  0  0  0  0  0
   10.9125  -20.5242   15.9640 N   0  0  0  0  0  0  0  0  0  0  0  0
   11.1813  -18.5037   17.0565 N   0  0  0  0  0  0  0  0  0  0  0  0
   10.6120  -17.5111   17.9275 C   0  0  0  0  0  0  0  0  0  0  0  0
   11.4289  -17.5388   19.2320 C   0  0  0  0  0  0  0  0  0  0  0  0
   10.9172  -16.4836   20.1762 C   0  0  0  0  0  0  0  0  0  0  0  0
   10.1146  -16.9570   21.2999 C   0  0  2  0  0  0  0  0  0  0  0  0
    8.7716  -17.4077   20.8450 N   0  0  0  0  0  0  0  0  0  0  0  0
    9.8798  -16.1145   22.4560 C   0  0  0  0  0  0  0  0  0  0  0  0
   10.7486  -15.1795   22.6324 O   0  0  0  0  0  0  0  0  0  0  0  0
   11.6149  -20.2874   15.2374 C   0  0  0  0  0  0  0  0  0  0  0  0
    5.8935  -11.9384   24.3035 S   0  0  0  0  0  0  0  0  0  0  0  0
    5.7365  -12.9703   25.7800 C   0  0  0  0  0  0  0  0  0  0  0  0
    7.2172  -13.9916   25.9607 C   0  0  0  0  0  0  0  0  0  0  0  0
    7.3142  -14.9387   24.7840 C   0  0  1  0  0  0  0  0  0  0  0  0
    8.7762  -15.1977   24.5279 N   0  0  0  0  0  0  0  0  0  0  0  0
    8.8649  -16.1537   23.4161 C   0  0  0  0  0  0  0  0  0  0  0  0
    9.4522  -15.8327   25.6890 O   0  0  0  0  0  0  0  0  0  0  0  0
    9.7854  -17.0509   25.6955 C   0  0  0  0  0  0  0  0  0  0  0  0
    9.5639  -14.4243   29.8152 C   0  0  1  0  0  0  0  0  0  0  0  0
   10.8114  -14.6908   29.0373 C   0  0  0  0  0  0  0  0  0  0  0  0
   11.4750  -13.4272   28.5553 C   0  0  1  0  0  0  0  0  0  0  0  0
   10.5636  -15.6715   27.9075 N   0  0  0  0  0  0  0  0  0  0  0  0
    9.7600  -15.0834   26.8663 C   0  0  0  0  0  0  0  0  0  0  0  0
    9.8228  -16.8296   28.4651 O   0  0  0  0  0  0  0  0  0  0  0  0
   10.4717  -17.7973   29.2025 O   0  0  0  0  0  0  0  0  0  0  0  0
  2  4  1  0
  2  1  1  0
  3  2  2  0
  5  4  1  0
  6  5  1  0
  7  6  1  0
  8  7  1  0
  8  9  1  6
 10 17  1  0
 10  8  1  0
 11 10  2  0
 13 12  1  0
 14 13  1  0
 16 15  1  6
 15 14  1  0
 16 17  1  0
 18 19  2  0
 18 16  1  0
 21 20  1  1
 21 23  1  0
 22 21  1  0
 23 25  1  0
 23 24  1  6
 24 18  1  0
 25 26  1  0
 27 25  2  0
M  END
$$$$
