RMV.pdb
     RDKit          3D

 27 26  0  0  1  0  0  0  0  0999 V2000
    8.3365  -13.6391   17.1739 N   0  0  0  0  0  0  0  0  0  0  0  0
    8.0386  -13.1451   18.4647 C   0  0  0  0  0  0  0  0  0  0  0  0
    8.2876  -11.9491   18.8433 N   0  0  0  0  0  0  0  0  0  0  0  0
    7.4305  -14.0254   19.3935 N   0  0  0  0  0  0  0  0  0  0  0  0
    7.1006  -15.3647   18.9866 C   0  0  0  0  0  0  0  0  0  0  0  0
    8.3912  -16.1966   19.0973 C   0  0  0  0  0  0  0  0  0  0  0  0
    8.3593  -17.0215   20.3564 C   0  0  0  0  0  0  0  0  0  0  0  0
    9.5494  -16.9592   21.1995 C   0  0  2  0  0  0  0  0  0  0  0  0
    9.9545  -18.3171   21.6533 N   0  0  0  0  0  0  0  0  0  0  0  0
    9.5836  -16.1196   22.3807 C   0  0  0  0  0  0  0  0  0  0  0  0
   10.5408  -15.2574   22.4069 O   0  0  0  0  0  0  0  0  0  0  0  0
    8.1206  -11.5676   19.7939 C   0  0  0  0  0  0  0  0  0  0  0  0
    6.2110  -11.4806   27.5278 S   0  0  0  0  0  0  0  0  0  0  0  0
    6.0309  -12.8181   26.3245 C   0  0  0  0  0  0  0  0  0  0  0  0
    7.6542  -13.5296   25.9678 C   0  0  0  0  0  0  0  0  0  0  0  0
    7.5104  -14.5774   24.8849 C   0  0  2  0  0  0  0  0  0  0  0  0
    8.8868  -15.1106   24.5824 N   0  0  0  0  0  0  0  0  0  0  0  0
    8.7485  -16.0953   23.5012 C   0  0  0  0  0  0  0  0  0  0  0  0
    9.4837  -15.8296   25.7378 O   0  0  0  0  0  0  0  0  0  0  0  0
    9.1316  -16.9979   26.0637 C   0  0  0  0  0  0  0  0  0  0  0  0
    9.7867  -15.2716   29.7776 C   0  0  1  0  0  0  0  0  0  0  0  0
   10.9888  -15.0158   28.9279 C   0  0  0  0  0  0  0  0  0  0  0  0
   11.1462  -13.5612   28.5694 C   0  0  1  0  0  0  0  0  0  0  0  0
   11.0048  -15.9100   27.7032 N   0  0  0  0  0  0  0  0  0  0  0  0
   10.4968  -15.2232   26.5430 C   0  0  0  0  0  0  0  0  0  0  0  0
   10.1226  -17.0710   27.9765 O   0  0  0  0  0  0  0  0  0  0  0  0
   10.5821  -18.1573   28.6909 O   0  0  0  0  0  0  0  0  0  0  0  0
  2  4  1  0
  2  1  1  0
  3  2  2  0
  5  4  1  0
  6  5  1  0
  7  6  1  0
  8  7  1  0
  8  9  1  1
 10 17  1  0
 10  8  1  0
 11 10  2  0
 13 12  1  0
 14 13  1  0
 16 15  1  6
 15 14  1  0
 16 17  1  0
 18 19  2  0
 18 16  1  0
 21 20  1  1
 21 23  1  0
 22 21  1  0
 23 25  1  0
 23 24  1  6
 24 18  1  0
 25 26  1  0
 27 25  2  0
M  END
$$$$
