RMV.pdb
     RDKit          3D

 27 26  0  0  1  0  0  0  0  0999 V2000
    9.6570  -18.6980   16.5872 N   0  0  0  0  0  0  0  0  0  0  0  0
   11.0601  -18.8716   16.5862 C   0  0  0  0  0  0  0  0  0  0  0  0
   11.6492  -19.8994   16.1043 N   0  0  0  0  0  0  0  0  0  0  0  0
   11.8606  -17.8491   17.1529 N   0  0  0  0  0  0  0  0  0  0  0  0
   11.2374  -16.8132   17.9317 C   0  0  0  0  0  0  0  0  0  0  0  0
   10.6102  -17.4940   19.1617 C   0  0  0  0  0  0  0  0  0  0  0  0
   10.0162  -16.4529   20.0728 C   0  0  0  0  0  0  0  0  0  0  0  0
    9.4251  -16.9430   21.3143 C   0  0  2  0  0  0  0  0  0  0  0  0
    7.9931  -17.2979   21.1208 N   0  0  0  0  0  0  0  0  0  0  0  0
    9.4772  -16.1524   22.5283 C   0  0  0  0  0  0  0  0  0  0  0  0
   10.6643  -15.8710   22.9428 O   0  0  0  0  0  0  0  0  0  0  0  0
   12.6740  -20.0080   15.9809 C   0  0  0  0  0  0  0  0  0  0  0  0
    6.4071  -11.5335   28.1132 S   0  0  0  0  0  0  0  0  0  0  0  0
    6.1434  -12.4480   26.5758 C   0  0  0  0  0  0  0  0  0  0  0  0
    7.6348  -13.3856   26.1698 C   0  0  0  0  0  0  0  0  0  0  0  0
    7.4222  -14.1150   24.8606 C   0  0  1  0  0  0  0  0  0  0  0  0
    8.6897  -14.8672   24.5480 N   0  0  0  0  0  0  0  0  0  0  0  0
    8.4475  -15.6479   23.3275 C   0  0  0  0  0  0  0  0  0  0  0  0
    9.0487  -15.8415   25.6111 O   0  0  0  0  0  0  0  0  0  0  0  0
    8.3554  -16.8698   25.8494 C   0  0  0  0  0  0  0  0  0  0  0  0
   12.6598  -15.4459   28.0516 C   0  0  1  0  0  0  0  0  0  0  0  0
   12.1390  -16.7235   27.4779 C   0  0  0  0  0  0  0  0  0  0  0  0
   12.8259  -17.1040   26.1924 C   0  0  1  0  0  0  0  0  0  0  0  0
   10.6301  -16.6928   27.3309 N   0  0  0  0  0  0  0  0  0  0  0  0
   10.2104  -15.6561   26.4226 C   0  0  0  0  0  0  0  0  0  0  0  0
   10.0492  -16.4021   28.6647 O   0  0  0  0  0  0  0  0  0  0  0  0
   10.0962  -17.3372   29.6770 O   0  0  0  0  0  0  0  0  0  0  0  0
  2  4  1  0
  2  1  1  0
  3  2  2  0
  5  4  1  0
  6  5  1  0
  7  6  1  0
  8  7  1  0
  8  9  1  6
 10 17  1  0
 10  8  1  0
 11 10  2  0
 13 12  1  0
 14 13  1  0
 16 15  1  6
 15 14  1  0
 16 17  1  0
 18 19  2  0
 18 16  1  0
 21 20  1  1
 21 23  1  0
 22 21  1  0
 23 25  1  0
 23 24  1  6
 24 18  1  0
 25 26  1  0
 27 25  2  0
M  END
$$$$
