RMV.pdb
     RDKit          3D

 27 26  0  0  1  0  0  0  0  0999 V2000
    9.7960  -13.2187   18.6388 N   0  0  0  0  0  0  0  0  0  0  0  0
    8.4766  -13.3619   18.1514 C   0  0  0  0  0  0  0  0  0  0  0  0
    7.6036  -12.4276   18.1773 N   0  0  0  0  0  0  0  0  0  0  0  0
    8.0983  -14.6127   17.6038 N   0  0  0  0  0  0  0  0  0  0  0  0
    9.0706  -15.6685   17.5146 C   0  0  0  0  0  0  0  0  0  0  0  0
    8.9272  -16.5178   18.7905 C   0  0  0  0  0  0  0  0  0  0  0  0
    9.6362  -15.8428   19.9344 C   0  0  0  0  0  0  0  0  0  0  0  0
    9.5886  -16.5319   21.2204 C   0  0  2  0  0  0  0  0  0  0  0  0
    8.5521  -17.5994   21.2167 N   0  0  0  0  0  0  0  0  0  0  0  0
    9.3957  -15.7959   22.4543 C   0  0  0  0  0  0  0  0  0  0  0  0
   10.2997  -14.9133   22.7075 O   0  0  0  0  0  0  0  0  0  0  0  0
    6.6236  -12.5049   17.8444 C   0  0  0  0  0  0  0  0  0  0  0  0
    6.7956  -11.3045   25.9793 S   0  0  0  0  0  0  0  0  0  0  0  0
    5.8515  -12.8122   26.3034 C   0  0  0  0  0  0  0  0  0  0  0  0
    6.9839  -14.2153   26.4334 C   0  0  0  0  0  0  0  0  0  0  0  0
    6.9732  -14.9850   25.1301 C   0  0  1  0  0  0  0  0  0  0  0  0
    8.4013  -15.1173   24.6683 N   0  0  0  0  0  0  0  0  0  0  0  0
    8.3892  -15.8905   23.4194 C   0  0  0  0  0  0  0  0  0  0  0  0
    9.2409  -15.8775   25.6303 O   0  0  0  0  0  0  0  0  0  0  0  0
    9.6188  -17.0623   25.4103 C   0  0  0  0  0  0  0  0  0  0  0  0
    9.8539  -15.0328   29.8831 C   0  0  1  0  0  0  0  0  0  0  0  0
   10.9857  -15.1573   28.9156 C   0  0  0  0  0  0  0  0  0  0  0  0
   11.5585  -13.8217   28.5187 C   0  0  1  0  0  0  0  0  0  0  0  0
   10.5981  -15.9924   27.7107 N   0  0  0  0  0  0  0  0  0  0  0  0
    9.6644  -15.2941   26.8642 C   0  0  0  0  0  0  0  0  0  0  0  0
    9.9400  -17.2264   28.2056 O   0  0  0  0  0  0  0  0  0  0  0  0
    8.5701  -17.3722   28.1444 O   0  0  0  0  0  0  0  0  0  0  0  0
  2  4  1  0
  2  1  1  0
  3  2  2  0
  5  4  1  0
  6  5  1  0
  7  6  1  0
  8  7  1  0
  8  9  1  6
 10 17  1  0
 10  8  1  0
 11 10  2  0
 13 12  1  0
 14 13  1  0
 16 15  1  6
 15 14  1  0
 16 17  1  0
 18 19  2  0
 18 16  1  0
 21 20  1  1
 21 23  1  0
 22 21  1  0
 23 25  1  0
 23 24  1  6
 24 18  1  0
 25 26  1  0
 27 25  2  0
M  END
$$$$
