RMV.pdb
     RDKit          3D

 27 26  0  0  1  0  0  0  0  0999 V2000
    7.0730  -17.5078   17.1916 N   0  0  0  0  0  0  0  0  0  0  0  0
    7.6357  -18.8048   17.2079 C   0  0  0  0  0  0  0  0  0  0  0  0
    7.6445  -19.5888   16.1975 N   0  0  0  0  0  0  0  0  0  0  0  0
    8.2226  -19.2638   18.4129 N   0  0  0  0  0  0  0  0  0  0  0  0
    8.7083  -18.3082   19.3716 C   0  0  0  0  0  0  0  0  0  0  0  0
    9.3902  -19.1090   20.4956 C   0  0  0  0  0  0  0  0  0  0  0  0
    9.9523  -18.1650   21.5251 C   0  0  0  0  0  0  0  0  0  0  0  0
    9.5523  -16.7662   21.4051 C   0  0  2  0  0  0  0  0  0  0  0  0
   10.3988  -16.0516   20.4119 N   0  0  0  0  0  0  0  0  0  0  0  0
    9.4939  -15.9047   22.5695 C   0  0  0  0  0  0  0  0  0  0  0  0
   10.6368  -15.4899   22.9963 O   0  0  0  0  0  0  0  0  0  0  0  0
    7.9806  -20.5707   16.1957 C   0  0  0  0  0  0  0  0  0  0  0  0
    5.9017  -10.9840   26.1685 S   0  0  0  0  0  0  0  0  0  0  0  0
    5.7411  -12.7055   26.6976 C   0  0  0  0  0  0  0  0  0  0  0  0
    7.2724  -13.5935   26.3304 C   0  0  0  0  0  0  0  0  0  0  0  0
    7.1621  -14.2290   24.9611 C   0  0  1  0  0  0  0  0  0  0  0  0
    8.5334  -14.7203   24.5759 N   0  0  0  0  0  0  0  0  0  0  0  0
    8.3980  -15.4528   23.3099 C   0  0  0  0  0  0  0  0  0  0  0  0
    9.0911  -15.6798   25.5642 O   0  0  0  0  0  0  0  0  0  0  0  0
    8.8862  -16.9239   25.4902 C   0  0  0  0  0  0  0  0  0  0  0  0
   10.5058  -14.7252   29.5632 C   0  0  1  0  0  0  0  0  0  0  0  0
   11.3463  -15.5047   28.6049 C   0  0  0  0  0  0  0  0  0  0  0  0
   12.4494  -14.6786   27.9967 C   0  0  1  0  0  0  0  0  0  0  0  0
   10.4981  -16.1887   27.5502 N   0  0  0  0  0  0  0  0  0  0  0  0
    9.8952  -15.2320   26.6574 C   0  0  0  0  0  0  0  0  0  0  0  0
    9.4114  -16.9212   28.2455 O   0  0  0  0  0  0  0  0  0  0  0  0
    9.6732  -18.0797   28.9459 O   0  0  0  0  0  0  0  0  0  0  0  0
  2  4  1  0
  2  1  1  0
  3  2  2  0
  5  4  1  0
  6  5  1  0
  7  6  1  0
  8  7  1  0
  8  9  1  6
 10 17  1  0
 10  8  1  0
 11 10  2  0
 13 12  1  0
 14 13  1  0
 16 15  1  6
 15 14  1  0
 16 17  1  0
 18 19  2  0
 18 16  1  0
 21 20  1  1
 21 23  1  0
 22 21  1  0
 23 25  1  0
 23 24  1  6
 24 18  1  0
 25 26  1  0
 27 25  2  0
M  END
$$$$
