RMV.pdb
     RDKit          3D

 27 26  0  0  1  0  0  0  0  0999 V2000
    8.3829  -12.5496   17.2348 N   0  0  0  0  0  0  0  0  0  0  0  0
    8.9266  -13.6550   16.5410 C   0  0  0  0  0  0  0  0  0  0  0  0
    9.7907  -13.5513   15.6038 N   0  0  0  0  0  0  0  0  0  0  0  0
    8.4885  -14.9528   16.9031 N   0  0  0  0  0  0  0  0  0  0  0  0
    7.4336  -15.0988   17.8696 C   0  0  0  0  0  0  0  0  0  0  0  0
    8.0629  -15.7241   19.1277 C   0  0  0  0  0  0  0  0  0  0  0  0
    6.9952  -16.3904   19.9541 C   0  0  0  0  0  0  0  0  0  0  0  0
    7.4188  -16.9301   21.2426 C   0  0  2  0  0  0  0  0  0  0  0  0
    6.3103  -17.6720   21.9018 N   0  0  0  0  0  0  0  0  0  0  0  0
    7.9817  -16.0685   22.2635 C   0  0  0  0  0  0  0  0  0  0  0  0
    9.1705  -15.6377   22.0160 O   0  0  0  0  0  0  0  0  0  0  0  0
   10.1851  -14.3382   15.0539 C   0  0  0  0  0  0  0  0  0  0  0  0
    5.7463  -12.4247   27.8487 S   0  0  0  0  0  0  0  0  0  0  0  0
    6.6916  -11.6107   26.5398 C   0  0  0  0  0  0  0  0  0  0  0  0
    7.8760  -12.7812   25.8358 C   0  0  0  0  0  0  0  0  0  0  0  0
    7.1428  -13.7434   24.9261 C   0  0  2  0  0  0  0  0  0  0  0  0
    8.1557  -14.7186   24.3846 N   0  0  0  0  0  0  0  0  0  0  0  0
    7.4460  -15.6310   23.4781 C   0  0  0  0  0  0  0  0  0  0  0  0
    8.7579  -15.5618   25.4498 O   0  0  0  0  0  0  0  0  0  0  0  0
    8.1114  -16.4728   26.0390 C   0  0  0  0  0  0  0  0  0  0  0  0
   12.4582  -16.9324   25.0255 C   0  0  1  0  0  0  0  0  0  0  0  0
   12.2234  -16.4736   26.4279 C   0  0  0  0  0  0  0  0  0  0  0  0
   12.9333  -17.3295   27.4442 C   0  0  2  0  0  0  0  0  0  0  0  0
   10.7432  -16.3398   26.7290 N   0  0  0  0  0  0  0  0  0  0  0  0
   10.1141  -15.3772   25.8610 C   0  0  0  0  0  0  0  0  0  0  0  0
   10.6050  -15.8621   28.1267 O   0  0  0  0  0  0  0  0  0  0  0  0
   10.1284  -14.5972   28.3991 O   0  0  0  0  0  0  0  0  0  0  0  0
  2  4  1  0
  2  1  1  0
  3  2  2  0
  5  4  1  0
  6  5  1  0
  7  6  1  0
  8  7  1  0
  8  9  1  1
 10 17  1  0
 10  8  1  0
 11 10  2  0
 13 12  1  0
 14 13  1  0
 16 15  1  6
 15 14  1  0
 16 17  1  0
 18 19  2  0
 18 16  1  0
 21 20  1  6
 21 23  1  0
 22 21  1  0
 23 25  1  0
 23 24  1  6
 24 18  1  0
 25 26  1  0
 27 25  2  0
M  END
$$$$
