TCV.pdb
     RDKit          3D

 21 20  0  0  1  0  0  0  0  0999 V2000
   28.3908  -20.4308  -13.8198 C   0  0  0  0  0  0  0  0  0  0  0  0
   28.1075  -19.3466  -14.8566 C   0  0  1  0  0  0  0  0  0  0  0  0
   28.9205  -19.5486  -15.9731 O   0  0  0  0  0  0  0  0  0  0  0  0
   26.6441  -19.4010  -15.2221 C   0  0  2  0  0  0  0  0  0  0  0  0
   26.3809  -18.3220  -16.1562 N   0  0  0  0  0  0  0  0  0  0  0  0
   25.8557  -19.1721  -13.9646 C   0  0  0  0  0  0  0  0  0  0  0  0
   25.6890  -18.0320  -13.4672 O   0  0  0  0  0  0  0  0  0  0  0  0
   25.2526  -20.2643  -13.2702 N   0  0  0  0  0  0  0  0  0  0  0  0
   24.5499  -20.1175  -12.0200 C   0  0  1  0  0  0  0  0  0  0  0  0
   23.1832  -20.6915  -12.1771 C   0  0  0  0  0  0  0  0  0  0  0  0
   22.3296  -20.4516  -10.5738 S   0  0  0  0  0  0  0  0  0  0  0  0
   25.3186  -20.6995  -10.8832 C   0  0  0  0  0  0  0  0  0  0  0  0
   25.7321  -21.8756  -11.0061 O   0  0  0  0  0  0  0  0  0  0  0  0
   26.3573  -18.3689   -7.3034 C   0  0  0  0  0  0  0  0  0  0  0  0
   27.0980  -19.5817   -7.7920 C   0  0  1  0  0  0  0  0  0  0  0  0
   27.8756  -20.1995   -6.6697 C   0  0  0  0  0  0  0  0  0  0  0  0
   26.2168  -20.5587   -8.5233 C   0  0  2  0  0  0  0  0  0  0  0  0
   25.6060  -20.0136   -9.6915 N   0  0  0  0  0  0  0  0  0  0  0  0
   25.2406  -21.1200   -7.5598 C   0  0  0  0  0  0  0  0  0  0  0  0
   23.8701  -20.9590   -7.7067 O   0  0  0  0  0  0  0  0  0  0  0  0
   25.6475  -21.7712   -6.5639 O   0  0  0  0  0  0  0  0  0  0  0  0
  2  1  1  1
  2  3  1  0
  4  5  1  6
  4  2  1  0
  6  4  1  0
  7  6  2  0
  8  6  1  0
  9  8  1  0
  9 12  1  0
  9 10  1  6
 11 10  1  0
 12 18  1  0
 12 13  2  0
 15 16  1  1
 15 14  1  0
 17 15  1  0
 17 18  1  6
 19 17  1  0
 19 20  1  0
 21 19  2  0
M  END
$$$$
