TCV.pdb
     RDKit          3D

 21 20  0  0  1  0  0  0  0  0999 V2000
   20.5051   -9.1429  -19.8168 C   0  0  0  0  0  0  0  0  0  0  0  0
   19.8926  -10.5175  -19.5602 C   0  0  1  0  0  0  0  0  0  0  0  0
   19.3781  -11.0263  -20.7539 O   0  0  0  0  0  0  0  0  0  0  0  0
   20.9588  -11.4204  -18.9893 C   0  0  2  0  0  0  0  0  0  0  0  0
   20.3610  -12.7232  -18.7628 N   0  0  0  0  0  0  0  0  0  0  0  0
   21.3886  -10.8363  -17.6742 C   0  0  0  0  0  0  0  0  0  0  0  0
   20.6008  -10.6879  -16.7087 O   0  0  0  0  0  0  0  0  0  0  0  0
   22.7375  -10.4171  -17.4657 N   0  0  0  0  0  0  0  0  0  0  0  0
   23.1737   -9.7055  -16.2902 C   0  0  1  0  0  0  0  0  0  0  0  0
   24.5923  -10.0723  -16.0163 C   0  0  0  0  0  0  0  0  0  0  0  0
   24.5599  -11.7230  -15.2218 S   0  0  0  0  0  0  0  0  0  0  0  0
   22.9468   -8.2379  -16.4174 C   0  0  0  0  0  0  0  0  0  0  0  0
   23.4091   -7.6667  -17.4320 O   0  0  0  0  0  0  0  0  0  0  0  0
   20.1932   -6.2764  -17.2924 C   0  0  0  0  0  0  0  0  0  0  0  0
   20.5760   -5.7309  -15.9454 C   0  0  1  0  0  0  0  0  0  0  0  0
   19.5606   -6.1303  -14.9183 C   0  0  0  0  0  0  0  0  0  0  0  0
   21.9913   -6.0617  -15.5533 C   0  0  2  0  0  0  0  0  0  0  0  0
   22.2501   -7.4623  -15.4759 N   0  0  0  0  0  0  0  0  0  0  0  0
   22.3110   -5.3370  -14.3007 C   0  0  0  0  0  0  0  0  0  0  0  0
   22.4703   -5.9846  -13.0838 O   0  0  0  0  0  0  0  0  0  0  0  0
   22.4483   -4.0871  -14.3181 O   0  0  0  0  0  0  0  0  0  0  0  0
  2  1  1  6
  2  3  1  0
  4  5  1  1
  4  2  1  0
  6  4  1  0
  7  6  2  0
  8  6  1  0
  9  8  1  0
  9 12  1  0
  9 10  1  6
 11 10  1  0
 12 18  1  0
 12 13  2  0
 15 16  1  1
 15 14  1  0
 17 15  1  0
 17 18  1  1
 19 17  1  0
 19 20  1  0
 21 19  2  0
M  END
$$$$
