TCV.pdb
     RDKit          3D

 21 20  0  0  1  0  0  0  0  0999 V2000
   18.1295   -8.8612  -17.6849 C   0  0  0  0  0  0  0  0  0  0  0  0
   17.5091   -9.7638  -16.6214 C   0  0  1  0  0  0  0  0  0  0  0  0
   16.9795  -10.9025  -17.2308 O   0  0  0  0  0  0  0  0  0  0  0  0
   18.5737  -10.1217  -15.6132 C   0  0  2  0  0  0  0  0  0  0  0  0
   17.9935  -11.0608  -14.6712 N   0  0  0  0  0  0  0  0  0  0  0  0
   18.9515   -8.8616  -14.8887 C   0  0  0  0  0  0  0  0  0  0  0  0
   18.1563   -8.2481  -14.1362 O   0  0  0  0  0  0  0  0  0  0  0  0
   20.2563   -8.2994  -15.0303 N   0  0  0  0  0  0  0  0  0  0  0  0
   20.6166   -6.9965  -14.5292 C   0  0  1  0  0  0  0  0  0  0  0  0
   22.0139   -7.0595  -14.0136 C   0  0  0  0  0  0  0  0  0  0  0  0
   22.4091   -5.3889  -13.3736 S   0  0  0  0  0  0  0  0  0  0  0  0
   20.4011   -5.9331  -15.5512 C   0  0  0  0  0  0  0  0  0  0  0  0
   20.9048   -6.1092  -16.6846 O   0  0  0  0  0  0  0  0  0  0  0  0
   16.9524   -3.7760  -15.9557 C   0  0  0  0  0  0  0  0  0  0  0  0
   18.0982   -3.7717  -16.9280 C   0  0  1  0  0  0  0  0  0  0  0  0
   17.8905   -2.7123  -17.9673 C   0  0  0  0  0  0  0  0  0  0  0  0
   19.4438   -3.7012  -16.2568 C   0  0  2  0  0  0  0  0  0  0  0  0
   19.6720   -4.7545  -15.3222 N   0  0  0  0  0  0  0  0  0  0  0  0
   19.6022   -2.3507  -15.6673 C   0  0  0  0  0  0  0  0  0  0  0  0
   20.0422   -1.2612  -16.4055 O   0  0  0  0  0  0  0  0  0  0  0  0
   19.3324   -2.1619  -14.4536 O   0  0  0  0  0  0  0  0  0  0  0  0
  2  1  1  6
  2  3  1  0
  4  5  1  1
  4  2  1  0
  6  4  1  0
  7  6  2  0
  8  6  1  0
  9  8  1  0
  9 12  1  0
  9 10  1  6
 11 10  1  0
 12 18  1  0
 12 13  2  0
 15 16  1  6
 15 14  1  0
 17 15  1  0
 17 18  1  1
 19 17  1  0
 19 20  1  0
 21 19  2  0
M  END
$$$$
