TCV.pdb
     RDKit          3D

 21 20  0  0  1  0  0  0  0  0999 V2000
   21.5671  -13.4574  -16.6177 C   0  0  0  0  0  0  0  0  0  0  0  0
   21.2292  -12.8358  -17.9705 C   0  0  1  0  0  0  0  0  0  0  0  0
   20.5763  -13.7799  -18.7647 O   0  0  0  0  0  0  0  0  0  0  0  0
   20.3677  -11.6184  -17.7390 C   0  0  2  0  0  0  0  0  0  0  0  0
   19.9578  -11.1131  -19.0362 N   0  0  0  0  0  0  0  0  0  0  0  0
   21.2169  -10.5883  -17.0511 C   0  0  0  0  0  0  0  0  0  0  0  0
   21.7573  -10.7901  -15.9366 O   0  0  0  0  0  0  0  0  0  0  0  0
   21.4473   -9.3123  -17.6490 N   0  0  0  0  0  0  0  0  0  0  0  0
   22.2758   -8.2950  -17.0513 C   0  0  1  0  0  0  0  0  0  0  0  0
   23.0220   -7.5970  -18.1366 C   0  0  0  0  0  0  0  0  0  0  0  0
   24.3176   -8.7591  -18.7092 S   0  0  0  0  0  0  0  0  0  0  0  0
   21.4842   -7.3790  -16.1817 C   0  0  0  0  0  0  0  0  0  0  0  0
   20.4278   -6.9007  -16.6554 O   0  0  0  0  0  0  0  0  0  0  0  0
   21.6856   -7.6378  -11.9793 C   0  0  0  0  0  0  0  0  0  0  0  0
   20.5861   -6.9846  -12.7685 C   0  0  1  0  0  0  0  0  0  0  0  0
   19.7147   -6.1682  -11.8630 C   0  0  0  0  0  0  0  0  0  0  0  0
   21.0886   -6.2245  -13.9667 C   0  0  2  0  0  0  0  0  0  0  0  0
   21.8480   -7.0232  -14.8725 N   0  0  0  0  0  0  0  0  0  0  0  0
   21.8186   -5.0268  -13.4883 C   0  0  0  0  0  0  0  0  0  0  0  0
   21.1857   -3.8173  -13.2389 O   0  0  0  0  0  0  0  0  0  0  0  0
   23.0595   -5.0864  -13.2935 O   0  0  0  0  0  0  0  0  0  0  0  0
  2  1  1  1
  2  3  1  0
  4  5  1  6
  4  2  1  0
  6  4  1  0
  7  6  2  0
  8  6  1  0
  9  8  1  0
  9 12  1  0
  9 10  1  6
 11 10  1  0
 12 18  1  0
 12 13  2  0
 15 16  1  1
 15 14  1  0
 17 15  1  0
 17 18  1  1
 19 17  1  0
 19 20  1  0
 21 19  2  0
M  END
$$$$
