TCV.pdb
     RDKit          3D

 21 20  0  0  1  0  0  0  0  0999 V2000
   13.8005  -11.3489  -15.9058 C   0  0  0  0  0  0  0  0  0  0  0  0
   14.2995  -12.7079  -15.4216 C   0  0  1  0  0  0  0  0  0  0  0  0
   13.4031  -13.7005  -15.8212 O   0  0  0  0  0  0  0  0  0  0  0  0
   15.6767  -12.9459  -15.9913 C   0  0  2  0  0  0  0  0  0  0  0  0
   16.0940  -14.2792  -15.5986 N   0  0  0  0  0  0  0  0  0  0  0  0
   16.6011  -11.9352  -15.3755 C   0  0  0  0  0  0  0  0  0  0  0  0
   17.4387  -12.2337  -14.4900 O   0  0  0  0  0  0  0  0  0  0  0  0
   16.5627  -10.5664  -15.7802 N   0  0  0  0  0  0  0  0  0  0  0  0
   17.5223   -9.5834  -15.3429 C   0  0  1  0  0  0  0  0  0  0  0  0
   18.8869  -10.0649  -15.7009 C   0  0  0  0  0  0  0  0  0  0  0  0
   20.0556   -8.7532  -15.1808 S   0  0  0  0  0  0  0  0  0  0  0  0
   17.2052   -8.2276  -15.8750 C   0  0  0  0  0  0  0  0  0  0  0  0
   17.2939   -8.0564  -17.1128 O   0  0  0  0  0  0  0  0  0  0  0  0
   14.0041   -6.4343  -15.8807 C   0  0  0  0  0  0  0  0  0  0  0  0
   14.9884   -5.5065  -15.2259 C   0  0  1  0  0  0  0  0  0  0  0  0
   14.7035   -5.4026  -13.7583 C   0  0  0  0  0  0  0  0  0  0  0  0
   16.4210   -5.8470  -15.5385 C   0  0  2  0  0  0  0  0  0  0  0  0
   16.8147   -7.1386  -15.0783 N   0  0  0  0  0  0  0  0  0  0  0  0
   17.2833   -4.7553  -15.0275 C   0  0  0  0  0  0  0  0  0  0  0  0
   17.3113   -3.4940  -15.6054 O   0  0  0  0  0  0  0  0  0  0  0  0
   18.0256   -4.9573  -14.0327 O   0  0  0  0  0  0  0  0  0  0  0  0
  2  1  1  6
  2  3  1  0
  4  5  1  1
  4  2  1  0
  6  4  1  0
  7  6  2  0
  8  6  1  0
  9  8  1  0
  9 12  1  0
  9 10  1  6
 11 10  1  0
 12 18  1  0
 12 13  2  0
 15 16  1  1
 15 14  1  0
 17 15  1  0
 17 18  1  1
 19 17  1  0
 19 20  1  0
 21 19  2  0
M  END
$$$$
