TCV.pdb
     RDKit          3D

 21 20  0  0  1  0  0  0  0  0999 V2000
   19.0919  -14.7149  -15.4616 C   0  0  0  0  0  0  0  0  0  0  0  0
   17.8025  -15.2604  -16.0704 C   0  0  1  0  0  0  0  0  0  0  0  0
   17.5959  -16.5671  -15.6252 O   0  0  0  0  0  0  0  0  0  0  0  0
   16.6622  -14.3550  -15.6734 C   0  0  2  0  0  0  0  0  0  0  0  0
   15.4514  -14.8757  -16.2806 N   0  0  0  0  0  0  0  0  0  0  0  0
   16.9516  -12.9920  -16.2336 C   0  0  0  0  0  0  0  0  0  0  0  0
   16.5209  -12.6124  -17.3496 O   0  0  0  0  0  0  0  0  0  0  0  0
   17.7449  -12.0548  -15.5048 N   0  0  0  0  0  0  0  0  0  0  0  0
   17.9481  -10.6912  -15.9266 C   0  0  1  0  0  0  0  0  0  0  0  0
   16.6146  -10.0559  -16.1266 C   0  0  0  0  0  0  0  0  0  0  0  0
   16.9272   -8.2815  -16.4593 S   0  0  0  0  0  0  0  0  0  0  0  0
   18.8322   -9.9480  -14.9845 C   0  0  0  0  0  0  0  0  0  0  0  0
   18.4681   -9.8708  -13.7883 O   0  0  0  0  0  0  0  0  0  0  0  0
   22.5880  -10.5674  -14.2437 C   0  0  0  0  0  0  0  0  0  0  0  0
   22.3818   -9.1346  -14.6471 C   0  0  1  0  0  0  0  0  0  0  0  0
   22.9352   -8.8992  -16.0197 C   0  0  0  0  0  0  0  0  0  0  0  0
   20.9582   -8.6730  -14.4846 C   0  0  2  0  0  0  0  0  0  0  0  0
   20.0405   -9.3341  -15.3538 N   0  0  0  0  0  0  0  0  0  0  0  0
   20.9276   -7.1969  -14.6139 C   0  0  0  0  0  0  0  0  0  0  0  0
   21.5197   -6.3539  -13.6842 O   0  0  0  0  0  0  0  0  0  0  0  0
   20.3490   -6.6664  -15.5964 O   0  0  0  0  0  0  0  0  0  0  0  0
  2  1  1  1
  2  3  1  0
  4  5  1  6
  4  2  1  0
  6  4  1  0
  7  6  2  0
  8  6  1  0
  9  8  1  0
  9 12  1  0
  9 10  1  1
 11 10  1  0
 12 18  1  0
 12 13  2  0
 15 16  1  6
 15 14  1  0
 17 15  1  0
 17 18  1  6
 19 17  1  0
 19 20  1  0
 21 19  2  0
M  END
$$$$
