TCV.pdb
     RDKit          3D

 21 20  0  0  1  0  0  0  0  0999 V2000
   17.5611  -11.4590  -18.6212 C   0  0  0  0  0  0  0  0  0  0  0  0
   17.4131  -12.6361  -17.6604 C   0  0  1  0  0  0  0  0  0  0  0  0
   17.1022  -13.7889  -18.3835 O   0  0  0  0  0  0  0  0  0  0  0  0
   18.7031  -12.7965  -16.8936 C   0  0  2  0  0  0  0  0  0  0  0  0
   18.5934  -13.9994  -16.0893 N   0  0  0  0  0  0  0  0  0  0  0  0
   18.8419  -11.6058  -15.9890 C   0  0  0  0  0  0  0  0  0  0  0  0
   18.0390  -11.3675  -15.0543 O   0  0  0  0  0  0  0  0  0  0  0  0
   19.9137  -10.6780  -16.1600 N   0  0  0  0  0  0  0  0  0  0  0  0
   20.0955   -9.5149  -15.3279 C   0  0  1  0  0  0  0  0  0  0  0  0
   21.5492   -9.3696  -15.0318 C   0  0  0  0  0  0  0  0  0  0  0  0
   21.7081   -7.9497  -13.8848 S   0  0  0  0  0  0  0  0  0  0  0  0
   19.4821   -8.3000  -15.9357 C   0  0  0  0  0  0  0  0  0  0  0  0
   19.8130   -8.0098  -17.1086 O   0  0  0  0  0  0  0  0  0  0  0  0
   15.9260   -4.8610  -16.0564 C   0  0  0  0  0  0  0  0  0  0  0  0
   16.5102   -6.1475  -15.5446 C   0  0  1  0  0  0  0  0  0  0  0  0
   15.7259   -7.3141  -16.0638 C   0  0  0  0  0  0  0  0  0  0  0  0
   17.9916   -6.2624  -15.7863 C   0  0  2  0  0  0  0  0  0  0  0  0
   18.5615   -7.4674  -15.2782 N   0  0  0  0  0  0  0  0  0  0  0  0
   18.6467   -5.0395  -15.2651 C   0  0  0  0  0  0  0  0  0  0  0  0
   18.6338   -3.8348  -15.9537 O   0  0  0  0  0  0  0  0  0  0  0  0
   19.2423   -5.0718  -14.1580 O   0  0  0  0  0  0  0  0  0  0  0  0
  2  1  1  6
  2  3  1  0
  4  5  1  1
  4  2  1  0
  6  4  1  0
  7  6  2  0
  8  6  1  0
  9  8  1  0
  9 12  1  0
  9 10  1  6
 11 10  1  0
 12 18  1  0
 12 13  2  0
 15 16  1  6
 15 14  1  0
 17 15  1  0
 17 18  1  1
 19 17  1  0
 19 20  1  0
 21 19  2  0
M  END
$$$$
