TCV.pdb
     RDKit          3D

 21 20  0  0  1  0  0  0  0  0999 V2000
   16.4984  -10.7040  -19.0070 C   0  0  0  0  0  0  0  0  0  0  0  0
   17.2875  -10.2587  -17.7784 C   0  0  1  0  0  0  0  0  0  0  0  0
   16.4383  -10.2180  -16.6713 O   0  0  0  0  0  0  0  0  0  0  0  0
   18.4285  -11.2231  -17.5638 C   0  0  2  0  0  0  0  0  0  0  0  0
   17.8613  -12.4989  -17.1680 N   0  0  0  0  0  0  0  0  0  0  0  0
   19.2699  -10.6848  -16.4423 C   0  0  0  0  0  0  0  0  0  0  0  0
   18.9896  -10.8737  -15.2337 O   0  0  0  0  0  0  0  0  0  0  0  0
   20.4457   -9.9207  -16.7115 N   0  0  0  0  0  0  0  0  0  0  0  0
   21.2839   -9.3655  -15.6783 C   0  0  1  0  0  0  0  0  0  0  0  0
   22.5782  -10.1049  -15.6731 C   0  0  0  0  0  0  0  0  0  0  0  0
   23.6692   -9.2377  -14.4837 S   0  0  0  0  0  0  0  0  0  0  0  0
   21.4359   -7.8899  -15.8244 C   0  0  0  0  0  0  0  0  0  0  0  0
   21.8670   -7.4581  -16.9185 O   0  0  0  0  0  0  0  0  0  0  0  0
   19.4620   -5.0221  -16.3803 C   0  0  0  0  0  0  0  0  0  0  0  0
   20.1424   -4.7278  -15.0731 C   0  0  1  0  0  0  0  0  0  0  0  0
   19.1559   -4.8062  -13.9477 C   0  0  0  0  0  0  0  0  0  0  0  0
   21.3785   -5.5573  -14.8492 C   0  0  2  0  0  0  0  0  0  0  0  0
   21.1264   -6.9610  -14.8172 N   0  0  0  0  0  0  0  0  0  0  0  0
   22.0632   -5.0573  -13.6337 C   0  0  0  0  0  0  0  0  0  0  0  0
   22.1215   -5.7889  -12.4559 O   0  0  0  0  0  0  0  0  0  0  0  0
   22.6202   -3.9299  -13.6478 O   0  0  0  0  0  0  0  0  0  0  0  0
  2  1  1  6
  2  3  1  0
  4  5  1  1
  4  2  1  0
  6  4  1  0
  7  6  2  0
  8  6  1  0
  9  8  1  0
  9 12  1  0
  9 10  1  6
 11 10  1  0
 12 18  1  0
 12 13  2  0
 15 16  1  1
 15 14  1  0
 17 15  1  0
 17 18  1  1
 19 17  1  0
 19 20  1  0
 21 19  2  0
M  END
$$$$
