YWQ.pdb
     RDKit          3D

 36 38  0  0  1  0  0  0  0  0999 V2000
    7.4740  -13.3271   16.0254 O   0  0  0  0  0  0  0  0  0  0  0  0
    7.6755  -13.4089   17.4137 C   0  0  0  0  0  0  0  0  0  0  0  0
    6.7085  -13.9757   18.2180 C   0  0  0  0  0  0  0  0  0  0  0  0
    6.9343  -14.0413   19.5674 C   0  0  0  0  0  0  0  0  0  0  0  0
    8.0952  -13.5588   20.1386 C   0  0  0  0  0  0  0  0  0  0  0  0
    8.3508  -13.6279   21.6081 C   0  0  0  0  0  0  0  0  0  0  0  0
    9.2104  -14.8605   21.8376 C   0  0  2  0  0  0  0  0  0  0  0  0
    8.4652  -16.0636   21.5381 N   0  0  0  0  0  0  0  0  0  0  0  0
    9.6311  -14.9085   23.2534 C   0  0  0  0  0  0  0  0  0  0  0  0
   10.3384  -13.9865   23.7148 O   0  0  0  0  0  0  0  0  0  0  0  0
    9.0462  -12.9972   19.3151 C   0  0  0  0  0  0  0  0  0  0  0  0
    8.8370  -12.9203   17.9400 C   0  0  0  0  0  0  0  0  0  0  0  0
    9.2268  -15.9932   24.0555 N   0  0  0  0  0  0  0  0  0  0  0  0
    9.8237  -16.1800   25.3632 C   0  0  1  0  0  0  0  0  0  0  0  0
    8.7167  -16.2464   26.3466 C   0  0  0  0  0  0  0  0  0  0  0  0
    7.6334  -15.2949   26.1268 C   0  0  0  0  0  0  0  0  0  0  0  0
    6.3380  -15.5795   25.6776 C   0  0  0  0  0  0  0  0  0  0  0  0
    5.6935  -14.4159   25.5881 N   0  0  0  0  0  0  0  0  0  0  0  0
    6.5123  -13.4085   25.9578 C   0  0  0  0  0  0  0  0  0  0  0  0
    6.3376  -12.0342   26.0586 C   0  0  0  0  0  0  0  0  0  0  0  0
    7.3577  -11.2135   26.4909 C   0  0  0  0  0  0  0  0  0  0  0  0
    8.5807  -11.7275   26.8365 C   0  0  0  0  0  0  0  0  0  0  0  0
    8.7648  -13.0866   26.7397 C   0  0  0  0  0  0  0  0  0  0  0  0
    7.7353  -13.9213   26.3020 C   0  0  0  0  0  0  0  0  0  0  0  0
   10.8344  -17.2273   25.3820 C   0  0  0  0  0  0  0  0  0  0  0  0
   11.2462  -17.6814   26.4717 O   0  0  0  0  0  0  0  0  0  0  0  0
   12.1181  -20.9921   20.4593 N   0  0  0  0  0  0  0  0  0  0  0  0
   13.1128  -21.3952   21.3799 C   0  0  0  0  0  0  0  0  0  0  0  0
   13.9060  -22.3158   21.0345 O   0  0  0  0  0  0  0  0  0  0  0  0
   13.1933  -20.7295   22.6946 C   0  0  0  0  0  0  0  0  0  0  0  0
   12.2990  -19.5560   22.8694 C   0  0  0  0  0  0  0  0  0  0  0  0
   12.3715  -18.8770   24.1842 C   0  0  2  0  0  0  0  0  0  0  0  0
   11.3807  -17.7620   24.1901 N   0  0  0  0  0  0  0  0  0  0  0  0
   13.6406  -18.3692   24.6610 C   0  0  0  0  0  0  0  0  0  0  0  0
   14.1134  -17.2476   24.3698 O   0  0  0  0  0  0  0  0  0  0  0  0
   14.4310  -19.1493   25.5092 O   0  0  0  0  0  0  0  0  0  0  0  0
  2  1  1  0
  3  2  2  0
  4  3  1  0
  5  4  2  0
  5 11  1  0
  6  5  1  0
  7  8  1  1
  7  6  1  0
  9 13  1  0
  9  7  1  0
 10  9  2  0
 11 12  2  0
 12  2  1  0
 14 15  1  1
 14 25  1  0
 14 13  1  0
 16 17  2  0
 16 15  1  0
 18 17  1  0
 19 24  2  0
 19 18  1  0
 20 19  1  0
 21 22  1  0
 21 20  2  0
 22 23  2  0
 23 24  1  0
 24 16  1  0
 25 33  1  0
 26 25  2  0
 27 28  1  0
 28 29  2  0
 30 31  1  0
 30 28  1  0
 32 33  1  0
 32 34  1  0
 32 31  1  6
 34 35  2  0
 34 36  1  0
M  END
$$$$
