YWQ.pdb
     RDKit          3D

 36 38  0  0  1  0  0  0  0  0999 V2000
    5.4057  -23.0617   17.4239 O   0  0  0  0  0  0  0  0  0  0  0  0
    5.9210  -22.3460   18.5181 C   0  0  0  0  0  0  0  0  0  0  0  0
    7.2236  -22.5512   18.9236 C   0  0  0  0  0  0  0  0  0  0  0  0
    7.6971  -21.8384   19.9932 C   0  0  0  0  0  0  0  0  0  0  0  0
    6.9106  -20.9274   20.6702 C   0  0  0  0  0  0  0  0  0  0  0  0
    7.4187  -20.1445   21.8358 C   0  0  0  0  0  0  0  0  0  0  0  0
    7.9215  -18.8222   21.2793 C   0  0  2  0  0  0  0  0  0  0  0  0
    8.9662  -19.0448   20.3040 N   0  0  0  0  0  0  0  0  0  0  0  0
    8.4725  -18.0046   22.3801 C   0  0  0  0  0  0  0  0  0  0  0  0
    9.6623  -18.1666   22.7284 O   0  0  0  0  0  0  0  0  0  0  0  0
    5.6130  -20.7398   20.2468 C   0  0  0  0  0  0  0  0  0  0  0  0
    5.1113  -21.4542   19.1614 C   0  0  0  0  0  0  0  0  0  0  0  0
    7.6455  -17.0584   23.0157 N   0  0  0  0  0  0  0  0  0  0  0  0
    8.1358  -16.3417   24.1765 C   0  0  1  0  0  0  0  0  0  0  0  0
    7.5612  -14.9765   24.1256 C   0  0  0  0  0  0  0  0  0  0  0  0
    7.8034  -14.1567   25.3073 C   0  0  0  0  0  0  0  0  0  0  0  0
    8.8608  -14.2788   26.2173 C   0  0  0  0  0  0  0  0  0  0  0  0
    8.6728  -13.3526   27.1576 N   0  0  0  0  0  0  0  0  0  0  0  0
    7.5521  -12.6491   26.8910 C   0  0  0  0  0  0  0  0  0  0  0  0
    6.9262  -11.5864   27.5300 C   0  0  0  0  0  0  0  0  0  0  0  0
    5.7716  -11.0277   27.0242 C   0  0  0  0  0  0  0  0  0  0  0  0
    5.2020  -11.5030   25.8714 C   0  0  0  0  0  0  0  0  0  0  0  0
    5.8129  -12.5552   25.2311 C   0  0  0  0  0  0  0  0  0  0  0  0
    6.9815  -13.1246   25.7397 C   0  0  0  0  0  0  0  0  0  0  0  0
    8.0095  -17.1041   25.4100 C   0  0  0  0  0  0  0  0  0  0  0  0
    6.9487  -17.7154   25.6630 O   0  0  0  0  0  0  0  0  0  0  0  0
   10.2313  -21.1948   23.6425 N   0  0  0  0  0  0  0  0  0  0  0  0
   10.5588  -21.6366   24.9451 C   0  0  0  0  0  0  0  0  0  0  0  0
   11.0642  -22.7872   25.0743 O   0  0  0  0  0  0  0  0  0  0  0  0
   10.3079  -20.7459   26.0948 C   0  0  0  0  0  0  0  0  0  0  0  0
    9.7418  -19.4145   25.7566 C   0  0  0  0  0  0  0  0  0  0  0  0
    9.5736  -18.4756   26.8903 C   0  0  2  0  0  0  0  0  0  0  0  0
    9.0624  -17.1812   26.3537 N   0  0  0  0  0  0  0  0  0  0  0  0
   10.6920  -18.2020   27.7678 C   0  0  0  0  0  0  0  0  0  0  0  0
   11.3709  -17.1507   27.7493 O   0  0  0  0  0  0  0  0  0  0  0  0
   11.0802  -19.1477   28.7205 O   0  0  0  0  0  0  0  0  0  0  0  0
  2  1  1  0
  3  2  2  0
  4  3  1  0
  5  4  2  0
  5 11  1  0
  6  5  1  0
  7  8  1  6
  7  6  1  0
  9 13  1  0
  9  7  1  0
 10  9  2  0
 11 12  2  0
 12  2  1  0
 14 15  1  1
 14 25  1  0
 14 13  1  0
 16 17  2  0
 16 15  1  0
 18 17  1  0
 19 24  2  0
 19 18  1  0
 20 19  1  0
 21 22  1  0
 21 20  2  0
 22 23  2  0
 23 24  1  0
 24 16  1  0
 25 33  1  0
 26 25  2  0
 27 28  1  0
 28 29  2  0
 30 31  1  0
 30 28  1  0
 32 33  1  0
 32 34  1  0
 32 31  1  6
 34 35  2  0
 34 36  1  0
M  END
$$$$
