YWQ.pdb
     RDKit          3D

 36 38  0  0  1  0  0  0  0  0999 V2000
    9.6611  -14.4509   14.0240 O   0  0  0  0  0  0  0  0  0  0  0  0
    9.2424  -14.3617   15.3625 C   0  0  0  0  0  0  0  0  0  0  0  0
    7.9116  -14.1456   15.6551 C   0  0  0  0  0  0  0  0  0  0  0  0
    7.5344  -14.0637   16.9693 C   0  0  0  0  0  0  0  0  0  0  0  0
    8.4443  -14.1908   18.0002 C   0  0  0  0  0  0  0  0  0  0  0  0
    8.0420  -14.1049   19.4356 C   0  0  0  0  0  0  0  0  0  0  0  0
    7.5304  -15.4833   19.8219 C   0  0  2  0  0  0  0  0  0  0  0  0
    6.3025  -15.7856   19.1198 N   0  0  0  0  0  0  0  0  0  0  0  0
    7.2617  -15.5173   21.2748 C   0  0  0  0  0  0  0  0  0  0  0  0
    6.3282  -14.8295   21.7422 O   0  0  0  0  0  0  0  0  0  0  0  0
    9.7677  -14.4060   17.6832 C   0  0  0  0  0  0  0  0  0  0  0  0
   10.1730  -14.4926   16.3533 C   0  0  0  0  0  0  0  0  0  0  0  0
    8.0638  -16.3245   22.1046 N   0  0  0  0  0  0  0  0  0  0  0  0
    8.6849  -15.7492   23.2813 C   0  0  1  0  0  0  0  0  0  0  0  0
    7.6478  -14.9561   23.9829 C   0  0  0  0  0  0  0  0  0  0  0  0
    8.0037  -14.5212   25.3287 C   0  0  0  0  0  0  0  0  0  0  0  0
    8.8751  -15.1599   26.2196 C   0  0  0  0  0  0  0  0  0  0  0  0
    8.8804  -14.4395   27.3414 N   0  0  0  0  0  0  0  0  0  0  0  0
    8.0586  -13.3770   27.2080 C   0  0  0  0  0  0  0  0  0  0  0  0
    7.7211  -12.3284   28.0541 C   0  0  0  0  0  0  0  0  0  0  0  0
    6.8482  -11.3391   27.6537 C   0  0  0  0  0  0  0  0  0  0  0  0
    6.2833  -11.3574   26.4047 C   0  0  0  0  0  0  0  0  0  0  0  0
    6.6098  -12.3913   25.5594 C   0  0  0  0  0  0  0  0  0  0  0  0
    7.4925  -13.3954   25.9605 C   0  0  0  0  0  0  0  0  0  0  0  0
    9.4567  -16.7171   24.0469 C   0  0  0  0  0  0  0  0  0  0  0  0
    8.9944  -17.8589   24.2609 O   0  0  0  0  0  0  0  0  0  0  0  0
   12.9857  -14.4512   20.2104 N   0  0  0  0  0  0  0  0  0  0  0  0
   13.3008  -15.8126   20.4261 C   0  0  0  0  0  0  0  0  0  0  0  0
   13.5660  -16.5292   19.4201 O   0  0  0  0  0  0  0  0  0  0  0  0
   13.3154  -16.3416   21.8039 C   0  0  0  0  0  0  0  0  0  0  0  0
   12.0526  -16.1655   22.5665 C   0  0  0  0  0  0  0  0  0  0  0  0
   12.0036  -16.8159   23.8968 C   0  0  2  0  0  0  0  0  0  0  0  0
   10.7361  -16.4093   24.5698 N   0  0  0  0  0  0  0  0  0  0  0  0
   13.0987  -16.6335   24.8258 C   0  0  0  0  0  0  0  0  0  0  0  0
   13.9319  -17.5176   25.1267 O   0  0  0  0  0  0  0  0  0  0  0  0
   13.2808  -15.4005   25.4576 O   0  0  0  0  0  0  0  0  0  0  0  0
  2  1  1  0
  3  2  2  0
  4  3  1  0
  5  4  2  0
  5 11  1  0
  6  5  1  0
  7  8  1  6
  7  6  1  0
  9 13  1  0
  9  7  1  0
 10  9  2  0
 11 12  2  0
 12  2  1  0
 14 15  1  1
 14 25  1  0
 14 13  1  0
 16 17  2  0
 16 15  1  0
 18 17  1  0
 19 24  2  0
 19 18  1  0
 20 19  1  0
 21 22  1  0
 21 20  2  0
 22 23  2  0
 23 24  1  0
 24 16  1  0
 25 33  1  0
 26 25  2  0
 27 28  1  0
 28 29  2  0
 30 31  1  0
 30 28  1  0
 32 33  1  0
 32 34  1  0
 32 31  1  6
 34 35  2  0
 34 36  1  0
M  END
$$$$
