YWQ.pdb
     RDKit          3D

 36 38  0  0  1  0  0  0  0  0999 V2000
    7.3513  -13.2664   16.5777 O   0  0  0  0  0  0  0  0  0  0  0  0
    7.6371  -13.4375   17.9429 C   0  0  0  0  0  0  0  0  0  0  0  0
    6.6071  -13.5715   18.8509 C   0  0  0  0  0  0  0  0  0  0  0  0
    6.9177  -13.7371   20.1747 C   0  0  0  0  0  0  0  0  0  0  0  0
    8.2243  -13.7731   20.6199 C   0  0  0  0  0  0  0  0  0  0  0  0
    8.5723  -13.9552   22.0605 C   0  0  0  0  0  0  0  0  0  0  0  0
    9.1099  -15.3705   22.1974 C   0  0  2  0  0  0  0  0  0  0  0  0
    8.1312  -16.3330   21.7411 N   0  0  0  0  0  0  0  0  0  0  0  0
    9.4124  -15.6451   23.6176 C   0  0  0  0  0  0  0  0  0  0  0  0
   10.2746  -14.9565   24.2054 O   0  0  0  0  0  0  0  0  0  0  0  0
    9.2358  -13.6370   19.6944 C   0  0  0  0  0  0  0  0  0  0  0  0
    8.9424  -13.4676   18.3433 C   0  0  0  0  0  0  0  0  0  0  0  0
    8.7230  -16.6785   24.2811 N   0  0  0  0  0  0  0  0  0  0  0  0
    9.0730  -17.0122   25.6477 C   0  0  1  0  0  0  0  0  0  0  0  0
    7.8688  -16.7788   26.4797 C   0  0  0  0  0  0  0  0  0  0  0  0
    7.1275  -15.5614   26.1710 C   0  0  0  0  0  0  0  0  0  0  0  0
    5.9226  -15.4629   25.4641 C   0  0  0  0  0  0  0  0  0  0  0  0
    5.6229  -14.1662   25.3861 N   0  0  0  0  0  0  0  0  0  0  0  0
    6.5743  -13.4374   26.0072 C   0  0  0  0  0  0  0  0  0  0  0  0
    6.7328  -12.0746   26.2240 C   0  0  0  0  0  0  0  0  0  0  0  0
    7.8150  -11.5828   26.9225 C   0  0  0  0  0  0  0  0  0  0  0  0
    8.7724  -12.4241   27.4276 C   0  0  0  0  0  0  0  0  0  0  0  0
    8.6258  -13.7750   27.2181 C   0  0  0  0  0  0  0  0  0  0  0  0
    7.5322  -14.2775   26.5110 C   0  0  0  0  0  0  0  0  0  0  0  0
    9.7606  -18.2900   25.7622 C   0  0  0  0  0  0  0  0  0  0  0  0
    9.4937  -19.2185   24.9686 O   0  0  0  0  0  0  0  0  0  0  0  0
   13.1237  -19.7085   22.6041 N   0  0  0  0  0  0  0  0  0  0  0  0
   14.0471  -20.1332   23.5871 C   0  0  0  0  0  0  0  0  0  0  0  0
   15.0024  -20.8765   23.2254 O   0  0  0  0  0  0  0  0  0  0  0  0
   13.8687  -19.6929   24.9845 C   0  0  0  0  0  0  0  0  0  0  0  0
   12.5768  -19.0211   25.2800 C   0  0  0  0  0  0  0  0  0  0  0  0
   11.9118  -19.4230   26.5414 C   0  0  2  0  0  0  0  0  0  0  0  0
   10.7391  -18.5271   26.7579 N   0  0  0  0  0  0  0  0  0  0  0  0
   12.6776  -19.4856   27.7683 C   0  0  0  0  0  0  0  0  0  0  0  0
   12.5990  -18.6535   28.6998 O   0  0  0  0  0  0  0  0  0  0  0  0
   13.5823  -20.5304   27.9747 O   0  0  0  0  0  0  0  0  0  0  0  0
  2  1  1  0
  3  2  2  0
  4  3  1  0
  5  4  2  0
  5 11  1  0
  6  5  1  0
  7  8  1  1
  7  6  1  0
  9 13  1  0
  9  7  1  0
 10  9  2  0
 11 12  2  0
 12  2  1  0
 14 15  1  1
 14 25  1  0
 14 13  1  0
 16 17  2  0
 16 15  1  0
 18 17  1  0
 19 24  2  0
 19 18  1  0
 20 19  1  0
 21 22  1  0
 21 20  2  0
 22 23  2  0
 23 24  1  0
 24 16  1  0
 25 33  1  0
 26 25  2  0
 27 28  1  0
 28 29  2  0
 30 31  1  0
 30 28  1  0
 32 33  1  0
 32 34  1  0
 32 31  1  6
 34 35  2  0
 34 36  1  0
M  END
$$$$
