YWQ.pdb
     RDKit          3D

 36 38  0  0  1  0  0  0  0  0999 V2000
   12.8964  -18.8547   14.3846 O   0  0  0  0  0  0  0  0  0  0  0  0
   12.6834  -18.2608   15.6403 C   0  0  0  0  0  0  0  0  0  0  0  0
   12.5782  -19.0503   16.7668 C   0  0  0  0  0  0  0  0  0  0  0  0
   12.3710  -18.4420   17.9765 C   0  0  0  0  0  0  0  0  0  0  0  0
   12.2655  -17.0705   18.0963 C   0  0  0  0  0  0  0  0  0  0  0  0
   12.0417  -16.3986   19.4109 C   0  0  0  0  0  0  0  0  0  0  0  0
   10.7890  -17.0223   20.0048 C   0  0  2  0  0  0  0  0  0  0  0  0
    9.6958  -16.9674   19.0592 N   0  0  0  0  0  0  0  0  0  0  0  0
   10.3980  -16.2762   21.2191 C   0  0  0  0  0  0  0  0  0  0  0  0
   11.2007  -15.4610   21.7233 O   0  0  0  0  0  0  0  0  0  0  0  0
   12.3738  -16.3029   16.9573 C   0  0  0  0  0  0  0  0  0  0  0  0
   12.5846  -16.9010   15.7170 C   0  0  0  0  0  0  0  0  0  0  0  0
    9.1277  -16.4990   21.7849 N   0  0  0  0  0  0  0  0  0  0  0  0
    8.8554  -16.0500   23.1360 C   0  0  1  0  0  0  0  0  0  0  0  0
    7.5807  -15.2947   23.1000 C   0  0  0  0  0  0  0  0  0  0  0  0
    7.0456  -14.9177   24.4033 C   0  0  0  0  0  0  0  0  0  0  0  0
    6.3902  -15.7496   25.3196 C   0  0  0  0  0  0  0  0  0  0  0  0
    6.0421  -14.9872   26.3564 N   0  0  0  0  0  0  0  0  0  0  0  0
    6.4432  -13.7157   26.1459 C   0  0  0  0  0  0  0  0  0  0  0  0
    6.3469  -12.5545   26.9019 C   0  0  0  0  0  0  0  0  0  0  0  0
    6.8697  -11.3614   26.4499 C   0  0  0  0  0  0  0  0  0  0  0  0
    7.5034  -11.2814   25.2369 C   0  0  0  0  0  0  0  0  0  0  0  0
    7.6037  -12.4247   24.4799 C   0  0  0  0  0  0  0  0  0  0  0  0
    7.0754  -13.6346   24.9330 C   0  0  0  0  0  0  0  0  0  0  0  0
    9.0114  -17.1044   24.1273 C   0  0  0  0  0  0  0  0  0  0  0  0
    8.5748  -18.2526   23.8949 O   0  0  0  0  0  0  0  0  0  0  0  0
   12.4981  -19.2112   22.4420 N   0  0  0  0  0  0  0  0  0  0  0  0
   12.9257  -19.8044   23.6522 C   0  0  0  0  0  0  0  0  0  0  0  0
   13.5910  -20.8764   23.5876 O   0  0  0  0  0  0  0  0  0  0  0  0
   12.5895  -19.1546   24.9340 C   0  0  0  0  0  0  0  0  0  0  0  0
   11.7445  -17.9371   24.8278 C   0  0  0  0  0  0  0  0  0  0  0  0
   10.7340  -17.7553   25.8959 C   0  0  2  0  0  0  0  0  0  0  0  0
    9.6506  -16.8752   25.3699 N   0  0  0  0  0  0  0  0  0  0  0  0
   11.1421  -17.2597   27.1934 C   0  0  0  0  0  0  0  0  0  0  0  0
   12.0074  -17.7969   27.9208 O   0  0  0  0  0  0  0  0  0  0  0  0
   10.5577  -16.1023   27.7146 O   0  0  0  0  0  0  0  0  0  0  0  0
  2  1  1  0
  3  2  2  0
  4  3  1  0
  5  4  2  0
  5 11  1  0
  6  5  1  0
  7  8  1  6
  7  6  1  0
  9 13  1  0
  9  7  1  0
 10  9  2  0
 11 12  2  0
 12  2  1  0
 14 15  1  6
 14 25  1  0
 14 13  1  0
 16 17  2  0
 16 15  1  0
 18 17  1  0
 19 24  2  0
 19 18  1  0
 20 19  1  0
 21 22  1  0
 21 20  2  0
 22 23  2  0
 23 24  1  0
 24 16  1  0
 25 33  1  0
 26 25  2  0
 27 28  1  0
 28 29  2  0
 30 31  1  0
 30 28  1  0
 32 33  1  0
 32 34  1  0
 32 31  1  6
 34 35  2  0
 34 36  1  0
M  END
$$$$
