YWQ.pdb
     RDKit          3D

 36 38  0  0  1  0  0  0  0  0999 V2000
    6.8652  -24.1146   28.3498 O   0  0  0  0  0  0  0  0  0  0  0  0
    7.1227  -23.2922   27.2398 C   0  0  0  0  0  0  0  0  0  0  0  0
    8.1780  -22.4040   27.2705 C   0  0  0  0  0  0  0  0  0  0  0  0
    8.4037  -21.6161   26.1730 C   0  0  0  0  0  0  0  0  0  0  0  0
    7.6088  -21.6874   25.0462 C   0  0  0  0  0  0  0  0  0  0  0  0
    7.8485  -20.8341   23.8445 C   0  0  0  0  0  0  0  0  0  0  0  0
    6.9175  -19.6392   23.9730 C   0  0  2  0  0  0  0  0  0  0  0  0
    5.7806  -19.7826   23.0903 N   0  0  0  0  0  0  0  0  0  0  0  0
    7.6464  -18.4076   23.6044 C   0  0  0  0  0  0  0  0  0  0  0  0
    7.6624  -18.0385   22.4100 O   0  0  0  0  0  0  0  0  0  0  0  0
    6.5609  -22.5819   25.0390 C   0  0  0  0  0  0  0  0  0  0  0  0
    6.3135  -23.3927   26.1444 C   0  0  0  0  0  0  0  0  0  0  0  0
    8.3094  -17.6737   24.6070 N   0  0  0  0  0  0  0  0  0  0  0  0
    9.0571  -16.4843   24.2496 C   0  0  1  0  0  0  0  0  0  0  0  0
    9.1361  -15.6338   25.4608 C   0  0  0  0  0  0  0  0  0  0  0  0
    7.8638  -15.0890   25.9207 C   0  0  0  0  0  0  0  0  0  0  0  0
    6.7059  -15.8066   26.2451 C   0  0  0  0  0  0  0  0  0  0  0  0
    5.7764  -14.9124   26.5826 N   0  0  0  0  0  0  0  0  0  0  0  0
    6.2847  -13.6654   26.4898 C   0  0  0  0  0  0  0  0  0  0  0  0
    5.7548  -12.4056   26.7377 C   0  0  0  0  0  0  0  0  0  0  0  0
    6.5142  -11.2661   26.5772 C   0  0  0  0  0  0  0  0  0  0  0  0
    7.8203  -11.3386   26.1669 C   0  0  0  0  0  0  0  0  0  0  0  0
    8.3547  -12.5807   25.9179 C   0  0  0  0  0  0  0  0  0  0  0  0
    7.5896  -13.7370   26.0784 C   0  0  0  0  0  0  0  0  0  0  0  0
   10.2852  -16.7812   23.5268 C   0  0  0  0  0  0  0  0  0  0  0  0
   10.9653  -17.7848   23.8326 O   0  0  0  0  0  0  0  0  0  0  0  0
   12.6524  -13.7193   17.8584 N   0  0  0  0  0  0  0  0  0  0  0  0
   13.3616  -14.0414   19.0384 C   0  0  0  0  0  0  0  0  0  0  0  0
   14.6204  -14.1253   18.9726 O   0  0  0  0  0  0  0  0  0  0  0  0
   12.6159  -14.2592   20.2932 C   0  0  0  0  0  0  0  0  0  0  0  0
   11.9328  -15.5737   20.4075 C   0  0  0  0  0  0  0  0  0  0  0  0
   12.0158  -16.2335   21.7314 C   0  0  2  0  0  0  0  0  0  0  0  0
   10.7492  -15.9606   22.4702 N   0  0  0  0  0  0  0  0  0  0  0  0
   13.1322  -15.9471   22.6075 C   0  0  0  0  0  0  0  0  0  0  0  0
   14.3343  -16.1320   22.3125 O   0  0  0  0  0  0  0  0  0  0  0  0
   12.9029  -15.4260   23.8836 O   0  0  0  0  0  0  0  0  0  0  0  0
  2  1  1  0
  3  2  2  0
  4  3  1  0
  5  4  2  0
  5 11  1  0
  6  5  1  0
  7  8  1  6
  7  6  1  0
  9 13  1  0
  9  7  1  0
 10  9  2  0
 11 12  2  0
 12  2  1  0
 14 15  1  1
 14 25  1  0
 14 13  1  0
 16 17  2  0
 16 15  1  0
 18 17  1  0
 19 24  2  0
 19 18  1  0
 20 19  1  0
 21 22  1  0
 21 20  2  0
 22 23  2  0
 23 24  1  0
 24 16  1  0
 25 33  1  0
 26 25  2  0
 27 28  1  0
 28 29  2  0
 30 31  1  0
 30 28  1  0
 32 33  1  0
 32 34  1  0
 32 31  1  6
 34 35  2  0
 34 36  1  0
M  END
$$$$
