YWQ.pdb
     RDKit          3D

 36 38  0  0  1  0  0  0  0  0999 V2000
   11.8356  -21.4741   15.4739 O   0  0  0  0  0  0  0  0  0  0  0  0
   11.7928  -20.7470   16.6757 C   0  0  0  0  0  0  0  0  0  0  0  0
   12.9162  -20.0784   17.1167 C   0  0  0  0  0  0  0  0  0  0  0  0
   12.8430  -19.3782   18.2917 C   0  0  0  0  0  0  0  0  0  0  0  0
   11.6836  -19.3247   19.0397 C   0  0  0  0  0  0  0  0  0  0  0  0
   11.5941  -18.5624   20.3205 C   0  0  0  0  0  0  0  0  0  0  0  0
   10.6512  -17.3981   20.0630 C   0  0  2  0  0  0  0  0  0  0  0  0
   11.2035  -16.5068   19.0666 N   0  0  0  0  0  0  0  0  0  0  0  0
   10.4553  -16.6390   21.3157 C   0  0  0  0  0  0  0  0  0  0  0  0
   11.4452  -16.1318   21.8868 O   0  0  0  0  0  0  0  0  0  0  0  0
   10.5749  -20.0004   18.5790 C   0  0  0  0  0  0  0  0  0  0  0  0
   10.6273  -20.7187   17.3867 C   0  0  0  0  0  0  0  0  0  0  0  0
    9.1562  -16.5023   21.8420 N   0  0  0  0  0  0  0  0  0  0  0  0
    8.9758  -15.9684   23.1776 C   0  0  1  0  0  0  0  0  0  0  0  0
    7.6191  -15.3747   23.2344 C   0  0  0  0  0  0  0  0  0  0  0  0
    7.1942  -14.9224   24.5543 C   0  0  0  0  0  0  0  0  0  0  0  0
    6.5081  -15.6672   25.5215 C   0  0  0  0  0  0  0  0  0  0  0  0
    6.2937  -14.8553   26.5570 N   0  0  0  0  0  0  0  0  0  0  0  0
    6.8086  -13.6349   26.2972 C   0  0  0  0  0  0  0  0  0  0  0  0
    6.8695  -12.4567   27.0303 C   0  0  0  0  0  0  0  0  0  0  0  0
    7.4846  -11.3310   26.5251 C   0  0  0  0  0  0  0  0  0  0  0  0
    8.0581  -11.3371   25.2799 C   0  0  0  0  0  0  0  0  0  0  0  0
    8.0029  -12.4979   24.5451 C   0  0  0  0  0  0  0  0  0  0  0  0
    7.3806  -13.6398   25.0522 C   0  0  0  0  0  0  0  0  0  0  0  0
    9.3702  -16.9034   24.2212 C   0  0  0  0  0  0  0  0  0  0  0  0
    8.9582  -18.0835   24.1936 O   0  0  0  0  0  0  0  0  0  0  0  0
   13.2525  -20.1694   25.2609 N   0  0  0  0  0  0  0  0  0  0  0  0
   13.3055  -19.8979   26.6475 C   0  0  0  0  0  0  0  0  0  0  0  0
   13.8471  -20.7544   27.4018 O   0  0  0  0  0  0  0  0  0  0  0  0
   12.7388  -18.6348   27.1589 C   0  0  0  0  0  0  0  0  0  0  0  0
   12.0980  -17.7656   26.1384 C   0  0  0  0  0  0  0  0  0  0  0  0
   10.6617  -17.4701   26.3495 C   0  0  2  0  0  0  0  0  0  0  0  0
   10.2187  -16.5203   25.2882 N   0  0  0  0  0  0  0  0  0  0  0  0
   10.2124  -16.9713   27.6321 C   0  0  0  0  0  0  0  0  0  0  0  0
    9.9946  -17.6849   28.6369 O   0  0  0  0  0  0  0  0  0  0  0  0
    9.9918  -15.6031   27.8113 O   0  0  0  0  0  0  0  0  0  0  0  0
  2  1  1  0
  3  2  2  0
  4  3  1  0
  5  4  2  0
  5 11  1  0
  6  5  1  0
  7  8  1  6
  7  6  1  0
  9 13  1  0
  9  7  1  0
 10  9  2  0
 11 12  2  0
 12  2  1  0
 14 15  1  1
 14 25  1  0
 14 13  1  0
 16 17  2  0
 16 15  1  0
 18 17  1  0
 19 24  2  0
 19 18  1  0
 20 19  1  0
 21 22  1  0
 21 20  2  0
 22 23  2  0
 23 24  1  0
 24 16  1  0
 25 33  1  0
 26 25  2  0
 27 28  1  0
 28 29  2  0
 30 31  1  0
 30 28  1  0
 32 33  1  0
 32 34  1  0
 32 31  1  1
 34 35  2  0
 34 36  1  0
M  END
$$$$
