YWQ.pdb
     RDKit          3D

 36 38  0  0  1  0  0  0  0  0999 V2000
    7.4517  -13.6234   16.0721 O   0  0  0  0  0  0  0  0  0  0  0  0
    7.5264  -13.8042   17.4637 C   0  0  0  0  0  0  0  0  0  0  0  0
    6.8336  -14.8361   18.0625 C   0  0  0  0  0  0  0  0  0  0  0  0
    6.9267  -14.9867   19.4208 C   0  0  0  0  0  0  0  0  0  0  0  0
    7.6896  -14.1393   20.1995 C   0  0  0  0  0  0  0  0  0  0  0  0
    7.7986  -14.2969   21.6803 C   0  0  0  0  0  0  0  0  0  0  0  0
    8.9400  -15.2704   21.9263 C   0  0  2  0  0  0  0  0  0  0  0  0
    8.5988  -16.5885   21.4379 N   0  0  0  0  0  0  0  0  0  0  0  0
    9.2036  -15.3607   23.3776 C   0  0  0  0  0  0  0  0  0  0  0  0
    9.7469  -14.3990   23.9634 O   0  0  0  0  0  0  0  0  0  0  0  0
    8.3724  -13.1160   19.5789 C   0  0  0  0  0  0  0  0  0  0  0  0
    8.2917  -12.9448   18.1989 C   0  0  0  0  0  0  0  0  0  0  0  0
    8.8374  -16.5296   24.0726 N   0  0  0  0  0  0  0  0  0  0  0  0
    9.1861  -16.6708   25.4725 C   0  0  1  0  0  0  0  0  0  0  0  0
    7.9202  -16.6688   26.2434 C   0  0  0  0  0  0  0  0  0  0  0  0
    7.0804  -15.4915   26.0548 C   0  0  0  0  0  0  0  0  0  0  0  0
    5.8006  -15.4495   25.4879 C   0  0  0  0  0  0  0  0  0  0  0  0
    5.4201  -14.1717   25.4822 N   0  0  0  0  0  0  0  0  0  0  0  0
    6.3913  -13.4016   26.0166 C   0  0  0  0  0  0  0  0  0  0  0  0
    6.4946  -12.0372   26.2554 C   0  0  0  0  0  0  0  0  0  0  0  0
    7.6178  -11.4974   26.8451 C   0  0  0  0  0  0  0  0  0  0  0  0
    8.6723  -12.2909   27.2164 C   0  0  0  0  0  0  0  0  0  0  0  0
    8.5810  -13.6429   26.9839 C   0  0  0  0  0  0  0  0  0  0  0  0
    7.4461  -14.1938   26.3865 C   0  0  0  0  0  0  0  0  0  0  0  0
   10.1459  -17.7381   25.7140 C   0  0  0  0  0  0  0  0  0  0  0  0
    9.7920  -18.7745   26.3172 O   0  0  0  0  0  0  0  0  0  0  0  0
   15.8183  -18.0293   22.8730 N   0  0  0  0  0  0  0  0  0  0  0  0
   14.5231  -17.8698   22.3285 C   0  0  0  0  0  0  0  0  0  0  0  0
   14.4243  -17.5483   21.1109 O   0  0  0  0  0  0  0  0  0  0  0  0
   13.3449  -18.0886   23.1901 C   0  0  0  0  0  0  0  0  0  0  0  0
   13.6454  -18.4765   24.5925 C   0  0  0  0  0  0  0  0  0  0  0  0
   12.4718  -18.7579   25.4519 C   0  0  2  0  0  0  0  0  0  0  0  0
   11.4920  -17.6459   25.2843 N   0  0  0  0  0  0  0  0  0  0  0  0
   12.6596  -18.9983   26.8671 C   0  0  0  0  0  0  0  0  0  0  0  0
   12.1372  -18.3200   27.7799 O   0  0  0  0  0  0  0  0  0  0  0  0
   13.4730  -20.0509   27.2950 O   0  0  0  0  0  0  0  0  0  0  0  0
  2  1  1  0
  3  2  2  0
  4  3  1  0
  5  4  2  0
  5 11  1  0
  6  5  1  0
  7  8  1  1
  7  6  1  0
  9 13  1  0
  9  7  1  0
 10  9  2  0
 11 12  2  0
 12  2  1  0
 14 15  1  1
 14 25  1  0
 14 13  1  0
 16 17  2  0
 16 15  1  0
 18 17  1  0
 19 24  2  0
 19 18  1  0
 20 19  1  0
 21 22  1  0
 21 20  2  0
 22 23  2  0
 23 24  1  0
 24 16  1  0
 25 33  1  0
 26 25  2  0
 27 28  1  0
 28 29  2  0
 30 31  1  0
 30 28  1  0
 32 33  1  0
 32 34  1  0
 32 31  1  1
 34 35  2  0
 34 36  1  0
M  END
$$$$
