YWQ.pdb
     RDKit          3D

 36 38  0  0  1  0  0  0  0  0999 V2000
    8.8984  -12.5797   17.4149 O   0  0  0  0  0  0  0  0  0  0  0  0
    8.3033  -13.2963   18.4671 C   0  0  0  0  0  0  0  0  0  0  0  0
    8.6874  -14.5973   18.7183 C   0  0  0  0  0  0  0  0  0  0  0  0
    8.0892  -15.2695   19.7510 C   0  0  0  0  0  0  0  0  0  0  0  0
    7.1197  -14.6832   20.5404 C   0  0  0  0  0  0  0  0  0  0  0  0
    6.4637  -15.4075   21.6694 C   0  0  0  0  0  0  0  0  0  0  0  0
    7.0631  -16.8043   21.6905 C   0  0  2  0  0  0  0  0  0  0  0  0
    6.0445  -17.7991   21.4359 N   0  0  0  0  0  0  0  0  0  0  0  0
    7.6528  -17.0650   23.0203 C   0  0  0  0  0  0  0  0  0  0  0  0
    6.9209  -17.4793   23.9454 O   0  0  0  0  0  0  0  0  0  0  0  0
    6.7526  -13.3831   20.2702 C   0  0  0  0  0  0  0  0  0  0  0  0
    7.3482  -12.6811   19.2248 C   0  0  0  0  0  0  0  0  0  0  0  0
    9.0289  -16.8410   23.2192 N   0  0  0  0  0  0  0  0  0  0  0  0
    9.4620  -15.7908   24.1196 C   0  0  1  0  0  0  0  0  0  0  0  0
    8.8973  -16.0961   25.4555 C   0  0  0  0  0  0  0  0  0  0  0  0
    7.6954  -15.3485   25.8070 C   0  0  0  0  0  0  0  0  0  0  0  0
    6.3795  -15.8271   25.8283 C   0  0  0  0  0  0  0  0  0  0  0  0
    5.5989  -14.8020   26.1711 N   0  0  0  0  0  0  0  0  0  0  0  0
    6.3512  -13.6989   26.3690 C   0  0  0  0  0  0  0  0  0  0  0  0
    6.0439  -12.3979   26.7464 C   0  0  0  0  0  0  0  0  0  0  0  0
    7.0292  -11.4454   26.8972 C   0  0  0  0  0  0  0  0  0  0  0  0
    8.3477  -11.7512   26.6796 C   0  0  0  0  0  0  0  0  0  0  0  0
    8.6631  -13.0359   26.3049 C   0  0  0  0  0  0  0  0  0  0  0  0
    7.6689  -14.0034   26.1502 C   0  0  0  0  0  0  0  0  0  0  0  0
   10.8852  -15.5039   24.0151 C   0  0  0  0  0  0  0  0  0  0  0  0
   11.3867  -14.5703   24.6784 O   0  0  0  0  0  0  0  0  0  0  0  0
   10.8621  -20.8308   25.7500 N   0  0  0  0  0  0  0  0  0  0  0  0
   12.0221  -20.1370   26.1652 C   0  0  0  0  0  0  0  0  0  0  0  0
   12.4010  -20.2732   27.3626 O   0  0  0  0  0  0  0  0  0  0  0  0
   12.7455  -19.2927   25.1945 C   0  0  0  0  0  0  0  0  0  0  0  0
   11.9776  -18.1398   24.6574 C   0  0  0  0  0  0  0  0  0  0  0  0
   12.6988  -17.2727   23.6968 C   0  0  2  0  0  0  0  0  0  0  0  0
   11.7408  -16.2560   23.1740 N   0  0  0  0  0  0  0  0  0  0  0  0
   13.3972  -17.8676   22.5770 C   0  0  0  0  0  0  0  0  0  0  0  0
   13.0302  -17.7842   21.3834 O   0  0  0  0  0  0  0  0  0  0  0  0
   14.5697  -18.5967   22.7924 O   0  0  0  0  0  0  0  0  0  0  0  0
  2  1  1  0
  3  2  2  0
  4  3  1  0
  5  4  2  0
  5 11  1  0
  6  5  1  0
  7  8  1  1
  7  6  1  0
  9 13  1  0
  9  7  1  0
 10  9  2  0
 11 12  2  0
 12  2  1  0
 14 15  1  1
 14 25  1  0
 14 13  1  0
 16 17  2  0
 16 15  1  0
 18 17  1  0
 19 24  2  0
 19 18  1  0
 20 19  1  0
 21 22  1  0
 21 20  2  0
 22 23  2  0
 23 24  1  0
 24 16  1  0
 25 33  1  0
 26 25  2  0
 27 28  1  0
 28 29  2  0
 30 31  1  0
 30 28  1  0
 32 33  1  0
 32 34  1  0
 32 31  1  6
 34 35  2  0
 34 36  1  0
M  END
$$$$
