YWQ.pdb
     RDKit          3D

 36 38  0  0  1  0  0  0  0  0999 V2000
    7.2437  -15.1161   14.0040 O   0  0  0  0  0  0  0  0  0  0  0  0
    7.7861  -14.8070   15.2630 C   0  0  0  0  0  0  0  0  0  0  0  0
    8.6487  -15.6912   15.8773 C   0  0  0  0  0  0  0  0  0  0  0  0
    9.1610  -15.3615   17.1041 C   0  0  0  0  0  0  0  0  0  0  0  0
    8.8390  -14.1770   17.7364 C   0  0  0  0  0  0  0  0  0  0  0  0
    9.3942  -13.8083   19.0726 C   0  0  0  0  0  0  0  0  0  0  0  0
    9.8390  -15.1066   19.7265 C   0  0  2  0  0  0  0  0  0  0  0  0
    8.8889  -16.1635   19.4573 N   0  0  0  0  0  0  0  0  0  0  0  0
    9.9263  -14.9144   21.1891 C   0  0  0  0  0  0  0  0  0  0  0  0
   10.8550  -14.2241   21.6628 O   0  0  0  0  0  0  0  0  0  0  0  0
    7.9755  -13.3100   17.1032 C   0  0  0  0  0  0  0  0  0  0  0  0
    7.4428  -13.6254   15.8554 C   0  0  0  0  0  0  0  0  0  0  0  0
    8.9609  -15.5135   22.0212 N   0  0  0  0  0  0  0  0  0  0  0  0
    8.8213  -15.0685   23.3938 C   0  0  1  0  0  0  0  0  0  0  0  0
    7.3927  -15.2152   23.7605 C   0  0  0  0  0  0  0  0  0  0  0  0
    7.0442  -14.7494   25.0979 C   0  0  0  0  0  0  0  0  0  0  0  0
    6.5377  -15.5171   26.1539 C   0  0  0  0  0  0  0  0  0  0  0  0
    6.3312  -14.6849   27.1748 N   0  0  0  0  0  0  0  0  0  0  0  0
    6.6809  -13.4299   26.8216 C   0  0  0  0  0  0  0  0  0  0  0  0
    6.6781  -12.2187   27.5016 C   0  0  0  0  0  0  0  0  0  0  0  0
    7.1148  -11.0587   26.8980 C   0  0  0  0  0  0  0  0  0  0  0  0
    7.5676  -11.0619   25.6040 C   0  0  0  0  0  0  0  0  0  0  0  0
    7.5740  -12.2553   24.9212 C   0  0  0  0  0  0  0  0  0  0  0  0
    7.1322  -13.4322   25.5279 C   0  0  0  0  0  0  0  0  0  0  0  0
    9.8284  -15.6341   24.2796 C   0  0  0  0  0  0  0  0  0  0  0  0
   10.6128  -14.8819   24.8976 O   0  0  0  0  0  0  0  0  0  0  0  0
    7.8703  -19.9220   27.9577 N   0  0  0  0  0  0  0  0  0  0  0  0
    9.2172  -19.8976   28.3874 C   0  0  0  0  0  0  0  0  0  0  0  0
    9.5194  -20.5340   29.4360 O   0  0  0  0  0  0  0  0  0  0  0  0
   10.2131  -19.1436   27.6014 C   0  0  0  0  0  0  0  0  0  0  0  0
    9.6742  -18.4113   26.4263 C   0  0  0  0  0  0  0  0  0  0  0  0
   10.6581  -17.6240   25.6471 C   0  0  2  0  0  0  0  0  0  0  0  0
    9.9571  -17.0310   24.4717 N   0  0  0  0  0  0  0  0  0  0  0  0
   11.8785  -18.2529   25.1878 C   0  0  0  0  0  0  0  0  0  0  0  0
   12.8185  -18.6113   25.9322 O   0  0  0  0  0  0  0  0  0  0  0  0
   12.0678  -18.4986   23.8253 O   0  0  0  0  0  0  0  0  0  0  0  0
  2  1  1  0
  3  2  2  0
  4  3  1  0
  5  4  2  0
  5 11  1  0
  6  5  1  0
  7  8  1  1
  7  6  1  0
  9 13  1  0
  9  7  1  0
 10  9  2  0
 11 12  2  0
 12  2  1  0
 14 15  1  1
 14 25  1  0
 14 13  1  0
 16 17  2  0
 16 15  1  0
 18 17  1  0
 19 24  2  0
 19 18  1  0
 20 19  1  0
 21 22  1  0
 21 20  2  0
 22 23  2  0
 23 24  1  0
 24 16  1  0
 25 33  1  0
 26 25  2  0
 27 28  1  0
 28 29  2  0
 30 31  1  0
 30 28  1  0
 32 33  1  0
 32 34  1  0
 32 31  1  6
 34 35  2  0
 34 36  1  0
M  END
$$$$
