YWQ.pdb
     RDKit          3D

 36 38  0  0  1  0  0  0  0  0999 V2000
    7.4169  -14.5099   15.9767 O   0  0  0  0  0  0  0  0  0  0  0  0
    7.7355  -14.4546   17.3443 C   0  0  0  0  0  0  0  0  0  0  0  0
    8.3429  -15.5327   17.9542 C   0  0  0  0  0  0  0  0  0  0  0  0
    8.6412  -15.4485   19.2885 C   0  0  0  0  0  0  0  0  0  0  0  0
    8.3520  -14.3217   20.0323 C   0  0  0  0  0  0  0  0  0  0  0  0
    8.6753  -14.2201   21.4866 C   0  0  0  0  0  0  0  0  0  0  0  0
    9.3767  -15.5153   21.8626 C   0  0  2  0  0  0  0  0  0  0  0  0
    8.4569  -16.6297   21.7972 N   0  0  0  0  0  0  0  0  0  0  0  0
    9.8914  -15.4112   23.2440 C   0  0  0  0  0  0  0  0  0  0  0  0
   10.7863  -14.5778   23.5040 O   0  0  0  0  0  0  0  0  0  0  0  0
    7.7452  -13.2578   19.4012 C   0  0  0  0  0  0  0  0  0  0  0  0
    7.4331  -13.3223   18.0452 C   0  0  0  0  0  0  0  0  0  0  0  0
    9.3632  -16.2541   24.2409 N   0  0  0  0  0  0  0  0  0  0  0  0
    9.7011  -16.0203   25.6311 C   0  0  1  0  0  0  0  0  0  0  0  0
    8.4472  -16.1315   26.4133 C   0  0  0  0  0  0  0  0  0  0  0  0
    7.4051  -15.1762   26.0549 C   0  0  0  0  0  0  0  0  0  0  0  0
    6.1950  -15.4508   25.4060 C   0  0  0  0  0  0  0  0  0  0  0  0
    5.5656  -14.2860   25.2486 N   0  0  0  0  0  0  0  0  0  0  0  0
    6.3131  -13.2874   25.7645 C   0  0  0  0  0  0  0  0  0  0  0  0
    6.1179  -11.9164   25.8722 C   0  0  0  0  0  0  0  0  0  0  0  0
    7.0558  -11.1058   26.4757 C   0  0  0  0  0  0  0  0  0  0  0  0
    8.2144  -11.6270   26.9910 C   0  0  0  0  0  0  0  0  0  0  0  0
    8.4182  -12.9829   26.8891 C   0  0  0  0  0  0  0  0  0  0  0  0
    7.4719  -13.8074   26.2783 C   0  0  0  0  0  0  0  0  0  0  0  0
   10.8635  -16.7794   26.0686 C   0  0  0  0  0  0  0  0  0  0  0  0
   11.4669  -16.4545   27.1143 O   0  0  0  0  0  0  0  0  0  0  0  0
   11.0308  -20.3617   29.6564 N   0  0  0  0  0  0  0  0  0  0  0  0
   10.3182  -20.7506   28.4987 C   0  0  0  0  0  0  0  0  0  0  0  0
    9.3433  -21.5420   28.6372 O   0  0  0  0  0  0  0  0  0  0  0  0
   10.7291  -20.2193   27.1845 C   0  0  0  0  0  0  0  0  0  0  0  0
   11.9075  -19.3147   27.2041 C   0  0  0  0  0  0  0  0  0  0  0  0
   12.3736  -18.8299   25.8840 C   0  0  2  0  0  0  0  0  0  0  0  0
   11.3475  -17.8934   25.3407 N   0  0  0  0  0  0  0  0  0  0  0  0
   12.7216  -19.7828   24.8513 C   0  0  0  0  0  0  0  0  0  0  0  0
   12.1156  -19.9067   23.7633 O   0  0  0  0  0  0  0  0  0  0  0  0
   13.8034  -20.6480   25.0349 O   0  0  0  0  0  0  0  0  0  0  0  0
  2  1  1  0
  3  2  2  0
  4  3  1  0
  5  4  2  0
  5 11  1  0
  6  5  1  0
  7  8  1  1
  7  6  1  0
  9 13  1  0
  9  7  1  0
 10  9  2  0
 11 12  2  0
 12  2  1  0
 14 15  1  1
 14 25  1  0
 14 13  1  0
 16 17  2  0
 16 15  1  0
 18 17  1  0
 19 24  2  0
 19 18  1  0
 20 19  1  0
 21 22  1  0
 21 20  2  0
 22 23  2  0
 23 24  1  0
 24 16  1  0
 25 33  1  0
 26 25  2  0
 27 28  1  0
 28 29  2  0
 30 31  1  0
 30 28  1  0
 32 33  1  0
 32 34  1  0
 32 31  1  1
 34 35  2  0
 34 36  1  0
M  END
$$$$
