YWQ.pdb
     RDKit          3D

 36 38  0  0  1  0  0  0  0  0999 V2000
   10.5390  -21.8158   15.5333 O   0  0  0  0  0  0  0  0  0  0  0  0
   10.6143  -21.0586   16.7148 C   0  0  0  0  0  0  0  0  0  0  0  0
   11.3084  -21.5465   17.8026 C   0  0  0  0  0  0  0  0  0  0  0  0
   11.3640  -20.7849   18.9398 C   0  0  0  0  0  0  0  0  0  0  0  0
   10.7483  -19.5519   19.0246 C   0  0  0  0  0  0  0  0  0  0  0  0
   10.8052  -18.7140   20.2592 C   0  0  0  0  0  0  0  0  0  0  0  0
    9.9248  -17.5026   19.9977 C   0  0  2  0  0  0  0  0  0  0  0  0
   10.4763  -16.6929   18.9335 N   0  0  0  0  0  0  0  0  0  0  0  0
    9.8468  -16.6794   21.2226 C   0  0  0  0  0  0  0  0  0  0  0  0
   10.8239  -15.9708   21.5487 O   0  0  0  0  0  0  0  0  0  0  0  0
   10.0610  -19.0858   17.9252 C   0  0  0  0  0  0  0  0  0  0  0  0
    9.9918  -19.8439   16.7587 C   0  0  0  0  0  0  0  0  0  0  0  0
    8.6723  -16.7098   21.9990 N   0  0  0  0  0  0  0  0  0  0  0  0
    8.6432  -16.0368   23.2826 C   0  0  1  0  0  0  0  0  0  0  0  0
    7.2338  -15.6666   23.5533 C   0  0  0  0  0  0  0  0  0  0  0  0
    6.9686  -15.1770   24.9013 C   0  0  0  0  0  0  0  0  0  0  0  0
    6.5372  -15.9270   26.0023 C   0  0  0  0  0  0  0  0  0  0  0  0
    6.3904  -15.0763   27.0183 N   0  0  0  0  0  0  0  0  0  0  0  0
    6.7068  -13.8263   26.6192 C   0  0  0  0  0  0  0  0  0  0  0  0
    6.7384  -12.6020   27.2746 C   0  0  0  0  0  0  0  0  0  0  0  0
    7.1262  -11.4512   26.6219 C   0  0  0  0  0  0  0  0  0  0  0  0
    7.4947  -11.4769   25.3017 C   0  0  0  0  0  0  0  0  0  0  0  0
    7.4665  -12.6834   24.6429 C   0  0  0  0  0  0  0  0  0  0  0  0
    7.0738  -13.8510   25.2994 C   0  0  0  0  0  0  0  0  0  0  0  0
    9.3862  -16.7469   24.3133 C   0  0  0  0  0  0  0  0  0  0  0  0
    9.2469  -17.9821   24.4477 O   0  0  0  0  0  0  0  0  0  0  0  0
   15.0531  -15.8714   24.3877 N   0  0  0  0  0  0  0  0  0  0  0  0
   14.4528  -17.0956   24.0132 C   0  0  0  0  0  0  0  0  0  0  0  0
   15.0841  -17.8509   23.2214 O   0  0  0  0  0  0  0  0  0  0  0  0
   13.1276  -17.4476   24.5592 C   0  0  0  0  0  0  0  0  0  0  0  0
   12.6072  -16.5315   25.6068 C   0  0  0  0  0  0  0  0  0  0  0  0
   11.2296  -16.8040   26.0789 C   0  0  2  0  0  0  0  0  0  0  0  0
   10.2779  -16.0795   25.1877 N   0  0  0  0  0  0  0  0  0  0  0  0
   10.8746  -16.5279   27.4549 C   0  0  0  0  0  0  0  0  0  0  0  0
   11.5331  -16.9061   28.4497 O   0  0  0  0  0  0  0  0  0  0  0  0
    9.7237  -15.7903   27.7450 O   0  0  0  0  0  0  0  0  0  0  0  0
  2  1  1  0
  3  2  2  0
  4  3  1  0
  5  4  2  0
  5 11  1  0
  6  5  1  0
  7  8  1  6
  7  6  1  0
  9 13  1  0
  9  7  1  0
 10  9  2  0
 11 12  2  0
 12  2  1  0
 14 15  1  1
 14 25  1  0
 14 13  1  0
 16 17  2  0
 16 15  1  0
 18 17  1  0
 19 24  2  0
 19 18  1  0
 20 19  1  0
 21 22  1  0
 21 20  2  0
 22 23  2  0
 23 24  1  0
 24 16  1  0
 25 33  1  0
 26 25  2  0
 27 28  1  0
 28 29  2  0
 30 31  1  0
 30 28  1  0
 32 33  1  0
 32 34  1  0
 32 31  1  6
 34 35  2  0
 34 36  1  0
M  END
$$$$
