LNC.pdb
     RDKit          3D

 23 22  0  0  1  0  0  0  0  0999 V2000
   23.9891  -12.2324  -20.5049 C   0  0  0  0  0  0  0  0  0  0  0  0
   22.5939  -12.8212  -20.5151 C   0  0  2  0  0  0  0  0  0  0  0  0
   22.2526  -13.1332  -21.9676 C   0  0  0  0  0  0  0  0  0  0  0  0
   21.5861  -11.8416  -19.9218 C   0  0  0  0  0  0  0  0  0  0  0  0
   22.0944  -11.4651  -18.5494 C   0  0  2  0  0  0  0  0  0  0  0  0
   22.0047  -12.6648  -17.7261 N   0  0  0  0  0  0  0  0  0  0  0  0
   21.2898  -10.3981  -17.9233 C   0  0  0  0  0  0  0  0  0  0  0  0
   21.2196   -9.2954  -18.5313 O   0  0  0  0  0  0  0  0  0  0  0  0
   17.5466  -10.5333  -17.3505 N   0  0  0  0  0  0  0  0  0  0  0  0
   17.5600  -10.6098  -15.9332 C   0  0  0  0  0  0  0  0  0  0  0  0
   16.6063  -11.1735  -15.3464 O   0  0  0  0  0  0  0  0  0  0  0  0
   18.6988  -10.0208  -15.2158 C   0  0  0  0  0  0  0  0  0  0  0  0
   19.7856   -9.4822  -16.1199 C   0  0  2  0  0  0  0  0  0  0  0  0
   20.5994  -10.5210  -16.7045 N   0  0  0  0  0  0  0  0  0  0  0  0
   20.5930   -8.5264  -15.3210 C   0  0  0  0  0  0  0  0  0  0  0  0
   21.5898   -8.9495  -14.6797 O   0  0  0  0  0  0  0  0  0  0  0  0
   20.3106   -7.1485  -15.2318 N   0  0  0  0  0  0  0  0  0  0  0  0
   21.1227   -6.1883  -14.5290 C   0  0  1  0  0  0  0  0  0  0  0  0
   22.4993   -6.2144  -15.2075 C   0  0  0  0  0  0  0  0  0  0  0  0
   23.5576   -4.9009  -14.5405 S   0  0  0  0  0  0  0  0  0  0  0  0
   20.6244   -4.8100  -14.6421 C   0  0  0  0  0  0  0  0  0  0  0  0
   19.9646   -4.4772  -15.6404 O   0  0  0  0  0  0  0  0  0  0  0  0
   20.8826   -3.8933  -13.6559 O   0  0  0  0  0  0  0  0  0  0  0  0
  2  1  1  6
  2  3  1  0
  4  5  1  0
  4  2  1  0
  5  6  1  1
  7  5  1  0
  7  8  2  0
 10 12  1  0
 10  9  1  0
 11 10  2  0
 13 12  1  1
 13 14  1  0
 14  7  1  0
 15 13  1  0
 15 17  1  0
 16 15  2  0
 18 17  1  0
 18 21  1  0
 19 20  1  0
 18 19  1  6
 21 22  2  0
 21 23  1  0
M  END
$$$$
