LNC.pdb
     RDKit          3D

 23 22  0  0  1  0  0  0  0  0999 V2000
   17.4569  -14.9106  -15.2667 C   0  0  0  0  0  0  0  0  0  0  0  0
   18.2268  -15.1087  -16.5555 C   0  0  2  0  0  0  0  0  0  0  0  0
   18.4246  -16.6101  -16.7300 C   0  0  0  0  0  0  0  0  0  0  0  0
   19.5711  -14.3893  -16.5017 C   0  0  0  0  0  0  0  0  0  0  0  0
   19.2756  -12.9171  -16.3325 C   0  0  2  0  0  0  0  0  0  0  0  0
   18.4072  -12.5346  -17.4393 N   0  0  0  0  0  0  0  0  0  0  0  0
   20.4958  -12.0883  -16.3778 C   0  0  0  0  0  0  0  0  0  0  0  0
   21.3612  -12.2852  -15.4819 O   0  0  0  0  0  0  0  0  0  0  0  0
   24.0211  -12.2035  -18.7093 N   0  0  0  0  0  0  0  0  0  0  0  0
   22.9595  -11.4867  -19.3207 C   0  0  0  0  0  0  0  0  0  0  0  0
   22.3915  -11.9805  -20.3233 O   0  0  0  0  0  0  0  0  0  0  0  0
   22.5735  -10.1909  -18.7457 C   0  0  0  0  0  0  0  0  0  0  0  0
   21.9540  -10.2870  -17.3689 C   0  0  2  0  0  0  0  0  0  0  0  0
   20.7619  -11.1001  -17.3421 N   0  0  0  0  0  0  0  0  0  0  0  0
   21.6930   -8.9018  -16.9032 C   0  0  0  0  0  0  0  0  0  0  0  0
   22.6491   -8.0864  -16.8324 O   0  0  0  0  0  0  0  0  0  0  0  0
   20.4190   -8.4307  -16.5275 N   0  0  0  0  0  0  0  0  0  0  0  0
   20.1457   -7.1017  -16.0429 C   0  0  1  0  0  0  0  0  0  0  0  0
   18.6376   -6.8818  -16.2250 C   0  0  0  0  0  0  0  0  0  0  0  0
   18.1378   -5.2967  -15.4987 S   0  0  0  0  0  0  0  0  0  0  0  0
   20.4246   -6.9357  -14.6092 C   0  0  0  0  0  0  0  0  0  0  0  0
   20.1047   -7.8352  -13.8147 O   0  0  0  0  0  0  0  0  0  0  0  0
   21.0334   -5.7980  -14.1456 O   0  0  0  0  0  0  0  0  0  0  0  0
  2  1  1  1
  2  3  1  0
  4  5  1  0
  4  2  1  0
  5  6  1  6
  7  5  1  0
  7  8  2  0
 10 12  1  0
 10  9  1  0
 11 10  2  0
 13 12  1  6
 13 14  1  0
 14  7  1  0
 15 13  1  0
 15 17  1  0
 16 15  2  0
 18 17  1  0
 18 21  1  0
 19 20  1  0
 18 19  1  1
 21 22  2  0
 21 23  1  0
M  END
$$$$
