LNC.pdb
     RDKit          3D

 23 22  0  0  1  0  0  0  0  0999 V2000
   25.6757  -16.7120  -15.4114 C   0  0  0  0  0  0  0  0  0  0  0  0
   25.7113  -17.5541  -16.6695 C   0  0  2  0  0  0  0  0  0  0  0  0
   26.1494  -16.6381  -17.8064 C   0  0  0  0  0  0  0  0  0  0  0  0
   24.3400  -18.1568  -16.9592 C   0  0  0  0  0  0  0  0  0  0  0  0
   23.9928  -19.0437  -15.7861 C   0  0  2  0  0  0  0  0  0  0  0  0
   25.0122  -20.0845  -15.7320 N   0  0  0  0  0  0  0  0  0  0  0  0
   22.6702  -19.6815  -15.9335 C   0  0  0  0  0  0  0  0  0  0  0  0
   22.4248  -20.2558  -17.0291 O   0  0  0  0  0  0  0  0  0  0  0  0
   20.1824  -22.0188  -11.7068 N   0  0  0  0  0  0  0  0  0  0  0  0
   20.5945  -21.1516  -12.7522 C   0  0  0  0  0  0  0  0  0  0  0  0
   21.3237  -20.1702  -12.4752 O   0  0  0  0  0  0  0  0  0  0  0  0
   20.1438  -21.4469  -14.1190 C   0  0  0  0  0  0  0  0  0  0  0  0
   20.3781  -20.3215  -15.1025 C   0  0  2  0  0  0  0  0  0  0  0  0
   21.6690  -19.6952  -14.9462 N   0  0  0  0  0  0  0  0  0  0  0  0
   19.2660  -19.3519  -14.9390 C   0  0  0  0  0  0  0  0  0  0  0  0
   19.4228  -18.3580  -14.1830 O   0  0  0  0  0  0  0  0  0  0  0  0
   18.0210  -19.4739  -15.5882 N   0  0  0  0  0  0  0  0  0  0  0  0
   16.9056  -18.5821  -15.3980 C   0  0  1  0  0  0  0  0  0  0  0  0
   16.8287  -17.7174  -16.6638 C   0  0  0  0  0  0  0  0  0  0  0  0
   15.3986  -18.1973  -17.6710 S   0  0  0  0  0  0  0  0  0  0  0  0
   15.6159  -19.2782  -15.2854 C   0  0  0  0  0  0  0  0  0  0  0  0
   15.5524  -20.4940  -15.5311 O   0  0  0  0  0  0  0  0  0  0  0  0
   14.4867  -18.5958  -14.9122 O   0  0  0  0  0  0  0  0  0  0  0  0
  2  1  1  1
  2  3  1  0
  4  5  1  0
  4  2  1  0
  5  6  1  6
  7  5  1  0
  7  8  2  0
 10 12  1  0
 10  9  1  0
 11 10  2  0
 13 12  1  1
 13 14  1  0
 14  7  1  0
 15 13  1  0
 15 17  1  0
 16 15  2  0
 18 17  1  0
 18 21  1  0
 19 20  1  0
 18 19  1  6
 21 22  2  0
 21 23  1  0
M  END
$$$$
