LNC.pdb
     RDKit          3D

 23 22  0  0  1  0  0  0  0  0999 V2000
   27.1611  -18.4087   -6.3704 C   0  0  0  0  0  0  0  0  0  0  0  0
   26.9652  -19.6996   -5.6033 C   0  0  2  0  0  0  0  0  0  0  0  0
   28.2629  -19.9727   -4.8518 C   0  0  0  0  0  0  0  0  0  0  0  0
   26.6368  -20.8500   -6.5500 C   0  0  0  0  0  0  0  0  0  0  0  0
   25.2985  -20.5351   -7.1770 C   0  0  2  0  0  0  0  0  0  0  0  0
   24.2869  -21.1872   -6.3544 N   0  0  0  0  0  0  0  0  0  0  0  0
   25.1888  -21.0447   -8.5577 C   0  0  0  0  0  0  0  0  0  0  0  0
   25.0106  -22.2846   -8.7031 O   0  0  0  0  0  0  0  0  0  0  0  0
   24.3173  -22.5098  -13.3275 N   0  0  0  0  0  0  0  0  0  0  0  0
   23.8487  -21.1909  -13.0921 C   0  0  0  0  0  0  0  0  0  0  0  0
   23.4178  -20.5180  -14.0581 O   0  0  0  0  0  0  0  0  0  0  0  0
   23.8911  -20.6728  -11.7179 C   0  0  0  0  0  0  0  0  0  0  0  0
   25.2510  -20.7724  -11.0628 C   0  0  2  0  0  0  0  0  0  0  0  0
   25.2682  -20.2523   -9.7166 N   0  0  0  0  0  0  0  0  0  0  0  0
   26.2189  -20.0703  -11.9426 C   0  0  0  0  0  0  0  0  0  0  0  0
   26.1079  -18.8280  -12.1110 O   0  0  0  0  0  0  0  0  0  0  0  0
   27.2751  -20.7170  -12.6154 N   0  0  0  0  0  0  0  0  0  0  0  0
   28.2663  -20.0493  -13.4199 C   0  0  1  0  0  0  0  0  0  0  0  0
   29.5395  -20.9012  -13.3242 C   0  0  0  0  0  0  0  0  0  0  0  0
   30.5059  -20.4311  -11.8631 S   0  0  0  0  0  0  0  0  0  0  0  0
   27.9113  -19.9826  -14.8448 C   0  0  0  0  0  0  0  0  0  0  0  0
   28.6829  -19.4255  -15.6429 O   0  0  0  0  0  0  0  0  0  0  0  0
   26.7380  -20.5296  -15.2963 O   0  0  0  0  0  0  0  0  0  0  0  0
  2  1  1  6
  2  3  1  0
  4  5  1  0
  4  2  1  0
  5  6  1  1
  7  5  1  0
  7  8  2  0
 10 12  1  0
 10  9  1  0
 11 10  2  0
 13 12  1  6
 13 14  1  0
 14  7  1  0
 15 13  1  0
 15 17  1  0
 16 15  2  0
 18 17  1  0
 18 21  1  0
 19 20  1  0
 18 19  1  6
 21 22  2  0
 21 23  1  0
M  END
$$$$
