LNC.pdb
     RDKit          3D

 23 22  0  0  1  0  0  0  0  0999 V2000
   19.5489  -16.5537  -16.8507 C   0  0  0  0  0  0  0  0  0  0  0  0
   21.0496  -16.7559  -16.8382 C   0  0  2  0  0  0  0  0  0  0  0  0
   21.3022  -18.1902  -16.3880 C   0  0  0  0  0  0  0  0  0  0  0  0
   21.7236  -15.7663  -15.8928 C   0  0  0  0  0  0  0  0  0  0  0  0
   21.4540  -14.3833  -16.4387 C   0  0  2  0  0  0  0  0  0  0  0  0
   21.8544  -14.4011  -17.8404 N   0  0  0  0  0  0  0  0  0  0  0  0
   22.2266  -13.3398  -15.7372 C   0  0  0  0  0  0  0  0  0  0  0  0
   22.0740  -13.2493  -14.4887 O   0  0  0  0  0  0  0  0  0  0  0  0
   25.6261   -9.7671  -14.3151 N   0  0  0  0  0  0  0  0  0  0  0  0
   26.1275  -10.3222  -15.5214 C   0  0  0  0  0  0  0  0  0  0  0  0
   27.2930  -10.0353  -15.8834 O   0  0  0  0  0  0  0  0  0  0  0  0
   25.2512  -11.2128  -16.2941 C   0  0  0  0  0  0  0  0  0  0  0  0
   23.9028  -11.4590  -15.6539 C   0  0  2  0  0  0  0  0  0  0  0  0
   23.1159  -12.4439  -16.3567 N   0  0  0  0  0  0  0  0  0  0  0  0
   23.2078  -10.1501  -15.5677 C   0  0  0  0  0  0  0  0  0  0  0  0
   23.7166   -9.2279  -14.8789 O   0  0  0  0  0  0  0  0  0  0  0  0
   21.9910   -9.8669  -16.2200 N   0  0  0  0  0  0  0  0  0  0  0  0
   21.2812   -8.6167  -16.1260 C   0  0  1  0  0  0  0  0  0  0  0  0
   20.6843   -8.5691  -14.7127 C   0  0  0  0  0  0  0  0  0  0  0  0
   19.5851   -9.9864  -14.4429 S   0  0  0  0  0  0  0  0  0  0  0  0
   22.1537   -7.4406  -16.2537 C   0  0  0  0  0  0  0  0  0  0  0  0
   23.3703   -7.5985  -16.4474 O   0  0  0  0  0  0  0  0  0  0  0  0
   21.6342   -6.1752  -16.1607 O   0  0  0  0  0  0  0  0  0  0  0  0
  2  1  1  1
  2  3  1  0
  4  5  1  0
  4  2  1  0
  5  6  1  6
  7  5  1  0
  7  8  2  0
 10 12  1  0
 10  9  1  0
 11 10  2  0
 13 12  1  6
 13 14  1  0
 14  7  1  0
 15 13  1  0
 15 17  1  0
 16 15  2  0
 18 17  1  0
 18 21  1  0
 19 20  1  0
 18 19  1  1
 21 22  2  0
 21 23  1  0
M  END
$$$$
