LNC.pdb
     RDKit          3D

 23 22  0  0  1  0  0  0  0  0999 V2000
   20.7316  -11.4859  -19.9932 C   0  0  0  0  0  0  0  0  0  0  0  0
   19.5228  -11.9669  -19.2181 C   0  0  2  0  0  0  0  0  0  0  0  0
   18.3571  -12.0203  -20.1988 C   0  0  0  0  0  0  0  0  0  0  0  0
   19.2107  -11.0256  -18.0587 C   0  0  0  0  0  0  0  0  0  0  0  0
   20.4070  -11.0530  -17.1359 C   0  0  2  0  0  0  0  0  0  0  0  0
   20.4043  -12.3577  -16.4855 N   0  0  0  0  0  0  0  0  0  0  0  0
   20.3431  -10.0051  -16.0987 C   0  0  0  0  0  0  0  0  0  0  0  0
   19.5032  -10.1612  -15.1710 O   0  0  0  0  0  0  0  0  0  0  0  0
   22.7545   -4.8158  -13.9988 N   0  0  0  0  0  0  0  0  0  0  0  0
   22.2029   -6.0920  -13.7129 C   0  0  0  0  0  0  0  0  0  0  0  0
   21.6401   -6.2766  -12.6080 O   0  0  0  0  0  0  0  0  0  0  0  0
   22.3182   -7.1437  -14.7323 C   0  0  0  0  0  0  0  0  0  0  0  0
   20.9998   -7.7792  -15.1149 C   0  0  2  0  0  0  0  0  0  0  0  0
   21.1464   -8.8513  -16.0700 N   0  0  0  0  0  0  0  0  0  0  0  0
   20.1181   -6.6984  -15.6230 C   0  0  0  0  0  0  0  0  0  0  0  0
   20.4337   -6.0934  -16.6804 O   0  0  0  0  0  0  0  0  0  0  0  0
   18.9267   -6.2974  -14.9857 N   0  0  0  0  0  0  0  0  0  0  0  0
   18.0509   -5.2577  -15.4628 C   0  0  1  0  0  0  0  0  0  0  0  0
   16.6343   -5.6594  -15.0293 C   0  0  0  0  0  0  0  0  0  0  0  0
   16.1582   -7.2296  -15.8026 S   0  0  0  0  0  0  0  0  0  0  0  0
   18.3198   -3.9458  -14.8566 C   0  0  0  0  0  0  0  0  0  0  0  0
   19.2362   -3.8310  -14.0262 O   0  0  0  0  0  0  0  0  0  0  0  0
   17.5678   -2.8524  -15.2012 O   0  0  0  0  0  0  0  0  0  0  0  0
  2  1  1  6
  2  3  1  0
  4  5  1  0
  4  2  1  0
  5  6  1  1
  7  5  1  0
  7  8  2  0
 10 12  1  0
 10  9  1  0
 11 10  2  0
 13 12  1  6
 13 14  1  0
 14  7  1  0
 15 13  1  0
 15 17  1  0
 16 15  2  0
 18 17  1  0
 18 21  1  0
 19 20  1  0
 18 19  1  1
 21 22  2  0
 21 23  1  0
M  END
$$$$
