LNC.pdb
     RDKit          3D

 23 22  0  0  1  0  0  0  0  0999 V2000
   10.7145  -13.1432  -11.9935 C   0  0  0  0  0  0  0  0  0  0  0  0
   11.4664  -13.2807  -10.6862 C   0  0  2  0  0  0  0  0  0  0  0  0
   10.4897  -13.8602   -9.6694 C   0  0  0  0  0  0  0  0  0  0  0  0
   11.9945  -11.9281  -10.2180 C   0  0  0  0  0  0  0  0  0  0  0  0
   12.9112  -11.4142  -11.3037 C   0  0  2  0  0  0  0  0  0  0  0  0
   14.0822  -12.2827  -11.3087 N   0  0  0  0  0  0  0  0  0  0  0  0
   13.3503  -10.0264  -11.0609 C   0  0  0  0  0  0  0  0  0  0  0  0
   12.4568   -9.1376  -11.0150 O   0  0  0  0  0  0  0  0  0  0  0  0
   17.4743   -6.4284   -8.7532 N   0  0  0  0  0  0  0  0  0  0  0  0
   16.0945   -6.6848   -8.9652 C   0  0  0  0  0  0  0  0  0  0  0  0
   15.2833   -5.7308   -8.9050 O   0  0  0  0  0  0  0  0  0  0  0  0
   15.6790   -8.0654   -9.2473 C   0  0  0  0  0  0  0  0  0  0  0  0
   15.1020   -8.2655  -10.6313 C   0  0  2  0  0  0  0  0  0  0  0  0
   14.6855   -9.6252  -10.8779 N   0  0  0  0  0  0  0  0  0  0  0  0
   16.1243   -7.8113  -11.6072 C   0  0  0  0  0  0  0  0  0  0  0  0
   17.2458   -8.3818  -11.6333 O   0  0  0  0  0  0  0  0  0  0  0  0
   15.9170   -6.7618  -12.5248 N   0  0  0  0  0  0  0  0  0  0  0  0
   16.9009   -6.2865  -13.4637 C   0  0  1  0  0  0  0  0  0  0  0  0
   16.2026   -6.2438  -14.8300 C   0  0  0  0  0  0  0  0  0  0  0  0
   15.8548   -7.9252  -15.4147 S   0  0  0  0  0  0  0  0  0  0  0  0
   17.3604   -4.9187  -13.1836 C   0  0  0  0  0  0  0  0  0  0  0  0
   16.8117   -4.2601  -12.2848 O   0  0  0  0  0  0  0  0  0  0  0  0
   18.3873   -4.3677  -13.9059 O   0  0  0  0  0  0  0  0  0  0  0  0
  2  1  1  6
  2  3  1  0
  4  5  1  0
  4  2  1  0
  5  6  1  1
  7  5  1  0
  7  8  2  0
 10 12  1  0
 10  9  1  0
 11 10  2  0
 13 12  1  1
 13 14  1  0
 14  7  1  0
 15 13  1  0
 15 17  1  0
 16 15  2  0
 18 17  1  0
 18 21  1  0
 19 20  1  0
 18 19  1  6
 21 22  2  0
 21 23  1  0
M  END
$$$$
