LNC.pdb
     RDKit          3D

 23 22  0  0  1  0  0  0  0  0999 V2000
   27.6199  -22.0665  -15.8528 C   0  0  0  0  0  0  0  0  0  0  0  0
   26.1445  -21.7324  -15.7822 C   0  0  2  0  0  0  0  0  0  0  0  0
   25.7723  -21.0769  -17.1071 C   0  0  0  0  0  0  0  0  0  0  0  0
   25.8550  -20.7937  -14.6149 C   0  0  0  0  0  0  0  0  0  0  0  0
   26.4118  -21.4511  -13.3735 C   0  0  2  0  0  0  0  0  0  0  0  0
   25.7738  -22.7578  -13.2698 N   0  0  0  0  0  0  0  0  0  0  0  0
   26.1198  -20.6814  -12.1486 C   0  0  0  0  0  0  0  0  0  0  0  0
   26.2528  -19.4288  -12.2082 O   0  0  0  0  0  0  0  0  0  0  0  0
   23.1718  -19.8664  -11.2586 N   0  0  0  0  0  0  0  0  0  0  0  0
   22.9089  -20.4664   -9.9995 C   0  0  0  0  0  0  0  0  0  0  0  0
   21.7193  -20.6699   -9.6602 O   0  0  0  0  0  0  0  0  0  0  0  0
   24.0512  -20.8233   -9.1472 C   0  0  0  0  0  0  0  0  0  0  0  0
   25.3976  -20.4749   -9.7425 C   0  0  2  0  0  0  0  0  0  0  0  0
   25.7061  -21.2404  -10.9265 N   0  0  0  0  0  0  0  0  0  0  0  0
   26.4146  -20.6632   -8.6777 C   0  0  0  0  0  0  0  0  0  0  0  0
   26.8590  -21.8182   -8.4491 O   0  0  0  0  0  0  0  0  0  0  0  0
   26.9254  -19.6119   -7.8901 N   0  0  0  0  0  0  0  0  0  0  0  0
   27.8081  -19.7840   -6.7646 C   0  0  1  0  0  0  0  0  0  0  0  0
   28.2107  -18.3720   -6.3170 C   0  0  0  0  0  0  0  0  0  0  0  0
   29.2940  -18.4543   -4.8646 S   0  0  0  0  0  0  0  0  0  0  0  0
   27.1614  -20.4227   -5.6094 C   0  0  0  0  0  0  0  0  0  0  0  0
   25.9239  -20.5246   -5.5791 O   0  0  0  0  0  0  0  0  0  0  0  0
   27.9133  -20.9048   -4.5692 O   0  0  0  0  0  0  0  0  0  0  0  0
  2  1  1  6
  2  3  1  0
  4  5  1  0
  4  2  1  0
  5  6  1  1
  7  5  1  0
  7  8  2  0
 10 12  1  0
 10  9  1  0
 11 10  2  0
 13 12  1  1
 13 14  1  0
 14  7  1  0
 15 13  1  0
 15 17  1  0
 16 15  2  0
 18 17  1  0
 18 21  1  0
 19 20  1  0
 18 19  1  1
 21 22  2  0
 21 23  1  0
M  END
$$$$
