LNC.pdb
     RDKit          3D

 23 22  0  0  1  0  0  0  0  0999 V2000
   22.8932  -14.4521  -19.7490 C   0  0  0  0  0  0  0  0  0  0  0  0
   23.3117  -13.5801  -18.5838 C   0  0  2  0  0  0  0  0  0  0  0  0
   23.7601  -14.5148  -17.4663 C   0  0  0  0  0  0  0  0  0  0  0  0
   22.1548  -12.7000  -18.1205 C   0  0  0  0  0  0  0  0  0  0  0  0
   22.5485  -11.2695  -18.4069 C   0  0  2  0  0  0  0  0  0  0  0  0
   23.8297  -11.0478  -17.7476 N   0  0  0  0  0  0  0  0  0  0  0  0
   21.5692  -10.2990  -17.8804 C   0  0  0  0  0  0  0  0  0  0  0  0
   20.3530  -10.5064  -18.1414 O   0  0  0  0  0  0  0  0  0  0  0  0
   17.8165   -7.4850  -16.0348 N   0  0  0  0  0  0  0  0  0  0  0  0
   18.8666   -7.9502  -15.2009 C   0  0  0  0  0  0  0  0  0  0  0  0
   18.9244   -7.5470  -14.0152 O   0  0  0  0  0  0  0  0  0  0  0  0
   19.8430   -8.8887  -15.7703 C   0  0  0  0  0  0  0  0  0  0  0  0
   20.9244   -8.2279  -16.5965 C   0  0  2  0  0  0  0  0  0  0  0  0
   21.8922   -9.1658  -17.1130 N   0  0  0  0  0  0  0  0  0  0  0  0
   21.5567   -7.1872  -15.7474 C   0  0  0  0  0  0  0  0  0  0  0  0
   22.1636   -7.5330  -14.7004 O   0  0  0  0  0  0  0  0  0  0  0  0
   21.5212   -5.8097  -16.0430 N   0  0  0  0  0  0  0  0  0  0  0  0
   22.1919   -4.7890  -15.2789 C   0  0  1  0  0  0  0  0  0  0  0  0
   22.6785   -3.7453  -16.2938 C   0  0  0  0  0  0  0  0  0  0  0  0
   23.9040   -4.4762  -17.4136 S   0  0  0  0  0  0  0  0  0  0  0  0
   21.3041   -4.0836  -14.3434 C   0  0  0  0  0  0  0  0  0  0  0  0
   20.0824   -4.3049  -14.3735 O   0  0  0  0  0  0  0  0  0  0  0  0
   21.8149   -3.1863  -13.4413 O   0  0  0  0  0  0  0  0  0  0  0  0
  2  1  1  6
  2  3  1  0
  4  5  1  0
  4  2  1  0
  5  6  1  1
  7  5  1  0
  7  8  2  0
 10 12  1  0
 10  9  1  0
 11 10  2  0
 13 12  1  1
 13 14  1  0
 14  7  1  0
 15 13  1  0
 15 17  1  0
 16 15  2  0
 18 17  1  0
 18 21  1  0
 19 20  1  0
 18 19  1  6
 21 22  2  0
 21 23  1  0
M  END
$$$$
