LNC.pdb
     RDKit          3D

 23 22  0  0  1  0  0  0  0  0999 V2000
   24.0653  -24.1741  -18.7361 C   0  0  0  0  0  0  0  0  0  0  0  0
   25.2988  -23.3964  -18.3275 C   0  0  2  0  0  0  0  0  0  0  0  0
   25.6713  -22.5016  -19.5041 C   0  0  0  0  0  0  0  0  0  0  0  0
   26.4466  -24.3400  -17.9818 C   0  0  0  0  0  0  0  0  0  0  0  0
   25.8910  -25.3809  -17.0379 C   0  0  2  0  0  0  0  0  0  0  0  0
   25.6791  -24.7153  -15.7583 N   0  0  0  0  0  0  0  0  0  0  0  0
   26.8175  -26.5120  -16.8372 C   0  0  0  0  0  0  0  0  0  0  0  0
   27.7934  -26.3283  -16.0600 O   0  0  0  0  0  0  0  0  0  0  0  0
   27.3742  -32.4083  -15.9134 N   0  0  0  0  0  0  0  0  0  0  0  0
   27.8979  -31.1112  -16.1541 C   0  0  0  0  0  0  0  0  0  0  0  0
   29.1342  -30.9277  -16.0564 O   0  0  0  0  0  0  0  0  0  0  0  0
   26.9601  -30.0373  -16.5088 C   0  0  0  0  0  0  0  0  0  0  0  0
   27.5996  -28.8749  -17.2356 C   0  0  2  0  0  0  0  0  0  0  0  0
   26.6916  -27.7730  -17.4466 N   0  0  0  0  0  0  0  0  0  0  0  0
   28.1460  -29.3978  -18.5130 C   0  0  0  0  0  0  0  0  0  0  0  0
   27.6487  -29.0061  -19.6007 O   0  0  0  0  0  0  0  0  0  0  0  0
   29.2066  -30.3229  -18.5888 N   0  0  0  0  0  0  0  0  0  0  0  0
   29.7179  -30.8863  -19.8122 C   0  0  1  0  0  0  0  0  0  0  0  0
   30.2558  -29.7069  -20.6343 C   0  0  0  0  0  0  0  0  0  0  0  0
   31.0657  -30.3053  -22.1428 S   0  0  0  0  0  0  0  0  0  0  0  0
   30.8477  -31.8033  -19.6036 C   0  0  0  0  0  0  0  0  0  0  0  0
   31.3054  -31.9613  -18.4599 O   0  0  0  0  0  0  0  0  0  0  0  0
   31.3972  -32.4825  -20.6603 O   0  0  0  0  0  0  0  0  0  0  0  0
  2  1  1  6
  2  3  1  0
  4  5  1  0
  4  2  1  0
  5  6  1  1
  7  5  1  0
  7  8  2  0
 10 12  1  0
 10  9  1  0
 11 10  2  0
 13 12  1  6
 13 14  1  0
 14  7  1  0
 15 13  1  0
 15 17  1  0
 16 15  2  0
 18 17  1  0
 18 21  1  0
 19 20  1  0
 18 19  1  6
 21 22  2  0
 21 23  1  0
M  END
$$$$
