DNQ.pdb
     RDKit          3D

 26 25  0  0  1  0  0  0  0  0999 V2000
   23.0340  -11.7546  -17.5209 N   0  0  0  0  0  0  0  0  0  0  0  0
   22.8330  -10.3984  -17.9202 C   0  0  1  0  0  0  0  0  0  0  0  0
   22.2355  -10.2097  -19.2789 C   0  0  0  0  0  0  0  0  0  0  0  0
   23.0178  -10.8883  -20.3171 C   0  0  0  0  0  0  0  0  0  0  0  0
   22.8384  -10.6066  -21.5217 O   0  0  0  0  0  0  0  0  0  0  0  0
   22.0863   -9.6758  -16.8652 C   0  0  0  0  0  0  0  0  0  0  0  0
   21.4442  -10.2757  -15.9557 O   0  0  0  0  0  0  0  0  0  0  0  0
   23.9592  -11.8460  -19.9505 O   0  0  0  0  0  0  0  0  0  0  0  0
   20.9629   -5.7809  -13.5942 N   0  0  0  0  0  0  0  0  0  0  0  0
   22.2999   -5.7547  -14.1122 C   0  0  0  0  0  0  0  0  0  0  0  0
   23.1737   -5.0165  -13.6293 O   0  0  0  0  0  0  0  0  0  0  0  0
   22.6088   -6.6332  -15.2397 C   0  0  0  0  0  0  0  0  0  0  0  0
   21.5083   -7.5226  -15.7064 C   0  0  2  0  0  0  0  0  0  0  0  0
   22.0754   -8.2677  -16.8531 N   0  0  0  0  0  0  0  0  0  0  0  0
   20.3194   -6.7720  -16.2368 C   0  0  0  0  0  0  0  0  0  0  0  0
   19.6254   -5.9886  -15.5490 O   0  0  0  0  0  0  0  0  0  0  0  0
   15.2497   -7.5629  -15.9697 N   0  0  0  0  0  0  0  0  0  0  0  0
   15.8529   -8.4727  -16.8796 C   0  0  0  0  0  0  0  0  0  0  0  0
   15.3391   -9.6012  -17.0760 O   0  0  0  0  0  0  0  0  0  0  0  0
   17.1082   -8.0942  -17.6140 C   0  0  0  0  0  0  0  0  0  0  0  0
   17.4708   -6.6524  -17.3241 C   0  0  0  0  0  0  0  0  0  0  0  0
   18.6982   -6.2686  -18.1037 C   0  0  2  0  0  0  0  0  0  0  0  0
   19.8917   -6.9083  -17.6021 N   0  0  0  0  0  0  0  0  0  0  0  0
   18.8772   -4.7919  -18.0766 C   0  0  0  0  0  0  0  0  0  0  0  0
   17.9268   -4.0264  -17.7710 O   0  0  0  0  0  0  0  0  0  0  0  0
   20.0897   -4.1893  -18.3841 O   0  0  0  0  0  0  0  0  0  0  0  0
  2  3  1  0
  2  1  1  1
  3  4  1  0
  4  8  1  0
  5  4  2  0
  6  2  1  0
  7  6  2  0
  9 10  1  0
 10 12  1  0
 11 10  2  0
 13 12  1  6
 13 14  1  0
 14  6  1  0
 15 13  1  0
 15 16  2  0
 18 17  1  0
 19 18  2  0
 20 18  1  0
 22 21  1  1
 21 20  1  0
 22 23  1  0
 23 15  1  0
 24 22  1  0
 25 24  2  0
 26 24  1  0
M  END
$$$$
