DNQ.pdb
     RDKit          3D

 26 25  0  0  1  0  0  0  0  0999 V2000
   13.7175  -10.2418  -10.8061 N   0  0  0  0  0  0  0  0  0  0  0  0
   15.1376  -10.0930  -10.8228 C   0  0  1  0  0  0  0  0  0  0  0  0
   15.8590  -10.9194  -11.8404 C   0  0  0  0  0  0  0  0  0  0  0  0
   15.5282  -12.3428  -11.7200 C   0  0  0  0  0  0  0  0  0  0  0  0
   15.5800  -12.9063  -10.6054 O   0  0  0  0  0  0  0  0  0  0  0  0
   15.4852   -8.6561  -10.9070 C   0  0  0  0  0  0  0  0  0  0  0  0
   15.0178   -7.8957  -11.8032 O   0  0  0  0  0  0  0  0  0  0  0  0
   15.1573  -13.0591  -12.8546 O   0  0  0  0  0  0  0  0  0  0  0  0
   14.5526   -6.4350   -7.3824 N   0  0  0  0  0  0  0  0  0  0  0  0
   15.1999   -5.7211   -8.4443 C   0  0  0  0  0  0  0  0  0  0  0  0
   14.6177   -4.8291   -9.0824 O   0  0  0  0  0  0  0  0  0  0  0  0
   16.5829   -6.0780   -8.7584 C   0  0  0  0  0  0  0  0  0  0  0  0
   16.8212   -6.6885  -10.0964 C   0  0  2  0  0  0  0  0  0  0  0  0
   16.3675   -8.0916   -9.9657 N   0  0  0  0  0  0  0  0  0  0  0  0
   18.2744   -6.7480  -10.4743 C   0  0  0  0  0  0  0  0  0  0  0  0
   19.0562   -7.6518  -10.0995 O   0  0  0  0  0  0  0  0  0  0  0  0
   20.4678   -9.6450  -14.0788 N   0  0  0  0  0  0  0  0  0  0  0  0
   21.6017   -8.7887  -14.0531 C   0  0  0  0  0  0  0  0  0  0  0  0
   22.6779   -9.1521  -14.5878 O   0  0  0  0  0  0  0  0  0  0  0  0
   21.5242   -7.4435  -13.3877 C   0  0  0  0  0  0  0  0  0  0  0  0
   20.1569   -7.2432  -12.7676 C   0  0  0  0  0  0  0  0  0  0  0  0
   20.1349   -5.9590  -11.9854 C   0  0  2  0  0  0  0  0  0  0  0  0
   18.8757   -5.7462  -11.3113 N   0  0  0  0  0  0  0  0  0  0  0  0
   20.4165   -4.8092  -12.8865 C   0  0  0  0  0  0  0  0  0  0  0  0
   19.4884   -4.2150  -13.4932 O   0  0  0  0  0  0  0  0  0  0  0  0
   21.7048   -4.3382  -13.1019 O   0  0  0  0  0  0  0  0  0  0  0  0
  2  3  1  0
  2  1  1  6
  3  4  1  0
  4  8  1  0
  5  4  2  0
  6  2  1  0
  7  6  2  0
  9 10  1  0
 10 12  1  0
 11 10  2  0
 13 12  1  1
 13 14  1  0
 14  6  1  0
 15 13  1  0
 15 16  2  0
 18 17  1  0
 19 18  2  0
 20 18  1  0
 22 21  1  6
 21 20  1  0
 22 23  1  0
 23 15  1  0
 24 22  1  0
 25 24  2  0
 26 24  1  0
M  END
$$$$
