DNQ.pdb
     RDKit          3D

 26 25  0  0  1  0  0  0  0  0999 V2000
   15.9645  -11.4861  -10.7955 N   0  0  0  0  0  0  0  0  0  0  0  0
   14.8143  -10.7961  -11.2858 C   0  0  1  0  0  0  0  0  0  0  0  0
   13.5103  -11.2064  -10.6774 C   0  0  0  0  0  0  0  0  0  0  0  0
   13.2831  -12.6499  -10.7980 C   0  0  0  0  0  0  0  0  0  0  0  0
   14.0332  -13.3447  -11.5171 O   0  0  0  0  0  0  0  0  0  0  0  0
   15.0424   -9.3350  -11.2104 C   0  0  0  0  0  0  0  0  0  0  0  0
   14.1305   -8.4921  -11.4501 O   0  0  0  0  0  0  0  0  0  0  0  0
   12.2277  -13.2382  -10.1065 O   0  0  0  0  0  0  0  0  0  0  0  0
   15.7484   -5.3219   -7.7291 N   0  0  0  0  0  0  0  0  0  0  0  0
   15.8523   -5.5755   -9.1366 C   0  0  0  0  0  0  0  0  0  0  0  0
   16.0745   -4.6645   -9.9504 O   0  0  0  0  0  0  0  0  0  0  0  0
   15.6870   -6.9553   -9.5922 C   0  0  0  0  0  0  0  0  0  0  0  0
   16.5523   -7.3860  -10.7260 C   0  0  2  0  0  0  0  0  0  0  0  0
   16.3140   -8.8408  -10.8613 N   0  0  0  0  0  0  0  0  0  0  0  0
   18.0206   -7.2223  -10.4510 C   0  0  0  0  0  0  0  0  0  0  0  0
   18.6691   -7.9526   -9.6672 O   0  0  0  0  0  0  0  0  0  0  0  0
   20.2878   -9.7769  -14.3156 N   0  0  0  0  0  0  0  0  0  0  0  0
   21.4553   -8.9846  -14.1459 C   0  0  0  0  0  0  0  0  0  0  0  0
   22.5326   -9.3246  -14.6936 O   0  0  0  0  0  0  0  0  0  0  0  0
   21.4123   -7.7355  -13.3114 C   0  0  0  0  0  0  0  0  0  0  0  0
   20.0674   -7.6085  -12.6264 C   0  0  0  0  0  0  0  0  0  0  0  0
   20.0897   -6.4481  -11.6702 C   0  0  2  0  0  0  0  0  0  0  0  0
   18.7944   -6.1909  -11.0859 N   0  0  0  0  0  0  0  0  0  0  0  0
   20.5727   -5.2248  -12.3657 C   0  0  0  0  0  0  0  0  0  0  0  0
   19.7684   -4.4233  -12.9073 O   0  0  0  0  0  0  0  0  0  0  0  0
   21.9220   -4.9084  -12.4517 O   0  0  0  0  0  0  0  0  0  0  0  0
  2  3  1  0
  2  1  1  1
  3  4  1  0
  4  8  1  0
  5  4  2  0
  6  2  1  0
  7  6  2  0
  9 10  1  0
 10 12  1  0
 11 10  2  0
 13 12  1  1
 13 14  1  0
 14  6  1  0
 15 13  1  0
 15 16  2  0
 18 17  1  0
 19 18  2  0
 20 18  1  0
 22 21  1  6
 21 20  1  0
 22 23  1  0
 23 15  1  0
 24 22  1  0
 25 24  2  0
 26 24  1  0
M  END
$$$$
