DNQ.pdb
     RDKit          3D

 26 25  0  0  1  0  0  0  0  0999 V2000
   17.1675   -8.8457  -17.1006 N   0  0  0  0  0  0  0  0  0  0  0  0
   17.5803   -8.0781  -15.9695 C   0  0  1  0  0  0  0  0  0  0  0  0
   17.6711   -6.6013  -16.1929 C   0  0  0  0  0  0  0  0  0  0  0  0
   18.7569   -6.2556  -17.1158 C   0  0  0  0  0  0  0  0  0  0  0  0
   18.9617   -6.9538  -18.1322 O   0  0  0  0  0  0  0  0  0  0  0  0
   16.7408   -8.4259  -14.8004 C   0  0  0  0  0  0  0  0  0  0  0  0
   15.5276   -8.7654  -14.9125 O   0  0  0  0  0  0  0  0  0  0  0  0
   19.5552   -5.1464  -16.8509 O   0  0  0  0  0  0  0  0  0  0  0  0
   15.0846   -9.9513  -10.2385 N   0  0  0  0  0  0  0  0  0  0  0  0
   16.2537  -10.6263  -10.7223 C   0  0  0  0  0  0  0  0  0  0  0  0
   16.6232  -11.7136  -10.2502 O   0  0  0  0  0  0  0  0  0  0  0  0
   17.0080   -9.9895  -11.8012 C   0  0  0  0  0  0  0  0  0  0  0  0
   16.4644   -8.7023  -12.3184 C   0  0  2  0  0  0  0  0  0  0  0  0
   17.2909   -8.3842  -13.5048 N   0  0  0  0  0  0  0  0  0  0  0  0
   16.6377   -7.5553  -11.3631 C   0  0  0  0  0  0  0  0  0  0  0  0
   17.7496   -7.0765  -11.0424 O   0  0  0  0  0  0  0  0  0  0  0  0
   12.9548   -5.5203  -12.1555 N   0  0  0  0  0  0  0  0  0  0  0  0
   13.9059   -4.5132  -12.4729 C   0  0  0  0  0  0  0  0  0  0  0  0
   13.9253   -4.0041  -13.6204 O   0  0  0  0  0  0  0  0  0  0  0  0
   14.8951   -4.0488  -11.4413 C   0  0  0  0  0  0  0  0  0  0  0  0
   14.6221   -4.7224  -10.1125 C   0  0  0  0  0  0  0  0  0  0  0  0
   15.6555   -5.7847   -9.8574 C   0  0  2  0  0  0  0  0  0  0  0  0
   15.5101   -6.9179  -10.7404 N   0  0  0  0  0  0  0  0  0  0  0  0
   15.5764   -6.2427   -8.4441 C   0  0  0  0  0  0  0  0  0  0  0  0
   15.7500   -5.4419   -7.4895 O   0  0  0  0  0  0  0  0  0  0  0  0
   15.3099   -7.5638   -8.1098 O   0  0  0  0  0  0  0  0  0  0  0  0
  2  3  1  0
  2  1  1  6
  3  4  1  0
  4  8  1  0
  5  4  2  0
  6  2  1  0
  7  6  2  0
  9 10  1  0
 10 12  1  0
 11 10  2  0
 13 12  1  1
 13 14  1  0
 14  6  1  0
 15 13  1  0
 15 16  2  0
 18 17  1  0
 19 18  2  0
 20 18  1  0
 22 21  1  6
 21 20  1  0
 22 23  1  0
 23 15  1  0
 24 22  1  0
 25 24  2  0
 26 24  1  0
M  END
$$$$
