DNQ.pdb
     RDKit          3D

 26 25  0  0  1  0  0  0  0  0999 V2000
   18.7443  -16.4588  -16.6348 N   0  0  0  0  0  0  0  0  0  0  0  0
   18.3909  -15.3456  -15.8132 C   0  0  1  0  0  0  0  0  0  0  0  0
   18.8905  -15.4021  -14.4040 C   0  0  0  0  0  0  0  0  0  0  0  0
   18.3521  -16.5585  -13.6809 C   0  0  0  0  0  0  0  0  0  0  0  0
   17.6397  -17.3946  -14.2775 O   0  0  0  0  0  0  0  0  0  0  0  0
   18.7612  -14.0860  -16.4979 C   0  0  0  0  0  0  0  0  0  0  0  0
   19.6123  -14.0459  -17.4325 O   0  0  0  0  0  0  0  0  0  0  0  0
   18.6404  -16.7166  -12.3282 O   0  0  0  0  0  0  0  0  0  0  0  0
   16.0930   -9.7260  -19.1159 N   0  0  0  0  0  0  0  0  0  0  0  0
   17.3277  -10.1732  -18.5397 C   0  0  0  0  0  0  0  0  0  0  0  0
   18.3915   -9.5571  -18.7138 O   0  0  0  0  0  0  0  0  0  0  0  0
   17.2978  -11.3912  -17.7308 C   0  0  0  0  0  0  0  0  0  0  0  0
   18.4602  -11.6131  -16.8255 C   0  0  2  0  0  0  0  0  0  0  0  0
   18.1570  -12.8740  -16.1115 N   0  0  0  0  0  0  0  0  0  0  0  0
   18.6039  -10.5538  -15.7694 C   0  0  0  0  0  0  0  0  0  0  0  0
   17.8214  -10.4243  -14.8002 O   0  0  0  0  0  0  0  0  0  0  0  0
   23.2936   -6.1433  -15.1888 N   0  0  0  0  0  0  0  0  0  0  0  0
   22.4585   -5.9367  -14.0576 C   0  0  0  0  0  0  0  0  0  0  0  0
   22.7740   -5.0880  -13.1880 O   0  0  0  0  0  0  0  0  0  0  0  0
   21.1929   -6.7299  -13.8914 C   0  0  0  0  0  0  0  0  0  0  0  0
   21.0288   -7.7025  -15.0409 C   0  0  0  0  0  0  0  0  0  0  0  0
   19.7975   -8.5393  -14.8291 C   0  0  2  0  0  0  0  0  0  0  0  0
   19.6758   -9.5970  -15.8046 N   0  0  0  0  0  0  0  0  0  0  0  0
   18.5840   -7.6797  -14.8743 C   0  0  0  0  0  0  0  0  0  0  0  0
   17.9350   -7.4142  -13.8298 O   0  0  0  0  0  0  0  0  0  0  0  0
   18.1106   -7.1323  -16.0593 O   0  0  0  0  0  0  0  0  0  0  0  0
  2  3  1  0
  2  1  1  6
  3  4  1  0
  4  8  1  0
  5  4  2  0
  6  2  1  0
  7  6  2  0
  9 10  1  0
 10 12  1  0
 11 10  2  0
 13 12  1  6
 13 14  1  0
 14  6  1  0
 15 13  1  0
 15 16  2  0
 18 17  1  0
 19 18  2  0
 20 18  1  0
 22 21  1  6
 21 20  1  0
 22 23  1  0
 23 15  1  0
 24 22  1  0
 25 24  2  0
 26 24  1  0
M  END
$$$$
