DNQ.pdb
     RDKit          3D

 26 25  0  0  1  0  0  0  0  0999 V2000
   26.3441  -21.5553  -14.4435 N   0  0  0  0  0  0  0  0  0  0  0  0
   26.2911  -20.9035  -15.7130 C   0  0  1  0  0  0  0  0  0  0  0  0
   26.7742  -21.7151  -16.8734 C   0  0  0  0  0  0  0  0  0  0  0  0
   28.1133  -22.2632  -16.6353 C   0  0  0  0  0  0  0  0  0  0  0  0
   28.4625  -22.5844  -15.4788 O   0  0  0  0  0  0  0  0  0  0  0  0
   24.9349  -20.3506  -15.9309 C   0  0  0  0  0  0  0  0  0  0  0  0
   24.6487  -19.6270  -16.9279 O   0  0  0  0  0  0  0  0  0  0  0  0
   28.9895  -22.4221  -17.7052 O   0  0  0  0  0  0  0  0  0  0  0  0
   21.3125  -23.5160  -14.2103 N   0  0  0  0  0  0  0  0  0  0  0  0
   21.3897  -22.3760  -15.0769 C   0  0  0  0  0  0  0  0  0  0  0  0
   21.2360  -22.4767  -16.3049 O   0  0  0  0  0  0  0  0  0  0  0  0
   21.6580  -21.0750  -14.4654 C   0  0  0  0  0  0  0  0  0  0  0  0
   22.5276  -20.1462  -15.2406 C   0  0  2  0  0  0  0  0  0  0  0  0
   23.9084  -20.6264  -15.0071 N   0  0  0  0  0  0  0  0  0  0  0  0
   22.4827  -18.7300  -14.7399 C   0  0  0  0  0  0  0  0  0  0  0  0
   23.2494  -18.2767  -13.8596 O   0  0  0  0  0  0  0  0  0  0  0  0
   25.1331  -14.6587  -17.2810 N   0  0  0  0  0  0  0  0  0  0  0  0
   25.0311  -14.4905  -15.8736 C   0  0  0  0  0  0  0  0  0  0  0  0
   25.7849  -13.6813  -15.2794 O   0  0  0  0  0  0  0  0  0  0  0  0
   24.0227  -15.2772  -15.0846 C   0  0  0  0  0  0  0  0  0  0  0  0
   23.3688  -16.3228  -15.9640 C   0  0  0  0  0  0  0  0  0  0  0  0
   21.9089  -16.4364  -15.6217 C   0  0  2  0  0  0  0  0  0  0  0  0
   21.5328  -17.7808  -15.2522 N   0  0  0  0  0  0  0  0  0  0  0  0
   21.0798  -15.9870  -16.7723 C   0  0  0  0  0  0  0  0  0  0  0  0
   21.0529  -16.6375  -17.8488 O   0  0  0  0  0  0  0  0  0  0  0  0
   20.3014  -14.8385  -16.7176 O   0  0  0  0  0  0  0  0  0  0  0  0
  2  3  1  0
  2  1  1  1
  3  4  1  0
  4  8  1  0
  5  4  2  0
  6  2  1  0
  7  6  2  0
  9 10  1  0
 10 12  1  0
 11 10  2  0
 13 12  1  1
 13 14  1  0
 14  6  1  0
 15 13  1  0
 15 16  2  0
 18 17  1  0
 19 18  2  0
 20 18  1  0
 22 21  1  6
 21 20  1  0
 22 23  1  0
 23 15  1  0
 24 22  1  0
 25 24  2  0
 26 24  1  0
M  END
$$$$
