DNQ.pdb
     RDKit          3D

 26 25  0  0  1  0  0  0  0  0999 V2000
   27.5073  -19.0481  -15.8960 N   0  0  0  0  0  0  0  0  0  0  0  0
   27.1982  -20.4027  -16.2260 C   0  0  1  0  0  0  0  0  0  0  0  0
   28.3325  -21.2040  -16.7827 C   0  0  0  0  0  0  0  0  0  0  0  0
   29.0052  -20.5052  -17.8824 C   0  0  0  0  0  0  0  0  0  0  0  0
   28.5928  -19.3872  -18.2600 O   0  0  0  0  0  0  0  0  0  0  0  0
   26.5516  -21.0606  -15.0677 C   0  0  0  0  0  0  0  0  0  0  0  0
   26.8445  -22.2359  -14.7037 O   0  0  0  0  0  0  0  0  0  0  0  0
   30.1038  -21.0961  -18.5003 O   0  0  0  0  0  0  0  0  0  0  0  0
   25.9826  -20.4130   -9.6936 N   0  0  0  0  0  0  0  0  0  0  0  0
   25.8365  -21.3715  -10.7502 C   0  0  0  0  0  0  0  0  0  0  0  0
   25.4623  -22.5348  -10.5305 O   0  0  0  0  0  0  0  0  0  0  0  0
   26.1446  -20.9341  -12.1112 C   0  0  0  0  0  0  0  0  0  0  0  0
   25.0151  -20.9492  -13.0828 C   0  0  2  0  0  0  0  0  0  0  0  0
   25.5705  -20.3725  -14.3280 N   0  0  0  0  0  0  0  0  0  0  0  0
   23.8707  -20.0622  -12.6803 C   0  0  0  0  0  0  0  0  0  0  0  0
   23.9559  -18.8170  -12.5779 O   0  0  0  0  0  0  0  0  0  0  0  0
   21.5229  -21.0096  -17.2983 N   0  0  0  0  0  0  0  0  0  0  0  0
   20.4092  -20.2864  -16.7924 C   0  0  0  0  0  0  0  0  0  0  0  0
   19.4929  -19.9172  -17.5673 O   0  0  0  0  0  0  0  0  0  0  0  0
   20.3171  -19.9570  -15.3290 C   0  0  0  0  0  0  0  0  0  0  0  0
   21.5325  -20.4848  -14.5953 C   0  0  0  0  0  0  0  0  0  0  0  0
   21.3915  -20.2235  -13.1211 C   0  0  2  0  0  0  0  0  0  0  0  0
   22.5721  -20.5996  -12.3796 N   0  0  0  0  0  0  0  0  0  0  0  0
   20.2133  -20.9568  -12.5846 C   0  0  0  0  0  0  0  0  0  0  0  0
   20.1747  -22.2142  -12.5826 O   0  0  0  0  0  0  0  0  0  0  0  0
   19.1076  -20.2976  -12.0642 O   0  0  0  0  0  0  0  0  0  0  0  0
  2  3  1  0
  2  1  1  1
  3  4  1  0
  4  8  1  0
  5  4  2  0
  6  2  1  0
  7  6  2  0
  9 10  1  0
 10 12  1  0
 11 10  2  0
 13 12  1  1
 13 14  1  0
 14  6  1  0
 15 13  1  0
 15 16  2  0
 18 17  1  0
 19 18  2  0
 20 18  1  0
 22 21  1  6
 21 20  1  0
 22 23  1  0
 23 15  1  0
 24 22  1  0
 25 24  2  0
 26 24  1  0
M  END
$$$$
