FYG.pdb
     RDKit          3D

 28 29  0  0  1  0  0  0  0  0999 V2000
    7.6065  -18.6869   26.9606 N   0  0  0  0  0  0  0  0  0  0  0  0
    8.1044  -17.3869   26.6025 C   0  0  1  0  0  0  0  0  0  0  0  0
    9.5225  -17.1684   27.0977 C   0  0  0  0  0  0  0  0  0  0  0  0
    9.5801  -15.8451   27.7648 C   0  0  0  0  0  0  0  0  0  0  0  0
    9.2636  -14.6671   27.1347 C   0  0  0  0  0  0  0  0  0  0  0  0
    9.3328  -13.4507   27.8022 C   0  0  0  0  0  0  0  0  0  0  0  0
    9.7276  -13.4277   29.1247 C   0  0  0  0  0  0  0  0  0  0  0  0
   10.0518  -14.6086   29.7800 C   0  0  0  0  0  0  0  0  0  0  0  0
    9.9725  -15.8056   29.0857 C   0  0  0  0  0  0  0  0  0  0  0  0
    8.0938  -17.2177   25.1045 C   0  0  0  0  0  0  0  0  0  0  0  0
    8.2313  -18.2041   24.3556 O   0  0  0  0  0  0  0  0  0  0  0  0
    7.4261  -13.1764   17.2023 O   0  0  0  0  0  0  0  0  0  0  0  0
    7.4369  -13.4406   18.5649 C   0  0  0  0  0  0  0  0  0  0  0  0
    8.2735  -12.7800   19.4509 C   0  0  0  0  0  0  0  0  0  0  0  0
    8.2697  -13.0565   20.8019 C   0  0  0  0  0  0  0  0  0  0  0  0
    7.4336  -14.0025   21.3318 C   0  0  0  0  0  0  0  0  0  0  0  0
    7.3391  -14.3785   22.7293 C   0  0  0  0  0  0  0  0  0  0  0  0
    7.9969  -15.6730   23.0960 C   0  0  2  0  0  0  0  0  0  0  0  0
    7.9286  -15.9429   24.5074 N   0  0  0  0  0  0  0  0  0  0  0  0
    9.3812  -15.7130   22.5674 C   0  0  0  0  0  0  0  0  0  0  0  0
    9.5224  -15.6845   21.3174 O   0  0  0  0  0  0  0  0  0  0  0  0
    6.5968  -14.6610   20.4346 C   0  0  0  0  0  0  0  0  0  0  0  0
    6.5916  -14.3951   19.0915 C   0  0  0  0  0  0  0  0  0  0  0  0
   10.5404  -15.7804   23.3672 N   0  0  0  0  0  0  0  0  0  0  0  0
   11.8353  -15.6933   22.7693 C   0  0  0  0  0  0  0  0  0  0  0  0
   12.4488  -16.9951   22.4787 C   0  0  0  0  0  0  0  0  0  0  0  0
   13.7981  -17.1017   22.2273 O   0  0  0  0  0  0  0  0  0  0  0  0
   11.7445  -18.0234   22.4573 O   0  0  0  0  0  0  0  0  0  0  0  0
  2  1  1  6
  2  3  1  0
  2 10  1  0
  4  9  1  0
  4  3  1  0
  5  4  2  0
  6  7  2  0
  6  5  1  0
  7  8  1  0
  8  9  2  0
 10 11  2  0
 13 12  1  0
 13 14  2  0
 15 14  1  0
 16 15  2  0
 17 16  1  0
 18 17  1  1
 19 10  1  0
 19 18  1  0
 20 18  1  0
 20 21  2  0
 22 23  2  0
 22 16  1  0
 23 13  1  0
 24 20  1  0
 25 24  1  0
 25 26  1  0
 26 27  1  0
 28 26  2  0
M  END
$$$$
