FYG.pdb
     RDKit          3D

 28 29  0  0  1  0  0  0  0  0999 V2000
   11.2345  -15.3492   21.4691 N   0  0  0  0  0  0  0  0  0  0  0  0
    9.9777  -15.2731   22.1626 C   0  0  1  0  0  0  0  0  0  0  0  0
    8.8565  -15.9251   21.3742 C   0  0  0  0  0  0  0  0  0  0  0  0
    8.1123  -14.8587   20.6612 C   0  0  0  0  0  0  0  0  0  0  0  0
    7.1105  -14.1200   21.2405 C   0  0  0  0  0  0  0  0  0  0  0  0
    6.4415  -13.1303   20.5313 C   0  0  0  0  0  0  0  0  0  0  0  0
    6.7920  -12.8862   19.2188 C   0  0  0  0  0  0  0  0  0  0  0  0
    7.8028  -13.6227   18.6146 C   0  0  0  0  0  0  0  0  0  0  0  0
    8.4507  -14.6030   19.3496 C   0  0  0  0  0  0  0  0  0  0  0  0
   10.0773  -15.9589   23.5014 C   0  0  0  0  0  0  0  0  0  0  0  0
   11.1513  -16.4712   23.8713 O   0  0  0  0  0  0  0  0  0  0  0  0
    6.5963  -10.4688   26.4977 O   0  0  0  0  0  0  0  0  0  0  0  0
    6.9340  -11.8148   26.5244 C   0  0  0  0  0  0  0  0  0  0  0  0
    8.1253  -12.2792   27.0595 C   0  0  0  0  0  0  0  0  0  0  0  0
    8.4432  -13.6210   27.0769 C   0  0  0  0  0  0  0  0  0  0  0  0
    7.5902  -14.5607   26.5628 C   0  0  0  0  0  0  0  0  0  0  0  0
    7.8131  -15.9931   26.5252 C   0  0  0  0  0  0  0  0  0  0  0  0
    9.0167  -16.4397   25.7538 C   0  0  2  0  0  0  0  0  0  0  0  0
    8.9623  -16.0414   24.3725 N   0  0  0  0  0  0  0  0  0  0  0  0
    9.2249  -17.8971   25.9261 C   0  0  0  0  0  0  0  0  0  0  0  0
    8.2107  -18.6379   25.8486 O   0  0  0  0  0  0  0  0  0  0  0  0
    6.3960  -14.0851   26.0274 C   0  0  0  0  0  0  0  0  0  0  0  0
    6.0695  -12.7557   26.0045 C   0  0  0  0  0  0  0  0  0  0  0  0
   10.4748  -18.5026   26.1692 N   0  0  0  0  0  0  0  0  0  0  0  0
   10.5617  -19.9099   26.4011 C   0  0  0  0  0  0  0  0  0  0  0  0
   10.4592  -20.2907   27.8153 C   0  0  0  0  0  0  0  0  0  0  0  0
   11.5828  -20.5966   28.5495 O   0  0  0  0  0  0  0  0  0  0  0  0
    9.3421  -20.3400   28.3664 O   0  0  0  0  0  0  0  0  0  0  0  0
  2  1  1  6
  2  3  1  0
  2 10  1  0
  4  9  1  0
  4  3  1  0
  5  4  2  0
  6  7  2  0
  6  5  1  0
  7  8  1  0
  8  9  2  0
 10 11  2  0
 13 12  1  0
 13 14  2  0
 15 14  1  0
 16 15  2  0
 17 16  1  0
 18 17  1  6
 19 10  1  0
 19 18  1  0
 20 18  1  0
 20 21  2  0
 22 23  2  0
 22 16  1  0
 23 13  1  0
 24 20  1  0
 25 24  1  0
 25 26  1  0
 26 27  1  0
 28 26  2  0
M  END
$$$$
