FYG.pdb
     RDKit          3D

 28 29  0  0  1  0  0  0  0  0999 V2000
    6.3361  -16.3303   25.8961 N   0  0  0  0  0  0  0  0  0  0  0  0
    7.0543  -16.2869   24.6517 C   0  0  1  0  0  0  0  0  0  0  0  0
    6.7781  -15.0071   23.8837 C   0  0  0  0  0  0  0  0  0  0  0  0
    6.8123  -13.8764   24.8428 C   0  0  0  0  0  0  0  0  0  0  0  0
    7.7191  -12.8484   24.7666 C   0  0  0  0  0  0  0  0  0  0  0  0
    7.7117  -11.8100   25.6894 C   0  0  0  0  0  0  0  0  0  0  0  0
    6.7737  -11.8132   26.7020 C   0  0  0  0  0  0  0  0  0  0  0  0
    5.8477  -12.8441   26.7963 C   0  0  0  0  0  0  0  0  0  0  0  0
    5.8818  -13.8653   25.8598 C   0  0  0  0  0  0  0  0  0  0  0  0
    8.5381  -16.3793   24.9013 C   0  0  0  0  0  0  0  0  0  0  0  0
    9.0539  -15.7933   25.8726 O   0  0  0  0  0  0  0  0  0  0  0  0
    8.6494  -19.4202   30.0866 O   0  0  0  0  0  0  0  0  0  0  0  0
    9.2450  -19.2240   28.8483 C   0  0  0  0  0  0  0  0  0  0  0  0
   10.2829  -18.3274   28.6483 C   0  0  0  0  0  0  0  0  0  0  0  0
   10.8620  -18.1463   27.4099 C   0  0  0  0  0  0  0  0  0  0  0  0
   10.4344  -18.8490   26.3153 C   0  0  0  0  0  0  0  0  0  0  0  0
   10.9631  -18.7457   24.9688 C   0  0  0  0  0  0  0  0  0  0  0  0
   10.7705  -17.4201   24.2990 C   0  0  2  0  0  0  0  0  0  0  0  0
    9.3846  -17.1289   24.0465 N   0  0  0  0  0  0  0  0  0  0  0  0
   11.6093  -17.3345   23.0799 C   0  0  0  0  0  0  0  0  0  0  0  0
   12.7800  -17.7901   23.1520 O   0  0  0  0  0  0  0  0  0  0  0  0
    9.3915  -19.7473   26.5255 C   0  0  0  0  0  0  0  0  0  0  0  0
    8.8087  -19.9356   27.7500 C   0  0  0  0  0  0  0  0  0  0  0  0
   11.1847  -16.7805   21.8549 N   0  0  0  0  0  0  0  0  0  0  0  0
   12.0216  -16.8581   20.6994 C   0  0  0  0  0  0  0  0  0  0  0  0
   13.1981  -15.9815   20.7529 C   0  0  0  0  0  0  0  0  0  0  0  0
   13.5622  -15.3555   21.9236 O   0  0  0  0  0  0  0  0  0  0  0  0
   13.8825  -15.7963   19.7275 O   0  0  0  0  0  0  0  0  0  0  0  0
  2  1  1  1
  2  3  1  0
  2 10  1  0
  4  9  1  0
  4  3  1  0
  5  4  2  0
  6  7  2  0
  6  5  1  0
  7  8  1  0
  8  9  2  0
 10 11  2  0
 13 12  1  0
 13 14  2  0
 15 14  1  0
 16 15  2  0
 17 16  1  0
 18 17  1  6
 19 10  1  0
 19 18  1  0
 20 18  1  0
 20 21  2  0
 22 23  2  0
 22 16  1  0
 23 13  1  0
 24 20  1  0
 25 24  1  0
 25 26  1  0
 26 27  1  0
 28 26  2  0
M  END
$$$$
