FYG.pdb
     RDKit          3D

 28 29  0  0  1  0  0  0  0  0999 V2000
    8.5677  -16.0997   22.0862 N   0  0  0  0  0  0  0  0  0  0  0  0
    9.5974  -15.1788   22.4836 C   0  0  1  0  0  0  0  0  0  0  0  0
    9.1287  -13.7373   22.4028 C   0  0  0  0  0  0  0  0  0  0  0  0
    8.4914  -13.5323   21.0795 C   0  0  0  0  0  0  0  0  0  0  0  0
    9.1460  -12.9893   20.0018 C   0  0  0  0  0  0  0  0  0  0  0  0
    8.5060  -12.8168   18.7809 C   0  0  0  0  0  0  0  0  0  0  0  0
    7.1862  -13.1993   18.6504 C   0  0  0  0  0  0  0  0  0  0  0  0
    6.5064  -13.7506   19.7288 C   0  0  0  0  0  0  0  0  0  0  0  0
    7.1735  -13.9093   20.9333 C   0  0  0  0  0  0  0  0  0  0  0  0
   10.0299  -15.4582   23.9004 C   0  0  0  0  0  0  0  0  0  0  0  0
   11.0639  -14.9368   24.3607 O   0  0  0  0  0  0  0  0  0  0  0  0
    6.4399  -10.9334   26.8876 O   0  0  0  0  0  0  0  0  0  0  0  0
    6.8572  -12.2572   26.8878 C   0  0  0  0  0  0  0  0  0  0  0  0
    6.1108  -13.2795   26.3229 C   0  0  0  0  0  0  0  0  0  0  0  0
    6.5423  -14.5892   26.3330 C   0  0  0  0  0  0  0  0  0  0  0  0
    7.7356  -14.9405   26.9054 C   0  0  0  0  0  0  0  0  0  0  0  0
    8.2927  -16.2775   26.9766 C   0  0  0  0  0  0  0  0  0  0  0  0
    9.5195  -16.5112   26.1499 C   0  0  2  0  0  0  0  0  0  0  0  0
    9.2803  -16.3148   24.7450 N   0  0  0  0  0  0  0  0  0  0  0  0
   10.0990  -17.8407   26.4561 C   0  0  0  0  0  0  0  0  0  0  0  0
   10.2795  -18.1260   27.6683 O   0  0  0  0  0  0  0  0  0  0  0  0
    8.4786  -13.9073   27.4702 C   0  0  0  0  0  0  0  0  0  0  0  0
    8.0607  -12.6034   27.4664 C   0  0  0  0  0  0  0  0  0  0  0  0
   10.4582  -18.7986   25.4859 N   0  0  0  0  0  0  0  0  0  0  0  0
   10.8867  -20.1024   25.8834 C   0  0  0  0  0  0  0  0  0  0  0  0
   12.3438  -20.2466   25.9902 C   0  0  0  0  0  0  0  0  0  0  0  0
   12.9132  -21.4539   26.3270 O   0  0  0  0  0  0  0  0  0  0  0  0
   13.0831  -19.2663   25.7741 O   0  0  0  0  0  0  0  0  0  0  0  0
  2  1  1  1
  2  3  1  0
  2 10  1  0
  4  9  1  0
  4  3  1  0
  5  4  2  0
  6  7  2  0
  6  5  1  0
  7  8  1  0
  8  9  2  0
 10 11  2  0
 13 12  1  0
 13 14  2  0
 15 14  1  0
 16 15  2  0
 17 16  1  0
 18 17  1  1
 19 10  1  0
 19 18  1  0
 20 18  1  0
 20 21  2  0
 22 23  2  0
 22 16  1  0
 23 13  1  0
 24 20  1  0
 25 24  1  0
 25 26  1  0
 26 27  1  0
 28 26  2  0
M  END
$$$$
