FYG.pdb
     RDKit          3D

 28 29  0  0  1  0  0  0  0  0999 V2000
    5.6734  -17.0577   24.5916 N   0  0  0  0  0  0  0  0  0  0  0  0
    6.7109  -16.0670   24.6813 C   0  0  1  0  0  0  0  0  0  0  0  0
    7.1894  -15.8769   26.1092 C   0  0  0  0  0  0  0  0  0  0  0  0
    7.2207  -14.4222   26.3960 C   0  0  0  0  0  0  0  0  0  0  0  0
    8.3810  -13.7174   26.6007 C   0  0  0  0  0  0  0  0  0  0  0  0
    8.3596  -12.3540   26.8666 C   0  0  0  0  0  0  0  0  0  0  0  0
    7.1474  -11.6966   26.9258 C   0  0  0  0  0  0  0  0  0  0  0  0
    5.9624  -12.3917   26.7216 C   0  0  0  0  0  0  0  0  0  0  0  0
    6.0180  -13.7513   26.4584 C   0  0  0  0  0  0  0  0  0  0  0  0
    7.8919  -16.4691   23.8350 C   0  0  0  0  0  0  0  0  0  0  0  0
    7.9785  -17.6253   23.3784 O   0  0  0  0  0  0  0  0  0  0  0  0
    5.9520  -13.6423   18.1680 O   0  0  0  0  0  0  0  0  0  0  0  0
    7.0042  -13.8461   19.0500 C   0  0  0  0  0  0  0  0  0  0  0  0
    7.4502  -12.8680   19.9250 C   0  0  0  0  0  0  0  0  0  0  0  0
    8.4976  -13.0895   20.7943 C   0  0  0  0  0  0  0  0  0  0  0  0
    9.1479  -14.2939   20.8320 C   0  0  0  0  0  0  0  0  0  0  0  0
   10.2566  -14.6438   21.6988 C   0  0  0  0  0  0  0  0  0  0  0  0
   10.0153  -15.7976   22.6227 C   0  0  2  0  0  0  0  0  0  0  0  0
    8.9307  -15.5525   23.5354 N   0  0  0  0  0  0  0  0  0  0  0  0
   11.2729  -16.1765   23.3097 C   0  0  0  0  0  0  0  0  0  0  0  0
   12.2294  -16.5640   22.5898 O   0  0  0  0  0  0  0  0  0  0  0  0
    8.6932  -15.2704   19.9497 C   0  0  0  0  0  0  0  0  0  0  0  0
    7.6545  -15.0622   19.0822 C   0  0  0  0  0  0  0  0  0  0  0  0
   11.4658  -16.1315   24.7057 N   0  0  0  0  0  0  0  0  0  0  0  0
   12.6589  -16.6614   25.2865 C   0  0  0  0  0  0  0  0  0  0  0  0
   13.8920  -16.0280   24.8032 C   0  0  0  0  0  0  0  0  0  0  0  0
   15.1236  -16.4267   25.2718 O   0  0  0  0  0  0  0  0  0  0  0  0
   13.8314  -15.1153   23.9562 O   0  0  0  0  0  0  0  0  0  0  0  0
  2  1  1  1
  2  3  1  0
  2 10  1  0
  4  9  1  0
  4  3  1  0
  5  4  2  0
  6  7  2  0
  6  5  1  0
  7  8  1  0
  8  9  2  0
 10 11  2  0
 13 12  1  0
 13 14  2  0
 15 14  1  0
 16 15  2  0
 17 16  1  0
 18 17  1  1
 19 10  1  0
 19 18  1  0
 20 18  1  0
 20 21  2  0
 22 23  2  0
 22 16  1  0
 23 13  1  0
 24 20  1  0
 25 24  1  0
 25 26  1  0
 26 27  1  0
 28 26  2  0
M  END
$$$$
