FYG.pdb
     RDKit          3D

 28 29  0  0  1  0  0  0  0  0999 V2000
    5.8088  -16.8635   24.7068 N   0  0  0  0  0  0  0  0  0  0  0  0
    6.9029  -15.9314   24.6971 C   0  0  1  0  0  0  0  0  0  0  0  0
    7.4831  -15.7261   26.0847 C   0  0  0  0  0  0  0  0  0  0  0  0
    7.3263  -14.2957   26.4439 C   0  0  0  0  0  0  0  0  0  0  0  0
    6.1676  -13.7686   26.9582 C   0  0  0  0  0  0  0  0  0  0  0  0
    6.0688  -12.4208   27.2798 C   0  0  0  0  0  0  0  0  0  0  0  0
    7.1575  -11.5968   27.0777 C   0  0  0  0  0  0  0  0  0  0  0  0
    8.3387  -12.1107   26.5584 C   0  0  0  0  0  0  0  0  0  0  0  0
    8.4049  -13.4599   26.2479 C   0  0  0  0  0  0  0  0  0  0  0  0
    8.0024  -16.4254   23.7918 C   0  0  0  0  0  0  0  0  0  0  0  0
    8.1117  -17.6396   23.5338 O   0  0  0  0  0  0  0  0  0  0  0  0
    6.1134  -13.2316   17.7482 O   0  0  0  0  0  0  0  0  0  0  0  0
    7.1249  -13.6554   18.5991 C   0  0  0  0  0  0  0  0  0  0  0  0
    7.6173  -14.9511   18.5927 C   0  0  0  0  0  0  0  0  0  0  0  0
    8.6230  -15.3534   19.4461 C   0  0  0  0  0  0  0  0  0  0  0  0
    9.1837  -14.4849   20.3440 C   0  0  0  0  0  0  0  0  0  0  0  0
   10.2423  -14.7901   21.2870 C   0  0  0  0  0  0  0  0  0  0  0  0
    9.9475  -15.8952   22.2539 C   0  0  2  0  0  0  0  0  0  0  0  0
    8.9371  -15.5319   23.2113 N   0  0  0  0  0  0  0  0  0  0  0  0
   11.2002  -16.3691   22.8890 C   0  0  0  0  0  0  0  0  0  0  0  0
   12.0552  -16.9130   22.1430 O   0  0  0  0  0  0  0  0  0  0  0  0
    8.6829  -13.1857   20.3433 C   0  0  0  0  0  0  0  0  0  0  0  0
    7.6849  -12.7746   19.5010 C   0  0  0  0  0  0  0  0  0  0  0  0
   11.4938  -16.2513   24.2630 N   0  0  0  0  0  0  0  0  0  0  0  0
   12.7423  -16.7196   24.7765 C   0  0  0  0  0  0  0  0  0  0  0  0
   13.8903  -15.8772   24.4186 C   0  0  0  0  0  0  0  0  0  0  0  0
   15.1437  -16.1356   24.9258 O   0  0  0  0  0  0  0  0  0  0  0  0
   13.7359  -14.9122   23.6447 O   0  0  0  0  0  0  0  0  0  0  0  0
  2  1  1  1
  2  3  1  0
  2 10  1  0
  4  9  1  0
  4  3  1  0
  5  4  2  0
  6  7  2  0
  6  5  1  0
  7  8  1  0
  8  9  2  0
 10 11  2  0
 13 12  1  0
 13 14  2  0
 15 14  1  0
 16 15  2  0
 17 16  1  0
 18 17  1  1
 19 10  1  0
 19 18  1  0
 20 18  1  0
 20 21  2  0
 22 23  2  0
 22 16  1  0
 23 13  1  0
 24 20  1  0
 25 24  1  0
 25 26  1  0
 26 27  1  0
 28 26  2  0
M  END
$$$$
