FYG.pdb
     RDKit          3D

 28 29  0  0  1  0  0  0  0  0999 V2000
    4.5354  -18.9261   20.6107 N   0  0  0  0  0  0  0  0  0  0  0  0
    4.6966  -18.3199   21.9040 C   0  0  1  0  0  0  0  0  0  0  0  0
    4.2890  -19.2600   23.0239 C   0  0  0  0  0  0  0  0  0  0  0  0
    2.8415  -19.5491   22.8804 C   0  0  0  0  0  0  0  0  0  0  0  0
    1.8741  -18.5750   22.8695 C   0  0  0  0  0  0  0  0  0  0  0  0
    0.5293  -18.8954   22.7324 C   0  0  0  0  0  0  0  0  0  0  0  0
    0.1601  -20.2193   22.6049 C   0  0  0  0  0  0  0  0  0  0  0  0
    1.1237  -21.2195   22.6136 C   0  0  0  0  0  0  0  0  0  0  0  0
    2.4569  -20.8667   22.7521 C   0  0  0  0  0  0  0  0  0  0  0  0
    6.1345  -17.9216   22.1189 C   0  0  0  0  0  0  0  0  0  0  0  0
    7.0512  -18.5110   21.5147 O   0  0  0  0  0  0  0  0  0  0  0  0
    8.4130  -12.8374   17.9858 O   0  0  0  0  0  0  0  0  0  0  0  0
    8.2590  -13.3335   19.2730 C   0  0  0  0  0  0  0  0  0  0  0  0
    7.1177  -13.1171   20.0292 C   0  0  0  0  0  0  0  0  0  0  0  0
    6.9832  -13.6184   21.3068 C   0  0  0  0  0  0  0  0  0  0  0  0
    7.9780  -14.3573   21.8892 C   0  0  0  0  0  0  0  0  0  0  0  0
    7.9517  -14.9348   23.2192 C   0  0  0  0  0  0  0  0  0  0  0  0
    7.8257  -16.4262   23.2736 C   0  0  2  0  0  0  0  0  0  0  0  0
    6.4848  -16.8738   23.0070 N   0  0  0  0  0  0  0  0  0  0  0  0
    8.3608  -16.9399   24.5570 C   0  0  0  0  0  0  0  0  0  0  0  0
    7.8930  -16.4464   25.6158 O   0  0  0  0  0  0  0  0  0  0  0  0
    9.1207  -14.5696   21.1224 C   0  0  0  0  0  0  0  0  0  0  0  0
    9.2657  -14.0771   19.8531 C   0  0  0  0  0  0  0  0  0  0  0  0
    9.3514  -17.9370   24.6680 N   0  0  0  0  0  0  0  0  0  0  0  0
    9.7547  -18.4133   25.9533 C   0  0  0  0  0  0  0  0  0  0  0  0
   11.1295  -18.0521   26.3208 C   0  0  0  0  0  0  0  0  0  0  0  0
   11.6577  -18.4218   27.5372 O   0  0  0  0  0  0  0  0  0  0  0  0
   11.8350  -17.4012   25.5254 O   0  0  0  0  0  0  0  0  0  0  0  0
  2  1  1  6
  2  3  1  0
  2 10  1  0
  4  9  1  0
  4  3  1  0
  5  4  2  0
  6  7  2  0
  6  5  1  0
  7  8  1  0
  8  9  2  0
 10 11  2  0
 13 12  1  0
 13 14  2  0
 15 14  1  0
 16 15  2  0
 17 16  1  0
 18 17  1  1
 19 10  1  0
 19 18  1  0
 20 18  1  0
 20 21  2  0
 22 23  2  0
 22 16  1  0
 23 13  1  0
 24 20  1  0
 25 24  1  0
 25 26  1  0
 26 27  1  0
 28 26  2  0
M  END
$$$$
