FYG.pdb
     RDKit          3D

 28 29  0  0  1  0  0  0  0  0999 V2000
    7.9634  -15.5921   26.0943 N   0  0  0  0  0  0  0  0  0  0  0  0
    8.3839  -15.3506   24.7412 C   0  0  1  0  0  0  0  0  0  0  0  0
    8.7032  -13.8862   24.5011 C   0  0  0  0  0  0  0  0  0  0  0  0
    7.7355  -13.0698   25.2735 C   0  0  0  0  0  0  0  0  0  0  0  0
    7.9859  -11.7811   25.6754 C   0  0  0  0  0  0  0  0  0  0  0  0
    7.0471  -11.0556   26.3981 C   0  0  0  0  0  0  0  0  0  0  0  0
    5.8397  -11.6432   26.7176 C   0  0  0  0  0  0  0  0  0  0  0  0
    5.5673  -12.9459   26.3203 C   0  0  0  0  0  0  0  0  0  0  0  0
    6.5250  -13.6427   25.6003 C   0  0  0  0  0  0  0  0  0  0  0  0
    9.6137  -16.1624   24.4234 C   0  0  0  0  0  0  0  0  0  0  0  0
   10.6908  -15.9339   25.0069 O   0  0  0  0  0  0  0  0  0  0  0  0
   11.0007  -19.8341   29.2397 O   0  0  0  0  0  0  0  0  0  0  0  0
   10.8644  -19.7289   27.8624 C   0  0  0  0  0  0  0  0  0  0  0  0
    9.6311  -19.6915   27.2310 C   0  0  0  0  0  0  0  0  0  0  0  0
    9.5160  -19.5866   25.8607 C   0  0  0  0  0  0  0  0  0  0  0  0
   10.6226  -19.5143   25.0576 C   0  0  0  0  0  0  0  0  0  0  0  0
   10.6278  -19.4018   23.6117 C   0  0  0  0  0  0  0  0  0  0  0  0
   10.7101  -18.0071   23.0724 C   0  0  2  0  0  0  0  0  0  0  0  0
    9.5829  -17.2014   23.4597 N   0  0  0  0  0  0  0  0  0  0  0  0
   10.9217  -18.0357   21.6056 C   0  0  0  0  0  0  0  0  0  0  0  0
   10.0099  -18.5410   20.9010 O   0  0  0  0  0  0  0  0  0  0  0  0
   11.8571  -19.5526   25.7004 C   0  0  0  0  0  0  0  0  0  0  0  0
   11.9840  -19.6565   27.0597 C   0  0  0  0  0  0  0  0  0  0  0  0
   12.0686  -17.5379   20.9538 N   0  0  0  0  0  0  0  0  0  0  0  0
   12.3747  -17.9473   19.6195 C   0  0  0  0  0  0  0  0  0  0  0  0
   13.7866  -18.2898   19.4078 C   0  0  0  0  0  0  0  0  0  0  0  0
   14.5003  -17.7401   18.3669 O   0  0  0  0  0  0  0  0  0  0  0  0
   14.3545  -19.0892   20.1775 O   0  0  0  0  0  0  0  0  0  0  0  0
  2  1  1  1
  2  3  1  0
  2 10  1  0
  4  9  1  0
  4  3  1  0
  5  4  2  0
  6  7  2  0
  6  5  1  0
  7  8  1  0
  8  9  2  0
 10 11  2  0
 13 12  1  0
 13 14  2  0
 15 14  1  0
 16 15  2  0
 17 16  1  0
 18 17  1  6
 19 10  1  0
 19 18  1  0
 20 18  1  0
 20 21  2  0
 22 23  2  0
 22 16  1  0
 23 13  1  0
 24 20  1  0
 25 24  1  0
 25 26  1  0
 26 27  1  0
 28 26  2  0
M  END
$$$$
