FYG.pdb
     RDKit          3D

 28 29  0  0  1  0  0  0  0  0999 V2000
    5.4572  -18.0952   22.3524 N   0  0  0  0  0  0  0  0  0  0  0  0
    6.2841  -16.9883   21.9560 C   0  0  1  0  0  0  0  0  0  0  0  0
    5.5073  -15.9617   21.1517 C   0  0  0  0  0  0  0  0  0  0  0  0
    6.4415  -14.8785   20.7602 C   0  0  0  0  0  0  0  0  0  0  0  0
    6.5954  -13.7179   21.4773 C   0  0  0  0  0  0  0  0  0  0  0  0
    7.4842  -12.7309   21.0702 C   0  0  0  0  0  0  0  0  0  0  0  0
    8.2263  -12.9223   19.9223 C   0  0  0  0  0  0  0  0  0  0  0  0
    8.0852  -14.0895   19.1829 C   0  0  0  0  0  0  0  0  0  0  0  0
    7.1898  -15.0548   19.6160 C   0  0  0  0  0  0  0  0  0  0  0  0
    6.8581  -16.3037   23.1703 C   0  0  0  0  0  0  0  0  0  0  0  0
    6.1064  -15.8272   24.0424 O   0  0  0  0  0  0  0  0  0  0  0  0
   10.7529  -14.4953   30.6376 O   0  0  0  0  0  0  0  0  0  0  0  0
   10.1880  -14.9031   29.4371 C   0  0  0  0  0  0  0  0  0  0  0  0
    9.5225  -14.0336   28.5871 C   0  0  0  0  0  0  0  0  0  0  0  0
    8.9676  -14.4578   27.3981 C   0  0  0  0  0  0  0  0  0  0  0  0
    9.0499  -15.7657   27.0015 C   0  0  0  0  0  0  0  0  0  0  0  0
    8.5088  -16.3275   25.7789 C   0  0  0  0  0  0  0  0  0  0  0  0
    8.8954  -15.6205   24.5165 C   0  0  2  0  0  0  0  0  0  0  0  0
    8.2581  -16.1822   23.3555 N   0  0  0  0  0  0  0  0  0  0  0  0
   10.3713  -15.5617   24.3926 C   0  0  0  0  0  0  0  0  0  0  0  0
   10.9845  -14.7810   25.1658 O   0  0  0  0  0  0  0  0  0  0  0  0
    9.7200  -16.6319   27.8614 C   0  0  0  0  0  0  0  0  0  0  0  0
   10.2749  -16.2225   29.0442 C   0  0  0  0  0  0  0  0  0  0  0  0
   11.1268  -16.3172   23.4726 N   0  0  0  0  0  0  0  0  0  0  0  0
   12.5481  -16.1798   23.4214 C   0  0  0  0  0  0  0  0  0  0  0  0
   13.2100  -17.1375   22.5268 C   0  0  0  0  0  0  0  0  0  0  0  0
   14.3875  -16.8151   21.8907 O   0  0  0  0  0  0  0  0  0  0  0  0
   12.7046  -18.2609   22.3353 O   0  0  0  0  0  0  0  0  0  0  0  0
  2  1  1  1
  2  3  1  0
  2 10  1  0
  4  9  1  0
  4  3  1  0
  5  4  2  0
  6  7  2  0
  6  5  1  0
  7  8  1  0
  8  9  2  0
 10 11  2  0
 13 12  1  0
 13 14  2  0
 15 14  1  0
 16 15  2  0
 17 16  1  0
 18 17  1  1
 19 10  1  0
 19 18  1  0
 20 18  1  0
 20 21  2  0
 22 23  2  0
 22 16  1  0
 23 13  1  0
 24 20  1  0
 25 24  1  0
 25 26  1  0
 26 27  1  0
 28 26  2  0
M  END
$$$$
