FYG.pdb
     RDKit          3D

 28 29  0  0  1  0  0  0  0  0999 V2000
    7.5723  -18.5801   27.0574 N   0  0  0  0  0  0  0  0  0  0  0  0
    7.9926  -17.2607   26.6719 C   0  0  1  0  0  0  0  0  0  0  0  0
    9.3891  -16.9426   27.1746 C   0  0  0  0  0  0  0  0  0  0  0  0
    9.3299  -15.6647   27.9249 C   0  0  0  0  0  0  0  0  0  0  0  0
    9.5959  -15.5644   29.2680 C   0  0  0  0  0  0  0  0  0  0  0  0
    9.5274  -14.3437   29.9278 C   0  0  0  0  0  0  0  0  0  0  0  0
    9.1852  -13.2107   29.2177 C   0  0  0  0  0  0  0  0  0  0  0  0
    8.9123  -13.2912   27.8582 C   0  0  0  0  0  0  0  0  0  0  0  0
    8.9895  -14.5241   27.2296 C   0  0  0  0  0  0  0  0  0  0  0  0
    7.9877  -17.1287   25.1702 C   0  0  0  0  0  0  0  0  0  0  0  0
    8.1206  -18.1342   24.4463 O   0  0  0  0  0  0  0  0  0  0  0  0
    7.7433  -12.8491   17.2819 O   0  0  0  0  0  0  0  0  0  0  0  0
    7.6486  -13.2114   18.6185 C   0  0  0  0  0  0  0  0  0  0  0  0
    6.6392  -14.0272   19.1052 C   0  0  0  0  0  0  0  0  0  0  0  0
    6.5618  -14.3762   20.4371 C   0  0  0  0  0  0  0  0  0  0  0  0
    7.4850  -13.9293   21.3442 C   0  0  0  0  0  0  0  0  0  0  0  0
    7.5082  -14.2279   22.7631 C   0  0  0  0  0  0  0  0  0  0  0  0
    7.8434  -15.6432   23.1202 C   0  0  2  0  0  0  0  0  0  0  0  0
    7.8330  -15.8680   24.5411 N   0  0  0  0  0  0  0  0  0  0  0  0
    9.1195  -16.0450   22.4820 C   0  0  0  0  0  0  0  0  0  0  0  0
    9.1158  -16.2015   21.2335 O   0  0  0  0  0  0  0  0  0  0  0  0
    8.4952  -13.1105   20.8464 C   0  0  0  0  0  0  0  0  0  0  0  0
    8.5824  -12.7572   19.5265 C   0  0  0  0  0  0  0  0  0  0  0  0
   10.3271  -16.2616   23.1768 N   0  0  0  0  0  0  0  0  0  0  0  0
   11.5208  -16.5896   22.4634 C   0  0  0  0  0  0  0  0  0  0  0  0
   12.7098  -16.7205   23.3148 C   0  0  0  0  0  0  0  0  0  0  0  0
   13.9578  -16.9069   22.7645 O   0  0  0  0  0  0  0  0  0  0  0  0
   12.5958  -16.6630   24.5548 O   0  0  0  0  0  0  0  0  0  0  0  0
  2  1  1  6
  2  3  1  0
  2 10  1  0
  4  9  1  0
  4  3  1  0
  5  4  2  0
  6  7  2  0
  6  5  1  0
  7  8  1  0
  8  9  2  0
 10 11  2  0
 13 12  1  0
 13 14  2  0
 15 14  1  0
 16 15  2  0
 17 16  1  0
 18 17  1  1
 19 10  1  0
 19 18  1  0
 20 18  1  0
 20 21  2  0
 22 23  2  0
 22 16  1  0
 23 13  1  0
 24 20  1  0
 25 24  1  0
 25 26  1  0
 26 27  1  0
 28 26  2  0
M  END
$$$$
