FYG.pdb
     RDKit          3D

 28 29  0  0  1  0  0  0  0  0999 V2000
    5.5306  -17.1919   24.4569 N   0  0  0  0  0  0  0  0  0  0  0  0
    6.5467  -16.1835   24.5867 C   0  0  1  0  0  0  0  0  0  0  0  0
    7.0573  -16.0753   26.0120 C   0  0  0  0  0  0  0  0  0  0  0  0
    7.0457  -14.6438   26.3994 C   0  0  0  0  0  0  0  0  0  0  0  0
    6.7914  -13.6242   25.5158 C   0  0  0  0  0  0  0  0  0  0  0  0
    6.7916  -12.2970   25.9264 C   0  0  0  0  0  0  0  0  0  0  0  0
    7.0525  -11.9992   27.2486 C   0  0  0  0  0  0  0  0  0  0  0  0
    7.3121  -13.0164   28.1581 C   0  0  0  0  0  0  0  0  0  0  0  0
    7.3046  -14.3302   27.7166 C   0  0  0  0  0  0  0  0  0  0  0  0
    7.7145  -16.4997   23.6873 C   0  0  0  0  0  0  0  0  0  0  0  0
    7.8203  -17.6235   23.1594 O   0  0  0  0  0  0  0  0  0  0  0  0
    6.5811  -13.4225   17.5357 O   0  0  0  0  0  0  0  0  0  0  0  0
    7.4558  -13.6458   18.5902 C   0  0  0  0  0  0  0  0  0  0  0  0
    7.6782  -12.7132   19.5911 C   0  0  0  0  0  0  0  0  0  0  0  0
    8.5514  -12.9534   20.6311 C   0  0  0  0  0  0  0  0  0  0  0  0
    9.2424  -14.1321   20.7216 C   0  0  0  0  0  0  0  0  0  0  0  0
   10.1827  -14.4978   21.7633 C   0  0  0  0  0  0  0  0  0  0  0  0
    9.8407  -15.7332   22.5378 C   0  0  2  0  0  0  0  0  0  0  0  0
    8.7191  -15.5370   23.4170 N   0  0  0  0  0  0  0  0  0  0  0  0
   11.0408  -16.2474   23.2398 C   0  0  0  0  0  0  0  0  0  0  0  0
   12.1300  -16.2279   22.6101 O   0  0  0  0  0  0  0  0  0  0  0  0
    9.0128  -15.0629   19.7119 C   0  0  0  0  0  0  0  0  0  0  0  0
    8.1484  -14.8358   18.6746 C   0  0  0  0  0  0  0  0  0  0  0  0
   11.0415  -16.7527   24.5561 N   0  0  0  0  0  0  0  0  0  0  0  0
   12.2296  -17.3214   25.1098 C   0  0  0  0  0  0  0  0  0  0  0  0
   12.1412  -17.6104   26.5465 C   0  0  0  0  0  0  0  0  0  0  0  0
   13.2346  -18.0709   27.2448 O   0  0  0  0  0  0  0  0  0  0  0  0
   11.0640  -17.4387   27.1500 O   0  0  0  0  0  0  0  0  0  0  0  0
  2  1  1  1
  2  3  1  0
  2 10  1  0
  4  9  1  0
  4  3  1  0
  5  4  2  0
  6  7  2  0
  6  5  1  0
  7  8  1  0
  8  9  2  0
 10 11  2  0
 13 12  1  0
 13 14  2  0
 15 14  1  0
 16 15  2  0
 17 16  1  0
 18 17  1  1
 19 10  1  0
 19 18  1  0
 20 18  1  0
 20 21  2  0
 22 23  2  0
 22 16  1  0
 23 13  1  0
 24 20  1  0
 25 24  1  0
 25 26  1  0
 26 27  1  0
 28 26  2  0
M  END
$$$$
