FYG.pdb
     RDKit          3D

 28 29  0  0  1  0  0  0  0  0999 V2000
    5.4242  -17.6072   24.1449 N   0  0  0  0  0  0  0  0  0  0  0  0
    6.1780  -16.4248   24.4608 C   0  0  1  0  0  0  0  0  0  0  0  0
    6.2979  -16.2142   25.9592 C   0  0  0  0  0  0  0  0  0  0  0  0
    6.6613  -14.7964   26.1988 C   0  0  0  0  0  0  0  0  0  0  0  0
    5.7905  -13.7516   26.0121 C   0  0  0  0  0  0  0  0  0  0  0  0
    6.1775  -12.4387   26.2501 C   0  0  0  0  0  0  0  0  0  0  0  0
    7.4627  -12.1814   26.6825 C   0  0  0  0  0  0  0  0  0  0  0  0
    8.3587  -13.2246   26.8773 C   0  0  0  0  0  0  0  0  0  0  0  0
    7.9415  -14.5232   26.6310 C   0  0  0  0  0  0  0  0  0  0  0  0
    7.5670  -16.5208   23.8827 C   0  0  0  0  0  0  0  0  0  0  0  0
    8.0986  -17.6320   23.6947 O   0  0  0  0  0  0  0  0  0  0  0  0
    6.8504  -13.4267   17.1877 O   0  0  0  0  0  0  0  0  0  0  0  0
    7.5683  -13.6267   18.3587 C   0  0  0  0  0  0  0  0  0  0  0  0
    8.3094  -14.7733   18.5981 C   0  0  0  0  0  0  0  0  0  0  0  0
    9.0164  -14.9537   19.7683 C   0  0  0  0  0  0  0  0  0  0  0  0
    9.0178  -14.0017   20.7524 C   0  0  0  0  0  0  0  0  0  0  0  0
    9.7198  -14.0778   22.0191 C   0  0  0  0  0  0  0  0  0  0  0  0
    9.5311  -15.3496   22.7871 C   0  0  2  0  0  0  0  0  0  0  0  0
    8.3043  -15.3602   23.5384 N   0  0  0  0  0  0  0  0  0  0  0  0
   10.7227  -15.6250   23.6245 C   0  0  0  0  0  0  0  0  0  0  0  0
   11.8461  -15.5888   23.0589 O   0  0  0  0  0  0  0  0  0  0  0  0
    8.2708  -12.8534   20.5033 C   0  0  0  0  0  0  0  0  0  0  0  0
    7.5649  -12.6630   19.3456 C   0  0  0  0  0  0  0  0  0  0  0  0
   10.6800  -15.9224   25.0021 N   0  0  0  0  0  0  0  0  0  0  0  0
   11.8862  -16.1884   25.7204 C   0  0  0  0  0  0  0  0  0  0  0  0
   11.8279  -17.3887   26.5639 C   0  0  0  0  0  0  0  0  0  0  0  0
   12.8623  -17.7074   27.4145 O   0  0  0  0  0  0  0  0  0  0  0  0
   10.8307  -18.1351   26.5149 O   0  0  0  0  0  0  0  0  0  0  0  0
  2  1  1  1
  2  3  1  0
  2 10  1  0
  4  9  1  0
  4  3  1  0
  5  4  2  0
  6  7  2  0
  6  5  1  0
  7  8  1  0
  8  9  2  0
 10 11  2  0
 13 12  1  0
 13 14  2  0
 15 14  1  0
 16 15  2  0
 17 16  1  0
 18 17  1  1
 19 10  1  0
 19 18  1  0
 20 18  1  0
 20 21  2  0
 22 23  2  0
 22 16  1  0
 23 13  1  0
 24 20  1  0
 25 24  1  0
 25 26  1  0
 26 27  1  0
 28 26  2  0
M  END
$$$$
