FYG.pdb
     RDKit          3D

 28 29  0  0  1  0  0  0  0  0999 V2000
    7.5039  -17.5962   24.1725 N   0  0  0  0  0  0  0  0  0  0  0  0
    7.4108  -16.1721   24.3443 C   0  0  1  0  0  0  0  0  0  0  0  0
    6.7225  -15.8034   25.6460 C   0  0  0  0  0  0  0  0  0  0  0  0
    6.7026  -14.3245   25.7552 C   0  0  0  0  0  0  0  0  0  0  0  0
    6.6366  -13.4877   24.6688 C   0  0  0  0  0  0  0  0  0  0  0  0
    6.6205  -12.1070   24.8217 C   0  0  0  0  0  0  0  0  0  0  0  0
    6.6718  -11.5675   26.0912 C   0  0  0  0  0  0  0  0  0  0  0  0
    6.7389  -12.3972   27.2031 C   0  0  0  0  0  0  0  0  0  0  0  0
    6.7533  -13.7705   27.0165 C   0  0  0  0  0  0  0  0  0  0  0  0
    8.7860  -15.5547   24.3436 C   0  0  0  0  0  0  0  0  0  0  0  0
    8.9516  -14.3796   23.9634 O   0  0  0  0  0  0  0  0  0  0  0  0
    9.8954  -15.4580   31.0621 O   0  0  0  0  0  0  0  0  0  0  0  0
   10.4365  -15.6164   29.7938 C   0  0  0  0  0  0  0  0  0  0  0  0
   10.8498  -14.5466   29.0152 C   0  0  0  0  0  0  0  0  0  0  0  0
   11.3852  -14.7241   27.7568 C   0  0  0  0  0  0  0  0  0  0  0  0
   11.5335  -15.9736   27.2168 C   0  0  0  0  0  0  0  0  0  0  0  0
   12.0812  -16.2846   25.9105 C   0  0  0  0  0  0  0  0  0  0  0  0
   11.2778  -15.8034   24.7418 C   0  0  2  0  0  0  0  0  0  0  0  0
    9.9227  -16.2853   24.7715 N   0  0  0  0  0  0  0  0  0  0  0  0
   11.9757  -16.1219   23.4734 C   0  0  0  0  0  0  0  0  0  0  0  0
   13.1160  -15.6188   23.3003 O   0  0  0  0  0  0  0  0  0  0  0  0
   11.1158  -17.0421   28.0059 C   0  0  0  0  0  0  0  0  0  0  0  0
   10.5828  -16.8784   29.2564 C   0  0  0  0  0  0  0  0  0  0  0  0
   11.4496  -16.9448   22.4566 N   0  0  0  0  0  0  0  0  0  0  0  0
   12.2354  -17.2616   21.3061 C   0  0  0  0  0  0  0  0  0  0  0  0
   11.5377  -18.0894   20.3144 C   0  0  0  0  0  0  0  0  0  0  0  0
   11.9308  -18.0961   18.9951 O   0  0  0  0  0  0  0  0  0  0  0  0
   10.5744  -18.7991   20.6642 O   0  0  0  0  0  0  0  0  0  0  0  0
  2  1  1  1
  2  3  1  0
  2 10  1  0
  4  9  1  0
  4  3  1  0
  5  4  2  0
  6  7  2  0
  6  5  1  0
  7  8  1  0
  8  9  2  0
 10 11  2  0
 13 12  1  0
 13 14  2  0
 15 14  1  0
 16 15  2  0
 17 16  1  0
 18 17  1  1
 19 10  1  0
 19 18  1  0
 20 18  1  0
 20 21  2  0
 22 23  2  0
 22 16  1  0
 23 13  1  0
 24 20  1  0
 25 24  1  0
 25 26  1  0
 26 27  1  0
 28 26  2  0
M  END
$$$$
