LWR.pdb
     RDKit          3D

 34 35  0  0  1  0  0  0  0  0999 V2000
    8.4597  -13.6767   18.4699 C   0  0  0  0  0  0  0  0  0  0  0  0
    7.6601  -13.2171   19.6504 C   0  0  2  0  0  0  0  0  0  0  0  0
    7.4091  -11.7297   19.4992 C   0  0  0  0  0  0  0  0  0  0  0  0
    8.1516  -13.6126   20.9780 C   0  0  0  0  0  0  0  0  0  0  0  0
    8.4125  -15.0380   21.2584 C   0  0  2  0  0  0  0  0  0  0  0  0
    7.3342  -15.9207   20.8525 N   0  0  0  0  0  0  0  0  0  0  0  0
    8.9897  -15.3645   22.5767 C   0  0  0  0  0  0  0  0  0  0  0  0
   10.0025  -14.7589   22.9656 O   0  0  0  0  0  0  0  0  0  0  0  0
    8.4554  -16.3447   23.4461 N   0  0  0  0  0  0  0  0  0  0  0  0
    8.9396  -16.6339   24.7585 C   0  0  1  0  0  0  0  0  0  0  0  0
    7.9545  -16.5713   25.8524 C   0  0  0  0  0  0  0  0  0  0  0  0
    7.2318  -15.2884   25.9945 C   0  0  0  0  0  0  0  0  0  0  0  0
    5.8794  -15.1260   25.8420 C   0  0  0  0  0  0  0  0  0  0  0  0
    5.5841  -13.8161   26.0523 N   0  0  0  0  0  0  0  0  0  0  0  0
    6.7229  -13.1325   26.3374 C   0  0  0  0  0  0  0  0  0  0  0  0
    6.9467  -11.7925   26.6239 C   0  0  0  0  0  0  0  0  0  0  0  0
    8.2208  -11.3423   26.8829 C   0  0  0  0  0  0  0  0  0  0  0  0
    9.2729  -12.2624   26.8499 C   0  0  0  0  0  0  0  0  0  0  0  0
    9.0417  -13.5900   26.5648 C   0  0  0  0  0  0  0  0  0  0  0  0
    7.7474  -14.0583   26.2995 C   0  0  0  0  0  0  0  0  0  0  0  0
    9.4555  -18.0592   24.7223 C   0  0  0  0  0  0  0  0  0  0  0  0
    8.7043  -18.9833   24.3214 O   0  0  0  0  0  0  0  0  0  0  0  0
   12.1363  -21.8595   19.7011 N   0  0  0  0  0  0  0  0  0  0  0  0
   13.5293  -21.5912   19.7776 C   0  0  0  0  0  0  0  0  0  0  0  0
   14.3979  -22.4710   19.3743 N   0  0  0  0  0  0  0  0  0  0  0  0
   14.0542  -20.3786   20.2855 N   0  0  0  0  0  0  0  0  0  0  0  0
   13.1880  -19.3913   20.9002 C   0  0  0  0  0  0  0  0  0  0  0  0
   12.9785  -19.6815   22.3639 C   0  0  0  0  0  0  0  0  0  0  0  0
   11.9453  -18.7724   22.9924 C   0  0  0  0  0  0  0  0  0  0  0  0
   11.7242  -19.1654   24.4085 C   0  0  2  0  0  0  0  0  0  0  0  0
   10.7634  -18.3741   25.1285 N   0  0  0  0  0  0  0  0  0  0  0  0
   13.0375  -19.3162   25.1146 C   0  0  0  0  0  0  0  0  0  0  0  0
   13.3385  -18.5263   26.2119 O   0  0  0  0  0  0  0  0  0  0  0  0
   13.8562  -20.1482   24.7181 O   0  0  0  0  0  0  0  0  0  0  0  0
  2  1  1  6
  2  3  1  0
  4  2  1  0
  5  4  1  0
  5  6  1  1
  7  5  1  0
  8  7  2  0
  9  7  1  0
 10 21  1  0
 10  9  1  0
 11 12  1  0
 10 11  1  1
 12 13  2  0
 13 14  1  0
 15 14  1  0
 16 15  2  0
 17 16  1  0
 18 19  1  0
 18 17  2  0
 19 20  2  0
 20 15  1  0
 20 12  1  0
 21 31  1  0
 22 21  2  0
 23 24  1  0
 24 26  1  0
 24 25  2  0
 26 27  1  0
 28 29  1  0
 28 27  1  0
 30 32  1  0
 30 29  1  6
 31 30  1  0
 32 34  2  0
 32 33  1  0
M  END
$$$$
