LWR.pdb
     RDKit          3D

 34 35  0  0  1  0  0  0  0  0999 V2000
    8.2661  -13.7698   17.8428 C   0  0  0  0  0  0  0  0  0  0  0  0
    7.5851  -13.3049   19.0936 C   0  0  2  0  0  0  0  0  0  0  0  0
    7.1858  -11.8551   18.9017 C   0  0  0  0  0  0  0  0  0  0  0  0
    8.2743  -13.5764   20.3631 C   0  0  0  0  0  0  0  0  0  0  0  0
    8.6853  -14.9574   20.6829 C   0  0  2  0  0  0  0  0  0  0  0  0
    7.6508  -15.9463   20.4412 N   0  0  0  0  0  0  0  0  0  0  0  0
    9.4235  -15.1592   21.9448 C   0  0  0  0  0  0  0  0  0  0  0  0
   10.5999  -14.7689   22.0318 O   0  0  0  0  0  0  0  0  0  0  0  0
    8.8687  -15.7833   23.0871 N   0  0  0  0  0  0  0  0  0  0  0  0
    9.5542  -16.0018   24.3211 C   0  0  1  0  0  0  0  0  0  0  0  0
    8.7153  -16.2812   25.4998 C   0  0  0  0  0  0  0  0  0  0  0  0
    7.6085  -15.3300   25.7416 C   0  0  0  0  0  0  0  0  0  0  0  0
    6.2795  -15.6032   25.5472 C   0  0  0  0  0  0  0  0  0  0  0  0
    5.5667  -14.4945   25.8785 N   0  0  0  0  0  0  0  0  0  0  0  0
    6.4138  -13.5123   26.2827 C   0  0  0  0  0  0  0  0  0  0  0  0
    6.1804  -12.2140   26.7158 C   0  0  0  0  0  0  0  0  0  0  0  0
    7.2323  -11.4035   27.0759 C   0  0  0  0  0  0  0  0  0  0  0  0
    8.5295  -11.9188   26.9944 C   0  0  0  0  0  0  0  0  0  0  0  0
    8.7518  -13.2081   26.5637 C   0  0  0  0  0  0  0  0  0  0  0  0
    7.6867  -14.0414   26.1946 C   0  0  0  0  0  0  0  0  0  0  0  0
   10.4315  -17.2212   24.1159 C   0  0  0  0  0  0  0  0  0  0  0  0
   10.0483  -18.1426   23.3524 O   0  0  0  0  0  0  0  0  0  0  0  0
   16.7022  -14.3362   19.4163 N   0  0  0  0  0  0  0  0  0  0  0  0
   15.4906  -15.0539   19.2285 C   0  0  0  0  0  0  0  0  0  0  0  0
   14.8321  -14.9636   18.1107 N   0  0  0  0  0  0  0  0  0  0  0  0
   14.9309  -15.8949   20.2201 N   0  0  0  0  0  0  0  0  0  0  0  0
   15.1301  -15.6194   21.6298 C   0  0  0  0  0  0  0  0  0  0  0  0
   14.6246  -16.7515   22.4862 C   0  0  0  0  0  0  0  0  0  0  0  0
   13.2807  -16.4489   23.1118 C   0  0  0  0  0  0  0  0  0  0  0  0
   12.9623  -17.4736   24.1401 C   0  0  2  0  0  0  0  0  0  0  0  0
   11.6725  -17.3465   24.7630 N   0  0  0  0  0  0  0  0  0  0  0  0
   14.0959  -17.6010   25.1120 C   0  0  0  0  0  0  0  0  0  0  0  0
   14.8119  -18.7833   25.2033 O   0  0  0  0  0  0  0  0  0  0  0  0
   14.3949  -16.6487   25.8354 O   0  0  0  0  0  0  0  0  0  0  0  0
  2  1  1  6
  2  3  1  0
  4  2  1  0
  5  4  1  0
  5  6  1  1
  7  5  1  0
  8  7  2  0
  9  7  1  0
 10 21  1  0
 10  9  1  0
 11 12  1  0
 10 11  1  1
 12 13  2  0
 13 14  1  0
 15 14  1  0
 16 15  2  0
 17 16  1  0
 18 19  1  0
 18 17  2  0
 19 20  2  0
 20 15  1  0
 20 12  1  0
 21 31  1  0
 22 21  2  0
 23 24  1  0
 24 26  1  0
 24 25  2  0
 26 27  1  0
 28 29  1  0
 28 27  1  0
 30 32  1  0
 30 29  1  1
 31 30  1  0
 32 34  2  0
 32 33  1  0
M  END
$$$$
