LWR.pdb
     RDKit          3D

 34 35  0  0  1  0  0  0  0  0999 V2000
    8.2142  -14.3636   17.9395 C   0  0  0  0  0  0  0  0  0  0  0  0
    7.6455  -13.5967   19.0939 C   0  0  2  0  0  0  0  0  0  0  0  0
    7.4075  -12.1699   18.6403 C   0  0  0  0  0  0  0  0  0  0  0  0
    8.3530  -13.7101   20.3773 C   0  0  0  0  0  0  0  0  0  0  0  0
    8.6371  -15.0481   20.9317 C   0  0  2  0  0  0  0  0  0  0  0  0
    7.5231  -15.9727   20.8282 N   0  0  0  0  0  0  0  0  0  0  0  0
    9.3384  -15.0982   22.2293 C   0  0  0  0  0  0  0  0  0  0  0  0
   10.3150  -14.3550   22.4234 O   0  0  0  0  0  0  0  0  0  0  0  0
    8.9652  -15.9570   23.2901 N   0  0  0  0  0  0  0  0  0  0  0  0
    9.5942  -16.0047   24.5717 C   0  0  1  0  0  0  0  0  0  0  0  0
    8.7029  -16.1275   25.7385 C   0  0  0  0  0  0  0  0  0  0  0  0
    7.5541  -15.1962   25.7712 C   0  0  0  0  0  0  0  0  0  0  0  0
    6.2495  -15.5476   25.5407 C   0  0  0  0  0  0  0  0  0  0  0  0
    5.4830  -14.4317   25.6618 N   0  0  0  0  0  0  0  0  0  0  0  0
    6.2716  -13.3682   25.9663 C   0  0  0  0  0  0  0  0  0  0  0  0
    5.9709  -12.0311   26.1884 C   0  0  0  0  0  0  0  0  0  0  0  0
    6.9720  -11.1356   26.4868 C   0  0  0  0  0  0  0  0  0  0  0  0
    8.2869  -11.6051   26.5594 C   0  0  0  0  0  0  0  0  0  0  0  0
    8.5761  -12.9334   26.3376 C   0  0  0  0  0  0  0  0  0  0  0  0
    7.5633  -13.8533   26.0329 C   0  0  0  0  0  0  0  0  0  0  0  0
   10.4784  -17.2364   24.5714 C   0  0  0  0  0  0  0  0  0  0  0  0
    9.9650  -18.3714   24.7359 O   0  0  0  0  0  0  0  0  0  0  0  0
   12.0616  -15.7795   19.2384 N   0  0  0  0  0  0  0  0  0  0  0  0
   13.4114  -15.3745   19.4185 C   0  0  0  0  0  0  0  0  0  0  0  0
   13.8199  -14.2169   18.9892 N   0  0  0  0  0  0  0  0  0  0  0  0
   14.3797  -16.1827   20.0611 N   0  0  0  0  0  0  0  0  0  0  0  0
   14.0057  -17.4327   20.6940 C   0  0  0  0  0  0  0  0  0  0  0  0
   13.6346  -17.2255   22.1396 C   0  0  0  0  0  0  0  0  0  0  0  0
   13.1976  -18.5070   22.8147 C   0  0  0  0  0  0  0  0  0  0  0  0
   12.7950  -18.2248   24.2172 C   0  0  2  0  0  0  0  0  0  0  0  0
   11.8684  -17.1388   24.3894 N   0  0  0  0  0  0  0  0  0  0  0  0
   14.0064  -18.1341   25.0948 C   0  0  0  0  0  0  0  0  0  0  0  0
   14.2526  -16.9889   25.8343 O   0  0  0  0  0  0  0  0  0  0  0  0
   14.7899  -19.0835   25.1607 O   0  0  0  0  0  0  0  0  0  0  0  0
  2  1  1  6
  2  3  1  0
  4  2  1  0
  5  4  1  0
  5  6  1  1
  7  5  1  0
  8  7  2  0
  9  7  1  0
 10 21  1  0
 10  9  1  0
 11 12  1  0
 10 11  1  1
 12 13  2  0
 13 14  1  0
 15 14  1  0
 16 15  2  0
 17 16  1  0
 18 19  1  0
 18 17  2  0
 19 20  2  0
 20 15  1  0
 20 12  1  0
 21 31  1  0
 22 21  2  0
 23 24  1  0
 24 26  1  0
 24 25  2  0
 26 27  1  0
 28 29  1  0
 28 27  1  0
 30 32  1  0
 30 29  1  6
 31 30  1  0
 32 34  2  0
 32 33  1  0
M  END
$$$$
