LWR.pdb
     RDKit          3D

 34 35  0  0  1  0  0  0  0  0999 V2000
    8.3490  -14.1595   17.7343 C   0  0  0  0  0  0  0  0  0  0  0  0
    7.7615  -13.4223   18.8986 C   0  0  2  0  0  0  0  0  0  0  0  0
    7.4771  -11.9992   18.4604 C   0  0  0  0  0  0  0  0  0  0  0  0
    8.4777  -13.5263   20.1780 C   0  0  0  0  0  0  0  0  0  0  0  0
    8.7562  -14.8600   20.7456 C   0  0  2  0  0  0  0  0  0  0  0  0
    7.6309  -15.7737   20.6716 N   0  0  0  0  0  0  0  0  0  0  0  0
    9.4772  -14.9008   22.0326 C   0  0  0  0  0  0  0  0  0  0  0  0
   10.4655  -14.1669   22.2012 O   0  0  0  0  0  0  0  0  0  0  0  0
    9.1105  -15.7404   23.1109 N   0  0  0  0  0  0  0  0  0  0  0  0
    9.7608  -15.7801   24.3821 C   0  0  1  0  0  0  0  0  0  0  0  0
    8.9089  -16.0701   25.5488 C   0  0  0  0  0  0  0  0  0  0  0  0
    7.7005  -15.2284   25.6879 C   0  0  0  0  0  0  0  0  0  0  0  0
    6.4234  -15.6305   25.3944 C   0  0  0  0  0  0  0  0  0  0  0  0
    5.5836  -14.5931   25.6510 N   0  0  0  0  0  0  0  0  0  0  0  0
    6.2979  -13.5302   26.1046 C   0  0  0  0  0  0  0  0  0  0  0  0
    5.9076  -12.2570   26.4972 C   0  0  0  0  0  0  0  0  0  0  0  0
    6.8452  -11.3456   26.9256 C   0  0  0  0  0  0  0  0  0  0  0  0
    8.1881  -11.7337   26.9543 C   0  0  0  0  0  0  0  0  0  0  0  0
    8.5663  -12.9990   26.5630 C   0  0  0  0  0  0  0  0  0  0  0  0
    7.6187  -13.9345   26.1250 C   0  0  0  0  0  0  0  0  0  0  0  0
   10.7850  -16.8956   24.3067 C   0  0  0  0  0  0  0  0  0  0  0  0
   10.4123  -18.0664   24.0437 O   0  0  0  0  0  0  0  0  0  0  0  0
   15.8273  -13.3968   19.5054 N   0  0  0  0  0  0  0  0  0  0  0  0
   15.9145  -14.6484   18.8389 C   0  0  0  0  0  0  0  0  0  0  0  0
   16.8056  -14.8463   17.9126 N   0  0  0  0  0  0  0  0  0  0  0  0
   15.0591  -15.7381   19.1296 N   0  0  0  0  0  0  0  0  0  0  0  0
   13.9042  -15.5698   19.9903 C   0  0  0  0  0  0  0  0  0  0  0  0
   14.1126  -16.2393   21.3241 C   0  0  0  0  0  0  0  0  0  0  0  0
   12.9380  -16.0471   22.2582 C   0  0  0  0  0  0  0  0  0  0  0  0
   13.2081  -16.7260   23.5523 C   0  0  2  0  0  0  0  0  0  0  0  0
   12.1513  -16.6499   24.5245 N   0  0  0  0  0  0  0  0  0  0  0  0
   14.5497  -16.3175   24.0808 C   0  0  0  0  0  0  0  0  0  0  0  0
   14.6635  -15.7417   25.3354 O   0  0  0  0  0  0  0  0  0  0  0  0
   15.5595  -16.4945   23.3962 O   0  0  0  0  0  0  0  0  0  0  0  0
  2  1  1  6
  2  3  1  0
  4  2  1  0
  5  4  1  0
  5  6  1  1
  7  5  1  0
  8  7  2  0
  9  7  1  0
 10 21  1  0
 10  9  1  0
 11 12  1  0
 10 11  1  1
 12 13  2  0
 13 14  1  0
 15 14  1  0
 16 15  2  0
 17 16  1  0
 18 19  1  0
 18 17  2  0
 19 20  2  0
 20 15  1  0
 20 12  1  0
 21 31  1  0
 22 21  2  0
 23 24  1  0
 24 26  1  0
 24 25  2  0
 26 27  1  0
 28 29  1  0
 28 27  1  0
 30 32  1  0
 30 29  1  6
 31 30  1  0
 32 34  2  0
 32 33  1  0
M  END
$$$$
