LWR.pdb
     RDKit          3D

 34 35  0  0  1  0  0  0  0  0999 V2000
    8.8440  -13.5847   17.7314 C   0  0  0  0  0  0  0  0  0  0  0  0
    8.0455  -13.0383   18.8751 C   0  0  2  0  0  0  0  0  0  0  0  0
    7.7252  -11.5872   18.5754 C   0  0  0  0  0  0  0  0  0  0  0  0
    8.5777  -13.2706   20.2253 C   0  0  0  0  0  0  0  0  0  0  0  0
    8.8633  -14.6508   20.6634 C   0  0  2  0  0  0  0  0  0  0  0  0
    7.7952  -15.5896   20.3726 N   0  0  0  0  0  0  0  0  0  0  0  0
    9.4576  -14.8165   22.0041 C   0  0  0  0  0  0  0  0  0  0  0  0
   10.4565  -14.1462   22.3150 O   0  0  0  0  0  0  0  0  0  0  0  0
    8.9552  -15.7093   22.9801 N   0  0  0  0  0  0  0  0  0  0  0  0
    9.4751  -15.8627   24.3017 C   0  0  1  0  0  0  0  0  0  0  0  0
    8.5225  -16.2999   25.3373 C   0  0  0  0  0  0  0  0  0  0  0  0
    7.2904  -15.4906   25.4609 C   0  0  0  0  0  0  0  0  0  0  0  0
    6.0548  -15.8629   24.9990 C   0  0  0  0  0  0  0  0  0  0  0  0
    5.1749  -14.8711   25.2979 N   0  0  0  0  0  0  0  0  0  0  0  0
    5.8226  -13.8669   25.9442 C   0  0  0  0  0  0  0  0  0  0  0  0
    5.3726  -12.6545   26.4494 C   0  0  0  0  0  0  0  0  0  0  0  0
    6.2479  -11.7959   27.0738 C   0  0  0  0  0  0  0  0  0  0  0  0
    7.5891  -12.1747   27.1842 C   0  0  0  0  0  0  0  0  0  0  0  0
    8.0268  -13.3795   26.6801 C   0  0  0  0  0  0  0  0  0  0  0  0
    7.1430  -14.2609   26.0423 C   0  0  0  0  0  0  0  0  0  0  0  0
   10.5469  -16.9321   24.2209 C   0  0  0  0  0  0  0  0  0  0  0  0
   10.2470  -18.0852   23.8218 O   0  0  0  0  0  0  0  0  0  0  0  0
   13.5526  -15.4343   18.2973 N   0  0  0  0  0  0  0  0  0  0  0  0
   14.4974  -16.0254   19.1785 C   0  0  0  0  0  0  0  0  0  0  0  0
   15.7187  -15.5823   19.2363 N   0  0  0  0  0  0  0  0  0  0  0  0
   14.1823  -17.1098   20.0320 N   0  0  0  0  0  0  0  0  0  0  0  0
   14.7023  -17.1690   21.3844 C   0  0  0  0  0  0  0  0  0  0  0  0
   13.5886  -17.2024   22.3988 C   0  0  0  0  0  0  0  0  0  0  0  0
   14.0933  -17.4395   23.8053 C   0  0  0  0  0  0  0  0  0  0  0  0
   12.9429  -17.6174   24.7293 C   0  0  2  0  0  0  0  0  0  0  0  0
   11.8775  -16.6627   24.5834 N   0  0  0  0  0  0  0  0  0  0  0  0
   13.4300  -17.7728   26.1380 C   0  0  0  0  0  0  0  0  0  0  0  0
   12.9504  -16.9467   27.1411 O   0  0  0  0  0  0  0  0  0  0  0  0
   14.2627  -18.6408   26.4079 O   0  0  0  0  0  0  0  0  0  0  0  0
  2  1  1  6
  2  3  1  0
  4  2  1  0
  5  4  1  0
  5  6  1  1
  7  5  1  0
  8  7  2  0
  9  7  1  0
 10 21  1  0
 10  9  1  0
 11 12  1  0
 10 11  1  1
 12 13  2  0
 13 14  1  0
 15 14  1  0
 16 15  2  0
 17 16  1  0
 18 19  1  0
 18 17  2  0
 19 20  2  0
 20 15  1  0
 20 12  1  0
 21 31  1  0
 22 21  2  0
 23 24  1  0
 24 26  1  0
 24 25  2  0
 26 27  1  0
 28 29  1  0
 28 27  1  0
 30 32  1  0
 30 29  1  6
 31 30  1  0
 32 34  2  0
 32 33  1  0
M  END
$$$$
