LWR.pdb
     RDKit          3D

 34 35  0  0  1  0  0  0  0  0999 V2000
    8.9242  -14.9792   15.7478 C   0  0  0  0  0  0  0  0  0  0  0  0
    8.0883  -14.1944   16.7119 C   0  0  2  0  0  0  0  0  0  0  0  0
    7.6480  -12.9177   16.0231 C   0  0  0  0  0  0  0  0  0  0  0  0
    8.6437  -13.9916   18.0575 C   0  0  0  0  0  0  0  0  0  0  0  0
    8.9340  -15.1643   18.9054 C   0  0  2  0  0  0  0  0  0  0  0  0
    8.1839  -16.3514   18.5383 N   0  0  0  0  0  0  0  0  0  0  0  0
    9.0143  -14.9328   20.3607 C   0  0  0  0  0  0  0  0  0  0  0  0
    9.7295  -14.0134   20.7931 O   0  0  0  0  0  0  0  0  0  0  0  0
    8.3165  -15.7069   21.3179 N   0  0  0  0  0  0  0  0  0  0  0  0
    8.3472  -15.4942   22.7301 C   0  0  1  0  0  0  0  0  0  0  0  0
    7.0601  -15.5978   23.4397 C   0  0  0  0  0  0  0  0  0  0  0  0
    7.0920  -15.2678   24.8813 C   0  0  0  0  0  0  0  0  0  0  0  0
    6.9780  -16.1780   25.8997 C   0  0  0  0  0  0  0  0  0  0  0  0
    7.0573  -15.5063   27.0785 N   0  0  0  0  0  0  0  0  0  0  0  0
    7.2205  -14.1794   26.8367 C   0  0  0  0  0  0  0  0  0  0  0  0
    7.3513  -13.0952   27.6940 C   0  0  0  0  0  0  0  0  0  0  0  0
    7.5081  -11.8256   27.1873 C   0  0  0  0  0  0  0  0  0  0  0  0
    7.5320  -11.6597   25.7993 C   0  0  0  0  0  0  0  0  0  0  0  0
    7.4016  -12.7411   24.9562 C   0  0  0  0  0  0  0  0  0  0  0  0
    7.2412  -14.0383   25.4627 C   0  0  0  0  0  0  0  0  0  0  0  0
    9.2471  -16.5693   23.3075 C   0  0  0  0  0  0  0  0  0  0  0  0
    8.9137  -17.7771   23.2133 O   0  0  0  0  0  0  0  0  0  0  0  0
   11.6244  -13.9473   20.9062 N   0  0  0  0  0  0  0  0  0  0  0  0
   12.8992  -14.2864   20.3788 C   0  0  0  0  0  0  0  0  0  0  0  0
   13.2009  -14.0125   19.1438 N   0  0  0  0  0  0  0  0  0  0  0  0
   13.9030  -14.9298   21.1419 N   0  0  0  0  0  0  0  0  0  0  0  0
   13.7313  -15.1492   22.5650 C   0  0  0  0  0  0  0  0  0  0  0  0
   13.1809  -16.5236   22.8451 C   0  0  0  0  0  0  0  0  0  0  0  0
   12.8534  -16.7292   24.3079 C   0  0  0  0  0  0  0  0  0  0  0  0
   11.4398  -17.1649   24.4505 C   0  0  2  0  0  0  0  0  0  0  0  0
   10.4543  -16.2453   23.9496 N   0  0  0  0  0  0  0  0  0  0  0  0
   11.1802  -17.6289   25.8517 C   0  0  0  0  0  0  0  0  0  0  0  0
   10.1078  -17.1259   26.5698 O   0  0  0  0  0  0  0  0  0  0  0  0
   11.9246  -18.4636   26.3703 O   0  0  0  0  0  0  0  0  0  0  0  0
  2  1  1  6
  2  3  1  0
  4  2  1  0
  5  4  1  0
  5  6  1  1
  7  5  1  0
  8  7  2  0
  9  7  1  0
 10 21  1  0
 10  9  1  0
 11 12  1  0
 10 11  1  1
 12 13  2  0
 13 14  1  0
 15 14  1  0
 16 15  2  0
 17 16  1  0
 18 19  1  0
 18 17  2  0
 19 20  2  0
 20 15  1  0
 20 12  1  0
 21 31  1  0
 22 21  2  0
 23 24  1  0
 24 26  1  0
 24 25  2  0
 26 27  1  0
 28 29  1  0
 28 27  1  0
 30 32  1  0
 30 29  1  1
 31 30  1  0
 32 34  2  0
 32 33  1  0
M  END
$$$$
