LWR.pdb
     RDKit          3D

 34 35  0  0  1  0  0  0  0  0999 V2000
    8.0216  -12.5553   18.7053 C   0  0  0  0  0  0  0  0  0  0  0  0
    7.8645  -13.8868   19.3736 C   0  0  2  0  0  0  0  0  0  0  0  0
    6.3882  -14.2306   19.3979 C   0  0  0  0  0  0  0  0  0  0  0  0
    8.5452  -14.0646   20.6641 C   0  0  0  0  0  0  0  0  0  0  0  0
    8.6356  -15.4140   21.2552 C   0  0  2  0  0  0  0  0  0  0  0  0
    7.4123  -16.1864   21.1392 N   0  0  0  0  0  0  0  0  0  0  0  0
    9.2901  -15.5232   22.5734 C   0  0  0  0  0  0  0  0  0  0  0  0
   10.2937  -14.8316   22.8147 O   0  0  0  0  0  0  0  0  0  0  0  0
    8.8416  -16.3839   23.6030 N   0  0  0  0  0  0  0  0  0  0  0  0
    9.4045  -16.4637   24.9135 C   0  0  1  0  0  0  0  0  0  0  0  0
    8.4694  -16.3120   26.0421 C   0  0  0  0  0  0  0  0  0  0  0  0
    7.5158  -15.1857   25.9403 C   0  0  0  0  0  0  0  0  0  0  0  0
    6.2161  -15.2908   25.5179 C   0  0  0  0  0  0  0  0  0  0  0  0
    5.6552  -14.0537   25.5630 N   0  0  0  0  0  0  0  0  0  0  0  0
    6.5712  -13.1540   26.0071 C   0  0  0  0  0  0  0  0  0  0  0  0
    6.4890  -11.7852   26.2243 C   0  0  0  0  0  0  0  0  0  0  0  0
    7.5822  -11.0898   26.6873 C   0  0  0  0  0  0  0  0  0  0  0  0
    8.7659  -11.7929   26.9305 C   0  0  0  0  0  0  0  0  0  0  0  0
    8.8385  -13.1510   26.7122 C   0  0  0  0  0  0  0  0  0  0  0  0
    7.7303  -13.8683   26.2406 C   0  0  0  0  0  0  0  0  0  0  0  0
   10.0110  -17.8478   25.0376 C   0  0  0  0  0  0  0  0  0  0  0  0
    9.2628  -18.8572   25.0440 O   0  0  0  0  0  0  0  0  0  0  0  0
   16.5727  -19.1538   21.0038 N   0  0  0  0  0  0  0  0  0  0  0  0
   15.3610  -18.5526   20.5693 C   0  0  0  0  0  0  0  0  0  0  0  0
   15.0629  -18.4990   19.3046 N   0  0  0  0  0  0  0  0  0  0  0  0
   14.4191  -17.9848   21.4605 N   0  0  0  0  0  0  0  0  0  0  0  0
   14.5250  -18.1968   22.8911 C   0  0  0  0  0  0  0  0  0  0  0  0
   13.5031  -19.1929   23.3747 C   0  0  0  0  0  0  0  0  0  0  0  0
   13.4912  -19.3250   24.8819 C   0  0  0  0  0  0  0  0  0  0  0  0
   12.0925  -19.2686   25.3809 C   0  0  2  0  0  0  0  0  0  0  0  0
   11.4001  -18.0305   25.1456 N   0  0  0  0  0  0  0  0  0  0  0  0
   12.0312  -19.7377   26.8029 C   0  0  0  0  0  0  0  0  0  0  0  0
   12.5569  -20.9688   27.1586 O   0  0  0  0  0  0  0  0  0  0  0  0
   11.5101  -19.0247   27.6631 O   0  0  0  0  0  0  0  0  0  0  0  0
  2  1  1  1
  2  3  1  0
  4  2  1  0
  5  4  1  0
  5  6  1  1
  7  5  1  0
  8  7  2  0
  9  7  1  0
 10 21  1  0
 10  9  1  0
 11 12  1  0
 10 11  1  1
 12 13  2  0
 13 14  1  0
 15 14  1  0
 16 15  2  0
 17 16  1  0
 18 19  1  0
 18 17  2  0
 19 20  2  0
 20 15  1  0
 20 12  1  0
 21 31  1  0
 22 21  2  0
 23 24  1  0
 24 26  1  0
 24 25  2  0
 26 27  1  0
 28 29  1  0
 28 27  1  0
 30 32  1  0
 30 29  1  1
 31 30  1  0
 32 34  2  0
 32 33  1  0
M  END
$$$$
