LWR.pdb
     RDKit          3D

 34 35  0  0  1  0  0  0  0  0999 V2000
    7.9615  -14.3103   17.9564 C   0  0  0  0  0  0  0  0  0  0  0  0
    7.0642  -13.8363   19.0584 C   0  0  2  0  0  0  0  0  0  0  0  0
    6.5545  -12.4567   18.6906 C   0  0  0  0  0  0  0  0  0  0  0  0
    7.5864  -13.9394   20.4284 C   0  0  0  0  0  0  0  0  0  0  0  0
    8.1212  -15.2302   20.9042 C   0  0  2  0  0  0  0  0  0  0  0  0
    7.1514  -16.3097   20.8796 N   0  0  0  0  0  0  0  0  0  0  0  0
    8.9529  -15.2000   22.1230 C   0  0  0  0  0  0  0  0  0  0  0  0
    9.8969  -14.3955   22.1969 O   0  0  0  0  0  0  0  0  0  0  0  0
    8.7431  -16.0466   23.2371 N   0  0  0  0  0  0  0  0  0  0  0  0
    9.4842  -16.0013   24.4574 C   0  0  1  0  0  0  0  0  0  0  0  0
    8.7124  -16.1581   25.7027 C   0  0  0  0  0  0  0  0  0  0  0  0
    7.5709  -15.2328   25.8727 C   0  0  0  0  0  0  0  0  0  0  0  0
    6.2502  -15.5868   25.7784 C   0  0  0  0  0  0  0  0  0  0  0  0
    5.4976  -14.4765   25.9981 N   0  0  0  0  0  0  0  0  0  0  0  0
    6.3111  -13.4139   26.2322 C   0  0  0  0  0  0  0  0  0  0  0  0
    6.0318  -12.0817   26.5056 C   0  0  0  0  0  0  0  0  0  0  0  0
    7.0564  -11.1860   26.7082 C   0  0  0  0  0  0  0  0  0  0  0  0
    8.3730  -11.6502   26.6320 C   0  0  0  0  0  0  0  0  0  0  0  0
    8.6408  -12.9737   26.3604 C   0  0  0  0  0  0  0  0  0  0  0  0
    7.6039  -13.8938   26.1523 C   0  0  0  0  0  0  0  0  0  0  0  0
   10.4650  -17.1566   24.4082 C   0  0  0  0  0  0  0  0  0  0  0  0
   10.0613  -18.3259   24.6284 O   0  0  0  0  0  0  0  0  0  0  0  0
   13.1520  -14.7736   19.4756 N   0  0  0  0  0  0  0  0  0  0  0  0
   14.4598  -14.8418   20.0264 C   0  0  0  0  0  0  0  0  0  0  0  0
   15.3132  -13.8800   19.8314 N   0  0  0  0  0  0  0  0  0  0  0  0
   14.9125  -15.9337   20.8052 N   0  0  0  0  0  0  0  0  0  0  0  0
   14.3437  -17.2568   20.6353 C   0  0  0  0  0  0  0  0  0  0  0  0
   13.3147  -17.5513   21.6959 C   0  0  0  0  0  0  0  0  0  0  0  0
   13.9289  -17.7156   23.0688 C   0  0  0  0  0  0  0  0  0  0  0  0
   12.8592  -17.9474   24.0741 C   0  0  2  0  0  0  0  0  0  0  0  0
   11.8246  -16.9498   24.1193 N   0  0  0  0  0  0  0  0  0  0  0  0
   13.4631  -18.2567   25.4103 C   0  0  0  0  0  0  0  0  0  0  0  0
   13.0548  -17.5682   26.5408 O   0  0  0  0  0  0  0  0  0  0  0  0
   14.3287  -19.1292   25.5062 O   0  0  0  0  0  0  0  0  0  0  0  0
  2  1  1  6
  2  3  1  0
  4  2  1  0
  5  4  1  0
  5  6  1  1
  7  5  1  0
  8  7  2  0
  9  7  1  0
 10 21  1  0
 10  9  1  0
 11 12  1  0
 10 11  1  1
 12 13  2  0
 13 14  1  0
 15 14  1  0
 16 15  2  0
 17 16  1  0
 18 19  1  0
 18 17  2  0
 19 20  2  0
 20 15  1  0
 20 12  1  0
 21 31  1  0
 22 21  2  0
 23 24  1  0
 24 26  1  0
 24 25  2  0
 26 27  1  0
 28 29  1  0
 28 27  1  0
 30 32  1  0
 30 29  1  6
 31 30  1  0
 32 34  2  0
 32 33  1  0
M  END
$$$$
