LWR.pdb
     RDKit          3D

 34 35  0  0  1  0  0  0  0  0999 V2000
    7.6104  -14.7988   18.0010 C   0  0  0  0  0  0  0  0  0  0  0  0
    7.0482  -14.0054   19.1406 C   0  0  2  0  0  0  0  0  0  0  0  0
    6.6691  -12.6337   18.6181 C   0  0  0  0  0  0  0  0  0  0  0  0
    7.8350  -13.9802   20.3819 C   0  0  0  0  0  0  0  0  0  0  0  0
    8.2779  -15.2528   20.9844 C   0  0  2  0  0  0  0  0  0  0  0  0
    7.2389  -16.2645   21.0440 N   0  0  0  0  0  0  0  0  0  0  0  0
    9.0970  -15.1627   22.2087 C   0  0  0  0  0  0  0  0  0  0  0  0
    9.9904  -14.3023   22.2824 O   0  0  0  0  0  0  0  0  0  0  0  0
    8.9298  -16.0112   23.3286 N   0  0  0  0  0  0  0  0  0  0  0  0
    9.6915  -15.9426   24.5351 C   0  0  1  0  0  0  0  0  0  0  0  0
    8.9351  -16.0256   25.7968 C   0  0  0  0  0  0  0  0  0  0  0  0
    7.7752  -15.1149   25.9125 C   0  0  0  0  0  0  0  0  0  0  0  0
    6.4620  -15.4982   25.8263 C   0  0  0  0  0  0  0  0  0  0  0  0
    5.6872  -14.3929   25.9851 N   0  0  0  0  0  0  0  0  0  0  0  0
    6.4788  -13.3047   26.1721 C   0  0  0  0  0  0  0  0  0  0  0  0
    6.1726  -11.9661   26.3770 C   0  0  0  0  0  0  0  0  0  0  0  0
    7.1787  -11.0422   26.5423 C   0  0  0  0  0  0  0  0  0  0  0  0
    8.5042  -11.4845   26.4988 C   0  0  0  0  0  0  0  0  0  0  0  0
    8.7988  -12.8146   26.2951 C   0  0  0  0  0  0  0  0  0  0  0  0
    7.7810  -13.7634   26.1255 C   0  0  0  0  0  0  0  0  0  0  0  0
   10.6339  -17.1303   24.5170 C   0  0  0  0  0  0  0  0  0  0  0  0
   10.1736  -18.2924   24.6449 O   0  0  0  0  0  0  0  0  0  0  0  0
   13.8264  -16.0426   19.8252 N   0  0  0  0  0  0  0  0  0  0  0  0
   14.4481  -14.8262   20.2157 C   0  0  0  0  0  0  0  0  0  0  0  0
   14.3410  -13.7598   19.4791 N   0  0  0  0  0  0  0  0  0  0  0  0
   15.2076  -14.6949   21.4030 N   0  0  0  0  0  0  0  0  0  0  0  0
   15.4253  -15.8309   22.2777 C   0  0  0  0  0  0  0  0  0  0  0  0
   14.1207  -16.3971   22.7756 C   0  0  0  0  0  0  0  0  0  0  0  0
   14.3169  -17.5880   23.6879 C   0  0  0  0  0  0  0  0  0  0  0  0
   13.0111  -17.9993   24.2662 C   0  0  2  0  0  0  0  0  0  0  0  0
   12.0199  -16.9616   24.3587 N   0  0  0  0  0  0  0  0  0  0  0  0
   13.2252  -18.7500   25.5455 C   0  0  0  0  0  0  0  0  0  0  0  0
   12.5974  -18.3427   26.7112 O   0  0  0  0  0  0  0  0  0  0  0  0
   13.9641  -19.7366   25.5626 O   0  0  0  0  0  0  0  0  0  0  0  0
  2  1  1  6
  2  3  1  0
  4  2  1  0
  5  4  1  0
  5  6  1  1
  7  5  1  0
  8  7  2  0
  9  7  1  0
 10 21  1  0
 10  9  1  0
 11 12  1  0
 10 11  1  1
 12 13  2  0
 13 14  1  0
 15 14  1  0
 16 15  2  0
 17 16  1  0
 18 19  1  0
 18 17  2  0
 19 20  2  0
 20 15  1  0
 20 12  1  0
 21 31  1  0
 22 21  2  0
 23 24  1  0
 24 26  1  0
 24 25  2  0
 26 27  1  0
 28 29  1  0
 28 27  1  0
 30 32  1  0
 30 29  1  1
 31 30  1  0
 32 34  2  0
 32 33  1  0
M  END
$$$$
