LWR.pdb
     RDKit          3D

 34 35  0  0  1  0  0  0  0  0999 V2000
    7.9202  -14.8732   16.0764 C   0  0  0  0  0  0  0  0  0  0  0  0
    7.4565  -14.0403   17.2321 C   0  0  2  0  0  0  0  0  0  0  0  0
    7.1190  -12.6573   16.7107 C   0  0  0  0  0  0  0  0  0  0  0  0
    8.3058  -14.0405   18.4317 C   0  0  0  0  0  0  0  0  0  0  0  0
    8.4726  -15.2893   19.2005 C   0  0  2  0  0  0  0  0  0  0  0  0
    7.4638  -16.2924   18.9128 N   0  0  0  0  0  0  0  0  0  0  0  0
    8.7894  -15.1529   20.6354 C   0  0  0  0  0  0  0  0  0  0  0  0
    9.8471  -14.5969   20.9759 O   0  0  0  0  0  0  0  0  0  0  0  0
    7.9506  -15.6255   21.6724 N   0  0  0  0  0  0  0  0  0  0  0  0
    8.1730  -15.4229   23.0688 C   0  0  1  0  0  0  0  0  0  0  0  0
    6.9736  -15.3023   23.9159 C   0  0  0  0  0  0  0  0  0  0  0  0
    7.2125  -14.8764   25.3123 C   0  0  0  0  0  0  0  0  0  0  0  0
    7.5778  -15.7095   26.3375 C   0  0  0  0  0  0  0  0  0  0  0  0
    7.7090  -14.9613   27.4645 N   0  0  0  0  0  0  0  0  0  0  0  0
    7.4345  -13.6610   27.1825 C   0  0  0  0  0  0  0  0  0  0  0  0
    7.4293  -12.5255   27.9815 C   0  0  0  0  0  0  0  0  0  0  0  0
    7.1095  -11.3004   27.4431 C   0  0  0  0  0  0  0  0  0  0  0  0
    6.7933  -11.2316   26.0830 C   0  0  0  0  0  0  0  0  0  0  0  0
    6.8010  -12.3632   25.2977 C   0  0  0  0  0  0  0  0  0  0  0  0
    7.1254  -13.6158   25.8370 C   0  0  0  0  0  0  0  0  0  0  0  0
    8.9320  -16.6384   23.5643 C   0  0  0  0  0  0  0  0  0  0  0  0
    8.5434  -17.7890   23.2421 O   0  0  0  0  0  0  0  0  0  0  0  0
   16.0643  -16.6002   20.7753 N   0  0  0  0  0  0  0  0  0  0  0  0
   15.1572  -15.5297   20.5525 C   0  0  0  0  0  0  0  0  0  0  0  0
   15.5834  -14.3755   20.1310 N   0  0  0  0  0  0  0  0  0  0  0  0
   13.7629  -15.6428   20.7688 N   0  0  0  0  0  0  0  0  0  0  0  0
   13.1914  -16.8523   21.3285 C   0  0  0  0  0  0  0  0  0  0  0  0
   12.5889  -16.5965   22.6857 C   0  0  0  0  0  0  0  0  0  0  0  0
   11.8336  -17.7942   23.2191 C   0  0  0  0  0  0  0  0  0  0  0  0
   11.1603  -17.4369   24.4949 C   0  0  2  0  0  0  0  0  0  0  0  0
   10.0684  -16.5083   24.3805 N   0  0  0  0  0  0  0  0  0  0  0  0
   12.1772  -17.0541   25.5270 C   0  0  0  0  0  0  0  0  0  0  0  0
   12.0422  -15.8748   26.2410 O   0  0  0  0  0  0  0  0  0  0  0  0
   13.1405  -17.7922   25.7437 O   0  0  0  0  0  0  0  0  0  0  0  0
  2  1  1  6
  2  3  1  0
  4  2  1  0
  5  4  1  0
  5  6  1  1
  7  5  1  0
  8  7  2  0
  9  7  1  0
 10 21  1  0
 10  9  1  0
 11 12  1  0
 10 11  1  1
 12 13  2  0
 13 14  1  0
 15 14  1  0
 16 15  2  0
 17 16  1  0
 18 19  1  0
 18 17  2  0
 19 20  2  0
 20 15  1  0
 20 12  1  0
 21 31  1  0
 22 21  2  0
 23 24  1  0
 24 26  1  0
 24 25  2  0
 26 27  1  0
 28 29  1  0
 28 27  1  0
 30 32  1  0
 30 29  1  6
 31 30  1  0
 32 34  2  0
 32 33  1  0
M  END
$$$$
