LWR.pdb
     RDKit          3D

 34 35  0  0  1  0  0  0  0  0999 V2000
    8.5432  -14.8705   15.9551 C   0  0  0  0  0  0  0  0  0  0  0  0
    7.9452  -13.9333   16.9593 C   0  0  2  0  0  0  0  0  0  0  0  0
    7.7768  -12.5794   16.2984 C   0  0  0  0  0  0  0  0  0  0  0  0
    8.5858  -13.8823   18.2812 C   0  0  0  0  0  0  0  0  0  0  0  0
    8.6956  -15.1181   19.0808 C   0  0  2  0  0  0  0  0  0  0  0  0
    7.7085  -16.1256   18.7387 N   0  0  0  0  0  0  0  0  0  0  0  0
    8.9096  -14.9576   20.5321 C   0  0  0  0  0  0  0  0  0  0  0  0
    9.8496  -14.2523   20.9354 O   0  0  0  0  0  0  0  0  0  0  0  0
    8.0980  -15.5688   21.5170 N   0  0  0  0  0  0  0  0  0  0  0  0
    8.2490  -15.4032   22.9278 C   0  0  1  0  0  0  0  0  0  0  0  0
    7.0082  -15.3430   23.7202 C   0  0  0  0  0  0  0  0  0  0  0  0
    7.1752  -15.0131   25.1525 C   0  0  0  0  0  0  0  0  0  0  0  0
    7.4631  -15.9187   26.1402 C   0  0  0  0  0  0  0  0  0  0  0  0
    7.5450  -15.2474   27.3191 N   0  0  0  0  0  0  0  0  0  0  0  0
    7.3147  -13.9253   27.1074 C   0  0  0  0  0  0  0  0  0  0  0  0
    7.2875  -12.8434   27.9771 C   0  0  0  0  0  0  0  0  0  0  0  0
    7.0253  -11.5788   27.5025 C   0  0  0  0  0  0  0  0  0  0  0  0
    6.7895  -11.4156   26.1341 C   0  0  0  0  0  0  0  0  0  0  0  0
    6.8186  -12.4946   25.2785 C   0  0  0  0  0  0  0  0  0  0  0  0
    7.0847  -13.7868   25.7524 C   0  0  0  0  0  0  0  0  0  0  0  0
    9.0199  -16.6114   23.4227 C   0  0  0  0  0  0  0  0  0  0  0  0
    8.5145  -17.7572   23.3203 O   0  0  0  0  0  0  0  0  0  0  0  0
   15.6266  -14.9817   22.4952 N   0  0  0  0  0  0  0  0  0  0  0  0
   14.9467  -14.7289   21.2737 C   0  0  0  0  0  0  0  0  0  0  0  0
   15.2353  -13.6824   20.5576 N   0  0  0  0  0  0  0  0  0  0  0  0
   13.9338  -15.5771   20.7652 N   0  0  0  0  0  0  0  0  0  0  0  0
   13.5978  -16.8197   21.4329 C   0  0  0  0  0  0  0  0  0  0  0  0
   12.7441  -16.5744   22.6500 C   0  0  0  0  0  0  0  0  0  0  0  0
   12.2112  -17.8563   23.2516 C   0  0  0  0  0  0  0  0  0  0  0  0
   11.2157  -17.5402   24.3087 C   0  0  2  0  0  0  0  0  0  0  0  0
   10.2958  -16.4799   23.9966 N   0  0  0  0  0  0  0  0  0  0  0  0
   11.8998  -17.3802   25.6325 C   0  0  0  0  0  0  0  0  0  0  0  0
   11.7193  -16.2284   26.3805 O   0  0  0  0  0  0  0  0  0  0  0  0
   12.6279  -18.2782   26.0602 O   0  0  0  0  0  0  0  0  0  0  0  0
  2  1  1  6
  2  3  1  0
  4  2  1  0
  5  4  1  0
  5  6  1  1
  7  5  1  0
  8  7  2  0
  9  7  1  0
 10 21  1  0
 10  9  1  0
 11 12  1  0
 10 11  1  1
 12 13  2  0
 13 14  1  0
 15 14  1  0
 16 15  2  0
 17 16  1  0
 18 19  1  0
 18 17  2  0
 19 20  2  0
 20 15  1  0
 20 12  1  0
 21 31  1  0
 22 21  2  0
 23 24  1  0
 24 26  1  0
 24 25  2  0
 26 27  1  0
 28 29  1  0
 28 27  1  0
 30 32  1  0
 30 29  1  6
 31 30  1  0
 32 34  2  0
 32 33  1  0
M  END
$$$$
