LWR.pdb
     RDKit          3D

 34 35  0  0  1  0  0  0  0  0999 V2000
    7.8549  -12.7263   18.2171 C   0  0  0  0  0  0  0  0  0  0  0  0
    7.6803  -13.7775   19.2701 C   0  0  2  0  0  0  0  0  0  0  0  0
    6.3617  -13.5248   19.9741 C   0  0  0  0  0  0  0  0  0  0  0  0
    8.8144  -14.0002   20.1781 C   0  0  0  0  0  0  0  0  0  0  0  0
    8.9053  -15.2699   20.9252 C   0  0  2  0  0  0  0  0  0  0  0  0
    7.6726  -16.0362   20.9283 N   0  0  0  0  0  0  0  0  0  0  0  0
    9.5877  -15.2279   22.2330 C   0  0  0  0  0  0  0  0  0  0  0  0
   10.5756  -14.4892   22.3816 O   0  0  0  0  0  0  0  0  0  0  0  0
    9.1836  -15.9916   23.3536 N   0  0  0  0  0  0  0  0  0  0  0  0
    9.8062  -15.9615   24.6389 C   0  0  1  0  0  0  0  0  0  0  0  0
    8.9340  -16.2151   25.7991 C   0  0  0  0  0  0  0  0  0  0  0  0
    7.7467  -15.3404   25.9146 C   0  0  0  0  0  0  0  0  0  0  0  0
    6.4475  -15.7553   25.7785 C   0  0  0  0  0  0  0  0  0  0  0  0
    5.6384  -14.6776   25.9548 N   0  0  0  0  0  0  0  0  0  0  0  0
    6.3943  -13.5761   26.2019 C   0  0  0  0  0  0  0  0  0  0  0  0
    6.0457  -12.2544   26.4454 C   0  0  0  0  0  0  0  0  0  0  0  0
    7.0211  -11.3105   26.6712 C   0  0  0  0  0  0  0  0  0  0  0  0
    8.3590  -11.7155   26.6488 C   0  0  0  0  0  0  0  0  0  0  0  0
    8.6957  -13.0289   26.4065 C   0  0  0  0  0  0  0  0  0  0  0  0
    7.7094  -13.9978   26.1753 C   0  0  0  0  0  0  0  0  0  0  0  0
   10.8522  -17.0591   24.6361 C   0  0  0  0  0  0  0  0  0  0  0  0
   10.6479  -18.1155   25.2850 O   0  0  0  0  0  0  0  0  0  0  0  0
   15.4566  -16.4567   18.6420 N   0  0  0  0  0  0  0  0  0  0  0  0
   14.5599  -15.4245   19.0280 C   0  0  0  0  0  0  0  0  0  0  0  0
   14.7897  -14.1878   18.6978 N   0  0  0  0  0  0  0  0  0  0  0  0
   13.3848  -15.6652   19.7796 N   0  0  0  0  0  0  0  0  0  0  0  0
   13.0912  -16.9862   20.3009 C   0  0  0  0  0  0  0  0  0  0  0  0
   13.9009  -17.2799   21.5372 C   0  0  0  0  0  0  0  0  0  0  0  0
   13.3027  -18.3920   22.3706 C   0  0  0  0  0  0  0  0  0  0  0  0
   13.0814  -17.9155   23.7608 C   0  0  2  0  0  0  0  0  0  0  0  0
   12.0532  -16.9229   23.9194 N   0  0  0  0  0  0  0  0  0  0  0  0
   14.3876  -17.5431   24.3942 C   0  0  0  0  0  0  0  0  0  0  0  0
   14.5711  -16.2800   24.9325 O   0  0  0  0  0  0  0  0  0  0  0  0
   15.3057  -18.3645   24.4376 O   0  0  0  0  0  0  0  0  0  0  0  0
  2  1  1  1
  2  3  1  0
  4  2  1  0
  5  4  1  0
  5  6  1  1
  7  5  1  0
  8  7  2  0
  9  7  1  0
 10 21  1  0
 10  9  1  0
 11 12  1  0
 10 11  1  1
 12 13  2  0
 13 14  1  0
 15 14  1  0
 16 15  2  0
 17 16  1  0
 18 19  1  0
 18 17  2  0
 19 20  2  0
 20 15  1  0
 20 12  1  0
 21 31  1  0
 22 21  2  0
 23 24  1  0
 24 26  1  0
 24 25  2  0
 26 27  1  0
 28 29  1  0
 28 27  1  0
 30 32  1  0
 30 29  1  6
 31 30  1  0
 32 34  2  0
 32 33  1  0
M  END
$$$$
