LWR.pdb
     RDKit          3D

 34 35  0  0  1  0  0  0  0  0999 V2000
    8.1826  -14.6704   18.0139 C   0  0  0  0  0  0  0  0  0  0  0  0
    7.5106  -13.9480   19.1411 C   0  0  2  0  0  0  0  0  0  0  0  0
    7.1622  -12.5517   18.6648 C   0  0  0  0  0  0  0  0  0  0  0  0
    8.1828  -13.9880   20.4477 C   0  0  0  0  0  0  0  0  0  0  0  0
    8.5418  -15.2924   21.0376 C   0  0  2  0  0  0  0  0  0  0  0  0
    7.5060  -16.3001   20.9029 N   0  0  0  0  0  0  0  0  0  0  0  0
    9.1868  -15.2702   22.3648 C   0  0  0  0  0  0  0  0  0  0  0  0
    9.9992  -14.3691   22.6327 O   0  0  0  0  0  0  0  0  0  0  0  0
    8.9372  -16.2297   23.3745 N   0  0  0  0  0  0  0  0  0  0  0  0
    9.5520  -16.2478   24.6637 C   0  0  1  0  0  0  0  0  0  0  0  0
    8.6490  -16.3645   25.8222 C   0  0  0  0  0  0  0  0  0  0  0  0
    7.5383  -15.3888   25.8728 C   0  0  0  0  0  0  0  0  0  0  0  0
    6.2213  -15.6825   25.6323 C   0  0  0  0  0  0  0  0  0  0  0  0
    5.4997  -14.5397   25.7760 N   0  0  0  0  0  0  0  0  0  0  0  0
    6.3295  -13.5154   26.1048 C   0  0  0  0  0  0  0  0  0  0  0  0
    6.0819  -12.1724   26.3550 C   0  0  0  0  0  0  0  0  0  0  0  0
    7.1173  -11.3244   26.6745 C   0  0  0  0  0  0  0  0  0  0  0  0
    8.4122  -11.8476   26.7394 C   0  0  0  0  0  0  0  0  0  0  0  0
    8.6485  -13.1814   26.4897 C   0  0  0  0  0  0  0  0  0  0  0  0
    7.6005  -14.0532   26.1634 C   0  0  0  0  0  0  0  0  0  0  0  0
   10.4532  -17.4668   24.6935 C   0  0  0  0  0  0  0  0  0  0  0  0
   10.0585  -18.5193   25.2549 O   0  0  0  0  0  0  0  0  0  0  0  0
   14.7963  -14.8096   18.9432 N   0  0  0  0  0  0  0  0  0  0  0  0
   13.7963  -14.7082   19.9472 C   0  0  0  0  0  0  0  0  0  0  0  0
   12.8437  -13.8283   19.8487 N   0  0  0  0  0  0  0  0  0  0  0  0
   13.7689  -15.5366   21.0947 N   0  0  0  0  0  0  0  0  0  0  0  0
   14.1171  -16.9416   21.0079 C   0  0  0  0  0  0  0  0  0  0  0  0
   13.1252  -17.7990   21.7505 C   0  0  0  0  0  0  0  0  0  0  0  0
   13.7157  -18.4202   22.9972 C   0  0  0  0  0  0  0  0  0  0  0  0
   12.6696  -18.5336   24.0467 C   0  0  2  0  0  0  0  0  0  0  0  0
   11.7283  -17.4481   24.1033 N   0  0  0  0  0  0  0  0  0  0  0  0
   13.2956  -18.8637   25.3677 C   0  0  0  0  0  0  0  0  0  0  0  0
   14.1560  -19.9428   25.4860 O   0  0  0  0  0  0  0  0  0  0  0  0
   13.0448  -18.1716   26.3565 O   0  0  0  0  0  0  0  0  0  0  0  0
  2  1  1  6
  2  3  1  0
  4  2  1  0
  5  4  1  0
  5  6  1  1
  7  5  1  0
  8  7  2  0
  9  7  1  0
 10 21  1  0
 10  9  1  0
 11 12  1  0
 10 11  1  1
 12 13  2  0
 13 14  1  0
 15 14  1  0
 16 15  2  0
 17 16  1  0
 18 19  1  0
 18 17  2  0
 19 20  2  0
 20 15  1  0
 20 12  1  0
 21 31  1  0
 22 21  2  0
 23 24  1  0
 24 26  1  0
 24 25  2  0
 26 27  1  0
 28 29  1  0
 28 27  1  0
 30 32  1  0
 30 29  1  6
 31 30  1  0
 32 34  2  0
 32 33  1  0
M  END
$$$$
