LWR.pdb
     RDKit          3D

 34 35  0  0  1  0  0  0  0  0999 V2000
    7.7239  -12.6319   18.0093 C   0  0  0  0  0  0  0  0  0  0  0  0
    7.5180  -13.7289   19.0085 C   0  0  2  0  0  0  0  0  0  0  0  0
    6.0921  -13.6424   19.5160 C   0  0  0  0  0  0  0  0  0  0  0  0
    8.5276  -13.8569   20.0690 C   0  0  0  0  0  0  0  0  0  0  0  0
    8.6624  -15.1380   20.7895 C   0  0  2  0  0  0  0  0  0  0  0  0
    7.4329  -15.9067   20.8507 N   0  0  0  0  0  0  0  0  0  0  0  0
    9.4182  -15.1151   22.0568 C   0  0  0  0  0  0  0  0  0  0  0  0
   10.4276  -14.3968   22.1517 O   0  0  0  0  0  0  0  0  0  0  0  0
    9.0627  -15.8753   23.1961 N   0  0  0  0  0  0  0  0  0  0  0  0
    9.7374  -15.8383   24.4546 C   0  0  1  0  0  0  0  0  0  0  0  0
    8.9098  -16.0646   25.6523 C   0  0  0  0  0  0  0  0  0  0  0  0
    7.7508  -15.1596   25.8137 C   0  0  0  0  0  0  0  0  0  0  0  0
    6.4385  -15.5283   25.6696 C   0  0  0  0  0  0  0  0  0  0  0  0
    5.6643  -14.4347   25.8975 N   0  0  0  0  0  0  0  0  0  0  0  0
    6.4554  -13.3685   26.1857 C   0  0  0  0  0  0  0  0  0  0  0  0
    6.1494  -12.0484   26.4877 C   0  0  0  0  0  0  0  0  0  0  0  0
    7.1548  -11.1454   26.7462 C   0  0  0  0  0  0  0  0  0  0  0  0
    8.4795  -11.5898   26.6968 C   0  0  0  0  0  0  0  0  0  0  0  0
    8.7738  -12.9015   26.3964 C   0  0  0  0  0  0  0  0  0  0  0  0
    7.7566  -13.8289   26.1315 C   0  0  0  0  0  0  0  0  0  0  0  0
   10.7668  -16.9511   24.4237 C   0  0  0  0  0  0  0  0  0  0  0  0
   10.4136  -18.1328   24.6641 O   0  0  0  0  0  0  0  0  0  0  0  0
   14.2476  -13.8654   18.2185 N   0  0  0  0  0  0  0  0  0  0  0  0
   14.7678  -14.4283   19.4147 C   0  0  0  0  0  0  0  0  0  0  0  0
   15.3992  -13.6873   20.2771 N   0  0  0  0  0  0  0  0  0  0  0  0
   14.6381  -15.7994   19.7417 N   0  0  0  0  0  0  0  0  0  0  0  0
   15.0904  -16.3059   21.0231 C   0  0  0  0  0  0  0  0  0  0  0  0
   13.9330  -16.7740   21.8667 C   0  0  0  0  0  0  0  0  0  0  0  0
   14.3652  -17.2200   23.2464 C   0  0  0  0  0  0  0  0  0  0  0  0
   13.1790  -17.6545   24.0292 C   0  0  2  0  0  0  0  0  0  0  0  0
   12.1161  -16.6913   24.1297 N   0  0  0  0  0  0  0  0  0  0  0  0
   13.6090  -18.2237   25.3471 C   0  0  0  0  0  0  0  0  0  0  0  0
   13.4044  -17.5130   26.5183 O   0  0  0  0  0  0  0  0  0  0  0  0
   14.1483  -19.3314   25.3914 O   0  0  0  0  0  0  0  0  0  0  0  0
  2  1  1  1
  2  3  1  0
  4  2  1  0
  5  4  1  0
  5  6  1  1
  7  5  1  0
  8  7  2  0
  9  7  1  0
 10 21  1  0
 10  9  1  0
 11 12  1  0
 10 11  1  1
 12 13  2  0
 13 14  1  0
 15 14  1  0
 16 15  2  0
 17 16  1  0
 18 19  1  0
 18 17  2  0
 19 20  2  0
 20 15  1  0
 20 12  1  0
 21 31  1  0
 22 21  2  0
 23 24  1  0
 24 26  1  0
 24 25  2  0
 26 27  1  0
 28 29  1  0
 28 27  1  0
 30 32  1  0
 30 29  1  1
 31 30  1  0
 32 34  2  0
 32 33  1  0
M  END
$$$$
