LWR.pdb
     RDKit          3D

 34 35  0  0  1  0  0  0  0  0999 V2000
    7.8240  -14.7406   17.8637 C   0  0  0  0  0  0  0  0  0  0  0  0
    7.0685  -14.1151   18.9960 C   0  0  2  0  0  0  0  0  0  0  0  0
    6.6541  -12.7198   18.5722 C   0  0  0  0  0  0  0  0  0  0  0  0
    7.6931  -14.1798   20.3249 C   0  0  0  0  0  0  0  0  0  0  0  0
    8.1608  -15.4805   20.8426 C   0  0  2  0  0  0  0  0  0  0  0  0
    7.1309  -16.5027   20.8720 N   0  0  0  0  0  0  0  0  0  0  0  0
    9.0115  -15.4526   22.0482 C   0  0  0  0  0  0  0  0  0  0  0  0
    9.9027  -14.5923   22.1456 O   0  0  0  0  0  0  0  0  0  0  0  0
    8.8779  -16.3622   23.1238 N   0  0  0  0  0  0  0  0  0  0  0  0
    9.6663  -16.3509   24.3150 C   0  0  1  0  0  0  0  0  0  0  0  0
    8.9307  -16.3657   25.5916 C   0  0  0  0  0  0  0  0  0  0  0  0
    7.8428  -15.3714   25.7187 C   0  0  0  0  0  0  0  0  0  0  0  0
    6.5043  -15.6548   25.6372 C   0  0  0  0  0  0  0  0  0  0  0  0
    5.8152  -14.4956   25.8067 N   0  0  0  0  0  0  0  0  0  0  0  0
    6.6870  -13.4709   25.9958 C   0  0  0  0  0  0  0  0  0  0  0  0
    6.4830  -12.1144   26.2101 C   0  0  0  0  0  0  0  0  0  0  0  0
    7.5562  -11.2695   26.3755 C   0  0  0  0  0  0  0  0  0  0  0  0
    8.8447  -11.8096   26.3224 C   0  0  0  0  0  0  0  0  0  0  0  0
    9.0378  -13.1567   26.1093 C   0  0  0  0  0  0  0  0  0  0  0  0
    7.9510  -14.0255   25.9396 C   0  0  0  0  0  0  0  0  0  0  0  0
   10.5075  -17.6120   24.2860 C   0  0  0  0  0  0  0  0  0  0  0  0
    9.9661  -18.7266   24.4939 O   0  0  0  0  0  0  0  0  0  0  0  0
   15.4782  -14.3058   20.3651 N   0  0  0  0  0  0  0  0  0  0  0  0
   14.0898  -14.4589   20.6242 C   0  0  0  0  0  0  0  0  0  0  0  0
   13.2829  -13.4425   20.5404 N   0  0  0  0  0  0  0  0  0  0  0  0
   13.5042  -15.6969   20.9825 N   0  0  0  0  0  0  0  0  0  0  0  0
   14.3181  -16.8852   21.1507 C   0  0  0  0  0  0  0  0  0  0  0  0
   13.5043  -18.0360   21.6834 C   0  0  0  0  0  0  0  0  0  0  0  0
   13.9650  -18.4865   23.0523 C   0  0  0  0  0  0  0  0  0  0  0  0
   12.7891  -18.6814   23.9399 C   0  0  2  0  0  0  0  0  0  0  0  0
   11.8883  -17.5642   24.0295 N   0  0  0  0  0  0  0  0  0  0  0  0
   13.2276  -19.2157   25.2697 C   0  0  0  0  0  0  0  0  0  0  0  0
   13.9516  -20.3941   25.3479 O   0  0  0  0  0  0  0  0  0  0  0  0
   12.9434  -18.6041   26.3016 O   0  0  0  0  0  0  0  0  0  0  0  0
  2  1  1  6
  2  3  1  0
  4  2  1  0
  5  4  1  0
  5  6  1  1
  7  5  1  0
  8  7  2  0
  9  7  1  0
 10 21  1  0
 10  9  1  0
 11 12  1  0
 10 11  1  1
 12 13  2  0
 13 14  1  0
 15 14  1  0
 16 15  2  0
 17 16  1  0
 18 19  1  0
 18 17  2  0
 19 20  2  0
 20 15  1  0
 20 12  1  0
 21 31  1  0
 22 21  2  0
 23 24  1  0
 24 26  1  0
 24 25  2  0
 26 27  1  0
 28 29  1  0
 28 27  1  0
 30 32  1  0
 30 29  1  6
 31 30  1  0
 32 34  2  0
 32 33  1  0
M  END
$$$$
