LWR.pdb
     RDKit          3D

 34 35  0  0  1  0  0  0  0  0999 V2000
    8.3205  -14.1463   18.2793 C   0  0  0  0  0  0  0  0  0  0  0  0
    7.4322  -13.6561   19.3815 C   0  0  2  0  0  0  0  0  0  0  0  0
    6.9868  -12.2486   19.0369 C   0  0  0  0  0  0  0  0  0  0  0  0
    7.9341  -13.8094   20.7544 C   0  0  0  0  0  0  0  0  0  0  0  0
    8.4484  -15.1208   21.1952 C   0  0  2  0  0  0  0  0  0  0  0  0
    7.5189  -16.2150   20.9828 N   0  0  0  0  0  0  0  0  0  0  0  0
    9.1363  -15.1640   22.5001 C   0  0  0  0  0  0  0  0  0  0  0  0
    9.9080  -14.2419   22.8133 O   0  0  0  0  0  0  0  0  0  0  0  0
    8.9731  -16.2103   23.4386 N   0  0  0  0  0  0  0  0  0  0  0  0
    9.5354  -16.2345   24.7515 C   0  0  1  0  0  0  0  0  0  0  0  0
    8.5852  -16.3345   25.8731 C   0  0  0  0  0  0  0  0  0  0  0  0
    7.4773  -15.3543   25.8668 C   0  0  0  0  0  0  0  0  0  0  0  0
    6.1657  -15.6510   25.6012 C   0  0  0  0  0  0  0  0  0  0  0  0
    5.4451  -14.5023   25.6930 N   0  0  0  0  0  0  0  0  0  0  0  0
    6.2700  -13.4714   26.0130 C   0  0  0  0  0  0  0  0  0  0  0  0
    6.0212  -12.1209   26.2177 C   0  0  0  0  0  0  0  0  0  0  0  0
    7.0513  -11.2670   26.5388 C   0  0  0  0  0  0  0  0  0  0  0  0
    8.3420  -11.7921   26.6522 C   0  0  0  0  0  0  0  0  0  0  0  0
    8.5797  -13.1333   26.4475 C   0  0  0  0  0  0  0  0  0  0  0  0
    7.5370  -14.0111   26.1199 C   0  0  0  0  0  0  0  0  0  0  0  0
   10.4160  -17.4669   24.8197 C   0  0  0  0  0  0  0  0  0  0  0  0
    9.9776  -18.5166   25.3533 O   0  0  0  0  0  0  0  0  0  0  0  0
   15.6404  -14.5717   20.2111 N   0  0  0  0  0  0  0  0  0  0  0  0
   14.3121  -14.9062   19.8345 C   0  0  0  0  0  0  0  0  0  0  0  0
   13.7273  -14.2926   18.8482 N   0  0  0  0  0  0  0  0  0  0  0  0
   13.5529  -15.9049   20.4905 N   0  0  0  0  0  0  0  0  0  0  0  0
   14.0925  -16.6239   21.6283 C   0  0  0  0  0  0  0  0  0  0  0  0
   13.1877  -17.7561   22.0404 C   0  0  0  0  0  0  0  0  0  0  0  0
   13.7070  -18.5014   23.2503 C   0  0  0  0  0  0  0  0  0  0  0  0
   12.6535  -18.5576   24.2970 C   0  0  2  0  0  0  0  0  0  0  0  0
   11.7200  -17.4639   24.2959 N   0  0  0  0  0  0  0  0  0  0  0  0
   13.2687  -18.8292   25.6363 C   0  0  0  0  0  0  0  0  0  0  0  0
   14.0478  -19.9573   25.8344 O   0  0  0  0  0  0  0  0  0  0  0  0
   13.0816  -18.0449   26.5688 O   0  0  0  0  0  0  0  0  0  0  0  0
  2  1  1  6
  2  3  1  0
  4  2  1  0
  5  4  1  0
  5  6  1  1
  7  5  1  0
  8  7  2  0
  9  7  1  0
 10 21  1  0
 10  9  1  0
 11 12  1  0
 10 11  1  1
 12 13  2  0
 13 14  1  0
 15 14  1  0
 16 15  2  0
 17 16  1  0
 18 19  1  0
 18 17  2  0
 19 20  2  0
 20 15  1  0
 20 12  1  0
 21 31  1  0
 22 21  2  0
 23 24  1  0
 24 26  1  0
 24 25  2  0
 26 27  1  0
 28 29  1  0
 28 27  1  0
 30 32  1  0
 30 29  1  6
 31 30  1  0
 32 34  2  0
 32 33  1  0
M  END
$$$$
