LHC.pdb
     RDKit          3D

 25 25  0  0  1  0  0  0  0  0999 V2000
    8.9410  -13.2170   18.7094 C   0  0  0  0  0  0  0  0  0  0  0  0
    7.7152  -13.5603   19.5147 C   0  0  2  0  0  0  0  0  0  0  0  0
    7.0726  -12.2581   19.9978 C   0  0  0  0  0  0  0  0  0  0  0  0
    8.0370  -14.3678   20.7410 C   0  0  0  0  0  0  0  0  0  0  0  0
    8.7096  -15.6730   20.4225 C   0  0  2  0  0  0  0  0  0  0  0  0
    7.7952  -16.5564   19.7685 N   0  0  0  0  0  0  0  0  0  0  0  0
    9.2751  -16.2340   21.6661 C   0  0  0  0  0  0  0  0  0  0  0  0
    8.4844  -16.8912   22.4060 O   0  0  0  0  0  0  0  0  0  0  0  0
   10.6109  -16.0915   22.0804 N   0  0  0  0  0  0  0  0  0  0  0  0
   11.0879  -16.6996   23.2857 C   0  0  1  0  0  0  0  0  0  0  0  0
   12.5219  -17.1448   23.2111 C   0  0  0  0  0  0  0  0  0  0  0  0
   12.7103  -18.3581   22.3872 C   0  0  0  0  0  0  0  0  0  0  0  0
   11.9505  -19.5091   22.3540 C   0  0  0  0  0  0  0  0  0  0  0  0
   12.4854  -20.3767   21.4458 N   0  0  0  0  0  0  0  0  0  0  0  0
   13.5516  -19.7893   20.9216 C   0  0  0  0  0  0  0  0  0  0  0  0
   13.6933  -18.5597   21.4913 N   0  0  0  0  0  0  0  0  0  0  0  0
   11.0100  -15.6709   24.3716 C   0  0  0  0  0  0  0  0  0  0  0  0
   11.1001  -14.4409   24.1343 O   0  0  0  0  0  0  0  0  0  0  0  0
   10.8276  -16.0649   25.7340 N   0  0  0  0  0  0  0  0  0  0  0  0
   10.5635  -15.1384   26.8018 C   0  0  1  0  0  0  0  0  0  0  0  0
    9.3099  -14.3530   26.3925 C   0  0  0  0  0  0  0  0  0  0  0  0
    8.9417  -13.2069   27.7292 S   0  0  0  0  0  0  0  0  0  0  0  0
   10.3458  -15.8166   28.0938 C   0  0  0  0  0  0  0  0  0  0  0  0
    9.7625  -16.9242   28.1035 O   0  0  0  0  0  0  0  0  0  0  0  0
   10.7488  -15.3044   29.3191 O   0  0  0  0  0  0  0  0  0  0  0  0
  2  1  1  1
  3  2  1  0
  4  2  1  0
  4  5  1  0
  5  6  1  1
  7  5  1  0
  7  8  2  0
  9  7  1  0
 10  9  1  0
 10 11  1  6
 12 16  1  0
 12 11  1  0
 13 12  2  0
 14 13  1  0
 14 15  1  0
 15 16  2  0
 17 10  1  0
 18 17  2  0
 19 17  1  0
 20 21  1  6
 20 19  1  0
 21 22  1  0
 23 20  1  0
 24 23  2  0
 25 23  1  0
M  END
$$$$
