LHC.pdb
     RDKit          3D

 25 25  0  0  1  0  0  0  0  0999 V2000
    6.8128  -11.9820   24.6248 C   0  0  0  0  0  0  0  0  0  0  0  0
    6.1818  -12.8405   25.6897 C   0  0  2  0  0  0  0  0  0  0  0  0
    6.1599  -12.0497   26.9996 C   0  0  0  0  0  0  0  0  0  0  0  0
    6.9603  -14.0988   25.9539 C   0  0  0  0  0  0  0  0  0  0  0  0
    7.0955  -14.9699   24.7372 C   0  0  2  0  0  0  0  0  0  0  0  0
    5.8848  -15.6954   24.5088 N   0  0  0  0  0  0  0  0  0  0  0  0
    8.2760  -15.8417   24.9036 C   0  0  0  0  0  0  0  0  0  0  0  0
    8.2152  -16.7146   25.8196 O   0  0  0  0  0  0  0  0  0  0  0  0
    9.4459  -15.7714   24.1274 N   0  0  0  0  0  0  0  0  0  0  0  0
   10.5395  -16.6705   24.3418 C   0  0  1  0  0  0  0  0  0  0  0  0
   11.5115  -16.7232   23.1961 C   0  0  0  0  0  0  0  0  0  0  0  0
   10.9378  -17.3310   21.9764 C   0  0  0  0  0  0  0  0  0  0  0  0
   10.1018  -18.4226   21.8635 C   0  0  0  0  0  0  0  0  0  0  0  0
    9.8159  -18.6375   20.5461 N   0  0  0  0  0  0  0  0  0  0  0  0
   10.4535  -17.7082   19.8487 C   0  0  0  0  0  0  0  0  0  0  0  0
   11.1383  -16.9097   20.7147 N   0  0  0  0  0  0  0  0  0  0  0  0
   11.3015  -16.1782   25.5337 C   0  0  0  0  0  0  0  0  0  0  0  0
   11.9894  -15.1280   25.4996 O   0  0  0  0  0  0  0  0  0  0  0  0
   11.2680  -16.9011   26.7668 N   0  0  0  0  0  0  0  0  0  0  0  0
   12.1869  -16.6715   27.8491 C   0  0  1  0  0  0  0  0  0  0  0  0
   11.7162  -15.3904   28.5513 C   0  0  0  0  0  0  0  0  0  0  0  0
    9.9406  -15.5414   28.7968 S   0  0  0  0  0  0  0  0  0  0  0  0
   12.2243  -17.7962   28.8032 C   0  0  0  0  0  0  0  0  0  0  0  0
   11.4447  -18.7604   28.6308 O   0  0  0  0  0  0  0  0  0  0  0  0
   13.0770  -17.8612   29.8963 O   0  0  0  0  0  0  0  0  0  0  0  0
  2  1  1  6
  3  2  1  0
  4  2  1  0
  4  5  1  0
  5  6  1  1
  7  5  1  0
  7  8  2  0
  9  7  1  0
 10  9  1  0
 10 11  1  6
 12 16  1  0
 12 11  1  0
 13 12  2  0
 14 13  1  0
 14 15  1  0
 15 16  2  0
 17 10  1  0
 18 17  2  0
 19 17  1  0
 20 21  1  1
 20 19  1  0
 21 22  1  0
 23 20  1  0
 24 23  2  0
 25 23  1  0
M  END
$$$$
