LHC.pdb
     RDKit          3D

 25 25  0  0  1  0  0  0  0  0999 V2000
    9.3112  -14.2691   19.6816 C   0  0  0  0  0  0  0  0  0  0  0  0
    7.8838  -13.7895   19.6430 C   0  0  2  0  0  0  0  0  0  0  0  0
    7.8821  -12.2637   19.7589 C   0  0  0  0  0  0  0  0  0  0  0  0
    7.0668  -14.3141   20.7904 C   0  0  0  0  0  0  0  0  0  0  0  0
    7.2462  -15.7894   21.0105 C   0  0  2  0  0  0  0  0  0  0  0  0
    6.2548  -16.5236   20.2878 N   0  0  0  0  0  0  0  0  0  0  0  0
    7.2306  -16.0604   22.4623 C   0  0  0  0  0  0  0  0  0  0  0  0
    6.2569  -15.5871   23.1199 O   0  0  0  0  0  0  0  0  0  0  0  0
    8.2072  -16.7966   23.1555 N   0  0  0  0  0  0  0  0  0  0  0  0
    8.0861  -17.0634   24.5570 C   0  0  1  0  0  0  0  0  0  0  0  0
    8.3032  -18.5066   24.9180 C   0  0  0  0  0  0  0  0  0  0  0  0
    7.2948  -19.4107   24.3246 C   0  0  0  0  0  0  0  0  0  0  0  0
    6.1858  -19.0938   23.5677 C   0  0  0  0  0  0  0  0  0  0  0  0
    5.5298  -20.2412   23.2263 N   0  0  0  0  0  0  0  0  0  0  0  0
    6.2059  -21.2523   23.7528 C   0  0  0  0  0  0  0  0  0  0  0  0
    7.2818  -20.7523   24.4228 N   0  0  0  0  0  0  0  0  0  0  0  0
    9.1496  -16.2768   25.2597 C   0  0  0  0  0  0  0  0  0  0  0  0
    9.8536  -15.4243   24.6639 O   0  0  0  0  0  0  0  0  0  0  0  0
    9.3994  -16.4760   26.6534 N   0  0  0  0  0  0  0  0  0  0  0  0
   10.0165  -15.4908   27.5000 C   0  0  1  0  0  0  0  0  0  0  0  0
    9.0707  -14.2820   27.5170 C   0  0  0  0  0  0  0  0  0  0  0  0
    9.8420  -13.0189   28.5395 S   0  0  0  0  0  0  0  0  0  0  0  0
   10.2394  -15.9878   28.8712 C   0  0  0  0  0  0  0  0  0  0  0  0
   10.9316  -15.3018   29.6569 O   0  0  0  0  0  0  0  0  0  0  0  0
    9.7271  -17.1819   29.3589 O   0  0  0  0  0  0  0  0  0  0  0  0
  2  1  1  1
  3  2  1  0
  4  2  1  0
  4  5  1  0
  5  6  1  6
  7  5  1  0
  7  8  2  0
  9  7  1  0
 10  9  1  0
 10 11  1  6
 12 16  1  0
 12 11  1  0
 13 12  2  0
 14 13  1  0
 14 15  1  0
 15 16  2  0
 17 10  1  0
 18 17  2  0
 19 17  1  0
 20 21  1  1
 20 19  1  0
 21 22  1  0
 23 20  1  0
 24 23  2  0
 25 23  1  0
M  END
$$$$
