LHC.pdb
     RDKit          3D

 25 25  0  0  1  0  0  0  0  0999 V2000
    9.6148  -13.8024   19.4552 C   0  0  0  0  0  0  0  0  0  0  0  0
    8.1355  -13.8403   19.1737 C   0  0  2  0  0  0  0  0  0  0  0  0
    7.6422  -12.4047   18.9805 C   0  0  0  0  0  0  0  0  0  0  0  0
    7.3454  -14.4224   20.3122 C   0  0  0  0  0  0  0  0  0  0  0  0
    7.8470  -15.7714   20.7433 C   0  0  2  0  0  0  0  0  0  0  0  0
    7.3831  -16.7837   19.8465 N   0  0  0  0  0  0  0  0  0  0  0  0
    7.4446  -16.0042   22.1451 C   0  0  0  0  0  0  0  0  0  0  0  0
    6.2008  -16.0563   22.3798 O   0  0  0  0  0  0  0  0  0  0  0  0
    8.3328  -16.1695   23.2221 N   0  0  0  0  0  0  0  0  0  0  0  0
    7.8600  -16.2928   24.5680 C   0  0  1  0  0  0  0  0  0  0  0  0
    8.2135  -17.6032   25.2146 C   0  0  0  0  0  0  0  0  0  0  0  0
    7.4553  -18.7458   24.6618 C   0  0  0  0  0  0  0  0  0  0  0  0
    6.5164  -18.7547   23.6509 C   0  0  0  0  0  0  0  0  0  0  0  0
    6.0678  -20.0302   23.4631 N   0  0  0  0  0  0  0  0  0  0  0  0
    6.7056  -20.8031   24.3306 C   0  0  0  0  0  0  0  0  0  0  0  0
    7.5518  -20.0261   25.0632 N   0  0  0  0  0  0  0  0  0  0  0  0
    8.5187  -15.2188   25.3779 C   0  0  0  0  0  0  0  0  0  0  0  0
    9.7510  -14.9878   25.3048 O   0  0  0  0  0  0  0  0  0  0  0  0
    7.7515  -14.4105   26.2737 N   0  0  0  0  0  0  0  0  0  0  0  0
    8.3315  -13.4538   27.1774 C   0  0  1  0  0  0  0  0  0  0  0  0
    7.1924  -12.5190   27.6068 C   0  0  0  0  0  0  0  0  0  0  0  0
    6.3409  -11.9976   26.1104 S   0  0  0  0  0  0  0  0  0  0  0  0
    8.9430  -14.0940   28.3576 C   0  0  0  0  0  0  0  0  0  0  0  0
    8.7440  -15.3143   28.5536 O   0  0  0  0  0  0  0  0  0  0  0  0
    9.7365  -13.4274   29.2808 O   0  0  0  0  0  0  0  0  0  0  0  0
  2  1  1  1
  3  2  1  0
  4  2  1  0
  4  5  1  0
  5  6  1  6
  7  5  1  0
  7  8  2  0
  9  7  1  0
 10  9  1  0
 10 11  1  1
 12 16  1  0
 12 11  1  0
 13 12  2  0
 14 13  1  0
 14 15  1  0
 15 16  2  0
 17 10  1  0
 18 17  2  0
 19 17  1  0
 20 21  1  1
 20 19  1  0
 21 22  1  0
 23 20  1  0
 24 23  2  0
 25 23  1  0
M  END
$$$$
