LHC.pdb
     RDKit          3D

 25 25  0  0  1  0  0  0  0  0999 V2000
    9.5037  -13.3969   18.4086 C   0  0  0  0  0  0  0  0  0  0  0  0
    8.1080  -13.5894   18.9418 C   0  0  2  0  0  0  0  0  0  0  0  0
    7.5294  -12.2165   19.2913 C   0  0  0  0  0  0  0  0  0  0  0  0
    8.0788  -14.4077   20.2022 C   0  0  0  0  0  0  0  0  0  0  0  0
    8.6260  -15.7941   20.0129 C   0  0  2  0  0  0  0  0  0  0  0  0
    7.7571  -16.5610   19.1755 N   0  0  0  0  0  0  0  0  0  0  0  0
    8.8475  -16.4047   21.3392 C   0  0  0  0  0  0  0  0  0  0  0  0
    7.8300  -16.8811   21.9243 O   0  0  0  0  0  0  0  0  0  0  0  0
   10.0911  -16.4928   21.9887 N   0  0  0  0  0  0  0  0  0  0  0  0
   10.2275  -17.1465   23.2553 C   0  0  1  0  0  0  0  0  0  0  0  0
   11.4335  -18.0394   23.3473 C   0  0  0  0  0  0  0  0  0  0  0  0
   11.5678  -18.6987   24.6640 C   0  0  0  0  0  0  0  0  0  0  0  0
   10.6575  -19.4902   25.3333 C   0  0  0  0  0  0  0  0  0  0  0  0
   11.1960  -19.8907   26.5220 N   0  0  0  0  0  0  0  0  0  0  0  0
   12.4109  -19.3666   26.5997 C   0  0  0  0  0  0  0  0  0  0  0  0
   12.6426  -18.6397   25.4708 N   0  0  0  0  0  0  0  0  0  0  0  0
   10.3960  -16.0829   24.2963 C   0  0  0  0  0  0  0  0  0  0  0  0
   11.2757  -15.1913   24.2041 O   0  0  0  0  0  0  0  0  0  0  0  0
    9.5461  -16.0500   25.4456 N   0  0  0  0  0  0  0  0  0  0  0  0
    9.7406  -15.1542   26.5538 C   0  0  1  0  0  0  0  0  0  0  0  0
    8.4083  -14.4189   26.7543 C   0  0  0  0  0  0  0  0  0  0  0  0
    8.0056  -13.6156   25.1959 S   0  0  0  0  0  0  0  0  0  0  0  0
   10.1269  -15.8630   27.7887 C   0  0  0  0  0  0  0  0  0  0  0  0
   10.1308  -17.1148   27.7903 O   0  0  0  0  0  0  0  0  0  0  0  0
   10.4924  -15.2289   28.9679 O   0  0  0  0  0  0  0  0  0  0  0  0
  2  1  1  1
  3  2  1  0
  4  2  1  0
  4  5  1  0
  5  6  1  6
  7  5  1  0
  7  8  2  0
  9  7  1  0
 10  9  1  0
 10 11  1  6
 12 16  1  0
 12 11  1  0
 13 12  2  0
 14 13  1  0
 14 15  1  0
 15 16  2  0
 17 10  1  0
 18 17  2  0
 19 17  1  0
 20 21  1  1
 20 19  1  0
 21 22  1  0
 23 20  1  0
 24 23  2  0
 25 23  1  0
M  END
$$$$
