LHC.pdb
     RDKit          3D

 25 25  0  0  1  0  0  0  0  0999 V2000
    6.8321  -12.3021   24.5327 C   0  0  0  0  0  0  0  0  0  0  0  0
    6.1824  -13.0592   25.6614 C   0  0  2  0  0  0  0  0  0  0  0  0
    6.2787  -12.2116   26.9318 C   0  0  0  0  0  0  0  0  0  0  0  0
    6.8712  -14.3627   25.9546 C   0  0  0  0  0  0  0  0  0  0  0  0
    6.8810  -15.2971   24.7782 C   0  0  2  0  0  0  0  0  0  0  0  0
    5.6807  -16.0734   24.7503 N   0  0  0  0  0  0  0  0  0  0  0  0
    8.1068  -16.1191   24.8324 C   0  0  0  0  0  0  0  0  0  0  0  0
    8.0502  -17.1823   25.5188 O   0  0  0  0  0  0  0  0  0  0  0  0
    9.3151  -15.8085   24.1845 N   0  0  0  0  0  0  0  0  0  0  0  0
   10.4639  -16.6553   24.3005 C   0  0  1  0  0  0  0  0  0  0  0  0
   11.4138  -16.5467   23.1404 C   0  0  0  0  0  0  0  0  0  0  0  0
   10.8928  -17.1684   21.9042 C   0  0  0  0  0  0  0  0  0  0  0  0
   10.4337  -18.4545   21.7084 C   0  0  0  0  0  0  0  0  0  0  0  0
   10.0462  -18.6022   20.4078 N   0  0  0  0  0  0  0  0  0  0  0  0
   10.2551  -17.4424   19.8012 C   0  0  0  0  0  0  0  0  0  0  0  0
   10.7707  -16.5656   20.7078 N   0  0  0  0  0  0  0  0  0  0  0  0
   11.2196  -16.2261   25.5204 C   0  0  0  0  0  0  0  0  0  0  0  0
   11.7942  -15.1117   25.5926 O   0  0  0  0  0  0  0  0  0  0  0  0
   11.3110  -17.0866   26.6587 N   0  0  0  0  0  0  0  0  0  0  0  0
   11.3746  -16.6095   28.0139 C   0  0  1  0  0  0  0  0  0  0  0  0
   10.0788  -15.8234   28.2567 C   0  0  0  0  0  0  0  0  0  0  0  0
   10.5434  -14.2467   28.9875 S   0  0  0  0  0  0  0  0  0  0  0  0
   11.5001  -17.7074   28.9913 C   0  0  0  0  0  0  0  0  0  0  0  0
   10.9200  -18.7921   28.7587 O   0  0  0  0  0  0  0  0  0  0  0  0
   12.2280  -17.6207   30.1698 O   0  0  0  0  0  0  0  0  0  0  0  0
  2  1  1  6
  3  2  1  0
  4  2  1  0
  4  5  1  0
  5  6  1  1
  7  5  1  0
  7  8  2  0
  9  7  1  0
 10  9  1  0
 10 11  1  6
 12 16  1  0
 12 11  1  0
 13 12  2  0
 14 13  1  0
 14 15  1  0
 15 16  2  0
 17 10  1  0
 18 17  2  0
 19 17  1  0
 20 21  1  1
 20 19  1  0
 21 22  1  0
 23 20  1  0
 24 23  2  0
 25 23  1  0
M  END
$$$$
