LHC.pdb
     RDKit          3D

 25 25  0  0  1  0  0  0  0  0999 V2000
    7.9079  -12.0599   18.4507 C   0  0  0  0  0  0  0  0  0  0  0  0
    7.7023  -13.2656   19.3299 C   0  0  2  0  0  0  0  0  0  0  0  0
    7.1813  -12.7914   20.6884 C   0  0  0  0  0  0  0  0  0  0  0  0
    8.9789  -14.0148   19.5909 C   0  0  0  0  0  0  0  0  0  0  0  0
    9.5644  -14.6243   18.3487 C   0  0  2  0  0  0  0  0  0  0  0  0
    8.6551  -15.5726   17.7847 N   0  0  0  0  0  0  0  0  0  0  0  0
   10.8826  -15.2035   18.6773 C   0  0  0  0  0  0  0  0  0  0  0  0
   10.8957  -16.4126   19.0549 O   0  0  0  0  0  0  0  0  0  0  0  0
   12.1066  -14.5164   18.6015 N   0  0  0  0  0  0  0  0  0  0  0  0
   13.3362  -15.1356   18.9949 C   0  0  1  0  0  0  0  0  0  0  0  0
   14.5447  -14.5751   18.2981 C   0  0  0  0  0  0  0  0  0  0  0  0
   14.7292  -15.1139   16.9336 C   0  0  0  0  0  0  0  0  0  0  0  0
   14.5981  -16.4138   16.4905 C   0  0  0  0  0  0  0  0  0  0  0  0
   14.8606  -16.4627   15.1518 N   0  0  0  0  0  0  0  0  0  0  0  0
   15.1489  -15.2292   14.7622 C   0  0  0  0  0  0  0  0  0  0  0  0
   15.0704  -14.4036   15.8433 N   0  0  0  0  0  0  0  0  0  0  0  0
   13.5227  -14.8789   20.4587 C   0  0  0  0  0  0  0  0  0  0  0  0
   13.0558  -13.8586   21.0228 O   0  0  0  0  0  0  0  0  0  0  0  0
   14.2502  -15.8032   21.2716 N   0  0  0  0  0  0  0  0  0  0  0  0
   14.0565  -15.9391   22.6902 C   0  0  1  0  0  0  0  0  0  0  0  0
   12.5732  -16.2774   22.8935 C   0  0  0  0  0  0  0  0  0  0  0  0
   12.3132  -16.4833   24.6615 S   0  0  0  0  0  0  0  0  0  0  0  0
   14.9083  -16.9918   23.2758 C   0  0  0  0  0  0  0  0  0  0  0  0
   15.0036  -18.0905   22.6834 O   0  0  0  0  0  0  0  0  0  0  0  0
   15.6231  -16.8470   24.4566 O   0  0  0  0  0  0  0  0  0  0  0  0
  2  1  1  6
  3  2  1  0
  4  2  1  0
  4  5  1  0
  5  6  1  1
  7  5  1  0
  7  8  2  0
  9  7  1  0
 10  9  1  0
 10 11  1  6
 12 16  1  0
 12 11  1  0
 13 12  2  0
 14 13  1  0
 14 15  1  0
 15 16  2  0
 17 10  1  0
 18 17  2  0
 19 17  1  0
 20 21  1  6
 20 19  1  0
 21 22  1  0
 23 20  1  0
 24 23  2  0
 25 23  1  0
M  END
$$$$
