LHC.pdb
     RDKit          3D

 25 25  0  0  1  0  0  0  0  0999 V2000
    9.3044  -13.2357   19.0161 C   0  0  0  0  0  0  0  0  0  0  0  0
    7.9082  -13.4672   19.5318 C   0  0  2  0  0  0  0  0  0  0  0  0
    7.3048  -12.1156   19.9199 C   0  0  0  0  0  0  0  0  0  0  0  0
    7.8828  -14.3255   20.7655 C   0  0  0  0  0  0  0  0  0  0  0  0
    8.5007  -15.6780   20.5505 C   0  0  2  0  0  0  0  0  0  0  0  0
    7.6276  -16.5057   19.7779 N   0  0  0  0  0  0  0  0  0  0  0  0
    8.8456  -16.2590   21.8637 C   0  0  0  0  0  0  0  0  0  0  0  0
    7.8791  -16.6207   22.5985 O   0  0  0  0  0  0  0  0  0  0  0  0
   10.1532  -16.4362   22.3486 N   0  0  0  0  0  0  0  0  0  0  0  0
   10.4023  -17.0531   23.6164 C   0  0  1  0  0  0  0  0  0  0  0  0
   11.6460  -17.8974   23.6432 C   0  0  0  0  0  0  0  0  0  0  0  0
   11.4699  -19.2102   22.9860 C   0  0  0  0  0  0  0  0  0  0  0  0
   10.3733  -20.0471   23.0026 C   0  0  0  0  0  0  0  0  0  0  0  0
   10.6438  -21.1599   22.2598 N   0  0  0  0  0  0  0  0  0  0  0  0
   11.8756  -21.0283   21.7885 C   0  0  0  0  0  0  0  0  0  0  0  0
   12.3834  -19.8427   22.2277 N   0  0  0  0  0  0  0  0  0  0  0  0
   10.6004  -15.9588   24.6198 C   0  0  0  0  0  0  0  0  0  0  0  0
   10.7748  -14.7629   24.2782 O   0  0  0  0  0  0  0  0  0  0  0  0
   10.5967  -16.2476   26.0201 N   0  0  0  0  0  0  0  0  0  0  0  0
   10.5975  -15.2350   27.0414 C   0  0  1  0  0  0  0  0  0  0  0  0
    9.3031  -14.4316   26.8546 C   0  0  0  0  0  0  0  0  0  0  0  0
    9.2526  -13.1951   28.1601 S   0  0  0  0  0  0  0  0  0  0  0  0
   10.6554  -15.8069   28.4002 C   0  0  0  0  0  0  0  0  0  0  0  0
   10.0378  -16.8704   28.6345 O   0  0  0  0  0  0  0  0  0  0  0  0
   11.3578  -15.2393   29.4540 O   0  0  0  0  0  0  0  0  0  0  0  0
  2  1  1  1
  3  2  1  0
  4  2  1  0
  4  5  1  0
  5  6  1  1
  7  5  1  0
  7  8  2  0
  9  7  1  0
 10  9  1  0
 10 11  1  6
 12 16  1  0
 12 11  1  0
 13 12  2  0
 14 13  1  0
 14 15  1  0
 15 16  2  0
 17 10  1  0
 18 17  2  0
 19 17  1  0
 20 21  1  1
 20 19  1  0
 21 22  1  0
 23 20  1  0
 24 23  2  0
 25 23  1  0
M  END
$$$$
