LHC.pdb
     RDKit          3D

 25 25  0  0  1  0  0  0  0  0999 V2000
    8.6354  -12.9820   19.5804 C   0  0  0  0  0  0  0  0  0  0  0  0
    7.4666  -13.3467   20.4578 C   0  0  2  0  0  0  0  0  0  0  0  0
    6.8985  -12.0627   21.0664 C   0  0  0  0  0  0  0  0  0  0  0  0
    7.8602  -14.2349   21.6048 C   0  0  0  0  0  0  0  0  0  0  0  0
    8.3868  -15.5692   21.1579 C   0  0  2  0  0  0  0  0  0  0  0  0
    7.3453  -16.3351   20.5474 N   0  0  0  0  0  0  0  0  0  0  0  0
    9.0099  -16.2470   22.3127 C   0  0  0  0  0  0  0  0  0  0  0  0
    8.2679  -17.0205   22.9878 O   0  0  0  0  0  0  0  0  0  0  0  0
   10.3500  -16.0959   22.7094 N   0  0  0  0  0  0  0  0  0  0  0  0
   10.8900  -16.8324   23.8121 C   0  0  1  0  0  0  0  0  0  0  0  0
   12.2717  -17.3692   23.5611 C   0  0  0  0  0  0  0  0  0  0  0  0
   12.2931  -18.4846   22.5907 C   0  0  0  0  0  0  0  0  0  0  0  0
   11.8142  -19.7700   22.7377 C   0  0  0  0  0  0  0  0  0  0  0  0
   12.0424  -20.4706   21.5885 N   0  0  0  0  0  0  0  0  0  0  0  0
   12.6477  -19.6503   20.7415 C   0  0  0  0  0  0  0  0  0  0  0  0
   12.8029  -18.4394   21.3466 N   0  0  0  0  0  0  0  0  0  0  0  0
   10.9950  -15.8931   24.9741 C   0  0  0  0  0  0  0  0  0  0  0  0
   11.2303  -14.6686   24.8241 O   0  0  0  0  0  0  0  0  0  0  0  0
   10.8276  -16.3703   26.3115 N   0  0  0  0  0  0  0  0  0  0  0  0
   10.5399  -15.5151   27.4314 C   0  0  1  0  0  0  0  0  0  0  0  0
    9.1608  -14.8980   27.1610 C   0  0  0  0  0  0  0  0  0  0  0  0
    9.4212  -13.1561   26.7951 S   0  0  0  0  0  0  0  0  0  0  0  0
   10.5324  -16.2484   28.7116 C   0  0  0  0  0  0  0  0  0  0  0  0
   10.3278  -17.4834   28.6989 O   0  0  0  0  0  0  0  0  0  0  0  0
   10.7395  -15.6554   29.9492 O   0  0  0  0  0  0  0  0  0  0  0  0
  2  1  1  6
  3  2  1  0
  4  2  1  0
  4  5  1  0
  5  6  1  1
  7  5  1  0
  7  8  2  0
  9  7  1  0
 10  9  1  0
 10 11  1  6
 12 16  1  0
 12 11  1  0
 13 12  2  0
 14 13  1  0
 14 15  1  0
 15 16  2  0
 17 10  1  0
 18 17  2  0
 19 17  1  0
 20 21  1  6
 20 19  1  0
 21 22  1  0
 23 20  1  0
 24 23  2  0
 25 23  1  0
M  END
$$$$
