LHC.pdb
     RDKit          3D

 25 25  0  0  1  0  0  0  0  0999 V2000
    6.5805  -11.5166   24.9056 C   0  0  0  0  0  0  0  0  0  0  0  0
    6.2438  -12.1912   26.2097 C   0  0  2  0  0  0  0  0  0  0  0  0
    6.7378  -11.3049   27.3552 C   0  0  0  0  0  0  0  0  0  0  0  0
    6.9249  -13.5222   26.3644 C   0  0  0  0  0  0  0  0  0  0  0  0
    6.4297  -14.5502   25.3871 C   0  0  2  0  0  0  0  0  0  0  0  0
    5.2058  -15.1265   25.8499 N   0  0  0  0  0  0  0  0  0  0  0  0
    7.4960  -15.5470   25.1622 C   0  0  0  0  0  0  0  0  0  0  0  0
    7.6113  -16.4636   26.0288 O   0  0  0  0  0  0  0  0  0  0  0  0
    8.3796  -15.5495   24.0688 N   0  0  0  0  0  0  0  0  0  0  0  0
    9.3955  -16.5492   23.9319 C   0  0  1  0  0  0  0  0  0  0  0  0
    9.9774  -16.6334   22.5483 C   0  0  0  0  0  0  0  0  0  0  0  0
   10.9586  -17.7292   22.3976 C   0  0  0  0  0  0  0  0  0  0  0  0
   11.4574  -18.5836   23.3591 C   0  0  0  0  0  0  0  0  0  0  0  0
   12.3433  -19.4461   22.7804 N   0  0  0  0  0  0  0  0  0  0  0  0
   12.4011  -19.1440   21.4911 C   0  0  0  0  0  0  0  0  0  0  0  0
   11.5598  -18.0992   21.2525 N   0  0  0  0  0  0  0  0  0  0  0  0
   10.5184  -16.1805   24.8521 C   0  0  0  0  0  0  0  0  0  0  0  0
   11.3540  -15.2887   24.5624 O   0  0  0  0  0  0  0  0  0  0  0  0
   10.6755  -16.8438   26.1089 N   0  0  0  0  0  0  0  0  0  0  0  0
   11.8405  -16.7065   26.9411 C   0  0  1  0  0  0  0  0  0  0  0  0
   11.7021  -15.3571   27.6593 C   0  0  0  0  0  0  0  0  0  0  0  0
   10.0668  -15.3194   28.4078 S   0  0  0  0  0  0  0  0  0  0  0  0
   11.9622  -17.8009   27.9230 C   0  0  0  0  0  0  0  0  0  0  0  0
   11.0992  -18.7077   27.9265 O   0  0  0  0  0  0  0  0  0  0  0  0
   12.9830  -17.8971   28.8583 O   0  0  0  0  0  0  0  0  0  0  0  0
  2  1  1  6
  3  2  1  0
  4  2  1  0
  4  5  1  0
  5  6  1  1
  7  5  1  0
  7  8  2  0
  9  7  1  0
 10  9  1  0
 10 11  1  6
 12 16  1  0
 12 11  1  0
 13 12  2  0
 14 13  1  0
 14 15  1  0
 15 16  2  0
 17 10  1  0
 18 17  2  0
 19 17  1  0
 20 21  1  1
 20 19  1  0
 21 22  1  0
 23 20  1  0
 24 23  2  0
 25 23  1  0
M  END
$$$$
