LHC.pdb
     RDKit          3D

 25 25  0  0  1  0  0  0  0  0999 V2000
    6.0684  -11.9133   25.2647 C   0  0  0  0  0  0  0  0  0  0  0  0
    6.3047  -12.6969   26.5293 C   0  0  2  0  0  0  0  0  0  0  0  0
    7.1145  -11.8275   27.4937 C   0  0  0  0  0  0  0  0  0  0  0  0
    7.1053  -13.9470   26.2933 C   0  0  0  0  0  0  0  0  0  0  0  0
    6.5355  -14.8101   25.2036 C   0  0  2  0  0  0  0  0  0  0  0  0
    5.4932  -15.6406   25.7215 N   0  0  0  0  0  0  0  0  0  0  0  0
    7.6333  -15.5736   24.5767 C   0  0  0  0  0  0  0  0  0  0  0  0
    7.8790  -16.7188   25.0592 O   0  0  0  0  0  0  0  0  0  0  0  0
    8.4138  -15.1245   23.4972 N   0  0  0  0  0  0  0  0  0  0  0  0
    9.3699  -15.9792   22.8605 C   0  0  1  0  0  0  0  0  0  0  0  0
    9.9044  -15.4296   21.5672 C   0  0  0  0  0  0  0  0  0  0  0  0
    8.8746  -15.3271   20.5112 C   0  0  0  0  0  0  0  0  0  0  0  0
    7.5582  -15.7389   20.5420 C   0  0  0  0  0  0  0  0  0  0  0  0
    6.9666  -15.4485   19.3465 N   0  0  0  0  0  0  0  0  0  0  0  0
    7.8837  -14.8705   18.5840 C   0  0  0  0  0  0  0  0  0  0  0  0
    9.0476  -14.7940   19.2883 N   0  0  0  0  0  0  0  0  0  0  0  0
   10.5383  -16.1187   23.7872 C   0  0  0  0  0  0  0  0  0  0  0  0
   11.3069  -15.1587   24.0424 O   0  0  0  0  0  0  0  0  0  0  0  0
   10.8186  -17.3699   24.4199 N   0  0  0  0  0  0  0  0  0  0  0  0
   11.9420  -17.5871   25.2913 C   0  0  1  0  0  0  0  0  0  0  0  0
   11.4649  -18.5615   26.3770 C   0  0  0  0  0  0  0  0  0  0  0  0
   10.1360  -17.7467   27.2748 S   0  0  0  0  0  0  0  0  0  0  0  0
   13.1076  -18.1433   24.5781 C   0  0  0  0  0  0  0  0  0  0  0  0
   12.9782  -18.4783   23.3788 O   0  0  0  0  0  0  0  0  0  0  0  0
   14.3578  -18.3242   25.1528 O   0  0  0  0  0  0  0  0  0  0  0  0
  2  1  1  6
  3  2  1  0
  4  2  1  0
  4  5  1  0
  5  6  1  1
  7  5  1  0
  7  8  2  0
  9  7  1  0
 10  9  1  0
 10 11  1  6
 12 16  1  0
 12 11  1  0
 13 12  2  0
 14 13  1  0
 14 15  1  0
 15 16  2  0
 17 10  1  0
 18 17  2  0
 19 17  1  0
 20 21  1  1
 20 19  1  0
 21 22  1  0
 23 20  1  0
 24 23  2  0
 25 23  1  0
M  END
$$$$
