LHC.pdb
     RDKit          3D

 25 25  0  0  1  0  0  0  0  0999 V2000
    9.4157  -13.1070   19.3354 C   0  0  0  0  0  0  0  0  0  0  0  0
    7.9382  -13.3295   19.5262 C   0  0  2  0  0  0  0  0  0  0  0  0
    7.3027  -12.0097   19.9689 C   0  0  0  0  0  0  0  0  0  0  0  0
    7.6398  -14.3380   20.6001 C   0  0  0  0  0  0  0  0  0  0  0  0
    8.3855  -15.6290   20.4143 C   0  0  2  0  0  0  0  0  0  0  0  0
    7.6617  -16.4994   19.5410 N   0  0  0  0  0  0  0  0  0  0  0  0
    8.6509  -16.2215   21.7408 C   0  0  0  0  0  0  0  0  0  0  0  0
    7.6448  -16.6235   22.3971 O   0  0  0  0  0  0  0  0  0  0  0  0
    9.9244  -16.3686   22.3178 N   0  0  0  0  0  0  0  0  0  0  0  0
   10.0904  -16.9106   23.6327 C   0  0  1  0  0  0  0  0  0  0  0  0
   11.2930  -17.8020   23.7711 C   0  0  0  0  0  0  0  0  0  0  0  0
   11.0893  -19.1453   23.1877 C   0  0  0  0  0  0  0  0  0  0  0  0
    9.9065  -19.7967   22.9052 C   0  0  0  0  0  0  0  0  0  0  0  0
   10.1829  -21.0229   22.3726 N   0  0  0  0  0  0  0  0  0  0  0  0
   11.5020  -21.1409   22.3209 C   0  0  0  0  0  0  0  0  0  0  0  0
   12.0591  -20.0003   22.8161 N   0  0  0  0  0  0  0  0  0  0  0  0
   10.2927  -15.7617   24.5722 C   0  0  0  0  0  0  0  0  0  0  0  0
   11.0363  -14.7900   24.2888 O   0  0  0  0  0  0  0  0  0  0  0  0
    9.6343  -15.7361   25.8411 N   0  0  0  0  0  0  0  0  0  0  0  0
    9.8022  -14.6808   26.8036 C   0  0  1  0  0  0  0  0  0  0  0  0
    8.4732  -13.9139   26.8405 C   0  0  0  0  0  0  0  0  0  0  0  0
    8.6732  -12.5610   28.0091 S   0  0  0  0  0  0  0  0  0  0  0  0
   10.1374  -15.1923   28.1463 C   0  0  0  0  0  0  0  0  0  0  0  0
    9.8193  -16.3664   28.4418 O   0  0  0  0  0  0  0  0  0  0  0  0
   10.7915  -14.4511   29.1204 O   0  0  0  0  0  0  0  0  0  0  0  0
  2  1  1  1
  3  2  1  0
  4  2  1  0
  4  5  1  0
  5  6  1  6
  7  5  1  0
  7  8  2  0
  9  7  1  0
 10  9  1  0
 10 11  1  6
 12 16  1  0
 12 11  1  0
 13 12  2  0
 14 13  1  0
 14 15  1  0
 15 16  2  0
 17 10  1  0
 18 17  2  0
 19 17  1  0
 20 21  1  1
 20 19  1  0
 21 22  1  0
 23 20  1  0
 24 23  2  0
 25 23  1  0
M  END
$$$$
