WFG.pdb
     RDKit          3D

 30 32  0  0  1  0  0  0  0  0999 V2000
   28.0773  -21.4225  -15.2503 N   0  0  0  0  0  0  0  0  0  0  0  0
   27.1491  -20.5274  -14.5880 C   0  0  1  0  0  0  0  0  0  0  0  0
   25.9659  -20.2174  -15.4844 C   0  0  0  0  0  0  0  0  0  0  0  0
   26.2678  -19.1792  -16.4962 C   0  0  0  0  0  0  0  0  0  0  0  0
   26.4772  -19.2703  -17.8497 C   0  0  0  0  0  0  0  0  0  0  0  0
   26.7240  -18.0590  -18.3828 N   0  0  0  0  0  0  0  0  0  0  0  0
   26.6812  -17.1363  -17.3761 C   0  0  0  0  0  0  0  0  0  0  0  0
   26.8618  -15.7766  -17.3953 C   0  0  0  0  0  0  0  0  0  0  0  0
   26.7667  -15.0487  -16.2372 C   0  0  0  0  0  0  0  0  0  0  0  0
   26.4895  -15.6884  -15.0629 C   0  0  0  0  0  0  0  0  0  0  0  0
   26.3086  -17.0547  -15.0472 C   0  0  0  0  0  0  0  0  0  0  0  0
   26.3977  -17.8344  -16.2078 C   0  0  0  0  0  0  0  0  0  0  0  0
   26.7239  -21.1355  -13.3112 C   0  0  0  0  0  0  0  0  0  0  0  0
   26.8884  -22.3536  -13.0663 O   0  0  0  0  0  0  0  0  0  0  0  0
   26.0935  -20.3615  -12.2659 N   0  0  0  0  0  0  0  0  0  0  0  0
   25.7794  -20.9676  -10.9864 C   0  0  1  0  0  0  0  0  0  0  0  0
   26.2596  -19.9649   -9.9230 C   0  0  0  0  0  0  0  0  0  0  0  0
   27.4461  -20.4324   -9.1897 C   0  0  0  0  0  0  0  0  0  0  0  0
   27.4520  -20.3802   -7.8020 C   0  0  0  0  0  0  0  0  0  0  0  0
   28.5801  -20.8421   -7.1123 C   0  0  0  0  0  0  0  0  0  0  0  0
   29.6564  -21.3355   -7.7856 C   0  0  0  0  0  0  0  0  0  0  0  0
   29.6701  -21.3967   -9.1698 C   0  0  0  0  0  0  0  0  0  0  0  0
   28.5271  -20.9287   -9.8491 C   0  0  0  0  0  0  0  0  0  0  0  0
   24.3285  -21.1068  -10.8450 C   0  0  0  0  0  0  0  0  0  0  0  0
   23.7823  -21.5216   -9.7681 O   0  0  0  0  0  0  0  0  0  0  0  0
   23.4719  -20.7714  -11.9421 N   0  0  0  0  0  0  0  0  0  0  0  0
   22.0231  -20.9105  -11.8169 C   0  0  0  0  0  0  0  0  0  0  0  0
   21.3619  -19.6555  -12.2810 C   0  0  0  0  0  0  0  0  0  0  0  0
   20.0237  -19.4150  -12.0728 O   0  0  0  0  0  0  0  0  0  0  0  0
   22.0493  -18.7879  -12.8822 O   0  0  0  0  0  0  0  0  0  0  0  0
  2  3  1  0
  2  1  1  6
  2 13  1  0
  3  4  1  0
  4 12  1  0
  4  5  2  0
  5  6  1  0
  7  6  1  0
  7  8  2  0
  9  8  1  0
 10  9  2  0
 11 12  2  0
 11 10  1  0
 12  7  1  0
 13 14  2  0
 15 13  1  0
 15 16  1  0
 16 24  1  0
 16 17  1  1
 18 17  1  0
 19 18  2  0
 20 19  1  0
 21 22  1  0
 21 20  2  0
 22 23  2  0
 23 18  1  0
 24 25  2  0
 26 24  1  0
 26 27  1  0
 28 29  1  0
 28 27  1  0
 30 28  2  0
M  END
$$$$
