WFG.pdb
     RDKit          3D

 30 32  0  0  1  0  0  0  0  0999 V2000
   22.9525  -18.3680  -14.7642 N   0  0  0  0  0  0  0  0  0  0  0  0
   23.0184  -19.7763  -14.4269 C   0  0  1  0  0  0  0  0  0  0  0  0
   21.6854  -20.4542  -14.6781 C   0  0  0  0  0  0  0  0  0  0  0  0
   20.5975  -19.9150  -13.8304 C   0  0  0  0  0  0  0  0  0  0  0  0
   19.5052  -19.1452  -14.1435 C   0  0  0  0  0  0  0  0  0  0  0  0
   18.7692  -18.8826  -13.0472 N   0  0  0  0  0  0  0  0  0  0  0  0
   19.3723  -19.4828  -11.9783 C   0  0  0  0  0  0  0  0  0  0  0  0
   19.0228  -19.5177  -10.6522 C   0  0  0  0  0  0  0  0  0  0  0  0
   19.7976  -20.1989   -9.7492 C   0  0  0  0  0  0  0  0  0  0  0  0
   20.9212  -20.8442  -10.1806 C   0  0  0  0  0  0  0  0  0  0  0  0
   21.2696  -20.8071  -11.5137 C   0  0  0  0  0  0  0  0  0  0  0  0
   20.5054  -20.1224  -12.4677 C   0  0  0  0  0  0  0  0  0  0  0  0
   24.1069  -20.4052  -15.2018 C   0  0  0  0  0  0  0  0  0  0  0  0
   24.4617  -19.9728  -16.3233 O   0  0  0  0  0  0  0  0  0  0  0  0
   24.8300  -21.5570  -14.7121 N   0  0  0  0  0  0  0  0  0  0  0  0
   26.0265  -22.0193  -15.3888 C   0  0  1  0  0  0  0  0  0  0  0  0
   27.1887  -21.7244  -14.4249 C   0  0  0  0  0  0  0  0  0  0  0  0
   27.4488  -20.2854  -14.2650 C   0  0  0  0  0  0  0  0  0  0  0  0
   26.9752  -19.6301  -13.1358 C   0  0  0  0  0  0  0  0  0  0  0  0
   27.2413  -18.2634  -12.9851 C   0  0  0  0  0  0  0  0  0  0  0  0
   27.9523  -17.5827  -13.9266 C   0  0  0  0  0  0  0  0  0  0  0  0
   28.4340  -18.2180  -15.0599 C   0  0  0  0  0  0  0  0  0  0  0  0
   28.1583  -19.5936  -15.1964 C   0  0  0  0  0  0  0  0  0  0  0  0
   25.9614  -23.4699  -15.5781 C   0  0  0  0  0  0  0  0  0  0  0  0
   25.5584  -24.2625  -14.6619 O   0  0  0  0  0  0  0  0  0  0  0  0
   26.3596  -24.0422  -16.8287 N   0  0  0  0  0  0  0  0  0  0  0  0
   26.3426  -25.4908  -17.0164 C   0  0  0  0  0  0  0  0  0  0  0  0
   25.2166  -25.8607  -17.9234 C   0  0  0  0  0  0  0  0  0  0  0  0
   25.4238  -26.5154  -19.1152 O   0  0  0  0  0  0  0  0  0  0  0  0
   24.0388  -25.5653  -17.5888 O   0  0  0  0  0  0  0  0  0  0  0  0
  2  3  1  0
  2  1  1  6
  2 13  1  0
  3  4  1  0
  4 12  1  0
  4  5  2  0
  5  6  1  0
  7  6  1  0
  7  8  2  0
  9  8  1  0
 10  9  2  0
 11 12  2  0
 11 10  1  0
 12  7  1  0
 13 14  2  0
 15 13  1  0
 15 16  1  0
 16 24  1  0
 16 17  1  1
 18 17  1  0
 19 18  2  0
 20 19  1  0
 21 22  1  0
 21 20  2  0
 22 23  2  0
 23 18  1  0
 24 25  2  0
 26 24  1  0
 26 27  1  0
 28 29  1  0
 28 27  1  0
 30 28  2  0
M  END
$$$$
