WFG.pdb
     RDKit          3D

 30 32  0  0  1  0  0  0  0  0999 V2000
   29.1155  -20.7520  -13.5427 N   0  0  0  0  0  0  0  0  0  0  0  0
   27.9547  -20.0451  -13.0385 C   0  0  1  0  0  0  0  0  0  0  0  0
   26.9696  -19.7597  -14.1556 C   0  0  0  0  0  0  0  0  0  0  0  0
   27.5360  -18.8925  -15.2138 C   0  0  0  0  0  0  0  0  0  0  0  0
   28.2891  -19.1929  -16.3213 C   0  0  0  0  0  0  0  0  0  0  0  0
   28.5900  -18.0804  -17.0171 N   0  0  0  0  0  0  0  0  0  0  0  0
   28.0330  -17.0131  -16.3711 C   0  0  0  0  0  0  0  0  0  0  0  0
   28.0469  -15.6745  -16.6706 C   0  0  0  0  0  0  0  0  0  0  0  0
   27.4033  -14.7763  -15.8588 C   0  0  0  0  0  0  0  0  0  0  0  0
   26.7467  -15.2251  -14.7486 C   0  0  0  0  0  0  0  0  0  0  0  0
   26.7347  -16.5708  -14.4507 C   0  0  0  0  0  0  0  0  0  0  0  0
   27.3799  -17.5204  -15.2537 C   0  0  0  0  0  0  0  0  0  0  0  0
   27.3402  -20.8410  -11.9570 C   0  0  0  0  0  0  0  0  0  0  0  0
   27.5520  -22.0699  -11.8317 O   0  0  0  0  0  0  0  0  0  0  0  0
   26.4582  -20.2498  -10.9763 N   0  0  0  0  0  0  0  0  0  0  0  0
   25.8156  -21.0734   -9.9704 C   0  0  1  0  0  0  0  0  0  0  0  0
   25.6849  -20.1806   -8.7244 C   0  0  0  0  0  0  0  0  0  0  0  0
   26.9471  -20.0471   -7.9808 C   0  0  0  0  0  0  0  0  0  0  0  0
   27.3469  -18.7925   -7.5396 C   0  0  0  0  0  0  0  0  0  0  0  0
   28.5424  -18.6779   -6.8190 C   0  0  0  0  0  0  0  0  0  0  0  0
   29.3044  -19.7749   -6.5520 C   0  0  0  0  0  0  0  0  0  0  0  0
   28.9229  -21.0354   -6.9828 C   0  0  0  0  0  0  0  0  0  0  0  0
   27.7171  -21.1339   -7.7061 C   0  0  0  0  0  0  0  0  0  0  0  0
   24.4641  -21.4287  -10.4081 C   0  0  0  0  0  0  0  0  0  0  0  0
   23.6440  -22.0561   -9.6570 O   0  0  0  0  0  0  0  0  0  0  0  0
   24.0250  -21.0696  -11.7227 N   0  0  0  0  0  0  0  0  0  0  0  0
   22.7059  -21.4794  -12.1982 C   0  0  0  0  0  0  0  0  0  0  0  0
   21.6864  -20.4849  -11.7519 C   0  0  0  0  0  0  0  0  0  0  0  0
   20.3386  -20.6879  -11.9365 O   0  0  0  0  0  0  0  0  0  0  0  0
   22.0702  -19.4260  -11.1879 O   0  0  0  0  0  0  0  0  0  0  0  0
  2  3  1  0
  2  1  1  6
  2 13  1  0
  3  4  1  0
  4 12  1  0
  4  5  2  0
  5  6  1  0
  7  6  1  0
  7  8  2  0
  9  8  1  0
 10  9  2  0
 11 12  2  0
 11 10  1  0
 12  7  1  0
 13 14  2  0
 15 13  1  0
 15 16  1  0
 16 24  1  0
 16 17  1  1
 18 17  1  0
 19 18  2  0
 20 19  1  0
 21 22  1  0
 21 20  2  0
 22 23  2  0
 23 18  1  0
 24 25  2  0
 26 24  1  0
 26 27  1  0
 28 29  1  0
 28 27  1  0
 30 28  2  0
M  END
$$$$
