WFG.pdb
     RDKit          3D

 30 32  0  0  1  0  0  0  0  0999 V2000
   24.4948  -19.4432  -11.7120 N   0  0  0  0  0  0  0  0  0  0  0  0
   25.4755  -20.4484  -12.0714 C   0  0  1  0  0  0  0  0  0  0  0  0
   25.5029  -21.5660  -11.0468 C   0  0  0  0  0  0  0  0  0  0  0  0
   25.6903  -21.0730   -9.6632 C   0  0  0  0  0  0  0  0  0  0  0  0
   24.7797  -20.7283   -8.6957 C   0  0  0  0  0  0  0  0  0  0  0  0
   25.3996  -20.3268   -7.5702 N   0  0  0  0  0  0  0  0  0  0  0  0
   26.7477  -20.4006   -7.7795 C   0  0  0  0  0  0  0  0  0  0  0  0
   27.8027  -20.1073   -6.9532 C   0  0  0  0  0  0  0  0  0  0  0  0
   29.0918  -20.2652   -7.3929 C   0  0  0  0  0  0  0  0  0  0  0  0
   29.3179  -20.7182   -8.6612 C   0  0  0  0  0  0  0  0  0  0  0  0
   28.2556  -21.0120   -9.4888 C   0  0  0  0  0  0  0  0  0  0  0  0
   26.9243  -20.8641   -9.0782 C   0  0  0  0  0  0  0  0  0  0  0  0
   25.1709  -20.9540  -13.4250 C   0  0  0  0  0  0  0  0  0  0  0  0
   24.0893  -20.6975  -14.0039 O   0  0  0  0  0  0  0  0  0  0  0  0
   26.1031  -21.7744  -14.1647 N   0  0  0  0  0  0  0  0  0  0  0  0
   26.0527  -21.8257  -15.6131 C   0  0  1  0  0  0  0  0  0  0  0  0
   27.3803  -21.2171  -16.0965 C   0  0  0  0  0  0  0  0  0  0  0  0
   27.5363  -19.8056  -15.7129 C   0  0  0  0  0  0  0  0  0  0  0  0
   28.7539  -19.3688  -15.2076 C   0  0  0  0  0  0  0  0  0  0  0  0
   28.8973  -18.0197  -14.8598 C   0  0  0  0  0  0  0  0  0  0  0  0
   27.8639  -17.1457  -15.0125 C   0  0  0  0  0  0  0  0  0  0  0  0
   26.6414  -17.5613  -15.5153 C   0  0  0  0  0  0  0  0  0  0  0  0
   26.5133  -18.9217  -15.8612 C   0  0  0  0  0  0  0  0  0  0  0  0
   26.0122  -23.2196  -16.0601 C   0  0  0  0  0  0  0  0  0  0  0  0
   25.9238  -23.5410  -17.2926 O   0  0  0  0  0  0  0  0  0  0  0  0
   26.0725  -24.2772  -15.0968 N   0  0  0  0  0  0  0  0  0  0  0  0
   26.0009  -25.6717  -15.5259 C   0  0  0  0  0  0  0  0  0  0  0  0
   27.3596  -26.1358  -15.9338 C   0  0  0  0  0  0  0  0  0  0  0  0
   27.6113  -27.4431  -16.2796 O   0  0  0  0  0  0  0  0  0  0  0  0
   28.3066  -25.3059  -15.9631 O   0  0  0  0  0  0  0  0  0  0  0  0
  2  3  1  0
  2  1  1  1
  2 13  1  0
  3  4  1  0
  4 12  1  0
  4  5  2  0
  5  6  1  0
  7  6  1  0
  7  8  2  0
  9  8  1  0
 10  9  2  0
 11 12  2  0
 11 10  1  0
 12  7  1  0
 13 14  2  0
 15 13  1  0
 15 16  1  0
 16 24  1  0
 16 17  1  6
 18 17  1  0
 19 18  2  0
 20 19  1  0
 21 22  1  0
 21 20  2  0
 22 23  2  0
 23 18  1  0
 24 25  2  0
 26 24  1  0
 26 27  1  0
 28 29  1  0
 28 27  1  0
 30 28  2  0
M  END
$$$$
