WFG.pdb
     RDKit          3D

 30 32  0  0  1  0  0  0  0  0999 V2000
   26.0937  -21.6966  -13.0547 N   0  0  0  0  0  0  0  0  0  0  0  0
   25.6072  -20.6731  -12.1508 C   0  0  1  0  0  0  0  0  0  0  0  0
   24.1014  -20.5296  -12.2586 C   0  0  0  0  0  0  0  0  0  0  0  0
   23.6516  -20.2073  -13.6321 C   0  0  0  0  0  0  0  0  0  0  0  0
   22.9077  -20.9291  -14.5320 C   0  0  0  0  0  0  0  0  0  0  0  0
   22.7348  -20.2421  -15.6767 N   0  0  0  0  0  0  0  0  0  0  0  0
   23.3707  -19.0395  -15.5493 C   0  0  0  0  0  0  0  0  0  0  0  0
   23.4900  -17.9892  -16.4236 C   0  0  0  0  0  0  0  0  0  0  0  0
   24.1879  -16.8649  -16.0646 C   0  0  0  0  0  0  0  0  0  0  0  0
   24.7635  -16.7982  -14.8280 C   0  0  0  0  0  0  0  0  0  0  0  0
   24.6417  -17.8553  -13.9520 C   0  0  0  0  0  0  0  0  0  0  0  0
   23.9376  -19.0213  -14.2802 C   0  0  0  0  0  0  0  0  0  0  0  0
   26.0280  -21.0077  -10.7754 C   0  0  0  0  0  0  0  0  0  0  0  0
   25.9915  -22.1803  -10.3345 O   0  0  0  0  0  0  0  0  0  0  0  0
   26.5092  -20.0024   -9.8550 N   0  0  0  0  0  0  0  0  0  0  0  0
   26.8696  -20.3584   -8.4961 C   0  0  1  0  0  0  0  0  0  0  0  0
   27.7066  -19.1812   -7.9667 C   0  0  0  0  0  0  0  0  0  0  0  0
   28.1395  -19.3674   -6.5732 C   0  0  0  0  0  0  0  0  0  0  0  0
   29.1524  -20.2748   -6.2914 C   0  0  0  0  0  0  0  0  0  0  0  0
   29.5682  -20.4337   -4.9635 C   0  0  0  0  0  0  0  0  0  0  0  0
   28.9931  -19.7131   -3.9608 C   0  0  0  0  0  0  0  0  0  0  0  0
   27.9816  -18.8026   -4.2211 C   0  0  0  0  0  0  0  0  0  0  0  0
   27.5749  -18.6538   -5.5625 C   0  0  0  0  0  0  0  0  0  0  0  0
   25.6636  -20.4546   -7.6710 C   0  0  0  0  0  0  0  0  0  0  0  0
   24.6550  -19.6904   -7.8411 O   0  0  0  0  0  0  0  0  0  0  0  0
   25.5910  -21.4343   -6.6294 N   0  0  0  0  0  0  0  0  0  0  0  0
   24.4587  -21.4484   -5.7067 C   0  0  0  0  0  0  0  0  0  0  0  0
   23.3906  -22.3411   -6.2451 C   0  0  0  0  0  0  0  0  0  0  0  0
   22.2362  -22.6032   -5.5447 O   0  0  0  0  0  0  0  0  0  0  0  0
   23.5494  -22.8720   -7.3763 O   0  0  0  0  0  0  0  0  0  0  0  0
  2  3  1  0
  2  1  1  6
  2 13  1  0
  3  4  1  0
  4 12  1  0
  4  5  2  0
  5  6  1  0
  7  6  1  0
  7  8  2  0
  9  8  1  0
 10  9  2  0
 11 12  2  0
 11 10  1  0
 12  7  1  0
 13 14  2  0
 15 13  1  0
 15 16  1  0
 16 24  1  0
 16 17  1  1
 18 17  1  0
 19 18  2  0
 20 19  1  0
 21 22  1  0
 21 20  2  0
 22 23  2  0
 23 18  1  0
 24 25  2  0
 26 24  1  0
 26 27  1  0
 28 29  1  0
 28 27  1  0
 30 28  2  0
M  END
$$$$
