WFG.pdb
     RDKit          3D

 30 32  0  0  1  0  0  0  0  0999 V2000
   26.8006  -22.3740  -17.6619 N   0  0  0  0  0  0  0  0  0  0  0  0
   25.8157  -21.4326  -17.1670 C   0  0  1  0  0  0  0  0  0  0  0  0
   24.6078  -21.3843  -18.0826 C   0  0  0  0  0  0  0  0  0  0  0  0
   24.5114  -20.1159  -18.8406 C   0  0  0  0  0  0  0  0  0  0  0  0
   25.1333  -19.7019  -19.9920 C   0  0  0  0  0  0  0  0  0  0  0  0
   24.7458  -18.4576  -20.3296 N   0  0  0  0  0  0  0  0  0  0  0  0
   23.8498  -18.0243  -19.3936 C   0  0  0  0  0  0  0  0  0  0  0  0
   23.1671  -16.8395  -19.2841 C   0  0  0  0  0  0  0  0  0  0  0  0
   22.3042  -16.6312  -18.2391 C   0  0  0  0  0  0  0  0  0  0  0  0
   22.1284  -17.6140  -17.3073 C   0  0  0  0  0  0  0  0  0  0  0  0
   22.8159  -18.8032  -17.4204 C   0  0  0  0  0  0  0  0  0  0  0  0
   23.7065  -19.0553  -18.4721 C   0  0  0  0  0  0  0  0  0  0  0  0
   25.4429  -21.8081  -15.7883 C   0  0  0  0  0  0  0  0  0  0  0  0
   25.2879  -23.0027  -15.4423 O   0  0  0  0  0  0  0  0  0  0  0  0
   25.2357  -20.8198  -14.7541 N   0  0  0  0  0  0  0  0  0  0  0  0
   24.8337  -21.2214  -13.4198 C   0  0  1  0  0  0  0  0  0  0  0  0
   25.6432  -20.3348  -12.4579 C   0  0  0  0  0  0  0  0  0  0  0  0
   25.4059  -20.6598  -11.0430 C   0  0  0  0  0  0  0  0  0  0  0  0
   26.2641  -21.5377  -10.3938 C   0  0  0  0  0  0  0  0  0  0  0  0
   26.0390  -21.8288   -9.0425 C   0  0  0  0  0  0  0  0  0  0  0  0
   24.9977  -21.2634   -8.3706 C   0  0  0  0  0  0  0  0  0  0  0  0
   24.1305  -20.3849   -8.9998 C   0  0  0  0  0  0  0  0  0  0  0  0
   24.3709  -20.1018  -10.3596 C   0  0  0  0  0  0  0  0  0  0  0  0
   23.4151  -20.9207  -13.2164 C   0  0  0  0  0  0  0  0  0  0  0  0
   22.9754  -19.7258  -13.1209 O   0  0  0  0  0  0  0  0  0  0  0  0
   22.4685  -21.9904  -13.1180 N   0  0  0  0  0  0  0  0  0  0  0  0
   21.1237  -21.7413  -12.6048 C   0  0  0  0  0  0  0  0  0  0  0  0
   20.3654  -23.0260  -12.5553 C   0  0  0  0  0  0  0  0  0  0  0  0
   20.8806  -24.1978  -13.0585 O   0  0  0  0  0  0  0  0  0  0  0  0
   19.2178  -23.0396  -12.0364 O   0  0  0  0  0  0  0  0  0  0  0  0
  2  3  1  0
  2  1  1  6
  2 13  1  0
  3  4  1  0
  4 12  1  0
  4  5  2  0
  5  6  1  0
  7  6  1  0
  7  8  2  0
  9  8  1  0
 10  9  2  0
 11 12  2  0
 11 10  1  0
 12  7  1  0
 13 14  2  0
 15 13  1  0
 15 16  1  0
 16 24  1  0
 16 17  1  1
 18 17  1  0
 19 18  2  0
 20 19  1  0
 21 22  1  0
 21 20  2  0
 22 23  2  0
 23 18  1  0
 24 25  2  0
 26 24  1  0
 26 27  1  0
 28 29  1  0
 28 27  1  0
 30 28  2  0
M  END
$$$$
