WFG.pdb
     RDKit          3D

 30 32  0  0  1  0  0  0  0  0999 V2000
   29.8527  -21.0830  -11.6934 N   0  0  0  0  0  0  0  0  0  0  0  0
   28.6050  -20.3490  -11.6164 C   0  0  1  0  0  0  0  0  0  0  0  0
   27.8570  -20.4169  -12.9337 C   0  0  0  0  0  0  0  0  0  0  0  0
   27.5334  -19.0793  -13.4806 C   0  0  0  0  0  0  0  0  0  0  0  0
   28.2446  -17.9054  -13.4768 C   0  0  0  0  0  0  0  0  0  0  0  0
   27.5605  -16.9243  -14.0946 N   0  0  0  0  0  0  0  0  0  0  0  0
   26.3703  -17.4418  -14.5217 C   0  0  0  0  0  0  0  0  0  0  0  0
   25.3288  -16.8598  -15.1988 C   0  0  0  0  0  0  0  0  0  0  0  0
   24.2185  -17.5947  -15.5259 C   0  0  0  0  0  0  0  0  0  0  0  0
   24.1574  -18.9125  -15.1729 C   0  0  0  0  0  0  0  0  0  0  0  0
   25.2056  -19.4941  -14.4928 C   0  0  0  0  0  0  0  0  0  0  0  0
   26.3572  -18.7783  -14.1396 C   0  0  0  0  0  0  0  0  0  0  0  0
   27.7997  -20.8867  -10.5014 C   0  0  0  0  0  0  0  0  0  0  0  0
   27.8240  -22.0996  -10.1867 O   0  0  0  0  0  0  0  0  0  0  0  0
   26.9358  -20.0454   -9.7044 N   0  0  0  0  0  0  0  0  0  0  0  0
   26.1390  -20.6112   -8.6329 C   0  0  1  0  0  0  0  0  0  0  0  0
   26.1749  -19.5744   -7.4969 C   0  0  0  0  0  0  0  0  0  0  0  0
   27.2152  -19.8575   -6.4961 C   0  0  0  0  0  0  0  0  0  0  0  0
   26.8413  -20.2864   -5.2293 C   0  0  0  0  0  0  0  0  0  0  0  0
   27.8396  -20.5683   -4.2883 C   0  0  0  0  0  0  0  0  0  0  0  0
   29.1569  -20.4264   -4.6043 C   0  0  0  0  0  0  0  0  0  0  0  0
   29.5508  -20.0002   -5.8626 C   0  0  0  0  0  0  0  0  0  0  0  0
   28.5342  -19.7213   -6.7983 C   0  0  0  0  0  0  0  0  0  0  0  0
   24.7473  -20.7485   -9.0675 C   0  0  0  0  0  0  0  0  0  0  0  0
   23.8379  -21.2283   -8.3105 O   0  0  0  0  0  0  0  0  0  0  0  0
   24.3701  -20.3361  -10.3857 N   0  0  0  0  0  0  0  0  0  0  0  0
   22.9776  -20.4272  -10.8176 C   0  0  0  0  0  0  0  0  0  0  0  0
   22.8317  -21.5507  -11.7892 C   0  0  0  0  0  0  0  0  0  0  0  0
   21.6684  -21.7620  -12.4919 O   0  0  0  0  0  0  0  0  0  0  0  0
   23.8034  -22.3309  -11.9730 O   0  0  0  0  0  0  0  0  0  0  0  0
  2  3  1  0
  2  1  1  6
  2 13  1  0
  3  4  1  0
  4 12  1  0
  4  5  2  0
  5  6  1  0
  7  6  1  0
  7  8  2  0
  9  8  1  0
 10  9  2  0
 11 12  2  0
 11 10  1  0
 12  7  1  0
 13 14  2  0
 15 13  1  0
 15 16  1  0
 16 24  1  0
 16 17  1  1
 18 17  1  0
 19 18  2  0
 20 19  1  0
 21 22  1  0
 21 20  2  0
 22 23  2  0
 23 18  1  0
 24 25  2  0
 26 24  1  0
 26 27  1  0
 28 29  1  0
 28 27  1  0
 30 28  2  0
M  END
$$$$
