WFG.pdb
     RDKit          3D

 30 32  0  0  1  0  0  0  0  0999 V2000
   26.9020  -20.4338  -13.2859 N   0  0  0  0  0  0  0  0  0  0  0  0
   25.9160  -20.3648  -12.2255 C   0  0  1  0  0  0  0  0  0  0  0  0
   24.6265  -21.0450  -12.6428 C   0  0  0  0  0  0  0  0  0  0  0  0
   23.9395  -20.3440  -13.7516 C   0  0  0  0  0  0  0  0  0  0  0  0
   24.2269  -20.2737  -15.0919 C   0  0  0  0  0  0  0  0  0  0  0  0
   23.3237  -19.5146  -15.7403 N   0  0  0  0  0  0  0  0  0  0  0  0
   22.4134  -19.0654  -14.8259 C   0  0  0  0  0  0  0  0  0  0  0  0
   21.3075  -18.2677  -14.9764 C   0  0  0  0  0  0  0  0  0  0  0  0
   20.5312  -17.9482  -13.8923 C   0  0  0  0  0  0  0  0  0  0  0  0
   20.8672  -18.4314  -12.6600 C   0  0  0  0  0  0  0  0  0  0  0  0
   21.9789  -19.2325  -12.5124 C   0  0  0  0  0  0  0  0  0  0  0  0
   22.7981  -19.5819  -13.5940 C   0  0  0  0  0  0  0  0  0  0  0  0
   26.4826  -20.9688  -11.0029 C   0  0  0  0  0  0  0  0  0  0  0  0
   27.0797  -22.0706  -11.0196 O   0  0  0  0  0  0  0  0  0  0  0  0
   26.3840  -20.3243   -9.7129 N   0  0  0  0  0  0  0  0  0  0  0  0
   26.6455  -21.0671   -8.4951 C   0  0  1  0  0  0  0  0  0  0  0  0
   28.0966  -20.7330   -8.1085 C   0  0  0  0  0  0  0  0  0  0  0  0
   28.2043  -20.0913   -6.7892 C   0  0  0  0  0  0  0  0  0  0  0  0
   28.8845  -20.7437   -5.7693 C   0  0  0  0  0  0  0  0  0  0  0  0
   28.9950  -20.1177   -4.5213 C   0  0  0  0  0  0  0  0  0  0  0  0
   28.4469  -18.8896   -4.3054 C   0  0  0  0  0  0  0  0  0  0  0  0
   27.7649  -18.2218   -5.3098 C   0  0  0  0  0  0  0  0  0  0  0  0
   27.6630  -18.8649   -6.5600 C   0  0  0  0  0  0  0  0  0  0  0  0
   25.7753  -20.5835   -7.4212 C   0  0  0  0  0  0  0  0  0  0  0  0
   26.1780  -19.7607   -6.5318 O   0  0  0  0  0  0  0  0  0  0  0  0
   24.4192  -21.0368   -7.3465 N   0  0  0  0  0  0  0  0  0  0  0  0
   24.0840  -22.2412   -6.5908 C   0  0  0  0  0  0  0  0  0  0  0  0
   22.6215  -22.5129   -6.7130 C   0  0  0  0  0  0  0  0  0  0  0  0
   21.7839  -22.5065   -5.6219 O   0  0  0  0  0  0  0  0  0  0  0  0
   22.1370  -22.7556   -7.8500 O   0  0  0  0  0  0  0  0  0  0  0  0
  2  3  1  0
  2  1  1  6
  2 13  1  0
  3  4  1  0
  4 12  1  0
  4  5  2  0
  5  6  1  0
  7  6  1  0
  7  8  2  0
  9  8  1  0
 10  9  2  0
 11 12  2  0
 11 10  1  0
 12  7  1  0
 13 14  2  0
 15 13  1  0
 15 16  1  0
 16 24  1  0
 16 17  1  1
 18 17  1  0
 19 18  2  0
 20 19  1  0
 21 22  1  0
 21 20  2  0
 22 23  2  0
 23 18  1  0
 24 25  2  0
 26 24  1  0
 26 27  1  0
 28 29  1  0
 28 27  1  0
 30 28  2  0
M  END
$$$$
