WFG.pdb
     RDKit          3D

 30 32  0  0  1  0  0  0  0  0999 V2000
   29.2507  -19.4787  -13.6000 N   0  0  0  0  0  0  0  0  0  0  0  0
   27.8121  -19.3004  -13.5967 C   0  0  1  0  0  0  0  0  0  0  0  0
   27.2755  -19.2183  -15.0127 C   0  0  0  0  0  0  0  0  0  0  0  0
   27.0780  -17.8246  -15.4726 C   0  0  0  0  0  0  0  0  0  0  0  0
   27.9137  -16.9679  -16.1446 C   0  0  0  0  0  0  0  0  0  0  0  0
   27.3160  -15.7811  -16.3611 N   0  0  0  0  0  0  0  0  0  0  0  0
   26.0593  -15.8361  -15.8282 C   0  0  0  0  0  0  0  0  0  0  0  0
   25.0592  -14.8981  -15.7865 C   0  0  0  0  0  0  0  0  0  0  0  0
   23.8606  -15.1895  -15.1877 C   0  0  0  0  0  0  0  0  0  0  0  0
   23.6693  -16.4227  -14.6331 C   0  0  0  0  0  0  0  0  0  0  0  0
   24.6763  -17.3628  -14.6767 C   0  0  0  0  0  0  0  0  0  0  0  0
   25.9149  -17.1048  -15.2785 C   0  0  0  0  0  0  0  0  0  0  0  0
   27.1929  -20.4071  -12.8401 C   0  0  0  0  0  0  0  0  0  0  0  0
   27.5151  -21.6037  -13.0269 O   0  0  0  0  0  0  0  0  0  0  0  0
   26.1784  -20.1762  -11.8366 N   0  0  0  0  0  0  0  0  0  0  0  0
   25.5725  -21.2887  -11.1306 C   0  0  1  0  0  0  0  0  0  0  0  0
   25.5238  -20.8651   -9.6524 C   0  0  0  0  0  0  0  0  0  0  0  0
   26.8571  -20.6107   -9.0855 C   0  0  0  0  0  0  0  0  0  0  0  0
   27.0332  -19.5438   -8.2142 C   0  0  0  0  0  0  0  0  0  0  0  0
   28.3030  -19.3192   -7.6675 C   0  0  0  0  0  0  0  0  0  0  0  0
   29.3515  -20.1300   -7.9811 C   0  0  0  0  0  0  0  0  0  0  0  0
   29.1966  -21.1999   -8.8479 C   0  0  0  0  0  0  0  0  0  0  0  0
   27.9125  -21.4130   -9.3890 C   0  0  0  0  0  0  0  0  0  0  0  0
   24.1936  -21.4752  -11.5867 C   0  0  0  0  0  0  0  0  0  0  0  0
   23.1943  -20.9776  -10.9670 O   0  0  0  0  0  0  0  0  0  0  0  0
   23.9329  -22.2402  -12.7686 N   0  0  0  0  0  0  0  0  0  0  0  0
   22.5600  -22.4702  -13.2113 C   0  0  0  0  0  0  0  0  0  0  0  0
   22.5739  -23.1183  -14.5557 C   0  0  0  0  0  0  0  0  0  0  0  0
   22.8007  -24.4656  -14.7146 O   0  0  0  0  0  0  0  0  0  0  0  0
   22.3716  -22.4111  -15.5782 O   0  0  0  0  0  0  0  0  0  0  0  0
  2  3  1  0
  2  1  1  6
  2 13  1  0
  3  4  1  0
  4 12  1  0
  4  5  2  0
  5  6  1  0
  7  6  1  0
  7  8  2  0
  9  8  1  0
 10  9  2  0
 11 12  2  0
 11 10  1  0
 12  7  1  0
 13 14  2  0
 15 13  1  0
 15 16  1  0
 16 24  1  0
 16 17  1  1
 18 17  1  0
 19 18  2  0
 20 19  1  0
 21 22  1  0
 21 20  2  0
 22 23  2  0
 23 18  1  0
 24 25  2  0
 26 24  1  0
 26 27  1  0
 28 29  1  0
 28 27  1  0
 30 28  2  0
M  END
$$$$
