WFG.pdb
     RDKit          3D

 30 32  0  0  1  0  0  0  0  0999 V2000
   13.3479  -16.0203    2.7604 N   0  0  0  0  0  0  0  0  0  0  0  0
   13.6986  -15.3691    4.0071 C   0  0  1  0  0  0  0  0  0  0  0  0
   12.5487  -15.4370    4.9934 C   0  0  0  0  0  0  0  0  0  0  0  0
   11.3700  -14.6543    4.5568 C   0  0  0  0  0  0  0  0  0  0  0  0
   10.2473  -15.0246    3.8593 C   0  0  0  0  0  0  0  0  0  0  0  0
    9.4225  -13.9759    3.6797 N   0  0  0  0  0  0  0  0  0  0  0  0
    9.9954  -12.8815    4.2635 C   0  0  0  0  0  0  0  0  0  0  0  0
    9.5615  -11.5836    4.3590 C   0  0  0  0  0  0  0  0  0  0  0  0
   10.3223  -10.6448    5.0068 C   0  0  0  0  0  0  0  0  0  0  0  0
   11.5166  -11.0121    5.5579 C   0  0  0  0  0  0  0  0  0  0  0  0
   11.9495  -12.3170    5.4601 C   0  0  0  0  0  0  0  0  0  0  0  0
   11.2026  -13.3060    4.8067 C   0  0  0  0  0  0  0  0  0  0  0  0
   14.9216  -15.9953    4.5484 C   0  0  0  0  0  0  0  0  0  0  0  0
   15.1890  -17.2054    4.3612 O   0  0  0  0  0  0  0  0  0  0  0  0
   15.8852  -15.2494    5.3258 N   0  0  0  0  0  0  0  0  0  0  0  0
   16.9411  -15.9345    6.0460 C   0  0  1  0  0  0  0  0  0  0  0  0
   18.2530  -15.2772    5.5836 C   0  0  0  0  0  0  0  0  0  0  0  0
   18.5371  -15.5068    4.1587 C   0  0  0  0  0  0  0  0  0  0  0  0
   18.3748  -14.4638    3.2563 C   0  0  0  0  0  0  0  0  0  0  0  0
   18.6629  -14.6879    1.9042 C   0  0  0  0  0  0  0  0  0  0  0  0
   19.0954  -15.9062    1.4752 C   0  0  0  0  0  0  0  0  0  0  0  0
   19.2643  -16.9595    2.3594 C   0  0  0  0  0  0  0  0  0  0  0  0
   18.9709  -16.7177    3.7167 C   0  0  0  0  0  0  0  0  0  0  0  0
   16.8022  -15.6899    7.4831 C   0  0  0  0  0  0  0  0  0  0  0  0
   16.1434  -14.7003    7.9487 O   0  0  0  0  0  0  0  0  0  0  0  0
   17.4198  -16.5805    8.4189 N   0  0  0  0  0  0  0  0  0  0  0  0
   17.0588  -16.5314    9.8335 C   0  0  0  0  0  0  0  0  0  0  0  0
   17.8483  -15.4609   10.5105 C   0  0  0  0  0  0  0  0  0  0  0  0
   18.2274  -15.5564   11.8292 O   0  0  0  0  0  0  0  0  0  0  0  0
   18.1790  -14.4372    9.8553 O   0  0  0  0  0  0  0  0  0  0  0  0
  2  3  1  0
  2  1  1  6
  2 13  1  0
  3  4  1  0
  4 12  1  0
  4  5  2  0
  5  6  1  0
  7  6  1  0
  7  8  2  0
  9  8  1  0
 10  9  2  0
 11 12  2  0
 11 10  1  0
 12  7  1  0
 13 14  2  0
 15 13  1  0
 15 16  1  0
 16 24  1  0
 16 17  1  6
 18 17  1  0
 19 18  2  0
 20 19  1  0
 21 22  1  0
 21 20  2  0
 22 23  2  0
 23 18  1  0
 24 25  2  0
 26 24  1  0
 26 27  1  0
 28 29  1  0
 28 27  1  0
 30 28  2  0
M  END
$$$$
