WFG.pdb
     RDKit          3D

 30 32  0  0  1  0  0  0  0  0999 V2000
   26.7812  -21.0486  -12.9213 N   0  0  0  0  0  0  0  0  0  0  0  0
   25.9105  -20.5160  -11.8919 C   0  0  1  0  0  0  0  0  0  0  0  0
   24.4922  -21.0224  -12.0699 C   0  0  0  0  0  0  0  0  0  0  0  0
   23.7543  -20.3032  -13.1334 C   0  0  0  0  0  0  0  0  0  0  0  0
   24.1180  -19.9599  -14.4117 C   0  0  0  0  0  0  0  0  0  0  0  0
   23.1231  -19.3028  -15.0368 N   0  0  0  0  0  0  0  0  0  0  0  0
   22.0726  -19.2001  -14.1694 C   0  0  0  0  0  0  0  0  0  0  0  0
   20.8353  -18.6272  -14.3204 C   0  0  0  0  0  0  0  0  0  0  0  0
   19.9307  -18.6504  -13.2903 C   0  0  0  0  0  0  0  0  0  0  0  0
   20.2708  -19.2498  -12.1114 C   0  0  0  0  0  0  0  0  0  0  0  0
   21.5148  -19.8244  -11.9629 C   0  0  0  0  0  0  0  0  0  0  0  0
   22.4674  -19.8218  -12.9903 C   0  0  0  0  0  0  0  0  0  0  0  0
   26.4574  -20.8743  -10.5678 C   0  0  0  0  0  0  0  0  0  0  0  0
   26.7036  -22.0608  -10.2478 O   0  0  0  0  0  0  0  0  0  0  0  0
   26.7434  -19.8773   -9.5612 N   0  0  0  0  0  0  0  0  0  0  0  0
   27.1841  -20.2712   -8.2369 C   0  0  1  0  0  0  0  0  0  0  0  0
   27.9149  -19.0460   -7.6610 C   0  0  0  0  0  0  0  0  0  0  0  0
   28.4631  -19.2857   -6.3172 C   0  0  0  0  0  0  0  0  0  0  0  0
   29.4959  -20.2002   -6.1573 C   0  0  0  0  0  0  0  0  0  0  0  0
   30.0216  -20.4100   -4.8762 C   0  0  0  0  0  0  0  0  0  0  0  0
   29.5325  -19.7314   -3.8012 C   0  0  0  0  0  0  0  0  0  0  0  0
   28.5029  -18.8146   -3.9395 C   0  0  0  0  0  0  0  0  0  0  0  0
   27.9852  -18.6143   -5.2352 C   0  0  0  0  0  0  0  0  0  0  0  0
   26.0229  -20.5385   -7.3857 C   0  0  0  0  0  0  0  0  0  0  0  0
   24.9398  -19.8684   -7.4750 O   0  0  0  0  0  0  0  0  0  0  0  0
   26.0822  -21.5850   -6.4103 N   0  0  0  0  0  0  0  0  0  0  0  0
   24.9955  -21.7619   -5.4503 C   0  0  0  0  0  0  0  0  0  0  0  0
   24.4719  -23.1564   -5.5446 C   0  0  0  0  0  0  0  0  0  0  0  0
   25.0133  -24.0831   -6.4048 O   0  0  0  0  0  0  0  0  0  0  0  0
   23.5041  -23.4975   -4.8141 O   0  0  0  0  0  0  0  0  0  0  0  0
  2  3  1  0
  2  1  1  6
  2 13  1  0
  3  4  1  0
  4 12  1  0
  4  5  2  0
  5  6  1  0
  7  6  1  0
  7  8  2  0
  9  8  1  0
 10  9  2  0
 11 12  2  0
 11 10  1  0
 12  7  1  0
 13 14  2  0
 15 13  1  0
 15 16  1  0
 16 24  1  0
 16 17  1  1
 18 17  1  0
 19 18  2  0
 20 19  1  0
 21 22  1  0
 21 20  2  0
 22 23  2  0
 23 18  1  0
 24 25  2  0
 26 24  1  0
 26 27  1  0
 28 29  1  0
 28 27  1  0
 30 28  2  0
M  END
$$$$
