WFG.pdb
     RDKit          3D

 30 32  0  0  1  0  0  0  0  0999 V2000
   26.1858  -18.9156  -10.0468 N   0  0  0  0  0  0  0  0  0  0  0  0
   26.2464  -20.3638  -10.0253 C   0  0  1  0  0  0  0  0  0  0  0  0
   26.4746  -20.8733   -8.6153 C   0  0  0  0  0  0  0  0  0  0  0  0
   27.0405  -19.8420   -7.7159 C   0  0  0  0  0  0  0  0  0  0  0  0
   27.0338  -18.4717   -7.7953 C   0  0  0  0  0  0  0  0  0  0  0  0
   27.6752  -17.9241   -6.7460 N   0  0  0  0  0  0  0  0  0  0  0  0
   28.1219  -18.9378   -5.9464 C   0  0  0  0  0  0  0  0  0  0  0  0
   28.8231  -18.9100   -4.7677 C   0  0  0  0  0  0  0  0  0  0  0  0
   29.1630  -20.0785   -4.1360 C   0  0  0  0  0  0  0  0  0  0  0  0
   28.7969  -21.2721   -4.6896 C   0  0  0  0  0  0  0  0  0  0  0  0
   28.0924  -21.2964   -5.8740 C   0  0  0  0  0  0  0  0  0  0  0  0
   27.7262  -20.1256   -6.5506 C   0  0  0  0  0  0  0  0  0  0  0  0
   25.0022  -20.9051  -10.6082 C   0  0  0  0  0  0  0  0  0  0  0  0
   24.8518  -22.1278  -10.8387 O   0  0  0  0  0  0  0  0  0  0  0  0
   23.8819  -20.0568  -10.9467 N   0  0  0  0  0  0  0  0  0  0  0  0
   22.6628  -20.6259  -11.4883 C   0  0  1  0  0  0  0  0  0  0  0  0
   21.5339  -20.1515  -10.5571 C   0  0  0  0  0  0  0  0  0  0  0  0
   21.3975  -20.9845   -9.3523 C   0  0  0  0  0  0  0  0  0  0  0  0
   20.6647  -22.1622   -9.4192 C   0  0  0  0  0  0  0  0  0  0  0  0
   20.5537  -22.9562   -8.2708 C   0  0  0  0  0  0  0  0  0  0  0  0
   21.1523  -22.5851   -7.1050 C   0  0  0  0  0  0  0  0  0  0  0  0
   21.8882  -21.4144   -7.0175 C   0  0  0  0  0  0  0  0  0  0  0  0
   21.9909  -20.6268   -8.1820 C   0  0  0  0  0  0  0  0  0  0  0  0
   22.4048  -20.0729  -12.8194 C   0  0  0  0  0  0  0  0  0  0  0  0
   21.2746  -20.1893  -13.4018 O   0  0  0  0  0  0  0  0  0  0  0  0
   23.4438  -19.3722  -13.5119 N   0  0  0  0  0  0  0  0  0  0  0  0
   23.1947  -18.7992  -14.8324 C   0  0  0  0  0  0  0  0  0  0  0  0
   23.2203  -19.8839  -15.8572 C   0  0  0  0  0  0  0  0  0  0  0  0
   23.0274  -19.6293  -17.1950 O   0  0  0  0  0  0  0  0  0  0  0  0
   23.4252  -21.0705  -15.4874 O   0  0  0  0  0  0  0  0  0  0  0  0
  2  3  1  0
  2  1  1  1
  2 13  1  0
  3  4  1  0
  4 12  1  0
  4  5  2  0
  5  6  1  0
  7  6  1  0
  7  8  2  0
  9  8  1  0
 10  9  2  0
 11 12  2  0
 11 10  1  0
 12  7  1  0
 13 14  2  0
 15 13  1  0
 15 16  1  0
 16 24  1  0
 16 17  1  1
 18 17  1  0
 19 18  2  0
 20 19  1  0
 21 22  1  0
 21 20  2  0
 22 23  2  0
 23 18  1  0
 24 25  2  0
 26 24  1  0
 26 27  1  0
 28 29  1  0
 28 27  1  0
 30 28  2  0
M  END
$$$$
