WFG.pdb
     RDKit          3D

 30 32  0  0  1  0  0  0  0  0999 V2000
   24.1526  -19.2207  -15.7531 N   0  0  0  0  0  0  0  0  0  0  0  0
   24.0923  -19.6314  -14.3642 C   0  0  1  0  0  0  0  0  0  0  0  0
   22.9400  -20.5902  -14.1347 C   0  0  0  0  0  0  0  0  0  0  0  0
   21.6190  -19.9749  -14.3977 C   0  0  0  0  0  0  0  0  0  0  0  0
   20.8326  -19.9694  -15.5226 C   0  0  0  0  0  0  0  0  0  0  0  0
   19.6965  -19.2778  -15.3143 N   0  0  0  0  0  0  0  0  0  0  0  0
   19.7152  -18.8091  -14.0311 C   0  0  0  0  0  0  0  0  0  0  0  0
   18.8019  -18.0581  -13.3356 C   0  0  0  0  0  0  0  0  0  0  0  0
   19.0438  -17.7048  -12.0330 C   0  0  0  0  0  0  0  0  0  0  0  0
   20.2021  -18.1076  -11.4321 C   0  0  0  0  0  0  0  0  0  0  0  0
   21.1175  -18.8621  -12.1338 C   0  0  0  0  0  0  0  0  0  0  0  0
   20.9085  -19.2435  -13.4656 C   0  0  0  0  0  0  0  0  0  0  0  0
   25.3872  -20.2309  -13.9841 C   0  0  0  0  0  0  0  0  0  0  0  0
   26.0750  -20.8978  -14.7921 O   0  0  0  0  0  0  0  0  0  0  0  0
   25.9403  -20.0830  -12.6570 N   0  0  0  0  0  0  0  0  0  0  0  0
   26.7602  -21.1300  -12.0785 C   0  0  1  0  0  0  0  0  0  0  0  0
   27.9068  -20.4058  -11.3521 C   0  0  0  0  0  0  0  0  0  0  0  0
   27.5830  -20.0784   -9.9550 C   0  0  0  0  0  0  0  0  0  0  0  0
   26.7150  -19.0282   -9.6863 C   0  0  0  0  0  0  0  0  0  0  0  0
   26.4008  -18.7341   -8.3535 C   0  0  0  0  0  0  0  0  0  0  0  0
   26.9341  -19.4625   -7.3335 C   0  0  0  0  0  0  0  0  0  0  0  0
   27.8016  -20.5144   -7.5804 C   0  0  0  0  0  0  0  0  0  0  0  0
   28.1073  -20.7979   -8.9269 C   0  0  0  0  0  0  0  0  0  0  0  0
   25.9904  -21.8662  -11.0737 C   0  0  0  0  0  0  0  0  0  0  0  0
   26.4826  -22.8422  -10.4139 O   0  0  0  0  0  0  0  0  0  0  0  0
   24.6338  -21.4952  -10.8050 N   0  0  0  0  0  0  0  0  0  0  0  0
   23.8121  -22.3017   -9.9060 C   0  0  0  0  0  0  0  0  0  0  0  0
   23.4884  -21.5085   -8.6838 C   0  0  0  0  0  0  0  0  0  0  0  0
   22.8335  -22.0603   -7.6074 O   0  0  0  0  0  0  0  0  0  0  0  0
   23.8249  -20.2957   -8.6344 O   0  0  0  0  0  0  0  0  0  0  0  0
  2  3  1  0
  2  1  1  6
  2 13  1  0
  3  4  1  0
  4 12  1  0
  4  5  2  0
  5  6  1  0
  7  6  1  0
  7  8  2  0
  9  8  1  0
 10  9  2  0
 11 12  2  0
 11 10  1  0
 12  7  1  0
 13 14  2  0
 15 13  1  0
 15 16  1  0
 16 24  1  0
 16 17  1  1
 18 17  1  0
 19 18  2  0
 20 19  1  0
 21 22  1  0
 21 20  2  0
 22 23  2  0
 23 18  1  0
 24 25  2  0
 26 24  1  0
 26 27  1  0
 28 29  1  0
 28 27  1  0
 30 28  2  0
M  END
$$$$
