WFG.pdb
     RDKit          3D

 30 32  0  0  1  0  0  0  0  0999 V2000
   26.6039  -22.0695  -12.0349 N   0  0  0  0  0  0  0  0  0  0  0  0
   26.0341  -20.9018  -11.3921 C   0  0  1  0  0  0  0  0  0  0  0  0
   27.1229  -19.9397  -10.9579 C   0  0  0  0  0  0  0  0  0  0  0  0
   28.0491  -20.5302   -9.9648 C   0  0  0  0  0  0  0  0  0  0  0  0
   29.1884  -21.2787  -10.1251 C   0  0  0  0  0  0  0  0  0  0  0  0
   29.7210  -21.6087   -8.9336 N   0  0  0  0  0  0  0  0  0  0  0  0
   28.9310  -21.0762   -7.9543 C   0  0  0  0  0  0  0  0  0  0  0  0
   29.0394  -21.1237   -6.5876 C   0  0  0  0  0  0  0  0  0  0  0  0
   28.1089  -20.5001   -5.7969 C   0  0  0  0  0  0  0  0  0  0  0  0
   27.0724  -19.8296   -6.3809 C   0  0  0  0  0  0  0  0  0  0  0  0
   26.9665  -19.7839   -7.7544 C   0  0  0  0  0  0  0  0  0  0  0  0
   27.8956  -20.4078   -8.5974 C   0  0  0  0  0  0  0  0  0  0  0  0
   25.0768  -20.2634  -12.3178 C   0  0  0  0  0  0  0  0  0  0  0  0
   24.9996  -19.0187  -12.4418 O   0  0  0  0  0  0  0  0  0  0  0  0
   24.1720  -21.0364  -13.1381 N   0  0  0  0  0  0  0  0  0  0  0  0
   23.3133  -20.3827  -14.1069 C   0  0  1  0  0  0  0  0  0  0  0  0
   24.0524  -20.4847  -15.4523 C   0  0  0  0  0  0  0  0  0  0  0  0
   25.2395  -19.6187  -15.5204 C   0  0  0  0  0  0  0  0  0  0  0  0
   26.5016  -20.1836  -15.3913 C   0  0  0  0  0  0  0  0  0  0  0  0
   27.6262  -19.3530  -15.4732 C   0  0  0  0  0  0  0  0  0  0  0  0
   27.4911  -18.0129  -15.6761 C   0  0  0  0  0  0  0  0  0  0  0  0
   26.2411  -17.4299  -15.8080 C   0  0  0  0  0  0  0  0  0  0  0  0
   25.1194  -18.2794  -15.7239 C   0  0  0  0  0  0  0  0  0  0  0  0
   22.0544  -21.1200  -14.2327 C   0  0  0  0  0  0  0  0  0  0  0  0
   21.1866  -20.8454  -15.1282 O   0  0  0  0  0  0  0  0  0  0  0  0
   21.7649  -22.1921  -13.3288 N   0  0  0  0  0  0  0  0  0  0  0  0
   20.4704  -22.8673  -13.3748 C   0  0  0  0  0  0  0  0  0  0  0  0
   19.4734  -22.0836  -12.5877 C   0  0  0  0  0  0  0  0  0  0  0  0
   18.1683  -22.4945  -12.4470 O   0  0  0  0  0  0  0  0  0  0  0  0
   19.8367  -21.0122  -12.0339 O   0  0  0  0  0  0  0  0  0  0  0  0
  2  3  1  0
  2  1  1  6
  2 13  1  0
  3  4  1  0
  4 12  1  0
  4  5  2  0
  5  6  1  0
  7  6  1  0
  7  8  2  0
  9  8  1  0
 10  9  2  0
 11 12  2  0
 11 10  1  0
 12  7  1  0
 13 14  2  0
 15 13  1  0
 15 16  1  0
 16 24  1  0
 16 17  1  6
 18 17  1  0
 19 18  2  0
 20 19  1  0
 21 22  1  0
 21 20  2  0
 22 23  2  0
 23 18  1  0
 24 25  2  0
 26 24  1  0
 26 27  1  0
 28 29  1  0
 28 27  1  0
 30 28  2  0
M  END
$$$$
