LFN.pdb
     RDKit          3D

 28 28  0  0  1  0  0  0  0  0999 V2000
    7.8660  -18.6121   18.6610 C   0  0  0  0  0  0  0  0  0  0  0  0
    9.1607  -19.0443   19.2703 C   0  0  2  0  0  0  0  0  0  0  0  0
    9.1454  -20.5459   19.4523 C   0  0  0  0  0  0  0  0  0  0  0  0
    9.4382  -18.3268   20.5880 C   0  0  0  0  0  0  0  0  0  0  0  0
    9.3336  -16.8505   20.3075 C   0  0  2  0  0  0  0  0  0  0  0  0
   10.3881  -16.4774   19.3902 N   0  0  0  0  0  0  0  0  0  0  0  0
    9.3834  -16.0128   21.4983 C   0  0  0  0  0  0  0  0  0  0  0  0
   10.4979  -15.7396   22.0015 O   0  0  0  0  0  0  0  0  0  0  0  0
    8.2438  -15.4662   22.1530 N   0  0  0  0  0  0  0  0  0  0  0  0
    8.2438  -14.8084   23.4128 C   0  0  1  0  0  0  0  0  0  0  0  0
    6.9407  -14.1676   23.7887 C   0  0  0  0  0  0  0  0  0  0  0  0
    7.0320  -13.5272   25.1128 C   0  0  0  0  0  0  0  0  0  0  0  0
    6.2637  -13.9356   26.1715 C   0  0  0  0  0  0  0  0  0  0  0  0
    6.3618  -13.3199   27.4146 C   0  0  0  0  0  0  0  0  0  0  0  0
    7.2428  -12.2885   27.5779 C   0  0  0  0  0  0  0  0  0  0  0  0
    8.0303  -11.8532   26.5335 C   0  0  0  0  0  0  0  0  0  0  0  0
    7.9098  -12.4920   25.2939 C   0  0  0  0  0  0  0  0  0  0  0  0
    8.6023  -15.7745   24.4820 C   0  0  0  0  0  0  0  0  0  0  0  0
    7.8261  -16.7220   24.7790 O   0  0  0  0  0  0  0  0  0  0  0  0
   12.3895  -18.0130   23.6496 N   0  0  0  0  0  0  0  0  0  0  0  0
   11.5879  -18.2039   24.8262 C   0  0  0  0  0  0  0  0  0  0  0  0
   10.9363  -19.2524   24.9762 O   0  0  0  0  0  0  0  0  0  0  0  0
   11.5824  -17.1298   25.8051 C   0  0  0  0  0  0  0  0  0  0  0  0
   10.2187  -16.6974   26.2123 C   0  0  2  0  0  0  0  0  0  0  0  0
    9.8104  -15.6800   25.2058 N   0  0  0  0  0  0  0  0  0  0  0  0
   10.1337  -16.0802   27.5587 C   0  0  0  0  0  0  0  0  0  0  0  0
    9.8831  -14.7052   27.6216 O   0  0  0  0  0  0  0  0  0  0  0  0
   10.2727  -16.7173   28.6149 O   0  0  0  0  0  0  0  0  0  0  0  0
  2  1  1  1
  3  2  1  0
  4  2  1  0
  5  4  1  0
  5  6  1  6
  7  8  2  0
  7  5  1  0
  9  7  1  0
 10  9  1  0
 10 11  1  1
 11 12  1  0
 12 17  2  0
 12 13  1  0
 13 14  2  0
 14 15  1  0
 16 15  2  0
 17 16  1  0
 18 10  1  0
 19 18  2  0
 21 22  2  0
 21 20  1  0
 23 21  1  0
 24 23  1  6
 24 25  1  0
 25 18  1  0
 26 24  1  0
 27 26  1  0
 28 26  2  0
M  END
$$$$
