LFN.pdb
     RDKit          3D

 28 28  0  0  1  0  0  0  0  0999 V2000
    8.0809  -15.3265   17.0915 C   0  0  0  0  0  0  0  0  0  0  0  0
    7.7897  -14.4174   18.2417 C   0  0  2  0  0  0  0  0  0  0  0  0
    7.2677  -13.1002   17.7120 C   0  0  0  0  0  0  0  0  0  0  0  0
    9.0126  -14.2141   19.1314 C   0  0  0  0  0  0  0  0  0  0  0  0
    8.9974  -15.3251   20.1485 C   0  0  2  0  0  0  0  0  0  0  0  0
    7.7739  -16.0805   19.9912 N   0  0  0  0  0  0  0  0  0  0  0  0
    9.1354  -14.8730   21.5265 C   0  0  0  0  0  0  0  0  0  0  0  0
   10.1403  -14.1958   21.8449 O   0  0  0  0  0  0  0  0  0  0  0  0
    8.2010  -15.1435   22.5656 N   0  0  0  0  0  0  0  0  0  0  0  0
    8.2471  -14.6154   23.8843 C   0  0  1  0  0  0  0  0  0  0  0  0
    6.9260  -14.5762   24.5935 C   0  0  0  0  0  0  0  0  0  0  0  0
    6.9942  -13.7123   25.7855 C   0  0  0  0  0  0  0  0  0  0  0  0
    7.7568  -14.0388   26.8763 C   0  0  0  0  0  0  0  0  0  0  0  0
    7.8097  -13.2126   27.9935 C   0  0  0  0  0  0  0  0  0  0  0  0
    7.0854  -12.0541   27.9985 C   0  0  0  0  0  0  0  0  0  0  0  0
    6.3081  -11.6962   26.9176 C   0  0  0  0  0  0  0  0  0  0  0  0
    6.2746  -12.5477   25.8073 C   0  0  0  0  0  0  0  0  0  0  0  0
    9.1854  -15.4156   24.7114 C   0  0  0  0  0  0  0  0  0  0  0  0
   10.0583  -14.8496   25.4230 O   0  0  0  0  0  0  0  0  0  0  0  0
   10.5708  -21.1978   25.5257 N   0  0  0  0  0  0  0  0  0  0  0  0
   10.3601  -19.9782   26.2547 C   0  0  0  0  0  0  0  0  0  0  0  0
   10.9101  -19.8045   27.3564 O   0  0  0  0  0  0  0  0  0  0  0  0
    9.4903  -18.9852   25.6467 C   0  0  0  0  0  0  0  0  0  0  0  0
   10.1045  -17.6346   25.5418 C   0  0  2  0  0  0  0  0  0  0  0  0
    9.1458  -16.8262   24.7405 N   0  0  0  0  0  0  0  0  0  0  0  0
   11.4240  -17.5980   24.8645 C   0  0  0  0  0  0  0  0  0  0  0  0
   11.4290  -17.5888   23.4654 O   0  0  0  0  0  0  0  0  0  0  0  0
   12.5061  -17.5757   25.4720 O   0  0  0  0  0  0  0  0  0  0  0  0
  2  1  1  6
  3  2  1  0
  4  2  1  0
  5  4  1  0
  5  6  1  1
  7  8  2  0
  7  5  1  0
  9  7  1  0
 10  9  1  0
 10 11  1  1
 11 12  1  0
 12 17  2  0
 12 13  1  0
 13 14  2  0
 14 15  1  0
 16 15  2  0
 17 16  1  0
 18 10  1  0
 19 18  2  0
 21 22  2  0
 21 20  1  0
 23 21  1  0
 24 23  1  6
 24 25  1  0
 25 18  1  0
 26 24  1  0
 27 26  1  0
 28 26  2  0
M  END
$$$$
