LFN.pdb
     RDKit          3D

 28 28  0  0  1  0  0  0  0  0999 V2000
    7.4861  -19.4872   19.3878 C   0  0  0  0  0  0  0  0  0  0  0  0
    8.9652  -19.5742   19.5849 C   0  0  2  0  0  0  0  0  0  0  0  0
    9.3497  -21.0186   19.8172 C   0  0  0  0  0  0  0  0  0  0  0  0
    9.4415  -18.6810   20.7268 C   0  0  0  0  0  0  0  0  0  0  0  0
    9.0722  -17.2688   20.3546 C   0  0  2  0  0  0  0  0  0  0  0  0
    9.9236  -16.8386   19.2672 N   0  0  0  0  0  0  0  0  0  0  0  0
    9.1502  -16.3220   21.4590 C   0  0  0  0  0  0  0  0  0  0  0  0
   10.2409  -15.7515   21.6931 O   0  0  0  0  0  0  0  0  0  0  0  0
    8.0640  -15.9835   22.3145 N   0  0  0  0  0  0  0  0  0  0  0  0
    8.1374  -15.1465   23.4608 C   0  0  1  0  0  0  0  0  0  0  0  0
    6.8480  -14.4781   23.8361 C   0  0  0  0  0  0  0  0  0  0  0  0
    7.0268  -13.6163   25.0181 C   0  0  0  0  0  0  0  0  0  0  0  0
    6.4947  -13.9387   26.2390 C   0  0  0  0  0  0  0  0  0  0  0  0
    6.6724  -13.1139   27.3445 C   0  0  0  0  0  0  0  0  0  0  0  0
    7.3922  -11.9610   27.2048 C   0  0  0  0  0  0  0  0  0  0  0  0
    7.9409  -11.6074   25.9906 C   0  0  0  0  0  0  0  0  0  0  0  0
    7.7455  -12.4572   24.8958 C   0  0  0  0  0  0  0  0  0  0  0  0
    8.5982  -15.9378   24.6297 C   0  0  0  0  0  0  0  0  0  0  0  0
    7.9260  -16.9188   25.0474 O   0  0  0  0  0  0  0  0  0  0  0  0
   12.6375  -16.9305   23.7216 N   0  0  0  0  0  0  0  0  0  0  0  0
   11.9706  -17.5400   24.8384 C   0  0  0  0  0  0  0  0  0  0  0  0
   11.5871  -18.7210   24.7700 O   0  0  0  0  0  0  0  0  0  0  0  0
   11.7750  -16.7188   26.0215 C   0  0  0  0  0  0  0  0  0  0  0  0
   10.3459  -16.5174   26.3813 C   0  0  2  0  0  0  0  0  0  0  0  0
    9.7922  -15.6346   25.3188 N   0  0  0  0  0  0  0  0  0  0  0  0
   10.1170  -15.8654   27.6942 C   0  0  0  0  0  0  0  0  0  0  0  0
    9.6824  -14.5355   27.6850 O   0  0  0  0  0  0  0  0  0  0  0  0
   10.2905  -16.4362   28.7826 O   0  0  0  0  0  0  0  0  0  0  0  0
  2  1  1  1
  3  2  1  0
  4  2  1  0
  5  4  1  0
  5  6  1  6
  7  8  2  0
  7  5  1  0
  9  7  1  0
 10  9  1  0
 10 11  1  1
 11 12  1  0
 12 17  2  0
 12 13  1  0
 13 14  2  0
 14 15  1  0
 16 15  2  0
 17 16  1  0
 18 10  1  0
 19 18  2  0
 21 22  2  0
 21 20  1  0
 23 21  1  0
 24 23  1  6
 24 25  1  0
 25 18  1  0
 26 24  1  0
 27 26  1  0
 28 26  2  0
M  END
$$$$
