LFN.pdb
     RDKit          3D

 28 28  0  0  1  0  0  0  0  0999 V2000
    8.8439  -15.1030   16.9155 C   0  0  0  0  0  0  0  0  0  0  0  0
    8.0473  -14.1585   17.7567 C   0  0  2  0  0  0  0  0  0  0  0  0
    7.6910  -12.9412   16.9325 C   0  0  0  0  0  0  0  0  0  0  0  0
    8.7873  -13.7692   19.0332 C   0  0  0  0  0  0  0  0  0  0  0  0
    8.8559  -15.0074   19.8884 C   0  0  2  0  0  0  0  0  0  0  0  0
    7.6755  -15.8064   19.6423 N   0  0  0  0  0  0  0  0  0  0  0  0
    8.9935  -14.7398   21.3138 C   0  0  0  0  0  0  0  0  0  0  0  0
   10.0265  -14.1626   21.7257 O   0  0  0  0  0  0  0  0  0  0  0  0
    8.0287  -15.0882   22.3006 N   0  0  0  0  0  0  0  0  0  0  0  0
    8.0606  -14.7024   23.6682 C   0  0  1  0  0  0  0  0  0  0  0  0
    6.7461  -14.2392   24.2227 C   0  0  0  0  0  0  0  0  0  0  0  0
    6.9259  -13.6003   25.5384 C   0  0  0  0  0  0  0  0  0  0  0  0
    6.4877  -14.1873   26.6966 C   0  0  0  0  0  0  0  0  0  0  0  0
    6.6649  -13.5705   27.9303 C   0  0  0  0  0  0  0  0  0  0  0  0
    7.2885  -12.3560   27.9829 C   0  0  0  0  0  0  0  0  0  0  0  0
    7.7412  -11.7383   26.8366 C   0  0  0  0  0  0  0  0  0  0  0  0
    7.5488  -12.3830   25.6093 C   0  0  0  0  0  0  0  0  0  0  0  0
    8.5306  -15.8401   24.4985 C   0  0  0  0  0  0  0  0  0  0  0  0
    7.8569  -16.9027   24.5735 O   0  0  0  0  0  0  0  0  0  0  0  0
   11.0887  -17.7446   23.5244 N   0  0  0  0  0  0  0  0  0  0  0  0
   12.1365  -17.3971   24.4435 C   0  0  0  0  0  0  0  0  0  0  0  0
   13.3278  -17.4945   24.1004 O   0  0  0  0  0  0  0  0  0  0  0  0
   11.7348  -16.9373   25.7624 C   0  0  0  0  0  0  0  0  0  0  0  0
   10.2639  -16.9593   25.9822 C   0  0  2  0  0  0  0  0  0  0  0  0
    9.7353  -15.7877   25.2322 N   0  0  0  0  0  0  0  0  0  0  0  0
    9.8408  -16.8346   27.3987 C   0  0  0  0  0  0  0  0  0  0  0  0
   10.0390  -15.5982   28.0229 O   0  0  0  0  0  0  0  0  0  0  0  0
    9.3276  -17.7616   28.0451 O   0  0  0  0  0  0  0  0  0  0  0  0
  2  1  1  6
  3  2  1  0
  4  2  1  0
  5  4  1  0
  5  6  1  1
  7  8  2  0
  7  5  1  0
  9  7  1  0
 10  9  1  0
 10 11  1  1
 11 12  1  0
 12 17  2  0
 12 13  1  0
 13 14  2  0
 14 15  1  0
 16 15  2  0
 17 16  1  0
 18 10  1  0
 19 18  2  0
 21 22  2  0
 21 20  1  0
 23 21  1  0
 24 23  1  1
 24 25  1  0
 25 18  1  0
 26 24  1  0
 27 26  1  0
 28 26  2  0
M  END
$$$$
