LFN.pdb
     RDKit          3D

 28 28  0  0  1  0  0  0  0  0999 V2000
    8.6211  -12.8506   18.2076 C   0  0  0  0  0  0  0  0  0  0  0  0
    7.7711  -13.5685   19.2058 C   0  0  2  0  0  0  0  0  0  0  0  0
    6.3542  -13.0465   19.1162 C   0  0  0  0  0  0  0  0  0  0  0  0
    8.3233  -13.4392   20.6224 C   0  0  0  0  0  0  0  0  0  0  0  0
    8.5478  -14.8400   21.1290 C   0  0  2  0  0  0  0  0  0  0  0  0
    7.2876  -15.5498   21.1021 N   0  0  0  0  0  0  0  0  0  0  0  0
    9.1329  -14.9049   22.4615 C   0  0  0  0  0  0  0  0  0  0  0  0
   10.2943  -14.4684   22.6359 O   0  0  0  0  0  0  0  0  0  0  0  0
    8.4788  -15.4357   23.6089 N   0  0  0  0  0  0  0  0  0  0  0  0
    9.0139  -15.4819   24.9248 C   0  0  1  0  0  0  0  0  0  0  0  0
    7.9928  -15.4267   26.0221 C   0  0  0  0  0  0  0  0  0  0  0  0
    7.5021  -14.0507   26.2155 C   0  0  0  0  0  0  0  0  0  0  0  0
    8.3295  -13.0340   26.6147 C   0  0  0  0  0  0  0  0  0  0  0  0
    7.8501  -11.7408   26.7930 C   0  0  0  0  0  0  0  0  0  0  0  0
    6.5277  -11.4847   26.5643 C   0  0  0  0  0  0  0  0  0  0  0  0
    5.6684  -12.4848   26.1619 C   0  0  0  0  0  0  0  0  0  0  0  0
    6.1795  -13.7765   25.9907 C   0  0  0  0  0  0  0  0  0  0  0  0
    9.8053  -16.7260   25.1000 C   0  0  0  0  0  0  0  0  0  0  0  0
    9.3002  -17.8512   24.8402 O   0  0  0  0  0  0  0  0  0  0  0  0
   13.1897  -17.3343   23.0862 N   0  0  0  0  0  0  0  0  0  0  0  0
   13.6021  -16.7478   24.3309 C   0  0  0  0  0  0  0  0  0  0  0  0
   14.1381  -15.6257   24.3469 O   0  0  0  0  0  0  0  0  0  0  0  0
   13.3632  -17.5205   25.5383 C   0  0  0  0  0  0  0  0  0  0  0  0
   11.9489  -17.9498   25.7047 C   0  0  2  0  0  0  0  0  0  0  0  0
   11.1400  -16.7091   25.5587 N   0  0  0  0  0  0  0  0  0  0  0  0
   11.6307  -18.5609   27.0187 C   0  0  0  0  0  0  0  0  0  0  0  0
   10.8792  -17.7971   27.9184 O   0  0  0  0  0  0  0  0  0  0  0  0
   11.9947  -19.6999   27.3512 O   0  0  0  0  0  0  0  0  0  0  0  0
  2  1  1  6
  3  2  1  0
  4  2  1  0
  5  4  1  0
  5  6  1  1
  7  8  2  0
  7  5  1  0
  9  7  1  0
 10  9  1  0
 10 11  1  1
 11 12  1  0
 12 17  2  0
 12 13  1  0
 13 14  2  0
 14 15  1  0
 16 15  2  0
 17 16  1  0
 18 10  1  0
 19 18  2  0
 21 22  2  0
 21 20  1  0
 23 21  1  0
 24 23  1  1
 24 25  1  0
 25 18  1  0
 26 24  1  0
 27 26  1  0
 28 26  2  0
M  END
$$$$
