LFN.pdb
     RDKit          3D

 28 28  0  0  1  0  0  0  0  0999 V2000
    8.5505  -14.3027   18.4398 C   0  0  0  0  0  0  0  0  0  0  0  0
    7.7516  -13.5263   19.4364 C   0  0  2  0  0  0  0  0  0  0  0  0
    7.4461  -12.1580   18.8683 C   0  0  0  0  0  0  0  0  0  0  0  0
    8.4634  -13.4239   20.7822 C   0  0  0  0  0  0  0  0  0  0  0  0
    8.6496  -14.8328   21.2817 C   0  0  2  0  0  0  0  0  0  0  0  0
    7.3993  -15.5453   21.1350 N   0  0  0  0  0  0  0  0  0  0  0  0
    9.1191  -14.9196   22.6581 C   0  0  0  0  0  0  0  0  0  0  0  0
   10.2023  -14.3699   22.9653 O   0  0  0  0  0  0  0  0  0  0  0  0
    8.4328  -15.5932   23.7075 N   0  0  0  0  0  0  0  0  0  0  0  0
    8.8008  -15.5874   25.0803 C   0  0  1  0  0  0  0  0  0  0  0  0
    7.6518  -15.4909   26.0398 C   0  0  0  0  0  0  0  0  0  0  0  0
    7.2398  -14.0886   26.2279 C   0  0  0  0  0  0  0  0  0  0  0  0
    8.1462  -13.0939   26.4866 C   0  0  0  0  0  0  0  0  0  0  0  0
    7.7406  -11.7754   26.6621 C   0  0  0  0  0  0  0  0  0  0  0  0
    6.4114  -11.4715   26.5738 C   0  0  0  0  0  0  0  0  0  0  0  0
    5.4738  -12.4483   26.3149 C   0  0  0  0  0  0  0  0  0  0  0  0
    5.9118  -13.7665   26.1428 C   0  0  0  0  0  0  0  0  0  0  0  0
    9.5598  -16.8228   25.4003 C   0  0  0  0  0  0  0  0  0  0  0  0
    9.4823  -17.3471   26.5438 O   0  0  0  0  0  0  0  0  0  0  0  0
    9.9610  -21.2662   24.0100 N   0  0  0  0  0  0  0  0  0  0  0  0
   10.3514  -20.2527   23.0699 C   0  0  0  0  0  0  0  0  0  0  0  0
    9.7844  -20.1710   21.9661 O   0  0  0  0  0  0  0  0  0  0  0  0
   11.4189  -19.3522   23.4722 C   0  0  0  0  0  0  0  0  0  0  0  0
   11.1769  -18.6819   24.7778 C   0  0  2  0  0  0  0  0  0  0  0  0
   10.3917  -17.4597   24.4544 N   0  0  0  0  0  0  0  0  0  0  0  0
   12.4018  -18.2690   25.5060 C   0  0  0  0  0  0  0  0  0  0  0  0
   13.2400  -19.2831   25.9819 O   0  0  0  0  0  0  0  0  0  0  0  0
   12.7121  -17.0845   25.7091 O   0  0  0  0  0  0  0  0  0  0  0  0
  2  1  1  6
  3  2  1  0
  4  2  1  0
  5  4  1  0
  5  6  1  1
  7  8  2  0
  7  5  1  0
  9  7  1  0
 10  9  1  0
 10 11  1  1
 11 12  1  0
 12 17  2  0
 12 13  1  0
 13 14  2  0
 14 15  1  0
 16 15  2  0
 17 16  1  0
 18 10  1  0
 19 18  2  0
 21 22  2  0
 21 20  1  0
 23 21  1  0
 24 23  1  6
 24 25  1  0
 25 18  1  0
 26 24  1  0
 27 26  1  0
 28 26  2  0
M  END
$$$$
