LFN.pdb
     RDKit          3D

 28 28  0  0  1  0  0  0  0  0999 V2000
    8.7595  -14.9679   16.8411 C   0  0  0  0  0  0  0  0  0  0  0  0
    7.9758  -14.2235   17.8734 C   0  0  2  0  0  0  0  0  0  0  0  0
    7.2990  -13.0380   17.2218 C   0  0  0  0  0  0  0  0  0  0  0  0
    8.8479  -13.7900   19.0482 C   0  0  0  0  0  0  0  0  0  0  0  0
    8.8913  -14.9512   20.0067 C   0  0  2  0  0  0  0  0  0  0  0  0
    7.6981  -15.7482   19.8232 N   0  0  0  0  0  0  0  0  0  0  0  0
    9.0276  -14.5648   21.4047 C   0  0  0  0  0  0  0  0  0  0  0  0
   10.0372  -13.9122   21.7580 O   0  0  0  0  0  0  0  0  0  0  0  0
    8.0865  -14.8747   22.4266 N   0  0  0  0  0  0  0  0  0  0  0  0
    8.0820  -14.3400   23.7435 C   0  0  1  0  0  0  0  0  0  0  0  0
    6.7188  -14.0825   24.3140 C   0  0  0  0  0  0  0  0  0  0  0  0
    6.8095  -13.3082   25.5645 C   0  0  0  0  0  0  0  0  0  0  0  0
    6.8188  -13.9131   26.7941 C   0  0  0  0  0  0  0  0  0  0  0  0
    6.9044  -13.1674   27.9648 C   0  0  0  0  0  0  0  0  0  0  0  0
    6.9804  -11.8058   27.8816 C   0  0  0  0  0  0  0  0  0  0  0  0
    6.9734  -11.1660   26.6605 C   0  0  0  0  0  0  0  0  0  0  0  0
    6.8864  -11.9427   25.4993 C   0  0  0  0  0  0  0  0  0  0  0  0
    8.7936  -15.2648   24.6617 C   0  0  0  0  0  0  0  0  0  0  0  0
    8.7349  -15.1025   25.9103 O   0  0  0  0  0  0  0  0  0  0  0  0
   11.3806  -19.2799   26.5536 N   0  0  0  0  0  0  0  0  0  0  0  0
   10.3509  -19.6727   25.6322 C   0  0  0  0  0  0  0  0  0  0  0  0
   10.0137  -20.8662   25.5420 O   0  0  0  0  0  0  0  0  0  0  0  0
    9.7421  -18.6227   24.8328 C   0  0  0  0  0  0  0  0  0  0  0  0
   10.2938  -17.2681   25.1027 C   0  0  2  0  0  0  0  0  0  0  0  0
    9.5580  -16.3529   24.1885 N   0  0  0  0  0  0  0  0  0  0  0  0
   11.7464  -17.1200   24.8394 C   0  0  0  0  0  0  0  0  0  0  0  0
   12.6289  -17.7130   25.7488 O   0  0  0  0  0  0  0  0  0  0  0  0
   12.2072  -16.5042   23.8652 O   0  0  0  0  0  0  0  0  0  0  0  0
  2  1  1  6
  3  2  1  0
  4  2  1  0
  5  4  1  0
  5  6  1  1
  7  8  2  0
  7  5  1  0
  9  7  1  0
 10  9  1  0
 10 11  1  1
 11 12  1  0
 12 17  2  0
 12 13  1  0
 13 14  2  0
 14 15  1  0
 16 15  2  0
 17 16  1  0
 18 10  1  0
 19 18  2  0
 21 22  2  0
 21 20  1  0
 23 21  1  0
 24 23  1  6
 24 25  1  0
 25 18  1  0
 26 24  1  0
 27 26  1  0
 28 26  2  0
M  END
$$$$
