LFN.pdb
     RDKit          3D

 28 28  0  0  1  0  0  0  0  0999 V2000
    7.6799  -14.1738   18.1057 C   0  0  0  0  0  0  0  0  0  0  0  0
    7.5088  -13.3369   19.3323 C   0  0  2  0  0  0  0  0  0  0  0  0
    7.3764  -11.8856   18.9271 C   0  0  0  0  0  0  0  0  0  0  0  0
    8.6527  -13.5362   20.3223 C   0  0  0  0  0  0  0  0  0  0  0  0
    8.5024  -14.9260   20.8834 C   0  0  2  0  0  0  0  0  0  0  0  0
    7.1086  -15.3061   20.8122 N   0  0  0  0  0  0  0  0  0  0  0  0
    8.9950  -15.0746   22.2463 C   0  0  0  0  0  0  0  0  0  0  0  0
   10.1404  -14.6512   22.5269 O   0  0  0  0  0  0  0  0  0  0  0  0
    8.2654  -15.6752   23.3108 N   0  0  0  0  0  0  0  0  0  0  0  0
    8.6839  -15.7520   24.6669 C   0  0  1  0  0  0  0  0  0  0  0  0
    7.5722  -15.7022   25.6728 C   0  0  0  0  0  0  0  0  0  0  0  0
    7.2053  -14.3090   25.9827 C   0  0  0  0  0  0  0  0  0  0  0  0
    5.9678  -13.8008   25.6859 C   0  0  0  0  0  0  0  0  0  0  0  0
    5.6378  -12.4833   25.9848 C   0  0  0  0  0  0  0  0  0  0  0  0
    6.5692  -11.6847   26.5859 C   0  0  0  0  0  0  0  0  0  0  0  0
    7.8233  -12.1647   26.8978 C   0  0  0  0  0  0  0  0  0  0  0  0
    8.1268  -13.4949   26.5851 C   0  0  0  0  0  0  0  0  0  0  0  0
    9.4417  -17.0099   24.8864 C   0  0  0  0  0  0  0  0  0  0  0  0
    8.8517  -18.1237   24.8905 O   0  0  0  0  0  0  0  0  0  0  0  0
   12.5111  -19.8713   23.2471 N   0  0  0  0  0  0  0  0  0  0  0  0
   13.4070  -18.8231   23.6495 C   0  0  0  0  0  0  0  0  0  0  0  0
   14.4982  -18.6761   23.0713 O   0  0  0  0  0  0  0  0  0  0  0  0
   12.9765  -17.9670   24.7421 C   0  0  0  0  0  0  0  0  0  0  0  0
   11.6129  -18.2804   25.2471 C   0  0  2  0  0  0  0  0  0  0  0  0
   10.8373  -17.0191   25.0978 N   0  0  0  0  0  0  0  0  0  0  0  0
   11.5529  -18.6981   26.6695 C   0  0  0  0  0  0  0  0  0  0  0  0
   11.4375  -17.6892   27.6319 O   0  0  0  0  0  0  0  0  0  0  0  0
   11.5997  -19.8821   27.0389 O   0  0  0  0  0  0  0  0  0  0  0  0
  2  1  1  6
  3  2  1  0
  4  2  1  0
  5  4  1  0
  5  6  1  1
  7  8  2  0
  7  5  1  0
  9  7  1  0
 10  9  1  0
 10 11  1  1
 11 12  1  0
 12 17  2  0
 12 13  1  0
 13 14  2  0
 14 15  1  0
 16 15  2  0
 17 16  1  0
 18 10  1  0
 19 18  2  0
 21 22  2  0
 21 20  1  0
 23 21  1  0
 24 23  1  1
 24 25  1  0
 25 18  1  0
 26 24  1  0
 27 26  1  0
 28 26  2  0
M  END
$$$$
