LFN.pdb
     RDKit          3D

 28 28  0  0  1  0  0  0  0  0999 V2000
    8.1161  -14.4084   18.0062 C   0  0  0  0  0  0  0  0  0  0  0  0
    7.5656  -13.5113   19.0675 C   0  0  2  0  0  0  0  0  0  0  0  0
    7.3982  -12.1187   18.5009 C   0  0  0  0  0  0  0  0  0  0  0  0
    8.4415  -13.5022   20.3169 C   0  0  0  0  0  0  0  0  0  0  0  0
    8.4769  -14.9177   20.8310 C   0  0  2  0  0  0  0  0  0  0  0  0
    7.1431  -15.4722   20.7535 N   0  0  0  0  0  0  0  0  0  0  0  0
    8.9969  -15.0465   22.1858 C   0  0  0  0  0  0  0  0  0  0  0  0
   10.1957  -14.7560   22.4055 O   0  0  0  0  0  0  0  0  0  0  0  0
    8.2377  -15.4854   23.3069 N   0  0  0  0  0  0  0  0  0  0  0  0
    8.6943  -15.5382   24.6518 C   0  0  1  0  0  0  0  0  0  0  0  0
    7.6144  -15.4372   25.6879 C   0  0  0  0  0  0  0  0  0  0  0  0
    7.2967  -14.0284   25.9811 C   0  0  0  0  0  0  0  0  0  0  0  0
    8.2448  -13.1495   26.4354 C   0  0  0  0  0  0  0  0  0  0  0  0
    7.9281  -11.8231   26.7077 C   0  0  0  0  0  0  0  0  0  0  0  0
    6.6453  -11.3933   26.5170 C   0  0  0  0  0  0  0  0  0  0  0  0
    5.6676  -12.2516   26.0612 C   0  0  0  0  0  0  0  0  0  0  0  0
    6.0160  -13.5810   25.7955 C   0  0  0  0  0  0  0  0  0  0  0  0
    9.4295  -16.8077   24.8813 C   0  0  0  0  0  0  0  0  0  0  0  0
    8.9068  -17.9159   24.5859 O   0  0  0  0  0  0  0  0  0  0  0  0
   13.9571  -19.7117   24.0509 N   0  0  0  0  0  0  0  0  0  0  0  0
   13.8475  -18.8163   25.1688 C   0  0  0  0  0  0  0  0  0  0  0  0
   14.5567  -18.9837   26.1766 O   0  0  0  0  0  0  0  0  0  0  0  0
   12.8859  -17.7324   25.0572 C   0  0  0  0  0  0  0  0  0  0  0  0
   11.5242  -18.0877   25.5388 C   0  0  2  0  0  0  0  0  0  0  0  0
   10.7286  -16.8345   25.4326 N   0  0  0  0  0  0  0  0  0  0  0  0
   11.4609  -18.5616   26.9433 C   0  0  0  0  0  0  0  0  0  0  0  0
   11.6130  -19.9344   27.1665 O   0  0  0  0  0  0  0  0  0  0  0  0
   11.2819  -17.8085   27.9135 O   0  0  0  0  0  0  0  0  0  0  0  0
  2  1  1  6
  3  2  1  0
  4  2  1  0
  5  4  1  0
  5  6  1  1
  7  8  2  0
  7  5  1  0
  9  7  1  0
 10  9  1  0
 10 11  1  1
 11 12  1  0
 12 17  2  0
 12 13  1  0
 13 14  2  0
 14 15  1  0
 16 15  2  0
 17 16  1  0
 18 10  1  0
 19 18  2  0
 21 22  2  0
 21 20  1  0
 23 21  1  0
 24 23  1  1
 24 25  1  0
 25 18  1  0
 26 24  1  0
 27 26  1  0
 28 26  2  0
M  END
$$$$
