LFN.pdb
     RDKit          3D

 28 28  0  0  1  0  0  0  0  0999 V2000
    7.6142  -19.1140   19.2832 C   0  0  0  0  0  0  0  0  0  0  0  0
    8.7012  -19.6724   20.1441 C   0  0  2  0  0  0  0  0  0  0  0  0
    8.3931  -21.1207   20.4535 C   0  0  0  0  0  0  0  0  0  0  0  0
    8.8918  -18.8589   21.4209 C   0  0  0  0  0  0  0  0  0  0  0  0
    9.1293  -17.4337   20.9947 C   0  0  2  0  0  0  0  0  0  0  0  0
   10.3652  -17.3740   20.2456 N   0  0  0  0  0  0  0  0  0  0  0  0
    9.1623  -16.4804   22.0958 C   0  0  0  0  0  0  0  0  0  0  0  0
   10.2568  -16.2376   22.6553 O   0  0  0  0  0  0  0  0  0  0  0  0
    8.0272  -15.7856   22.6006 N   0  0  0  0  0  0  0  0  0  0  0  0
    8.0186  -14.9063   23.7171 C   0  0  1  0  0  0  0  0  0  0  0  0
    6.7912  -14.0523   23.8367 C   0  0  0  0  0  0  0  0  0  0  0  0
    6.8250  -13.2530   25.0744 C   0  0  0  0  0  0  0  0  0  0  0  0
    5.9936  -13.5159   26.1315 C   0  0  0  0  0  0  0  0  0  0  0  0
    6.0380  -12.7514   27.2923 C   0  0  0  0  0  0  0  0  0  0  0  0
    6.9297  -11.7195   27.3749 C   0  0  0  0  0  0  0  0  0  0  0  0
    7.7800  -11.4284   26.3296 C   0  0  0  0  0  0  0  0  0  0  0  0
    7.7125  -12.2152   25.1740 C   0  0  0  0  0  0  0  0  0  0  0  0
    8.1539  -15.6889   24.9717 C   0  0  0  0  0  0  0  0  0  0  0  0
    8.3486  -15.1087   26.0736 O   0  0  0  0  0  0  0  0  0  0  0  0
    7.7673  -21.4102   26.7548 N   0  0  0  0  0  0  0  0  0  0  0  0
    7.4195  -20.0630   27.1115 C   0  0  0  0  0  0  0  0  0  0  0  0
    7.2018  -19.7664   28.2994 O   0  0  0  0  0  0  0  0  0  0  0  0
    7.3389  -19.0921   26.0330 C   0  0  0  0  0  0  0  0  0  0  0  0
    8.1823  -17.8860   26.2485 C   0  0  2  0  0  0  0  0  0  0  0  0
    8.0724  -17.0979   24.9909 N   0  0  0  0  0  0  0  0  0  0  0  0
    9.6180  -18.1630   26.5001 C   0  0  0  0  0  0  0  0  0  0  0  0
   10.4030  -18.5364   25.4039 O   0  0  0  0  0  0  0  0  0  0  0  0
   10.1460  -18.0801   27.6203 O   0  0  0  0  0  0  0  0  0  0  0  0
  2  1  1  1
  3  2  1  0
  4  2  1  0
  5  4  1  0
  5  6  1  1
  7  8  2  0
  7  5  1  0
  9  7  1  0
 10  9  1  0
 10 11  1  1
 11 12  1  0
 12 17  2  0
 12 13  1  0
 13 14  2  0
 14 15  1  0
 16 15  2  0
 17 16  1  0
 18 10  1  0
 19 18  2  0
 21 22  2  0
 21 20  1  0
 23 21  1  0
 24 23  1  6
 24 25  1  0
 25 18  1  0
 26 24  1  0
 27 26  1  0
 28 26  2  0
M  END
$$$$
