LFN.pdb
     RDKit          3D

 28 28  0  0  1  0  0  0  0  0999 V2000
    8.7438  -19.6977   19.5345 C   0  0  0  0  0  0  0  0  0  0  0  0
   10.1549  -19.5001   19.9860 C   0  0  2  0  0  0  0  0  0  0  0  0
   10.7775  -20.8490   20.2701 C   0  0  0  0  0  0  0  0  0  0  0  0
   10.2413  -18.5804   21.2005 C   0  0  0  0  0  0  0  0  0  0  0  0
    9.5744  -17.2867   20.8122 C   0  0  2  0  0  0  0  0  0  0  0  0
   10.2409  -16.7544   19.6440 N   0  0  0  0  0  0  0  0  0  0  0  0
    9.5464  -16.2890   21.8733 C   0  0  0  0  0  0  0  0  0  0  0  0
   10.5637  -15.5846   22.0706 O   0  0  0  0  0  0  0  0  0  0  0  0
    8.4327  -16.0424   22.7247 N   0  0  0  0  0  0  0  0  0  0  0  0
    8.4248  -15.1827   23.8565 C   0  0  1  0  0  0  0  0  0  0  0  0
    7.0610  -14.7636   24.3196 C   0  0  0  0  0  0  0  0  0  0  0  0
    7.1556  -13.8055   25.4352 C   0  0  0  0  0  0  0  0  0  0  0  0
    7.0822  -14.2051   26.7439 C   0  0  0  0  0  0  0  0  0  0  0  0
    7.1727  -13.2877   27.7851 C   0  0  0  0  0  0  0  0  0  0  0  0
    7.3381  -11.9636   27.4918 C   0  0  0  0  0  0  0  0  0  0  0  0
    7.4158  -11.5282   26.1861 C   0  0  0  0  0  0  0  0  0  0  0  0
    7.3215  -12.4746   25.1592 C   0  0  0  0  0  0  0  0  0  0  0  0
    9.1089  -15.8471   24.9946 C   0  0  0  0  0  0  0  0  0  0  0  0
    8.7431  -16.9874   25.3876 O   0  0  0  0  0  0  0  0  0  0  0  0
   13.5098  -15.3384   24.1486 N   0  0  0  0  0  0  0  0  0  0  0  0
   12.9980  -16.2034   25.1748 C   0  0  0  0  0  0  0  0  0  0  0  0
   13.0504  -17.4381   25.0363 O   0  0  0  0  0  0  0  0  0  0  0  0
   12.4304  -15.5694   26.3530 C   0  0  0  0  0  0  0  0  0  0  0  0
   11.0347  -15.9914   26.6466 C   0  0  2  0  0  0  0  0  0  0  0  0
   10.1848  -15.2436   25.6805 N   0  0  0  0  0  0  0  0  0  0  0  0
   10.5626  -15.6816   28.0186 C   0  0  0  0  0  0  0  0  0  0  0  0
    9.5156  -14.7624   28.1465 O   0  0  0  0  0  0  0  0  0  0  0  0
   11.0460  -16.1920   29.0415 O   0  0  0  0  0  0  0  0  0  0  0  0
  2  1  1  1
  3  2  1  0
  4  2  1  0
  5  4  1  0
  5  6  1  6
  7  8  2  0
  7  5  1  0
  9  7  1  0
 10  9  1  0
 10 11  1  1
 11 12  1  0
 12 17  2  0
 12 13  1  0
 13 14  2  0
 14 15  1  0
 16 15  2  0
 17 16  1  0
 18 10  1  0
 19 18  2  0
 21 22  2  0
 21 20  1  0
 23 21  1  0
 24 23  1  1
 24 25  1  0
 25 18  1  0
 26 24  1  0
 27 26  1  0
 28 26  2  0
M  END
$$$$
