LFN.pdb
     RDKit          3D

 28 28  0  0  1  0  0  0  0  0999 V2000
    8.0697  -12.5269   18.8640 C   0  0  0  0  0  0  0  0  0  0  0  0
    8.0084  -13.6907   19.8000 C   0  0  2  0  0  0  0  0  0  0  0  0
    6.6844  -13.6689   20.5312 C   0  0  0  0  0  0  0  0  0  0  0  0
    9.1823  -13.7006   20.7749 C   0  0  0  0  0  0  0  0  0  0  0  0
    9.1351  -15.0224   21.4958 C   0  0  2  0  0  0  0  0  0  0  0  0
    7.8042  -15.5738   21.3657 N   0  0  0  0  0  0  0  0  0  0  0  0
    9.5135  -14.9484   22.9007 C   0  0  0  0  0  0  0  0  0  0  0  0
   10.6280  -14.4628   23.2039 O   0  0  0  0  0  0  0  0  0  0  0  0
    8.7027  -15.3928   23.9828 N   0  0  0  0  0  0  0  0  0  0  0  0
    9.0566  -15.3530   25.3587 C   0  0  1  0  0  0  0  0  0  0  0  0
    7.8994  -15.2141   26.3030 C   0  0  0  0  0  0  0  0  0  0  0  0
    7.4339  -13.8171   26.3628 C   0  0  0  0  0  0  0  0  0  0  0  0
    8.2873  -12.7780   26.6272 C   0  0  0  0  0  0  0  0  0  0  0  0
    7.8316  -11.4653   26.6806 C   0  0  0  0  0  0  0  0  0  0  0  0
    6.5064  -11.2124   26.4644 C   0  0  0  0  0  0  0  0  0  0  0  0
    5.6214  -12.2347   26.1960 C   0  0  0  0  0  0  0  0  0  0  0  0
    6.1090  -13.5458   26.1486 C   0  0  0  0  0  0  0  0  0  0  0  0
    9.7956  -16.5887   25.7215 C   0  0  0  0  0  0  0  0  0  0  0  0
   10.1865  -16.7803   26.9043 O   0  0  0  0  0  0  0  0  0  0  0  0
   11.5188  -21.7710   23.2223 N   0  0  0  0  0  0  0  0  0  0  0  0
   11.0382  -21.1580   24.4293 C   0  0  0  0  0  0  0  0  0  0  0  0
   11.2360  -21.7028   25.5296 O   0  0  0  0  0  0  0  0  0  0  0  0
   10.3265  -19.8981   24.2941 C   0  0  0  0  0  0  0  0  0  0  0  0
   10.8981  -18.7964   25.1138 C   0  0  2  0  0  0  0  0  0  0  0  0
   10.0914  -17.5927   24.7744 N   0  0  0  0  0  0  0  0  0  0  0  0
   12.3249  -18.4914   24.8447 C   0  0  0  0  0  0  0  0  0  0  0  0
   13.2800  -19.3732   25.3620 O   0  0  0  0  0  0  0  0  0  0  0  0
   12.7040  -17.5059   24.1923 O   0  0  0  0  0  0  0  0  0  0  0  0
  2  1  1  6
  3  2  1  0
  4  2  1  0
  5  4  1  0
  5  6  1  1
  7  8  2  0
  7  5  1  0
  9  7  1  0
 10  9  1  0
 10 11  1  1
 11 12  1  0
 12 17  2  0
 12 13  1  0
 13 14  2  0
 14 15  1  0
 16 15  2  0
 17 16  1  0
 18 10  1  0
 19 18  2  0
 21 22  2  0
 21 20  1  0
 23 21  1  0
 24 23  1  6
 24 25  1  0
 25 18  1  0
 26 24  1  0
 27 26  1  0
 28 26  2  0
M  END
$$$$
