LFL.pdb
     RDKit          3D

 28 28  0  0  1  0  0  0  0  0999 V2000
   28.5055  -16.8874  -18.1202 C   0  0  0  0  0  0  0  0  0  0  0  0
   28.5093  -18.1469  -17.2875 C   0  0  1  0  0  0  0  0  0  0  0  0
   29.8063  -18.8927  -17.4095 C   0  0  0  0  0  0  0  0  0  0  0  0
   28.0658  -17.9024  -15.8748 C   0  0  0  0  0  0  0  0  0  0  0  0
   28.2221  -19.1314  -15.0055 C   0  0  2  0  0  0  0  0  0  0  0  0
   28.0344  -20.3669  -15.6979 N   0  0  0  0  0  0  0  0  0  0  0  0
   27.2623  -19.0502  -13.8802 C   0  0  0  0  0  0  0  0  0  0  0  0
   27.1173  -17.9737  -13.2614 O   0  0  0  0  0  0  0  0  0  0  0  0
   26.4860  -20.1583  -13.4650 N   0  0  0  0  0  0  0  0  0  0  0  0
   25.4205  -20.0835  -12.4867 C   0  0  1  0  0  0  0  0  0  0  0  0
   24.2079  -20.7474  -13.0770 C   0  0  0  0  0  0  0  0  0  0  0  0
   23.0232  -20.6321  -12.2000 C   0  0  0  0  0  0  0  0  0  0  0  0
   22.2932  -19.4661  -12.0658 C   0  0  0  0  0  0  0  0  0  0  0  0
   21.1982  -19.4227  -11.2324 C   0  0  0  0  0  0  0  0  0  0  0  0
   20.8150  -20.5334  -10.5231 C   0  0  0  0  0  0  0  0  0  0  0  0
   21.5398  -21.6902  -10.6562 C   0  0  0  0  0  0  0  0  0  0  0  0
   22.6368  -21.7463  -11.4871 C   0  0  0  0  0  0  0  0  0  0  0  0
   25.8175  -20.7361  -11.1943 C   0  0  0  0  0  0  0  0  0  0  0  0
   26.4133  -21.8420  -11.1709 O   0  0  0  0  0  0  0  0  0  0  0  0
   28.5665  -18.8111   -6.9710 C   0  0  0  0  0  0  0  0  0  0  0  0
   27.8675  -19.7702   -7.8851 C   0  0  1  0  0  0  0  0  0  0  0  0
   28.5553  -21.1147   -7.7428 C   0  0  0  0  0  0  0  0  0  0  0  0
   26.4094  -19.8260   -7.8542 C   0  0  0  0  0  0  0  0  0  0  0  0
   25.6209  -20.7321   -8.6870 C   0  0  2  0  0  0  0  0  0  0  0  0
   25.4961  -20.0591  -10.0055 N   0  0  0  0  0  0  0  0  0  0  0  0
   24.3460  -21.2444   -8.2409 C   0  0  0  0  0  0  0  0  0  0  0  0
   24.2376  -22.0693   -7.2514 O   0  0  0  0  0  0  0  0  0  0  0  0
   23.1101  -20.9328   -8.7844 O   0  0  0  0  0  0  0  0  0  0  0  0
  2  3  1  1
  2  1  1  0
  4  2  1  0
  5  4  1  0
  5  6  1  6
  7  8  2  0
  7  5  1  0
  9  7  1  0
 10  9  1  0
 11 12  1  0
 10 11  1  6
 12 17  2  0
 12 13  1  0
 13 14  2  0
 14 15  1  0
 16 15  2  0
 17 16  1  0
 18 10  1  0
 18 19  2  0
 21 23  1  0
 21 20  1  1
 22 21  1  0
 24 25  1  0
 24 23  1  1
 25 18  1  0
 26 24  1  0
 27 26  2  0
 28 26  1  0
M  END
$$$$
