LFL.pdb
     RDKit          3D

 28 28  0  0  1  0  0  0  0  0999 V2000
   26.4480  -21.9259  -15.7989 C   0  0  0  0  0  0  0  0  0  0  0  0
   25.6850  -21.1399  -14.7597 C   0  0  1  0  0  0  0  0  0  0  0  0
   24.2069  -21.1576  -15.0207 C   0  0  0  0  0  0  0  0  0  0  0  0
   26.0712  -21.5147  -13.3588 C   0  0  0  0  0  0  0  0  0  0  0  0
   25.3735  -20.6578  -12.3246 C   0  0  2  0  0  0  0  0  0  0  0  0
   25.4077  -19.2571  -12.6041 N   0  0  0  0  0  0  0  0  0  0  0  0
   25.9869  -20.9076  -10.9995 C   0  0  0  0  0  0  0  0  0  0  0  0
   26.5262  -22.0097  -10.7605 O   0  0  0  0  0  0  0  0  0  0  0  0
   25.9901  -19.9357   -9.9708 N   0  0  0  0  0  0  0  0  0  0  0  0
   26.5754  -20.1397   -8.6617 C   0  0  1  0  0  0  0  0  0  0  0  0
   27.1386  -18.8244   -8.2006 C   0  0  0  0  0  0  0  0  0  0  0  0
   27.8621  -18.9438   -6.9169 C   0  0  0  0  0  0  0  0  0  0  0  0
   29.1027  -19.5420   -6.8016 C   0  0  0  0  0  0  0  0  0  0  0  0
   29.7258  -19.6217   -5.5765 C   0  0  0  0  0  0  0  0  0  0  0  0
   29.1265  -19.1101   -4.4528 C   0  0  0  0  0  0  0  0  0  0  0  0
   27.8952  -18.5169   -4.5674 C   0  0  0  0  0  0  0  0  0  0  0  0
   27.2620  -18.4306   -5.7875 C   0  0  0  0  0  0  0  0  0  0  0  0
   25.5630  -20.6650   -7.6856 C   0  0  0  0  0  0  0  0  0  0  0  0
   24.3602  -20.3041   -7.7261 O   0  0  0  0  0  0  0  0  0  0  0  0
   23.9418  -25.1251   -5.0784 C   0  0  0  0  0  0  0  0  0  0  0  0
   25.0960  -24.4099   -4.4456 C   0  0  1  0  0  0  0  0  0  0  0  0
   26.0236  -25.4648   -3.8731 C   0  0  0  0  0  0  0  0  0  0  0  0
   25.7650  -23.3577   -5.2042 C   0  0  0  0  0  0  0  0  0  0  0  0
   25.0703  -22.1932   -5.7498 C   0  0  2  0  0  0  0  0  0  0  0  0
   26.0142  -21.5809   -6.7199 N   0  0  0  0  0  0  0  0  0  0  0  0
   24.4894  -21.1919   -4.8855 C   0  0  0  0  0  0  0  0  0  0  0  0
   25.1818  -20.2222   -4.3840 O   0  0  0  0  0  0  0  0  0  0  0  0
   23.1622  -21.1289   -4.4928 O   0  0  0  0  0  0  0  0  0  0  0  0
  2  3  1  1
  2  1  1  0
  4  2  1  0
  5  4  1  0
  5  6  1  6
  7  8  2  0
  7  5  1  0
  9  7  1  0
 10  9  1  0
 11 12  1  0
 10 11  1  1
 12 17  2  0
 12 13  1  0
 13 14  2  0
 14 15  1  0
 16 15  2  0
 17 16  1  0
 18 10  1  0
 18 19  2  0
 21 23  1  0
 21 20  1  6
 22 21  1  0
 24 25  1  0
 24 23  1  1
 25 18  1  0
 26 24  1  0
 27 26  2  0
 28 26  1  0
M  END
$$$$
