LFL.pdb
     RDKit          3D

 28 28  0  0  1  0  0  0  0  0999 V2000
   25.6045  -21.3965  -20.4826 C   0  0  0  0  0  0  0  0  0  0  0  0
   26.6320  -21.6526  -19.4063 C   0  0  1  0  0  0  0  0  0  0  0  0
   27.6332  -20.5380  -19.3140 C   0  0  0  0  0  0  0  0  0  0  0  0
   26.0079  -22.0348  -18.0961 C   0  0  0  0  0  0  0  0  0  0  0  0
   27.0374  -22.2028  -16.9996 C   0  0  2  0  0  0  0  0  0  0  0  0
   27.8853  -23.3413  -17.1609 N   0  0  0  0  0  0  0  0  0  0  0  0
   26.3411  -22.2920  -15.6952 C   0  0  0  0  0  0  0  0  0  0  0  0
   25.5550  -23.2380  -15.4720 O   0  0  0  0  0  0  0  0  0  0  0  0
   26.5288  -21.3355  -14.6691 N   0  0  0  0  0  0  0  0  0  0  0  0
   25.7983  -21.3310  -13.4185 C   0  0  1  0  0  0  0  0  0  0  0  0
   26.5947  -20.5325  -12.4245 C   0  0  0  0  0  0  0  0  0  0  0  0
   26.0234  -20.6029  -11.0628 C   0  0  0  0  0  0  0  0  0  0  0  0
   26.3091  -21.6233  -10.1754 C   0  0  0  0  0  0  0  0  0  0  0  0
   25.7449  -21.6319   -8.9196 C   0  0  0  0  0  0  0  0  0  0  0  0
   24.8916  -20.6303   -8.5297 C   0  0  0  0  0  0  0  0  0  0  0  0
   24.6079  -19.6180   -9.4107 C   0  0  0  0  0  0  0  0  0  0  0  0
   25.1664  -19.5979  -10.6694 C   0  0  0  0  0  0  0  0  0  0  0  0
   24.4213  -20.7585  -13.5911 C   0  0  0  0  0  0  0  0  0  0  0  0
   24.2376  -19.6325  -14.1175 O   0  0  0  0  0  0  0  0  0  0  0  0
   20.9410  -23.1978  -16.2915 C   0  0  0  0  0  0  0  0  0  0  0  0
   21.5300  -22.0481  -15.5330 C   0  0  1  0  0  0  0  0  0  0  0  0
   21.2672  -20.7909  -16.3399 C   0  0  0  0  0  0  0  0  0  0  0  0
   21.2370  -21.9295  -14.1081 C   0  0  0  0  0  0  0  0  0  0  0  0
   21.9485  -21.0189  -13.2133 C   0  0  2  0  0  0  0  0  0  0  0  0
   23.3399  -21.5342  -13.1398 N   0  0  0  0  0  0  0  0  0  0  0  0
   21.4385  -20.7068  -11.8982 C   0  0  0  0  0  0  0  0  0  0  0  0
   21.8247  -21.3361  -10.8371 O   0  0  0  0  0  0  0  0  0  0  0  0
   20.5063  -19.7261  -11.6001 O   0  0  0  0  0  0  0  0  0  0  0  0
  2  3  1  1
  2  1  1  0
  4  2  1  0
  5  4  1  0
  5  6  1  6
  7  8  2  0
  7  5  1  0
  9  7  1  0
 10  9  1  0
 11 12  1  0
 10 11  1  1
 12 17  2  0
 12 13  1  0
 13 14  2  0
 14 15  1  0
 16 15  2  0
 17 16  1  0
 18 10  1  0
 18 19  2  0
 21 23  1  0
 21 20  1  6
 22 21  1  0
 24 25  1  0
 24 23  1  1
 25 18  1  0
 26 24  1  0
 27 26  2  0
 28 26  1  0
M  END
$$$$
