LFL.pdb
     RDKit          3D

 28 28  0  0  1  0  0  0  0  0999 V2000
   25.8386  -24.1308    9.6659 C   0  0  0  0  0  0  0  0  0  0  0  0
   26.3782  -23.2487   10.7661 C   0  0  1  0  0  0  0  0  0  0  0  0
   26.8199  -24.0488   11.9570 C   0  0  0  0  0  0  0  0  0  0  0  0
   27.3975  -22.2669   10.2668 C   0  0  0  0  0  0  0  0  0  0  0  0
   27.9018  -21.3572   11.3662 C   0  0  2  0  0  0  0  0  0  0  0  0
   27.0036  -20.3012   11.7116 N   0  0  0  0  0  0  0  0  0  0  0  0
   29.2017  -20.7788   10.9539 C   0  0  0  0  0  0  0  0  0  0  0  0
   29.2289  -19.7725   10.2128 O   0  0  0  0  0  0  0  0  0  0  0  0
   30.4397  -21.3247   11.3691 N   0  0  0  0  0  0  0  0  0  0  0  0
   31.7316  -20.7936   10.9860 C   0  0  1  0  0  0  0  0  0  0  0  0
   32.5123  -20.5332   12.2439 C   0  0  0  0  0  0  0  0  0  0  0  0
   33.8798  -20.0462   11.9640 C   0  0  0  0  0  0  0  0  0  0  0  0
   34.9820  -20.8785   11.9105 C   0  0  0  0  0  0  0  0  0  0  0  0
   36.2308  -20.3634   11.6445 C   0  0  0  0  0  0  0  0  0  0  0  0
   36.4010  -19.0187   11.4293 C   0  0  0  0  0  0  0  0  0  0  0  0
   35.3071  -18.1929   11.4829 C   0  0  0  0  0  0  0  0  0  0  0  0
   34.0527  -18.6963   11.7475 C   0  0  0  0  0  0  0  0  0  0  0  0
   32.4660  -21.7403   10.0814 C   0  0  0  0  0  0  0  0  0  0  0  0
   32.4605  -22.9806   10.2822 O   0  0  0  0  0  0  0  0  0  0  0  0
   32.7596  -20.3746    4.6715 C   0  0  0  0  0  0  0  0  0  0  0  0
   32.7189  -21.2931    5.8543 C   0  0  1  0  0  0  0  0  0  0  0  0
   32.2784  -22.6559    5.3546 C   0  0  0  0  0  0  0  0  0  0  0  0
   33.8646  -21.3171    6.7581 C   0  0  0  0  0  0  0  0  0  0  0  0
   33.8768  -22.0501    8.0226 C   0  0  2  0  0  0  0  0  0  0  0  0
   33.1630  -21.1836    8.9956 N   0  0  0  0  0  0  0  0  0  0  0  0
   35.1066  -22.5599    8.5835 C   0  0  0  0  0  0  0  0  0  0  0  0
   35.7409  -23.5619    8.0688 O   0  0  0  0  0  0  0  0  0  0  0  0
   35.7560  -22.0642    9.7027 O   0  0  0  0  0  0  0  0  0  0  0  0
  2  3  1  1
  2  1  1  0
  4  2  1  0
  5  4  1  0
  5  6  1  6
  7  8  2  0
  7  5  1  0
  9  7  1  0
 10  9  1  0
 11 12  1  0
 10 11  1  1
 12 17  2  0
 12 13  1  0
 13 14  2  0
 14 15  1  0
 16 15  2  0
 17 16  1  0
 18 10  1  0
 18 19  2  0
 21 23  1  0
 21 20  1  6
 22 21  1  0
 24 25  1  0
 24 23  1  6
 25 18  1  0
 26 24  1  0
 27 26  2  0
 28 26  1  0
M  END
$$$$
