LFL.pdb
     RDKit          3D

 28 28  0  0  1  0  0  0  0  0999 V2000
   22.5565  -19.5198  -14.1475 C   0  0  0  0  0  0  0  0  0  0  0  0
   23.8757  -19.7751  -14.8362 C   0  0  1  0  0  0  0  0  0  0  0  0
   24.4931  -18.5061  -15.3477 C   0  0  0  0  0  0  0  0  0  0  0  0
   24.7985  -20.6246  -14.0121 C   0  0  0  0  0  0  0  0  0  0  0  0
   25.0365  -20.0413  -12.6360 C   0  0  2  0  0  0  0  0  0  0  0  0
   25.4466  -18.6728  -12.6421 N   0  0  0  0  0  0  0  0  0  0  0  0
   26.0588  -20.8554  -11.9385 C   0  0  0  0  0  0  0  0  0  0  0  0
   25.9503  -22.1004  -11.9094 O   0  0  0  0  0  0  0  0  0  0  0  0
   27.1756  -20.2762  -11.2901 N   0  0  0  0  0  0  0  0  0  0  0  0
   28.1775  -21.0316  -10.5667 C   0  0  1  0  0  0  0  0  0  0  0  0
   29.4539  -20.2379  -10.5864 C   0  0  0  0  0  0  0  0  0  0  0  0
   30.5349  -20.8957   -9.8219 C   0  0  0  0  0  0  0  0  0  0  0  0
   31.2178  -22.0059  -10.2818 C   0  0  0  0  0  0  0  0  0  0  0  0
   32.2160  -22.5730   -9.5220 C   0  0  0  0  0  0  0  0  0  0  0  0
   32.5480  -22.0468   -8.2987 C   0  0  0  0  0  0  0  0  0  0  0  0
   31.8698  -20.9454   -7.8423 C   0  0  0  0  0  0  0  0  0  0  0  0
   30.8697  -20.3688   -8.5933 C   0  0  0  0  0  0  0  0  0  0  0  0
   27.7393  -21.3138   -9.1588 C   0  0  0  0  0  0  0  0  0  0  0  0
   28.2162  -22.2717   -8.5002 O   0  0  0  0  0  0  0  0  0  0  0  0
   28.7148  -18.5069   -5.1551 C   0  0  0  0  0  0  0  0  0  0  0  0
   28.2169  -19.6577   -5.9747 C   0  0  1  0  0  0  0  0  0  0  0  0
   28.6761  -20.9321   -5.2920 C   0  0  0  0  0  0  0  0  0  0  0  0
   26.8192  -19.6616   -6.3947 C   0  0  0  0  0  0  0  0  0  0  0  0
   26.2352  -20.7027   -7.2380 C   0  0  2  0  0  0  0  0  0  0  0  0
   26.7706  -20.4612   -8.6026 N   0  0  0  0  0  0  0  0  0  0  0  0
   24.8091  -20.9308   -7.2709 C   0  0  0  0  0  0  0  0  0  0  0  0
   24.1502  -21.3534   -6.2421 O   0  0  0  0  0  0  0  0  0  0  0  0
   23.9795  -20.7316   -8.3627 O   0  0  0  0  0  0  0  0  0  0  0  0
  2  3  1  1
  2  1  1  0
  4  2  1  0
  5  4  1  0
  5  6  1  6
  7  8  2  0
  7  5  1  0
  9  7  1  0
 10  9  1  0
 11 12  1  0
 10 11  1  1
 12 17  2  0
 12 13  1  0
 13 14  2  0
 14 15  1  0
 16 15  2  0
 17 16  1  0
 18 10  1  0
 18 19  2  0
 21 23  1  0
 21 20  1  1
 22 21  1  0
 24 25  1  0
 24 23  1  1
 25 18  1  0
 26 24  1  0
 27 26  2  0
 28 26  1  0
M  END
$$$$
