LFL.pdb
     RDKit          3D

 28 28  0  0  1  0  0  0  0  0999 V2000
   22.3014  -16.1691  -20.7363 C   0  0  0  0  0  0  0  0  0  0  0  0
   21.8769  -17.5207  -20.2140 C   0  0  1  0  0  0  0  0  0  0  0  0
   21.1684  -18.3272  -21.2632 C   0  0  0  0  0  0  0  0  0  0  0  0
   22.9950  -18.2468  -19.5248 C   0  0  0  0  0  0  0  0  0  0  0  0
   23.6193  -17.4201  -18.4214 C   0  0  2  0  0  0  0  0  0  0  0  0
   24.5477  -16.4357  -18.8800 N   0  0  0  0  0  0  0  0  0  0  0  0
   24.2986  -18.3263  -17.4667 C   0  0  0  0  0  0  0  0  0  0  0  0
   24.9637  -19.2952  -17.8929 O   0  0  0  0  0  0  0  0  0  0  0  0
   24.2277  -18.1416  -16.0653 N   0  0  0  0  0  0  0  0  0  0  0  0
   24.9452  -18.9503  -15.1014 C   0  0  1  0  0  0  0  0  0  0  0  0
   25.8631  -18.0417  -14.3325 C   0  0  0  0  0  0  0  0  0  0  0  0
   26.8428  -17.3637  -15.2078 C   0  0  0  0  0  0  0  0  0  0  0  0
   27.9485  -18.0002  -15.7394 C   0  0  0  0  0  0  0  0  0  0  0  0
   28.8248  -17.3131  -16.5491 C   0  0  0  0  0  0  0  0  0  0  0  0
   28.6153  -15.9885  -16.8404 C   0  0  0  0  0  0  0  0  0  0  0  0
   27.5182  -15.3569  -16.3125 C   0  0  0  0  0  0  0  0  0  0  0  0
   26.6341  -16.0335  -15.5016 C   0  0  0  0  0  0  0  0  0  0  0  0
   24.0024  -19.6696  -14.1808 C   0  0  0  0  0  0  0  0  0  0  0  0
   24.4128  -20.2723  -13.1576 O   0  0  0  0  0  0  0  0  0  0  0  0
   20.4112  -20.8717  -10.7143 C   0  0  0  0  0  0  0  0  0  0  0  0
   20.0700  -19.8668  -11.7716 C   0  0  1  0  0  0  0  0  0  0  0  0
   19.3987  -18.6942  -11.0821 C   0  0  0  0  0  0  0  0  0  0  0  0
   21.0977  -19.4970  -12.7396 C   0  0  0  0  0  0  0  0  0  0  0  0
   21.6480  -20.4268  -13.7239 C   0  0  2  0  0  0  0  0  0  0  0  0
   22.6361  -19.6425  -14.5085 N   0  0  0  0  0  0  0  0  0  0  0  0
   20.7881  -21.1980  -14.5916 C   0  0  0  0  0  0  0  0  0  0  0  0
   20.1781  -22.2658  -14.1930 O   0  0  0  0  0  0  0  0  0  0  0  0
   20.5032  -20.9111  -15.9168 O   0  0  0  0  0  0  0  0  0  0  0  0
  2  3  1  6
  2  1  1  0
  4  2  1  0
  5  4  1  0
  5  6  1  6
  7  8  2  0
  7  5  1  0
  9  7  1  0
 10  9  1  0
 11 12  1  0
 10 11  1  1
 12 17  2  0
 12 13  1  0
 13 14  2  0
 14 15  1  0
 16 15  2  0
 17 16  1  0
 18 10  1  0
 18 19  2  0
 21 23  1  0
 21 20  1  1
 22 21  1  0
 24 25  1  0
 24 23  1  6
 25 18  1  0
 26 24  1  0
 27 26  2  0
 28 26  1  0
M  END
$$$$
