LFL.pdb
     RDKit          3D

 28 28  0  0  1  0  0  0  0  0999 V2000
9133637.0000-1575976.00006344252.5000 C   0  0  0  0  0  0  0  0  0  0  0  0
9133632.0000-1575977.87506344250.0000 C   0  0  2  0  0  0  0  0  0  0  0  0
9133636.0000-1575977.62506344249.0000 C   0  0  0  0  0  0  0  0  0  0  0  0
9133632.0000-1575976.00006344250.0000 C   0  0  0  0  0  0  0  0  0  0  0  0
9133633.0000-1575974.00006344250.5000 C   0  0  2  0  0  0  0  0  0  0  0  0
9133630.0000-1575975.37506344250.5000 N   0  0  0  0  0  0  0  0  0  0  0  0
9133633.0000-1575972.37506344251.0000 C   0  0  0  0  0  0  0  0  0  0  0  0
9133635.0000-1575972.37506344249.5000 O   0  0  0  0  0  0  0  0  0  0  0  0
9133635.0000-1575973.37506344250.5000 N   0  0  0  0  0  0  0  0  0  0  0  0
9133637.0000-1575974.12506344248.5000 C   0  0  2  0  0  0  0  0  0  0  0  0
9133638.0000-1575973.37506344248.5000 C   0  0  0  0  0  0  0  0  0  0  0  0
9133639.0000-1575973.00006344251.0000 C   0  0  0  0  0  0  0  0  0  0  0  0
9133635.0000-1575970.50006344252.5000 C   0  0  0  0  0  0  0  0  0  0  0  0
9133637.0000-1575970.37506344252.5000 C   0  0  0  0  0  0  0  0  0  0  0  0
9133636.0000-1575971.37506344252.5000 C   0  0  0  0  0  0  0  0  0  0  0  0
9133638.0000-1575972.12506344252.5000 C   0  0  0  0  0  0  0  0  0  0  0  0
9133637.0000-1575974.12506344252.0000 C   0  0  0  0  0  0  0  0  0  0  0  0
9133636.0000-1575973.62506344248.5000 C   0  0  0  0  0  0  0  0  0  0  0  0
9133632.0000-1575974.25006344248.5000 O   0  0  0  0  0  0  0  0  0  0  0  0
9133638.0000-1575971.75006344247.0000 C   0  0  0  0  0  0  0  0  0  0  0  0
9133638.0000-1575969.25006344245.5000 C   0  0  1  0  0  0  0  0  0  0  0  0
9133636.0000-1575971.00006344246.0000 C   0  0  0  0  0  0  0  0  0  0  0  0
9133637.0000-1575970.62506344247.0000 C   0  0  0  0  0  0  0  0  0  0  0  0
9133638.0000-1575973.00006344244.5000 C   0  0  2  0  0  0  0  0  0  0  0  0
9133635.0000-1575972.75006344248.0000 N   0  0  0  0  0  0  0  0  0  0  0  0
9133639.0000-1575973.37506344246.0000 C   0  0  0  0  0  0  0  0  0  0  0  0
9133639.0000-1575972.12506344245.5000 O   0  0  0  0  0  0  0  0  0  0  0  0
9133639.0000-1575972.50006344244.0000 O   0  0  0  0  0  0  0  0  0  0  0  0
  2  3  1  1
  2  1  1  0
  4  2  1  0
  5  4  1  0
  5  6  1  1
  7  8  2  0
  7  5  1  0
  9  7  1  0
 10  9  1  0
 11 12  1  0
 10 11  1  6
 12 17  2  0
 12 13  1  0
 13 14  2  0
 14 15  1  0
 16 15  2  0
 17 16  1  0
 18 10  1  0
 18 19  2  0
 21 23  1  0
 21 20  1  6
 22 21  1  0
 24 25  1  0
 24 23  1  1
 25 18  1  0
 26 24  1  0
 27 26  2  0
 28 26  1  0
M  END
$$$$
