LFL.pdb
     RDKit          3D

 28 28  0  0  1  0  0  0  0  0999 V2000
   19.3142  -23.4495  -13.4380 C   0  0  0  0  0  0  0  0  0  0  0  0
   20.1701  -22.2354  -13.7083 C   0  0  1  0  0  0  0  0  0  0  0  0
   19.3390  -21.0061  -13.9357 C   0  0  0  0  0  0  0  0  0  0  0  0
   21.2624  -22.0655  -12.6933 C   0  0  0  0  0  0  0  0  0  0  0  0
   22.3693  -21.1610  -13.1904 C   0  0  2  0  0  0  0  0  0  0  0  0
   22.6177  -21.2554  -14.5941 N   0  0  0  0  0  0  0  0  0  0  0  0
   23.6144  -21.4732  -12.4510 C   0  0  0  0  0  0  0  0  0  0  0  0
   23.7312  -22.5699  -11.8625 O   0  0  0  0  0  0  0  0  0  0  0  0
   24.7000  -20.5680  -12.3789 N   0  0  0  0  0  0  0  0  0  0  0  0
   25.9240  -20.8233  -11.6479 C   0  0  1  0  0  0  0  0  0  0  0  0
   27.0752  -20.4095  -12.5214 C   0  0  0  0  0  0  0  0  0  0  0  0
   28.3833  -20.6500  -11.8758 C   0  0  0  0  0  0  0  0  0  0  0  0
   28.8581  -21.9135  -11.5784 C   0  0  0  0  0  0  0  0  0  0  0  0
   30.0862  -22.0716  -10.9764 C   0  0  0  0  0  0  0  0  0  0  0  0
   30.8565  -20.9801  -10.6624 C   0  0  0  0  0  0  0  0  0  0  0  0
   30.3849  -19.7263  -10.9572 C   0  0  0  0  0  0  0  0  0  0  0  0
   29.1583  -19.5552  -11.5598 C   0  0  0  0  0  0  0  0  0  0  0  0
   25.9453  -20.0844  -10.3412 C   0  0  0  0  0  0  0  0  0  0  0  0
   25.3670  -18.9778  -10.2011 O   0  0  0  0  0  0  0  0  0  0  0  0
   27.5088  -22.4320   -5.0613 C   0  0  0  0  0  0  0  0  0  0  0  0
   26.7999  -21.4224   -5.9111 C   0  0  1  0  0  0  0  0  0  0  0  0
   26.2463  -20.3579   -4.9831 C   0  0  0  0  0  0  0  0  0  0  0  0
   27.4810  -20.9049   -7.0936 C   0  0  0  0  0  0  0  0  0  0  0  0
   26.8793  -19.9388   -8.0106 C   0  0  2  0  0  0  0  0  0  0  0  0
   26.6399  -20.6809   -9.2751 N   0  0  0  0  0  0  0  0  0  0  0  0
   27.4992  -18.6594   -8.2669 C   0  0  0  0  0  0  0  0  0  0  0  0
   28.3216  -18.4708   -9.2464 O   0  0  0  0  0  0  0  0  0  0  0  0
   27.3039  -17.5004   -7.5331 O   0  0  0  0  0  0  0  0  0  0  0  0
  2  3  1  1
  2  1  1  0
  4  2  1  0
  5  4  1  0
  5  6  1  6
  7  8  2  0
  7  5  1  0
  9  7  1  0
 10  9  1  0
 11 12  1  0
 10 11  1  6
 12 17  2  0
 12 13  1  0
 13 14  2  0
 14 15  1  0
 16 15  2  0
 17 16  1  0
 18 10  1  0
 18 19  2  0
 21 23  1  0
 21 20  1  1
 22 21  1  0
 24 25  1  0
 24 23  1  1
 25 18  1  0
 26 24  1  0
 27 26  2  0
 28 26  1  0
M  END
$$$$
