LFL.pdb
     RDKit          3D

 28 28  0  0  1  0  0  0  0  0999 V2000
   25.4749  -19.8035  -14.9829 C   0  0  0  0  0  0  0  0  0  0  0  0
   26.3196  -19.4903  -13.7713 C   0  0  1  0  0  0  0  0  0  0  0  0
   27.4401  -18.5472  -14.1007 C   0  0  0  0  0  0  0  0  0  0  0  0
   25.4943  -19.0818  -12.5863 C   0  0  0  0  0  0  0  0  0  0  0  0
   25.4661  -20.1492  -11.5137 C   0  0  2  0  0  0  0  0  0  0  0  0
   24.1526  -20.5576  -11.1274 N   0  0  0  0  0  0  0  0  0  0  0  0
   26.1948  -19.6542  -10.3228 C   0  0  0  0  0  0  0  0  0  0  0  0
   26.5904  -18.4691  -10.2825 O   0  0  0  0  0  0  0  0  0  0  0  0
   26.4694  -20.4786   -9.2057 N   0  0  0  0  0  0  0  0  0  0  0  0
   27.1859  -20.0378   -8.0266 C   0  0  1  0  0  0  0  0  0  0  0  0
   26.1705  -19.7165   -6.9658 C   0  0  0  0  0  0  0  0  0  0  0  0
   26.8004  -19.2917   -5.6975 C   0  0  0  0  0  0  0  0  0  0  0  0
   27.5810  -18.1567   -5.5848 C   0  0  0  0  0  0  0  0  0  0  0  0
   28.1401  -17.8140   -4.3742 C   0  0  0  0  0  0  0  0  0  0  0  0
   27.9323  -18.5920   -3.2630 C   0  0  0  0  0  0  0  0  0  0  0  0
   27.1579  -19.7185   -3.3752 C   0  0  0  0  0  0  0  0  0  0  0  0
   26.5927  -20.0716   -4.5805 C   0  0  0  0  0  0  0  0  0  0  0  0
   28.1515  -21.0839   -7.5502 C   0  0  0  0  0  0  0  0  0  0  0  0
   27.7697  -22.2403   -7.2406 O   0  0  0  0  0  0  0  0  0  0  0  0
   33.0936  -21.8589   -9.6239 C   0  0  0  0  0  0  0  0  0  0  0  0
   31.7790  -21.9567   -8.9122 C   0  0  1  0  0  0  0  0  0  0  0  0
   31.2194  -23.3404   -9.1828 C   0  0  0  0  0  0  0  0  0  0  0  0
   31.7081  -21.5333   -7.5173 C   0  0  0  0  0  0  0  0  0  0  0  0
   30.4786  -21.5667   -6.7276 C   0  0  2  0  0  0  0  0  0  0  0  0
   29.5058  -20.7189   -7.4637 N   0  0  0  0  0  0  0  0  0  0  0  0
   30.4824  -21.2512   -5.3179 C   0  0  0  0  0  0  0  0  0  0  0  0
   30.2611  -20.0575   -4.8736 O   0  0  0  0  0  0  0  0  0  0  0  0
   30.7088  -22.1472   -4.2856 O   0  0  0  0  0  0  0  0  0  0  0  0
  2  3  1  6
  2  1  1  0
  4  2  1  0
  5  4  1  0
  5  6  1  1
  7  8  2  0
  7  5  1  0
  9  7  1  0
 10  9  1  0
 11 12  1  0
 10 11  1  1
 12 17  2  0
 12 13  1  0
 13 14  2  0
 14 15  1  0
 16 15  2  0
 17 16  1  0
 18 10  1  0
 18 19  2  0
 21 23  1  0
 21 20  1  1
 22 21  1  0
 24 25  1  0
 24 23  1  6
 25 18  1  0
 26 24  1  0
 27 26  2  0
 28 26  1  0
M  END
$$$$
