LFL.pdb
     RDKit          3D

 28 28  0  0  1  0  0  0  0  0999 V2000
   26.7776  -21.5330  -21.8390 C   0  0  0  0  0  0  0  0  0  0  0  0
   26.5365  -20.4696  -20.7945 C   0  0  1  0  0  0  0  0  0  0  0  0
   25.6727  -19.3590  -21.3178 C   0  0  0  0  0  0  0  0  0  0  0  0
   26.0813  -21.0440  -19.4849 C   0  0  0  0  0  0  0  0  0  0  0  0
   25.8124  -19.9706  -18.4523 C   0  0  2  0  0  0  0  0  0  0  0  0
   26.8896  -19.0502  -18.2693 N   0  0  0  0  0  0  0  0  0  0  0  0
   25.4955  -20.6170  -17.1577 C   0  0  0  0  0  0  0  0  0  0  0  0
   25.2138  -21.8344  -17.1215 O   0  0  0  0  0  0  0  0  0  0  0  0
   25.4972  -19.9047  -15.9347 N   0  0  0  0  0  0  0  0  0  0  0  0
   25.1538  -20.4876  -14.6540 C   0  0  1  0  0  0  0  0  0  0  0  0
   26.0008  -19.8228  -13.6051 C   0  0  0  0  0  0  0  0  0  0  0  0
   25.7110  -20.3295  -12.2468 C   0  0  0  0  0  0  0  0  0  0  0  0
   24.8355  -19.7052  -11.3784 C   0  0  0  0  0  0  0  0  0  0  0  0
   24.6074  -20.2276  -10.1252 C   0  0  0  0  0  0  0  0  0  0  0  0
   25.2442  -21.3733   -9.7189 C   0  0  0  0  0  0  0  0  0  0  0  0
   26.1133  -21.9924  -10.5806 C   0  0  0  0  0  0  0  0  0  0  0  0
   26.3495  -21.4800  -11.8370 C   0  0  0  0  0  0  0  0  0  0  0  0
   23.6926  -20.3225  -14.3519 C   0  0  0  0  0  0  0  0  0  0  0  0
   23.1405  -19.1939  -14.3665 O   0  0  0  0  0  0  0  0  0  0  0  0
   18.5970  -22.0978  -15.0883 C   0  0  0  0  0  0  0  0  0  0  0  0
   19.5126  -22.9583  -14.2726 C   0  0  1  0  0  0  0  0  0  0  0  0
   19.1664  -24.4035  -14.5768 C   0  0  0  0  0  0  0  0  0  0  0  0
   20.9412  -22.6598  -14.2806 C   0  0  0  0  0  0  0  0  0  0  0  0
   21.5064  -21.4163  -13.7604 C   0  0  2  0  0  0  0  0  0  0  0  0
   22.9617  -21.4845  -14.0509 N   0  0  0  0  0  0  0  0  0  0  0  0
   21.2660  -20.9930  -12.4003 C   0  0  0  0  0  0  0  0  0  0  0  0
   21.9629  -21.4317  -11.4038 O   0  0  0  0  0  0  0  0  0  0  0  0
   20.2986  -20.0902  -11.9895 O   0  0  0  0  0  0  0  0  0  0  0  0
  2  3  1  6
  2  1  1  0
  4  2  1  0
  5  4  1  0
  5  6  1  1
  7  8  2  0
  7  5  1  0
  9  7  1  0
 10  9  1  0
 11 12  1  0
 10 11  1  1
 12 17  2  0
 12 13  1  0
 13 14  2  0
 14 15  1  0
 16 15  2  0
 17 16  1  0
 18 10  1  0
 18 19  2  0
 21 23  1  0
 21 20  1  6
 22 21  1  0
 24 25  1  0
 24 23  1  1
 25 18  1  0
 26 24  1  0
 27 26  2  0
 28 26  1  0
M  END
$$$$
