TGA.pdb
     RDKit          3D

 17 16  0  0  1  0  0  0  0  0999 V2000
   21.0535   -9.6801  -13.6098 C   0  0  0  0  0  0  0  0  0  0  0  0
   20.9026   -8.1912  -13.7770 C   0  0  1  0  0  0  0  0  0  0  0  0
   21.2872   -7.9030  -15.1072 O   0  0  0  0  0  0  0  0  0  0  0  0
   19.4644   -7.7341  -13.6535 C   0  0  2  0  0  0  0  0  0  0  0  0
   19.4374   -6.3285  -14.0139 N   0  0  0  0  0  0  0  0  0  0  0  0
   18.8993   -7.9813  -12.3147 C   0  0  0  0  0  0  0  0  0  0  0  0
   18.7288   -9.1779  -11.9690 O   0  0  0  0  0  0  0  0  0  0  0  0
   18.5363   -6.9677  -11.3941 N   0  0  0  0  0  0  0  0  0  0  0  0
   18.0770   -7.1879  -10.0675 C   0  0  0  0  0  0  0  0  0  0  0  0
   16.6740   -6.8176   -9.8388 C   0  0  0  0  0  0  0  0  0  0  0  0
   16.0560   -6.1689  -10.7189 O   0  0  0  0  0  0  0  0  0  0  0  0
   14.1104   -7.6652   -7.1863 C   0  0  0  0  0  0  0  0  0  0  0  0
   14.5513   -6.9550   -8.4734 C   0  0  2  0  0  0  0  0  0  0  0  0
   15.9802   -7.1663   -8.6513 N   0  0  0  0  0  0  0  0  0  0  0  0
   14.3216   -5.5103   -8.2521 C   0  0  0  0  0  0  0  0  0  0  0  0
   15.4102   -4.6842   -7.9956 O   0  0  0  0  0  0  0  0  0  0  0  0
   13.1839   -5.0080   -8.2878 O   0  0  0  0  0  0  0  0  0  0  0  0
  2  1  1  6
  2  3  1  0
  4  6  1  0
  4  2  1  0
  4  5  1  1
  6  7  2  0
  8  6  1  0
  8  9  1  0
 10 14  1  0
 10  9  1  0
 11 10  2  0
 13 14  1  0
 13 12  1  1
 15 13  1  0
 16 15  1  0
 17 15  2  0
M  END
$$$$
