TGA.pdb
     RDKit          3D

 17 16  0  0  1  0  0  0  0  0999 V2000
   32.1950  -12.2721  -16.8446 C   0  0  0  0  0  0  0  0  0  0  0  0
   31.4507  -11.3905  -17.8121 C   0  0  1  0  0  0  0  0  0  0  0  0
   30.0871  -11.7499  -17.7041 O   0  0  0  0  0  0  0  0  0  0  0  0
   31.5234   -9.9249  -17.4390 C   0  0  2  0  0  0  0  0  0  0  0  0
   30.5625   -9.2298  -18.2756 N   0  0  0  0  0  0  0  0  0  0  0  0
   32.8830   -9.3698  -17.5658 C   0  0  0  0  0  0  0  0  0  0  0  0
   33.5937   -9.7870  -18.5152 O   0  0  0  0  0  0  0  0  0  0  0  0
   33.4424   -8.4024  -16.6952 N   0  0  0  0  0  0  0  0  0  0  0  0
   34.7973   -7.9740  -16.7037 C   0  0  0  0  0  0  0  0  0  0  0  0
   35.4152   -7.8797  -15.3744 C   0  0  0  0  0  0  0  0  0  0  0  0
   34.7094   -8.0625  -14.3517 O   0  0  0  0  0  0  0  0  0  0  0  0
   38.9457   -7.4249  -14.0882 C   0  0  0  0  0  0  0  0  0  0  0  0
   37.4266   -7.5133  -13.8881 C   0  0  2  0  0  0  0  0  0  0  0  0
   36.7920   -7.5872  -15.1957 N   0  0  0  0  0  0  0  0  0  0  0  0
   37.0161   -6.2452  -13.2460 C   0  0  0  0  0  0  0  0  0  0  0  0
   37.1675   -6.1036  -11.8712 O   0  0  0  0  0  0  0  0  0  0  0  0
   36.5386   -5.2982  -13.8966 O   0  0  0  0  0  0  0  0  0  0  0  0
  2  1  1  1
  2  3  1  0
  4  6  1  0
  4  2  1  0
  4  5  1  6
  6  7  2  0
  8  6  1  0
  8  9  1  0
 10 14  1  0
 10  9  1  0
 11 10  2  0
 13 14  1  0
 13 12  1  6
 15 13  1  0
 16 15  1  0
 17 15  2  0
M  END
$$$$
