TGA.pdb
     RDKit          3D

 17 16  0  0  1  0  0  0  0  0999 V2000
   20.6742  -13.1948  -19.4699 C   0  0  0  0  0  0  0  0  0  0  0  0
   20.1306  -12.3236  -18.3686 C   0  0  1  0  0  0  0  0  0  0  0  0
   21.0847  -12.3657  -17.3254 O   0  0  0  0  0  0  0  0  0  0  0  0
   20.0255  -10.8688  -18.7750 C   0  0  2  0  0  0  0  0  0  0  0  0
   21.3360  -10.4704  -19.2547 N   0  0  0  0  0  0  0  0  0  0  0  0
   19.5405  -10.0045  -17.6840 C   0  0  0  0  0  0  0  0  0  0  0  0
   18.3760  -10.2085  -17.2563 O   0  0  0  0  0  0  0  0  0  0  0  0
   20.2928   -8.9637  -17.0860 N   0  0  0  0  0  0  0  0  0  0  0  0
   19.9134   -8.2371  -15.9252 C   0  0  0  0  0  0  0  0  0  0  0  0
   20.7602   -7.0737  -15.6303 C   0  0  0  0  0  0  0  0  0  0  0  0
   21.9740   -7.0969  -15.9521 O   0  0  0  0  0  0  0  0  0  0  0  0
   20.1674   -3.6343  -14.1543 C   0  0  0  0  0  0  0  0  0  0  0  0
   21.0734   -4.7364  -14.7202 C   0  0  2  0  0  0  0  0  0  0  0  0
   20.2582   -5.9115  -14.9897 N   0  0  0  0  0  0  0  0  0  0  0  0
   22.0352   -5.0767  -13.6487 C   0  0  0  0  0  0  0  0  0  0  0  0
   23.2104   -4.3424  -13.5370 O   0  0  0  0  0  0  0  0  0  0  0  0
   21.8272   -6.0007  -12.8417 O   0  0  0  0  0  0  0  0  0  0  0  0
  2  1  1  6
  2  3  1  0
  4  6  1  0
  4  2  1  0
  4  5  1  1
  6  7  2  0
  8  6  1  0
  8  9  1  0
 10 14  1  0
 10  9  1  0
 11 10  2  0
 13 14  1  0
 13 12  1  1
 15 13  1  0
 16 15  1  0
 17 15  2  0
M  END
$$$$
