TGA.pdb
     RDKit          3D

 17 16  0  0  1  0  0  0  0  0999 V2000
   19.5190  -12.2158  -19.3556 C   0  0  0  0  0  0  0  0  0  0  0  0
   19.5150  -13.1767  -18.1963 C   0  0  1  0  0  0  0  0  0  0  0  0
   20.2142  -14.3255  -18.6341 O   0  0  0  0  0  0  0  0  0  0  0  0
   20.2857  -12.6528  -17.0029 C   0  0  2  0  0  0  0  0  0  0  0  0
   20.3693  -13.7406  -16.0458 N   0  0  0  0  0  0  0  0  0  0  0  0
   19.6838  -11.4391  -16.4221 C   0  0  0  0  0  0  0  0  0  0  0  0
   18.4880  -11.5102  -16.0408 O   0  0  0  0  0  0  0  0  0  0  0  0
   20.3569  -10.2026  -16.2645 N   0  0  0  0  0  0  0  0  0  0  0  0
   19.7573   -8.9895  -15.8307 C   0  0  0  0  0  0  0  0  0  0  0  0
   20.6997   -7.8800  -15.6341 C   0  0  0  0  0  0  0  0  0  0  0  0
   21.9323   -8.0893  -15.7528 O   0  0  0  0  0  0  0  0  0  0  0  0
   20.3665   -4.1691  -14.9456 C   0  0  0  0  0  0  0  0  0  0  0  0
   21.1882   -5.4532  -15.1227 C   0  0  2  0  0  0  0  0  0  0  0  0
   20.2702   -6.5666  -15.3120 N   0  0  0  0  0  0  0  0  0  0  0  0
   21.9135   -5.6631  -13.8504 C   0  0  0  0  0  0  0  0  0  0  0  0
   23.1094   -4.9876  -13.6347 O   0  0  0  0  0  0  0  0  0  0  0  0
   21.4882   -6.4259  -12.9643 O   0  0  0  0  0  0  0  0  0  0  0  0
  2  1  1  6
  2  3  1  0
  4  6  1  0
  4  2  1  0
  4  5  1  1
  6  7  2  0
  8  6  1  0
  8  9  1  0
 10 14  1  0
 10  9  1  0
 11 10  2  0
 13 14  1  0
 13 12  1  1
 15 13  1  0
 16 15  1  0
 17 15  2  0
M  END
$$$$
