TGA.pdb
     RDKit          3D

 17 16  0  0  1  0  0  0  0  0999 V2000
   20.2215  -12.5093  -20.0298 C   0  0  0  0  0  0  0  0  0  0  0  0
   21.0131  -11.3768  -19.4313 C   0  0  1  0  0  0  0  0  0  0  0  0
   21.1170  -10.3918  -20.4409 O   0  0  0  0  0  0  0  0  0  0  0  0
   20.2956  -10.7114  -18.2759 C   0  0  2  0  0  0  0  0  0  0  0  0
   19.0185  -10.2467  -18.7854 N   0  0  0  0  0  0  0  0  0  0  0  0
   21.0833   -9.6269  -17.6626 C   0  0  0  0  0  0  0  0  0  0  0  0
   22.0986   -9.9527  -16.9965 O   0  0  0  0  0  0  0  0  0  0  0  0
   20.7768   -8.2481  -17.7712 N   0  0  0  0  0  0  0  0  0  0  0  0
   21.5869   -7.1852  -17.2881 C   0  0  0  0  0  0  0  0  0  0  0  0
   21.1014   -6.5634  -16.0490 C   0  0  0  0  0  0  0  0  0  0  0  0
   19.9776   -6.8908  -15.5938 O   0  0  0  0  0  0  0  0  0  0  0  0
   22.5649   -4.2628  -13.4366 C   0  0  0  0  0  0  0  0  0  0  0  0
   21.3754   -4.9384  -14.1323 C   0  0  2  0  0  0  0  0  0  0  0  0
   21.8581   -5.5971  -15.3370 N   0  0  0  0  0  0  0  0  0  0  0  0
   20.4563   -3.8517  -14.5362 C   0  0  0  0  0  0  0  0  0  0  0  0
   19.6511   -3.2543  -13.5730 O   0  0  0  0  0  0  0  0  0  0  0  0
   20.3792   -3.4531  -15.7124 O   0  0  0  0  0  0  0  0  0  0  0  0
  2  1  1  6
  2  3  1  0
  4  6  1  0
  4  2  1  0
  4  5  1  6
  6  7  2  0
  8  6  1  0
  8  9  1  0
 10 14  1  0
 10  9  1  0
 11 10  2  0
 13 14  1  0
 13 12  1  6
 15 13  1  0
 16 15  1  0
 17 15  2  0
M  END
$$$$
