TGA.pdb
     RDKit          3D

 17 16  0  0  1  0  0  0  0  0999 V2000
   28.1290  -28.8197  -17.7279 C   0  0  0  0  0  0  0  0  0  0  0  0
   27.0159  -27.8228  -17.9140 C   0  0  1  0  0  0  0  0  0  0  0  0
   25.8099  -28.5447  -17.7566 O   0  0  0  0  0  0  0  0  0  0  0  0
   27.0034  -26.7564  -16.8393 C   0  0  2  0  0  0  0  0  0  0  0  0
   25.7673  -26.0129  -16.9991 N   0  0  0  0  0  0  0  0  0  0  0  0
   28.1919  -25.8857  -16.8845 C   0  0  0  0  0  0  0  0  0  0  0  0
   28.1225  -24.8453  -17.5869 O   0  0  0  0  0  0  0  0  0  0  0  0
   29.4026  -26.1391  -16.1940 N   0  0  0  0  0  0  0  0  0  0  0  0
   30.5601  -25.3157  -16.2344 C   0  0  0  0  0  0  0  0  0  0  0  0
   31.3235  -25.3982  -17.4866 C   0  0  0  0  0  0  0  0  0  0  0  0
   30.9765  -26.2236  -18.3673 O   0  0  0  0  0  0  0  0  0  0  0  0
   34.1973  -23.4577  -19.0061 C   0  0  0  0  0  0  0  0  0  0  0  0
   33.2081  -24.6310  -18.9862 C   0  0  2  0  0  0  0  0  0  0  0  0
   32.4496  -24.5748  -17.7454 N   0  0  0  0  0  0  0  0  0  0  0  0
   34.0247  -25.8647  -18.9734 C   0  0  0  0  0  0  0  0  0  0  0  0
   34.4778  -26.3880  -20.1792 O   0  0  0  0  0  0  0  0  0  0  0  0
   34.3206  -26.4515  -17.9169 O   0  0  0  0  0  0  0  0  0  0  0  0
  2  1  1  1
  2  3  1  0
  4  6  1  0
  4  2  1  0
  4  5  1  6
  6  7  2  0
  8  6  1  0
  8  9  1  0
 10 14  1  0
 10  9  1  0
 11 10  2  0
 13 14  1  0
 13 12  1  1
 15 13  1  0
 16 15  1  0
 17 15  2  0
M  END
$$$$
