TGA.pdb
     RDKit          3D

 17 16  0  0  1  0  0  0  0  0999 V2000
   16.5726  -13.7756  -16.5174 C   0  0  0  0  0  0  0  0  0  0  0  0
   17.7392  -12.8510  -16.7444 C   0  0  1  0  0  0  0  0  0  0  0  0
   17.2725  -11.8319  -17.6069 O   0  0  0  0  0  0  0  0  0  0  0  0
   18.1822  -12.1504  -15.4773 C   0  0  2  0  0  0  0  0  0  0  0  0
   17.0149  -11.4763  -14.9394 N   0  0  0  0  0  0  0  0  0  0  0  0
   19.3105  -11.2281  -15.6991 C   0  0  0  0  0  0  0  0  0  0  0  0
   20.4323  -11.7348  -15.9544 O   0  0  0  0  0  0  0  0  0  0  0  0
   19.2186   -9.8155  -15.6447 N   0  0  0  0  0  0  0  0  0  0  0  0
   20.2746   -8.9110  -15.9382 C   0  0  0  0  0  0  0  0  0  0  0  0
   20.3610   -7.7595  -15.0303 C   0  0  0  0  0  0  0  0  0  0  0  0
   19.4691   -7.5901  -14.1623 O   0  0  0  0  0  0  0  0  0  0  0  0
   22.8633   -4.9747  -14.4537 C   0  0  0  0  0  0  0  0  0  0  0  0
   21.5062   -5.6545  -14.2263 C   0  0  2  0  0  0  0  0  0  0  0  0
   21.4223   -6.8200  -15.0937 N   0  0  0  0  0  0  0  0  0  0  0  0
   20.4761   -4.6833  -14.6558 C   0  0  0  0  0  0  0  0  0  0  0  0
   20.0465   -3.7122  -13.7584 O   0  0  0  0  0  0  0  0  0  0  0  0
   19.9797   -4.7062  -15.7965 O   0  0  0  0  0  0  0  0  0  0  0  0
  2  1  1  1
  2  3  1  0
  4  6  1  0
  4  2  1  0
  4  5  1  6
  6  7  2  0
  8  6  1  0
  8  9  1  0
 10 14  1  0
 10  9  1  0
 11 10  2  0
 13 14  1  0
 13 12  1  6
 15 13  1  0
 16 15  1  0
 17 15  2  0
M  END
$$$$
