TGA.pdb
     RDKit          3D

 17 16  0  0  1  0  0  0  0  0999 V2000
   16.9509  -11.8376  -18.1651 C   0  0  0  0  0  0  0  0  0  0  0  0
   17.9417  -10.8467  -17.6140 C   0  0  1  0  0  0  0  0  0  0  0  0
   17.4025  -10.3900  -16.3888 O   0  0  0  0  0  0  0  0  0  0  0  0
   19.2717  -11.4830  -17.2693 C   0  0  2  0  0  0  0  0  0  0  0  0
   18.9843  -12.6251  -16.4213 N   0  0  0  0  0  0  0  0  0  0  0  0
   20.2109  -10.5379  -16.6388 C   0  0  0  0  0  0  0  0  0  0  0  0
   20.5097  -10.7342  -15.4336 O   0  0  0  0  0  0  0  0  0  0  0  0
   20.7980   -9.4278  -17.2944 N   0  0  0  0  0  0  0  0  0  0  0  0
   21.7012   -8.5054  -16.7006 C   0  0  0  0  0  0  0  0  0  0  0  0
   21.0873   -7.5905  -15.7291 C   0  0  0  0  0  0  0  0  0  0  0  0
   19.8529   -7.6625  -15.5088 O   0  0  0  0  0  0  0  0  0  0  0  0
   22.3752   -4.9721  -13.3193 C   0  0  0  0  0  0  0  0  0  0  0  0
   21.2455   -5.6895  -14.0706 C   0  0  2  0  0  0  0  0  0  0  0  0
   21.8395   -6.6179  -15.0211 N   0  0  0  0  0  0  0  0  0  0  0  0
   20.5234   -4.6468  -14.8324 C   0  0  0  0  0  0  0  0  0  0  0  0
   19.6321   -3.8159  -14.1630 O   0  0  0  0  0  0  0  0  0  0  0  0
   20.6873   -4.4879  -16.0555 O   0  0  0  0  0  0  0  0  0  0  0  0
  2  1  1  1
  2  3  1  0
  4  6  1  0
  4  2  1  0
  4  5  1  1
  6  7  2  0
  8  6  1  0
  8  9  1  0
 10 14  1  0
 10  9  1  0
 11 10  2  0
 13 14  1  0
 13 12  1  6
 15 13  1  0
 16 15  1  0
 17 15  2  0
M  END
$$$$
