TGA.pdb
     RDKit          3D

 17 16  0  0  1  0  0  0  0  0999 V2000
   16.0240   -7.2133  -14.5249 C   0  0  0  0  0  0  0  0  0  0  0  0
   17.2225   -8.1069  -14.3443 C   0  0  1  0  0  0  0  0  0  0  0  0
   17.9323   -8.0662  -15.5670 O   0  0  0  0  0  0  0  0  0  0  0  0
   18.1808   -7.5905  -13.2919 C   0  0  2  0  0  0  0  0  0  0  0  0
   19.3800   -8.4031  -13.3801 N   0  0  0  0  0  0  0  0  0  0  0  0
   17.5984   -7.5945  -11.9378 C   0  0  0  0  0  0  0  0  0  0  0  0
   17.6817   -8.6587  -11.2737 O   0  0  0  0  0  0  0  0  0  0  0  0
   16.9538   -6.4863  -11.3351 N   0  0  0  0  0  0  0  0  0  0  0  0
   16.3601   -6.4827  -10.0440 C   0  0  0  0  0  0  0  0  0  0  0  0
   15.7466   -5.2049   -9.6587 C   0  0  0  0  0  0  0  0  0  0  0  0
   15.9820   -4.1771  -10.3411 O   0  0  0  0  0  0  0  0  0  0  0  0
   13.2735   -4.1225   -6.9986 C   0  0  0  0  0  0  0  0  0  0  0  0
   14.1997   -3.8475   -8.1911 C   0  0  2  0  0  0  0  0  0  0  0  0
   14.8894   -5.0821   -8.5348 N   0  0  0  0  0  0  0  0  0  0  0  0
   15.2067   -2.8710   -7.7205 C   0  0  0  0  0  0  0  0  0  0  0  0
   14.9021   -1.5150   -7.7570 O   0  0  0  0  0  0  0  0  0  0  0  0
   16.3203   -3.2234   -7.2918 O   0  0  0  0  0  0  0  0  0  0  0  0
  2  1  1  6
  2  3  1  0
  4  6  1  0
  4  2  1  0
  4  5  1  1
  6  7  2  0
  8  6  1  0
  8  9  1  0
 10 14  1  0
 10  9  1  0
 11 10  2  0
 13 14  1  0
 13 12  1  1
 15 13  1  0
 16 15  1  0
 17 15  2  0
M  END
$$$$
