TGA.pdb
     RDKit          3D

 17 16  0  0  1  0  0  0  0  0999 V2000
   17.1503  -11.9228  -14.1480 C   0  0  0  0  0  0  0  0  0  0  0  0
   17.2637  -12.4918  -15.5375 C   0  0  1  0  0  0  0  0  0  0  0  0
   16.0027  -13.0592  -15.8351 O   0  0  0  0  0  0  0  0  0  0  0  0
   17.4957  -11.4251  -16.5867 C   0  0  2  0  0  0  0  0  0  0  0  0
   17.4064  -12.0796  -17.8789 N   0  0  0  0  0  0  0  0  0  0  0  0
   18.7738  -10.7136  -16.4050 C   0  0  0  0  0  0  0  0  0  0  0  0
   19.8110  -11.2586  -16.8607 O   0  0  0  0  0  0  0  0  0  0  0  0
   18.9139   -9.4628  -15.7549 N   0  0  0  0  0  0  0  0  0  0  0  0
   20.1425   -8.7835  -15.5348 C   0  0  0  0  0  0  0  0  0  0  0  0
   20.0131   -7.5041  -14.8249 C   0  0  0  0  0  0  0  0  0  0  0  0
   18.8713   -7.0159  -14.6367 O   0  0  0  0  0  0  0  0  0  0  0  0
   22.4159   -5.1726  -13.0549 C   0  0  0  0  0  0  0  0  0  0  0  0
   21.0258   -5.5466  -13.5872 C   0  0  2  0  0  0  0  0  0  0  0  0
   21.1373   -6.7888  -14.3372 N   0  0  0  0  0  0  0  0  0  0  0  0
   20.6363   -4.4724  -14.5270 C   0  0  0  0  0  0  0  0  0  0  0  0
   19.9556   -3.3621  -14.0400 O   0  0  0  0  0  0  0  0  0  0  0  0
   20.8980   -4.5290  -15.7420 O   0  0  0  0  0  0  0  0  0  0  0  0
  2  1  1  1
  2  3  1  0
  4  6  1  0
  4  2  1  0
  4  5  1  6
  6  7  2  0
  8  6  1  0
  8  9  1  0
 10 14  1  0
 10  9  1  0
 11 10  2  0
 13 14  1  0
 13 12  1  6
 15 13  1  0
 16 15  1  0
 17 15  2  0
M  END
$$$$
