TGA.pdb
     RDKit          3D

 17 16  0  0  1  0  0  0  0  0999 V2000
   17.2468  -15.0422  -16.1569 C   0  0  0  0  0  0  0  0  0  0  0  0
   16.6250  -13.7036  -15.8588 C   0  0  1  0  0  0  0  0  0  0  0  0
   16.4312  -13.6621  -14.4585 O   0  0  0  0  0  0  0  0  0  0  0  0
   17.5473  -12.5476  -16.1836 C   0  0  2  0  0  0  0  0  0  0  0  0
   18.7725  -12.7644  -15.4365 N   0  0  0  0  0  0  0  0  0  0  0  0
   16.9405  -11.2349  -15.8980 C   0  0  0  0  0  0  0  0  0  0  0  0
   15.9547  -10.8873  -16.5964 O   0  0  0  0  0  0  0  0  0  0  0  0
   17.3896  -10.3412  -14.8948 N   0  0  0  0  0  0  0  0  0  0  0  0
   16.7720   -9.1069  -14.5568 C   0  0  0  0  0  0  0  0  0  0  0  0
   17.4376   -7.9203  -15.1107 C   0  0  0  0  0  0  0  0  0  0  0  0
   18.6791   -7.9413  -15.2994 O   0  0  0  0  0  0  0  0  0  0  0  0
   16.2640   -4.5919  -16.4798 C   0  0  0  0  0  0  0  0  0  0  0  0
   17.3613   -5.5726  -16.0442 C   0  0  2  0  0  0  0  0  0  0  0  0
   16.7281   -6.7381  -15.4453 N   0  0  0  0  0  0  0  0  0  0  0  0
   18.1452   -4.8826  -14.9962 C   0  0  0  0  0  0  0  0  0  0  0  0
   18.0714   -5.3403  -13.6854 O   0  0  0  0  0  0  0  0  0  0  0  0
   18.8704   -3.9036  -15.2489 O   0  0  0  0  0  0  0  0  0  0  0  0
  2  1  1  1
  2  3  1  0
  4  6  1  0
  4  2  1  0
  4  5  1  1
  6  7  2  0
  8  6  1  0
  8  9  1  0
 10 14  1  0
 10  9  1  0
 11 10  2  0
 13 14  1  0
 13 12  1  1
 15 13  1  0
 16 15  1  0
 17 15  2  0
M  END
$$$$
