DMY.pdb
     RDKit          3D

 29 29  0  0  1  0  0  0  0  0999 V2000
   10.7022  -16.4582   20.2078 N   0  0  0  0  0  0  0  0  0  0  0  0
   11.5756  -16.5337   21.3621 C   0  0  1  0  0  0  0  0  0  0  0  0
   12.8792  -15.7859   21.1199 C   0  0  0  0  0  0  0  0  0  0  0  0
   13.6744  -16.6155   20.1957 C   0  0  0  0  0  0  0  0  0  0  0  0
   13.2647  -16.7950   19.0357 O   0  0  0  0  0  0  0  0  0  0  0  0
   10.8472  -16.0350   22.5503 C   0  0  0  0  0  0  0  0  0  0  0  0
   11.4295  -15.8690   23.6504 O   0  0  0  0  0  0  0  0  0  0  0  0
   14.8644  -17.1884   20.6019 O   0  0  0  0  0  0  0  0  0  0  0  0
    6.0456  -12.5545   26.5927 C   0  0  0  0  0  0  0  0  0  0  0  0
    7.1184  -12.9601   25.1675 S   0  0  0  0  0  0  0  0  0  0  0  0
    6.4629  -14.4955   24.4049 C   0  0  0  0  0  0  0  0  0  0  0  0
    7.3283  -14.8584   23.2108 C   0  0  0  0  0  0  0  0  0  0  0  0
    8.6837  -15.3435   23.6710 C   0  0  2  0  0  0  0  0  0  0  0  0
    9.4585  -15.7171   22.5118 N   0  0  0  0  0  0  0  0  0  0  0  0
    8.5491  -16.4882   24.6120 C   0  0  0  0  0  0  0  0  0  0  0  0
    8.4859  -17.6362   24.1023 O   0  0  0  0  0  0  0  0  0  0  0  0
   13.3087  -14.2565   29.1400 O   0  0  0  0  0  0  0  0  0  0  0  0
   12.1628  -14.9926   28.9311 C   0  0  0  0  0  0  0  0  0  0  0  0
   10.9644  -14.3076   28.8251 C   0  0  0  0  0  0  0  0  0  0  0  0
    9.7994  -15.0104   28.6146 C   0  0  0  0  0  0  0  0  0  0  0  0
    9.7600  -16.3833   28.5021 C   0  0  0  0  0  0  0  0  0  0  0  0
    8.4978  -17.1217   28.2950 C   0  0  0  0  0  0  0  0  0  0  0  0
    8.3687  -17.5447   26.8600 C   0  0  2  0  0  0  0  0  0  0  0  0
    8.4901  -16.3505   26.0016 N   0  0  0  0  0  0  0  0  0  0  0  0
    7.0562  -18.1962   26.6219 C   0  0  0  0  0  0  0  0  0  0  0  0
    6.8077  -19.2701   27.2349 O   0  0  0  0  0  0  0  0  0  0  0  0
   10.9840  -17.0369   28.6138 C   0  0  0  0  0  0  0  0  0  0  0  0
   12.1548  -16.3636   28.8228 C   0  0  0  0  0  0  0  0  0  0  0  0
    6.0798  -17.7087   25.7770 O   0  0  0  0  0  0  0  0  0  0  0  0
  2  1  1  6
  3  4  1  0
  3  2  1  0
  4  5  2  0
  6  2  1  0
  6  7  2  0
  8  4  1  0
 10  9  1  0
 11 10  1  0
 12 11  1  0
 13 14  1  0
 13 12  1  6
 14  6  1  0
 15 24  1  0
 15 13  1  0
 16 15  2  0
 18 19  2  0
 18 17  1  0
 20 19  1  0
 21 20  2  0
 22 21  1  0
 23 24  1  0
 23 22  1  1
 25 23  1  0
 26 25  2  0
 27 21  1  0
 27 28  2  0
 28 18  1  0
 29 25  1  0
M  END
$$$$
