DMY.pdb
     RDKit          3D

 29 29  0  0  1  0  0  0  0  0999 V2000
    8.0116  -18.0842   19.7477 N   0  0  0  0  0  0  0  0  0  0  0  0
    9.3968  -17.6636   19.6751 C   0  0  1  0  0  0  0  0  0  0  0  0
    9.7850  -17.2791   18.2542 C   0  0  0  0  0  0  0  0  0  0  0  0
    9.6365  -18.4955   17.4339 C   0  0  0  0  0  0  0  0  0  0  0  0
    8.8265  -18.4965   16.4908 O   0  0  0  0  0  0  0  0  0  0  0  0
    9.6174  -16.5642   20.6413 C   0  0  0  0  0  0  0  0  0  0  0  0
   10.7040  -15.9359   20.6778 O   0  0  0  0  0  0  0  0  0  0  0  0
   10.3864  -19.6255   17.6985 O   0  0  0  0  0  0  0  0  0  0  0  0
    6.9441  -12.4017   26.6037 C   0  0  0  0  0  0  0  0  0  0  0  0
    6.8692  -13.8698   25.5148 S   0  0  0  0  0  0  0  0  0  0  0  0
    7.6261  -13.4030   23.9091 C   0  0  0  0  0  0  0  0  0  0  0  0
    7.4616  -14.5566   22.9353 C   0  0  0  0  0  0  0  0  0  0  0  0
    8.8100  -15.1315   22.5676 C   0  0  2  0  0  0  0  0  0  0  0  0
    8.6179  -16.1604   21.5736 N   0  0  0  0  0  0  0  0  0  0  0  0
    9.5035  -15.6739   23.7671 C   0  0  0  0  0  0  0  0  0  0  0  0
    8.9296  -16.6118   24.3776 O   0  0  0  0  0  0  0  0  0  0  0  0
   10.3459  -14.1377   31.0100 O   0  0  0  0  0  0  0  0  0  0  0  0
   10.4533  -14.8252   29.8208 C   0  0  0  0  0  0  0  0  0  0  0  0
   10.0295  -14.1901   28.6660 C   0  0  0  0  0  0  0  0  0  0  0  0
   10.1233  -14.8462   27.4593 C   0  0  0  0  0  0  0  0  0  0  0  0
   10.6247  -16.1238   27.3357 C   0  0  0  0  0  0  0  0  0  0  0  0
   10.7003  -16.8190   26.0348 C   0  0  0  0  0  0  0  0  0  0  0  0
   11.5810  -16.0584   25.0857 C   0  0  2  0  0  0  0  0  0  0  0  0
   10.7322  -15.2009   24.2360 N   0  0  0  0  0  0  0  0  0  0  0  0
   12.3583  -16.9906   24.2310 C   0  0  0  0  0  0  0  0  0  0  0  0
   13.6128  -16.8630   24.2033 O   0  0  0  0  0  0  0  0  0  0  0  0
   11.0407  -16.7297   28.5179 C   0  0  0  0  0  0  0  0  0  0  0  0
   10.9585  -16.1011   29.7287 C   0  0  0  0  0  0  0  0  0  0  0  0
   11.8069  -17.9956   23.4624 O   0  0  0  0  0  0  0  0  0  0  0  0
  2  1  1  6
  3  4  1  0
  3  2  1  0
  4  5  2  0
  6  2  1  0
  6  7  2  0
  8  4  1  0
 10  9  1  0
 11 10  1  0
 12 11  1  0
 13 14  1  0
 13 12  1  1
 14  6  1  0
 15 24  1  0
 15 13  1  0
 16 15  2  0
 18 19  2  0
 18 17  1  0
 20 19  1  0
 21 20  2  0
 22 21  1  0
 23 24  1  0
 23 22  1  1
 25 23  1  0
 26 25  2  0
 27 21  1  0
 27 28  2  0
 28 18  1  0
 29 25  1  0
M  END
$$$$
