DMY.pdb
     RDKit          3D

 29 29  0  0  1  0  0  0  0  0999 V2000
    7.6157  -17.1590   20.0033 N   0  0  0  0  0  0  0  0  0  0  0  0
    8.9563  -16.6247   19.8680 C   0  0  1  0  0  0  0  0  0  0  0  0
    9.1466  -15.9414   18.5211 C   0  0  0  0  0  0  0  0  0  0  0  0
    9.0199  -16.9926   17.4946 C   0  0  0  0  0  0  0  0  0  0  0  0
    9.2655  -18.1723   17.8004 O   0  0  0  0  0  0  0  0  0  0  0  0
    9.2315  -15.7206   21.0073 C   0  0  0  0  0  0  0  0  0  0  0  0
   10.2780  -15.0281   21.0526 O   0  0  0  0  0  0  0  0  0  0  0  0
    8.6298  -16.6824   16.2059 O   0  0  0  0  0  0  0  0  0  0  0  0
    6.4209  -12.3558   26.3715 C   0  0  0  0  0  0  0  0  0  0  0  0
    7.2814  -11.9652   24.8051 S   0  0  0  0  0  0  0  0  0  0  0  0
    6.8382  -13.2708   23.5935 C   0  0  0  0  0  0  0  0  0  0  0  0
    7.3899  -14.5994   24.0800 C   0  0  0  0  0  0  0  0  0  0  0  0
    8.6689  -14.9375   23.3494 C   0  0  2  0  0  0  0  0  0  0  0  0
    8.3320  -15.5860   22.1045 N   0  0  0  0  0  0  0  0  0  0  0  0
    9.5447  -15.8062   24.1813 C   0  0  0  0  0  0  0  0  0  0  0  0
    8.9783  -16.7111   24.8461 O   0  0  0  0  0  0  0  0  0  0  0  0
   10.9805  -14.2594   31.0520 O   0  0  0  0  0  0  0  0  0  0  0  0
   10.9605  -14.9909   29.8845 C   0  0  0  0  0  0  0  0  0  0  0  0
   10.3081  -14.4466   28.7915 C   0  0  0  0  0  0  0  0  0  0  0  0
   10.2693  -15.1487   27.6079 C   0  0  0  0  0  0  0  0  0  0  0  0
   10.8544  -16.3861   27.4487 C   0  0  0  0  0  0  0  0  0  0  0  0
   10.7864  -17.1330   26.1763 C   0  0  0  0  0  0  0  0  0  0  0  0
   11.7162  -16.5280   25.1643 C   0  0  2  0  0  0  0  0  0  0  0  0
   10.9333  -15.6664   24.2574 N   0  0  0  0  0  0  0  0  0  0  0  0
   12.3965  -17.5878   24.3784 C   0  0  0  0  0  0  0  0  0  0  0  0
   11.9961  -17.8023   23.2018 O   0  0  0  0  0  0  0  0  0  0  0  0
   11.5009  -16.9005   28.5691 C   0  0  0  0  0  0  0  0  0  0  0  0
   11.5542  -16.2247   29.7558 C   0  0  0  0  0  0  0  0  0  0  0  0
   13.4440  -18.3581   24.8413 O   0  0  0  0  0  0  0  0  0  0  0  0
  2  1  1  1
  3  4  1  0
  3  2  1  0
  4  5  2  0
  6  2  1  0
  6  7  2  0
  8  4  1  0
 10  9  1  0
 11 10  1  0
 12 11  1  0
 13 14  1  0
 13 12  1  1
 14  6  1  0
 15 24  1  0
 15 13  1  0
 16 15  2  0
 18 19  2  0
 18 17  1  0
 20 19  1  0
 21 20  2  0
 22 21  1  0
 23 24  1  0
 23 22  1  1
 25 23  1  0
 26 25  2  0
 27 21  1  0
 27 28  2  0
 28 18  1  0
 29 25  1  0
M  END
$$$$
