DMY.pdb
     RDKit          3D

 29 29  0  0  1  0  0  0  0  0999 V2000
    7.3570  -17.1102   19.7251 N   0  0  0  0  0  0  0  0  0  0  0  0
    8.7182  -16.6441   19.5496 C   0  0  1  0  0  0  0  0  0  0  0  0
    8.8898  -15.9247   18.2191 C   0  0  0  0  0  0  0  0  0  0  0  0
    8.2627  -16.7801   17.1945 C   0  0  0  0  0  0  0  0  0  0  0  0
    7.6812  -17.8212   17.5460 O   0  0  0  0  0  0  0  0  0  0  0  0
    9.0898  -15.7970   20.7053 C   0  0  0  0  0  0  0  0  0  0  0  0
   10.1771  -15.1694   20.7313 O   0  0  0  0  0  0  0  0  0  0  0  0
    8.3111  -16.4366   15.8570 O   0  0  0  0  0  0  0  0  0  0  0  0
    6.0296  -11.3081   25.4879 C   0  0  0  0  0  0  0  0  0  0  0  0
    6.0703  -13.1192   25.7430 S   0  0  0  0  0  0  0  0  0  0  0  0
    7.6328  -13.7431   25.0092 C   0  0  0  0  0  0  0  0  0  0  0  0
    7.3141  -14.4477   23.7022 C   0  0  0  0  0  0  0  0  0  0  0  0
    8.5880  -14.8747   23.0101 C   0  0  2  0  0  0  0  0  0  0  0  0
    8.2417  -15.6469   21.8408 N   0  0  0  0  0  0  0  0  0  0  0  0
    9.4561  -15.6604   23.9282 C   0  0  0  0  0  0  0  0  0  0  0  0
    9.1733  -16.8773   24.0725 O   0  0  0  0  0  0  0  0  0  0  0  0
   10.6103  -16.6477   31.7787 O   0  0  0  0  0  0  0  0  0  0  0  0
   10.9811  -16.3112   30.4950 C   0  0  0  0  0  0  0  0  0  0  0  0
   10.6376  -15.0527   30.0315 C   0  0  0  0  0  0  0  0  0  0  0  0
   10.9931  -14.6815   28.7543 C   0  0  0  0  0  0  0  0  0  0  0  0
   11.6842  -15.5092   27.8962 C   0  0  0  0  0  0  0  0  0  0  0  0
   12.0407  -15.1004   26.5224 C   0  0  0  0  0  0  0  0  0  0  0  0
   11.3459  -15.9756   25.5194 C   0  0  2  0  0  0  0  0  0  0  0  0
   10.5439  -15.1222   24.6214 N   0  0  0  0  0  0  0  0  0  0  0  0
   10.4587  -16.9513   26.2009 C   0  0  0  0  0  0  0  0  0  0  0  0
    9.2885  -16.5837   26.4946 O   0  0  0  0  0  0  0  0  0  0  0  0
   12.0120  -16.7659   28.3974 C   0  0  0  0  0  0  0  0  0  0  0  0
   11.6713  -17.1595   29.6610 C   0  0  0  0  0  0  0  0  0  0  0  0
   10.8203  -18.2405   26.5355 O   0  0  0  0  0  0  0  0  0  0  0  0
  2  1  1  1
  3  4  1  0
  3  2  1  0
  4  5  2  0
  6  2  1  0
  6  7  2  0
  8  4  1  0
 10  9  1  0
 11 10  1  0
 12 11  1  0
 13 14  1  0
 13 12  1  1
 14  6  1  0
 15 24  1  0
 15 13  1  0
 16 15  2  0
 18 19  2  0
 18 17  1  0
 20 19  1  0
 21 20  2  0
 22 21  1  0
 23 24  1  0
 23 22  1  1
 25 23  1  0
 26 25  2  0
 27 21  1  0
 27 28  2  0
 28 18  1  0
 29 25  1  0
M  END
$$$$
