DMY.pdb
     RDKit          3D

 29 29  0  0  1  0  0  0  0  0999 V2000
    6.8477  -17.2242   19.8579 N   0  0  0  0  0  0  0  0  0  0  0  0
    8.1991  -16.9326   19.4225 C   0  0  1  0  0  0  0  0  0  0  0  0
    8.2200  -16.4142   17.9914 C   0  0  0  0  0  0  0  0  0  0  0  0
    7.6768  -17.4929   17.1453 C   0  0  0  0  0  0  0  0  0  0  0  0
    8.2972  -18.5668   17.0583 O   0  0  0  0  0  0  0  0  0  0  0  0
    8.8194  -15.9875   20.3781 C   0  0  0  0  0  0  0  0  0  0  0  0
    9.8162  -15.2949   20.0565 O   0  0  0  0  0  0  0  0  0  0  0  0
    6.4912  -17.3250   16.4558 O   0  0  0  0  0  0  0  0  0  0  0  0
    7.2167  -12.6351   26.1719 C   0  0  0  0  0  0  0  0  0  0  0  0
    6.1390  -13.1740   24.7954 S   0  0  0  0  0  0  0  0  0  0  0  0
    7.2295  -13.6778   23.4077 C   0  0  0  0  0  0  0  0  0  0  0  0
    8.1275  -14.8097   23.8754 C   0  0  0  0  0  0  0  0  0  0  0  0
    9.0819  -15.2134   22.7753 C   0  0  2  0  0  0  0  0  0  0  0  0
    8.3237  -15.8118   21.7026 N   0  0  0  0  0  0  0  0  0  0  0  0
   10.1157  -16.1544   23.2848 C   0  0  0  0  0  0  0  0  0  0  0  0
    9.8612  -17.3822   23.1883 O   0  0  0  0  0  0  0  0  0  0  0  0
   10.8585  -15.8969   31.6043 O   0  0  0  0  0  0  0  0  0  0  0  0
   10.7472  -15.6785   30.2484 C   0  0  0  0  0  0  0  0  0  0  0  0
   10.4533  -16.7637   29.4405 C   0  0  0  0  0  0  0  0  0  0  0  0
   10.3330  -16.5825   28.0811 C   0  0  0  0  0  0  0  0  0  0  0  0
   10.4924  -15.3581   27.4692 C   0  0  0  0  0  0  0  0  0  0  0  0
   10.3781  -15.1862   26.0068 C   0  0  0  0  0  0  0  0  0  0  0  0
   11.5320  -15.8484   25.3105 C   0  0  2  0  0  0  0  0  0  0  0  0
   11.3263  -15.7475   23.8526 N   0  0  0  0  0  0  0  0  0  0  0  0
   11.6293  -17.2773   25.7007 C   0  0  0  0  0  0  0  0  0  0  0  0
   12.6116  -17.6331   26.4074 O   0  0  0  0  0  0  0  0  0  0  0  0
   10.7868  -14.2912   28.3137 C   0  0  0  0  0  0  0  0  0  0  0  0
   10.9118  -14.4435   29.6661 C   0  0  0  0  0  0  0  0  0  0  0  0
   10.7168  -18.2510   25.3485 O   0  0  0  0  0  0  0  0  0  0  0  0
  2  1  1  1
  3  4  1  0
  3  2  1  0
  4  5  2  0
  6  2  1  0
  6  7  2  0
  8  4  1  0
 10  9  1  0
 11 10  1  0
 12 11  1  0
 13 14  1  0
 13 12  1  1
 14  6  1  0
 15 24  1  0
 15 13  1  0
 16 15  2  0
 18 19  2  0
 18 17  1  0
 20 19  1  0
 21 20  2  0
 22 21  1  0
 23 24  1  0
 23 22  1  1
 25 23  1  0
 26 25  2  0
 27 21  1  0
 27 28  2  0
 28 18  1  0
 29 25  1  0
M  END
$$$$
