DMY.pdb
     RDKit          3D

 29 29  0  0  1  0  0  0  0  0999 V2000
    9.1730  -18.6898   20.5033 N   0  0  0  0  0  0  0  0  0  0  0  0
   10.2222  -17.7820   20.0837 C   0  0  1  0  0  0  0  0  0  0  0  0
   10.2631  -17.6459   18.5681 C   0  0  0  0  0  0  0  0  0  0  0  0
   10.5834  -18.9827   18.0342 C   0  0  0  0  0  0  0  0  0  0  0  0
   11.4058  -19.6953   18.6355 O   0  0  0  0  0  0  0  0  0  0  0  0
   10.0350  -16.4818   20.7659 C   0  0  0  0  0  0  0  0  0  0  0  0
   10.9924  -15.6852   20.9259 O   0  0  0  0  0  0  0  0  0  0  0  0
    9.9800  -19.4498   16.8823 O   0  0  0  0  0  0  0  0  0  0  0  0
    8.8021  -12.7076   18.6131 C   0  0  0  0  0  0  0  0  0  0  0  0
    7.5024  -12.4771   19.8797 S   0  0  0  0  0  0  0  0  0  0  0  0
    6.8630  -14.1401   20.3210 C   0  0  0  0  0  0  0  0  0  0  0  0
    7.1285  -14.3927   21.7948 C   0  0  0  0  0  0  0  0  0  0  0  0
    8.5574  -14.8385   22.0034 C   0  0  2  0  0  0  0  0  0  0  0  0
    8.7697  -16.0651   21.2725 N   0  0  0  0  0  0  0  0  0  0  0  0
    8.8524  -15.0238   23.4499 C   0  0  0  0  0  0  0  0  0  0  0  0
    8.6102  -14.0491   24.2069 O   0  0  0  0  0  0  0  0  0  0  0  0
    6.1387  -11.2306   27.1520 O   0  0  0  0  0  0  0  0  0  0  0  0
    6.6706  -12.4767   26.9019 C   0  0  0  0  0  0  0  0  0  0  0  0
    5.8381  -13.4371   26.3531 C   0  0  0  0  0  0  0  0  0  0  0  0
    6.3359  -14.6930   26.0883 C   0  0  0  0  0  0  0  0  0  0  0  0
    7.6411  -15.0534   26.3447 C   0  0  0  0  0  0  0  0  0  0  0  0
    8.1526  -16.4117   26.0712 C   0  0  0  0  0  0  0  0  0  0  0  0
    9.5201  -16.3415   25.4551 C   0  0  2  0  0  0  0  0  0  0  0  0
    9.3742  -16.2010   23.9933 N   0  0  0  0  0  0  0  0  0  0  0  0
   10.2963  -17.5693   25.7610 C   0  0  0  0  0  0  0  0  0  0  0  0
   10.6063  -18.3286   24.8029 O   0  0  0  0  0  0  0  0  0  0  0  0
    8.4475  -14.0617   26.8960 C   0  0  0  0  0  0  0  0  0  0  0  0
    7.9787  -12.8072   27.1687 C   0  0  0  0  0  0  0  0  0  0  0  0
   10.7099  -17.9420   27.0239 O   0  0  0  0  0  0  0  0  0  0  0  0
  2  1  1  6
  3  4  1  0
  3  2  1  0
  4  5  2  0
  6  2  1  0
  6  7  2  0
  8  4  1  0
 10  9  1  0
 11 10  1  0
 12 11  1  0
 13 14  1  0
 13 12  1  1
 14  6  1  0
 15 24  1  0
 15 13  1  0
 16 15  2  0
 18 19  2  0
 18 17  1  0
 20 19  1  0
 21 20  2  0
 22 21  1  0
 23 24  1  0
 23 22  1  1
 25 23  1  0
 26 25  2  0
 27 21  1  0
 27 28  2  0
 28 18  1  0
 29 25  1  0
M  END
$$$$
