DMY.pdb
     RDKit          3D

 29 29  0  0  1  0  0  0  0  0999 V2000
    8.9890  -15.8482   18.4173 N   0  0  0  0  0  0  0  0  0  0  0  0
    8.7641  -16.7695   19.5134 C   0  0  1  0  0  0  0  0  0  0  0  0
    9.4396  -18.1096   19.2578 C   0  0  0  0  0  0  0  0  0  0  0  0
    8.7319  -18.7273   18.1211 C   0  0  0  0  0  0  0  0  0  0  0  0
    7.4887  -18.7245   18.1062 O   0  0  0  0  0  0  0  0  0  0  0  0
    9.2149  -16.1375   20.7737 C   0  0  0  0  0  0  0  0  0  0  0  0
   10.4274  -15.8829   20.9786 O   0  0  0  0  0  0  0  0  0  0  0  0
    9.4316  -19.3020   17.0774 O   0  0  0  0  0  0  0  0  0  0  0  0
    6.8282  -12.2233   27.2368 C   0  0  0  0  0  0  0  0  0  0  0  0
    6.3200  -13.1912   25.7699 S   0  0  0  0  0  0  0  0  0  0  0  0
    7.8449  -13.8558   24.9940 C   0  0  0  0  0  0  0  0  0  0  0  0
    7.4676  -14.5845   23.7161 C   0  0  0  0  0  0  0  0  0  0  0  0
    8.7007  -15.1471   23.0474 C   0  0  2  0  0  0  0  0  0  0  0  0
    8.3067  -15.7849   21.8138 N   0  0  0  0  0  0  0  0  0  0  0  0
    9.4014  -16.1074   23.9422 C   0  0  0  0  0  0  0  0  0  0  0  0
    9.0211  -17.3053   23.8965 O   0  0  0  0  0  0  0  0  0  0  0  0
   10.0138  -14.3337   30.9840 O   0  0  0  0  0  0  0  0  0  0  0  0
   10.6104  -14.8026   29.8339 C   0  0  0  0  0  0  0  0  0  0  0  0
   10.6080  -13.9783   28.7217 C   0  0  0  0  0  0  0  0  0  0  0  0
   11.1964  -14.4132   27.5556 C   0  0  0  0  0  0  0  0  0  0  0  0
   11.7982  -15.6468   27.4323 C   0  0  0  0  0  0  0  0  0  0  0  0
   12.4081  -16.1039   26.1672 C   0  0  0  0  0  0  0  0  0  0  0  0
   11.3791  -16.7726   25.3020 C   0  0  2  0  0  0  0  0  0  0  0  0
   10.4364  -15.7491   24.8104 N   0  0  0  0  0  0  0  0  0  0  0  0
   10.6370  -17.8026   26.0714 C   0  0  0  0  0  0  0  0  0  0  0  0
    9.4187  -17.5925   26.3211 O   0  0  0  0  0  0  0  0  0  0  0  0
   11.7810  -16.4472   28.5711 C   0  0  0  0  0  0  0  0  0  0  0  0
   11.2038  -16.0399   29.7411 C   0  0  0  0  0  0  0  0  0  0  0  0
   11.1837  -18.9826   26.5333 O   0  0  0  0  0  0  0  0  0  0  0  0
  2  1  1  6
  3  4  1  0
  3  2  1  0
  4  5  2  0
  6  2  1  0
  6  7  2  0
  8  4  1  0
 10  9  1  0
 11 10  1  0
 12 11  1  0
 13 14  1  0
 13 12  1  1
 14  6  1  0
 15 24  1  0
 15 13  1  0
 16 15  2  0
 18 19  2  0
 18 17  1  0
 20 19  1  0
 21 20  2  0
 22 21  1  0
 23 24  1  0
 23 22  1  1
 25 23  1  0
 26 25  2  0
 27 21  1  0
 27 28  2  0
 28 18  1  0
 29 25  1  0
M  END
$$$$
