DMY.pdb
     RDKit          3D

 29 29  0  0  1  0  0  0  0  0999 V2000
    8.8141  -17.0251   19.3913 N   0  0  0  0  0  0  0  0  0  0  0  0
   10.1551  -16.8203   19.9018 C   0  0  1  0  0  0  0  0  0  0  0  0
   11.0562  -16.1853   18.8519 C   0  0  0  0  0  0  0  0  0  0  0  0
   11.1190  -17.1322   17.7232 C   0  0  0  0  0  0  0  0  0  0  0  0
   11.6466  -18.2451   17.8932 O   0  0  0  0  0  0  0  0  0  0  0  0
   10.0801  -16.0202   21.1448 C   0  0  0  0  0  0  0  0  0  0  0  0
   11.0814  -15.8748   21.8885 O   0  0  0  0  0  0  0  0  0  0  0  0
   10.5976  -16.7990   16.4878 O   0  0  0  0  0  0  0  0  0  0  0  0
    5.9746  -11.9558   26.3078 C   0  0  0  0  0  0  0  0  0  0  0  0
    6.1853  -13.3556   25.1490 S   0  0  0  0  0  0  0  0  0  0  0  0
    7.4459  -12.8596   23.9105 C   0  0  0  0  0  0  0  0  0  0  0  0
    7.4553  -13.8789   22.7848 C   0  0  0  0  0  0  0  0  0  0  0  0
    8.7248  -14.6980   22.8270 C   0  0  2  0  0  0  0  0  0  0  0  0
    8.8795  -15.3754   21.5617 N   0  0  0  0  0  0  0  0  0  0  0  0
    8.6939  -15.6720   23.9513 C   0  0  0  0  0  0  0  0  0  0  0  0
    8.6191  -16.8894   23.6444 O   0  0  0  0  0  0  0  0  0  0  0  0
   12.1253  -17.3255   31.8605 O   0  0  0  0  0  0  0  0  0  0  0  0
   11.6722  -16.6797   30.7308 C   0  0  0  0  0  0  0  0  0  0  0  0
   10.3850  -16.9542   30.3014 C   0  0  0  0  0  0  0  0  0  0  0  0
    9.8982  -16.3262   29.1771 C   0  0  0  0  0  0  0  0  0  0  0  0
   10.6355  -15.4233   28.4422 C   0  0  0  0  0  0  0  0  0  0  0  0
   10.1029  -14.7733   27.2276 C   0  0  0  0  0  0  0  0  0  0  0  0
    9.8348  -15.7962   26.1616 C   0  0  2  0  0  0  0  0  0  0  0  0
    8.7419  -15.3063   25.2994 N   0  0  0  0  0  0  0  0  0  0  0  0
    9.4456  -17.0945   26.7673 C   0  0  0  0  0  0  0  0  0  0  0  0
    8.2161  -17.3378   26.9083 O   0  0  0  0  0  0  0  0  0  0  0  0
   11.9244  -15.1729   28.9046 C   0  0  0  0  0  0  0  0  0  0  0  0
   12.4321  -15.7825   30.0174 C   0  0  0  0  0  0  0  0  0  0  0  0
   10.3350  -18.0628   27.1867 O   0  0  0  0  0  0  0  0  0  0  0  0
  2  1  1  6
  3  4  1  0
  3  2  1  0
  4  5  2  0
  6  2  1  0
  6  7  2  0
  8  4  1  0
 10  9  1  0
 11 10  1  0
 12 11  1  0
 13 14  1  0
 13 12  1  6
 14  6  1  0
 15 24  1  0
 15 13  1  0
 16 15  2  0
 18 19  2  0
 18 17  1  0
 20 19  1  0
 21 20  2  0
 22 21  1  0
 23 24  1  0
 23 22  1  1
 25 23  1  0
 26 25  2  0
 27 21  1  0
 27 28  2  0
 28 18  1  0
 29 25  1  0
M  END
$$$$
