DMY.pdb
     RDKit          3D

 29 29  0  0  1  0  0  0  0  0999 V2000
    7.1411  -17.8508   20.6215 N   0  0  0  0  0  0  0  0  0  0  0  0
    8.3778  -17.3097   20.0934 C   0  0  1  0  0  0  0  0  0  0  0  0
    8.2844  -17.0789   18.5916 C   0  0  0  0  0  0  0  0  0  0  0  0
    8.2489  -18.4123   17.9626 C   0  0  0  0  0  0  0  0  0  0  0  0
    7.2935  -19.1709   18.2018 O   0  0  0  0  0  0  0  0  0  0  0  0
    8.7202  -16.0767   20.8373 C   0  0  0  0  0  0  0  0  0  0  0  0
    9.7296  -15.3927   20.5371 O   0  0  0  0  0  0  0  0  0  0  0  0
    9.2580  -18.8228   17.1126 O   0  0  0  0  0  0  0  0  0  0  0  0
    5.1413  -11.5975   25.6657 C   0  0  0  0  0  0  0  0  0  0  0  0
    6.3113  -12.9609   26.0106 S   0  0  0  0  0  0  0  0  0  0  0  0
    7.5030  -13.0292   24.6163 C   0  0  0  0  0  0  0  0  0  0  0  0
    7.1938  -14.2489   23.7658 C   0  0  0  0  0  0  0  0  0  0  0  0
    8.2946  -14.4795   22.7564 C   0  0  2  0  0  0  0  0  0  0  0  0
    7.9301  -15.6011   21.9239 N   0  0  0  0  0  0  0  0  0  0  0  0
    9.5972  -14.7212   23.4336 C   0  0  0  0  0  0  0  0  0  0  0  0
   10.3681  -13.7342   23.5479 O   0  0  0  0  0  0  0  0  0  0  0  0
   11.5829  -16.3541   31.5522 O   0  0  0  0  0  0  0  0  0  0  0  0
   11.0782  -16.2664   30.2731 C   0  0  0  0  0  0  0  0  0  0  0  0
   11.0381  -15.0172   29.6779 C   0  0  0  0  0  0  0  0  0  0  0  0
   10.5417  -14.8920   28.3999 C   0  0  0  0  0  0  0  0  0  0  0  0
   10.0737  -15.9614   27.6675 C   0  0  0  0  0  0  0  0  0  0  0  0
    9.5272  -15.8050   26.3043 C   0  0  0  0  0  0  0  0  0  0  0  0
   10.5948  -16.0620   25.2802 C   0  0  2  0  0  0  0  0  0  0  0  0
    9.9947  -15.9636   23.9355 N   0  0  0  0  0  0  0  0  0  0  0  0
   11.1829  -17.4126   25.4639 C   0  0  0  0  0  0  0  0  0  0  0  0
   12.2593  -17.5068   26.1145 O   0  0  0  0  0  0  0  0  0  0  0  0
   10.1302  -17.2008   28.2989 C   0  0  0  0  0  0  0  0  0  0  0  0
   10.6180  -17.3528   29.5664 C   0  0  0  0  0  0  0  0  0  0  0  0
   10.6337  -18.5808   24.9757 O   0  0  0  0  0  0  0  0  0  0  0  0
  2  1  1  1
  3  4  1  0
  3  2  1  0
  4  5  2  0
  6  2  1  0
  6  7  2  0
  8  4  1  0
 10  9  1  0
 11 10  1  0
 12 11  1  0
 13 14  1  0
 13 12  1  1
 14  6  1  0
 15 24  1  0
 15 13  1  0
 16 15  2  0
 18 19  2  0
 18 17  1  0
 20 19  1  0
 21 20  2  0
 22 21  1  0
 23 24  1  0
 23 22  1  1
 25 23  1  0
 26 25  2  0
 27 21  1  0
 27 28  2  0
 28 18  1  0
 29 25  1  0
M  END
$$$$
