DMY.pdb
     RDKit          3D

 29 29  0  0  1  0  0  0  0  0999 V2000
    7.6266  -18.5067   21.3617 N   0  0  0  0  0  0  0  0  0  0  0  0
    8.3500  -17.7042   20.3955 C   0  0  1  0  0  0  0  0  0  0  0  0
    7.6131  -17.6420   19.0649 C   0  0  0  0  0  0  0  0  0  0  0  0
    8.4813  -18.3018   18.0721 C   0  0  0  0  0  0  0  0  0  0  0  0
    9.4951  -17.7094   17.6634 O   0  0  0  0  0  0  0  0  0  0  0  0
    8.5961  -16.3630   20.9715 C   0  0  0  0  0  0  0  0  0  0  0  0
    9.3625  -15.5423   20.4095 O   0  0  0  0  0  0  0  0  0  0  0  0
    8.1837  -19.5649   17.5975 O   0  0  0  0  0  0  0  0  0  0  0  0
    6.0957  -11.1559   26.4122 C   0  0  0  0  0  0  0  0  0  0  0  0
    5.8625  -12.7987   25.6416 S   0  0  0  0  0  0  0  0  0  0  0  0
    7.1526  -12.9885   24.3499 C   0  0  0  0  0  0  0  0  0  0  0  0
    6.9970  -14.3512   23.6976 C   0  0  0  0  0  0  0  0  0  0  0  0
    8.1391  -14.6110   22.7426 C   0  0  2  0  0  0  0  0  0  0  0  0
    7.9817  -15.9324   22.1832 N   0  0  0  0  0  0  0  0  0  0  0  0
    9.4511  -14.4781   23.4315 C   0  0  0  0  0  0  0  0  0  0  0  0
    9.8034  -13.3164   23.7603 O   0  0  0  0  0  0  0  0  0  0  0  0
   11.2596  -16.4408   31.3993 O   0  0  0  0  0  0  0  0  0  0  0  0
   10.8576  -16.3653   30.0835 C   0  0  0  0  0  0  0  0  0  0  0  0
   10.6913  -15.1077   29.5293 C   0  0  0  0  0  0  0  0  0  0  0  0
   10.2920  -14.9939   28.2166 C   0  0  0  0  0  0  0  0  0  0  0  0
   10.0438  -16.0830   27.4097 C   0  0  0  0  0  0  0  0  0  0  0  0
    9.5979  -15.9415   26.0088 C   0  0  0  0  0  0  0  0  0  0  0  0
   10.7795  -15.7656   25.0990 C   0  0  2  0  0  0  0  0  0  0  0  0
   10.2903  -15.5573   23.7224 N   0  0  0  0  0  0  0  0  0  0  0  0
   11.6546  -16.9641   25.1391 C   0  0  0  0  0  0  0  0  0  0  0  0
   11.3277  -17.9603   24.4380 O   0  0  0  0  0  0  0  0  0  0  0  0
   10.2219  -17.3303   28.0017 C   0  0  0  0  0  0  0  0  0  0  0  0
   10.6173  -17.4714   29.3023 C   0  0  0  0  0  0  0  0  0  0  0  0
   12.8088  -17.0684   25.8885 O   0  0  0  0  0  0  0  0  0  0  0  0
  2  1  1  1
  3  4  1  0
  3  2  1  0
  4  5  2  0
  6  2  1  0
  6  7  2  0
  8  4  1  0
 10  9  1  0
 11 10  1  0
 12 11  1  0
 13 14  1  0
 13 12  1  1
 14  6  1  0
 15 24  1  0
 15 13  1  0
 16 15  2  0
 18 19  2  0
 18 17  1  0
 20 19  1  0
 21 20  2  0
 22 21  1  0
 23 24  1  0
 23 22  1  1
 25 23  1  0
 26 25  2  0
 27 21  1  0
 27 28  2  0
 28 18  1  0
 29 25  1  0
M  END
$$$$
