DMY.pdb
     RDKit          3D

 29 29  0  0  1  0  0  0  0  0999 V2000
   10.2746  -16.0707   13.8534 N   0  0  0  0  0  0  0  0  0  0  0  0
    9.4739  -16.5360   14.9685 C   0  0  1  0  0  0  0  0  0  0  0  0
    9.5225  -18.0526   15.0901 C   0  0  0  0  0  0  0  0  0  0  0  0
    8.2899  -18.5645   14.4628 C   0  0  0  0  0  0  0  0  0  0  0  0
    7.2495  -17.8870   14.5273 O   0  0  0  0  0  0  0  0  0  0  0  0
    9.9235  -15.8527   16.2022 C   0  0  0  0  0  0  0  0  0  0  0  0
   11.1422  -15.6562   16.4320 O   0  0  0  0  0  0  0  0  0  0  0  0
    8.2806  -19.7797   13.8051 O   0  0  0  0  0  0  0  0  0  0  0  0
    7.7083  -11.6382   22.5352 C   0  0  0  0  0  0  0  0  0  0  0  0
    7.1850  -12.4462   20.9796 S   0  0  0  0  0  0  0  0  0  0  0  0
    8.6267  -13.3798   20.3325 C   0  0  0  0  0  0  0  0  0  0  0  0
    8.2394  -14.0297   19.0157 C   0  0  0  0  0  0  0  0  0  0  0  0
    9.4042  -14.8098   18.4511 C   0  0  2  0  0  0  0  0  0  0  0  0
    9.0069  -15.3829   17.1872 N   0  0  0  0  0  0  0  0  0  0  0  0
    9.8470  -15.8678   19.3989 C   0  0  0  0  0  0  0  0  0  0  0  0
    9.2081  -16.9508   19.3780 O   0  0  0  0  0  0  0  0  0  0  0  0
   15.6537  -13.9831   17.7256 O   0  0  0  0  0  0  0  0  0  0  0  0
   14.8585  -14.7802   18.5197 C   0  0  0  0  0  0  0  0  0  0  0  0
   15.3454  -16.0251   18.8798 C   0  0  0  0  0  0  0  0  0  0  0  0
   14.5788  -16.8480   19.6738 C   0  0  0  0  0  0  0  0  0  0  0  0
   13.3304  -16.4942   20.1379 C   0  0  0  0  0  0  0  0  0  0  0  0
   12.5143  -17.3980   20.9736 C   0  0  0  0  0  0  0  0  0  0  0  0
   11.1922  -16.7624   21.2944 C   0  0  2  0  0  0  0  0  0  0  0  0
   10.9131  -15.7176   20.2902 N   0  0  0  0  0  0  0  0  0  0  0  0
   11.2176  -16.1554   22.6488 C   0  0  0  0  0  0  0  0  0  0  0  0
   11.0585  -14.9077   22.7421 O   0  0  0  0  0  0  0  0  0  0  0  0
   12.8748  -15.2357   19.7554 C   0  0  0  0  0  0  0  0  0  0  0  0
   13.6153  -14.3993   18.9680 C   0  0  0  0  0  0  0  0  0  0  0  0
   11.3996  -16.8600   23.8215 O   0  0  0  0  0  0  0  0  0  0  0  0
  2  1  1  6
  3  4  1  0
  3  2  1  0
  4  5  2  0
  6  2  1  0
  6  7  2  0
  8  4  1  0
 10  9  1  0
 11 10  1  0
 12 11  1  0
 13 14  1  0
 13 12  1  1
 14  6  1  0
 15 24  1  0
 15 13  1  0
 16 15  2  0
 18 19  2  0
 18 17  1  0
 20 19  1  0
 21 20  2  0
 22 21  1  0
 23 24  1  0
 23 22  1  6
 25 23  1  0
 26 25  2  0
 27 21  1  0
 27 28  2  0
 28 18  1  0
 29 25  1  0
M  END
$$$$
