DMY.pdb
     RDKit          3D

 29 29  0  0  1  0  0  0  0  0999 V2000
    9.9020  -15.8758   20.2281 N   0  0  0  0  0  0  0  0  0  0  0  0
   10.1859  -16.7840   21.3215 C   0  0  1  0  0  0  0  0  0  0  0  0
   11.5211  -17.4880   21.1239 C   0  0  0  0  0  0  0  0  0  0  0  0
   11.3990  -18.2820   19.8873 C   0  0  0  0  0  0  0  0  0  0  0  0
   11.0658  -19.4773   19.9638 O   0  0  0  0  0  0  0  0  0  0  0  0
   10.1214  -16.0364   22.5974 C   0  0  0  0  0  0  0  0  0  0  0  0
   11.1341  -15.4637   23.0699 O   0  0  0  0  0  0  0  0  0  0  0  0
   11.6458  -17.7138   18.6522 O   0  0  0  0  0  0  0  0  0  0  0  0
    6.3490  -11.4503   26.6979 C   0  0  0  0  0  0  0  0  0  0  0  0
    7.6953  -12.4926   26.0287 S   0  0  0  0  0  0  0  0  0  0  0  0
    7.1800  -14.2442   26.2162 C   0  0  0  0  0  0  0  0  0  0  0  0
    7.3447  -14.9497   24.8815 C   0  0  0  0  0  0  0  0  0  0  0  0
    8.8078  -15.1947   24.5926 C   0  0  2  0  0  0  0  0  0  0  0  0
    8.9177  -15.9248   23.3522 N   0  0  0  0  0  0  0  0  0  0  0  0
    9.4540  -15.9394   25.7069 C   0  0  0  0  0  0  0  0  0  0  0  0
    9.1602  -17.1569   25.8201 O   0  0  0  0  0  0  0  0  0  0  0  0
   15.1739  -18.4965   23.5384 O   0  0  0  0  0  0  0  0  0  0  0  0
   14.5013  -17.9032   24.5844 C   0  0  0  0  0  0  0  0  0  0  0  0
   14.1648  -16.5660   24.4613 C   0  0  0  0  0  0  0  0  0  0  0  0
   13.4910  -15.9405   25.4861 C   0  0  0  0  0  0  0  0  0  0  0  0
   13.1270  -16.5841   26.6490 C   0  0  0  0  0  0  0  0  0  0  0  0
   12.4206  -15.8917   27.7458 C   0  0  0  0  0  0  0  0  0  0  0  0
   10.9484  -16.1808   27.6846 C   0  0  2  0  0  0  0  0  0  0  0  0
   10.3495  -15.3629   26.6121 N   0  0  0  0  0  0  0  0  0  0  0  0
   10.2967  -15.8573   28.9785 C   0  0  0  0  0  0  0  0  0  0  0  0
    9.4650  -14.9094   29.0026 O   0  0  0  0  0  0  0  0  0  0  0  0
   13.4821  -17.9273   26.7361 C   0  0  0  0  0  0  0  0  0  0  0  0
   14.1510  -18.5722   25.7338 C   0  0  0  0  0  0  0  0  0  0  0  0
   10.5320  -16.5236   30.1640 O   0  0  0  0  0  0  0  0  0  0  0  0
  2  1  1  6
  3  4  1  0
  3  2  1  0
  4  5  2  0
  6  2  1  0
  6  7  2  0
  8  4  1  0
 10  9  1  0
 11 10  1  0
 12 11  1  0
 13 14  1  0
 13 12  1  1
 14  6  1  0
 15 24  1  0
 15 13  1  0
 16 15  2  0
 18 19  2  0
 18 17  1  0
 20 19  1  0
 21 20  2  0
 22 21  1  0
 23 24  1  0
 23 22  1  1
 25 23  1  0
 26 25  2  0
 27 21  1  0
 27 28  2  0
 28 18  1  0
 29 25  1  0
M  END
$$$$
