DMY.pdb
     RDKit          3D

 29 29  0  0  1  0  0  0  0  0999 V2000
   10.2628  -16.3294   19.9741 N   0  0  0  0  0  0  0  0  0  0  0  0
    9.0909  -16.4700   20.8154 C   0  0  1  0  0  0  0  0  0  0  0  0
    8.6926  -17.9310   20.9703 C   0  0  0  0  0  0  0  0  0  0  0  0
    9.8263  -18.7312   20.4713 C   0  0  0  0  0  0  0  0  0  0  0  0
    9.9925  -18.8496   19.2449 O   0  0  0  0  0  0  0  0  0  0  0  0
    9.3496  -15.8110   22.1154 C   0  0  0  0  0  0  0  0  0  0  0  0
   10.5034  -15.7735   22.6095 O   0  0  0  0  0  0  0  0  0  0  0  0
   10.7023  -19.3435   21.3470 O   0  0  0  0  0  0  0  0  0  0  0  0
    6.6874  -10.7052   27.5058 C   0  0  0  0  0  0  0  0  0  0  0  0
    6.3195  -11.6110   25.9596 S   0  0  0  0  0  0  0  0  0  0  0  0
    7.6179  -12.8913   25.7498 C   0  0  0  0  0  0  0  0  0  0  0  0
    7.4195  -13.5762   24.4089 C   0  0  0  0  0  0  0  0  0  0  0  0
    8.5085  -14.5972   24.1731 C   0  0  2  0  0  0  0  0  0  0  0  0
    8.3140  -15.1873   22.8702 N   0  0  0  0  0  0  0  0  0  0  0  0
    8.5016  -15.6393   25.2351 C   0  0  0  0  0  0  0  0  0  0  0  0
    7.8633  -16.6946   24.9892 O   0  0  0  0  0  0  0  0  0  0  0  0
   13.7446  -21.5922   28.0506 O   0  0  0  0  0  0  0  0  0  0  0  0
   13.0882  -20.4767   27.5782 C   0  0  0  0  0  0  0  0  0  0  0  0
   11.8241  -20.6493   27.0409 C   0  0  0  0  0  0  0  0  0  0  0  0
   11.1378  -19.5567   26.5606 C   0  0  0  0  0  0  0  0  0  0  0  0
   11.6496  -18.2775   26.5854 C   0  0  0  0  0  0  0  0  0  0  0  0
   10.9061  -17.1199   26.0483 C   0  0  0  0  0  0  0  0  0  0  0  0
    9.8872  -16.6451   27.0438 C   0  0  2  0  0  0  0  0  0  0  0  0
    9.1544  -15.5031   26.4634 N   0  0  0  0  0  0  0  0  0  0  0  0
   10.5448  -16.2234   28.3061 C   0  0  0  0  0  0  0  0  0  0  0  0
   10.4672  -16.9946   29.3011 O   0  0  0  0  0  0  0  0  0  0  0  0
   12.9225  -18.1435   27.1330 C   0  0  0  0  0  0  0  0  0  0  0  0
   13.6253  -19.2112   27.6166 C   0  0  0  0  0  0  0  0  0  0  0  0
   11.2425  -15.0442   28.4717 O   0  0  0  0  0  0  0  0  0  0  0  0
  2  1  1  6
  3  4  1  0
  3  2  1  0
  4  5  2  0
  6  2  1  0
  6  7  2  0
  8  4  1  0
 10  9  1  0
 11 10  1  0
 12 11  1  0
 13 14  1  0
 13 12  1  1
 14  6  1  0
 15 24  1  0
 15 13  1  0
 16 15  2  0
 18 19  2  0
 18 17  1  0
 20 19  1  0
 21 20  2  0
 22 21  1  0
 23 24  1  0
 23 22  1  6
 25 23  1  0
 26 25  2  0
 27 21  1  0
 27 28  2  0
 28 18  1  0
 29 25  1  0
M  END
$$$$
