DMY.pdb
     RDKit          3D

 29 29  0  0  1  0  0  0  0  0999 V2000
    9.1022  -15.7863   19.1168 N   0  0  0  0  0  0  0  0  0  0  0  0
    9.3355  -16.6824   20.2319 C   0  0  1  0  0  0  0  0  0  0  0  0
   10.4406  -17.6811   19.9178 C   0  0  0  0  0  0  0  0  0  0  0  0
    9.9185  -18.5676   18.8614 C   0  0  0  0  0  0  0  0  0  0  0  0
   10.3684  -18.4663   17.7068 O   0  0  0  0  0  0  0  0  0  0  0  0
    9.6223  -15.8801   21.4424 C   0  0  0  0  0  0  0  0  0  0  0  0
   10.7249  -15.2986   21.5935 O   0  0  0  0  0  0  0  0  0  0  0  0
    8.9437  -19.5062   19.1405 O   0  0  0  0  0  0  0  0  0  0  0  0
    5.9062  -11.3244   25.3969 C   0  0  0  0  0  0  0  0  0  0  0  0
    6.0418  -13.0484   25.9938 S   0  0  0  0  0  0  0  0  0  0  0  0
    7.6834  -13.6833   25.4734 C   0  0  0  0  0  0  0  0  0  0  0  0
    7.5253  -14.4379   24.1650 C   0  0  0  0  0  0  0  0  0  0  0  0
    8.8743  -14.8782   23.6450 C   0  0  2  0  0  0  0  0  0  0  0  0
    8.6716  -15.7233   22.4925 N   0  0  0  0  0  0  0  0  0  0  0  0
    9.6450  -15.5920   24.6987 C   0  0  0  0  0  0  0  0  0  0  0  0
    9.3740  -16.8076   24.8735 O   0  0  0  0  0  0  0  0  0  0  0  0
   12.2464  -17.5869   32.5770 O   0  0  0  0  0  0  0  0  0  0  0  0
   12.0501  -16.8900   31.4048 C   0  0  0  0  0  0  0  0  0  0  0  0
   12.9520  -17.0912   30.3739 C   0  0  0  0  0  0  0  0  0  0  0  0
   12.7861  -16.4129   29.1874 C   0  0  0  0  0  0  0  0  0  0  0  0
   11.7531  -15.5281   28.9658 C   0  0  0  0  0  0  0  0  0  0  0  0
   11.6019  -14.7951   27.6925 C   0  0  0  0  0  0  0  0  0  0  0  0
   11.2724  -15.7456   26.5777 C   0  0  2  0  0  0  0  0  0  0  0  0
   10.6311  -14.9894   25.4847 N   0  0  0  0  0  0  0  0  0  0  0  0
   10.3526  -16.8101   27.0514 C   0  0  0  0  0  0  0  0  0  0  0  0
    9.1385  -16.5127   27.2194 O   0  0  0  0  0  0  0  0  0  0  0  0
   10.8668  -15.3521   30.0248 C   0  0  0  0  0  0  0  0  0  0  0  0
   11.0084  -16.0127   31.2128 C   0  0  0  0  0  0  0  0  0  0  0  0
   10.7291  -18.1105   27.3197 O   0  0  0  0  0  0  0  0  0  0  0  0
  2  1  1  6
  3  4  1  0
  3  2  1  0
  4  5  2  0
  6  2  1  0
  6  7  2  0
  8  4  1  0
 10  9  1  0
 11 10  1  0
 12 11  1  0
 13 14  1  0
 13 12  1  1
 14  6  1  0
 15 24  1  0
 15 13  1  0
 16 15  2  0
 18 19  2  0
 18 17  1  0
 20 19  1  0
 21 20  2  0
 22 21  1  0
 23 24  1  0
 23 22  1  1
 25 23  1  0
 26 25  2  0
 27 21  1  0
 27 28  2  0
 28 18  1  0
 29 25  1  0
M  END
$$$$
