DMY.pdb
     RDKit          3D

 29 29  0  0  1  0  0  0  0  0999 V2000
   10.0246  -16.3045   19.7249 N   0  0  0  0  0  0  0  0  0  0  0  0
    9.6205  -17.1283   20.8470 C   0  0  1  0  0  0  0  0  0  0  0  0
   10.5465  -18.3244   21.0175 C   0  0  0  0  0  0  0  0  0  0  0  0
   10.4689  -19.0983   19.7646 C   0  0  0  0  0  0  0  0  0  0  0  0
    9.4740  -19.8133   19.5535 O   0  0  0  0  0  0  0  0  0  0  0  0
    9.5510  -16.2860   22.0622 C   0  0  0  0  0  0  0  0  0  0  0  0
   10.5844  -15.9926   22.7125 O   0  0  0  0  0  0  0  0  0  0  0  0
   11.4821  -19.0344   18.8273 O   0  0  0  0  0  0  0  0  0  0  0  0
    6.7831  -11.0480   26.3635 C   0  0  0  0  0  0  0  0  0  0  0  0
    7.1218  -12.0359   24.8615 S   0  0  0  0  0  0  0  0  0  0  0  0
    6.5830  -13.7571   25.2020 C   0  0  0  0  0  0  0  0  0  0  0  0
    6.7533  -14.5835   23.9392 C   0  0  0  0  0  0  0  0  0  0  0  0
    8.2054  -14.9550   23.7452 C   0  0  2  0  0  0  0  0  0  0  0  0
    8.3198  -15.7652   22.5560 N   0  0  0  0  0  0  0  0  0  0  0  0
    8.7344  -15.6773   24.9336 C   0  0  0  0  0  0  0  0  0  0  0  0
    8.5747  -16.9246   24.9559 O   0  0  0  0  0  0  0  0  0  0  0  0
   13.0258  -19.7228   31.0277 O   0  0  0  0  0  0  0  0  0  0  0  0
   12.5594  -19.0117   29.9436 C   0  0  0  0  0  0  0  0  0  0  0  0
   12.0149  -17.7604   30.1766 C   0  0  0  0  0  0  0  0  0  0  0  0
   11.5404  -17.0206   29.1169 C   0  0  0  0  0  0  0  0  0  0  0  0
   11.5779  -17.4658   27.8132 C   0  0  0  0  0  0  0  0  0  0  0  0
   11.0468  -16.6658   26.6910 C   0  0  0  0  0  0  0  0  0  0  0  0
    9.8722  -15.8465   27.1425 C   0  0  2  0  0  0  0  0  0  0  0  0
    9.3836  -15.0498   26.0004 N   0  0  0  0  0  0  0  0  0  0  0  0
   10.2615  -14.9389   28.2509 C   0  0  0  0  0  0  0  0  0  0  0  0
   10.7176  -13.8014   27.9529 O   0  0  0  0  0  0  0  0  0  0  0  0
   12.1324  -18.7277   27.6184 C   0  0  0  0  0  0  0  0  0  0  0  0
   12.6106  -19.4827   28.6524 C   0  0  0  0  0  0  0  0  0  0  0  0
   10.1569  -15.2480   29.5918 O   0  0  0  0  0  0  0  0  0  0  0  0
  2  1  1  6
  3  4  1  0
  3  2  1  0
  4  5  2  0
  6  2  1  0
  6  7  2  0
  8  4  1  0
 10  9  1  0
 11 10  1  0
 12 11  1  0
 13 14  1  0
 13 12  1  1
 14  6  1  0
 15 24  1  0
 15 13  1  0
 16 15  2  0
 18 19  2  0
 18 17  1  0
 20 19  1  0
 21 20  2  0
 22 21  1  0
 23 24  1  0
 23 22  1  6
 25 23  1  0
 26 25  2  0
 27 21  1  0
 27 28  2  0
 28 18  1  0
 29 25  1  0
M  END
$$$$
