DMY.pdb
     RDKit          3D

 29 29  0  0  1  0  0  0  0  0999 V2000
    8.6740  -16.5371   20.1265 N   0  0  0  0  0  0  0  0  0  0  0  0
   10.0502  -16.6830   20.5573 C   0  0  1  0  0  0  0  0  0  0  0  0
   10.9961  -15.8890   19.6672 C   0  0  0  0  0  0  0  0  0  0  0  0
   11.0988  -16.6298   18.3962 C   0  0  0  0  0  0  0  0  0  0  0  0
   10.3573  -17.6088   18.2026 O   0  0  0  0  0  0  0  0  0  0  0  0
   10.1522  -16.2958   21.9823 C   0  0  0  0  0  0  0  0  0  0  0  0
   11.2669  -16.1074   22.5290 O   0  0  0  0  0  0  0  0  0  0  0  0
   12.0020  -16.2471   17.4231 O   0  0  0  0  0  0  0  0  0  0  0  0
    7.3484  -11.9339   26.0313 C   0  0  0  0  0  0  0  0  0  0  0  0
    6.2980  -13.3340   25.4992 S   0  0  0  0  0  0  0  0  0  0  0  0
    7.2038  -14.2302   24.1781 C   0  0  0  0  0  0  0  0  0  0  0  0
    7.6632  -15.5719   24.7216 C   0  0  0  0  0  0  0  0  0  0  0  0
    9.0562  -15.8900   24.2293 C   0  0  2  0  0  0  0  0  0  0  0  0
    9.0022  -16.1155   22.8046 N   0  0  0  0  0  0  0  0  0  0  0  0
    9.6131  -17.0759   24.9345 C   0  0  0  0  0  0  0  0  0  0  0  0
    9.3961  -18.1993   24.4124 O   0  0  0  0  0  0  0  0  0  0  0  0
   10.0785  -13.0494   30.1527 O   0  0  0  0  0  0  0  0  0  0  0  0
   10.5678  -14.2021   29.5780 C   0  0  0  0  0  0  0  0  0  0  0  0
   11.0275  -14.1300   28.2742 C   0  0  0  0  0  0  0  0  0  0  0  0
   11.5249  -15.2617   27.6683 C   0  0  0  0  0  0  0  0  0  0  0  0
   11.5911  -16.4848   28.2998 C   0  0  0  0  0  0  0  0  0  0  0  0
   12.1108  -17.6926   27.6273 C   0  0  0  0  0  0  0  0  0  0  0  0
   11.1518  -18.1553   26.5686 C   0  0  2  0  0  0  0  0  0  0  0  0
   10.3473  -17.0017   26.1215 N   0  0  0  0  0  0  0  0  0  0  0  0
   10.2537  -19.2109   27.1003 C   0  0  0  0  0  0  0  0  0  0  0  0
    9.0134  -18.9826   27.1132 O   0  0  0  0  0  0  0  0  0  0  0  0
   11.1201  -16.5180   29.6094 C   0  0  0  0  0  0  0  0  0  0  0  0
   10.6213  -15.4096   30.2342 C   0  0  0  0  0  0  0  0  0  0  0  0
   10.6776  -20.4332   27.5810 O   0  0  0  0  0  0  0  0  0  0  0  0
  2  1  1  6
  3  4  1  0
  3  2  1  0
  4  5  2  0
  6  2  1  0
  6  7  2  0
  8  4  1  0
 10  9  1  0
 11 10  1  0
 12 11  1  0
 13 14  1  0
 13 12  1  1
 14  6  1  0
 15 24  1  0
 15 13  1  0
 16 15  2  0
 18 19  2  0
 18 17  1  0
 20 19  1  0
 21 20  2  0
 22 21  1  0
 23 24  1  0
 23 22  1  1
 25 23  1  0
 26 25  2  0
 27 21  1  0
 27 28  2  0
 28 18  1  0
 29 25  1  0
M  END
$$$$
