VPT.pdb
     RDKit          3D

 22 22  0  0  1  0  0  0  0  0999 V2000
    3.5931  -18.7166   20.3461 C   0  0  0  0  0  0  0  0  0  0  0  0
    4.9295  -18.2438   20.8803 C   0  0  2  0  0  0  0  0  0  0  0  0
    4.6532  -17.2644   22.0009 C   0  0  0  0  0  0  0  0  0  0  0  0
    5.6901  -17.4756   19.7799 C   0  0  2  0  0  0  0  0  0  0  0  0
    5.7922  -18.3140   18.6049 N   0  0  0  0  0  0  0  0  0  0  0  0
    7.0771  -17.1758   20.2818 C   0  0  0  0  0  0  0  0  0  0  0  0
    7.7050  -18.2268   20.6290 O   0  0  0  0  0  0  0  0  0  0  0  0
    7.5823  -15.8743   20.3442 N   0  0  0  0  0  0  0  0  0  0  0  0
    7.0831  -14.7877   19.4787 C   0  0  0  0  0  0  0  0  0  0  0  0
    6.8023  -13.7570   20.5467 C   0  0  0  0  0  0  0  0  0  0  0  0
    7.8661  -13.9782   21.5948 C   0  0  0  0  0  0  0  0  0  0  0  0
    8.6046  -15.2535   21.0801 C   0  0  1  0  0  0  0  0  0  0  0  0
    9.2398  -15.9290   22.1898 C   0  0  0  0  0  0  0  0  0  0  0  0
    8.6912  -16.1326   23.2764 O   0  0  0  0  0  0  0  0  0  0  0  0
   10.9542  -19.3041   21.9385 C   0  0  0  0  0  0  0  0  0  0  0  0
   11.9536  -18.3202   22.5052 C   0  0  1  0  0  0  0  0  0  0  0  0
   12.8390  -17.8564   21.5259 O   0  0  0  0  0  0  0  0  0  0  0  0
   11.2275  -17.1345   23.1586 C   0  0  2  0  0  0  0  0  0  0  0  0
   10.5891  -16.4106   22.0693 N   0  0  0  0  0  0  0  0  0  0  0  0
   12.2731  -16.3208   23.8062 C   0  0  0  0  0  0  0  0  0  0  0  0
   12.6899  -15.2917   23.2448 O   0  0  0  0  0  0  0  0  0  0  0  0
   12.7882  -16.6932   25.0246 O   0  0  0  0  0  0  0  0  0  0  0  0
  2  1  1  6
  2  4  1  0
  2  3  1  0
  4  6  1  0
  4  5  1  6
  6  8  1  0
  6  7  2  0
  8 12  1  0
  9 10  1  0
  9  8  1  0
 10 11  1  0
 11 12  1  0
 12 13  1  1
 13 19  1  0
 13 14  2  0
 16 18  1  0
 16 15  1  6
 17 16  1  0
 18 20  1  0
 18 19  1  6
 20 22  1  0
 21 20  2  0
M  END
$$$$
