VPT.pdb
     RDKit          3D

 22 22  0  0  1  0  0  0  0  0999 V2000
    7.1601  -13.5406   19.2344 C   0  0  0  0  0  0  0  0  0  0  0  0
    7.4248  -14.2154   20.5646 C   0  0  2  0  0  0  0  0  0  0  0  0
    6.0849  -14.4866   21.2143 C   0  0  0  0  0  0  0  0  0  0  0  0
    8.1965  -13.2556   21.4932 C   0  0  2  0  0  0  0  0  0  0  0  0
    9.4539  -12.9051   20.8686 N   0  0  0  0  0  0  0  0  0  0  0  0
    8.4819  -13.9719   22.7859 C   0  0  0  0  0  0  0  0  0  0  0  0
    9.1867  -15.0178   22.6154 O   0  0  0  0  0  0  0  0  0  0  0  0
    8.0076  -13.5082   24.0159 N   0  0  0  0  0  0  0  0  0  0  0  0
    7.5821  -12.1103   24.2254 C   0  0  0  0  0  0  0  0  0  0  0  0
    6.2235  -12.3744   24.8306 C   0  0  0  0  0  0  0  0  0  0  0  0
    6.3901  -13.6444   25.6298 C   0  0  0  0  0  0  0  0  0  0  0  0
    7.8474  -14.0855   25.2859 C   0  0  1  0  0  0  0  0  0  0  0  0
    7.9820  -15.5124   25.4783 C   0  0  0  0  0  0  0  0  0  0  0  0
    7.0526  -16.3144   25.3509 O   0  0  0  0  0  0  0  0  0  0  0  0
   10.2498  -17.8023   23.6747 C   0  0  0  0  0  0  0  0  0  0  0  0
   10.6078  -17.9153   25.1400 C   0  0  1  0  0  0  0  0  0  0  0  0
   11.7210  -17.1322   25.4649 O   0  0  0  0  0  0  0  0  0  0  0  0
    9.4117  -17.5146   26.0168 C   0  0  2  0  0  0  0  0  0  0  0  0
    9.2530  -16.0788   25.8400 N   0  0  0  0  0  0  0  0  0  0  0  0
    9.7901  -17.8480   27.4025 C   0  0  0  0  0  0  0  0  0  0  0  0
   10.0763  -16.9370   28.2000 O   0  0  0  0  0  0  0  0  0  0  0  0
    9.8281  -19.1579   27.8163 O   0  0  0  0  0  0  0  0  0  0  0  0
  2  1  1  6
  2  4  1  0
  2  3  1  0
  4  6  1  0
  4  5  1  6
  6  8  1  0
  6  7  2  0
  8 12  1  0
  9 10  1  0
  9  8  1  0
 10 11  1  0
 11 12  1  0
 12 13  1  6
 13 19  1  0
 13 14  2  0
 16 18  1  0
 16 15  1  6
 17 16  1  0
 18 20  1  0
 18 19  1  1
 20 22  1  0
 21 20  2  0
M  END
$$$$
