VPT.pdb
     RDKit          3D

 22 22  0  0  1  0  0  0  0  0999 V2000
    7.1660  -19.2929   17.8929 C   0  0  0  0  0  0  0  0  0  0  0  0
    7.6984  -18.7742   19.2129 C   0  0  2  0  0  0  0  0  0  0  0  0
    6.5186  -18.6012   20.1454 C   0  0  0  0  0  0  0  0  0  0  0  0
    8.3288  -17.3810   19.0110 C   0  0  2  0  0  0  0  0  0  0  0  0
    9.3454  -17.4681   17.9849 N   0  0  0  0  0  0  0  0  0  0  0  0
    8.9797  -16.9624   20.3020 C   0  0  0  0  0  0  0  0  0  0  0  0
    9.6682  -17.8970   20.8234 O   0  0  0  0  0  0  0  0  0  0  0  0
    8.8211  -15.6806   20.8357 N   0  0  0  0  0  0  0  0  0  0  0  0
    8.4790  -14.5114   20.0019 C   0  0  0  0  0  0  0  0  0  0  0  0
    7.3014  -14.0009   20.7984 C   0  0  0  0  0  0  0  0  0  0  0  0
    7.6359  -14.3128   22.2371 C   0  0  0  0  0  0  0  0  0  0  0  0
    8.9616  -15.1285   22.1192 C   0  0  1  0  0  0  0  0  0  0  0  0
    9.1171  -15.9746   23.2815 C   0  0  0  0  0  0  0  0  0  0  0  0
    8.1879  -16.5847   23.8177 O   0  0  0  0  0  0  0  0  0  0  0  0
   11.3164  -18.8876   23.5995 C   0  0  0  0  0  0  0  0  0  0  0  0
   11.7287  -17.9554   24.7172 C   0  0  1  0  0  0  0  0  0  0  0  0
   12.8821  -17.2328   24.3924 O   0  0  0  0  0  0  0  0  0  0  0  0
   10.5844  -16.9892   25.0593 C   0  0  2  0  0  0  0  0  0  0  0  0
   10.4107  -16.1476   23.8848 N   0  0  0  0  0  0  0  0  0  0  0  0
   11.0443  -16.2051   26.2205 C   0  0  0  0  0  0  0  0  0  0  0  0
   11.3757  -15.0156   26.0694 O   0  0  0  0  0  0  0  0  0  0  0  0
   11.1081  -16.7812   27.4665 O   0  0  0  0  0  0  0  0  0  0  0  0
  2  1  1  6
  2  4  1  0
  2  3  1  0
  4  6  1  0
  4  5  1  6
  6  8  1  0
  6  7  2  0
  8 12  1  0
  9 10  1  0
  9  8  1  0
 10 11  1  0
 11 12  1  0
 12 13  1  1
 13 19  1  0
 13 14  2  0
 16 18  1  0
 16 15  1  6
 17 16  1  0
 18 20  1  0
 18 19  1  6
 20 22  1  0
 21 20  2  0
M  END
$$$$
