VPT.pdb
     RDKit          3D

 22 22  0  0  1  0  0  0  0  0999 V2000
    7.1325  -13.6959   19.4213 C   0  0  0  0  0  0  0  0  0  0  0  0
    7.4033  -14.3883   20.7412 C   0  0  2  0  0  0  0  0  0  0  0  0
    6.0751  -14.5666   21.4449 C   0  0  0  0  0  0  0  0  0  0  0  0
    8.2763  -13.4847   21.6361 C   0  0  2  0  0  0  0  0  0  0  0  0
    9.5388  -13.2425   20.9719 N   0  0  0  0  0  0  0  0  0  0  0  0
    8.5411  -14.2093   22.9285 C   0  0  0  0  0  0  0  0  0  0  0  0
    9.2316  -15.2650   22.7600 O   0  0  0  0  0  0  0  0  0  0  0  0
    8.0644  -13.7424   24.1564 N   0  0  0  0  0  0  0  0  0  0  0  0
    7.6185  -12.3494   24.3558 C   0  0  0  0  0  0  0  0  0  0  0  0
    6.2663  -12.6290   24.9684 C   0  0  0  0  0  0  0  0  0  0  0  0
    6.4551  -13.8894   25.7775 C   0  0  0  0  0  0  0  0  0  0  0  0
    7.9176  -14.3114   25.4318 C   0  0  1  0  0  0  0  0  0  0  0  0
    8.0745  -15.7344   25.6357 C   0  0  0  0  0  0  0  0  0  0  0  0
    7.1572  -16.5516   25.5175 O   0  0  0  0  0  0  0  0  0  0  0  0
   10.3390  -18.0863   23.8978 C   0  0  0  0  0  0  0  0  0  0  0  0
   10.7137  -18.1352   25.3625 C   0  0  1  0  0  0  0  0  0  0  0  0
   11.8257  -17.3329   25.6415 O   0  0  0  0  0  0  0  0  0  0  0  0
    9.5249  -17.7042   26.2348 C   0  0  2  0  0  0  0  0  0  0  0  0
    9.3551  -16.2783   25.9983 N   0  0  0  0  0  0  0  0  0  0  0  0
    9.9210  -17.9753   27.6293 C   0  0  0  0  0  0  0  0  0  0  0  0
   10.2014  -17.0287   28.3861 O   0  0  0  0  0  0  0  0  0  0  0  0
    9.9815  -19.2666   28.0956 O   0  0  0  0  0  0  0  0  0  0  0  0
  2  1  1  6
  2  4  1  0
  2  3  1  0
  4  6  1  0
  4  5  1  6
  6  8  1  0
  6  7  2  0
  8 12  1  0
  9 10  1  0
  9  8  1  0
 10 11  1  0
 11 12  1  0
 12 13  1  6
 13 19  1  0
 13 14  2  0
 16 18  1  0
 16 15  1  6
 17 16  1  0
 18 20  1  0
 18 19  1  1
 20 22  1  0
 21 20  2  0
M  END
$$$$
