VPT.pdb
     RDKit          3D

 22 22  0  0  1  0  0  0  0  0999 V2000
    5.2339  -18.8523   22.5044 C   0  0  0  0  0  0  0  0  0  0  0  0
    4.6433  -17.7474   21.6529 C   0  0  2  0  0  0  0  0  0  0  0  0
    3.2740  -18.2039   21.1971 C   0  0  0  0  0  0  0  0  0  0  0  0
    5.5022  -17.5467   20.3875 C   0  0  2  0  0  0  0  0  0  0  0  0
    5.4758  -18.7620   19.6026 N   0  0  0  0  0  0  0  0  0  0  0  0
    6.9204  -17.2771   20.8136 C   0  0  0  0  0  0  0  0  0  0  0  0
    7.5197  -18.3315   21.1993 O   0  0  0  0  0  0  0  0  0  0  0  0
    7.4800  -15.9971   20.7753 N   0  0  0  0  0  0  0  0  0  0  0  0
    7.0336  -14.9650   19.8190 C   0  0  0  0  0  0  0  0  0  0  0  0
    6.7893  -13.8397   20.7967 C   0  0  0  0  0  0  0  0  0  0  0  0
    7.8352  -14.0187   21.8705 C   0  0  0  0  0  0  0  0  0  0  0  0
    8.5225  -15.3615   21.4691 C   0  0  1  0  0  0  0  0  0  0  0  0
    9.1205  -15.9700   22.6367 C   0  0  0  0  0  0  0  0  0  0  0  0
    8.5876  -15.9928   23.7497 O   0  0  0  0  0  0  0  0  0  0  0  0
   10.6681  -19.5186   22.6093 C   0  0  0  0  0  0  0  0  0  0  0  0
   11.6902  -18.5291   23.1234 C   0  0  1  0  0  0  0  0  0  0  0  0
   12.5983  -18.1549   22.1268 O   0  0  0  0  0  0  0  0  0  0  0  0
   10.9928  -17.2836   23.6910 C   0  0  2  0  0  0  0  0  0  0  0  0
   10.4105  -16.5984   22.5468 N   0  0  0  0  0  0  0  0  0  0  0  0
   12.0512  -16.4738   24.3223 C   0  0  0  0  0  0  0  0  0  0  0  0
   12.5565  -15.5240   23.6977 O   0  0  0  0  0  0  0  0  0  0  0  0
   12.4811  -16.7629   25.5952 O   0  0  0  0  0  0  0  0  0  0  0  0
  2  1  1  1
  2  4  1  0
  2  3  1  0
  4  6  1  0
  4  5  1  6
  6  8  1  0
  6  7  2  0
  8 12  1  0
  9 10  1  0
  9  8  1  0
 10 11  1  0
 11 12  1  0
 12 13  1  1
 13 19  1  0
 13 14  2  0
 16 18  1  0
 16 15  1  6
 17 16  1  0
 18 20  1  0
 18 19  1  6
 20 22  1  0
 21 20  2  0
M  END
$$$$
