VPT.pdb
     RDKit          3D

 22 22  0  0  1  0  0  0  0  0999 V2000
    6.4646  -15.8127   19.9278 C   0  0  0  0  0  0  0  0  0  0  0  0
    7.0932  -16.0261   21.2895 C   0  0  2  0  0  0  0  0  0  0  0  0
    5.9709  -16.2374   22.2830 C   0  0  0  0  0  0  0  0  0  0  0  0
    7.8509  -14.7536   21.7206 C   0  0  2  0  0  0  0  0  0  0  0  0
    8.8367  -14.4281   20.7126 N   0  0  0  0  0  0  0  0  0  0  0  0
    8.5610  -15.0395   23.0166 C   0  0  0  0  0  0  0  0  0  0  0  0
    9.3760  -16.0120   22.9188 O   0  0  0  0  0  0  0  0  0  0  0  0
    8.3238  -14.2968   24.1764 N   0  0  0  0  0  0  0  0  0  0  0  0
    7.8806  -12.8892   24.1396 C   0  0  0  0  0  0  0  0  0  0  0  0
    6.6880  -13.0022   25.0599 C   0  0  0  0  0  0  0  0  0  0  0  0
    7.0764  -14.0458   26.0792 C   0  0  0  0  0  0  0  0  0  0  0  0
    8.4537  -14.5558   25.5505 C   0  0  1  0  0  0  0  0  0  0  0  0
    8.6954  -15.8961   26.0366 C   0  0  0  0  0  0  0  0  0  0  0  0
    7.8151  -16.7523   26.1602 O   0  0  0  0  0  0  0  0  0  0  0  0
   12.0377  -19.4360   26.7617 C   0  0  0  0  0  0  0  0  0  0  0  0
   11.6732  -18.0268   26.3498 C   0  0  1  0  0  0  0  0  0  0  0  0
   11.7010  -17.8680   24.9599 O   0  0  0  0  0  0  0  0  0  0  0  0
   10.2858  -17.6515   26.8922 C   0  0  2  0  0  0  0  0  0  0  0  0
   10.0225  -16.3036   26.4108 N   0  0  0  0  0  0  0  0  0  0  0  0
   10.3979  -17.6860   28.3623 C   0  0  0  0  0  0  0  0  0  0  0  0
   10.6934  -16.6491   28.9829 O   0  0  0  0  0  0  0  0  0  0  0  0
   10.1780  -18.8561   29.0485 O   0  0  0  0  0  0  0  0  0  0  0  0
  2  1  1  6
  2  4  1  0
  2  3  1  0
  4  6  1  0
  4  5  1  6
  6  8  1  0
  6  7  2  0
  8 12  1  0
  9 10  1  0
  9  8  1  0
 10 11  1  0
 11 12  1  0
 12 13  1  6
 13 19  1  0
 13 14  2  0
 16 18  1  0
 16 15  1  6
 17 16  1  0
 18 20  1  0
 18 19  1  1
 20 22  1  0
 21 20  2  0
M  END
$$$$
