VPT.pdb
     RDKit          3D

 22 22  0  0  1  0  0  0  0  0999 V2000
    6.7751  -15.6131   20.6724 C   0  0  0  0  0  0  0  0  0  0  0  0
    7.2846  -15.6717   22.0978 C   0  0  2  0  0  0  0  0  0  0  0  0
    6.0866  -15.8572   23.0042 C   0  0  0  0  0  0  0  0  0  0  0  0
    7.9385  -14.3265   22.4749 C   0  0  2  0  0  0  0  0  0  0  0  0
    8.9903  -14.0316   21.5260 N   0  0  0  0  0  0  0  0  0  0  0  0
    8.5471  -14.4616   23.8449 C   0  0  0  0  0  0  0  0  0  0  0  0
    9.3750  -15.4256   23.9149 O   0  0  0  0  0  0  0  0  0  0  0  0
    8.2140  -13.6039   24.8967 N   0  0  0  0  0  0  0  0  0  0  0  0
    7.7338  -12.2258   24.6742 C   0  0  0  0  0  0  0  0  0  0  0  0
    6.4878  -12.2788   25.5266 C   0  0  0  0  0  0  0  0  0  0  0  0
    6.8393  -13.1884   26.6791 C   0  0  0  0  0  0  0  0  0  0  0  0
    8.2620  -13.7042   26.2966 C   0  0  1  0  0  0  0  0  0  0  0  0
    8.5101  -14.9728   26.9448 C   0  0  0  0  0  0  0  0  0  0  0  0
    7.6469  -15.8380   27.1168 O   0  0  0  0  0  0  0  0  0  0  0  0
   10.9167  -17.5435   25.9906 C   0  0  0  0  0  0  0  0  0  0  0  0
   11.2816  -17.1819   27.4133 C   0  0  1  0  0  0  0  0  0  0  0  0
   12.3810  -16.3178   27.4643 O   0  0  0  0  0  0  0  0  0  0  0  0
   10.0811  -16.5449   28.1295 C   0  0  2  0  0  0  0  0  0  0  0  0
    9.8234  -15.2921   27.4351 N   0  0  0  0  0  0  0  0  0  0  0  0
   10.5113  -16.3110   29.5205 C   0  0  0  0  0  0  0  0  0  0  0  0
   10.6938  -15.1479   29.9225 O   0  0  0  0  0  0  0  0  0  0  0  0
   10.7111  -17.3700   30.3733 O   0  0  0  0  0  0  0  0  0  0  0  0
  2  1  1  6
  2  4  1  0
  2  3  1  0
  4  6  1  0
  4  5  1  6
  6  8  1  0
  6  7  2  0
  8 12  1  0
  9 10  1  0
  9  8  1  0
 10 11  1  0
 11 12  1  0
 12 13  1  6
 13 19  1  0
 13 14  2  0
 16 18  1  0
 16 15  1  6
 17 16  1  0
 18 20  1  0
 18 19  1  6
 20 22  1  0
 21 20  2  0
M  END
$$$$
