VPT.pdb
     RDKit          3D

 22 22  0  0  1  0  0  0  0  0999 V2000
    6.5844  -19.2547   17.9914 C   0  0  0  0  0  0  0  0  0  0  0  0
    7.2755  -18.7941   19.2583 C   0  0  2  0  0  0  0  0  0  0  0  0
    6.2035  -18.5322   20.2944 C   0  0  0  0  0  0  0  0  0  0  0  0
    7.9993  -17.4563   19.0021 C   0  0  2  0  0  0  0  0  0  0  0  0
    8.9017  -17.6159   17.8822 N   0  0  0  0  0  0  0  0  0  0  0  0
    8.8041  -17.1094   20.2258 C   0  0  0  0  0  0  0  0  0  0  0  0
    9.5109  -18.0857   20.6343 O   0  0  0  0  0  0  0  0  0  0  0  0
    8.7532  -15.8446   20.8180 N   0  0  0  0  0  0  0  0  0  0  0  0
    8.3672  -14.6331   20.0680 C   0  0  0  0  0  0  0  0  0  0  0  0
    7.3033  -14.1141   21.0063 C   0  0  0  0  0  0  0  0  0  0  0  0
    7.7800  -14.4927   22.3878 C   0  0  0  0  0  0  0  0  0  0  0  0
    9.0530  -15.3477   22.0967 C   0  0  1  0  0  0  0  0  0  0  0  0
    9.3016  -16.2430   23.2048 C   0  0  0  0  0  0  0  0  0  0  0  0
    8.4153  -16.8573   23.8051 O   0  0  0  0  0  0  0  0  0  0  0  0
   11.4513  -19.1899   23.0871 C   0  0  0  0  0  0  0  0  0  0  0  0
   11.9983  -18.3510   24.2207 C   0  0  1  0  0  0  0  0  0  0  0  0
   13.1264  -17.6212   23.8298 O   0  0  0  0  0  0  0  0  0  0  0  0
   10.9171  -17.3985   24.7532 C   0  0  2  0  0  0  0  0  0  0  0  0
   10.6433  -16.4640   23.6717 N   0  0  0  0  0  0  0  0  0  0  0  0
   11.5106  -16.7156   25.9177 C   0  0  0  0  0  0  0  0  0  0  0  0
   11.8725  -15.5295   25.8188 O   0  0  0  0  0  0  0  0  0  0  0  0
   11.6656  -17.3822   27.1094 O   0  0  0  0  0  0  0  0  0  0  0  0
  2  1  1  6
  2  4  1  0
  2  3  1  0
  4  6  1  0
  4  5  1  6
  6  8  1  0
  6  7  2  0
  8 12  1  0
  9 10  1  0
  9  8  1  0
 10 11  1  0
 11 12  1  0
 12 13  1  1
 13 19  1  0
 13 14  2  0
 16 18  1  0
 16 15  1  6
 17 16  1  0
 18 20  1  0
 18 19  1  6
 20 22  1  0
 21 20  2  0
M  END
$$$$
