VPT.pdb
     RDKit          3D

 22 22  0  0  1  0  0  0  0  0999 V2000
    7.0399  -13.8460   18.8570 C   0  0  0  0  0  0  0  0  0  0  0  0
    7.5680  -14.4806   20.1271 C   0  0  2  0  0  0  0  0  0  0  0  0
    6.3872  -15.0688   20.8694 C   0  0  0  0  0  0  0  0  0  0  0  0
    8.1845  -13.3971   21.0356 C   0  0  2  0  0  0  0  0  0  0  0  0
    9.2455  -12.7265   20.3155 N   0  0  0  0  0  0  0  0  0  0  0  0
    8.7726  -14.0704   22.2465 C   0  0  0  0  0  0  0  0  0  0  0  0
    9.6018  -14.9851   21.9380 O   0  0  0  0  0  0  0  0  0  0  0  0
    8.4212  -13.7031   23.5482 N   0  0  0  0  0  0  0  0  0  0  0  0
    7.9574  -12.3441   23.8906 C   0  0  0  0  0  0  0  0  0  0  0  0
    6.6910  -12.7146   24.6261 C   0  0  0  0  0  0  0  0  0  0  0  0
    7.0076  -14.0170   25.3210 C   0  0  0  0  0  0  0  0  0  0  0  0
    8.4349  -14.3591   24.7898 C   0  0  1  0  0  0  0  0  0  0  0  0
    8.6574  -15.7853   24.8767 C   0  0  0  0  0  0  0  0  0  0  0  0
    7.8125  -16.6330   24.5755 O   0  0  0  0  0  0  0  0  0  0  0  0
   11.4627  -17.8120   23.3877 C   0  0  0  0  0  0  0  0  0  0  0  0
   11.5066  -18.0222   24.8850 C   0  0  1  0  0  0  0  0  0  0  0  0
   12.4884  -17.2314   25.4923 O   0  0  0  0  0  0  0  0  0  0  0  0
   10.1347  -17.7246   25.5088 C   0  0  2  0  0  0  0  0  0  0  0  0
    9.9210  -16.2956   25.3352 N   0  0  0  0  0  0  0  0  0  0  0  0
   10.2470  -18.0830   26.9349 C   0  0  0  0  0  0  0  0  0  0  0  0
   10.2833  -17.1854   27.7955 O   0  0  0  0  0  0  0  0  0  0  0  0
   10.3118  -19.4015   27.3168 O   0  0  0  0  0  0  0  0  0  0  0  0
  2  1  1  6
  2  4  1  0
  2  3  1  0
  4  6  1  0
  4  5  1  6
  6  8  1  0
  6  7  2  0
  8 12  1  0
  9 10  1  0
  9  8  1  0
 10 11  1  0
 11 12  1  0
 12 13  1  6
 13 19  1  0
 13 14  2  0
 16 18  1  0
 16 15  1  6
 17 16  1  0
 18 20  1  0
 18 19  1  1
 20 22  1  0
 21 20  2  0
M  END
$$$$
