VPT.pdb
     RDKit          3D

 22 22  0  0  1  0  0  0  0  0999 V2000
    6.8550  -15.3896   19.7432 C   0  0  0  0  0  0  0  0  0  0  0  0
    7.3192  -15.7458   21.1404 C   0  0  2  0  0  0  0  0  0  0  0  0
    6.0859  -15.9887   21.9839 C   0  0  0  0  0  0  0  0  0  0  0  0
    8.0696  -14.5505   21.7626 C   0  0  2  0  0  0  0  0  0  0  0  0
    9.1951  -14.2102   20.9192 N   0  0  0  0  0  0  0  0  0  0  0  0
    8.5863  -14.9650   23.1142 C   0  0  0  0  0  0  0  0  0  0  0  0
    9.3332  -15.9936   23.0533 O   0  0  0  0  0  0  0  0  0  0  0  0
    8.2591  -14.2714   24.2824 N   0  0  0  0  0  0  0  0  0  0  0  0
    7.8795  -12.8449   24.2775 C   0  0  0  0  0  0  0  0  0  0  0  0
    6.5934  -12.9490   25.0630 C   0  0  0  0  0  0  0  0  0  0  0  0
    6.8302  -14.0593   26.0581 C   0  0  0  0  0  0  0  0  0  0  0  0
    8.2336  -14.6049   25.6463 C   0  0  1  0  0  0  0  0  0  0  0  0
    8.3685  -15.9776   26.0806 C   0  0  0  0  0  0  0  0  0  0  0  0
    7.4333  -16.7821   26.1190 O   0  0  0  0  0  0  0  0  0  0  0  0
   10.7183  -18.4940   24.6591 C   0  0  0  0  0  0  0  0  0  0  0  0
   11.0300  -18.3934   26.1359 C   0  0  1  0  0  0  0  0  0  0  0  0
   12.1355  -17.5706   26.3788 O   0  0  0  0  0  0  0  0  0  0  0  0
    9.8087  -17.8709   26.9074 C   0  0  2  0  0  0  0  0  0  0  0  0
    9.6469  -16.4826   26.5021 N   0  0  0  0  0  0  0  0  0  0  0  0
   10.1516  -17.9779   28.3377 C   0  0  0  0  0  0  0  0  0  0  0  0
   10.4527  -16.9547   28.9780 O   0  0  0  0  0  0  0  0  0  0  0  0
   10.1402  -19.2004   28.9653 O   0  0  0  0  0  0  0  0  0  0  0  0
  2  1  1  6
  2  4  1  0
  2  3  1  0
  4  6  1  0
  4  5  1  6
  6  8  1  0
  6  7  2  0
  8 12  1  0
  9 10  1  0
  9  8  1  0
 10 11  1  0
 11 12  1  0
 12 13  1  6
 13 19  1  0
 13 14  2  0
 16 18  1  0
 16 15  1  6
 17 16  1  0
 18 20  1  0
 18 19  1  6
 20 22  1  0
 21 20  2  0
M  END
$$$$
