VPT.pdb
     RDKit          3D

 22 22  0  0  1  0  0  0  0  0999 V2000
    7.5809  -16.7696   22.3133 C   0  0  0  0  0  0  0  0  0  0  0  0
    6.8349  -15.4524   22.2571 C   0  0  2  0  0  0  0  0  0  0  0  0
    6.1853  -15.3527   20.8935 C   0  0  0  0  0  0  0  0  0  0  0  0
    7.8321  -14.2814   22.3744 C   0  0  2  0  0  0  0  0  0  0  0  0
    8.8090  -14.3864   21.3121 N   0  0  0  0  0  0  0  0  0  0  0  0
    8.5421  -14.3926   23.6969 C   0  0  0  0  0  0  0  0  0  0  0  0
    9.4640  -15.2697   23.6802 O   0  0  0  0  0  0  0  0  0  0  0  0
    8.1975  -13.6027   24.7970 N   0  0  0  0  0  0  0  0  0  0  0  0
    7.5940  -12.2632   24.6532 C   0  0  0  0  0  0  0  0  0  0  0  0
    6.4051  -12.4503   25.5662 C   0  0  0  0  0  0  0  0  0  0  0  0
    6.8928  -13.3660   26.6629 C   0  0  0  0  0  0  0  0  0  0  0  0
    8.3301  -13.7466   26.1876 C   0  0  1  0  0  0  0  0  0  0  0  0
    8.7170  -15.0112   26.7725 C   0  0  0  0  0  0  0  0  0  0  0  0
    7.9807  -16.0005   26.8214 O   0  0  0  0  0  0  0  0  0  0  0  0
   12.2096  -18.1357   28.0289 C   0  0  0  0  0  0  0  0  0  0  0  0
   11.7362  -16.8403   27.4076 C   0  0  1  0  0  0  0  0  0  0  0  0
   11.6083  -16.9466   26.0182 O   0  0  0  0  0  0  0  0  0  0  0  0
   10.3980  -16.4069   28.0251 C   0  0  2  0  0  0  0  0  0  0  0  0
   10.0262  -15.1760   27.3435 N   0  0  0  0  0  0  0  0  0  0  0  0
   10.6651  -16.1705   29.4561 C   0  0  0  0  0  0  0  0  0  0  0  0
   10.8478  -15.0102   29.8660 O   0  0  0  0  0  0  0  0  0  0  0  0
   10.7130  -17.2240   30.3371 O   0  0  0  0  0  0  0  0  0  0  0  0
  2  1  1  6
  2  4  1  0
  2  3  1  0
  4  6  1  0
  4  5  1  6
  6  8  1  0
  6  7  2  0
  8 12  1  0
  9 10  1  0
  9  8  1  0
 10 11  1  0
 11 12  1  0
 12 13  1  6
 13 19  1  0
 13 14  2  0
 16 18  1  0
 16 15  1  1
 17 16  1  0
 18 20  1  0
 18 19  1  6
 20 22  1  0
 21 20  2  0
M  END
$$$$
