VPT.pdb
     RDKit          3D

 22 22  0  0  1  0  0  0  0  0999 V2000
    7.0874  -18.3818   16.3889 C   0  0  0  0  0  0  0  0  0  0  0  0
    7.6830  -17.9038   17.6972 C   0  0  2  0  0  0  0  0  0  0  0  0
    6.5381  -17.6421   18.6521 C   0  0  0  0  0  0  0  0  0  0  0  0
    8.4122  -16.5620   17.4801 C   0  0  2  0  0  0  0  0  0  0  0  0
    9.4240  -16.7352   16.4603 N   0  0  0  0  0  0  0  0  0  0  0  0
    9.0862  -16.1735   18.7687 C   0  0  0  0  0  0  0  0  0  0  0  0
    9.8396  -17.0951   19.2189 O   0  0  0  0  0  0  0  0  0  0  0  0
    8.8814  -14.9297   19.3719 N   0  0  0  0  0  0  0  0  0  0  0  0
    8.5635  -13.7149   18.5958 C   0  0  0  0  0  0  0  0  0  0  0  0
    7.3397  -13.2697   19.3612 C   0  0  0  0  0  0  0  0  0  0  0  0
    7.6065  -13.6669   20.7930 C   0  0  0  0  0  0  0  0  0  0  0  0
    8.9487  -14.4574   20.6927 C   0  0  1  0  0  0  0  0  0  0  0  0
    9.0588  -15.3726   21.8068 C   0  0  0  0  0  0  0  0  0  0  0  0
    8.0943  -15.9343   22.3336 O   0  0  0  0  0  0  0  0  0  0  0  0
   10.7694  -18.5241   21.9098 C   0  0  0  0  0  0  0  0  0  0  0  0
   11.4223  -17.7121   23.0064 C   0  0  1  0  0  0  0  0  0  0  0  0
   12.6367  -17.1564   22.5888 O   0  0  0  0  0  0  0  0  0  0  0  0
   10.4760  -16.6016   23.4873 C   0  0  2  0  0  0  0  0  0  0  0  0
   10.3460  -15.6789   22.3694 N   0  0  0  0  0  0  0  0  0  0  0  0
   11.1440  -15.9640   24.6370 C   0  0  0  0  0  0  0  0  0  0  0  0
   11.7132  -14.8677   24.4894 O   0  0  0  0  0  0  0  0  0  0  0  0
   11.1407  -16.5741   25.8684 O   0  0  0  0  0  0  0  0  0  0  0  0
  2  1  1  6
  2  4  1  0
  2  3  1  0
  4  6  1  0
  4  5  1  6
  6  8  1  0
  6  7  2  0
  8 12  1  0
  9 10  1  0
  9  8  1  0
 10 11  1  0
 11 12  1  0
 12 13  1  1
 13 19  1  0
 13 14  2  0
 16 18  1  0
 16 15  1  6
 17 16  1  0
 18 20  1  0
 18 19  1  6
 20 22  1  0
 21 20  2  0
M  END
$$$$
