DGA.pdb
     RDKit          3D

 18 17  0  0  1  0  0  0  0  0999 V2000
   18.8171   -4.6120  -15.8068 N   0  0  0  0  0  0  0  0  0  0  0  0
   18.4393   -3.3235  -16.2775 C   0  0  1  0  0  0  0  0  0  0  0  0
   17.1749   -2.8721  -15.5846 C   0  0  0  0  0  0  0  0  0  0  0  0
   16.0355   -3.7423  -15.8331 C   0  0  0  0  0  0  0  0  0  0  0  0
   15.8330   -4.2510  -16.9569 O   0  0  0  0  0  0  0  0  0  0  0  0
   19.5108   -2.3045  -16.1245 C   0  0  0  0  0  0  0  0  0  0  0  0
   19.3173   -1.1043  -16.4435 O   0  0  0  0  0  0  0  0  0  0  0  0
   15.1510   -4.0188  -14.8094 O   0  0  0  0  0  0  0  0  0  0  0  0
   20.8008   -2.6302  -15.6134 N   0  0  0  0  0  0  0  0  0  0  0  0
   21.8687   -1.6979  -15.4250 C   0  0  0  0  0  0  0  0  0  0  0  0
   21.8009   -0.8511  -14.2437 C   0  0  0  0  0  0  0  0  0  0  0  0
   20.7798   -0.9391  -13.5142 O   0  0  0  0  0  0  0  0  0  0  0  0
   23.9920    1.4017  -12.1879 C   0  0  0  0  0  0  0  0  0  0  0  0
   22.6629    0.8556  -12.6599 C   0  0  2  0  0  0  0  0  0  0  0  0
   22.8031    0.0599  -13.8597 N   0  0  0  0  0  0  0  0  0  0  0  0
   21.7639    2.0012  -12.9461 C   0  0  0  0  0  0  0  0  0  0  0  0
   21.1283    2.6400  -11.9175 O   0  0  0  0  0  0  0  0  0  0  0  0
   21.5838    2.3885  -14.1396 O   0  0  0  0  0  0  0  0  0  0  0  0
  2  1  1  1
  2  3  1  0
  3  4  1  0
  4  5  2  0
  4  8  1  0
  6  7  2  0
  6  2  1  0
  9  6  1  0
 10 11  1  0
 10  9  1  0
 11 12  2  0
 14 13  1  6
 15 14  1  0
 15 11  1  0
 16 17  1  0
 16 14  1  0
 18 16  2  0
M  END
$$$$
