DGA.pdb
     RDKit          3D

 18 17  0  0  1  0  0  0  0  0999 V2000
   15.5942   -9.8850  -13.3192 N   0  0  0  0  0  0  0  0  0  0  0  0
   16.1369  -10.6175  -14.4116 C   0  0  1  0  0  0  0  0  0  0  0  0
   15.0344  -11.0101  -15.3672 C   0  0  0  0  0  0  0  0  0  0  0  0
   14.0452  -11.8991  -14.7770 C   0  0  0  0  0  0  0  0  0  0  0  0
   14.3725  -12.9823  -14.2457 O   0  0  0  0  0  0  0  0  0  0  0  0
   17.2154   -9.8889  -15.1298 C   0  0  0  0  0  0  0  0  0  0  0  0
   17.9087  -10.4567  -16.0112 O   0  0  0  0  0  0  0  0  0  0  0  0
   12.7102  -11.5465  -14.7992 O   0  0  0  0  0  0  0  0  0  0  0  0
   17.5179   -8.5223  -14.8606 N   0  0  0  0  0  0  0  0  0  0  0  0
   18.5767   -7.7801  -15.4713 C   0  0  0  0  0  0  0  0  0  0  0  0
   19.6534   -7.3334  -14.6003 C   0  0  0  0  0  0  0  0  0  0  0  0
   19.5581   -7.5834  -13.3710 O   0  0  0  0  0  0  0  0  0  0  0  0
   23.2082   -6.2394  -14.8516 C   0  0  0  0  0  0  0  0  0  0  0  0
   21.8827   -6.3463  -14.1310 C   0  0  2  0  0  0  0  0  0  0  0  0
   20.7975   -6.6416  -15.0408 N   0  0  0  0  0  0  0  0  0  0  0  0
   21.6097   -5.0495  -13.4631 C   0  0  0  0  0  0  0  0  0  0  0  0
   22.3132   -4.7001  -12.3437 O   0  0  0  0  0  0  0  0  0  0  0  0
   20.7276   -4.2660  -13.9267 O   0  0  0  0  0  0  0  0  0  0  0  0
  2  1  1  1
  2  3  1  0
  3  4  1  0
  4  5  2  0
  4  8  1  0
  6  7  2  0
  6  2  1  0
  9  6  1  0
 10 11  1  0
 10  9  1  0
 11 12  2  0
 14 13  1  6
 15 14  1  0
 15 11  1  0
 16 17  1  0
 16 14  1  0
 18 16  2  0
M  END
$$$$
