DGA.pdb
     RDKit          3D

 18 17  0  0  1  0  0  0  0  0999 V2000
   18.1828  -11.1000  -17.4120 N   0  0  0  0  0  0  0  0  0  0  0  0
   18.7514  -11.1445  -16.1084 C   0  0  1  0  0  0  0  0  0  0  0  0
   19.4200  -12.4805  -15.8833 C   0  0  0  0  0  0  0  0  0  0  0  0
   18.4880  -13.5975  -15.8546 C   0  0  0  0  0  0  0  0  0  0  0  0
   18.4460  -14.4392  -16.7778 O   0  0  0  0  0  0  0  0  0  0  0  0
   19.7028  -10.0334  -15.8441 C   0  0  0  0  0  0  0  0  0  0  0  0
   20.2789   -9.9209  -14.7326 O   0  0  0  0  0  0  0  0  0  0  0  0
   17.6250  -13.7398  -14.7859 O   0  0  0  0  0  0  0  0  0  0  0  0
   20.0096   -9.0467  -16.8258 N   0  0  0  0  0  0  0  0  0  0  0  0
   20.9945   -8.0205  -16.6787 C   0  0  0  0  0  0  0  0  0  0  0  0
   20.7402   -7.0058  -15.6672 C   0  0  0  0  0  0  0  0  0  0  0  0
   19.5494   -6.8195  -15.3068 O   0  0  0  0  0  0  0  0  0  0  0  0
   22.5886   -4.9116  -13.1706 C   0  0  0  0  0  0  0  0  0  0  0  0
   21.4015   -5.2451  -14.0465 C   0  0  2  0  0  0  0  0  0  0  0  0
   21.7381   -6.2187  -15.0619 N   0  0  0  0  0  0  0  0  0  0  0  0
   20.9469   -3.9977  -14.7095 C   0  0  0  0  0  0  0  0  0  0  0  0
   21.0510   -3.8728  -16.0674 O   0  0  0  0  0  0  0  0  0  0  0  0
   20.4630   -3.0492  -14.0218 O   0  0  0  0  0  0  0  0  0  0  0  0
  2  1  1  6
  2  3  1  0
  3  4  1  0
  4  5  2  0
  4  8  1  0
  6  7  2  0
  6  2  1  0
  9  6  1  0
 10 11  1  0
 10  9  1  0
 11 12  2  0
 14 13  1  6
 15 14  1  0
 15 11  1  0
 16 17  1  0
 16 14  1  0
 18 16  2  0
M  END
$$$$
