DGA.pdb
     RDKit          3D

 18 17  0  0  1  0  0  0  0  0999 V2000
   28.0923   -9.5633  -17.9756 N   0  0  0  0  0  0  0  0  0  0  0  0
   29.0580   -9.7039  -19.0110 C   0  0  1  0  0  0  0  0  0  0  0  0
   28.7798   -8.7090  -20.1135 C   0  0  0  0  0  0  0  0  0  0  0  0
   27.4283   -8.7963  -20.6455 C   0  0  0  0  0  0  0  0  0  0  0  0
   26.8719   -9.8983  -20.8421 O   0  0  0  0  0  0  0  0  0  0  0  0
   30.4585   -9.5723  -18.5302 C   0  0  0  0  0  0  0  0  0  0  0  0
   31.4312   -9.7193  -19.3125 O   0  0  0  0  0  0  0  0  0  0  0  0
   26.7353   -7.6395  -20.9433 O   0  0  0  0  0  0  0  0  0  0  0  0
   30.7700   -9.2757  -17.1714 N   0  0  0  0  0  0  0  0  0  0  0  0
   32.0870   -9.0528  -16.6608 C   0  0  0  0  0  0  0  0  0  0  0  0
   32.4472   -7.6777  -16.3498 C   0  0  0  0  0  0  0  0  0  0  0  0
   31.6038   -6.7778  -16.5979 O   0  0  0  0  0  0  0  0  0  0  0  0
   35.1295   -5.7928  -14.4950 C   0  0  0  0  0  0  0  0  0  0  0  0
   33.8961   -5.9208  -15.3609 C   0  0  2  0  0  0  0  0  0  0  0  0
   33.6765   -7.2855  -15.7871 N   0  0  0  0  0  0  0  0  0  0  0  0
   34.0789   -5.0668  -16.5608 C   0  0  0  0  0  0  0  0  0  0  0  0
   34.4209   -5.6374  -17.7556 O   0  0  0  0  0  0  0  0  0  0  0  0
   33.9190   -3.8118  -16.4813 O   0  0  0  0  0  0  0  0  0  0  0  0
  2  1  1  1
  2  3  1  0
  3  4  1  0
  4  5  2  0
  4  8  1  0
  6  7  2  0
  6  2  1  0
  9  6  1  0
 10 11  1  0
 10  9  1  0
 11 12  2  0
 14 13  1  1
 15 14  1  0
 15 11  1  0
 16 17  1  0
 16 14  1  0
 18 16  2  0
M  END
$$$$
