DGA.pdb
     RDKit          3D

 18 17  0  0  1  0  0  0  0  0999 V2000
   23.5473  -10.6448  -14.9720 N   0  0  0  0  0  0  0  0  0  0  0  0
   22.6634   -9.7989  -15.6984 C   0  0  1  0  0  0  0  0  0  0  0  0
   21.6216  -10.6310  -16.4089 C   0  0  0  0  0  0  0  0  0  0  0  0
   22.1869  -11.6990  -17.2194 C   0  0  0  0  0  0  0  0  0  0  0  0
   21.6524  -12.8273  -17.2811 O   0  0  0  0  0  0  0  0  0  0  0  0
   22.0157   -8.7616  -14.8533 C   0  0  0  0  0  0  0  0  0  0  0  0
   21.4673   -9.0606  -13.7625 O   0  0  0  0  0  0  0  0  0  0  0  0
   23.3416  -11.4704  -17.9416 O   0  0  0  0  0  0  0  0  0  0  0  0
   21.9820   -7.3875  -15.2302 N   0  0  0  0  0  0  0  0  0  0  0  0
   21.4700   -6.3262  -14.4200 C   0  0  0  0  0  0  0  0  0  0  0  0
   21.4716   -4.9937  -15.0047 C   0  0  0  0  0  0  0  0  0  0  0  0
   22.2254   -4.7842  -15.9899 O   0  0  0  0  0  0  0  0  0  0  0  0
   19.5477   -1.7638  -14.7890 C   0  0  0  0  0  0  0  0  0  0  0  0
   20.6991   -2.6441  -15.2212 C   0  0  2  0  0  0  0  0  0  0  0  0
   20.6839   -3.9220  -14.5436 N   0  0  0  0  0  0  0  0  0  0  0  0
   21.9672   -1.9444  -14.8977 C   0  0  0  0  0  0  0  0  0  0  0  0
   22.5728   -1.1632  -15.8428 O   0  0  0  0  0  0  0  0  0  0  0  0
   22.4898   -2.0687  -13.7496 O   0  0  0  0  0  0  0  0  0  0  0  0
  2  1  1  1
  2  3  1  0
  3  4  1  0
  4  5  2  0
  4  8  1  0
  6  7  2  0
  6  2  1  0
  9  6  1  0
 10 11  1  0
 10  9  1  0
 11 12  2  0
 14 13  1  1
 15 14  1  0
 15 11  1  0
 16 17  1  0
 16 14  1  0
 18 16  2  0
M  END
$$$$
