DGA.pdb
     RDKit          3D

 18 17  0  0  1  0  0  0  0  0999 V2000
   21.3939  -11.7807  -17.5067 N   0  0  0  0  0  0  0  0  0  0  0  0
   20.0237  -11.7003  -17.1317 C   0  0  1  0  0  0  0  0  0  0  0  0
   19.5473  -13.0431  -16.6294 C   0  0  0  0  0  0  0  0  0  0  0  0
   19.5037  -14.0663  -17.6630 C   0  0  0  0  0  0  0  0  0  0  0  0
   19.0956  -13.8140  -18.8173 O   0  0  0  0  0  0  0  0  0  0  0  0
   19.7508  -10.6399  -16.1262 C   0  0  0  0  0  0  0  0  0  0  0  0
   18.5744  -10.3326  -15.8079 O   0  0  0  0  0  0  0  0  0  0  0  0
   19.9211  -15.3500  -17.3715 O   0  0  0  0  0  0  0  0  0  0  0  0
   20.7971   -9.9227  -15.4763 N   0  0  0  0  0  0  0  0  0  0  0  0
   20.6047   -8.8667  -14.5313 C   0  0  0  0  0  0  0  0  0  0  0  0
   21.0115   -7.5324  -14.9451 C   0  0  0  0  0  0  0  0  0  0  0  0
   21.7124   -7.4266  -15.9845 O   0  0  0  0  0  0  0  0  0  0  0  0
   20.1689   -3.9504  -14.2441 C   0  0  0  0  0  0  0  0  0  0  0  0
   21.0489   -5.0550  -14.7853 C   0  0  2  0  0  0  0  0  0  0  0  0
   20.6715   -6.3496  -14.2617 N   0  0  0  0  0  0  0  0  0  0  0  0
   22.4509   -4.7684  -14.3921 C   0  0  0  0  0  0  0  0  0  0  0  0
   23.0460   -5.5092  -13.4085 O   0  0  0  0  0  0  0  0  0  0  0  0
   23.0973   -3.8403  -14.9644 O   0  0  0  0  0  0  0  0  0  0  0  0
  2  1  1  1
  2  3  1  0
  3  4  1  0
  4  5  2  0
  4  8  1  0
  6  7  2  0
  6  2  1  0
  9  6  1  0
 10 11  1  0
 10  9  1  0
 11 12  2  0
 14 13  1  1
 15 14  1  0
 15 11  1  0
 16 17  1  0
 16 14  1  0
 18 16  2  0
M  END
$$$$
