DGA.pdb
     RDKit          3D

 18 17  0  0  1  0  0  0  0  0999 V2000
   19.4308   -7.5214  -15.5581 N   0  0  0  0  0  0  0  0  0  0  0  0
   20.1828   -8.1270  -14.5129 C   0  0  1  0  0  0  0  0  0  0  0  0
   20.6726   -9.4871  -14.9519 C   0  0  0  0  0  0  0  0  0  0  0  0
   19.5986  -10.4334  -15.2130 C   0  0  0  0  0  0  0  0  0  0  0  0
   19.8190  -11.5446  -15.7414 O   0  0  0  0  0  0  0  0  0  0  0  0
   21.3180   -7.2894  -14.0444 C   0  0  0  0  0  0  0  0  0  0  0  0
   21.9842   -7.6071  -13.0270 O   0  0  0  0  0  0  0  0  0  0  0  0
   18.3012  -10.1052  -14.8725 O   0  0  0  0  0  0  0  0  0  0  0  0
   21.7077   -6.0943  -14.7162 N   0  0  0  0  0  0  0  0  0  0  0  0
   22.7429   -5.2084  -14.2819 C   0  0  0  0  0  0  0  0  0  0  0  0
   22.4657   -3.7825  -14.3660 C   0  0  0  0  0  0  0  0  0  0  0  0
   22.2639   -3.1578  -13.2929 O   0  0  0  0  0  0  0  0  0  0  0  0
   22.1836   -1.0402  -16.9496 C   0  0  0  0  0  0  0  0  0  0  0  0
   22.0699   -1.6469  -15.5688 C   0  0  2  0  0  0  0  0  0  0  0  0
   22.4102   -3.0527  -15.5686 N   0  0  0  0  0  0  0  0  0  0  0  0
   20.6683   -1.4922  -15.1062 C   0  0  0  0  0  0  0  0  0  0  0  0
   20.2853   -0.3442  -14.4694 O   0  0  0  0  0  0  0  0  0  0  0  0
   19.8264   -2.4200  -15.2993 O   0  0  0  0  0  0  0  0  0  0  0  0
  2  1  1  6
  2  3  1  0
  3  4  1  0
  4  5  2  0
  4  8  1  0
  6  7  2  0
  6  2  1  0
  9  6  1  0
 10 11  1  0
 10  9  1  0
 11 12  2  0
 14 13  1  6
 15 14  1  0
 15 11  1  0
 16 17  1  0
 16 14  1  0
 18 16  2  0
M  END
$$$$
