DGA.pdb
     RDKit          3D

 18 17  0  0  1  0  0  0  0  0999 V2000
   17.3449  -11.0589  -13.1966 N   0  0  0  0  0  0  0  0  0  0  0  0
   17.0768   -9.7095  -13.5595 C   0  0  1  0  0  0  0  0  0  0  0  0
   15.7695   -9.6284  -14.3125 C   0  0  0  0  0  0  0  0  0  0  0  0
   15.7510  -10.4265  -15.5291 C   0  0  0  0  0  0  0  0  0  0  0  0
   16.5503  -10.2110  -16.4657 O   0  0  0  0  0  0  0  0  0  0  0  0
   17.0699   -8.7794  -12.3999 C   0  0  0  0  0  0  0  0  0  0  0  0
   16.9981   -7.5353  -12.5645 O   0  0  0  0  0  0  0  0  0  0  0  0
   14.8320  -11.4487  -15.6616 O   0  0  0  0  0  0  0  0  0  0  0  0
   17.1435   -9.2431  -11.0542 N   0  0  0  0  0  0  0  0  0  0  0  0
   17.1263   -8.4057   -9.8951 C   0  0  0  0  0  0  0  0  0  0  0  0
   15.8841   -7.7035   -9.6101 C   0  0  0  0  0  0  0  0  0  0  0  0
   15.0132   -7.6565  -10.5167 O   0  0  0  0  0  0  0  0  0  0  0  0
   14.0560   -6.1715   -6.6997 C   0  0  0  0  0  0  0  0  0  0  0  0
   14.3075   -6.4407   -8.1666 C   0  0  2  0  0  0  0  0  0  0  0  0
   15.5893   -7.0741   -8.3859 N   0  0  0  0  0  0  0  0  0  0  0  0
   14.2829   -5.1445   -8.8888 C   0  0  0  0  0  0  0  0  0  0  0  0
   15.4563   -4.5019   -9.1724 O   0  0  0  0  0  0  0  0  0  0  0  0
   13.1789   -4.6322   -9.2431 O   0  0  0  0  0  0  0  0  0  0  0  0
  2  1  1  1
  2  3  1  0
  3  4  1  0
  4  5  2  0
  4  8  1  0
  6  7  2  0
  6  2  1  0
  9  6  1  0
 10 11  1  0
 10  9  1  0
 11 12  2  0
 14 13  1  1
 15 14  1  0
 15 11  1  0
 16 17  1  0
 16 14  1  0
 18 16  2  0
M  END
$$$$
