DGA.pdb
     RDKit          3D

 18 17  0  0  1  0  0  0  0  0999 V2000
   18.2279   -3.5329  -15.0609 N   0  0  0  0  0  0  0  0  0  0  0  0
   19.1744   -2.5323  -15.4181 C   0  0  1  0  0  0  0  0  0  0  0  0
   20.0059   -3.0038  -16.5881 C   0  0  0  0  0  0  0  0  0  0  0  0
   20.6956   -4.2608  -16.3398 C   0  0  0  0  0  0  0  0  0  0  0  0
   20.4062   -5.3017  -16.9685 O   0  0  0  0  0  0  0  0  0  0  0  0
   18.5529   -1.2153  -15.7164 C   0  0  0  0  0  0  0  0  0  0  0  0
   17.6072   -1.1135  -16.5381 O   0  0  0  0  0  0  0  0  0  0  0  0
   21.6953   -4.3151  -15.3886 O   0  0  0  0  0  0  0  0  0  0  0  0
   18.9911   -0.0105  -15.0936 N   0  0  0  0  0  0  0  0  0  0  0  0
   18.4582    1.2904  -15.3560 C   0  0  0  0  0  0  0  0  0  0  0  0
   18.9976    2.3917  -14.5728 C   0  0  0  0  0  0  0  0  0  0  0  0
   18.6851    3.5626  -14.9106 O   0  0  0  0  0  0  0  0  0  0  0  0
   19.8560    3.5397  -11.3839 C   0  0  0  0  0  0  0  0  0  0  0  0
   20.4042    3.3867  -12.7852 C   0  0  2  0  0  0  0  0  0  0  0  0
   19.8449    2.2357  -13.4596 N   0  0  0  0  0  0  0  0  0  0  0  0
   21.8761    3.2212  -12.6939 C   0  0  0  0  0  0  0  0  0  0  0  0
   22.4608    2.0732  -13.1526 O   0  0  0  0  0  0  0  0  0  0  0  0
   22.5918    4.1395  -12.1927 O   0  0  0  0  0  0  0  0  0  0  0  0
  2  1  1  6
  2  3  1  0
  3  4  1  0
  4  5  2  0
  4  8  1  0
  6  7  2  0
  6  2  1  0
  9  6  1  0
 10 11  1  0
 10  9  1  0
 11 12  2  0
 14 13  1  1
 15 14  1  0
 15 11  1  0
 16 17  1  0
 16 14  1  0
 18 16  2  0
M  END
$$$$
