DGA.pdb
     RDKit          3D

 18 17  0  0  1  0  0  0  0  0999 V2000
   17.3940  -11.6882  -14.5589 N   0  0  0  0  0  0  0  0  0  0  0  0
   16.4436  -10.9330  -15.3012 C   0  0  1  0  0  0  0  0  0  0  0  0
   15.1150  -10.9272  -14.5819 C   0  0  0  0  0  0  0  0  0  0  0  0
   14.4815  -12.2358  -14.5241 C   0  0  0  0  0  0  0  0  0  0  0  0
   14.8582  -13.1784  -15.2537 O   0  0  0  0  0  0  0  0  0  0  0  0
   16.8897   -9.5436  -15.5851 C   0  0  0  0  0  0  0  0  0  0  0  0
   16.2919   -8.8280  -16.4279 O   0  0  0  0  0  0  0  0  0  0  0  0
   13.4383  -12.4516  -13.6454 O   0  0  0  0  0  0  0  0  0  0  0  0
   18.0068   -8.9549  -14.9241 N   0  0  0  0  0  0  0  0  0  0  0  0
   18.4162   -7.5914  -15.0600 C   0  0  0  0  0  0  0  0  0  0  0  0
   19.5767   -7.1737  -14.2878 C   0  0  0  0  0  0  0  0  0  0  0  0
   19.7341   -7.6744  -13.1445 O   0  0  0  0  0  0  0  0  0  0  0  0
   22.9602   -5.8787  -14.8127 C   0  0  0  0  0  0  0  0  0  0  0  0
   21.7207   -5.9682  -13.9505 C   0  0  2  0  0  0  0  0  0  0  0  0
   20.5380   -6.2478  -14.7350 N   0  0  0  0  0  0  0  0  0  0  0  0
   21.5407   -4.6684  -13.2574 C   0  0  0  0  0  0  0  0  0  0  0  0
   22.2626   -4.3941  -12.1287 O   0  0  0  0  0  0  0  0  0  0  0  0
   20.7209   -3.8130  -13.7080 O   0  0  0  0  0  0  0  0  0  0  0  0
  2  1  1  1
  2  3  1  0
  3  4  1  0
  4  5  2  0
  4  8  1  0
  6  7  2  0
  6  2  1  0
  9  6  1  0
 10 11  1  0
 10  9  1  0
 11 12  2  0
 14 13  1  6
 15 14  1  0
 15 11  1  0
 16 17  1  0
 16 14  1  0
 18 16  2  0
M  END
$$$$
