DGA.pdb
     RDKit          3D

 18 17  0  0  1  0  0  0  0  0999 V2000
   22.3785  -19.5830  -13.0074 N   0  0  0  0  0  0  0  0  0  0  0  0
   22.8178  -20.2492  -14.1854 C   0  0  1  0  0  0  0  0  0  0  0  0
   21.7106  -20.2619  -15.2133 C   0  0  0  0  0  0  0  0  0  0  0  0
   20.4071  -20.5916  -14.6571 C   0  0  0  0  0  0  0  0  0  0  0  0
   20.0576  -21.7764  -14.4656 O   0  0  0  0  0  0  0  0  0  0  0  0
   24.0585  -19.6674  -14.7616 C   0  0  0  0  0  0  0  0  0  0  0  0
   24.7419  -20.2995  -15.6062 O   0  0  0  0  0  0  0  0  0  0  0  0
   19.5280  -19.5782  -14.3296 O   0  0  0  0  0  0  0  0  0  0  0  0
   24.5345  -18.3760  -14.3914 N   0  0  0  0  0  0  0  0  0  0  0  0
   25.6945  -17.7413  -14.9360 C   0  0  0  0  0  0  0  0  0  0  0  0
   25.4730  -16.5604  -15.7569 C   0  0  0  0  0  0  0  0  0  0  0  0
   26.4822  -15.9547  -16.2012 O   0  0  0  0  0  0  0  0  0  0  0  0
   24.8229  -13.6783  -16.0749 C   0  0  0  0  0  0  0  0  0  0  0  0
   24.0701  -14.7852  -16.7789 C   0  0  2  0  0  0  0  0  0  0  0  0
   24.2041  -16.0501  -16.0902 N   0  0  0  0  0  0  0  0  0  0  0  0
   24.6210  -14.9244  -18.1498 C   0  0  0  0  0  0  0  0  0  0  0  0
   25.0121  -13.8114  -18.8415 O   0  0  0  0  0  0  0  0  0  0  0  0
   24.7298  -16.0703  -18.6806 O   0  0  0  0  0  0  0  0  0  0  0  0
  2  1  1  1
  2  3  1  0
  3  4  1  0
  4  5  2  0
  4  8  1  0
  6  7  2  0
  6  2  1  0
  9  6  1  0
 10 11  1  0
 10  9  1  0
 11 12  2  0
 14 13  1  1
 15 14  1  0
 15 11  1  0
 16 17  1  0
 16 14  1  0
 18 16  2  0
M  END
$$$$
