DGA.pdb
     RDKit          3D

 18 17  0  0  1  0  0  0  0  0999 V2000
   15.2885   -9.8537  -10.1546 N   0  0  0  0  0  0  0  0  0  0  0  0
   14.7134   -8.5655   -9.9690 C   0  0  1  0  0  0  0  0  0  0  0  0
   14.0055   -8.5045   -8.6356 C   0  0  0  0  0  0  0  0  0  0  0  0
   12.8287   -9.3573   -8.5647 C   0  0  0  0  0  0  0  0  0  0  0  0
   12.4514  -10.0354   -9.5448 O   0  0  0  0  0  0  0  0  0  0  0  0
   15.6992   -7.4592  -10.0879 C   0  0  0  0  0  0  0  0  0  0  0  0
   15.4887   -6.3404   -9.5550 O   0  0  0  0  0  0  0  0  0  0  0  0
   12.1045   -9.4259   -7.3909 O   0  0  0  0  0  0  0  0  0  0  0  0
   16.9224   -7.6060  -10.8044 N   0  0  0  0  0  0  0  0  0  0  0  0
   17.8749   -6.5624  -11.0255 C   0  0  0  0  0  0  0  0  0  0  0  0
   18.9380   -6.8346  -11.9811 C   0  0  0  0  0  0  0  0  0  0  0  0
   19.2841   -8.0321  -12.1511 O   0  0  0  0  0  0  0  0  0  0  0  0
   20.4079   -5.4230  -15.0080 C   0  0  0  0  0  0  0  0  0  0  0  0
   20.5867   -6.2109  -13.7294 C   0  0  2  0  0  0  0  0  0  0  0  0
   19.6049   -5.8476  -12.7312 N   0  0  0  0  0  0  0  0  0  0  0  0
   21.9420   -5.9292  -13.1944 C   0  0  0  0  0  0  0  0  0  0  0  0
   23.0018   -6.6985  -13.5883 O   0  0  0  0  0  0  0  0  0  0  0  0
   22.1196   -4.9788  -12.3746 O   0  0  0  0  0  0  0  0  0  0  0  0
  2  1  1  1
  2  3  1  0
  3  4  1  0
  4  5  2  0
  4  8  1  0
  6  7  2  0
  6  2  1  0
  9  6  1  0
 10 11  1  0
 10  9  1  0
 11 12  2  0
 14 13  1  6
 15 14  1  0
 15 11  1  0
 16 17  1  0
 16 14  1  0
 18 16  2  0
M  END
$$$$
