DGA.pdb
     RDKit          3D

 18 17  0  0  1  0  0  0  0  0999 V2000
   25.4812  -32.5246   -8.2889 N   0  0  0  0  0  0  0  0  0  0  0  0
   26.6927  -32.4727   -7.5446 C   0  0  1  0  0  0  0  0  0  0  0  0
   26.4303  -31.8970   -6.1726 C   0  0  0  0  0  0  0  0  0  0  0  0
   25.4868  -32.6781   -5.3871 C   0  0  0  0  0  0  0  0  0  0  0  0
   25.1787  -32.3523   -4.2202 O   0  0  0  0  0  0  0  0  0  0  0  0
   27.3730  -33.7900   -7.4365 C   0  0  0  0  0  0  0  0  0  0  0  0
   26.9527  -34.7928   -8.0672 O   0  0  0  0  0  0  0  0  0  0  0  0
   24.9125  -33.8080   -5.9352 O   0  0  0  0  0  0  0  0  0  0  0  0
   28.5255  -33.9847   -6.6210 N   0  0  0  0  0  0  0  0  0  0  0  0
   29.1778  -35.2393   -6.4073 C   0  0  0  0  0  0  0  0  0  0  0  0
   28.7875  -35.9896   -5.2232 C   0  0  0  0  0  0  0  0  0  0  0  0
   27.8289  -35.5499   -4.5373 O   0  0  0  0  0  0  0  0  0  0  0  0
   29.6041  -39.2303   -3.4684 C   0  0  0  0  0  0  0  0  0  0  0  0
   28.9318  -37.8846   -3.6256 C   0  0  2  0  0  0  0  0  0  0  0  0
   29.4091  -37.1773   -4.7936 N   0  0  0  0  0  0  0  0  0  0  0  0
   29.2268  -37.0727   -2.4190 C   0  0  0  0  0  0  0  0  0  0  0  0
   28.5973  -37.3559   -1.2384 O   0  0  0  0  0  0  0  0  0  0  0  0
   30.0596  -36.1189   -2.4794 O   0  0  0  0  0  0  0  0  0  0  0  0
  2  1  1  1
  2  3  1  0
  3  4  1  0
  4  5  2  0
  4  8  1  0
  6  7  2  0
  6  2  1  0
  9  6  1  0
 10 11  1  0
 10  9  1  0
 11 12  2  0
 14 13  1  1
 15 14  1  0
 15 11  1  0
 16 17  1  0
 16 14  1  0
 18 16  2  0
M  END
$$$$
