IGT.pdb
     RDKit          3D

 20 19  0  0  1  0  0  0  0  0999 V2000
   23.9995  -18.8387  -16.4772 C   0  0  0  0  0  0  0  0  0  0  0  0
   22.8545  -17.9977  -15.8855 C   0  0  0  0  0  0  0  0  0  0  0  0
   23.1655  -16.5737  -16.2495 C   0  0  2  0  0  0  0  0  0  0  0  0
   24.4960  -16.1312  -15.7033 C   0  0  0  0  0  0  0  0  0  0  0  0
   22.0902  -15.6545  -15.7864 C   0  0  2  0  0  0  0  0  0  0  0  0
   20.8203  -16.1427  -16.3104 N   0  0  0  0  0  0  0  0  0  0  0  0
   22.2912  -14.2317  -16.0627 C   0  0  0  0  0  0  0  0  0  0  0  0
   23.2008  -13.5933  -15.4802 O   0  0  0  0  0  0  0  0  0  0  0  0
   21.5050  -13.4738  -16.9801 N   0  0  0  0  0  0  0  0  0  0  0  0
   21.7299  -12.0624  -17.1905 C   0  0  0  0  0  0  0  0  0  0  0  0
   21.0626  -11.2264  -16.1697 C   0  0  0  0  0  0  0  0  0  0  0  0
   20.0214  -11.6039  -15.5594 O   0  0  0  0  0  0  0  0  0  0  0  0
   22.4043  -10.1385  -12.9493 C   0  0  0  0  0  0  0  0  0  0  0  0
   22.1095   -8.8645  -13.7192 C   0  0  1  0  0  0  0  0  0  0  0  0
   23.3090   -8.3806  -14.2083 O   0  0  0  0  0  0  0  0  0  0  0  0
   21.1004   -9.0964  -14.8201 C   0  0  2  0  0  0  0  0  0  0  0  0
   21.5902   -9.9606  -15.8513 N   0  0  0  0  0  0  0  0  0  0  0  0
   20.8182   -7.7657  -15.4306 C   0  0  0  0  0  0  0  0  0  0  0  0
   21.1941   -7.4727  -16.5961 O   0  0  0  0  0  0  0  0  0  0  0  0
   20.1248   -6.7821  -14.7406 O   0  0  0  0  0  0  0  0  0  0  0  0
  2  3  1  0
  2  1  1  0
  3  4  1  1
  5  3  1  0
  5  6  1  6
  7  8  2  0
  7  5  1  0
  9  7  1  0
 10  9  1  0
 10 11  1  0
 11 17  1  0
 12 11  2  0
 14 15  1  0
 14 13  1  6
 16 14  1  0
 16 18  1  0
 16 17  1  6
 18 19  2  0
 18 20  1  0
M  END
$$$$
