IGT.pdb
     RDKit          3D

 20 19  0  0  1  0  0  0  0  0999 V2000
   18.9039  -12.0601  -15.0657 C   0  0  0  0  0  0  0  0  0  0  0  0
   18.8594  -10.5298  -14.9081 C   0  0  0  0  0  0  0  0  0  0  0  0
   18.2255  -10.2769  -13.5698 C   0  0  2  0  0  0  0  0  0  0  0  0
   16.8949  -10.9671  -13.4381 C   0  0  0  0  0  0  0  0  0  0  0  0
   18.0734   -8.8182  -13.3154 C   0  0  2  0  0  0  0  0  0  0  0  0
   19.3992   -8.2125  -13.3454 N   0  0  0  0  0  0  0  0  0  0  0  0
   17.3228   -8.4449  -12.1161 C   0  0  0  0  0  0  0  0  0  0  0  0
   16.1110   -8.7501  -12.0039 O   0  0  0  0  0  0  0  0  0  0  0  0
   17.8769   -7.7307  -11.0128 N   0  0  0  0  0  0  0  0  0  0  0  0
   17.1271   -7.5032   -9.7992 C   0  0  0  0  0  0  0  0  0  0  0  0
   16.1718   -6.3819   -9.9282 C   0  0  0  0  0  0  0  0  0  0  0  0
   15.9352   -5.8169  -11.0344 O   0  0  0  0  0  0  0  0  0  0  0  0
   12.7345   -6.3308   -7.6325 C   0  0  0  0  0  0  0  0  0  0  0  0
   13.5278   -5.0375   -7.6063 C   0  0  1  0  0  0  0  0  0  0  0  0
   14.2147   -4.9888   -6.4071 O   0  0  0  0  0  0  0  0  0  0  0  0
   14.4537   -4.9244   -8.7953 C   0  0  2  0  0  0  0  0  0  0  0  0
   15.4907   -5.9116   -8.7894 N   0  0  0  0  0  0  0  0  0  0  0  0
   15.0965   -3.5816   -8.7122 C   0  0  0  0  0  0  0  0  0  0  0  0
   14.4613   -2.5214   -8.9530 O   0  0  0  0  0  0  0  0  0  0  0  0
   16.4313   -3.4353   -8.3639 O   0  0  0  0  0  0  0  0  0  0  0  0
  2  3  1  0
  2  1  1  0
  3  4  1  6
  5  3  1  0
  5  6  1  1
  7  8  2  0
  7  5  1  0
  9  7  1  0
 10  9  1  0
 10 11  1  0
 11 17  1  0
 12 11  2  0
 14 15  1  0
 14 13  1  6
 16 14  1  0
 16 18  1  0
 16 17  1  1
 18 19  2  0
 18 20  1  0
M  END
$$$$
