IGT.pdb
     RDKit          3D

 20 19  0  0  1  0  0  0  0  0999 V2000
   23.3148  -21.5595   -7.6245 C   0  0  0  0  0  0  0  0  0  0  0  0
   22.9368  -20.4930   -8.6677 C   0  0  0  0  0  0  0  0  0  0  0  0
   23.7385  -20.8221   -9.8948 C   0  0  2  0  0  0  0  0  0  0  0  0
   25.2179  -20.8102   -9.6203 C   0  0  0  0  0  0  0  0  0  0  0  0
   23.4170  -19.8915  -11.0112 C   0  0  2  0  0  0  0  0  0  0  0  0
   21.9813  -19.9566  -11.2559 N   0  0  0  0  0  0  0  0  0  0  0  0
   24.1947  -20.0602  -12.2391 C   0  0  0  0  0  0  0  0  0  0  0  0
   25.4395  -19.9030  -12.2299 O   0  0  0  0  0  0  0  0  0  0  0  0
   23.6324  -20.4041  -13.5039 N   0  0  0  0  0  0  0  0  0  0  0  0
   24.4398  -20.4867  -14.6990 C   0  0  0  0  0  0  0  0  0  0  0  0
   24.7155  -19.1580  -15.2864 C   0  0  0  0  0  0  0  0  0  0  0  0
   24.2343  -18.0917  -14.8066 O   0  0  0  0  0  0  0  0  0  0  0  0
   27.9969  -16.4385  -17.4409 C   0  0  0  0  0  0  0  0  0  0  0  0
   27.4040  -17.8353  -17.4513 C   0  0  1  0  0  0  0  0  0  0  0  0
   28.1760  -18.6269  -16.6207 O   0  0  0  0  0  0  0  0  0  0  0  0
   25.9502  -17.8296  -17.0388 C   0  0  2  0  0  0  0  0  0  0  0  0
   25.5417  -19.0554  -16.4217 N   0  0  0  0  0  0  0  0  0  0  0  0
   25.1513  -17.6536  -18.2853 C   0  0  0  0  0  0  0  0  0  0  0  0
   24.6891  -18.6340  -18.9261 O   0  0  0  0  0  0  0  0  0  0  0  0
   24.8776  -16.3953  -18.8013 O   0  0  0  0  0  0  0  0  0  0  0  0
  2  3  1  0
  2  1  1  0
  3  4  1  1
  5  3  1  0
  5  6  1  6
  7  8  2  0
  7  5  1  0
  9  7  1  0
 10  9  1  0
 10 11  1  0
 11 17  1  0
 12 11  2  0
 14 15  1  0
 14 13  1  1
 16 14  1  0
 16 18  1  0
 16 17  1  6
 18 19  2  0
 18 20  1  0
M  END
$$$$
