IGT.pdb
     RDKit          3D

 20 19  0  0  1  0  0  0  0  0999 V2000
   28.4482  -19.9505  -16.7725 C   0  0  0  0  0  0  0  0  0  0  0  0
   27.8477  -20.6795  -15.5574 C   0  0  0  0  0  0  0  0  0  0  0  0
   26.6264  -19.8933  -15.1740 C   0  0  2  0  0  0  0  0  0  0  0  0
   26.9424  -18.4405  -14.9420 C   0  0  0  0  0  0  0  0  0  0  0  0
   25.9709  -20.4737  -13.9701 C   0  0  2  0  0  0  0  0  0  0  0  0
   25.8493  -21.9127  -14.1700 N   0  0  0  0  0  0  0  0  0  0  0  0
   24.7042  -19.8634  -13.5651 C   0  0  0  0  0  0  0  0  0  0  0  0
   24.6245  -18.6243  -13.3847 O   0  0  0  0  0  0  0  0  0  0  0  0
   23.4966  -20.5906  -13.3478 N   0  0  0  0  0  0  0  0  0  0  0  0
   22.2775  -19.9358  -12.9334 C   0  0  0  0  0  0  0  0  0  0  0  0
   21.1868  -20.8956  -12.6587 C   0  0  0  0  0  0  0  0  0  0  0  0
   20.5912  -20.9440  -11.5443 O   0  0  0  0  0  0  0  0  0  0  0  0
   17.9400  -21.5225  -14.9131 C   0  0  0  0  0  0  0  0  0  0  0  0
   18.8308  -22.7462  -14.8053 C   0  0  1  0  0  0  0  0  0  0  0  0
   19.5956  -22.8132  -15.9555 O   0  0  0  0  0  0  0  0  0  0  0  0
   19.6839  -22.7098  -13.5584 C   0  0  2  0  0  0  0  0  0  0  0  0
   20.7821  -21.7970  -13.6616 N   0  0  0  0  0  0  0  0  0  0  0  0
   20.2409  -24.0813  -13.3796 C   0  0  0  0  0  0  0  0  0  0  0  0
   21.4700  -24.3242  -13.5053 O   0  0  0  0  0  0  0  0  0  0  0  0
   19.4280  -25.1603  -13.0646 O   0  0  0  0  0  0  0  0  0  0  0  0
  2  3  1  0
  2  1  1  0
  3  4  1  1
  5  3  1  0
  5  6  1  6
  7  8  2  0
  7  5  1  0
  9  7  1  0
 10  9  1  0
 10 11  1  0
 11 17  1  0
 12 11  2  0
 14 15  1  0
 14 13  1  6
 16 14  1  0
 16 18  1  0
 16 17  1  6
 18 19  2  0
 18 20  1  0
M  END
$$$$
