IGT.pdb
     RDKit          3D

 20 19  0  0  1  0  0  0  0  0999 V2000
   26.8388  -13.6786  -16.4388 C   0  0  0  0  0  0  0  0  0  0  0  0
   25.3753  -13.4477  -16.8552 C   0  0  0  0  0  0  0  0  0  0  0  0
   24.9064  -12.2657  -16.0553 C   0  0  2  0  0  0  0  0  0  0  0  0
   24.9371  -12.5396  -14.5760 C   0  0  0  0  0  0  0  0  0  0  0  0
   23.5402  -11.8451  -16.4702 C   0  0  2  0  0  0  0  0  0  0  0  0
   23.5819  -11.5046  -17.8872 N   0  0  0  0  0  0  0  0  0  0  0  0
   22.9148  -10.7935  -15.6677 C   0  0  0  0  0  0  0  0  0  0  0  0
   22.4000  -11.0636  -14.5557 O   0  0  0  0  0  0  0  0  0  0  0  0
   22.8370   -9.4244  -16.0598 N   0  0  0  0  0  0  0  0  0  0  0  0
   22.2131   -8.4267  -15.2218 C   0  0  0  0  0  0  0  0  0  0  0  0
   21.1231   -7.7082  -15.9162 C   0  0  0  0  0  0  0  0  0  0  0  0
   20.9185   -7.8244  -17.1585 O   0  0  0  0  0  0  0  0  0  0  0  0
   17.4407   -8.0425  -15.0845 C   0  0  0  0  0  0  0  0  0  0  0  0
   17.8508   -6.5951  -14.8862 C   0  0  1  0  0  0  0  0  0  0  0  0
   18.0435   -6.3935  -13.5318 O   0  0  0  0  0  0  0  0  0  0  0  0
   19.0807   -6.2460  -15.6922 C   0  0  2  0  0  0  0  0  0  0  0  0
   20.2712   -6.8588  -15.1849 N   0  0  0  0  0  0  0  0  0  0  0  0
   19.2489   -4.7675  -15.5994 C   0  0  0  0  0  0  0  0  0  0  0  0
   20.2162   -4.2428  -14.9874 O   0  0  0  0  0  0  0  0  0  0  0  0
   18.3438   -3.8950  -16.1857 O   0  0  0  0  0  0  0  0  0  0  0  0
  2  3  1  0
  2  1  1  0
  3  4  1  1
  5  3  1  0
  5  6  1  6
  7  8  2  0
  7  5  1  0
  9  7  1  0
 10  9  1  0
 10 11  1  0
 11 17  1  0
 12 11  2  0
 14 15  1  0
 14 13  1  1
 16 14  1  0
 16 18  1  0
 16 17  1  1
 18 19  2  0
 18 20  1  0
M  END
$$$$
