IGT.pdb
     RDKit          3D

 20 19  0  0  1  0  0  0  0  0999 V2000
   30.2463  -22.3351  -10.9683 C   0  0  0  0  0  0  0  0  0  0  0  0
   28.9433  -21.5894  -10.6295 C   0  0  0  0  0  0  0  0  0  0  0  0
   28.5594  -20.8519  -11.8807 C   0  0  2  0  0  0  0  0  0  0  0  0
   29.6481  -19.9209  -12.3414 C   0  0  0  0  0  0  0  0  0  0  0  0
   27.2884  -20.1005  -11.6919 C   0  0  2  0  0  0  0  0  0  0  0  0
   26.2536  -21.0511  -11.3034 N   0  0  0  0  0  0  0  0  0  0  0  0
   26.8673  -19.2504  -12.8060 C   0  0  0  0  0  0  0  0  0  0  0  0
   27.6231  -18.3462  -13.2367 O   0  0  0  0  0  0  0  0  0  0  0  0
   25.6130  -19.3675  -13.4748 N   0  0  0  0  0  0  0  0  0  0  0  0
   25.2734  -18.5370  -14.6070 C   0  0  0  0  0  0  0  0  0  0  0  0
   24.3180  -19.1957  -15.5233 C   0  0  0  0  0  0  0  0  0  0  0  0
   24.6864  -19.7729  -16.5863 O   0  0  0  0  0  0  0  0  0  0  0  0
   22.7571  -22.1602  -14.5902 C   0  0  0  0  0  0  0  0  0  0  0  0
   21.6008  -21.2035  -14.8148 C   0  0  1  0  0  0  0  0  0  0  0  0
   21.2066  -20.7217  -13.5800 O   0  0  0  0  0  0  0  0  0  0  0  0
   21.9724  -20.0895  -15.7660 C   0  0  2  0  0  0  0  0  0  0  0  0
   22.9435  -19.1908  -15.2188 N   0  0  0  0  0  0  0  0  0  0  0  0
   20.7254  -19.3153  -16.0280 C   0  0  0  0  0  0  0  0  0  0  0  0
   20.5611  -18.1461  -15.5905 O   0  0  0  0  0  0  0  0  0  0  0  0
   19.6814  -19.8485  -16.7699 O   0  0  0  0  0  0  0  0  0  0  0  0
  2  3  1  0
  2  1  1  0
  3  4  1  1
  5  3  1  0
  5  6  1  6
  7  8  2  0
  7  5  1  0
  9  7  1  0
 10  9  1  0
 10 11  1  0
 11 17  1  0
 12 11  2  0
 14 15  1  0
 14 13  1  1
 16 14  1  0
 16 18  1  0
 16 17  1  1
 18 19  2  0
 18 20  1  0
M  END
$$$$
