IGT.pdb
     RDKit          3D

 20 19  0  0  1  0  0  0  0  0999 V2000
   17.3720  -14.2014  -18.9884 C   0  0  0  0  0  0  0  0  0  0  0  0
   18.7295  -13.5024  -18.7960 C   0  0  0  0  0  0  0  0  0  0  0  0
   18.4758  -12.3797  -17.8306 C   0  0  2  0  0  0  0  0  0  0  0  0
   17.4328  -11.4231  -18.3417 C   0  0  0  0  0  0  0  0  0  0  0  0
   19.7332  -11.6472  -17.5172 C   0  0  2  0  0  0  0  0  0  0  0  0
   20.6600  -12.5843  -16.8941 N   0  0  0  0  0  0  0  0  0  0  0  0
   19.5885  -10.4151  -16.7413 C   0  0  0  0  0  0  0  0  0  0  0  0
   18.8900   -9.4680  -17.1765 O   0  0  0  0  0  0  0  0  0  0  0  0
   20.2022  -10.1886  -15.4739 N   0  0  0  0  0  0  0  0  0  0  0  0
   19.9121   -9.0125  -14.6868 C   0  0  0  0  0  0  0  0  0  0  0  0
   20.9203   -7.9468  -14.8721 C   0  0  0  0  0  0  0  0  0  0  0  0
   21.9588   -8.1110  -15.5745 O   0  0  0  0  0  0  0  0  0  0  0  0
   19.6543   -4.4305  -15.9137 C   0  0  0  0  0  0  0  0  0  0  0  0
   20.5808   -4.2935  -14.7198 C   0  0  1  0  0  0  0  0  0  0  0  0
   19.7976   -4.0711  -13.6020 O   0  0  0  0  0  0  0  0  0  0  0  0
   21.4689   -5.5055  -14.5580 C   0  0  2  0  0  0  0  0  0  0  0  0
   20.7353   -6.6965  -14.2522 N   0  0  0  0  0  0  0  0  0  0  0  0
   22.3802   -5.2198  -13.4131 C   0  0  0  0  0  0  0  0  0  0  0  0
   23.3121   -4.3770  -13.4958 O   0  0  0  0  0  0  0  0  0  0  0  0
   22.2446   -5.8718  -12.1962 O   0  0  0  0  0  0  0  0  0  0  0  0
  2  3  1  0
  2  1  1  0
  3  4  1  6
  5  3  1  0
  5  6  1  1
  7  8  2  0
  7  5  1  0
  9  7  1  0
 10  9  1  0
 10 11  1  0
 11 17  1  0
 12 11  2  0
 14 15  1  0
 14 13  1  6
 16 14  1  0
 16 18  1  0
 16 17  1  1
 18 19  2  0
 18 20  1  0
M  END
$$$$
