IGT.pdb
     RDKit          3D

 20 19  0  0  1  0  0  0  0  0999 V2000
   17.1380  -14.0810  -16.1254 C   0  0  0  0  0  0  0  0  0  0  0  0
   16.9879  -12.5601  -16.3063 C   0  0  0  0  0  0  0  0  0  0  0  0
   18.2601  -11.9602  -15.7785 C   0  0  2  0  0  0  0  0  0  0  0  0
   18.4854  -12.3031  -14.3307 C   0  0  0  0  0  0  0  0  0  0  0  0
   18.2738  -10.4832  -15.9634 C   0  0  2  0  0  0  0  0  0  0  0  0
   18.2079  -10.2052  -17.3930 N   0  0  0  0  0  0  0  0  0  0  0  0
   19.3642   -9.7590  -15.3096 C   0  0  0  0  0  0  0  0  0  0  0  0
   19.2905   -9.4620  -14.0927 O   0  0  0  0  0  0  0  0  0  0  0  0
   20.5590   -9.3427  -15.9680 N   0  0  0  0  0  0  0  0  0  0  0  0
   21.5670   -8.5588  -15.2926 C   0  0  0  0  0  0  0  0  0  0  0  0
   21.4243   -7.1104  -15.5540 C   0  0  0  0  0  0  0  0  0  0  0  0
   22.2732   -6.2627  -15.1546 O   0  0  0  0  0  0  0  0  0  0  0  0
   19.9428   -5.8690  -19.1172 C   0  0  0  0  0  0  0  0  0  0  0  0
   19.2795   -5.1694  -17.9454 C   0  0  1  0  0  0  0  0  0  0  0  0
   18.0178   -5.7135  -17.7891 O   0  0  0  0  0  0  0  0  0  0  0  0
   20.1059   -5.2822  -16.6851 C   0  0  2  0  0  0  0  0  0  0  0  0
   20.3094   -6.6380  -16.2722 N   0  0  0  0  0  0  0  0  0  0  0  0
   19.3459   -4.5830  -15.6098 C   0  0  0  0  0  0  0  0  0  0  0  0
   18.8449   -5.2030  -14.6350 O   0  0  0  0  0  0  0  0  0  0  0  0
   19.1533   -3.2093  -15.6316 O   0  0  0  0  0  0  0  0  0  0  0  0
  2  3  1  0
  2  1  1  0
  3  4  1  1
  5  3  1  0
  5  6  1  6
  7  8  2  0
  7  5  1  0
  9  7  1  0
 10  9  1  0
 10 11  1  0
 11 17  1  0
 12 11  2  0
 14 15  1  0
 14 13  1  6
 16 14  1  0
 16 18  1  0
 16 17  1  1
 18 19  2  0
 18 20  1  0
M  END
$$$$
