IGT.pdb
     RDKit          3D

 20 19  0  0  1  0  0  0  0  0999 V2000
   21.7793  -16.8289  -16.3697 C   0  0  0  0  0  0  0  0  0  0  0  0
   22.1130  -18.1205  -17.1372 C   0  0  0  0  0  0  0  0  0  0  0  0
   23.5331  -18.4525  -16.7768 C   0  0  2  0  0  0  0  0  0  0  0  0
   24.4056  -18.5887  -17.9952 C   0  0  0  0  0  0  0  0  0  0  0  0
   23.6024  -19.6922  -15.9558 C   0  0  2  0  0  0  0  0  0  0  0  0
   22.3714  -19.7917  -15.1811 N   0  0  0  0  0  0  0  0  0  0  0  0
   24.7942  -19.8506  -15.1218 C   0  0  0  0  0  0  0  0  0  0  0  0
   25.8575  -20.3021  -15.6115 O   0  0  0  0  0  0  0  0  0  0  0  0
   24.8529  -19.5203  -13.7355 N   0  0  0  0  0  0  0  0  0  0  0  0
   26.0851  -19.5990  -12.9856 C   0  0  0  0  0  0  0  0  0  0  0  0
   26.0022  -20.5581  -11.8632 C   0  0  0  0  0  0  0  0  0  0  0  0
   25.7829  -21.7908  -12.0398 O   0  0  0  0  0  0  0  0  0  0  0  0
   27.9781  -20.2509   -8.1075 C   0  0  0  0  0  0  0  0  0  0  0  0
   26.4607  -20.2352   -8.1100 C   0  0  1  0  0  0  0  0  0  0  0  0
   26.0527  -18.9224   -7.9603 O   0  0  0  0  0  0  0  0  0  0  0  0
   25.8963  -20.8653   -9.3624 C   0  0  2  0  0  0  0  0  0  0  0  0
   26.1708  -20.1017  -10.5421 N   0  0  0  0  0  0  0  0  0  0  0  0
   24.4170  -20.9218   -9.1849 C   0  0  0  0  0  0  0  0  0  0  0  0
   23.6352  -20.2060   -9.8645 O   0  0  0  0  0  0  0  0  0  0  0  0
   23.8282  -21.7697   -8.2581 O   0  0  0  0  0  0  0  0  0  0  0  0
  2  3  1  0
  2  1  1  0
  3  4  1  6
  5  3  1  0
  5  6  1  1
  7  8  2  0
  7  5  1  0
  9  7  1  0
 10  9  1  0
 10 11  1  0
 11 17  1  0
 12 11  2  0
 14 15  1  0
 14 13  1  6
 16 14  1  0
 16 18  1  0
 16 17  1  6
 18 19  2  0
 18 20  1  0
M  END
$$$$
