IGT.pdb
     RDKit          3D

 20 19  0  0  1  0  0  0  0  0999 V2000
   27.2977  -17.1984  -15.9782 C   0  0  0  0  0  0  0  0  0  0  0  0
   25.9883  -16.6132  -16.5363 C   0  0  0  0  0  0  0  0  0  0  0  0
   25.8815  -15.2308  -15.9580 C   0  0  2  0  0  0  0  0  0  0  0  0
   25.8517  -15.2510  -14.4537 C   0  0  0  0  0  0  0  0  0  0  0  0
   24.6844  -14.5200  -16.4847 C   0  0  2  0  0  0  0  0  0  0  0  0
   24.7719  -14.5025  -17.9398 N   0  0  0  0  0  0  0  0  0  0  0  0
   24.4251  -13.1906  -15.9310 C   0  0  0  0  0  0  0  0  0  0  0  0
   24.0790  -13.0576  -14.7323 O   0  0  0  0  0  0  0  0  0  0  0  0
   24.5375  -11.9771  -16.6719 N   0  0  0  0  0  0  0  0  0  0  0  0
   24.3878  -10.6848  -16.0438 C   0  0  0  0  0  0  0  0  0  0  0  0
   23.0412  -10.1099  -16.2501 C   0  0  0  0  0  0  0  0  0  0  0  0
   22.2886  -10.4704  -17.2001 O   0  0  0  0  0  0  0  0  0  0  0  0
   20.1322  -10.2789  -13.8818 C   0  0  0  0  0  0  0  0  0  0  0  0
   20.5041   -8.8194  -14.0664 C   0  0  1  0  0  0  0  0  0  0  0  0
   21.2597   -8.4356  -12.9736 O   0  0  0  0  0  0  0  0  0  0  0  0
   21.2335   -8.5878  -15.3696 C   0  0  2  0  0  0  0  0  0  0  0  0
   22.5612   -9.1238  -15.3674 N   0  0  0  0  0  0  0  0  0  0  0  0
   21.3339   -7.1111  -15.5486 C   0  0  0  0  0  0  0  0  0  0  0  0
   22.4318   -6.5009  -15.4599 O   0  0  0  0  0  0  0  0  0  0  0  0
   20.2173   -6.3348  -15.8226 O   0  0  0  0  0  0  0  0  0  0  0  0
  2  3  1  0
  2  1  1  0
  3  4  1  1
  5  3  1  0
  5  6  1  6
  7  8  2  0
  7  5  1  0
  9  7  1  0
 10  9  1  0
 10 11  1  0
 11 17  1  0
 12 11  2  0
 14 15  1  0
 14 13  1  1
 16 14  1  0
 16 18  1  0
 16 17  1  1
 18 19  2  0
 18 20  1  0
M  END
$$$$
