IGT.pdb
     RDKit          3D

 20 19  0  0  1  0  0  0  0  0999 V2000
   18.3083  -12.0735  -16.8944 C   0  0  0  0  0  0  0  0  0  0  0  0
   19.2965  -10.9331  -17.1969 C   0  0  0  0  0  0  0  0  0  0  0  0
   19.3976  -10.1351  -15.9281 C   0  0  2  0  0  0  0  0  0  0  0  0
   18.0577   -9.6153  -15.4822 C   0  0  0  0  0  0  0  0  0  0  0  0
   20.3600   -9.0095  -16.0776 C   0  0  2  0  0  0  0  0  0  0  0  0
   21.6836   -9.5735  -16.3133 N   0  0  0  0  0  0  0  0  0  0  0  0
   20.3663   -8.0160  -15.0033 C   0  0  0  0  0  0  0  0  0  0  0  0
   19.3422   -7.3316  -14.7642 O   0  0  0  0  0  0  0  0  0  0  0  0
   21.4892   -7.7470  -14.1661 N   0  0  0  0  0  0  0  0  0  0  0  0
   21.4253   -6.7814  -13.0935 C   0  0  0  0  0  0  0  0  0  0  0  0
   21.9522   -5.4588  -13.4930 C   0  0  0  0  0  0  0  0  0  0  0  0
   23.0119   -4.9747  -13.0015 O   0  0  0  0  0  0  0  0  0  0  0  0
   21.6408   -4.3512  -17.4730 C   0  0  0  0  0  0  0  0  0  0  0  0
   21.1735   -3.3077  -16.4753 C   0  0  1  0  0  0  0  0  0  0  0  0
   19.7915   -3.3441  -16.4437 O   0  0  0  0  0  0  0  0  0  0  0  0
   21.7780   -3.5298  -15.1081 C   0  0  2  0  0  0  0  0  0  0  0  0
   21.2634   -4.6951  -14.4544 N   0  0  0  0  0  0  0  0  0  0  0  0
   21.4182   -2.3421  -14.2818 C   0  0  0  0  0  0  0  0  0  0  0  0
   21.8441   -1.1880  -14.5506 O   0  0  0  0  0  0  0  0  0  0  0  0
   20.5930   -2.4520  -13.1721 O   0  0  0  0  0  0  0  0  0  0  0  0
  2  3  1  0
  2  1  1  0
  3  4  1  6
  5  3  1  0
  5  6  1  1
  7  8  2  0
  7  5  1  0
  9  7  1  0
 10  9  1  0
 10 11  1  0
 11 17  1  0
 12 11  2  0
 14 15  1  0
 14 13  1  6
 16 14  1  0
 16 18  1  0
 16 17  1  1
 18 19  2  0
 18 20  1  0
M  END
$$$$
