IGT.pdb
     RDKit          3D

 20 19  0  0  1  0  0  0  0  0999 V2000
   18.9797  -14.4874  -18.8541 C   0  0  0  0  0  0  0  0  0  0  0  0
   19.8377  -13.2206  -19.0202 C   0  0  0  0  0  0  0  0  0  0  0  0
   19.8461  -12.5554  -17.6732 C   0  0  2  0  0  0  0  0  0  0  0  0
   18.4550  -12.2490  -17.1885 C   0  0  0  0  0  0  0  0  0  0  0  0
   20.6669  -11.3138  -17.6933 C   0  0  2  0  0  0  0  0  0  0  0  0
   22.0474  -11.6879  -17.9755 N   0  0  0  0  0  0  0  0  0  0  0  0
   20.5585  -10.4470  -16.5193 C   0  0  0  0  0  0  0  0  0  0  0  0
   19.4802   -9.8604  -16.2595 O   0  0  0  0  0  0  0  0  0  0  0  0
   21.6233  -10.2009  -15.6029 N   0  0  0  0  0  0  0  0  0  0  0  0
   21.4936   -9.2509  -14.5224 C   0  0  0  0  0  0  0  0  0  0  0  0
   21.7244   -7.8588  -14.9643 C   0  0  0  0  0  0  0  0  0  0  0  0
   22.1219   -7.5751  -16.1307 O   0  0  0  0  0  0  0  0  0  0  0  0
   19.1418   -5.3908  -15.2801 C   0  0  0  0  0  0  0  0  0  0  0  0
   20.1274   -4.7765  -14.3035 C   0  0  1  0  0  0  0  0  0  0  0  0
   19.5990   -4.9086  -13.0324 O   0  0  0  0  0  0  0  0  0  0  0  0
   21.4958   -5.4077  -14.4172 C   0  0  2  0  0  0  0  0  0  0  0  0
   21.4991   -6.7964  -14.0686 N   0  0  0  0  0  0  0  0  0  0  0  0
   22.3806   -4.6899  -13.4556 C   0  0  0  0  0  0  0  0  0  0  0  0
   22.7628   -3.5068  -13.6553 O   0  0  0  0  0  0  0  0  0  0  0  0
   22.8273   -5.2937  -12.2893 O   0  0  0  0  0  0  0  0  0  0  0  0
  2  3  1  0
  2  1  1  0
  3  4  1  6
  5  3  1  0
  5  6  1  1
  7  8  2  0
  7  5  1  0
  9  7  1  0
 10  9  1  0
 10 11  1  0
 11 17  1  0
 12 11  2  0
 14 15  1  0
 14 13  1  6
 16 14  1  0
 16 18  1  0
 16 17  1  1
 18 19  2  0
 18 20  1  0
M  END
$$$$
