IGT.pdb
     RDKit          3D

 20 19  0  0  1  0  0  0  0  0999 V2000
   27.8386  -21.1123   -3.8079 C   0  0  0  0  0  0  0  0  0  0  0  0
   27.2333  -20.3708   -5.0130 C   0  0  0  0  0  0  0  0  0  0  0  0
   28.4025  -19.8515   -5.8003 C   0  0  2  0  0  0  0  0  0  0  0  0
   29.2264  -18.8746   -5.0059 C   0  0  0  0  0  0  0  0  0  0  0  0
   27.9557  -19.2270   -7.0755 C   0  0  2  0  0  0  0  0  0  0  0  0
   27.0995  -18.0931   -6.7488 N   0  0  0  0  0  0  0  0  0  0  0  0
   27.3369  -20.1227   -8.0532 C   0  0  0  0  0  0  0  0  0  0  0  0
   27.8566  -21.2343   -8.3153 O   0  0  0  0  0  0  0  0  0  0  0  0
   26.1379  -19.8262   -8.7665 N   0  0  0  0  0  0  0  0  0  0  0  0
   25.6339  -20.6966   -9.8034 C   0  0  0  0  0  0  0  0  0  0  0  0
   24.2598  -20.3422  -10.2190 C   0  0  0  0  0  0  0  0  0  0  0  0
   23.4842  -19.6630   -9.4868 O   0  0  0  0  0  0  0  0  0  0  0  0
   23.9165  -19.5553  -14.2708 C   0  0  0  0  0  0  0  0  0  0  0  0
   22.7795  -20.3651  -13.6758 C   0  0  1  0  0  0  0  0  0  0  0  0
   22.9793  -21.6891  -14.0215 O   0  0  0  0  0  0  0  0  0  0  0  0
   22.6819  -20.1782  -12.1794 C   0  0  2  0  0  0  0  0  0  0  0  0
   23.7788  -20.7669  -11.4720 N   0  0  0  0  0  0  0  0  0  0  0  0
   21.4319  -20.8631  -11.7420 C   0  0  0  0  0  0  0  0  0  0  0  0
   20.2903  -20.4259  -12.0443 O   0  0  0  0  0  0  0  0  0  0  0  0
   21.4665  -22.0202  -10.9776 O   0  0  0  0  0  0  0  0  0  0  0  0
  2  3  1  0
  2  1  1  0
  3  4  1  1
  5  3  1  0
  5  6  1  1
  7  8  2  0
  7  5  1  0
  9  7  1  0
 10  9  1  0
 10 11  1  0
 11 17  1  0
 12 11  2  0
 14 15  1  0
 14 13  1  1
 16 14  1  0
 16 18  1  0
 16 17  1  1
 18 19  2  0
 18 20  1  0
M  END
$$$$
