IGG.pdb
     RDKit          3D

 17 16  0  0  1  0  0  0  0  0999 V2000
    6.8202  -11.4676   27.3010 C   0  0  0  0  0  0  0  0  0  0  0  0
    6.2591  -12.6831   26.6105 C   0  0  0  0  0  0  0  0  0  0  0  0
    7.2337  -13.4814   25.8347 C   0  0  2  0  0  0  0  0  0  0  0  0
    7.7228  -12.7018   24.6001 C   0  0  0  0  0  0  0  0  0  0  0  0
    6.7867  -14.8060   25.3300 C   0  0  2  0  0  0  0  0  0  0  0  0
    6.1001  -15.5788   26.3739 N   0  0  0  0  0  0  0  0  0  0  0  0
    7.8107  -15.6294   24.6646 C   0  0  0  0  0  0  0  0  0  0  0  0
    8.4393  -16.4792   25.3377 O   0  0  0  0  0  0  0  0  0  0  0  0
    8.1246  -15.5106   23.2902 N   0  0  0  0  0  0  0  0  0  0  0  0
    8.7655  -16.5735   22.5419 C   0  0  0  0  0  0  0  0  0  0  0  0
   10.2300  -16.4783   22.6412 C   0  0  0  0  0  0  0  0  0  0  0  0
   10.9324  -17.0549   21.7776 O   0  0  0  0  0  0  0  0  0  0  0  0
   10.8726  -15.7586   23.6776 N   0  0  0  0  0  0  0  0  0  0  0  0
   12.1644  -16.1727   24.2021 C   0  0  0  0  0  0  0  0  0  0  0  0
   13.2514  -15.6251   23.3921 C   0  0  0  0  0  0  0  0  0  0  0  0
   14.3345  -15.0420   24.0326 O   0  0  0  0  0  0  0  0  0  0  0  0
   13.2680  -15.6490   22.1364 O   0  0  0  0  0  0  0  0  0  0  0  0
  2  1  1  0
  3  4  1  6
  3  2  1  0
  5  3  1  0
  5  6  1  1
  7  8  2  0
  7  5  1  0
  9  7  1  0
 10  9  1  0
 10 11  1  0
 11 12  2  0
 13 11  1  0
 13 14  1  0
 14 15  1  0
 15 17  2  0
 15 16  1  0
M  END
$$$$
