IGG.pdb
     RDKit          3D

 17 16  0  0  1  0  0  0  0  0999 V2000
    6.8975  -12.2663   18.9663 C   0  0  0  0  0  0  0  0  0  0  0  0
    7.3941  -13.6381   19.3409 C   0  0  0  0  0  0  0  0  0  0  0  0
    7.8759  -13.7829   20.7323 C   0  0  2  0  0  0  0  0  0  0  0  0
    9.0296  -12.8039   21.0184 C   0  0  0  0  0  0  0  0  0  0  0  0
    8.3639  -15.1224   21.1522 C   0  0  2  0  0  0  0  0  0  0  0  0
    7.3099  -16.1402   21.0450 N   0  0  0  0  0  0  0  0  0  0  0  0
    9.0211  -15.1937   22.4684 C   0  0  0  0  0  0  0  0  0  0  0  0
   10.0979  -14.5772   22.6445 O   0  0  0  0  0  0  0  0  0  0  0  0
    8.4945  -15.9288   23.5564 N   0  0  0  0  0  0  0  0  0  0  0  0
    9.1105  -15.9295   24.8683 C   0  0  0  0  0  0  0  0  0  0  0  0
   10.3447  -16.7298   24.8699 C   0  0  0  0  0  0  0  0  0  0  0  0
   10.8964  -16.9862   25.9660 O   0  0  0  0  0  0  0  0  0  0  0  0
   10.9301  -17.2197   23.6773 N   0  0  0  0  0  0  0  0  0  0  0  0
   12.0876  -18.0999   23.7051 C   0  0  0  0  0  0  0  0  0  0  0  0
   13.3266  -17.3281   23.6262 C   0  0  0  0  0  0  0  0  0  0  0  0
   14.3198  -17.5596   24.5661 O   0  0  0  0  0  0  0  0  0  0  0  0
   13.5531  -16.4568   22.7502 O   0  0  0  0  0  0  0  0  0  0  0  0
  2  1  1  0
  3  4  1  6
  3  2  1  0
  5  3  1  0
  5  6  1  1
  7  8  2  0
  7  5  1  0
  9  7  1  0
 10  9  1  0
 10 11  1  0
 11 12  2  0
 13 11  1  0
 13 14  1  0
 14 15  1  0
 15 17  2  0
 15 16  1  0
M  END
$$$$
