IGG.pdb
     RDKit          3D

 17 16  0  0  1  0  0  0  0  0999 V2000
    7.1769  -12.3082   18.6633 C   0  0  0  0  0  0  0  0  0  0  0  0
    8.1634  -13.4414   18.5552 C   0  0  0  0  0  0  0  0  0  0  0  0
    8.7833  -13.8696   19.8286 C   0  0  2  0  0  0  0  0  0  0  0  0
    9.5787  -12.7159   20.4671 C   0  0  0  0  0  0  0  0  0  0  0  0
    9.7120  -15.0289   19.7824 C   0  0  2  0  0  0  0  0  0  0  0  0
    9.2195  -16.0809   18.8829 N   0  0  0  0  0  0  0  0  0  0  0  0
   10.1062  -15.6005   21.0813 C   0  0  0  0  0  0  0  0  0  0  0  0
    9.2877  -16.3164   21.7041 O   0  0  0  0  0  0  0  0  0  0  0  0
   11.3746  -15.3821   21.6688 N   0  0  0  0  0  0  0  0  0  0  0  0
   11.7533  -15.9582   22.9436 C   0  0  0  0  0  0  0  0  0  0  0  0
   13.1518  -15.6402   23.2704 C   0  0  0  0  0  0  0  0  0  0  0  0
   13.6910  -16.2189   24.2431 O   0  0  0  0  0  0  0  0  0  0  0  0
   13.9087  -14.7042   22.5249 N   0  0  0  0  0  0  0  0  0  0  0  0
   15.0061  -15.1248   21.6682 C   0  0  0  0  0  0  0  0  0  0  0  0
   16.1164  -15.6423   22.4660 C   0  0  0  0  0  0  0  0  0  0  0  0
   17.3610  -15.7802   21.8699 O   0  0  0  0  0  0  0  0  0  0  0  0
   16.0147  -15.9748   23.6730 O   0  0  0  0  0  0  0  0  0  0  0  0
  2  1  1  0
  3  4  1  6
  3  2  1  0
  5  3  1  0
  5  6  1  6
  7  8  2  0
  7  5  1  0
  9  7  1  0
 10  9  1  0
 10 11  1  0
 11 12  2  0
 13 11  1  0
 13 14  1  0
 14 15  1  0
 15 17  2  0
 15 16  1  0
M  END
$$$$
