IGG.pdb
     RDKit          3D

 17 16  0  0  1  0  0  0  0  0999 V2000
    6.6212  -11.5668   27.2157 C   0  0  0  0  0  0  0  0  0  0  0  0
    6.3032  -13.0185   26.9695 C   0  0  0  0  0  0  0  0  0  0  0  0
    7.0568  -13.6574   25.8680 C   0  0  2  0  0  0  0  0  0  0  0  0
    6.7318  -12.9879   24.5200 C   0  0  0  0  0  0  0  0  0  0  0  0
    6.8581  -15.1153   25.6579 C   0  0  2  0  0  0  0  0  0  0  0  0
    6.9197  -15.8576   26.9241 N   0  0  0  0  0  0  0  0  0  0  0  0
    7.7157  -15.7503   24.6426 C   0  0  0  0  0  0  0  0  0  0  0  0
    8.9035  -16.0228   24.9344 O   0  0  0  0  0  0  0  0  0  0  0  0
    7.2636  -16.0731   23.3415 N   0  0  0  0  0  0  0  0  0  0  0  0
    8.0809  -16.7985   22.3895 C   0  0  0  0  0  0  0  0  0  0  0  0
    9.3134  -16.0570   22.0812 C   0  0  0  0  0  0  0  0  0  0  0  0
    9.2418  -15.0484   21.3402 O   0  0  0  0  0  0  0  0  0  0  0  0
   10.5762  -16.4432   22.5921 N   0  0  0  0  0  0  0  0  0  0  0  0
   11.7986  -15.7670   22.1874 C   0  0  0  0  0  0  0  0  0  0  0  0
   12.9537  -16.3198   22.8927 C   0  0  0  0  0  0  0  0  0  0  0  0
   13.6574  -17.3627   22.3092 O   0  0  0  0  0  0  0  0  0  0  0  0
   13.3555  -15.9056   24.0084 O   0  0  0  0  0  0  0  0  0  0  0  0
  2  1  1  0
  3  4  1  6
  3  2  1  0
  5  3  1  0
  5  6  1  1
  7  8  2  0
  7  5  1  0
  9  7  1  0
 10  9  1  0
 10 11  1  0
 11 12  2  0
 13 11  1  0
 13 14  1  0
 14 15  1  0
 15 17  2  0
 15 16  1  0
M  END
$$$$
