IGG.pdb
     RDKit          3D

 17 16  0  0  1  0  0  0  0  0999 V2000
    6.8594  -11.3555   27.0762 C   0  0  0  0  0  0  0  0  0  0  0  0
    6.3365  -12.7093   26.6726 C   0  0  0  0  0  0  0  0  0  0  0  0
    7.2414  -13.5137   25.8221 C   0  0  2  0  0  0  0  0  0  0  0  0
    7.4892  -12.8168   24.4715 C   0  0  0  0  0  0  0  0  0  0  0  0
    6.8200  -14.9007   25.4943 C   0  0  2  0  0  0  0  0  0  0  0  0
    6.3720  -15.6268   26.6902 N   0  0  0  0  0  0  0  0  0  0  0  0
    7.7820  -15.7100   24.7267 C   0  0  0  0  0  0  0  0  0  0  0  0
    8.7448  -16.2417   25.3273 O   0  0  0  0  0  0  0  0  0  0  0  0
    7.6745  -15.9216   23.3320 N   0  0  0  0  0  0  0  0  0  0  0  0
    8.6266  -16.7228   22.5890 C   0  0  0  0  0  0  0  0  0  0  0  0
    9.9073  -16.0148   22.4398 C   0  0  0  0  0  0  0  0  0  0  0  0
   10.1816  -15.4895   21.3351 O   0  0  0  0  0  0  0  0  0  0  0  0
   10.8397  -15.9065   23.5000 N   0  0  0  0  0  0  0  0  0  0  0  0
   12.1151  -15.2301   23.3238 C   0  0  0  0  0  0  0  0  0  0  0  0
   13.2083  -16.1979   23.2498 C   0  0  0  0  0  0  0  0  0  0  0  0
   13.7884  -16.6431   24.4282 O   0  0  0  0  0  0  0  0  0  0  0  0
   13.6624  -16.6587   22.1731 O   0  0  0  0  0  0  0  0  0  0  0  0
  2  1  1  0
  3  4  1  6
  3  2  1  0
  5  3  1  0
  5  6  1  1
  7  8  2  0
  7  5  1  0
  9  7  1  0
 10  9  1  0
 10 11  1  0
 11 12  2  0
 13 11  1  0
 13 14  1  0
 14 15  1  0
 15 17  2  0
 15 16  1  0
M  END
$$$$
