IGG.pdb
     RDKit          3D

 17 16  0  0  1  0  0  0  0  0999 V2000
    5.7614  -11.4971   26.7057 C   0  0  0  0  0  0  0  0  0  0  0  0
    6.9300  -12.3968   27.0121 C   0  0  0  0  0  0  0  0  0  0  0  0
    7.4760  -13.1462   25.8591 C   0  0  2  0  0  0  0  0  0  0  0  0
    7.4975  -12.2683   24.5942 C   0  0  0  0  0  0  0  0  0  0  0  0
    6.7858  -14.4040   25.4710 C   0  0  2  0  0  0  0  0  0  0  0  0
    6.5058  -15.2499   26.6390 N   0  0  0  0  0  0  0  0  0  0  0  0
    7.4203  -15.1921   24.4006 C   0  0  0  0  0  0  0  0  0  0  0  0
    8.1211  -16.1839   24.7096 O   0  0  0  0  0  0  0  0  0  0  0  0
    7.2778  -14.8854   23.0268 N   0  0  0  0  0  0  0  0  0  0  0  0
    7.8148  -15.7306   21.9792 C   0  0  0  0  0  0  0  0  0  0  0  0
    9.2777  -15.6008   21.8959 C   0  0  0  0  0  0  0  0  0  0  0  0
    9.8373  -15.7773   20.7881 O   0  0  0  0  0  0  0  0  0  0  0  0
   10.0742  -15.2836   23.0229 N   0  0  0  0  0  0  0  0  0  0  0  0
   11.5196  -15.1585   22.9206 C   0  0  0  0  0  0  0  0  0  0  0  0
   12.1513  -16.4761   22.8775 C   0  0  0  0  0  0  0  0  0  0  0  0
   12.8025  -16.8680   21.7174 O   0  0  0  0  0  0  0  0  0  0  0  0
   12.1422  -17.2875   23.8363 O   0  0  0  0  0  0  0  0  0  0  0  0
  2  1  1  0
  3  4  1  6
  3  2  1  0
  5  3  1  0
  5  6  1  1
  7  8  2  0
  7  5  1  0
  9  7  1  0
 10  9  1  0
 10 11  1  0
 11 12  2  0
 13 11  1  0
 13 14  1  0
 14 15  1  0
 15 17  2  0
 15 16  1  0
M  END
$$$$
