IGG.pdb
     RDKit          3D

 17 16  0  0  1  0  0  0  0  0999 V2000
   -2.8540  -28.5082   23.4512 C   0  0  0  0  0  0  0  0  0  0  0  0
   -2.8621  -27.2768   24.3186 C   0  0  0  0  0  0  0  0  0  0  0  0
   -4.0444  -27.1229   25.1948 C   0  0  2  0  0  0  0  0  0  0  0  0
   -5.3329  -26.9976   24.3611 C   0  0  0  0  0  0  0  0  0  0  0  0
   -4.0541  -25.9729   26.1362 C   0  0  2  0  0  0  0  0  0  0  0  0
   -2.8727  -25.9787   27.0095 N   0  0  0  0  0  0  0  0  0  0  0  0
   -5.2826  -25.7887   26.9276 C   0  0  0  0  0  0  0  0  0  0  0  0
   -6.3390  -25.4553   26.3416 O   0  0  0  0  0  0  0  0  0  0  0  0
   -5.3334  -25.9712   28.3296 N   0  0  0  0  0  0  0  0  0  0  0  0
   -6.5648  -25.8623   29.0861 C   0  0  0  0  0  0  0  0  0  0  0  0
   -6.6790  -24.5389   29.7181 C   0  0  0  0  0  0  0  0  0  0  0  0
   -7.1910  -24.4572   30.8595 O   0  0  0  0  0  0  0  0  0  0  0  0
   -6.2311  -23.3558   29.0821 N   0  0  0  0  0  0  0  0  0  0  0  0
   -6.1592  -22.0903   29.7953 C   0  0  0  0  0  0  0  0  0  0  0  0
   -7.4985  -21.6015   30.1184 C   0  0  0  0  0  0  0  0  0  0  0  0
   -7.6247  -20.4727   30.9141 O   0  0  0  0  0  0  0  0  0  0  0  0
   -8.5571  -22.1452   29.7163 O   0  0  0  0  0  0  0  0  0  0  0  0
  2  1  1  0
  3  4  1  6
  3  2  1  0
  5  3  1  0
  5  6  1  1
  7  8  2  0
  7  5  1  0
  9  7  1  0
 10  9  1  0
 10 11  1  0
 11 12  2  0
 13 11  1  0
 13 14  1  0
 14 15  1  0
 15 17  2  0
 15 16  1  0
M  END
$$$$
