IGG.pdb
     RDKit          3D

 17 16  0  0  1  0  0  0  0  0999 V2000
    6.2932  -13.5608   19.7429 C   0  0  0  0  0  0  0  0  0  0  0  0
    7.7317  -13.9130   19.4676 C   0  0  0  0  0  0  0  0  0  0  0  0
    8.4917  -14.4359   20.6244 C   0  0  2  0  0  0  0  0  0  0  0  0
    8.5823  -13.3820   21.7434 C   0  0  0  0  0  0  0  0  0  0  0  0
    9.8850  -14.8913   20.3790 C   0  0  2  0  0  0  0  0  0  0  0  0
    9.9783  -15.7193   19.1690 N   0  0  0  0  0  0  0  0  0  0  0  0
   10.5651  -15.5467   21.5091 C   0  0  0  0  0  0  0  0  0  0  0  0
   10.4555  -16.7874   21.6479 O   0  0  0  0  0  0  0  0  0  0  0  0
   11.3448  -14.8418   22.4561 N   0  0  0  0  0  0  0  0  0  0  0  0
   12.0471  -15.5048   23.5367 C   0  0  0  0  0  0  0  0  0  0  0  0
   11.1325  -16.3520   24.3174 C   0  0  0  0  0  0  0  0  0  0  0  0
   10.0153  -15.8893   24.6481 O   0  0  0  0  0  0  0  0  0  0  0  0
   11.4706  -17.6704   24.7077 N   0  0  0  0  0  0  0  0  0  0  0  0
   10.5264  -18.5178   25.4189 C   0  0  0  0  0  0  0  0  0  0  0  0
   11.1585  -19.7734   25.8203 C   0  0  0  0  0  0  0  0  0  0  0  0
   12.1634  -20.3011   25.0232 O   0  0  0  0  0  0  0  0  0  0  0  0
   10.8462  -20.4141   26.8545 O   0  0  0  0  0  0  0  0  0  0  0  0
  2  1  1  0
  3  4  1  1
  3  2  1  0
  5  3  1  0
  5  6  1  6
  7  8  2  0
  7  5  1  0
  9  7  1  0
 10  9  1  0
 10 11  1  0
 11 12  2  0
 13 11  1  0
 13 14  1  0
 14 15  1  0
 15 17  2  0
 15 16  1  0
M  END
$$$$
