IGG.pdb
     RDKit          3D

 17 16  0  0  1  0  0  0  0  0999 V2000
    6.7983  -11.3062   27.2670 C   0  0  0  0  0  0  0  0  0  0  0  0
    6.2609  -12.6371   26.8097 C   0  0  0  0  0  0  0  0  0  0  0  0
    7.1164  -13.3748   25.8542 C   0  0  2  0  0  0  0  0  0  0  0  0
    7.2865  -12.5825   24.5448 C   0  0  0  0  0  0  0  0  0  0  0  0
    6.6777  -14.7369   25.4528 C   0  0  2  0  0  0  0  0  0  0  0  0
    6.2994  -15.5485   26.6175 N   0  0  0  0  0  0  0  0  0  0  0  0
    7.5947  -15.4850   24.5758 C   0  0  0  0  0  0  0  0  0  0  0  0
    8.5602  -16.0984   25.0875 O   0  0  0  0  0  0  0  0  0  0  0  0
    7.4405  -15.5487   23.1709 N   0  0  0  0  0  0  0  0  0  0  0  0
    8.2564  -16.4065   22.3348 C   0  0  0  0  0  0  0  0  0  0  0  0
    9.6435  -15.9204   22.2772 C   0  0  0  0  0  0  0  0  0  0  0  0
    9.9380  -15.0330   21.4421 O   0  0  0  0  0  0  0  0  0  0  0  0
   10.6561  -16.4199   23.1317 N   0  0  0  0  0  0  0  0  0  0  0  0
   12.0348  -15.9706   23.0194 C   0  0  0  0  0  0  0  0  0  0  0  0
   12.8592  -16.5624   24.0717 C   0  0  0  0  0  0  0  0  0  0  0  0
   13.1054  -17.9268   24.0407 O   0  0  0  0  0  0  0  0  0  0  0  0
   13.3660  -15.9059   25.0151 O   0  0  0  0  0  0  0  0  0  0  0  0
  2  1  1  0
  3  4  1  6
  3  2  1  0
  5  3  1  0
  5  6  1  1
  7  8  2  0
  7  5  1  0
  9  7  1  0
 10  9  1  0
 10 11  1  0
 11 12  2  0
 13 11  1  0
 13 14  1  0
 14 15  1  0
 15 17  2  0
 15 16  1  0
M  END
$$$$
