IGG.pdb
     RDKit          3D

 17 16  0  0  1  0  0  0  0  0999 V2000
    7.1622  -11.1087   27.0881 C   0  0  0  0  0  0  0  0  0  0  0  0
    7.3344  -12.6049   27.1149 C   0  0  0  0  0  0  0  0  0  0  0  0
    6.7966  -13.3288   25.9419 C   0  0  2  0  0  0  0  0  0  0  0  0
    5.2644  -13.1935   25.8685 C   0  0  0  0  0  0  0  0  0  0  0  0
    7.0828  -14.7840   25.8449 C   0  0  2  0  0  0  0  0  0  0  0  0
    8.0545  -15.2129   26.8598 N   0  0  0  0  0  0  0  0  0  0  0  0
    7.4676  -15.2853   24.5145 C   0  0  0  0  0  0  0  0  0  0  0  0
    6.5687  -15.6029   23.7011 O   0  0  0  0  0  0  0  0  0  0  0  0
    8.8133  -15.4278   24.1017 N   0  0  0  0  0  0  0  0  0  0  0  0
    9.1794  -15.7899   22.7470 C   0  0  0  0  0  0  0  0  0  0  0  0
   10.6367  -15.9428   22.6185 C   0  0  0  0  0  0  0  0  0  0  0  0
   11.1166  -16.2349   21.4977 O   0  0  0  0  0  0  0  0  0  0  0  0
   11.5149  -15.7717   23.7160 N   0  0  0  0  0  0  0  0  0  0  0  0
   12.8775  -15.2976   23.5319 C   0  0  0  0  0  0  0  0  0  0  0  0
   13.8291  -16.4016   23.6440 C   0  0  0  0  0  0  0  0  0  0  0  0
   15.0162  -16.1943   24.3304 O   0  0  0  0  0  0  0  0  0  0  0  0
   13.6386  -17.5416   23.1522 O   0  0  0  0  0  0  0  0  0  0  0  0
  2  1  1  0
  3  4  1  1
  3  2  1  0
  5  3  1  0
  5  6  1  1
  7  8  2  0
  7  5  1  0
  9  7  1  0
 10  9  1  0
 10 11  1  0
 11 12  2  0
 13 11  1  0
 13 14  1  0
 14 15  1  0
 15 17  2  0
 15 16  1  0
M  END
$$$$
