IGG.pdb
     RDKit          3D

 17 16  0  0  1  0  0  0  0  0999 V2000
    6.9462  -11.4107   27.8288 C   0  0  0  0  0  0  0  0  0  0  0  0
    6.3155  -12.5545   27.0785 C   0  0  0  0  0  0  0  0  0  0  0  0
    7.1105  -13.0930   25.9528 C   0  0  2  0  0  0  0  0  0  0  0  0
    7.4362  -11.9870   24.9322 C   0  0  0  0  0  0  0  0  0  0  0  0
    6.5199  -14.2097   25.1698 C   0  0  2  0  0  0  0  0  0  0  0  0
    6.3270  -15.4080   25.9975 N   0  0  0  0  0  0  0  0  0  0  0  0
    7.2009  -14.5541   23.9101 C   0  0  0  0  0  0  0  0  0  0  0  0
    7.3895  -13.6568   23.0559 O   0  0  0  0  0  0  0  0  0  0  0  0
    7.6591  -15.8587   23.6108 N   0  0  0  0  0  0  0  0  0  0  0  0
    8.3247  -16.1851   22.3654 C   0  0  0  0  0  0  0  0  0  0  0  0
    9.7861  -16.1052   22.5128 C   0  0  0  0  0  0  0  0  0  0  0  0
   10.5079  -16.3665   21.5217 O   0  0  0  0  0  0  0  0  0  0  0  0
   10.4045  -15.7437   23.7342 N   0  0  0  0  0  0  0  0  0  0  0  0
   11.8518  -15.6826   23.8641 C   0  0  0  0  0  0  0  0  0  0  0  0
   12.3729  -16.9235   24.4348 C   0  0  0  0  0  0  0  0  0  0  0  0
   13.6372  -16.9183   25.0049 O   0  0  0  0  0  0  0  0  0  0  0  0
   11.7411  -18.0091   24.4422 O   0  0  0  0  0  0  0  0  0  0  0  0
  2  1  1  0
  3  4  1  6
  3  2  1  0
  5  3  1  0
  5  6  1  1
  7  8  2  0
  7  5  1  0
  9  7  1  0
 10  9  1  0
 10 11  1  0
 11 12  2  0
 13 11  1  0
 13 14  1  0
 14 15  1  0
 15 17  2  0
 15 16  1  0
M  END
$$$$
