IGG.pdb
     RDKit          3D

 17 16  0  0  1  0  0  0  0  0999 V2000
    7.1505  -11.6687   27.0765 C   0  0  0  0  0  0  0  0  0  0  0  0
    6.5146  -12.9856   26.7153 C   0  0  0  0  0  0  0  0  0  0  0  0
    7.2954  -13.8375   25.7914 C   0  0  2  0  0  0  0  0  0  0  0  0
    7.4636  -13.1523   24.4227 C   0  0  0  0  0  0  0  0  0  0  0  0
    6.7697  -15.1978   25.5048 C   0  0  2  0  0  0  0  0  0  0  0  0
    6.3419  -15.8821   26.7324 N   0  0  0  0  0  0  0  0  0  0  0  0
    7.6354  -16.0745   24.6976 C   0  0  0  0  0  0  0  0  0  0  0  0
    8.2979  -16.9701   25.2714 O   0  0  0  0  0  0  0  0  0  0  0  0
    7.7590  -15.9577   23.2931 N   0  0  0  0  0  0  0  0  0  0  0  0
    8.0950  -17.0828   22.4435 C   0  0  0  0  0  0  0  0  0  0  0  0
    9.5429  -17.3418   22.4609 C   0  0  0  0  0  0  0  0  0  0  0  0
    9.9919  -18.3052   21.7962 O   0  0  0  0  0  0  0  0  0  0  0  0
   10.4455  -16.5411   23.2019 N   0  0  0  0  0  0  0  0  0  0  0  0
   11.8089  -16.9756   23.4622 C   0  0  0  0  0  0  0  0  0  0  0  0
   12.7491  -15.8729   23.2693 C   0  0  0  0  0  0  0  0  0  0  0  0
   12.8701  -15.3101   22.0076 O   0  0  0  0  0  0  0  0  0  0  0  0
   13.4644  -15.3957   24.1850 O   0  0  0  0  0  0  0  0  0  0  0  0
  2  1  1  0
  3  4  1  6
  3  2  1  0
  5  3  1  0
  5  6  1  1
  7  8  2  0
  7  5  1  0
  9  7  1  0
 10  9  1  0
 10 11  1  0
 11 12  2  0
 13 11  1  0
 13 14  1  0
 14 15  1  0
 15 17  2  0
 15 16  1  0
M  END
$$$$
