IGG.pdb
     RDKit          3D

 17 16  0  0  1  0  0  0  0  0999 V2000
    6.1980  -11.2985   27.6005 C   0  0  0  0  0  0  0  0  0  0  0  0
    5.9902  -12.6413   26.9501 C   0  0  0  0  0  0  0  0  0  0  0  0
    6.9848  -13.0098   25.9186 C   0  0  2  0  0  0  0  0  0  0  0  0
    6.9102  -12.0504   24.7165 C   0  0  0  0  0  0  0  0  0  0  0  0
    6.9070  -14.3814   25.3514 C   0  0  2  0  0  0  0  0  0  0  0  0
    6.7940  -15.3974   26.4065 N   0  0  0  0  0  0  0  0  0  0  0  0
    7.9590  -14.7491   24.3884 C   0  0  0  0  0  0  0  0  0  0  0  0
    9.1484  -14.8050   24.7791 O   0  0  0  0  0  0  0  0  0  0  0  0
    7.6943  -15.0466   23.0308 N   0  0  0  0  0  0  0  0  0  0  0  0
    8.6699  -14.8318   21.9807 C   0  0  0  0  0  0  0  0  0  0  0  0
    9.6873  -15.8941   21.9820 C   0  0  0  0  0  0  0  0  0  0  0  0
   10.3144  -16.1306   20.9226 O   0  0  0  0  0  0  0  0  0  0  0  0
    9.9821  -16.6576   23.1375 N   0  0  0  0  0  0  0  0  0  0  0  0
   10.9420  -17.7497   23.1018 C   0  0  0  0  0  0  0  0  0  0  0  0
   12.1597  -17.3923   23.8275 C   0  0  0  0  0  0  0  0  0  0  0  0
   13.2094  -16.8148   23.1290 O   0  0  0  0  0  0  0  0  0  0  0  0
   12.3190  -17.5770   25.0597 O   0  0  0  0  0  0  0  0  0  0  0  0
  2  1  1  0
  3  4  1  6
  3  2  1  0
  5  3  1  0
  5  6  1  1
  7  8  2  0
  7  5  1  0
  9  7  1  0
 10  9  1  0
 10 11  1  0
 11 12  2  0
 13 11  1  0
 13 14  1  0
 14 15  1  0
 15 17  2  0
 15 16  1  0
M  END
$$$$
