DIW.pdb
     RDKit          3D

 31 32  0  0  1  0  0  0  0  0999 V2000
   15.7438  -20.2868    0.9583 N   0  0  0  0  0  0  0  0  0  0  0  0
   15.4534  -19.6726    2.2355 C   0  0  1  0  0  0  0  0  0  0  0  0
   14.7519  -20.6627    3.1114 C   0  0  0  0  0  0  0  0  0  0  0  0
   13.4293  -21.0958    2.6252 C   0  0  0  0  0  0  0  0  0  0  0  0
   12.9374  -20.7444    1.5272 O   0  0  0  0  0  0  0  0  0  0  0  0
   16.6665  -19.1692    2.9181 C   0  0  0  0  0  0  0  0  0  0  0  0
   17.7300  -19.8168    2.8864 O   0  0  0  0  0  0  0  0  0  0  0  0
   12.6285  -21.9485    3.3880 O   0  0  0  0  0  0  0  0  0  0  0  0
   17.4728  -13.8483    2.5217 C   0  0  0  0  0  0  0  0  0  0  0  0
   17.6609  -15.2857    2.7518 C   0  0  0  0  0  0  0  0  0  0  0  0
   17.5411  -15.8401    4.1055 C   0  0  2  0  0  0  0  0  0  0  0  0
   18.4008  -15.0935    5.0971 C   0  0  0  0  0  0  0  0  0  0  0  0
   17.7472  -17.3188    4.2685 C   0  0  2  0  0  0  0  0  0  0  0  0
   16.6306  -17.9601    3.6100 N   0  0  0  0  0  0  0  0  0  0  0  0
   17.9290  -17.7374    5.6586 C   0  0  0  0  0  0  0  0  0  0  0  0
   16.9774  -17.6983    6.4621 O   0  0  0  0  0  0  0  0  0  0  0  0
   19.1896  -18.1920    6.0937 N   0  0  0  0  0  0  0  0  0  0  0  0
   19.5004  -18.5582    7.4732 C   0  0  1  0  0  0  0  0  0  0  0  0
   20.8386  -19.2056    7.5602 C   0  0  0  0  0  0  0  0  0  0  0  0
   21.2563  -19.7280    8.8617 C   0  0  0  0  0  0  0  0  0  0  0  0
   20.8058  -20.9165    9.4680 C   0  0  0  0  0  0  0  0  0  0  0  0
   21.3790  -21.0399   10.6605 N   0  0  0  0  0  0  0  0  0  0  0  0
   22.1951  -20.0013   10.8980 C   0  0  0  0  0  0  0  0  0  0  0  0
   23.0173  -19.6535   11.9337 C   0  0  0  0  0  0  0  0  0  0  0  0
   23.7973  -18.5006   11.9195 C   0  0  0  0  0  0  0  0  0  0  0  0
   23.7340  -17.6830   10.8177 C   0  0  0  0  0  0  0  0  0  0  0  0
   22.9014  -18.0472    9.7858 C   0  0  0  0  0  0  0  0  0  0  0  0
   22.1261  -19.1844    9.7908 C   0  0  0  0  0  0  0  0  0  0  0  0
   19.4092  -17.3602    8.2956 C   0  0  0  0  0  0  0  0  0  0  0  0
   18.9509  -17.4393    9.6273 O   0  0  0  0  0  0  0  0  0  0  0  0
   19.7094  -16.1840    7.9378 O   0  0  0  0  0  0  0  0  0  0  0  0
  2  1  1  6
  3  2  1  0
  3  4  1  0
  4  5  2  0
  6  2  1  0
  6 14  1  0
  7  6  2  0
  8  4  1  0
  9 10  1  0
 11 10  1  0
 11 12  1  1
 13 11  1  0
 13 15  1  0
 13 14  1  1
 15 16  2  0
 17 15  1  0
 17 18  1  0
 18 19  1  6
 19 20  1  0
 20 28  1  0
 21 20  2  0
 21 22  1  0
 22 23  1  0
 23 24  1  0
 24 25  2  0
 26 25  1  0
 27 26  2  0
 28 23  2  0
 28 27  1  0
 29 30  1  0
 29 18  1  0
 31 29  2  0
M  END
$$$$
