DIW.pdb
     RDKit          3D

 31 32  0  0  1  0  0  0  0  0999 V2000
   34.5315  -26.7512  -21.0464 N   0  0  0  0  0  0  0  0  0  0  0  0
   34.5020  -28.1386  -20.6378 C   0  0  1  0  0  0  0  0  0  0  0  0
   35.1586  -28.2732  -19.2997 C   0  0  0  0  0  0  0  0  0  0  0  0
   36.5784  -27.8785  -19.2611 C   0  0  0  0  0  0  0  0  0  0  0  0
   37.0154  -26.8985  -18.6134 O   0  0  0  0  0  0  0  0  0  0  0  0
   33.1296  -28.6901  -20.5815 C   0  0  0  0  0  0  0  0  0  0  0  0
   32.1553  -27.9505  -20.3468 O   0  0  0  0  0  0  0  0  0  0  0  0
   37.5430  -28.5999  -19.9679 O   0  0  0  0  0  0  0  0  0  0  0  0
   30.2526  -29.9568  -23.8113 C   0  0  0  0  0  0  0  0  0  0  0  0
   31.5452  -30.5998  -23.5460 C   0  0  0  0  0  0  0  0  0  0  0  0
   31.7384  -31.3984  -22.3299 C   0  0  2  0  0  0  0  0  0  0  0  0
   30.8605  -32.6269  -22.3184 C   0  0  0  0  0  0  0  0  0  0  0  0
   31.6326  -30.6877  -21.0111 C   0  0  2  0  0  0  0  0  0  0  0  0
   32.9120  -30.0509  -20.7886 N   0  0  0  0  0  0  0  0  0  0  0  0
   31.2069  -31.5518  -19.9099 C   0  0  0  0  0  0  0  0  0  0  0  0
   31.7812  -32.6370  -19.6970 O   0  0  0  0  0  0  0  0  0  0  0  0
   30.1404  -31.1538  -19.0798 N   0  0  0  0  0  0  0  0  0  0  0  0
   29.6595  -31.9217  -17.9340 C   0  0  1  0  0  0  0  0  0  0  0  0
   28.6106  -31.1668  -17.1938 C   0  0  0  0  0  0  0  0  0  0  0  0
   27.9759  -31.8286  -16.0534 C   0  0  0  0  0  0  0  0  0  0  0  0
   28.6169  -32.6350  -15.0933 C   0  0  0  0  0  0  0  0  0  0  0  0
   27.7111  -33.0905  -14.2342 N   0  0  0  0  0  0  0  0  0  0  0  0
   26.4898  -32.6373  -14.5568 C   0  0  0  0  0  0  0  0  0  0  0  0
   25.2448  -32.7833  -14.0106 C   0  0  0  0  0  0  0  0  0  0  0  0
   24.1140  -32.1704  -14.5427 C   0  0  0  0  0  0  0  0  0  0  0  0
   24.2610  -31.3884  -15.6623 C   0  0  0  0  0  0  0  0  0  0  0  0
   25.5197  -31.2532  -16.1992 C   0  0  0  0  0  0  0  0  0  0  0  0
   26.6434  -31.8555  -15.6807 C   0  0  0  0  0  0  0  0  0  0  0  0
   29.1805  -33.2095  -18.4155 C   0  0  0  0  0  0  0  0  0  0  0  0
   29.6788  -34.4094  -17.8662 O   0  0  0  0  0  0  0  0  0  0  0  0
   28.3185  -33.3939  -19.3236 O   0  0  0  0  0  0  0  0  0  0  0  0
  2  1  1  1
  3  2  1  0
  3  4  1  0
  4  5  2  0
  6  2  1  0
  6 14  1  0
  7  6  2  0
  8  4  1  0
  9 10  1  0
 11 10  1  0
 11 12  1  1
 13 11  1  0
 13 15  1  0
 13 14  1  1
 15 16  2  0
 17 15  1  0
 17 18  1  0
 18 19  1  6
 19 20  1  0
 20 28  1  0
 21 20  2  0
 21 22  1  0
 22 23  1  0
 23 24  1  0
 24 25  2  0
 26 25  1  0
 27 26  2  0
 28 23  2  0
 28 27  1  0
 29 30  1  0
 29 18  1  0
 31 29  2  0
M  END
$$$$
