DIW.pdb
     RDKit          3D

 31 32  0  0  1  0  0  0  0  0999 V2000
   14.5934  -11.9498  -18.7462 N   0  0  0  0  0  0  0  0  0  0  0  0
   14.2782  -10.8703  -17.8363 C   0  0  1  0  0  0  0  0  0  0  0  0
   14.1187  -11.4205  -16.4538 C   0  0  0  0  0  0  0  0  0  0  0  0
   13.1270  -12.5037  -16.3261 C   0  0  0  0  0  0  0  0  0  0  0  0
   13.4094  -13.6741  -15.9775 O   0  0  0  0  0  0  0  0  0  0  0  0
   15.3036   -9.8028  -17.8369 C   0  0  0  0  0  0  0  0  0  0  0  0
   16.5140  -10.0827  -17.9263 O   0  0  0  0  0  0  0  0  0  0  0  0
   11.7760  -12.2748  -16.5957 O   0  0  0  0  0  0  0  0  0  0  0  0
   13.8416   -7.0596  -20.4963 C   0  0  0  0  0  0  0  0  0  0  0  0
   15.1347   -6.6177  -19.9603 C   0  0  0  0  0  0  0  0  0  0  0  0
   15.2684   -6.2751  -18.5395 C   0  0  2  0  0  0  0  0  0  0  0  0
   16.0288   -4.9857  -18.3411 C   0  0  0  0  0  0  0  0  0  0  0  0
   15.8133   -7.3311  -17.6212 C   0  0  2  0  0  0  0  0  0  0  0  0
   14.9239   -8.4661  -17.7335 N   0  0  0  0  0  0  0  0  0  0  0  0
   16.0082   -6.8711  -16.2461 C   0  0  0  0  0  0  0  0  0  0  0  0
   15.2079   -6.0698  -15.7261 O   0  0  0  0  0  0  0  0  0  0  0  0
   17.1081   -7.3392  -15.5005 N   0  0  0  0  0  0  0  0  0  0  0  0
   17.4542   -6.8685  -14.1616 C   0  0  1  0  0  0  0  0  0  0  0  0
   18.4416   -7.7795  -13.5192 C   0  0  0  0  0  0  0  0  0  0  0  0
   19.0831   -7.3232  -12.2857 C   0  0  0  0  0  0  0  0  0  0  0  0
   18.6180   -7.5376  -10.9739 C   0  0  0  0  0  0  0  0  0  0  0  0
   19.4433   -6.9441  -10.1180 N   0  0  0  0  0  0  0  0  0  0  0  0
   20.4444   -6.3388  -10.7756 C   0  0  0  0  0  0  0  0  0  0  0  0
   21.5423   -5.6218  -10.3879 C   0  0  0  0  0  0  0  0  0  0  0  0
   22.4641   -5.1090  -11.2960 C   0  0  0  0  0  0  0  0  0  0  0  0
   22.2571   -5.3355  -12.6348 C   0  0  0  0  0  0  0  0  0  0  0  0
   21.1477   -6.0575  -13.0073 C   0  0  0  0  0  0  0  0  0  0  0  0
   20.2305   -6.5680  -12.1171 C   0  0  0  0  0  0  0  0  0  0  0  0
   17.9481   -5.5032  -14.2708 C   0  0  0  0  0  0  0  0  0  0  0  0
   17.6160   -4.5416  -13.2936 O   0  0  0  0  0  0  0  0  0  0  0  0
   18.6843   -5.0467  -15.1934 O   0  0  0  0  0  0  0  0  0  0  0  0
  2  1  1  6
  3  2  1  0
  3  4  1  0
  4  5  2  0
  6  2  1  0
  6 14  1  0
  7  6  2  0
  8  4  1  0
  9 10  1  0
 11 10  1  0
 11 12  1  6
 13 11  1  0
 13 15  1  0
 13 14  1  1
 15 16  2  0
 17 15  1  0
 17 18  1  0
 18 19  1  6
 19 20  1  0
 20 28  1  0
 21 20  2  0
 21 22  1  0
 22 23  1  0
 23 24  1  0
 24 25  2  0
 26 25  1  0
 27 26  2  0
 28 23  2  0
 28 27  1  0
 29 30  1  0
 29 18  1  0
 31 29  2  0
M  END
$$$$
