DIW.pdb
     RDKit          3D

 31 32  0  0  1  0  0  0  0  0999 V2000
   27.8432  -22.2632  -16.3176 N   0  0  0  0  0  0  0  0  0  0  0  0
   27.5001  -21.1278  -15.4895 C   0  0  1  0  0  0  0  0  0  0  0  0
   26.9415  -20.0391  -16.3511 C   0  0  0  0  0  0  0  0  0  0  0  0
   27.9105  -19.4135  -17.2690 C   0  0  0  0  0  0  0  0  0  0  0  0
   29.1119  -19.7589  -17.3607 O   0  0  0  0  0  0  0  0  0  0  0  0
   26.5335  -21.4690  -14.4216 C   0  0  0  0  0  0  0  0  0  0  0  0
   25.6602  -22.3375  -14.6070 O   0  0  0  0  0  0  0  0  0  0  0  0
   27.5279  -18.3684  -18.1126 O   0  0  0  0  0  0  0  0  0  0  0  0
   28.5529  -20.6853   -9.5076 C   0  0  0  0  0  0  0  0  0  0  0  0
   27.7364  -21.1252  -10.6453 C   0  0  0  0  0  0  0  0  0  0  0  0
   26.3951  -20.5667  -10.8531 C   0  0  2  0  0  0  0  0  0  0  0  0
   25.5096  -20.7667   -9.6465 C   0  0  0  0  0  0  0  0  0  0  0  0
   25.6589  -20.9782  -12.0957 C   0  0  2  0  0  0  0  0  0  0  0  0
   26.5886  -20.8162  -13.1917 N   0  0  0  0  0  0  0  0  0  0  0  0
   24.3925  -20.2718  -12.2901 C   0  0  0  0  0  0  0  0  0  0  0  0
   24.1788  -19.1847  -11.7195 O   0  0  0  0  0  0  0  0  0  0  0  0
   23.4058  -20.8222  -13.1316 N   0  0  0  0  0  0  0  0  0  0  0  0
   22.2199  -20.1021  -13.5888 C   0  0  1  0  0  0  0  0  0  0  0  0
   22.2525  -19.9125  -15.0655 C   0  0  0  0  0  0  0  0  0  0  0  0
   21.1018  -19.2602  -15.6913 C   0  0  0  0  0  0  0  0  0  0  0  0
   20.6728  -17.9365  -15.4751 C   0  0  0  0  0  0  0  0  0  0  0  0
   19.5736  -17.7143  -16.1881 N   0  0  0  0  0  0  0  0  0  0  0  0
   19.2323  -18.8137  -16.8780 C   0  0  0  0  0  0  0  0  0  0  0  0
   18.2274  -19.1138  -17.7554 C   0  0  0  0  0  0  0  0  0  0  0  0
   18.1101  -20.3589  -18.3663 C   0  0  0  0  0  0  0  0  0  0  0  0
   19.0447  -21.3214  -18.0718 C   0  0  0  0  0  0  0  0  0  0  0  0
   20.0478  -21.0031  -17.1869 C   0  0  0  0  0  0  0  0  0  0  0  0
   20.1718  -19.7753  -16.5774 C   0  0  0  0  0  0  0  0  0  0  0  0
   21.0419  -20.8363  -13.1496 C   0  0  0  0  0  0  0  0  0  0  0  0
   21.0414  -22.2469  -13.1361 O   0  0  0  0  0  0  0  0  0  0  0  0
   19.9509  -20.3309  -12.7546 O   0  0  0  0  0  0  0  0  0  0  0  0
  2  1  1  6
  3  2  1  0
  3  4  1  0
  4  5  2  0
  6  2  1  0
  6 14  1  0
  7  6  2  0
  8  4  1  0
  9 10  1  0
 11 10  1  0
 11 12  1  1
 13 11  1  0
 13 15  1  0
 13 14  1  6
 15 16  2  0
 17 15  1  0
 17 18  1  0
 18 19  1  6
 19 20  1  0
 20 28  1  0
 21 20  2  0
 21 22  1  0
 22 23  1  0
 23 24  1  0
 24 25  2  0
 26 25  1  0
 27 26  2  0
 28 23  2  0
 28 27  1  0
 29 30  1  0
 29 18  1  0
 31 29  2  0
M  END
$$$$
