DIW.pdb
     RDKit          3D

 31 32  0  0  1  0  0  0  0  0999 V2000
   23.9763  -18.7016  -15.8091 N   0  0  0  0  0  0  0  0  0  0  0  0
   24.1033  -18.6425  -14.3692 C   0  0  1  0  0  0  0  0  0  0  0  0
   22.7394  -18.6089  -13.7543 C   0  0  0  0  0  0  0  0  0  0  0  0
   21.8483  -17.5562  -14.2747 C   0  0  0  0  0  0  0  0  0  0  0  0
   22.2366  -16.4124  -14.6094 O   0  0  0  0  0  0  0  0  0  0  0  0
   24.8762  -19.7769  -13.8153 C   0  0  0  0  0  0  0  0  0  0  0  0
   24.5943  -20.9503  -14.1237 O   0  0  0  0  0  0  0  0  0  0  0  0
   20.4792  -17.7859  -14.4269 O   0  0  0  0  0  0  0  0  0  0  0  0
   29.7732  -19.6476  -14.6122 C   0  0  0  0  0  0  0  0  0  0  0  0
   28.4123  -19.9204  -14.1349 C   0  0  0  0  0  0  0  0  0  0  0  0
   28.1744  -20.2445  -12.7233 C   0  0  2  0  0  0  0  0  0  0  0  0
   29.0944  -21.3375  -12.2346 C   0  0  0  0  0  0  0  0  0  0  0  0
   26.7625  -20.5487  -12.3114 C   0  0  2  0  0  0  0  0  0  0  0  0
   25.9312  -19.5431  -12.9355 N   0  0  0  0  0  0  0  0  0  0  0  0
   26.5804  -20.6454  -10.8630 C   0  0  0  0  0  0  0  0  0  0  0  0
   27.5658  -20.7105  -10.1030 O   0  0  0  0  0  0  0  0  0  0  0  0
   25.2803  -20.6623  -10.3204 N   0  0  0  0  0  0  0  0  0  0  0  0
   24.9734  -20.9928   -8.9310 C   0  0  1  0  0  0  0  0  0  0  0  0
   25.2410  -19.8307   -8.0391 C   0  0  0  0  0  0  0  0  0  0  0  0
   26.6264  -19.5924   -7.6326 C   0  0  0  0  0  0  0  0  0  0  0  0
   27.6745  -19.1464   -8.4606 C   0  0  0  0  0  0  0  0  0  0  0  0
   28.7945  -19.0842   -7.7479 N   0  0  0  0  0  0  0  0  0  0  0  0
   28.5652  -19.4623   -6.4808 C   0  0  0  0  0  0  0  0  0  0  0  0
   29.3434  -19.5615   -5.3608 C   0  0  0  0  0  0  0  0  0  0  0  0
   28.8394  -19.9697   -4.1292 C   0  0  0  0  0  0  0  0  0  0  0  0
   27.5053  -20.2846   -4.0416 C   0  0  0  0  0  0  0  0  0  0  0  0
   26.7375  -20.1803   -5.1776 C   0  0  0  0  0  0  0  0  0  0  0  0
   27.2267  -19.7784   -6.3996 C   0  0  0  0  0  0  0  0  0  0  0  0
   23.5888  -21.4376   -8.8623 C   0  0  0  0  0  0  0  0  0  0  0  0
   23.0570  -21.9390   -7.6558 O   0  0  0  0  0  0  0  0  0  0  0  0
   22.7533  -21.4285   -9.8128 O   0  0  0  0  0  0  0  0  0  0  0  0
  2  1  1  6
  3  2  1  0
  3  4  1  0
  4  5  2  0
  6  2  1  0
  6 14  1  0
  7  6  2  0
  8  4  1  0
  9 10  1  0
 11 10  1  0
 11 12  1  6
 13 11  1  0
 13 15  1  0
 13 14  1  1
 15 16  2  0
 17 15  1  0
 17 18  1  0
 18 19  1  1
 19 20  1  0
 20 28  1  0
 21 20  2  0
 21 22  1  0
 22 23  1  0
 23 24  1  0
 24 25  2  0
 26 25  1  0
 27 26  2  0
 28 23  2  0
 28 27  1  0
 29 30  1  0
 29 18  1  0
 31 29  2  0
M  END
$$$$
