DIW.pdb
     RDKit          3D

 31 32  0  0  1  0  0  0  0  0999 V2000
   22.3113  -18.9259  -16.6233 N   0  0  0  0  0  0  0  0  0  0  0  0
   23.3817  -19.3455  -15.7453 C   0  0  1  0  0  0  0  0  0  0  0  0
   24.6753  -18.7754  -16.2363 C   0  0  0  0  0  0  0  0  0  0  0  0
   25.1079  -19.2631  -17.5585 C   0  0  0  0  0  0  0  0  0  0  0  0
   24.4135  -20.0044  -18.2929 O   0  0  0  0  0  0  0  0  0  0  0  0
   23.1583  -18.9450  -14.3379 C   0  0  0  0  0  0  0  0  0  0  0  0
   22.6599  -17.8372  -14.0626 O   0  0  0  0  0  0  0  0  0  0  0  0
   26.3555  -18.9131  -18.0792 O   0  0  0  0  0  0  0  0  0  0  0  0
   20.5849  -20.5706   -9.6218 C   0  0  0  0  0  0  0  0  0  0  0  0
   21.0954  -19.4933  -10.4783 C   0  0  0  0  0  0  0  0  0  0  0  0
   21.7075  -19.8063  -11.7750 C   0  0  2  0  0  0  0  0  0  0  0  0
   21.3148  -21.1793  -12.2655 C   0  0  0  0  0  0  0  0  0  0  0  0
   23.1937  -19.6296  -11.8995 C   0  0  2  0  0  0  0  0  0  0  0  0
   23.5083  -19.8065  -13.3001 N   0  0  0  0  0  0  0  0  0  0  0  0
   23.9656  -20.4972  -11.0097 C   0  0  0  0  0  0  0  0  0  0  0  0
   23.9271  -21.7358  -11.1415 O   0  0  0  0  0  0  0  0  0  0  0  0
   24.7624  -19.9293   -9.9961 N   0  0  0  0  0  0  0  0  0  0  0  0
   25.8675  -20.6192   -9.3353 C   0  0  1  0  0  0  0  0  0  0  0  0
   26.8241  -19.6423   -8.7452 C   0  0  0  0  0  0  0  0  0  0  0  0
   27.9276  -20.1727   -7.9438 C   0  0  0  0  0  0  0  0  0  0  0  0
   28.8622  -21.1447   -8.3495 C   0  0  0  0  0  0  0  0  0  0  0  0
   29.6895  -21.3993   -7.3412 N   0  0  0  0  0  0  0  0  0  0  0  0
   29.3694  -20.6531   -6.2726 C   0  0  0  0  0  0  0  0  0  0  0  0
   29.8922  -20.5142   -5.0168 C   0  0  0  0  0  0  0  0  0  0  0  0
   29.3705  -19.6272   -4.0794 C   0  0  0  0  0  0  0  0  0  0  0  0
   28.2862  -18.8633   -4.4361 C   0  0  0  0  0  0  0  0  0  0  0  0
   27.7725  -19.0163   -5.7024 C   0  0  0  0  0  0  0  0  0  0  0  0
   28.2808  -19.8908   -6.6357 C   0  0  0  0  0  0  0  0  0  0  0  0
   25.3112  -21.5225   -8.3381 C   0  0  0  0  0  0  0  0  0  0  0  0
   24.0194  -21.3038   -7.8155 O   0  0  0  0  0  0  0  0  0  0  0  0
   25.8819  -22.5428   -7.8533 O   0  0  0  0  0  0  0  0  0  0  0  0
  2  1  1  6
  3  2  1  0
  3  4  1  0
  4  5  2  0
  6  2  1  0
  6 14  1  0
  7  6  2  0
  8  4  1  0
  9 10  1  0
 11 10  1  0
 11 12  1  1
 13 11  1  0
 13 15  1  0
 13 14  1  6
 15 16  2  0
 17 15  1  0
 17 18  1  0
 18 19  1  1
 19 20  1  0
 20 28  1  0
 21 20  2  0
 21 22  1  0
 22 23  1  0
 23 24  1  0
 24 25  2  0
 26 25  1  0
 27 26  2  0
 28 23  2  0
 28 27  1  0
 29 30  1  0
 29 18  1  0
 31 29  2  0
M  END
$$$$
