DIW.pdb
     RDKit          3D

 31 32  0  0  1  0  0  0  0  0999 V2000
   25.5106  -24.9904  -16.8496 N   0  0  0  0  0  0  0  0  0  0  0  0
   24.9360  -23.8776  -16.1254 C   0  0  1  0  0  0  0  0  0  0  0  0
   23.7282  -24.3467  -15.3767 C   0  0  0  0  0  0  0  0  0  0  0  0
   22.5922  -24.7557  -16.2224 C   0  0  0  0  0  0  0  0  0  0  0  0
   22.6014  -24.7148  -17.4751 O   0  0  0  0  0  0  0  0  0  0  0  0
   25.8940  -23.2475  -15.1894 C   0  0  0  0  0  0  0  0  0  0  0  0
   26.7519  -23.9317  -14.6000 O   0  0  0  0  0  0  0  0  0  0  0  0
   21.4067  -25.2256  -15.6531 O   0  0  0  0  0  0  0  0  0  0  0  0
   28.1136  -17.5634  -14.4812 C   0  0  0  0  0  0  0  0  0  0  0  0
   27.7781  -18.8683  -13.8987 C   0  0  0  0  0  0  0  0  0  0  0  0
   26.8550  -19.7734  -14.5936 C   0  0  2  0  0  0  0  0  0  0  0  0
   25.5155  -19.1244  -14.8473 C   0  0  0  0  0  0  0  0  0  0  0  0
   26.6525  -21.1405  -14.0058 C   0  0  2  0  0  0  0  0  0  0  0  0
   25.8439  -21.8750  -14.9537 N   0  0  0  0  0  0  0  0  0  0  0  0
   26.0995  -21.1223  -12.6515 C   0  0  0  0  0  0  0  0  0  0  0  0
   24.8715  -21.0137  -12.4695 O   0  0  0  0  0  0  0  0  0  0  0  0
   26.9609  -21.2315  -11.5420 N   0  0  0  0  0  0  0  0  0  0  0  0
   26.5246  -21.1451  -10.1506 C   0  0  1  0  0  0  0  0  0  0  0  0
   27.6800  -20.8799   -9.2492 C   0  0  0  0  0  0  0  0  0  0  0  0
   27.3947  -20.3226   -7.9266 C   0  0  0  0  0  0  0  0  0  0  0  0
   26.2522  -19.5857   -7.5598 C   0  0  0  0  0  0  0  0  0  0  0  0
   26.3637  -19.2158   -6.2883 N   0  0  0  0  0  0  0  0  0  0  0  0
   27.5186  -19.6616   -5.7702 C   0  0  0  0  0  0  0  0  0  0  0  0
   28.1033  -19.5805   -4.5368 C   0  0  0  0  0  0  0  0  0  0  0  0
   29.3320  -20.1672   -4.2475 C   0  0  0  0  0  0  0  0  0  0  0  0
   29.9789  -20.8539   -5.2458 C   0  0  0  0  0  0  0  0  0  0  0  0
   29.3773  -20.9248   -6.4802 C   0  0  0  0  0  0  0  0  0  0  0  0
   28.1633  -20.3477   -6.7760 C   0  0  0  0  0  0  0  0  0  0  0  0
   25.4996  -20.1154  -10.0563 C   0  0  0  0  0  0  0  0  0  0  0  0
   24.3032  -20.3589   -9.3497 O   0  0  0  0  0  0  0  0  0  0  0  0
   25.5556  -18.9571  -10.5631 O   0  0  0  0  0  0  0  0  0  0  0  0
  2  1  1  1
  3  2  1  0
  3  4  1  0
  4  5  2  0
  6  2  1  0
  6 14  1  0
  7  6  2  0
  8  4  1  0
  9 10  1  0
 11 10  1  0
 11 12  1  1
 13 11  1  0
 13 15  1  0
 13 14  1  6
 15 16  2  0
 17 15  1  0
 17 18  1  0
 18 19  1  1
 19 20  1  0
 20 28  1  0
 21 20  2  0
 21 22  1  0
 22 23  1  0
 23 24  1  0
 24 25  2  0
 26 25  1  0
 27 26  2  0
 28 23  2  0
 28 27  1  0
 29 30  1  0
 29 18  1  0
 31 29  2  0
M  END
$$$$
