DIW.pdb
     RDKit          3D

 31 32  0  0  1  0  0  0  0  0999 V2000
   27.6036  -23.3866  -17.8629 N   0  0  0  0  0  0  0  0  0  0  0  0
   26.6189  -22.8223  -16.9658 C   0  0  1  0  0  0  0  0  0  0  0  0
   25.6686  -23.8959  -16.5373 C   0  0  0  0  0  0  0  0  0  0  0  0
   24.8303  -24.4510  -17.6154 C   0  0  0  0  0  0  0  0  0  0  0  0
   23.9347  -25.3091  -17.4346 O   0  0  0  0  0  0  0  0  0  0  0  0
   27.2266  -22.1852  -15.7760 C   0  0  0  0  0  0  0  0  0  0  0  0
   28.2682  -22.6441  -15.2701 O   0  0  0  0  0  0  0  0  0  0  0  0
   24.9956  -24.0360  -18.9385 O   0  0  0  0  0  0  0  0  0  0  0  0
   27.6328  -17.5223  -16.5559 C   0  0  0  0  0  0  0  0  0  0  0  0
   28.0596  -18.4838  -15.5322 C   0  0  0  0  0  0  0  0  0  0  0  0
   27.1395  -18.8792  -14.4592 C   0  0  2  0  0  0  0  0  0  0  0  0
   27.2999  -18.0125  -13.2332 C   0  0  0  0  0  0  0  0  0  0  0  0
   27.1248  -20.3264  -14.0583 C   0  0  2  0  0  0  0  0  0  0  0  0
   26.6347  -21.0608  -15.2038 N   0  0  0  0  0  0  0  0  0  0  0  0
   26.3769  -20.5884  -12.8284 C   0  0  0  0  0  0  0  0  0  0  0  0
   25.1308  -20.5757  -12.8293 O   0  0  0  0  0  0  0  0  0  0  0  0
   27.0697  -20.8605  -11.6323 N   0  0  0  0  0  0  0  0  0  0  0  0
   26.4228  -21.1303  -10.3506 C   0  0  1  0  0  0  0  0  0  0  0  0
   27.4311  -21.2260   -9.2588 C   0  0  0  0  0  0  0  0  0  0  0  0
   26.9990  -20.8805   -7.9041 C   0  0  0  0  0  0  0  0  0  0  0  0
   25.6801  -20.9216   -7.4124 C   0  0  0  0  0  0  0  0  0  0  0  0
   25.6736  -20.5027   -6.1513 N   0  0  0  0  0  0  0  0  0  0  0  0
   26.9155  -20.1801   -5.7582 C   0  0  0  0  0  0  0  0  0  0  0  0
   27.4561  -19.7262   -4.5871 C   0  0  0  0  0  0  0  0  0  0  0  0
   28.8183  -19.4856   -4.4317 C   0  0  0  0  0  0  0  0  0  0  0  0
   29.6482  -19.7152   -5.5018 C   0  0  0  0  0  0  0  0  0  0  0  0
   29.0879  -20.1706   -6.6720 C   0  0  0  0  0  0  0  0  0  0  0  0
   27.7426  -20.4108   -6.8356 C   0  0  0  0  0  0  0  0  0  0  0  0
   25.4386  -20.0856  -10.1067 C   0  0  0  0  0  0  0  0  0  0  0  0
   24.1407  -20.4144   -9.6627 O   0  0  0  0  0  0  0  0  0  0  0  0
   25.6176  -18.8415  -10.2544 O   0  0  0  0  0  0  0  0  0  0  0  0
  2  1  1  6
  3  2  1  0
  3  4  1  0
  4  5  2  0
  6  2  1  0
  6 14  1  0
  7  6  2  0
  8  4  1  0
  9 10  1  0
 11 10  1  0
 11 12  1  1
 13 11  1  0
 13 15  1  0
 13 14  1  6
 15 16  2  0
 17 15  1  0
 17 18  1  0
 18 19  1  1
 19 20  1  0
 20 28  1  0
 21 20  2  0
 21 22  1  0
 22 23  1  0
 23 24  1  0
 24 25  2  0
 26 25  1  0
 27 26  2  0
 28 23  2  0
 28 27  1  0
 29 30  1  0
 29 18  1  0
 31 29  2  0
M  END
$$$$
