DIW.pdb
     RDKit          3D

 31 32  0  0  1  0  0  0  0  0999 V2000
   23.3000  -18.4837  -18.1844 N   0  0  0  0  0  0  0  0  0  0  0  0
   23.5262  -18.4746  -16.7555 C   0  0  1  0  0  0  0  0  0  0  0  0
   22.2115  -18.3713  -16.0482 C   0  0  0  0  0  0  0  0  0  0  0  0
   21.4403  -17.1503  -16.3439 C   0  0  0  0  0  0  0  0  0  0  0  0
   21.7695  -16.3069  -17.2107 O   0  0  0  0  0  0  0  0  0  0  0  0
   24.2577  -19.6717  -16.2838 C   0  0  0  0  0  0  0  0  0  0  0  0
   24.0245  -20.7938  -16.7717 O   0  0  0  0  0  0  0  0  0  0  0  0
   20.2634  -16.8596  -15.6506 O   0  0  0  0  0  0  0  0  0  0  0  0
   29.4119  -19.2424  -15.9660 C   0  0  0  0  0  0  0  0  0  0  0  0
   27.9940  -19.6178  -15.9091 C   0  0  0  0  0  0  0  0  0  0  0  0
   27.4186  -20.1493  -14.6679 C   0  0  2  0  0  0  0  0  0  0  0  0
   28.2987  -21.2083  -14.0484 C   0  0  0  0  0  0  0  0  0  0  0  0
   25.9983  -20.6351  -14.7160 C   0  0  2  0  0  0  0  0  0  0  0  0
   25.2182  -19.5561  -15.2808 N   0  0  0  0  0  0  0  0  0  0  0  0
   25.4958  -21.1114  -13.4271 C   0  0  0  0  0  0  0  0  0  0  0  0
   25.9523  -22.1511  -12.9137 O   0  0  0  0  0  0  0  0  0  0  0  0
   24.4892  -20.3881  -12.7576 N   0  0  0  0  0  0  0  0  0  0  0  0
   23.8864  -20.7974  -11.4915 C   0  0  1  0  0  0  0  0  0  0  0  0
   24.1934  -19.8133  -10.4167 C   0  0  0  0  0  0  0  0  0  0  0  0
   25.5948  -19.6453  -10.0308 C   0  0  0  0  0  0  0  0  0  0  0  0
   26.5827  -18.9505  -10.7550 C   0  0  0  0  0  0  0  0  0  0  0  0
   27.7411  -19.0457  -10.1106 N   0  0  0  0  0  0  0  0  0  0  0  0
   27.5948  -19.7661   -8.9878 C   0  0  0  0  0  0  0  0  0  0  0  0
   28.4395  -20.1409   -7.9799 C   0  0  0  0  0  0  0  0  0  0  0  0
   28.0176  -20.8905   -6.8855 C   0  0  0  0  0  0  0  0  0  0  0  0
   26.6980  -21.2661   -6.8209 C   0  0  0  0  0  0  0  0  0  0  0  0
   25.8627  -20.8816   -7.8433 C   0  0  0  0  0  0  0  0  0  0  0  0
   26.2705  -20.1412   -8.9295 C   0  0  0  0  0  0  0  0  0  0  0  0
   22.4550  -20.9632  -11.6995 C   0  0  0  0  0  0  0  0  0  0  0  0
   21.6286  -21.4258  -10.6540 O   0  0  0  0  0  0  0  0  0  0  0  0
   21.8237  -20.7285  -12.7709 O   0  0  0  0  0  0  0  0  0  0  0  0
  2  1  1  6
  3  2  1  0
  3  4  1  0
  4  5  2  0
  6  2  1  0
  6 14  1  0
  7  6  2  0
  8  4  1  0
  9 10  1  0
 11 10  1  0
 11 12  1  6
 13 11  1  0
 13 15  1  0
 13 14  1  1
 15 16  2  0
 17 15  1  0
 17 18  1  0
 18 19  1  1
 19 20  1  0
 20 28  1  0
 21 20  2  0
 21 22  1  0
 22 23  1  0
 23 24  1  0
 24 25  2  0
 26 25  1  0
 27 26  2  0
 28 23  2  0
 28 27  1  0
 29 30  1  0
 29 18  1  0
 31 29  2  0
M  END
$$$$
