DIW.pdb
     RDKit          3D

 31 32  0  0  1  0  0  0  0  0999 V2000
   28.8786   -9.4745  -21.5754 N   0  0  0  0  0  0  0  0  0  0  0  0
   28.3804   -9.1228  -20.2636 C   0  0  1  0  0  0  0  0  0  0  0  0
   27.5794   -7.8625  -20.3612 C   0  0  0  0  0  0  0  0  0  0  0  0
   28.3202   -6.6924  -20.8665 C   0  0  0  0  0  0  0  0  0  0  0  0
   29.3731   -6.2527  -20.3479 O   0  0  0  0  0  0  0  0  0  0  0  0
   27.5590  -10.1943  -19.6568 C   0  0  0  0  0  0  0  0  0  0  0  0
   26.8740  -10.9523  -20.3692 O   0  0  0  0  0  0  0  0  0  0  0  0
   27.8725   -5.9892  -21.9869 O   0  0  0  0  0  0  0  0  0  0  0  0
   30.0310  -13.1737  -16.2684 C   0  0  0  0  0  0  0  0  0  0  0  0
   29.0269  -12.5668  -17.1505 C   0  0  0  0  0  0  0  0  0  0  0  0
   27.7962  -11.9974  -16.5889 C   0  0  2  0  0  0  0  0  0  0  0  0
   27.0832  -12.9773  -15.6882 C   0  0  0  0  0  0  0  0  0  0  0  0
   26.8162  -11.3853  -17.5484 C   0  0  2  0  0  0  0  0  0  0  0  0
   27.5405  -10.3651  -18.2739 N   0  0  0  0  0  0  0  0  0  0  0  0
   25.5945  -10.8964  -16.9090 C   0  0  0  0  0  0  0  0  0  0  0  0
   24.6498  -11.6730  -16.6696 O   0  0  0  0  0  0  0  0  0  0  0  0
   25.4843   -9.5366  -16.5573 N   0  0  0  0  0  0  0  0  0  0  0  0
   24.2577   -8.9098  -16.0712 C   0  0  1  0  0  0  0  0  0  0  0  0
   24.5545   -7.9456  -14.9757 C   0  0  0  0  0  0  0  0  0  0  0  0
   23.4556   -7.1091  -14.4920 C   0  0  0  0  0  0  0  0  0  0  0  0
   22.3432   -7.5420  -13.7448 C   0  0  0  0  0  0  0  0  0  0  0  0
   21.5402   -6.5068  -13.5221 N   0  0  0  0  0  0  0  0  0  0  0  0
   22.0459   -5.3939  -14.0758 C   0  0  0  0  0  0  0  0  0  0  0  0
   21.6435   -4.0881  -14.1271 C   0  0  0  0  0  0  0  0  0  0  0  0
   22.3849   -3.0976  -14.7649 C   0  0  0  0  0  0  0  0  0  0  0  0
   23.5680   -3.4525  -15.3657 C   0  0  0  0  0  0  0  0  0  0  0  0
   23.9572   -4.7699  -15.3055 C   0  0  0  0  0  0  0  0  0  0  0  0
   23.2309   -5.7563  -14.6779 C   0  0  0  0  0  0  0  0  0  0  0  0
   23.5888   -8.2785  -17.1998 C   0  0  0  0  0  0  0  0  0  0  0  0
   22.1816   -8.2922  -17.2968 O   0  0  0  0  0  0  0  0  0  0  0  0
   24.1520   -7.6827  -18.1639 O   0  0  0  0  0  0  0  0  0  0  0  0
  2  1  1  6
  3  2  1  0
  3  4  1  0
  4  5  2  0
  6  2  1  0
  6 14  1  0
  7  6  2  0
  8  4  1  0
  9 10  1  0
 11 10  1  0
 11 12  1  6
 13 11  1  0
 13 15  1  0
 13 14  1  1
 15 16  2  0
 17 15  1  0
 17 18  1  0
 18 19  1  1
 19 20  1  0
 20 28  1  0
 21 20  2  0
 21 22  1  0
 22 23  1  0
 23 24  1  0
 24 25  2  0
 26 25  1  0
 27 26  2  0
 28 23  2  0
 28 27  1  0
 29 30  1  0
 29 18  1  0
 31 29  2  0
M  END
$$$$
