DIW.pdb
     RDKit          3D

 31 32  0  0  1  0  0  0  0  0999 V2000
   27.5606  -20.9067  -17.0838 N   0  0  0  0  0  0  0  0  0  0  0  0
   26.8009  -20.0010  -16.2499 C   0  0  1  0  0  0  0  0  0  0  0  0
   26.0990  -19.0031  -17.1165 C   0  0  0  0  0  0  0  0  0  0  0  0
   26.7588  -17.6883  -17.2108 C   0  0  0  0  0  0  0  0  0  0  0  0
   28.0003  -17.5227  -17.1617 O   0  0  0  0  0  0  0  0  0  0  0  0
   25.8182  -20.7004  -15.3919 C   0  0  0  0  0  0  0  0  0  0  0  0
   24.9726  -21.4686  -15.8882 O   0  0  0  0  0  0  0  0  0  0  0  0
   26.0102  -16.5195  -17.3648 O   0  0  0  0  0  0  0  0  0  0  0  0
   25.2874  -21.2594   -9.1982 C   0  0  0  0  0  0  0  0  0  0  0  0
   24.7341  -21.3735  -10.5529 C   0  0  0  0  0  0  0  0  0  0  0  0
   25.5150  -20.9236  -11.7113 C   0  0  2  0  0  0  0  0  0  0  0  0
   26.0442  -19.5220  -11.5227 C   0  0  0  0  0  0  0  0  0  0  0  0
   24.8777  -21.0466  -13.0657 C   0  0  2  0  0  0  0  0  0  0  0  0
   25.8265  -20.5032  -14.0125 N   0  0  0  0  0  0  0  0  0  0  0  0
   23.5502  -20.4372  -13.1485 C   0  0  0  0  0  0  0  0  0  0  0  0
   23.3930  -19.2248  -12.9069 O   0  0  0  0  0  0  0  0  0  0  0  0
   22.4391  -21.2255  -13.5073 N   0  0  0  0  0  0  0  0  0  0  0  0
   21.0780  -20.7136  -13.6458 C   0  0  1  0  0  0  0  0  0  0  0  0
   20.8226  -20.2605  -15.0412 C   0  0  0  0  0  0  0  0  0  0  0  0
   19.4985  -19.7174  -15.3465 C   0  0  0  0  0  0  0  0  0  0  0  0
   18.9716  -18.4946  -14.8882 C   0  0  0  0  0  0  0  0  0  0  0  0
   17.7299  -18.3594  -15.3419 N   0  0  0  0  0  0  0  0  0  0  0  0
   17.3840  -19.4225  -16.0843 C   0  0  0  0  0  0  0  0  0  0  0  0
   16.2609  -19.7726  -16.7813 C   0  0  0  0  0  0  0  0  0  0  0  0
   16.1660  -20.9557  -17.5085 C   0  0  0  0  0  0  0  0  0  0  0  0
   17.2477  -21.8021  -17.5225 C   0  0  0  0  0  0  0  0  0  0  0  0
   18.3685  -21.4351  -16.8155 C   0  0  0  0  0  0  0  0  0  0  0  0
   18.4716  -20.2680  -16.0933 C   0  0  0  0  0  0  0  0  0  0  0  0
   20.1529  -21.7551  -13.2226 C   0  0  0  0  0  0  0  0  0  0  0  0
   18.9425  -21.4196  -12.5805 O   0  0  0  0  0  0  0  0  0  0  0  0
   20.3134  -23.0017  -13.3698 O   0  0  0  0  0  0  0  0  0  0  0  0
  2  1  1  6
  3  2  1  0
  3  4  1  0
  4  5  2  0
  6  2  1  0
  6 14  1  0
  7  6  2  0
  8  4  1  0
  9 10  1  0
 11 10  1  0
 11 12  1  1
 13 11  1  0
 13 15  1  0
 13 14  1  6
 15 16  2  0
 17 15  1  0
 17 18  1  0
 18 19  1  6
 19 20  1  0
 20 28  1  0
 21 20  2  0
 21 22  1  0
 22 23  1  0
 23 24  1  0
 24 25  2  0
 26 25  1  0
 27 26  2  0
 28 23  2  0
 28 27  1  0
 29 30  1  0
 29 18  1  0
 31 29  2  0
M  END
$$$$
