KMG.pdb
     RDKit          3D

 22 21  0  0  1  0  0  0  0  0999 V2000
    7.8613  -16.0650   19.6866 N   0  0  0  0  0  0  0  0  0  0  0  0
    7.4593  -16.4658   21.0320 C   0  0  1  0  0  0  0  0  0  0  0  0
    7.5511  -17.9487   21.1394 C   0  0  0  0  0  0  0  0  0  0  0  0
    8.7020  -18.5798   20.4150 C   0  0  0  0  0  0  0  0  0  0  0  0
    8.7105  -20.0852   20.5920 C   0  0  0  0  0  0  0  0  0  0  0  0
    8.2782  -20.7674   19.3245 C   0  0  0  0  0  0  0  0  0  0  0  0
    8.2238  -22.2209   19.5250 N   0  0  0  0  0  0  0  0  0  0  0  0
    8.2816  -15.7156   22.0109 C   0  0  0  0  0  0  0  0  0  0  0  0
    9.3690  -15.2231   21.5851 O   0  0  0  0  0  0  0  0  0  0  0  0
    5.7001  -11.4339   26.3307 C   0  0  0  0  0  0  0  0  0  0  0  0
    7.3014  -11.9548   26.8255 S   0  0  0  0  0  0  0  0  0  0  0  0
    7.8860  -13.5574   26.4600 C   0  0  0  0  0  0  0  0  0  0  0  0
    7.7155  -14.2493   25.2118 C   0  0  0  0  0  0  0  0  0  0  0  0
    8.7210  -14.7817   24.2838 C   0  0  2  0  0  0  0  0  0  0  0  0
    7.8373  -15.5835   23.3326 N   0  0  0  0  0  0  0  0  0  0  0  0
    9.6518  -15.8232   24.7937 C   0  0  0  0  0  0  0  0  0  0  0  0
    9.2946  -17.0519   24.8565 O   0  0  0  0  0  0  0  0  0  0  0  0
   10.9737  -15.5880   25.2329 N   0  0  0  0  0  0  0  0  0  0  0  0
   11.9702  -16.6485   25.2891 C   0  0  0  0  0  0  0  0  0  0  0  0
   13.2457  -16.2254   24.6806 C   0  0  0  0  0  0  0  0  0  0  0  0
   13.2452  -15.9607   23.4577 O   0  0  0  0  0  0  0  0  0  0  0  0
   14.4094  -16.1163   25.4037 O   0  0  0  0  0  0  0  0  0  0  0  0
  2  8  1  0
  2  1  1  6
  3  2  1  0
  4  3  1  0
  5  4  1  0
  6  5  1  0
  7  6  1  0
  8  9  2  0
 10 11  1  0
 12 11  1  0
 13 12  1  0
 14 13  1  1
 15 14  1  0
 15  8  1  0
 16 17  2  0
 16 14  1  0
 18 16  1  0
 19 18  1  0
 20 19  1  0
 21 20  2  0
 22 20  1  0
M  END
$$$$
