KMG.pdb
     RDKit          3D

 22 21  0  0  1  0  0  0  0  0999 V2000
    6.5326  -15.0204   19.2796 N   0  0  0  0  0  0  0  0  0  0  0  0
    6.8727  -15.9066   20.3891 C   0  0  1  0  0  0  0  0  0  0  0  0
    7.6281  -17.0750   19.8570 C   0  0  0  0  0  0  0  0  0  0  0  0
    6.7906  -18.1949   19.3164 C   0  0  0  0  0  0  0  0  0  0  0  0
    7.6445  -19.3794   18.9092 C   0  0  0  0  0  0  0  0  0  0  0  0
    6.8014  -20.4361   18.2525 C   0  0  0  0  0  0  0  0  0  0  0  0
    7.6538  -21.5101   17.7276 N   0  0  0  0  0  0  0  0  0  0  0  0
    7.5875  -15.1162   21.4194 C   0  0  0  0  0  0  0  0  0  0  0  0
    8.3377  -14.1827   21.0046 O   0  0  0  0  0  0  0  0  0  0  0  0
    6.6544  -10.8091   27.5226 C   0  0  0  0  0  0  0  0  0  0  0  0
    7.2483  -12.2905   26.7927 S   0  0  0  0  0  0  0  0  0  0  0  0
    6.7791  -12.7564   25.1782 C   0  0  0  0  0  0  0  0  0  0  0  0
    6.9974  -14.0443   24.5787 C   0  0  0  0  0  0  0  0  0  0  0  0
    8.1311  -14.5352   23.7855 C   0  0  2  0  0  0  0  0  0  0  0  0
    7.4109  -15.4229   22.7746 N   0  0  0  0  0  0  0  0  0  0  0  0
    9.0644  -15.4959   24.4316 C   0  0  0  0  0  0  0  0  0  0  0  0
    8.6452  -16.3367   25.3026 O   0  0  0  0  0  0  0  0  0  0  0  0
   10.4476  -15.5927   24.1617 N   0  0  0  0  0  0  0  0  0  0  0  0
   11.3072  -16.5392   24.8589 C   0  0  0  0  0  0  0  0  0  0  0  0
   12.7169  -16.3931   24.4495 C   0  0  0  0  0  0  0  0  0  0  0  0
   12.9749  -15.5729   23.5406 O   0  0  0  0  0  0  0  0  0  0  0  0
   13.7329  -17.1172   25.0262 O   0  0  0  0  0  0  0  0  0  0  0  0
  2  8  1  0
  2  1  1  6
  3  2  1  0
  4  3  1  0
  5  4  1  0
  6  5  1  0
  7  6  1  0
  8  9  2  0
 10 11  1  0
 12 11  1  0
 13 12  1  0
 14 13  1  1
 15 14  1  0
 15  8  1  0
 16 17  2  0
 16 14  1  0
 18 16  1  0
 19 18  1  0
 20 19  1  0
 21 20  2  0
 22 20  1  0
M  END
$$$$
