KMG.pdb
     RDKit          3D

 22 21  0  0  1  0  0  0  0  0999 V2000
    7.5694  -18.0420   21.6104 N   0  0  0  0  0  0  0  0  0  0  0  0
    8.2233  -16.9286   20.9285 C   0  0  1  0  0  0  0  0  0  0  0  0
    7.4546  -16.6024   19.6949 C   0  0  0  0  0  0  0  0  0  0  0  0
    6.2522  -17.4598   19.4362 C   0  0  0  0  0  0  0  0  0  0  0  0
    6.5216  -18.4787   18.3468 C   0  0  0  0  0  0  0  0  0  0  0  0
    5.2982  -19.3136   18.0916 C   0  0  0  0  0  0  0  0  0  0  0  0
    5.5916  -20.3501   17.0939 N   0  0  0  0  0  0  0  0  0  0  0  0
    8.3685  -15.8094   21.8894 C   0  0  0  0  0  0  0  0  0  0  0  0
    8.9288  -14.7568   21.4601 O   0  0  0  0  0  0  0  0  0  0  0  0
    6.3117  -11.2179   27.4882 C   0  0  0  0  0  0  0  0  0  0  0  0
    6.7997  -12.1248   26.0671 S   0  0  0  0  0  0  0  0  0  0  0  0
    6.5014  -13.8391   25.9399 C   0  0  0  0  0  0  0  0  0  0  0  0
    6.8904  -14.6801   24.8412 C   0  0  0  0  0  0  0  0  0  0  0  0
    8.1907  -14.8180   24.1735 C   0  0  2  0  0  0  0  0  0  0  0  0
    7.8937  -15.9543   23.1992 N   0  0  0  0  0  0  0  0  0  0  0  0
    9.3199  -15.3753   24.9643 C   0  0  0  0  0  0  0  0  0  0  0  0
    9.8383  -14.7119   25.9300 O   0  0  0  0  0  0  0  0  0  0  0  0
    9.9107  -16.6418   24.7576 N   0  0  0  0  0  0  0  0  0  0  0  0
   10.9489  -17.1634   25.6357 C   0  0  0  0  0  0  0  0  0  0  0  0
   12.2794  -17.0921   25.0024 C   0  0  0  0  0  0  0  0  0  0  0  0
   12.8765  -18.1698   24.7845 O   0  0  0  0  0  0  0  0  0  0  0  0
   12.8685  -15.9006   24.6525 O   0  0  0  0  0  0  0  0  0  0  0  0
  2  8  1  0
  2  1  1  1
  3  2  1  0
  4  3  1  0
  5  4  1  0
  6  5  1  0
  7  6  1  0
  8  9  2  0
 10 11  1  0
 12 11  1  0
 13 12  1  0
 14 13  1  1
 15 14  1  0
 15  8  1  0
 16 17  2  0
 16 14  1  0
 18 16  1  0
 19 18  1  0
 20 19  1  0
 21 20  2  0
 22 20  1  0
M  END
$$$$
