KMG.pdb
     RDKit          3D

 22 21  0  0  1  0  0  0  0  0999 V2000
    7.9283  -12.4486   19.2948 N   0  0  0  0  0  0  0  0  0  0  0  0
    7.3970  -13.5937   20.0287 C   0  0  1  0  0  0  0  0  0  0  0  0
    7.4950  -14.8046   19.1667 C   0  0  0  0  0  0  0  0  0  0  0  0
    8.2212  -14.6174   17.8685 C   0  0  0  0  0  0  0  0  0  0  0  0
    8.3012  -15.9131   17.0859 C   0  0  0  0  0  0  0  0  0  0  0  0
    9.0270  -15.7006   15.7871 C   0  0  0  0  0  0  0  0  0  0  0  0
    9.1544  -16.9722   15.0643 N   0  0  0  0  0  0  0  0  0  0  0  0
    8.1070  -13.6903   21.3262 C   0  0  0  0  0  0  0  0  0  0  0  0
    9.2295  -13.1076   21.4080 O   0  0  0  0  0  0  0  0  0  0  0  0
    6.5363  -10.7272   27.3298 C   0  0  0  0  0  0  0  0  0  0  0  0
    7.1384  -12.2854   26.7915 S   0  0  0  0  0  0  0  0  0  0  0  0
    6.7802  -12.8929   25.1957 C   0  0  0  0  0  0  0  0  0  0  0  0
    7.2218  -14.1500   24.6569 C   0  0  0  0  0  0  0  0  0  0  0  0
    8.2965  -14.4403   23.6996 C   0  0  2  0  0  0  0  0  0  0  0  0
    7.5259  -14.4025   22.3831 N   0  0  0  0  0  0  0  0  0  0  0  0
    8.8615  -15.8158   23.6884 C   0  0  0  0  0  0  0  0  0  0  0  0
    8.0952  -16.8423   23.6724 O   0  0  0  0  0  0  0  0  0  0  0  0
   10.2389  -16.1293   23.6820 N   0  0  0  0  0  0  0  0  0  0  0  0
   10.7190  -17.5033   23.6302 C   0  0  0  0  0  0  0  0  0  0  0  0
   12.1891  -17.5671   23.7349 C   0  0  0  0  0  0  0  0  0  0  0  0
   12.8296  -16.5067   23.5594 O   0  0  0  0  0  0  0  0  0  0  0  0
   12.8604  -18.7335   24.0139 O   0  0  0  0  0  0  0  0  0  0  0  0
  2  8  1  0
  2  1  1  6
  3  2  1  0
  4  3  1  0
  5  4  1  0
  6  5  1  0
  7  6  1  0
  8  9  2  0
 10 11  1  0
 12 11  1  0
 13 12  1  0
 14 13  1  1
 15 14  1  0
 15  8  1  0
 16 17  2  0
 16 14  1  0
 18 16  1  0
 19 18  1  0
 20 19  1  0
 21 20  2  0
 22 20  1  0
M  END
$$$$
