KMG.pdb
     RDKit          3D

 22 21  0  0  1  0  0  0  0  0999 V2000
    9.2562  -15.9359   20.0793 N   0  0  0  0  0  0  0  0  0  0  0  0
    8.8617  -16.5907   21.3234 C   0  0  1  0  0  0  0  0  0  0  0  0
    9.6234  -17.8637   21.4591 C   0  0  0  0  0  0  0  0  0  0  0  0
    9.3493  -18.8966   20.4076 C   0  0  0  0  0  0  0  0  0  0  0  0
   10.1531  -20.1591   20.6476 C   0  0  0  0  0  0  0  0  0  0  0  0
    9.8594  -21.1810   19.5854 C   0  0  0  0  0  0  0  0  0  0  0  0
   10.6519  -22.3950   19.8177 N   0  0  0  0  0  0  0  0  0  0  0  0
    9.0444  -15.6306   22.4379 C   0  0  0  0  0  0  0  0  0  0  0  0
   10.0299  -14.8381   22.3534 O   0  0  0  0  0  0  0  0  0  0  0  0
    5.8720  -11.1900   27.3852 C   0  0  0  0  0  0  0  0  0  0  0  0
    6.7164  -11.6179   25.9073 S   0  0  0  0  0  0  0  0  0  0  0  0
    6.2539  -13.0162   24.9721 C   0  0  0  0  0  0  0  0  0  0  0  0
    6.9500  -14.2733   24.9403 C   0  0  0  0  0  0  0  0  0  0  0  0
    8.3435  -14.5709   24.5866 C   0  0  2  0  0  0  0  0  0  0  0  0
    8.1454  -15.6360   23.5119 N   0  0  0  0  0  0  0  0  0  0  0  0
    9.1736  -15.2919   25.5879 C   0  0  0  0  0  0  0  0  0  0  0  0
    9.4745  -14.7480   26.7081 O   0  0  0  0  0  0  0  0  0  0  0  0
    9.6877  -16.5981   25.4291 N   0  0  0  0  0  0  0  0  0  0  0  0
   10.4604  -17.2572   26.4728 C   0  0  0  0  0  0  0  0  0  0  0  0
   10.7896  -18.6477   26.1061 C   0  0  0  0  0  0  0  0  0  0  0  0
   11.6906  -18.8256   25.2564 O   0  0  0  0  0  0  0  0  0  0  0  0
   10.1480  -19.7297   26.6598 O   0  0  0  0  0  0  0  0  0  0  0  0
  2  8  1  0
  2  1  1  6
  3  2  1  0
  4  3  1  0
  5  4  1  0
  6  5  1  0
  7  6  1  0
  8  9  2  0
 10 11  1  0
 12 11  1  0
 13 12  1  0
 14 13  1  1
 15 14  1  0
 15  8  1  0
 16 17  2  0
 16 14  1  0
 18 16  1  0
 19 18  1  0
 20 19  1  0
 21 20  2  0
 22 20  1  0
M  END
$$$$
