KMG.pdb
     RDKit          3D

 22 21  0  0  1  0  0  0  0  0999 V2000
    7.8987  -14.2019   19.7341 N   0  0  0  0  0  0  0  0  0  0  0  0
    7.6150  -15.2401   20.7209 C   0  0  1  0  0  0  0  0  0  0  0  0
    8.2743  -16.5049   20.2911 C   0  0  0  0  0  0  0  0  0  0  0  0
    7.3980  -17.4734   19.5551 C   0  0  0  0  0  0  0  0  0  0  0  0
    8.2093  -18.5911   18.9303 C   0  0  0  0  0  0  0  0  0  0  0  0
    7.3026  -19.6366   18.3441 C   0  0  0  0  0  0  0  0  0  0  0  0
    8.0961  -20.7233   17.7566 N   0  0  0  0  0  0  0  0  0  0  0  0
    8.0246  -14.7435   22.0561 C   0  0  0  0  0  0  0  0  0  0  0  0
    9.1528  -14.1711   22.1313 O   0  0  0  0  0  0  0  0  0  0  0  0
    6.9880  -10.5266   27.9072 C   0  0  0  0  0  0  0  0  0  0  0  0
    7.3382  -11.5994   26.5631 S   0  0  0  0  0  0  0  0  0  0  0  0
    6.1895  -12.8055   26.0436 C   0  0  0  0  0  0  0  0  0  0  0  0
    6.3965  -13.7657   24.9944 C   0  0  0  0  0  0  0  0  0  0  0  0
    7.6413  -14.3610   24.4929 C   0  0  2  0  0  0  0  0  0  0  0  0
    7.1721  -14.9211   23.1532 N   0  0  0  0  0  0  0  0  0  0  0  0
    8.1511  -15.5793   25.1764 C   0  0  0  0  0  0  0  0  0  0  0  0
    7.3553  -16.3665   25.7996 O   0  0  0  0  0  0  0  0  0  0  0  0
    9.5020  -15.9916   25.2035 N   0  0  0  0  0  0  0  0  0  0  0  0
    9.9339  -17.1786   25.9283 C   0  0  0  0  0  0  0  0  0  0  0  0
   11.3739  -17.4353   25.7372 C   0  0  0  0  0  0  0  0  0  0  0  0
   11.8781  -18.3995   26.3550 O   0  0  0  0  0  0  0  0  0  0  0  0
   12.1602  -16.6618   24.9171 O   0  0  0  0  0  0  0  0  0  0  0  0
  2  8  1  0
  2  1  1  6
  3  2  1  0
  4  3  1  0
  5  4  1  0
  6  5  1  0
  7  6  1  0
  8  9  2  0
 10 11  1  0
 12 11  1  0
 13 12  1  0
 14 13  1  1
 15 14  1  0
 15  8  1  0
 16 17  2  0
 16 14  1  0
 18 16  1  0
 19 18  1  0
 20 19  1  0
 21 20  2  0
 22 20  1  0
M  END
$$$$
