KMG.pdb
     RDKit          3D

 22 21  0  0  1  0  0  0  0  0999 V2000
    7.5102  -16.3529   21.0843 N   0  0  0  0  0  0  0  0  0  0  0  0
    8.5615  -15.3417   21.0175 C   0  0  1  0  0  0  0  0  0  0  0  0
    8.1345  -14.2655   20.0803 C   0  0  0  0  0  0  0  0  0  0  0  0
    8.0770  -14.6531   18.6332 C   0  0  0  0  0  0  0  0  0  0  0  0
    8.1359  -13.4369   17.7304 C   0  0  0  0  0  0  0  0  0  0  0  0
    7.8375  -13.8210   16.3084 C   0  0  0  0  0  0  0  0  0  0  0  0
    7.7284  -12.6195   15.4716 N   0  0  0  0  0  0  0  0  0  0  0  0
    8.8644  -14.8874   22.3956 C   0  0  0  0  0  0  0  0  0  0  0  0
    9.8521  -14.1056   22.5353 O   0  0  0  0  0  0  0  0  0  0  0  0
    6.8861  -11.5406   27.8283 C   0  0  0  0  0  0  0  0  0  0  0  0
    6.8387  -11.8965   26.1103 S   0  0  0  0  0  0  0  0  0  0  0  0
    6.3147  -13.4531   25.5217 C   0  0  0  0  0  0  0  0  0  0  0  0
    7.1227  -14.6396   25.4505 C   0  0  0  0  0  0  0  0  0  0  0  0
    8.4501  -14.8424   24.8568 C   0  0  2  0  0  0  0  0  0  0  0  0
    8.0690  -15.3276   23.4611 N   0  0  0  0  0  0  0  0  0  0  0  0
    9.2706  -15.9738   25.3647 C   0  0  0  0  0  0  0  0  0  0  0  0
    9.7449  -15.9612   26.5547 O   0  0  0  0  0  0  0  0  0  0  0  0
    9.5930  -17.1379   24.6320 N   0  0  0  0  0  0  0  0  0  0  0  0
   10.2999  -18.2596   25.2343 C   0  0  0  0  0  0  0  0  0  0  0  0
   11.7393  -18.2276   24.9129 C   0  0  0  0  0  0  0  0  0  0  0  0
   12.5095  -17.7093   25.7518 O   0  0  0  0  0  0  0  0  0  0  0  0
   12.2471  -18.7403   23.7431 O   0  0  0  0  0  0  0  0  0  0  0  0
  2  8  1  0
  2  1  1  1
  3  2  1  0
  4  3  1  0
  5  4  1  0
  6  5  1  0
  7  6  1  0
  8  9  2  0
 10 11  1  0
 12 11  1  0
 13 12  1  0
 14 13  1  1
 15 14  1  0
 15  8  1  0
 16 17  2  0
 16 14  1  0
 18 16  1  0
 19 18  1  0
 20 19  1  0
 21 20  2  0
 22 20  1  0
M  END
$$$$
