KMG.pdb
     RDKit          3D

 22 21  0  0  1  0  0  0  0  0999 V2000
    7.7558  -16.4280   20.5036 N   0  0  0  0  0  0  0  0  0  0  0  0
    8.9073  -15.5307   20.5353 C   0  0  1  0  0  0  0  0  0  0  0  0
    8.6543  -14.3910   19.6101 C   0  0  0  0  0  0  0  0  0  0  0  0
    8.3687  -14.7647   18.1865 C   0  0  0  0  0  0  0  0  0  0  0  0
    8.2177  -13.5369   17.3104 C   0  0  0  0  0  0  0  0  0  0  0  0
    7.7978  -13.9287   15.9215 C   0  0  0  0  0  0  0  0  0  0  0  0
    7.6752  -12.7359   15.0742 N   0  0  0  0  0  0  0  0  0  0  0  0
    9.1655  -15.1476   21.9437 C   0  0  0  0  0  0  0  0  0  0  0  0
   10.1667  -14.4007   22.1583 O   0  0  0  0  0  0  0  0  0  0  0  0
    6.6678  -11.6982   27.9229 C   0  0  0  0  0  0  0  0  0  0  0  0
    7.3312  -12.4639   26.4898 S   0  0  0  0  0  0  0  0  0  0  0  0
    6.7947  -14.0422   25.9753 C   0  0  0  0  0  0  0  0  0  0  0  0
    7.2333  -14.7349   24.7947 C   0  0  0  0  0  0  0  0  0  0  0  0
    8.5872  -15.1138   24.3719 C   0  0  2  0  0  0  0  0  0  0  0  0
    8.3162  -15.6131   22.9556 N   0  0  0  0  0  0  0  0  0  0  0  0
    9.2031  -16.3081   25.0087 C   0  0  0  0  0  0  0  0  0  0  0  0
    8.7495  -17.4841   24.7797 O   0  0  0  0  0  0  0  0  0  0  0  0
   10.3109  -16.2823   25.8849 N   0  0  0  0  0  0  0  0  0  0  0  0
   10.9119  -17.5014   26.4078 C   0  0  0  0  0  0  0  0  0  0  0  0
   10.4489  -17.7881   27.7789 C   0  0  0  0  0  0  0  0  0  0  0  0
    9.5621  -17.0471   28.2583 O   0  0  0  0  0  0  0  0  0  0  0  0
   10.9536  -18.8240   28.5280 O   0  0  0  0  0  0  0  0  0  0  0  0
  2  8  1  0
  2  1  1  1
  3  2  1  0
  4  3  1  0
  5  4  1  0
  6  5  1  0
  7  6  1  0
  8  9  2  0
 10 11  1  0
 12 11  1  0
 13 12  1  0
 14 13  1  1
 15 14  1  0
 15  8  1  0
 16 17  2  0
 16 14  1  0
 18 16  1  0
 19 18  1  0
 20 19  1  0
 21 20  2  0
 22 20  1  0
M  END
$$$$
