KMG.pdb
     RDKit          3D

 22 21  0  0  1  0  0  0  0  0999 V2000
    8.0080  -15.9747   21.1509 N   0  0  0  0  0  0  0  0  0  0  0  0
    9.0700  -14.9764   21.2390 C   0  0  1  0  0  0  0  0  0  0  0  0
    8.8226  -13.9200   20.2183 C   0  0  0  0  0  0  0  0  0  0  0  0
    8.6815  -14.4049   18.8066 C   0  0  0  0  0  0  0  0  0  0  0  0
    7.4734  -13.7909   18.1275 C   0  0  0  0  0  0  0  0  0  0  0  0
    7.3511  -14.2916   16.7157 C   0  0  0  0  0  0  0  0  0  0  0  0
    8.2321  -13.5229   15.8277 N   0  0  0  0  0  0  0  0  0  0  0  0
    9.1427  -14.4904   22.6374 C   0  0  0  0  0  0  0  0  0  0  0  0
    9.3956  -13.2594   22.8020 O   0  0  0  0  0  0  0  0  0  0  0  0
    5.8639  -11.2033   27.5960 C   0  0  0  0  0  0  0  0  0  0  0  0
    6.9760  -12.2145   26.6899 S   0  0  0  0  0  0  0  0  0  0  0  0
    6.4042  -13.3210   25.4682 C   0  0  0  0  0  0  0  0  0  0  0  0
    7.2131  -14.2603   24.7407 C   0  0  0  0  0  0  0  0  0  0  0  0
    8.5495  -14.7871   25.0440 C   0  0  2  0  0  0  0  0  0  0  0  0
    8.9349  -15.3858   23.6942 N   0  0  0  0  0  0  0  0  0  0  0  0
    8.6411  -15.9675   25.9438 C   0  0  0  0  0  0  0  0  0  0  0  0
    8.9293  -15.8291   27.1844 O   0  0  0  0  0  0  0  0  0  0  0  0
    8.4194  -17.3069   25.5534 N   0  0  0  0  0  0  0  0  0  0  0  0
    9.5095  -18.1874   25.1568 C   0  0  0  0  0  0  0  0  0  0  0  0
   10.2739  -18.6627   26.3256 C   0  0  0  0  0  0  0  0  0  0  0  0
    9.8800  -18.3084   27.4591 O   0  0  0  0  0  0  0  0  0  0  0  0
   11.3825  -19.4663   26.2068 O   0  0  0  0  0  0  0  0  0  0  0  0
  2  8  1  0
  2  1  1  1
  3  2  1  0
  4  3  1  0
  5  4  1  0
  6  5  1  0
  7  6  1  0
  8  9  2  0
 10 11  1  0
 12 11  1  0
 13 12  1  0
 14 13  1  6
 15 14  1  0
 15  8  1  0
 16 17  2  0
 16 14  1  0
 18 16  1  0
 19 18  1  0
 20 19  1  0
 21 20  2  0
 22 20  1  0
M  END
$$$$
