KMG.pdb
     RDKit          3D

 22 21  0  0  1  0  0  0  0  0999 V2000
    7.6698  -18.2320   22.0412 N   0  0  0  0  0  0  0  0  0  0  0  0
    8.6602  -17.3230   21.4710 C   0  0  1  0  0  0  0  0  0  0  0  0
    8.2551  -16.9830   20.0784 C   0  0  0  0  0  0  0  0  0  0  0  0
    7.9913  -18.1521   19.1777 C   0  0  0  0  0  0  0  0  0  0  0  0
    6.8430  -17.8730   18.2284 C   0  0  0  0  0  0  0  0  0  0  0  0
    6.5881  -19.0620   17.3453 C   0  0  0  0  0  0  0  0  0  0  0  0
    5.3925  -18.8356   16.5238 N   0  0  0  0  0  0  0  0  0  0  0  0
    8.8102  -16.1619   22.3800 C   0  0  0  0  0  0  0  0  0  0  0  0
    9.6247  -15.2587   22.0235 O   0  0  0  0  0  0  0  0  0  0  0  0
    6.0886  -10.9632   27.0822 C   0  0  0  0  0  0  0  0  0  0  0  0
    6.9106  -12.1153   26.0444 S   0  0  0  0  0  0  0  0  0  0  0  0
    6.1515  -13.6145   25.5755 C   0  0  0  0  0  0  0  0  0  0  0  0
    6.7692  -14.6676   24.8170 C   0  0  0  0  0  0  0  0  0  0  0  0
    8.1643  -14.8277   24.3886 C   0  0  2  0  0  0  0  0  0  0  0  0
    8.0663  -16.1091   23.5657 N   0  0  0  0  0  0  0  0  0  0  0  0
    9.1679  -15.1988   25.4212 C   0  0  0  0  0  0  0  0  0  0  0  0
    9.6057  -14.3310   26.2559 O   0  0  0  0  0  0  0  0  0  0  0  0
    9.7150  -16.4893   25.5969 N   0  0  0  0  0  0  0  0  0  0  0  0
   10.6802  -16.7836   26.6471 C   0  0  0  0  0  0  0  0  0  0  0  0
   11.1873  -18.1651   26.5443 C   0  0  0  0  0  0  0  0  0  0  0  0
   10.9262  -18.8025   25.4997 O   0  0  0  0  0  0  0  0  0  0  0  0
   11.9226  -18.7587   27.5422 O   0  0  0  0  0  0  0  0  0  0  0  0
  2  8  1  0
  2  1  1  1
  3  2  1  0
  4  3  1  0
  5  4  1  0
  6  5  1  0
  7  6  1  0
  8  9  2  0
 10 11  1  0
 12 11  1  0
 13 12  1  0
 14 13  1  1
 15 14  1  0
 15  8  1  0
 16 17  2  0
 16 14  1  0
 18 16  1  0
 19 18  1  0
 20 19  1  0
 21 20  2  0
 22 20  1  0
M  END
$$$$
