KMG.pdb
     RDKit          3D

 22 21  0  0  1  0  0  0  0  0999 V2000
    7.2895  -15.7867   20.9921 N   0  0  0  0  0  0  0  0  0  0  0  0
    8.3169  -14.7525   21.0757 C   0  0  1  0  0  0  0  0  0  0  0  0
    7.8905  -13.5841   20.2559 C   0  0  0  0  0  0  0  0  0  0  0  0
    7.3156  -13.9129   18.9108 C   0  0  0  0  0  0  0  0  0  0  0  0
    8.2360  -13.4697   17.7909 C   0  0  0  0  0  0  0  0  0  0  0  0
    7.5813  -13.6828   16.4550 C   0  0  0  0  0  0  0  0  0  0  0  0
    8.4849  -13.2649   15.3758 N   0  0  0  0  0  0  0  0  0  0  0  0
    8.5684  -14.4548   22.5058 C   0  0  0  0  0  0  0  0  0  0  0  0
    9.4061  -13.5384   22.7599 O   0  0  0  0  0  0  0  0  0  0  0  0
    6.3534  -10.6635   27.3069 C   0  0  0  0  0  0  0  0  0  0  0  0
    7.2169  -12.0781   26.7295 S   0  0  0  0  0  0  0  0  0  0  0  0
    6.3789  -13.3968   25.9532 C   0  0  0  0  0  0  0  0  0  0  0  0
    6.9692  -14.6409   25.5416 C   0  0  0  0  0  0  0  0  0  0  0  0
    8.2830  -14.9092   24.9437 C   0  0  2  0  0  0  0  0  0  0  0  0
    7.8889  -15.1782   23.4943 N   0  0  0  0  0  0  0  0  0  0  0  0
    8.9692  -16.1742   25.3180 C   0  0  0  0  0  0  0  0  0  0  0  0
    8.8549  -16.6614   26.4974 O   0  0  0  0  0  0  0  0  0  0  0  0
    9.7745  -16.9491   24.4539 N   0  0  0  0  0  0  0  0  0  0  0  0
   11.1317  -17.3419   24.8067 C   0  0  0  0  0  0  0  0  0  0  0  0
   11.7657  -18.1252   23.7294 C   0  0  0  0  0  0  0  0  0  0  0  0
   12.9155  -18.5728   23.9373 O   0  0  0  0  0  0  0  0  0  0  0  0
   11.1422  -18.3719   22.5296 O   0  0  0  0  0  0  0  0  0  0  0  0
  2  8  1  0
  2  1  1  1
  3  2  1  0
  4  3  1  0
  5  4  1  0
  6  5  1  0
  7  6  1  0
  8  9  2  0
 10 11  1  0
 12 11  1  0
 13 12  1  0
 14 13  1  1
 15 14  1  0
 15  8  1  0
 16 17  2  0
 16 14  1  0
 18 16  1  0
 19 18  1  0
 20 19  1  0
 21 20  2  0
 22 20  1  0
M  END
$$$$
