PDA.pdb
     RDKit          3D

 21 21  0  0  1  0  0  0  0  0999 V2000
   21.9022  -11.8341  -17.4737 N   0  0  0  0  0  0  0  0  0  0  0  0
   20.9397  -12.8739  -17.6936 C   0  0  0  0  0  0  0  0  0  0  0  0
   19.8558  -12.2599  -18.5640 C   0  0  0  0  0  0  0  0  0  0  0  0
   20.7319  -11.3592  -19.4463 C   0  0  0  0  0  0  0  0  0  0  0  0
   21.6363  -10.7604  -18.3840 C   0  0  1  0  0  0  0  0  0  0  0  0
   20.9712   -9.6083  -17.7011 C   0  0  0  0  0  0  0  0  0  0  0  0
   20.5641   -8.6028  -18.3430 O   0  0  0  0  0  0  0  0  0  0  0  0
   20.7674   -9.5966  -16.2951 N   0  0  0  0  0  0  0  0  0  0  0  0
   20.0378   -8.4684  -15.6553 C   0  0  1  0  0  0  0  0  0  0  0  0
   19.0978   -9.0020  -14.6308 C   0  0  0  0  0  0  0  0  0  0  0  0
   18.0199   -9.7853  -15.2323 C   0  0  0  0  0  0  0  0  0  0  0  0
   17.2378   -9.4683  -16.1448 O   0  0  0  0  0  0  0  0  0  0  0  0
   21.0557   -7.5248  -15.1070 C   0  0  0  0  0  0  0  0  0  0  0  0
   22.0274   -7.8914  -14.4234 O   0  0  0  0  0  0  0  0  0  0  0  0
   17.8272  -11.0883  -14.7153 O   0  0  0  0  0  0  0  0  0  0  0  0
   21.7911   -3.8319  -15.3972 C   0  0  0  0  0  0  0  0  0  0  0  0
   21.9761   -5.2335  -14.8506 C   0  0  2  0  0  0  0  0  0  0  0  0
   20.9537   -6.1200  -15.3517 N   0  0  0  0  0  0  0  0  0  0  0  0
   21.9600   -5.1563  -13.3652 C   0  0  0  0  0  0  0  0  0  0  0  0
   21.0123   -5.6096  -12.6608 O   0  0  0  0  0  0  0  0  0  0  0  0
   23.0112   -4.5700  -12.6895 O   0  0  0  0  0  0  0  0  0  0  0  0
  1  2  1  0
  3  2  1  0
  4  5  1  0
  4  3  1  0
  5  1  1  0
  6  8  1  0
  5  6  1  1
  7  6  2  0
  9 13  1  0
  9  8  1  0
  9 10  1  1
 11 12  2  0
 11 10  1  0
 13 18  1  0
 14 13  2  0
 15 11  1  0
 17 16  1  6
 18 17  1  0
 19 17  1  0
 19 21  1  0
 20 19  2  0
M  END
$$$$
