PDA.pdb
     RDKit          3D

 21 21  0  0  1  0  0  0  0  0999 V2000
   15.7700   -7.1856   -7.9555 N   0  0  0  0  0  0  0  0  0  0  0  0
   14.9015   -6.0570   -7.7884 C   0  0  0  0  0  0  0  0  0  0  0  0
   13.8144   -6.2096   -8.8394 C   0  0  0  0  0  0  0  0  0  0  0  0
   13.6608   -7.7370   -8.8120 C   0  0  0  0  0  0  0  0  0  0  0  0
   15.1239   -8.1423   -8.8037 C   0  0  1  0  0  0  0  0  0  0  0  0
   15.6919   -8.1276  -10.1869 C   0  0  0  0  0  0  0  0  0  0  0  0
   15.1740   -8.7941  -11.1231 O   0  0  0  0  0  0  0  0  0  0  0  0
   16.8429   -7.3590  -10.5080 N   0  0  0  0  0  0  0  0  0  0  0  0
   17.3621   -7.3379  -11.9025 C   0  0  1  0  0  0  0  0  0  0  0  0
   16.4525   -6.5275  -12.7591 C   0  0  0  0  0  0  0  0  0  0  0  0
   16.9360   -6.4345  -14.1357 C   0  0  0  0  0  0  0  0  0  0  0  0
   17.3911   -7.3303  -14.8671 O   0  0  0  0  0  0  0  0  0  0  0  0
   18.7628   -6.8250  -11.8556 C   0  0  0  0  0  0  0  0  0  0  0  0
   19.0943   -5.8027  -11.2304 O   0  0  0  0  0  0  0  0  0  0  0  0
   16.8850   -5.1529  -14.7334 O   0  0  0  0  0  0  0  0  0  0  0  0
   22.1287   -7.9198  -13.1806 C   0  0  0  0  0  0  0  0  0  0  0  0
   21.1513   -6.9705  -12.5165 C   0  0  2  0  0  0  0  0  0  0  0  0
   19.8120   -7.5068  -12.5468 N   0  0  0  0  0  0  0  0  0  0  0  0
   21.2362   -5.6584  -13.2122 C   0  0  0  0  0  0  0  0  0  0  0  0
   20.4126   -5.2935  -14.1001 O   0  0  0  0  0  0  0  0  0  0  0  0
   22.2471   -4.7718  -12.9004 O   0  0  0  0  0  0  0  0  0  0  0  0
  1  2  1  0
  3  2  1  0
  4  5  1  0
  4  3  1  0
  5  1  1  0
  6  8  1  0
  5  6  1  6
  7  6  2  0
  9 13  1  0
  9  8  1  0
  9 10  1  6
 11 12  2  0
 11 10  1  0
 13 18  1  0
 14 13  2  0
 15 11  1  0
 17 16  1  6
 18 17  1  0
 19 17  1  0
 19 21  1  0
 20 19  2  0
M  END
$$$$
