PDA.pdb
     RDKit          3D

 21 21  0  0  1  0  0  0  0  0999 V2000
   20.6021  -12.7062  -15.9971 N   0  0  0  0  0  0  0  0  0  0  0  0
   19.5929  -13.6754  -16.3099 C   0  0  0  0  0  0  0  0  0  0  0  0
   18.9850  -13.2316  -17.6302 C   0  0  0  0  0  0  0  0  0  0  0  0
   20.2503  -12.6927  -18.3128 C   0  0  0  0  0  0  0  0  0  0  0  0
   20.8494  -11.9071  -17.1601 C   0  0  1  0  0  0  0  0  0  0  0  0
   20.2183  -10.5561  -17.0470 C   0  0  0  0  0  0  0  0  0  0  0  0
   20.3098   -9.7027  -17.9701 O   0  0  0  0  0  0  0  0  0  0  0  0
   19.4850  -10.1742  -15.8916 N   0  0  0  0  0  0  0  0  0  0  0  0
   18.8746   -8.8197  -15.8080 C   0  0  1  0  0  0  0  0  0  0  0  0
   17.4800   -8.9338  -15.2982 C   0  0  0  0  0  0  0  0  0  0  0  0
   16.6059   -9.6237  -16.2456 C   0  0  0  0  0  0  0  0  0  0  0  0
   16.4803   -9.4426  -17.4688 O   0  0  0  0  0  0  0  0  0  0  0  0
   19.7618   -7.9759  -14.9545 C   0  0  0  0  0  0  0  0  0  0  0  0
   19.7907   -8.0545  -13.7140 O   0  0  0  0  0  0  0  0  0  0  0  0
   15.7819  -10.6426  -15.7117 O   0  0  0  0  0  0  0  0  0  0  0  0
   22.8674   -6.1025  -15.1585 C   0  0  0  0  0  0  0  0  0  0  0  0
   21.4252   -6.1515  -14.6945 C   0  0  2  0  0  0  0  0  0  0  0  0
   20.6407   -7.0149  -15.5440 N   0  0  0  0  0  0  0  0  0  0  0  0
   20.8962   -4.7613  -14.6815 C   0  0  0  0  0  0  0  0  0  0  0  0
   20.0524   -4.3361  -15.5224 O   0  0  0  0  0  0  0  0  0  0  0  0
   21.3229   -3.8655  -13.7220 O   0  0  0  0  0  0  0  0  0  0  0  0
  1  2  1  0
  3  2  1  0
  4  5  1  0
  4  3  1  0
  5  1  1  0
  6  8  1  0
  5  6  1  1
  7  6  2  0
  9 13  1  0
  9  8  1  0
  9 10  1  1
 11 12  2  0
 11 10  1  0
 13 18  1  0
 14 13  2  0
 15 11  1  0
 17 16  1  6
 18 17  1  0
 19 17  1  0
 19 21  1  0
 20 19  2  0
M  END
$$$$
