PDA.pdb
     RDKit          3D

 21 21  0  0  1  0  0  0  0  0999 V2000
   21.1541  -11.5823  -17.8067 N   0  0  0  0  0  0  0  0  0  0  0  0
   20.1137  -12.5621  -17.9229 C   0  0  0  0  0  0  0  0  0  0  0  0
   19.1829  -12.0531  -19.0111 C   0  0  0  0  0  0  0  0  0  0  0  0
   20.2242  -11.4288  -19.9510 C   0  0  0  0  0  0  0  0  0  0  0  0
   21.0847  -10.7009  -18.9338 C   0  0  1  0  0  0  0  0  0  0  0  0
   20.4823   -9.3820  -18.5681 C   0  0  0  0  0  0  0  0  0  0  0  0
   20.2180   -8.5099  -19.4390 O   0  0  0  0  0  0  0  0  0  0  0  0
   20.1796   -9.0532  -17.2195 N   0  0  0  0  0  0  0  0  0  0  0  0
   19.7040   -7.6865  -16.8724 C   0  0  1  0  0  0  0  0  0  0  0  0
   18.3528   -7.7732  -16.2521 C   0  0  0  0  0  0  0  0  0  0  0  0
   17.8139   -6.4533  -15.9281 C   0  0  0  0  0  0  0  0  0  0  0  0
   17.8011   -5.4219  -16.6213 O   0  0  0  0  0  0  0  0  0  0  0  0
   20.7331   -7.0599  -15.9916 C   0  0  0  0  0  0  0  0  0  0  0  0
   21.1951   -7.6158  -14.9800 O   0  0  0  0  0  0  0  0  0  0  0  0
   17.2202   -6.3142  -14.6512 O   0  0  0  0  0  0  0  0  0  0  0  0
   22.8312   -3.9201  -16.0606 C   0  0  0  0  0  0  0  0  0  0  0  0
   22.2973   -5.2062  -15.4621 C   0  0  2  0  0  0  0  0  0  0  0  0
   21.2457   -5.7574  -16.2823 N   0  0  0  0  0  0  0  0  0  0  0  0
   21.8247   -4.9129  -14.0825 C   0  0  0  0  0  0  0  0  0  0  0  0
   20.6055   -4.7423  -13.7923 O   0  0  0  0  0  0  0  0  0  0  0  0
   22.7299   -4.8150  -13.0451 O   0  0  0  0  0  0  0  0  0  0  0  0
  1  2  1  0
  3  2  1  0
  4  5  1  0
  4  3  1  0
  5  1  1  0
  6  8  1  0
  5  6  1  1
  7  6  2  0
  9 13  1  0
  9  8  1  0
  9 10  1  1
 11 12  2  0
 11 10  1  0
 13 18  1  0
 14 13  2  0
 15 11  1  0
 17 16  1  6
 18 17  1  0
 19 17  1  0
 19 21  1  0
 20 19  2  0
M  END
$$$$
