PDA.pdb
     RDKit          3D

 21 21  0  0  1  0  0  0  0  0999 V2000
   27.1212  -21.3945  -15.4790 N   0  0  0  0  0  0  0  0  0  0  0  0
   27.8253  -20.7107  -16.5243 C   0  0  0  0  0  0  0  0  0  0  0  0
   27.9395  -19.2644  -16.0716 C   0  0  0  0  0  0  0  0  0  0  0  0
   28.1439  -19.4946  -14.5675 C   0  0  0  0  0  0  0  0  0  0  0  0
   27.0807  -20.5503  -14.3223 C   0  0  1  0  0  0  0  0  0  0  0  0
   25.7349  -19.9239  -14.1418 C   0  0  0  0  0  0  0  0  0  0  0  0
   25.5054  -19.1026  -13.2135 O   0  0  0  0  0  0  0  0  0  0  0  0
   24.6530  -20.2268  -15.0114 N   0  0  0  0  0  0  0  0  0  0  0  0
   23.3370  -19.5568  -14.8281 C   0  0  1  0  0  0  0  0  0  0  0  0
   22.7101  -19.3208  -16.1583 C   0  0  0  0  0  0  0  0  0  0  0  0
   21.3829  -18.7194  -16.0386 C   0  0  0  0  0  0  0  0  0  0  0  0
   21.0503  -17.6644  -15.4721 O   0  0  0  0  0  0  0  0  0  0  0  0
   22.5180  -20.4103  -13.9181 C   0  0  0  0  0  0  0  0  0  0  0  0
   22.4196  -21.6433  -14.0443 O   0  0  0  0  0  0  0  0  0  0  0  0
   20.3176  -19.4241  -16.6476 O   0  0  0  0  0  0  0  0  0  0  0  0
   20.9319  -20.0277  -10.5604 C   0  0  0  0  0  0  0  0  0  0  0  0
   21.0711  -20.6842  -11.9195 C   0  0  2  0  0  0  0  0  0  0  0  0
   21.7920  -19.8298  -12.8320 N   0  0  0  0  0  0  0  0  0  0  0  0
   19.7073  -21.0016  -12.4214 C   0  0  0  0  0  0  0  0  0  0  0  0
   19.1852  -20.4200  -13.4160 O   0  0  0  0  0  0  0  0  0  0  0  0
   18.9465  -21.9701  -11.7982 O   0  0  0  0  0  0  0  0  0  0  0  0
  1  2  1  0
  3  2  1  0
  4  5  1  0
  4  3  1  0
  5  1  1  0
  6  8  1  0
  5  6  1  6
  7  6  2  0
  9 13  1  0
  9  8  1  0
  9 10  1  6
 11 12  2  0
 11 10  1  0
 13 18  1  0
 14 13  2  0
 15 11  1  0
 17 16  1  1
 18 17  1  0
 19 17  1  0
 19 21  1  0
 20 19  2  0
M  END
$$$$
