PDA.pdb
     RDKit          3D

 21 21  0  0  1  0  0  0  0  0999 V2000
   24.1472  -12.3816  -15.4124 N   0  0  0  0  0  0  0  0  0  0  0  0
   23.5054  -13.6584  -15.5292 C   0  0  0  0  0  0  0  0  0  0  0  0
   22.7624  -13.6307  -16.8546 C   0  0  0  0  0  0  0  0  0  0  0  0
   23.7693  -12.8191  -17.6822 C   0  0  0  0  0  0  0  0  0  0  0  0
   24.0986  -11.7237  -16.6840 C   0  0  1  0  0  0  0  0  0  0  0  0
   23.0623  -10.6460  -16.7097 C   0  0  0  0  0  0  0  0  0  0  0  0
   22.8363   -9.9686  -17.7484 O   0  0  0  0  0  0  0  0  0  0  0  0
   22.2840  -10.3378  -15.5617 N   0  0  0  0  0  0  0  0  0  0  0  0
   21.2943   -9.2274  -15.6061 C   0  0  1  0  0  0  0  0  0  0  0  0
   20.0299   -9.6622  -14.9504 C   0  0  0  0  0  0  0  0  0  0  0  0
   19.3390  -10.6929  -15.7236 C   0  0  0  0  0  0  0  0  0  0  0  0
   19.0650  -10.7095  -16.9357 O   0  0  0  0  0  0  0  0  0  0  0  0
   21.9249   -8.0340  -14.9691 C   0  0  0  0  0  0  0  0  0  0  0  0
   22.4100   -8.0483  -13.8244 O   0  0  0  0  0  0  0  0  0  0  0  0
   18.9172  -11.8378  -15.0069 O   0  0  0  0  0  0  0  0  0  0  0  0
   22.9011   -4.5618  -16.0747 C   0  0  0  0  0  0  0  0  0  0  0  0
   22.6952   -5.6761  -15.0681 C   0  0  2  0  0  0  0  0  0  0  0  0
   22.0001   -6.7893  -15.6681 N   0  0  0  0  0  0  0  0  0  0  0  0
   21.9481   -5.1194  -13.9085 C   0  0  0  0  0  0  0  0  0  0  0  0
   22.4804   -4.3690  -13.0405 O   0  0  0  0  0  0  0  0  0  0  0  0
   20.6102   -5.4135  -13.7392 O   0  0  0  0  0  0  0  0  0  0  0  0
  1  2  1  0
  3  2  1  0
  4  5  1  0
  4  3  1  0
  5  1  1  0
  6  8  1  0
  5  6  1  1
  7  6  2  0
  9 13  1  0
  9  8  1  0
  9 10  1  1
 11 12  2  0
 11 10  1  0
 13 18  1  0
 14 13  2  0
 15 11  1  0
 17 16  1  6
 18 17  1  0
 19 17  1  0
 19 21  1  0
 20 19  2  0
M  END
$$$$
