PDA.pdb
     RDKit          3D

 21 21  0  0  1  0  0  0  0  0999 V2000
   28.0437  -22.1741  -11.7655 N   0  0  0  0  0  0  0  0  0  0  0  0
   29.2942  -21.9135  -12.4168 C   0  0  0  0  0  0  0  0  0  0  0  0
   29.4133  -20.4006  -12.4982 C   0  0  0  0  0  0  0  0  0  0  0  0
   28.7682  -20.0321  -11.1545 C   0  0  0  0  0  0  0  0  0  0  0  0
   27.5633  -20.9551  -11.1863 C   0  0  1  0  0  0  0  0  0  0  0  0
   26.4533  -20.3598  -11.9923 C   0  0  0  0  0  0  0  0  0  0  0  0
   26.0059  -19.2059  -11.7533 O   0  0  0  0  0  0  0  0  0  0  0  0
   25.8531  -21.0700  -13.0666 N   0  0  0  0  0  0  0  0  0  0  0  0
   24.7994  -20.4224  -13.8941 C   0  0  1  0  0  0  0  0  0  0  0  0
   25.0604  -20.6966  -15.3345 C   0  0  0  0  0  0  0  0  0  0  0  0
   26.3526  -20.1668  -15.7668 C   0  0  0  0  0  0  0  0  0  0  0  0
   26.7384  -18.9862  -15.8122 O   0  0  0  0  0  0  0  0  0  0  0  0
   23.4774  -20.9222  -13.4147 C   0  0  0  0  0  0  0  0  0  0  0  0
   23.2358  -22.1247  -13.2110 O   0  0  0  0  0  0  0  0  0  0  0  0
   27.3087  -21.1176  -16.1961 O   0  0  0  0  0  0  0  0  0  0  0  0
   20.2877  -19.3998  -12.1190 C   0  0  0  0  0  0  0  0  0  0  0  0
   21.1399  -20.5200  -12.6815 C   0  0  2  0  0  0  0  0  0  0  0  0
   22.4029  -20.0137  -13.1622 N   0  0  0  0  0  0  0  0  0  0  0  0
   20.3675  -21.1911  -13.7612 C   0  0  0  0  0  0  0  0  0  0  0  0
   20.6769  -21.1083  -14.9848 O   0  0  0  0  0  0  0  0  0  0  0  0
   19.2556  -21.9479  -13.4512 O   0  0  0  0  0  0  0  0  0  0  0  0
  1  2  1  0
  3  2  1  0
  4  5  1  0
  4  3  1  0
  5  1  1  0
  6  8  1  0
  5  6  1  6
  7  6  2  0
  9 13  1  0
  9  8  1  0
  9 10  1  6
 11 12  2  0
 11 10  1  0
 13 18  1  0
 14 13  2  0
 15 11  1  0
 17 16  1  6
 18 17  1  0
 19 17  1  0
 19 21  1  0
 20 19  2  0
M  END
$$$$
