PDA.pdb
     RDKit          3D

 21 21  0  0  1  0  0  0  0  0999 V2000
   18.2681  -12.1088  -15.2776 N   0  0  0  0  0  0  0  0  0  0  0  0
   17.1297  -12.6170  -15.9858 C   0  0  0  0  0  0  0  0  0  0  0  0
   17.2571  -12.0946  -17.4073 C   0  0  0  0  0  0  0  0  0  0  0  0
   18.7825  -12.1760  -17.5618 C   0  0  0  0  0  0  0  0  0  0  0  0
   19.2075  -11.5907  -16.2270 C   0  0  1  0  0  0  0  0  0  0  0  0
   19.1866  -10.0960  -16.2662 C   0  0  0  0  0  0  0  0  0  0  0  0
   19.9211   -9.4435  -17.0558 O   0  0  0  0  0  0  0  0  0  0  0  0
   18.3349   -9.3434  -15.4137 N   0  0  0  0  0  0  0  0  0  0  0  0
   18.3355   -7.8568  -15.4803 C   0  0  1  0  0  0  0  0  0  0  0  0
   16.9650   -7.3463  -15.1990 C   0  0  0  0  0  0  0  0  0  0  0  0
   16.9020   -5.8868  -15.2580 C   0  0  0  0  0  0  0  0  0  0  0  0
   16.5422   -5.0833  -14.3808 O   0  0  0  0  0  0  0  0  0  0  0  0
   19.3712   -7.3619  -14.5264 C   0  0  0  0  0  0  0  0  0  0  0  0
   19.3478   -7.6055  -13.3074 O   0  0  0  0  0  0  0  0  0  0  0  0
   17.3036   -5.2902  -16.4766 O   0  0  0  0  0  0  0  0  0  0  0  0
   22.8440   -6.4382  -14.4751 C   0  0  0  0  0  0  0  0  0  0  0  0
   21.4379   -6.0751  -14.0409 C   0  0  2  0  0  0  0  0  0  0  0  0
   20.4647   -6.5648  -14.9872 N   0  0  0  0  0  0  0  0  0  0  0  0
   21.3673   -4.5968  -13.8919 C   0  0  0  0  0  0  0  0  0  0  0  0
   20.6880   -3.8572  -14.6609 O   0  0  0  0  0  0  0  0  0  0  0  0
   22.0621   -3.9676  -12.8786 O   0  0  0  0  0  0  0  0  0  0  0  0
  1  2  1  0
  3  2  1  0
  4  5  1  0
  4  3  1  0
  5  1  1  0
  6  8  1  0
  5  6  1  6
  7  6  2  0
  9 13  1  0
  9  8  1  0
  9 10  1  1
 11 12  2  0
 11 10  1  0
 13 18  1  0
 14 13  2  0
 15 11  1  0
 17 16  1  6
 18 17  1  0
 19 17  1  0
 19 21  1  0
 20 19  2  0
M  END
$$$$
