PDA.pdb
     RDKit          3D

 21 21  0  0  1  0  0  0  0  0999 V2000
   27.6858  -21.6108  -15.7757 N   0  0  0  0  0  0  0  0  0  0  0  0
   27.0560  -21.5289  -17.0612 C   0  0  0  0  0  0  0  0  0  0  0  0
   26.5377  -20.1052  -17.1804 C   0  0  0  0  0  0  0  0  0  0  0  0
   27.6749  -19.3698  -16.4570 C   0  0  0  0  0  0  0  0  0  0  0  0
   27.8515  -20.2851  -15.2587 C   0  0  1  0  0  0  0  0  0  0  0  0
   26.8460  -19.9764  -14.1958 C   0  0  0  0  0  0  0  0  0  0  0  0
   26.7144  -18.8144  -13.7255 O   0  0  0  0  0  0  0  0  0  0  0  0
   25.9918  -20.9817  -13.6683 N   0  0  0  0  0  0  0  0  0  0  0  0
   24.9336  -20.6228  -12.6855 C   0  0  1  0  0  0  0  0  0  0  0  0
   23.6495  -21.2648  -13.0814 C   0  0  0  0  0  0  0  0  0  0  0  0
   22.9927  -20.5474  -14.1729 C   0  0  0  0  0  0  0  0  0  0  0  0
   22.8363  -19.3236  -14.3221 O   0  0  0  0  0  0  0  0  0  0  0  0
   25.4177  -21.0258  -11.3325 C   0  0  0  0  0  0  0  0  0  0  0  0
   25.7619  -22.1863  -11.0489 O   0  0  0  0  0  0  0  0  0  0  0  0
   22.4552  -21.3427  -15.2126 O   0  0  0  0  0  0  0  0  0  0  0  0
   26.4111  -19.3662   -8.1232 C   0  0  0  0  0  0  0  0  0  0  0  0
   25.8397  -20.5068   -8.9418 C   0  0  2  0  0  0  0  0  0  0  0  0
   25.5090  -20.0672  -10.2759 N   0  0  0  0  0  0  0  0  0  0  0  0
   24.6498  -21.0393   -8.2254 C   0  0  0  0  0  0  0  0  0  0  0  0
   23.4782  -20.9862   -8.6990 O   0  0  0  0  0  0  0  0  0  0  0  0
   24.7923  -21.6257   -6.9839 O   0  0  0  0  0  0  0  0  0  0  0  0
  1  2  1  0
  3  2  1  0
  4  5  1  0
  4  3  1  0
  5  1  1  0
  6  8  1  0
  5  6  1  1
  7  6  2  0
  9 13  1  0
  9  8  1  0
  9 10  1  6
 11 12  2  0
 11 10  1  0
 13 18  1  0
 14 13  2  0
 15 11  1  0
 17 16  1  1
 18 17  1  0
 19 17  1  0
 19 21  1  0
 20 19  2  0
M  END
$$$$
