PDA.pdb
     RDKit          3D

 21 21  0  0  1  0  0  0  0  0999 V2000
   21.2878  -12.4941  -16.9652 N   0  0  0  0  0  0  0  0  0  0  0  0
   20.2408  -13.3899  -17.3617 C   0  0  0  0  0  0  0  0  0  0  0  0
   19.4632  -12.6657  -18.4482 C   0  0  0  0  0  0  0  0  0  0  0  0
   20.6280  -11.9482  -19.1453 C   0  0  0  0  0  0  0  0  0  0  0  0
   21.3805  -11.4385  -17.9292 C   0  0  1  0  0  0  0  0  0  0  0  0
   20.7772  -10.1690  -17.4188 C   0  0  0  0  0  0  0  0  0  0  0  0
   20.6748   -9.1448  -18.1463 O   0  0  0  0  0  0  0  0  0  0  0  0
   20.2907  -10.0613  -16.0883 N   0  0  0  0  0  0  0  0  0  0  0  0
   19.7027   -8.7811  -15.6091 C   0  0  1  0  0  0  0  0  0  0  0  0
   18.4839   -9.0655  -14.8019 C   0  0  0  0  0  0  0  0  0  0  0  0
   17.4115   -9.6386  -15.6136 C   0  0  0  0  0  0  0  0  0  0  0  0
   16.9846   -9.2677  -16.7203 O   0  0  0  0  0  0  0  0  0  0  0  0
   20.7652   -8.0481  -14.8599 C   0  0  0  0  0  0  0  0  0  0  0  0
   21.5276   -8.5969  -14.0454 O   0  0  0  0  0  0  0  0  0  0  0  0
   16.7585  -10.7745  -15.0790 O   0  0  0  0  0  0  0  0  0  0  0  0
   23.2206   -5.7493  -15.1606 C   0  0  0  0  0  0  0  0  0  0  0  0
   21.9841   -5.9569  -14.3088 C   0  0  2  0  0  0  0  0  0  0  0  0
   20.9566   -6.6446  -15.0527 N   0  0  0  0  0  0  0  0  0  0  0  0
   21.5226   -4.6257  -13.8317 C   0  0  0  0  0  0  0  0  0  0  0  0
   20.4748   -4.0632  -14.2627 O   0  0  0  0  0  0  0  0  0  0  0  0
   22.2457   -3.9426  -12.8747 O   0  0  0  0  0  0  0  0  0  0  0  0
  1  2  1  0
  3  2  1  0
  4  5  1  0
  4  3  1  0
  5  1  1  0
  6  8  1  0
  5  6  1  1
  7  6  2  0
  9 13  1  0
  9  8  1  0
  9 10  1  1
 11 12  2  0
 11 10  1  0
 13 18  1  0
 14 13  2  0
 15 11  1  0
 17 16  1  6
 18 17  1  0
 19 17  1  0
 19 21  1  0
 20 19  2  0
M  END
$$$$
