PDA.pdb
     RDKit          3D

 21 21  0  0  1  0  0  0  0  0999 V2000
   21.2772  -11.5793  -16.8841 N   0  0  0  0  0  0  0  0  0  0  0  0
   20.2740  -12.5991  -16.9809 C   0  0  0  0  0  0  0  0  0  0  0  0
   19.2784  -12.1059  -18.0178 C   0  0  0  0  0  0  0  0  0  0  0  0
   20.2529  -11.4179  -18.9844 C   0  0  0  0  0  0  0  0  0  0  0  0
   21.1246  -10.6770  -17.9863 C   0  0  1  0  0  0  0  0  0  0  0  0
   20.4843   -9.3930  -17.5650 C   0  0  0  0  0  0  0  0  0  0  0  0
   20.2087   -8.4861  -18.3959 O   0  0  0  0  0  0  0  0  0  0  0  0
   20.1566   -9.1382  -16.2062 N   0  0  0  0  0  0  0  0  0  0  0  0
   19.5925   -7.8200  -15.8082 C   0  0  1  0  0  0  0  0  0  0  0  0
   18.3869   -8.0312  -14.9598 C   0  0  0  0  0  0  0  0  0  0  0  0
   17.7826   -6.7668  -14.5434 C   0  0  0  0  0  0  0  0  0  0  0  0
   17.7172   -6.2678  -13.4070 O   0  0  0  0  0  0  0  0  0  0  0  0
   20.6777   -7.0491  -15.1333 C   0  0  0  0  0  0  0  0  0  0  0  0
   21.3597   -7.5061  -14.1995 O   0  0  0  0  0  0  0  0  0  0  0  0
   17.1849   -5.9906  -15.5645 O   0  0  0  0  0  0  0  0  0  0  0  0
   22.3863   -3.7201  -15.5877 C   0  0  0  0  0  0  0  0  0  0  0  0
   21.9739   -4.9562  -14.8133 C   0  0  2  0  0  0  0  0  0  0  0  0
   20.9876   -5.7153  -15.5437 N   0  0  0  0  0  0  0  0  0  0  0  0
   21.4631   -4.5210  -13.4858 C   0  0  0  0  0  0  0  0  0  0  0  0
   20.2321   -4.3770  -13.2332 O   0  0  0  0  0  0  0  0  0  0  0  0
   22.3439   -4.2530  -12.4573 O   0  0  0  0  0  0  0  0  0  0  0  0
  1  2  1  0
  3  2  1  0
  4  5  1  0
  4  3  1  0
  5  1  1  0
  6  8  1  0
  5  6  1  1
  7  6  2  0
  9 13  1  0
  9  8  1  0
  9 10  1  1
 11 12  2  0
 11 10  1  0
 13 18  1  0
 14 13  2  0
 15 11  1  0
 17 16  1  6
 18 17  1  0
 19 17  1  0
 19 21  1  0
 20 19  2  0
M  END
$$$$
