PDA.pdb
     RDKit          3D

 21 21  0  0  1  0  0  0  0  0999 V2000
   18.6733  -12.3703  -17.7336 N   0  0  0  0  0  0  0  0  0  0  0  0
   20.0705  -12.2534  -18.0334 C   0  0  0  0  0  0  0  0  0  0  0  0
   20.5515  -11.0141  -17.2970 C   0  0  0  0  0  0  0  0  0  0  0  0
   19.6999  -11.1394  -16.0256 C   0  0  0  0  0  0  0  0  0  0  0  0
   18.3600  -11.4904  -16.6475 C   0  0  1  0  0  0  0  0  0  0  0  0
   17.6495  -10.2618  -17.1185 C   0  0  0  0  0  0  0  0  0  0  0  0
   17.5338   -9.9922  -18.3443 O   0  0  0  0  0  0  0  0  0  0  0  0
   17.0713   -9.3422  -16.2027 N   0  0  0  0  0  0  0  0  0  0  0  0
   16.2292   -8.2211  -16.7011 C   0  0  1  0  0  0  0  0  0  0  0  0
   14.9802   -8.1409  -15.8940 C   0  0  0  0  0  0  0  0  0  0  0  0
   13.7923   -8.0088  -16.7359 C   0  0  0  0  0  0  0  0  0  0  0  0
   13.3561   -7.0028  -17.3210 O   0  0  0  0  0  0  0  0  0  0  0  0
   17.0568   -6.9799  -16.6570 C   0  0  0  0  0  0  0  0  0  0  0  0
   17.7987   -6.6882  -15.7028 O   0  0  0  0  0  0  0  0  0  0  0  0
   13.0208   -9.1805  -16.9207 O   0  0  0  0  0  0  0  0  0  0  0  0
   17.1427   -3.9378  -16.5265 C   0  0  0  0  0  0  0  0  0  0  0  0
   17.7413   -4.7974  -17.6221 C   0  0  2  0  0  0  0  0  0  0  0  0
   17.0309   -6.0479  -17.7407 N   0  0  0  0  0  0  0  0  0  0  0  0
   19.1805   -5.0078  -17.3102 C   0  0  0  0  0  0  0  0  0  0  0  0
   19.6720   -6.1446  -17.0532 O   0  0  0  0  0  0  0  0  0  0  0  0
   20.0503   -3.9362  -17.2915 O   0  0  0  0  0  0  0  0  0  0  0  0
  1  2  1  0
  3  2  1  0
  4  5  1  0
  4  3  1  0
  5  1  1  0
  6  8  1  0
  5  6  1  6
  7  6  2  0
  9 13  1  0
  9  8  1  0
  9 10  1  1
 11 12  2  0
 11 10  1  0
 13 18  1  0
 14 13  2  0
 15 11  1  0
 17 16  1  1
 18 17  1  0
 19 17  1  0
 19 21  1  0
 20 19  2  0
M  END
$$$$
