NEM.pdb
     RDKit          3D

 26 25  0  0  1  0  0  0  0  0999 V2000
    8.6290  -12.0180   18.3857 N   0  0  0  0  0  0  0  0  0  0  0  0
    7.8546  -13.2002   18.2049 C   0  0  0  0  0  0  0  0  0  0  0  0
    7.3482  -13.4210   17.0873 O   0  0  0  0  0  0  0  0  0  0  0  0
    7.6825  -14.1210   19.3483 C   0  0  0  0  0  0  0  0  0  0  0  0
    8.6656  -15.2614   19.2957 C   0  0  2  0  0  0  0  0  0  0  0  0
    8.4471  -16.1957   18.2285 N   0  0  0  0  0  0  0  0  0  0  0  0
    8.8131  -15.9788   20.5717 C   0  0  0  0  0  0  0  0  0  0  0  0
    7.7990  -16.5355   21.0682 O   0  0  0  0  0  0  0  0  0  0  0  0
   10.0481  -16.0721   21.2653 N   0  0  0  0  0  0  0  0  0  0  0  0
   10.2611  -17.0328   22.3838 C   0  0  1  0  0  0  0  0  0  0  0  0
   11.5870  -17.7058   22.1646 C   0  0  0  0  0  0  0  0  0  0  0  0
   12.0387  -18.6714   23.1851 C   0  0  0  0  0  0  0  0  0  0  0  0
   13.3659  -19.2845   22.9224 C   0  0  0  0  0  0  0  0  0  0  0  0
   13.5206  -20.4576   22.5242 O   0  0  0  0  0  0  0  0  0  0  0  0
   10.1528  -16.2342   23.6082 C   0  0  0  0  0  0  0  0  0  0  0  0
   10.8505  -15.1636   23.7017 O   0  0  0  0  0  0  0  0  0  0  0  0
   14.5277  -18.5365   23.1193 O   0  0  0  0  0  0  0  0  0  0  0  0
    6.2959  -11.0646   26.1057 C   0  0  0  0  0  0  0  0  0  0  0  0
    6.4204  -12.8218   26.3123 S   0  0  0  0  0  0  0  0  0  0  0  0
    7.9736  -13.5805   25.8851 C   0  0  0  0  0  0  0  0  0  0  0  0
    7.9979  -15.0577   26.0859 C   0  0  0  0  0  0  0  0  0  0  0  0
    9.3012  -15.7441   25.9283 C   0  0  2  0  0  0  0  0  0  0  0  0
    9.3457  -16.5410   24.6947 N   0  0  0  0  0  0  0  0  0  0  0  0
    9.4557  -16.7655   27.0185 C   0  0  0  0  0  0  0  0  0  0  0  0
    9.3538  -18.1198   26.8090 O   0  0  0  0  0  0  0  0  0  0  0  0
    9.6901  -16.3600   28.1785 O   0  0  0  0  0  0  0  0  0  0  0  0
  2  1  1  0
  3  2  2  0
  4  2  1  0
  4  5  1  0
  5  7  1  0
  5  6  1  6
  7  8  2  0
  9  7  1  0
  9 10  1  0
 10 11  1  6
 11 12  1  0
 13 17  1  0
 13 12  1  0
 14 13  2  0
 15 10  1  0
 15 16  2  0
 18 19  1  0
 19 20  1  0
 20 21  1  0
 22 21  1  1
 22 23  1  0
 22 24  1  0
 23 15  1  0
 24 25  1  0
 26 24  2  0
M  END
$$$$
