NEM.pdb
     RDKit          3D

 26 25  0  0  1  0  0  0  0  0999 V2000
    7.3454  -12.8002   16.8423 N   0  0  0  0  0  0  0  0  0  0  0  0
    8.4250  -13.4764   17.4806 C   0  0  0  0  0  0  0  0  0  0  0  0
    9.5247  -13.5368   16.8964 O   0  0  0  0  0  0  0  0  0  0  0  0
    8.2011  -14.0786   18.8118 C   0  0  0  0  0  0  0  0  0  0  0  0
    8.5925  -15.5331   18.8363 C   0  0  2  0  0  0  0  0  0  0  0  0
    7.8896  -16.3613   17.8984 N   0  0  0  0  0  0  0  0  0  0  0  0
    8.5474  -16.1387   20.1763 C   0  0  0  0  0  0  0  0  0  0  0  0
    7.4316  -16.2469   20.7491 O   0  0  0  0  0  0  0  0  0  0  0  0
    9.7058  -16.6074   20.8497 N   0  0  0  0  0  0  0  0  0  0  0  0
    9.6337  -17.3037   22.1648 C   0  0  1  0  0  0  0  0  0  0  0  0
   10.8640  -18.1562   22.3009 C   0  0  0  0  0  0  0  0  0  0  0  0
   11.0286  -18.9215   23.5519 C   0  0  0  0  0  0  0  0  0  0  0  0
   12.2770  -19.7218   23.6362 C   0  0  0  0  0  0  0  0  0  0  0  0
   13.1472  -19.7448   22.7413 O   0  0  0  0  0  0  0  0  0  0  0  0
    9.4901  -16.2383   23.1613 C   0  0  0  0  0  0  0  0  0  0  0  0
   10.2202  -15.1918   23.0448 O   0  0  0  0  0  0  0  0  0  0  0  0
   12.5261  -20.5033   24.7655 O   0  0  0  0  0  0  0  0  0  0  0  0
    7.1456  -10.7563   27.2258 C   0  0  0  0  0  0  0  0  0  0  0  0
    7.1009  -11.9769   25.9396 S   0  0  0  0  0  0  0  0  0  0  0  0
    6.8870  -13.6728   26.4384 C   0  0  0  0  0  0  0  0  0  0  0  0
    7.1543  -14.6585   25.3521 C   0  0  0  0  0  0  0  0  0  0  0  0
    8.5307  -15.1957   25.2448 C   0  0  2  0  0  0  0  0  0  0  0  0
    8.6164  -16.2636   24.2393 N   0  0  0  0  0  0  0  0  0  0  0  0
    8.8925  -15.8853   26.5290 C   0  0  0  0  0  0  0  0  0  0  0  0
    9.3455  -15.2225   27.6444 O   0  0  0  0  0  0  0  0  0  0  0  0
    8.7741  -17.1294   26.5848 O   0  0  0  0  0  0  0  0  0  0  0  0
  2  1  1  0
  3  2  2  0
  4  2  1  0
  4  5  1  0
  5  7  1  0
  5  6  1  6
  7  8  2  0
  9  7  1  0
  9 10  1  0
 10 11  1  1
 11 12  1  0
 13 17  1  0
 13 12  1  0
 14 13  2  0
 15 10  1  0
 15 16  2  0
 18 19  1  0
 19 20  1  0
 20 21  1  0
 22 21  1  1
 22 23  1  0
 22 24  1  0
 23 15  1  0
 24 25  1  0
 26 24  2  0
M  END
$$$$
