NEM.pdb
     RDKit          3D

 26 25  0  0  1  0  0  0  0  0999 V2000
    9.4076  -14.7133   16.4891 N   0  0  0  0  0  0  0  0  0  0  0  0
    8.1055  -14.1350   16.4983 C   0  0  0  0  0  0  0  0  0  0  0  0
    7.3856  -14.2610   15.4882 O   0  0  0  0  0  0  0  0  0  0  0  0
    7.6564  -13.4097   17.7054 C   0  0  0  0  0  0  0  0  0  0  0  0
    8.6926  -13.4550   18.7981 C   0  0  2  0  0  0  0  0  0  0  0  0
   10.0366  -13.6725   18.3443 N   0  0  0  0  0  0  0  0  0  0  0  0
    8.3697  -14.3919   19.8855 C   0  0  0  0  0  0  0  0  0  0  0  0
    7.2309  -14.3246   20.4177 O   0  0  0  0  0  0  0  0  0  0  0  0
    9.2847  -15.3686   20.3585 N   0  0  0  0  0  0  0  0  0  0  0  0
    8.9411  -16.3136   21.4578 C   0  0  1  0  0  0  0  0  0  0  0  0
    9.7787  -17.5488   21.2800 C   0  0  0  0  0  0  0  0  0  0  0  0
   11.2441  -17.3974   21.3667 C   0  0  0  0  0  0  0  0  0  0  0  0
   12.0184  -18.6341   21.0886 C   0  0  0  0  0  0  0  0  0  0  0  0
   11.7116  -19.7589   21.5351 O   0  0  0  0  0  0  0  0  0  0  0  0
    9.1716  -15.5673   22.6982 C   0  0  0  0  0  0  0  0  0  0  0  0
    9.9414  -14.5437   22.6600 O   0  0  0  0  0  0  0  0  0  0  0  0
   13.1585  -18.5739   20.2856 O   0  0  0  0  0  0  0  0  0  0  0  0
    6.1490  -10.9095   27.7634 C   0  0  0  0  0  0  0  0  0  0  0  0
    6.0685  -12.3050   26.6714 S   0  0  0  0  0  0  0  0  0  0  0  0
    7.5255  -13.3207   26.5451 C   0  0  0  0  0  0  0  0  0  0  0  0
    7.5619  -14.1723   25.3217 C   0  0  0  0  0  0  0  0  0  0  0  0
    8.7551  -15.0277   25.1238 C   0  0  2  0  0  0  0  0  0  0  0  0
    8.6186  -15.8772   23.9328 N   0  0  0  0  0  0  0  0  0  0  0  0
    8.8496  -16.0116   26.2546 C   0  0  0  0  0  0  0  0  0  0  0  0
    8.6731  -17.3654   26.0988 O   0  0  0  0  0  0  0  0  0  0  0  0
    9.1031  -15.5735   27.3986 O   0  0  0  0  0  0  0  0  0  0  0  0
  2  1  1  0
  3  2  2  0
  4  2  1  0
  4  5  1  0
  5  7  1  0
  5  6  1  6
  7  8  2  0
  9  7  1  0
  9 10  1  0
 10 11  1  1
 11 12  1  0
 13 17  1  0
 13 12  1  0
 14 13  2  0
 15 10  1  0
 15 16  2  0
 18 19  1  0
 19 20  1  0
 20 21  1  0
 22 21  1  1
 22 23  1  0
 22 24  1  0
 23 15  1  0
 24 25  1  0
 26 24  2  0
M  END
$$$$
