NEM.pdb
     RDKit          3D

 26 25  0  0  1  0  0  0  0  0999 V2000
   14.3689  -14.9043   17.9116 N   0  0  0  0  0  0  0  0  0  0  0  0
   14.4674  -14.4851   19.2698 C   0  0  0  0  0  0  0  0  0  0  0  0
   15.5477  -14.0134   19.6755 O   0  0  0  0  0  0  0  0  0  0  0  0
   13.2847  -14.6232   20.1456 C   0  0  0  0  0  0  0  0  0  0  0  0
   12.1483  -15.3154   19.4393 C   0  0  2  0  0  0  0  0  0  0  0  0
   11.5999  -14.5912   18.3283 N   0  0  0  0  0  0  0  0  0  0  0  0
   11.0688  -15.7540   20.3375 C   0  0  0  0  0  0  0  0  0  0  0  0
    9.8780  -15.5146   20.0067 O   0  0  0  0  0  0  0  0  0  0  0  0
   11.3114  -16.4363   21.5584 N   0  0  0  0  0  0  0  0  0  0  0  0
   10.2092  -17.0050   22.3839 C   0  0  1  0  0  0  0  0  0  0  0  0
   10.4271  -18.4890   22.4809 C   0  0  0  0  0  0  0  0  0  0  0  0
    9.6283  -19.3552   21.5925 C   0  0  0  0  0  0  0  0  0  0  0  0
    9.8975  -20.8095   21.7289 C   0  0  0  0  0  0  0  0  0  0  0  0
   10.7042  -21.4352   21.0102 O   0  0  0  0  0  0  0  0  0  0  0  0
   10.2584  -16.2750   23.6540 C   0  0  0  0  0  0  0  0  0  0  0  0
   11.4038  -16.0360   24.1762 O   0  0  0  0  0  0  0  0  0  0  0  0
    9.2307  -21.5508   22.7056 O   0  0  0  0  0  0  0  0  0  0  0  0
    5.6624  -11.9827   25.4219 C   0  0  0  0  0  0  0  0  0  0  0  0
    6.6310  -12.0808   26.9045 S   0  0  0  0  0  0  0  0  0  0  0  0
    7.9343  -13.2935   26.9428 C   0  0  0  0  0  0  0  0  0  0  0  0
    8.0677  -14.0745   25.6797 C   0  0  0  0  0  0  0  0  0  0  0  0
    9.2424  -14.9682   25.5536 C   0  0  2  0  0  0  0  0  0  0  0  0
    9.1531  -15.8108   24.3532 N   0  0  0  0  0  0  0  0  0  0  0  0
    9.2339  -15.9565   26.6845 C   0  0  0  0  0  0  0  0  0  0  0  0
    9.0395  -17.3058   26.5111 O   0  0  0  0  0  0  0  0  0  0  0  0
    9.4140  -15.5268   27.8454 O   0  0  0  0  0  0  0  0  0  0  0  0
  2  1  1  0
  3  2  2  0
  4  2  1  0
  4  5  1  0
  5  7  1  0
  5  6  1  6
  7  8  2  0
  9  7  1  0
  9 10  1  0
 10 11  1  1
 11 12  1  0
 13 17  1  0
 13 12  1  0
 14 13  2  0
 15 10  1  0
 15 16  2  0
 18 19  1  0
 19 20  1  0
 20 21  1  0
 22 21  1  1
 22 23  1  0
 22 24  1  0
 23 15  1  0
 24 25  1  0
 26 24  2  0
M  END
$$$$
