NEM.pdb
     RDKit          3D

 26 25  0  0  1  0  0  0  0  0999 V2000
    9.3422  -13.0062   17.3514 N   0  0  0  0  0  0  0  0  0  0  0  0
    8.0433  -13.3086   17.8531 C   0  0  0  0  0  0  0  0  0  0  0  0
    7.0481  -12.9888   17.1738 O   0  0  0  0  0  0  0  0  0  0  0  0
    7.9250  -13.9917   19.1586 C   0  0  0  0  0  0  0  0  0  0  0  0
    8.6028  -15.3371   19.1449 C   0  0  2  0  0  0  0  0  0  0  0  0
    8.0688  -16.2703   18.1943 N   0  0  0  0  0  0  0  0  0  0  0  0
    8.7000  -15.9676   20.4706 C   0  0  0  0  0  0  0  0  0  0  0  0
    7.6451  -16.1255   21.1391 O   0  0  0  0  0  0  0  0  0  0  0  0
    9.9299  -16.4069   21.0269 N   0  0  0  0  0  0  0  0  0  0  0  0
   10.0004  -17.1343   22.3251 C   0  0  1  0  0  0  0  0  0  0  0  0
   11.2275  -18.0018   22.2991 C   0  0  0  0  0  0  0  0  0  0  0  0
   11.5861  -18.7134   23.5412 C   0  0  0  0  0  0  0  0  0  0  0  0
   12.8401  -19.5062   23.4683 C   0  0  0  0  0  0  0  0  0  0  0  0
   12.8777  -20.7172   23.1674 O   0  0  0  0  0  0  0  0  0  0  0  0
    9.9852  -16.0924   23.3559 C   0  0  0  0  0  0  0  0  0  0  0  0
   10.7591  -15.0813   23.2126 O   0  0  0  0  0  0  0  0  0  0  0  0
   14.0647  -18.8958   23.7440 O   0  0  0  0  0  0  0  0  0  0  0  0
    6.1211  -11.0474   27.7789 C   0  0  0  0  0  0  0  0  0  0  0  0
    6.3583  -12.3040   26.5497 S   0  0  0  0  0  0  0  0  0  0  0  0
    7.8477  -13.2737   26.6585 C   0  0  0  0  0  0  0  0  0  0  0  0
    8.0430  -14.2084   25.5134 C   0  0  0  0  0  0  0  0  0  0  0  0
    9.2463  -15.0721   25.5380 C   0  0  2  0  0  0  0  0  0  0  0  0
    9.1910  -16.1045   24.4941 N   0  0  0  0  0  0  0  0  0  0  0  0
    9.2625  -15.8589   26.8172 C   0  0  0  0  0  0  0  0  0  0  0  0
    9.7838  -15.3807   27.9953 O   0  0  0  0  0  0  0  0  0  0  0  0
    8.7746  -17.0108   26.8079 O   0  0  0  0  0  0  0  0  0  0  0  0
  2  1  1  0
  3  2  2  0
  4  2  1  0
  4  5  1  0
  5  7  1  0
  5  6  1  6
  7  8  2  0
  9  7  1  0
  9 10  1  0
 10 11  1  6
 11 12  1  0
 13 17  1  0
 13 12  1  0
 14 13  2  0
 15 10  1  0
 15 16  2  0
 18 19  1  0
 19 20  1  0
 20 21  1  0
 22 21  1  1
 22 23  1  0
 22 24  1  0
 23 15  1  0
 24 25  1  0
 26 24  2  0
M  END
$$$$
