NEM.pdb
     RDKit          3D

 26 25  0  0  1  0  0  0  0  0999 V2000
    7.9020  -12.3408   17.5368 N   0  0  0  0  0  0  0  0  0  0  0  0
    7.7841  -13.7559   17.4211 C   0  0  0  0  0  0  0  0  0  0  0  0
    7.8124  -14.2697   16.2855 O   0  0  0  0  0  0  0  0  0  0  0  0
    7.6348  -14.5615   18.6514 C   0  0  0  0  0  0  0  0  0  0  0  0
    8.8985  -14.5621   19.4715 C   0  0  2  0  0  0  0  0  0  0  0  0
   10.0984  -14.8205   18.7279 N   0  0  0  0  0  0  0  0  0  0  0  0
    8.8399  -15.4360   20.6536 C   0  0  0  0  0  0  0  0  0  0  0  0
    7.7639  -15.4945   21.3043 O   0  0  0  0  0  0  0  0  0  0  0  0
    9.9421  -16.2166   21.0906 N   0  0  0  0  0  0  0  0  0  0  0  0
    9.8571  -17.1217   22.2708 C   0  0  1  0  0  0  0  0  0  0  0  0
   10.8659  -18.2195   22.0809 C   0  0  0  0  0  0  0  0  0  0  0  0
   11.1050  -19.1301   23.2174 C   0  0  0  0  0  0  0  0  0  0  0  0
   12.1310  -20.1766   22.9756 C   0  0  0  0  0  0  0  0  0  0  0  0
   12.0458  -21.0351   22.0732 O   0  0  0  0  0  0  0  0  0  0  0  0
   10.0726  -16.2607   23.4373 C   0  0  0  0  0  0  0  0  0  0  0  0
   10.9396  -15.3212   23.3501 O   0  0  0  0  0  0  0  0  0  0  0  0
   13.2688  -20.2332   23.7820 O   0  0  0  0  0  0  0  0  0  0  0  0
    6.4315  -10.7781   27.0315 C   0  0  0  0  0  0  0  0  0  0  0  0
    6.6785  -12.1869   25.9825 S   0  0  0  0  0  0  0  0  0  0  0  0
    8.0141  -13.2868   26.4032 C   0  0  0  0  0  0  0  0  0  0  0  0
    8.2409  -14.3691   25.4030 C   0  0  0  0  0  0  0  0  0  0  0  0
    9.3591  -15.3069   25.6576 C   0  0  2  0  0  0  0  0  0  0  0  0
    9.4074  -16.3752   24.6500 N   0  0  0  0  0  0  0  0  0  0  0  0
    9.1045  -16.0405   26.9432 C   0  0  0  0  0  0  0  0  0  0  0  0
    8.9261  -17.4010   27.0176 O   0  0  0  0  0  0  0  0  0  0  0  0
    9.0529  -15.3760   28.0018 O   0  0  0  0  0  0  0  0  0  0  0  0
  2  1  1  0
  3  2  2  0
  4  2  1  0
  4  5  1  0
  5  7  1  0
  5  6  1  6
  7  8  2  0
  9  7  1  0
  9 10  1  0
 10 11  1  6
 11 12  1  0
 13 17  1  0
 13 12  1  0
 14 13  2  0
 15 10  1  0
 15 16  2  0
 18 19  1  0
 19 20  1  0
 20 21  1  0
 22 21  1  6
 22 23  1  0
 22 24  1  0
 23 15  1  0
 24 25  1  0
 26 24  2  0
M  END
$$$$
