NEM.pdb
     RDKit          3D

 26 25  0  0  1  0  0  0  0  0999 V2000
    7.7993  -11.8243   18.1191 N   0  0  0  0  0  0  0  0  0  0  0  0
    8.8237  -12.5917   18.7449 C   0  0  0  0  0  0  0  0  0  0  0  0
    9.9910  -12.4963   18.3177 O   0  0  0  0  0  0  0  0  0  0  0  0
    8.4644  -13.4702   19.8780 C   0  0  0  0  0  0  0  0  0  0  0  0
    8.5958  -14.9264   19.5152 C   0  0  2  0  0  0  0  0  0  0  0  0
    7.7150  -15.3686   18.4720 N   0  0  0  0  0  0  0  0  0  0  0  0
    8.5090  -15.8367   20.6678 C   0  0  0  0  0  0  0  0  0  0  0  0
    7.3790  -16.0522   21.1790 O   0  0  0  0  0  0  0  0  0  0  0  0
    9.6426  -16.4831   21.2265 N   0  0  0  0  0  0  0  0  0  0  0  0
    9.5373  -17.4091   22.3888 C   0  0  1  0  0  0  0  0  0  0  0  0
   10.6888  -18.3722   22.3143 C   0  0  0  0  0  0  0  0  0  0  0  0
   10.8477  -19.3323   23.4235 C   0  0  0  0  0  0  0  0  0  0  0  0
   11.9994  -20.2604   23.2876 C   0  0  0  0  0  0  0  0  0  0  0  0
   12.8132  -20.2210   22.3416 O   0  0  0  0  0  0  0  0  0  0  0  0
    9.5119  -16.5453   23.5729 C   0  0  0  0  0  0  0  0  0  0  0  0
   10.2654  -15.5091   23.5882 O   0  0  0  0  0  0  0  0  0  0  0  0
   12.2167  -21.2439   24.2539 O   0  0  0  0  0  0  0  0  0  0  0  0
    6.1967  -11.1340   25.8891 C   0  0  0  0  0  0  0  0  0  0  0  0
    6.6013  -12.7147   26.5847 S   0  0  0  0  0  0  0  0  0  0  0  0
    7.0026  -14.0231   25.4456 C   0  0  0  0  0  0  0  0  0  0  0  0
    7.3560  -15.3113   26.1081 C   0  0  0  0  0  0  0  0  0  0  0  0
    8.7119  -15.8540   25.8599 C   0  0  2  0  0  0  0  0  0  0  0  0
    8.7285  -16.7548   24.6992 N   0  0  0  0  0  0  0  0  0  0  0  0
    9.1051  -16.7417   27.0058 C   0  0  0  0  0  0  0  0  0  0  0  0
    9.7397  -16.2850   28.1359 O   0  0  0  0  0  0  0  0  0  0  0  0
    8.8397  -17.9615   26.9256 O   0  0  0  0  0  0  0  0  0  0  0  0
  2  1  1  0
  3  2  2  0
  4  2  1  0
  4  5  1  0
  5  7  1  0
  5  6  1  6
  7  8  2  0
  9  7  1  0
  9 10  1  0
 10 11  1  1
 11 12  1  0
 13 17  1  0
 13 12  1  0
 14 13  2  0
 15 10  1  0
 15 16  2  0
 18 19  1  0
 19 20  1  0
 20 21  1  0
 22 21  1  1
 22 23  1  0
 22 24  1  0
 23 15  1  0
 24 25  1  0
 26 24  2  0
M  END
$$$$
