NEM.pdb
     RDKit          3D

 26 25  0  0  1  0  0  0  0  0999 V2000
    8.6530  -12.7226   17.5798 N   0  0  0  0  0  0  0  0  0  0  0  0
    7.7840  -13.7603   17.1347 C   0  0  0  0  0  0  0  0  0  0  0  0
    7.5851  -13.8930   15.9111 O   0  0  0  0  0  0  0  0  0  0  0  0
    7.1531  -14.6414   18.1398 C   0  0  0  0  0  0  0  0  0  0  0  0
    7.5110  -14.2279   19.5436 C   0  0  2  0  0  0  0  0  0  0  0  0
    8.3983  -13.1034   19.6320 N   0  0  0  0  0  0  0  0  0  0  0  0
    8.0100  -15.3309   20.3796 C   0  0  0  0  0  0  0  0  0  0  0  0
    7.3249  -16.3843   20.4553 O   0  0  0  0  0  0  0  0  0  0  0  0
    9.2298  -15.2596   21.1021 N   0  0  0  0  0  0  0  0  0  0  0  0
    9.6781  -16.3485   22.0147 C   0  0  1  0  0  0  0  0  0  0  0  0
   11.0203  -16.8257   21.5353 C   0  0  0  0  0  0  0  0  0  0  0  0
   11.6661  -17.9165   22.2909 C   0  0  0  0  0  0  0  0  0  0  0  0
   13.0311  -18.2753   21.8283 C   0  0  0  0  0  0  0  0  0  0  0  0
   13.4546  -19.4479   21.7628 O   0  0  0  0  0  0  0  0  0  0  0  0
    9.6590  -15.7623   23.3581 C   0  0  0  0  0  0  0  0  0  0  0  0
   10.2315  -14.6302   23.5377 O   0  0  0  0  0  0  0  0  0  0  0  0
   13.9176  -17.2714   21.4353 O   0  0  0  0  0  0  0  0  0  0  0  0
    8.0528  -11.6479   25.8967 C   0  0  0  0  0  0  0  0  0  0  0  0
    6.8962  -12.5201   26.9204 S   0  0  0  0  0  0  0  0  0  0  0  0
    7.0329  -14.2948   26.9677 C   0  0  0  0  0  0  0  0  0  0  0  0
    7.5171  -14.8959   25.6920 C   0  0  0  0  0  0  0  0  0  0  0  0
    8.8133  -15.6123   25.7268 C   0  0  2  0  0  0  0  0  0  0  0  0
    9.0637  -16.3360   24.4728 N   0  0  0  0  0  0  0  0  0  0  0  0
    8.7478  -16.7006   26.7596 C   0  0  0  0  0  0  0  0  0  0  0  0
    8.8182  -18.0392   26.4566 O   0  0  0  0  0  0  0  0  0  0  0  0
    8.6229  -16.3692   27.9594 O   0  0  0  0  0  0  0  0  0  0  0  0
  2  1  1  0
  3  2  2  0
  4  2  1  0
  4  5  1  0
  5  7  1  0
  5  6  1  6
  7  8  2  0
  9  7  1  0
  9 10  1  0
 10 11  1  6
 11 12  1  0
 13 17  1  0
 13 12  1  0
 14 13  2  0
 15 10  1  0
 15 16  2  0
 18 19  1  0
 19 20  1  0
 20 21  1  0
 22 21  1  6
 22 23  1  0
 22 24  1  0
 23 15  1  0
 24 25  1  0
 26 24  2  0
M  END
$$$$
