NEM.pdb
     RDKit          3D

 26 25  0  0  1  0  0  0  0  0999 V2000
    6.9799  -22.5182   22.5310 N   0  0  0  0  0  0  0  0  0  0  0  0
    5.8137  -21.7386   22.7800 C   0  0  0  0  0  0  0  0  0  0  0  0
    4.8655  -21.8023   21.9730 O   0  0  0  0  0  0  0  0  0  0  0  0
    5.7709  -20.8858   23.9866 C   0  0  0  0  0  0  0  0  0  0  0  0
    5.9688  -19.4316   23.6461 C   0  0  2  0  0  0  0  0  0  0  0  0
    5.3388  -19.0075   22.4284 N   0  0  0  0  0  0  0  0  0  0  0  0
    7.3762  -19.0034   23.6612 C   0  0  0  0  0  0  0  0  0  0  0  0
    8.1229  -19.4274   24.5818 O   0  0  0  0  0  0  0  0  0  0  0  0
    7.9285  -18.1356   22.6830 N   0  0  0  0  0  0  0  0  0  0  0  0
    9.3159  -17.6027   22.7854 C   0  0  1  0  0  0  0  0  0  0  0  0
    9.7767  -17.2526   21.3983 C   0  0  0  0  0  0  0  0  0  0  0  0
   11.0593  -16.5348   21.2666 C   0  0  0  0  0  0  0  0  0  0  0  0
   12.2460  -17.4054   21.0669 C   0  0  0  0  0  0  0  0  0  0  0  0
   12.9546  -17.8358   22.0003 O   0  0  0  0  0  0  0  0  0  0  0  0
    9.2331  -16.4810   23.7254 C   0  0  0  0  0  0  0  0  0  0  0  0
    8.6473  -15.4073   23.3436 O   0  0  0  0  0  0  0  0  0  0  0  0
   12.6194  -17.7855   19.7768 O   0  0  0  0  0  0  0  0  0  0  0  0
    7.1302  -10.8806   26.0031 C   0  0  0  0  0  0  0  0  0  0  0  0
    6.6580  -12.5529   26.3592 S   0  0  0  0  0  0  0  0  0  0  0  0
    7.9497  -13.6706   26.8617 C   0  0  0  0  0  0  0  0  0  0  0  0
    8.2957  -14.6928   25.8328 C   0  0  0  0  0  0  0  0  0  0  0  0
    9.6227  -15.3428   25.9392 C   0  0  2  0  0  0  0  0  0  0  0  0
    9.7422  -16.4800   25.0165 N   0  0  0  0  0  0  0  0  0  0  0  0
    9.7573  -15.9698   27.2973 C   0  0  0  0  0  0  0  0  0  0  0  0
    9.9735  -15.2494   28.4473 O   0  0  0  0  0  0  0  0  0  0  0  0
    9.6670  -17.2145   27.3844 O   0  0  0  0  0  0  0  0  0  0  0  0
  2  1  1  0
  3  2  2  0
  4  2  1  0
  4  5  1  0
  5  7  1  0
  5  6  1  6
  7  8  2  0
  9  7  1  0
  9 10  1  0
 10 11  1  6
 11 12  1  0
 13 17  1  0
 13 12  1  0
 14 13  2  0
 15 10  1  0
 15 16  2  0
 18 19  1  0
 19 20  1  0
 20 21  1  0
 22 21  1  1
 22 23  1  0
 22 24  1  0
 23 15  1  0
 24 25  1  0
 26 24  2  0
M  END
$$$$
