PYW.pdb
     RDKit          3D

 34 37  0  0  1  0  0  0  0  0999 V2000
   28.9955  -20.7608  -15.2397 N   0  0  0  0  0  0  0  0  0  0  0  0
   28.8781  -20.5558  -16.6631 C   0  0  0  0  0  0  0  0  0  0  0  0
   28.1229  -19.2717  -16.8722 C   0  0  0  0  0  0  0  0  0  0  0  0
   28.6122  -18.4603  -15.6674 C   0  0  0  0  0  0  0  0  0  0  0  0
   28.8177  -19.5002  -14.5798 C   0  0  1  0  0  0  0  0  0  0  0  0
   27.6104  -19.5432  -13.7151 C   0  0  0  0  0  0  0  0  0  0  0  0
   27.2272  -18.4947  -13.1367 O   0  0  0  0  0  0  0  0  0  0  0  0
   19.3383  -19.6553  -12.4894 O   0  0  0  0  0  0  0  0  0  0  0  0
   20.6423  -20.1512  -12.6901 C   0  0  0  0  0  0  0  0  0  0  0  0
   21.7462  -19.4031  -12.3763 C   0  0  0  0  0  0  0  0  0  0  0  0
   23.0371  -19.8994  -12.5767 C   0  0  0  0  0  0  0  0  0  0  0  0
   23.2422  -21.1566  -13.0965 C   0  0  0  0  0  0  0  0  0  0  0  0
   24.5896  -21.6601  -13.2998 C   0  0  0  0  0  0  0  0  0  0  0  0
   25.6703  -20.7978  -12.6961 C   0  0  2  0  0  0  0  0  0  0  0  0
   26.8486  -20.7152  -13.4970 N   0  0  0  0  0  0  0  0  0  0  0  0
   25.9657  -21.2018  -11.3202 C   0  0  0  0  0  0  0  0  0  0  0  0
   26.9675  -21.9718  -11.1199 O   0  0  0  0  0  0  0  0  0  0  0  0
   22.1225  -21.8884  -13.4039 C   0  0  0  0  0  0  0  0  0  0  0  0
   20.8415  -21.4164  -13.2131 C   0  0  0  0  0  0  0  0  0  0  0  0
   25.1982  -20.7809  -10.2100 N   0  0  0  0  0  0  0  0  0  0  0  0
   25.5869  -21.1552   -8.8384 C   0  0  1  0  0  0  0  0  0  0  0  0
   26.9353  -20.5909   -8.6247 C   0  0  0  0  0  0  0  0  0  0  0  0
   27.4869  -20.8145   -7.2781 C   0  0  0  0  0  0  0  0  0  0  0  0
   27.5620  -22.0496   -6.6106 C   0  0  0  0  0  0  0  0  0  0  0  0
   28.0822  -21.8792   -5.3883 N   0  0  0  0  0  0  0  0  0  0  0  0
   28.3627  -20.5697   -5.2065 C   0  0  0  0  0  0  0  0  0  0  0  0
   28.9198  -19.8510   -4.1579 C   0  0  0  0  0  0  0  0  0  0  0  0
   29.1145  -18.4888   -4.2628 C   0  0  0  0  0  0  0  0  0  0  0  0
   28.7600  -17.8249   -5.4054 C   0  0  0  0  0  0  0  0  0  0  0  0
   28.2069  -18.5346   -6.4456 C   0  0  0  0  0  0  0  0  0  0  0  0
   28.0048  -19.9082   -6.3518 C   0  0  0  0  0  0  0  0  0  0  0  0
   24.6066  -20.7024   -7.8596 C   0  0  0  0  0  0  0  0  0  0  0  0
   24.4280  -21.4840   -6.7090 O   0  0  0  0  0  0  0  0  0  0  0  0
   23.9169  -19.6642   -7.9810 O   0  0  0  0  0  0  0  0  0  0  0  0
  1  2  1  0
  3  2  1  0
  4  5  1  0
  4  3  1  0
  5  6  1  1
  5  1  1  0
  6  7  2  0
  8  9  1  0
  9 19  2  0
  9 10  1  0
 10 11  2  0
 11 12  1  0
 12 13  1  0
 14 13  1  6
 15 14  1  0
 15  6  1  0
 16 14  1  0
 16 17  2  0
 18 12  2  0
 19 18  1  0
 20 16  1  0
 21 20  1  0
 21 32  1  0
 21 22  1  1
 23 22  1  0
 24 23  2  0
 25 26  1  0
 25 24  1  0
 26 31  2  0
 27 26  1  0
 27 28  2  0
 28 29  1  0
 29 30  2  0
 31 23  1  0
 31 30  1  0
 32 33  1  0
 34 32  2  0
M  END
$$$$
