PYW.pdb
     RDKit          3D

 34 37  0  0  1  0  0  0  0  0999 V2000
   27.9940  -19.9591  -15.1815 N   0  0  0  0  0  0  0  0  0  0  0  0
   29.0283  -20.2070  -16.1563 C   0  0  0  0  0  0  0  0  0  0  0  0
   28.4927  -21.2170  -17.1341 C   0  0  0  0  0  0  0  0  0  0  0  0
   27.0113  -20.8243  -17.1583 C   0  0  0  0  0  0  0  0  0  0  0  0
   26.7327  -20.3439  -15.7447 C   0  0  1  0  0  0  0  0  0  0  0  0
   26.1432  -21.4594  -14.9603 C   0  0  0  0  0  0  0  0  0  0  0  0
   25.1050  -22.0298  -15.3819 O   0  0  0  0  0  0  0  0  0  0  0  0
   25.5333  -19.7900   -6.2971 O   0  0  0  0  0  0  0  0  0  0  0  0
   25.9294  -20.0134   -7.6312 C   0  0  0  0  0  0  0  0  0  0  0  0
   25.7279  -21.2228   -8.2423 C   0  0  0  0  0  0  0  0  0  0  0  0
   26.1221  -21.4392   -9.5654 C   0  0  0  0  0  0  0  0  0  0  0  0
   26.7263  -20.4442  -10.2985 C   0  0  0  0  0  0  0  0  0  0  0  0
   27.1312  -20.6827  -11.6732 C   0  0  0  0  0  0  0  0  0  0  0  0
   26.2094  -21.5983  -12.4399 C   0  0  2  0  0  0  0  0  0  0  0  0
   26.6883  -21.9301  -13.7426 N   0  0  0  0  0  0  0  0  0  0  0  0
   24.8436  -21.0719  -12.4719 C   0  0  0  0  0  0  0  0  0  0  0  0
   24.2757  -20.8010  -11.3581 O   0  0  0  0  0  0  0  0  0  0  0  0
   26.9185  -19.2410   -9.6668 C   0  0  0  0  0  0  0  0  0  0  0  0
   26.5364  -19.0084   -8.3629 C   0  0  0  0  0  0  0  0  0  0  0  0
   24.1292  -20.8504  -13.6716 N   0  0  0  0  0  0  0  0  0  0  0  0
   22.7860  -20.2440  -13.6491 C   0  0  1  0  0  0  0  0  0  0  0  0
   22.8138  -19.1465  -14.6375 C   0  0  0  0  0  0  0  0  0  0  0  0
   21.5121  -18.4998  -14.8720 C   0  0  0  0  0  0  0  0  0  0  0  0
   20.5846  -18.1269  -13.8833 C   0  0  0  0  0  0  0  0  0  0  0  0
   19.4923  -17.6025  -14.4538 N   0  0  0  0  0  0  0  0  0  0  0  0
   19.6498  -17.6072  -15.7961 C   0  0  0  0  0  0  0  0  0  0  0  0
   18.8574  -17.1745  -16.8502 C   0  0  0  0  0  0  0  0  0  0  0  0
   19.2963  -17.2872  -18.1538 C   0  0  0  0  0  0  0  0  0  0  0  0
   20.5227  -17.8288  -18.4267 C   0  0  0  0  0  0  0  0  0  0  0  0
   21.3096  -18.2592  -17.3841 C   0  0  0  0  0  0  0  0  0  0  0  0
   20.8780  -18.1518  -16.0655 C   0  0  0  0  0  0  0  0  0  0  0  0
   21.7461  -21.2318  -13.9080 C   0  0  0  0  0  0  0  0  0  0  0  0
   22.0054  -22.2092  -14.8797 O   0  0  0  0  0  0  0  0  0  0  0  0
   20.6408  -21.2623  -13.3201 O   0  0  0  0  0  0  0  0  0  0  0  0
  1  2  1  0
  3  2  1  0
  4  5  1  0
  4  3  1  0
  5  6  1  1
  5  1  1  0
  6  7  2  0
  8  9  1  0
  9 19  2  0
  9 10  1  0
 10 11  2  0
 11 12  1  0
 12 13  1  0
 14 13  1  6
 15 14  1  0
 15  6  1  0
 16 14  1  0
 16 17  2  0
 18 12  2  0
 19 18  1  0
 20 16  1  0
 21 20  1  0
 21 32  1  0
 21 22  1  6
 23 22  1  0
 24 23  2  0
 25 26  1  0
 25 24  1  0
 26 31  2  0
 27 26  1  0
 27 28  2  0
 28 29  1  0
 29 30  2  0
 31 23  1  0
 31 30  1  0
 32 33  1  0
 34 32  2  0
M  END
$$$$
