PYW.pdb
     RDKit          3D

 34 37  0  0  1  0  0  0  0  0999 V2000
   26.9801  -22.3645  -16.7435 N   0  0  0  0  0  0  0  0  0  0  0  0
   26.5427  -21.7772  -17.9867 C   0  0  0  0  0  0  0  0  0  0  0  0
   27.2375  -20.4503  -18.1268 C   0  0  0  0  0  0  0  0  0  0  0  0
   28.5790  -20.7651  -17.4556 C   0  0  0  0  0  0  0  0  0  0  0  0
   28.2223  -21.7576  -16.3629 C   0  0  1  0  0  0  0  0  0  0  0  0
   28.0610  -21.0284  -15.0785 C   0  0  0  0  0  0  0  0  0  0  0  0
   29.0364  -20.3943  -14.6017 O   0  0  0  0  0  0  0  0  0  0  0  0
   20.3962  -21.0957  -14.6035 O   0  0  0  0  0  0  0  0  0  0  0  0
   21.6826  -20.6139  -14.2879 C   0  0  0  0  0  0  0  0  0  0  0  0
   22.0546  -20.3686  -12.9925 C   0  0  0  0  0  0  0  0  0  0  0  0
   23.3315  -19.8913  -12.6847 C   0  0  0  0  0  0  0  0  0  0  0  0
   24.2578  -19.6516  -13.6732 C   0  0  0  0  0  0  0  0  0  0  0  0
   25.5817  -19.1554  -13.3392 C   0  0  0  0  0  0  0  0  0  0  0  0
   26.6208  -20.2347  -13.1623 C   0  0  2  0  0  0  0  0  0  0  0  0
   26.8530  -21.0023  -14.3428 N   0  0  0  0  0  0  0  0  0  0  0  0
   26.3176  -21.0796  -12.0057 C   0  0  0  0  0  0  0  0  0  0  0  0
   25.8108  -22.2346  -12.2192 O   0  0  0  0  0  0  0  0  0  0  0  0
   23.8639  -19.9040  -14.9635 C   0  0  0  0  0  0  0  0  0  0  0  0
   22.6095  -20.3751  -15.2869 C   0  0  0  0  0  0  0  0  0  0  0  0
   26.5592  -20.6784  -10.6718 N   0  0  0  0  0  0  0  0  0  0  0  0
   26.1816  -21.5469   -9.5424 C   0  0  1  0  0  0  0  0  0  0  0  0
   27.3452  -21.5677   -8.6327 C   0  0  0  0  0  0  0  0  0  0  0  0
   27.4257  -20.4198   -7.7142 C   0  0  0  0  0  0  0  0  0  0  0  0
   26.8310  -19.1611   -7.9108 C   0  0  0  0  0  0  0  0  0  0  0  0
   27.1430  -18.3433   -6.8971 N   0  0  0  0  0  0  0  0  0  0  0  0
   27.9285  -19.0070   -6.0202 C   0  0  0  0  0  0  0  0  0  0  0  0
   28.5134  -18.6578   -4.8109 C   0  0  0  0  0  0  0  0  0  0  0  0
   29.2659  -19.5723   -4.1024 C   0  0  0  0  0  0  0  0  0  0  0  0
   29.4470  -20.8403   -4.5833 C   0  0  0  0  0  0  0  0  0  0  0  0
   28.8694  -21.1887   -5.7818 C   0  0  0  0  0  0  0  0  0  0  0  0
   28.1090  -20.2755   -6.5060 C   0  0  0  0  0  0  0  0  0  0  0  0
   24.9531  -21.0931   -8.9028 C   0  0  0  0  0  0  0  0  0  0  0  0
   24.2879  -19.9993   -9.4754 O   0  0  0  0  0  0  0  0  0  0  0  0
   24.4566  -21.6161   -7.8789 O   0  0  0  0  0  0  0  0  0  0  0  0
  1  2  1  0
  3  2  1  0
  4  5  1  0
  4  3  1  0
  5  6  1  1
  5  1  1  0
  6  7  2  0
  8  9  1  0
  9 19  2  0
  9 10  1  0
 10 11  2  0
 11 12  1  0
 12 13  1  0
 14 13  1  6
 15 14  1  0
 15  6  1  0
 16 14  1  0
 16 17  2  0
 18 12  2  0
 19 18  1  0
 20 16  1  0
 21 20  1  0
 21 32  1  0
 21 22  1  1
 23 22  1  0
 24 23  2  0
 25 26  1  0
 25 24  1  0
 26 31  2  0
 27 26  1  0
 27 28  2  0
 28 29  1  0
 29 30  2  0
 31 23  1  0
 31 30  1  0
 32 33  1  0
 34 32  2  0
M  END
$$$$
