PYW.pdb
     RDKit          3D

 34 37  0  0  1  0  0  0  0  0999 V2000
   23.4712  -12.9160  -20.0979 N   0  0  0  0  0  0  0  0  0  0  0  0
   23.2715  -14.2502  -20.6094 C   0  0  0  0  0  0  0  0  0  0  0  0
   21.9141  -14.2856  -21.2569 C   0  0  0  0  0  0  0  0  0  0  0  0
   21.8302  -12.8579  -21.8084 C   0  0  0  0  0  0  0  0  0  0  0  0
   22.5890  -12.0233  -20.7915 C   0  0  1  0  0  0  0  0  0  0  0  0
   21.6211  -11.4207  -19.8389 C   0  0  0  0  0  0  0  0  0  0  0  0
   20.7092  -10.6731  -20.2751 O   0  0  0  0  0  0  0  0  0  0  0  0
   16.8498  -15.8754  -19.5592 O   0  0  0  0  0  0  0  0  0  0  0  0
   17.6531  -14.9693  -18.8377 C   0  0  0  0  0  0  0  0  0  0  0  0
   18.9255  -15.2966  -18.4497 C   0  0  0  0  0  0  0  0  0  0  0  0
   19.7182  -14.3946  -17.7349 C   0  0  0  0  0  0  0  0  0  0  0  0
   19.2464  -13.1473  -17.3967 C   0  0  0  0  0  0  0  0  0  0  0  0
   20.0811  -12.2193  -16.6533 C   0  0  0  0  0  0  0  0  0  0  0  0
   20.7139  -11.1421  -17.4989 C   0  0  2  0  0  0  0  0  0  0  0  0
   21.6623  -11.6401  -18.4419 N   0  0  0  0  0  0  0  0  0  0  0  0
   21.2714  -10.0733  -16.6680 C   0  0  0  0  0  0  0  0  0  0  0  0
   22.5280  -10.0887  -16.4292 O   0  0  0  0  0  0  0  0  0  0  0  0
   17.9694  -12.8406  -17.7953 C   0  0  0  0  0  0  0  0  0  0  0  0
   17.1726  -13.7165  -18.5010 C   0  0  0  0  0  0  0  0  0  0  0  0
   20.4876   -9.0312  -16.1218 N   0  0  0  0  0  0  0  0  0  0  0  0
   21.1209   -7.8896  -15.4378 C   0  0  1  0  0  0  0  0  0  0  0  0
   22.0616   -7.2976  -16.4109 C   0  0  0  0  0  0  0  0  0  0  0  0
   21.4235   -6.5113  -17.4797 C   0  0  0  0  0  0  0  0  0  0  0  0
   20.4584   -5.5046  -17.3011 C   0  0  0  0  0  0  0  0  0  0  0  0
   20.0667   -5.0289  -18.4902 N   0  0  0  0  0  0  0  0  0  0  0  0
   20.7354   -5.6796  -19.4679 C   0  0  0  0  0  0  0  0  0  0  0  0
   20.7358   -5.5786  -20.8522 C   0  0  0  0  0  0  0  0  0  0  0  0
   21.5619   -6.3775  -21.6164 C   0  0  0  0  0  0  0  0  0  0  0  0
   22.3949   -7.2834  -21.0188 C   0  0  0  0  0  0  0  0  0  0  0  0
   22.3959   -7.3861  -19.6473 C   0  0  0  0  0  0  0  0  0  0  0  0
   21.5671   -6.5869  -18.8657 C   0  0  0  0  0  0  0  0  0  0  0  0
   20.1297   -6.9442  -14.9399 C   0  0  0  0  0  0  0  0  0  0  0  0
   20.5760   -5.9213  -14.0907 O   0  0  0  0  0  0  0  0  0  0  0  0
   18.9102   -6.9878  -15.2216 O   0  0  0  0  0  0  0  0  0  0  0  0
  1  2  1  0
  3  2  1  0
  4  5  1  0
  4  3  1  0
  5  6  1  1
  5  1  1  0
  6  7  2  0
  8  9  1  0
  9 19  2  0
  9 10  1  0
 10 11  2  0
 11 12  1  0
 12 13  1  0
 14 13  1  1
 15 14  1  0
 15  6  1  0
 16 14  1  0
 16 17  2  0
 18 12  2  0
 19 18  1  0
 20 16  1  0
 21 20  1  0
 21 32  1  0
 21 22  1  6
 23 22  1  0
 24 23  2  0
 25 26  1  0
 25 24  1  0
 26 31  2  0
 27 26  1  0
 27 28  2  0
 28 29  1  0
 29 30  2  0
 31 23  1  0
 31 30  1  0
 32 33  1  0
 34 32  2  0
M  END
$$$$
