PYW.pdb
     RDKit          3D

 34 37  0  0  1  0  0  0  0  0999 V2000
   15.2456  -21.7470    0.6893 N   0  0  0  0  0  0  0  0  0  0  0  0
   14.4979  -22.9809    0.6844 C   0  0  0  0  0  0  0  0  0  0  0  0
   13.0649  -22.6403    0.9903 C   0  0  0  0  0  0  0  0  0  0  0  0
   12.9536  -21.2686    0.3155 C   0  0  0  0  0  0  0  0  0  0  0  0
   14.3339  -20.6588    0.4866 C   0  0  1  0  0  0  0  0  0  0  0  0
   14.3279  -19.7702    1.6772 C   0  0  0  0  0  0  0  0  0  0  0  0
   13.5641  -18.7717    1.6987 O   0  0  0  0  0  0  0  0  0  0  0  0
   16.2395  -25.2768    6.0438 O   0  0  0  0  0  0  0  0  0  0  0  0
   15.7628  -23.9699    5.8171 C   0  0  0  0  0  0  0  0  0  0  0  0
   16.1891  -22.9130    6.5775 C   0  0  0  0  0  0  0  0  0  0  0  0
   15.7138  -21.6191    6.3485 C   0  0  0  0  0  0  0  0  0  0  0  0
   14.8010  -21.3635    5.3514 C   0  0  0  0  0  0  0  0  0  0  0  0
   14.3151  -20.0134    5.1242 C   0  0  0  0  0  0  0  0  0  0  0  0
   15.0527  -19.2639    4.0425 C   0  0  2  0  0  0  0  0  0  0  0  0
   15.1452  -19.9816    2.8124 N   0  0  0  0  0  0  0  0  0  0  0  0
   16.3607  -18.8038    4.5123 C   0  0  0  0  0  0  0  0  0  0  0  0
   17.4059  -19.2921    3.9594 O   0  0  0  0  0  0  0  0  0  0  0  0
   14.3876  -22.4366    4.6022 C   0  0  0  0  0  0  0  0  0  0  0  0
   14.8450  -23.7197    4.8126 C   0  0  0  0  0  0  0  0  0  0  0  0
   16.5191  -17.8491    5.5430 N   0  0  0  0  0  0  0  0  0  0  0  0
   17.8597  -17.4895    6.0390 C   0  0  1  0  0  0  0  0  0  0  0  0
   18.5740  -16.8883    4.8943 C   0  0  0  0  0  0  0  0  0  0  0  0
   18.2064  -15.4918    4.6074 C   0  0  0  0  0  0  0  0  0  0  0  0
   17.1971  -15.0676    3.7253 C   0  0  0  0  0  0  0  0  0  0  0  0
   17.1634  -13.7296    3.6765 N   0  0  0  0  0  0  0  0  0  0  0  0
   18.1159  -13.2339    4.4971 C   0  0  0  0  0  0  0  0  0  0  0  0
   18.5028  -11.9456    4.8393 C   0  0  0  0  0  0  0  0  0  0  0  0
   19.5206  -11.7335    5.7470 C   0  0  0  0  0  0  0  0  0  0  0  0
   20.1649  -12.7934    6.3244 C   0  0  0  0  0  0  0  0  0  0  0  0
   19.7841  -14.0710    5.9864 C   0  0  0  0  0  0  0  0  0  0  0  0
   18.7600  -14.2980    5.0720 C   0  0  0  0  0  0  0  0  0  0  0  0
   17.7853  -16.6135    7.2014 C   0  0  0  0  0  0  0  0  0  0  0  0
   18.9747  -16.3558    7.8983 O   0  0  0  0  0  0  0  0  0  0  0  0
   16.7310  -16.0791    7.6151 O   0  0  0  0  0  0  0  0  0  0  0  0
  1  2  1  0
  3  2  1  0
  4  5  1  0
  4  3  1  0
  5  6  1  1
  5  1  1  0
  6  7  2  0
  8  9  1  0
  9 19  2  0
  9 10  1  0
 10 11  2  0
 11 12  1  0
 12 13  1  0
 14 13  1  1
 15 14  1  0
 15  6  1  0
 16 14  1  0
 16 17  2  0
 18 12  2  0
 19 18  1  0
 20 16  1  0
 21 20  1  0
 21 32  1  0
 21 22  1  6
 23 22  1  0
 24 23  2  0
 25 26  1  0
 25 24  1  0
 26 31  2  0
 27 26  1  0
 27 28  2  0
 28 29  1  0
 29 30  2  0
 31 23  1  0
 31 30  1  0
 32 33  1  0
 34 32  2  0
M  END
$$$$
