PYW.pdb
     RDKit          3D

 34 37  0  0  1  0  0  0  0  0999 V2000
   25.1655  -22.4844  -15.2615 N   0  0  0  0  0  0  0  0  0  0  0  0
   24.6435  -22.0980  -16.5499 C   0  0  0  0  0  0  0  0  0  0  0  0
   25.8014  -21.6093  -17.3766 C   0  0  0  0  0  0  0  0  0  0  0  0
   26.9199  -22.5188  -16.8561 C   0  0  0  0  0  0  0  0  0  0  0  0
   26.5713  -22.7343  -15.3937 C   0  0  1  0  0  0  0  0  0  0  0  0
   27.3405  -21.7711  -14.5643 C   0  0  0  0  0  0  0  0  0  0  0  0
   28.5912  -21.8789  -14.4928 O   0  0  0  0  0  0  0  0  0  0  0  0
   27.2706  -17.9141  -19.0662 O   0  0  0  0  0  0  0  0  0  0  0  0
   27.3398  -18.0438  -17.6644 C   0  0  0  0  0  0  0  0  0  0  0  0
   26.2173  -17.9588  -16.8837 C   0  0  0  0  0  0  0  0  0  0  0  0
   26.2911  -18.0884  -15.4943 C   0  0  0  0  0  0  0  0  0  0  0  0
   27.4945  -18.3056  -14.8639 C   0  0  0  0  0  0  0  0  0  0  0  0
   27.5570  -18.4384  -13.4186 C   0  0  0  0  0  0  0  0  0  0  0  0
   27.4183  -19.8557  -12.9207 C   0  0  2  0  0  0  0  0  0  0  0  0
   26.7411  -20.7179  -13.8344 N   0  0  0  0  0  0  0  0  0  0  0  0
   26.8240  -19.8933  -11.5833 C   0  0  0  0  0  0  0  0  0  0  0  0
   26.9979  -18.8833  -10.8177 O   0  0  0  0  0  0  0  0  0  0  0  0
   28.6060  -18.3871  -15.6650 C   0  0  0  0  0  0  0  0  0  0  0  0
   28.5533  -18.2622  -17.0368 C   0  0  0  0  0  0  0  0  0  0  0  0
   26.0706  -20.9891  -11.1034 N   0  0  0  0  0  0  0  0  0  0  0  0
   25.3334  -20.8985   -9.8303 C   0  0  1  0  0  0  0  0  0  0  0  0
   26.1176  -19.9941   -8.9647 C   0  0  0  0  0  0  0  0  0  0  0  0
   26.4300  -20.5386   -7.6329 C   0  0  0  0  0  0  0  0  0  0  0  0
   25.8330  -21.6650   -7.0400 C   0  0  0  0  0  0  0  0  0  0  0  0
   26.3266  -21.8508   -5.8089 N   0  0  0  0  0  0  0  0  0  0  0  0
   27.2387  -20.8880   -5.5490 C   0  0  0  0  0  0  0  0  0  0  0  0
   28.0533  -20.6162   -4.4587 C   0  0  0  0  0  0  0  0  0  0  0  0
   28.9286  -19.5495   -4.4820 C   0  0  0  0  0  0  0  0  0  0  0  0
   29.0062  -18.7418   -5.5836 C   0  0  0  0  0  0  0  0  0  0  0  0
   28.1993  -19.0083   -6.6650 C   0  0  0  0  0  0  0  0  0  0  0  0
   27.3122  -20.0803   -6.6535 C   0  0  0  0  0  0  0  0  0  0  0  0
   23.9592  -20.4585  -10.0353 C   0  0  0  0  0  0  0  0  0  0  0  0
   23.5428  -20.2193  -11.3529 O   0  0  0  0  0  0  0  0  0  0  0  0
   23.1307  -20.2815   -9.1129 O   0  0  0  0  0  0  0  0  0  0  0  0
  1  2  1  0
  3  2  1  0
  4  5  1  0
  4  3  1  0
  5  6  1  1
  5  1  1  0
  6  7  2  0
  8  9  1  0
  9 19  2  0
  9 10  1  0
 10 11  2  0
 11 12  1  0
 12 13  1  0
 14 13  1  6
 15 14  1  0
 15  6  1  0
 16 14  1  0
 16 17  2  0
 18 12  2  0
 19 18  1  0
 20 16  1  0
 21 20  1  0
 21 32  1  0
 21 22  1  1
 23 22  1  0
 24 23  2  0
 25 26  1  0
 25 24  1  0
 26 31  2  0
 27 26  1  0
 27 28  2  0
 28 29  1  0
 29 30  2  0
 31 23  1  0
 31 30  1  0
 32 33  1  0
 34 32  2  0
M  END
$$$$
