PYW.pdb
     RDKit          3D

 34 37  0  0  1  0  0  0  0  0999 V2000
   28.1890  -23.2908  -17.9999 N   0  0  0  0  0  0  0  0  0  0  0  0
   28.6572  -22.7977  -19.2724 C   0  0  0  0  0  0  0  0  0  0  0  0
   29.6885  -21.7388  -18.9931 C   0  0  0  0  0  0  0  0  0  0  0  0
   30.3225  -22.2966  -17.7140 C   0  0  0  0  0  0  0  0  0  0  0  0
   29.1725  -22.9868  -17.0016 C   0  0  1  0  0  0  0  0  0  0  0  0
   28.6023  -22.0604  -15.9896 C   0  0  0  0  0  0  0  0  0  0  0  0
   29.3011  -21.7188  -15.0019 O   0  0  0  0  0  0  0  0  0  0  0  0
   28.6548  -14.7303  -17.0994 O   0  0  0  0  0  0  0  0  0  0  0  0
   27.9670  -15.9202  -16.7867 C   0  0  0  0  0  0  0  0  0  0  0  0
   27.2786  -16.0583  -15.6104 C   0  0  0  0  0  0  0  0  0  0  0  0
   26.5979  -17.2400  -15.3052 C   0  0  0  0  0  0  0  0  0  0  0  0
   26.5970  -18.3047  -16.1765 C   0  0  0  0  0  0  0  0  0  0  0  0
   25.8853  -19.5275  -15.8466 C   0  0  0  0  0  0  0  0  0  0  0  0
   26.7341  -20.5737  -15.1677 C   0  0  2  0  0  0  0  0  0  0  0  0
   27.2943  -21.5274  -16.0695 N   0  0  0  0  0  0  0  0  0  0  0  0
   26.0099  -21.2136  -14.0679 C   0  0  0  0  0  0  0  0  0  0  0  0
   25.0195  -21.9698  -14.3575 O   0  0  0  0  0  0  0  0  0  0  0  0
   27.2930  -18.1448  -17.3486 C   0  0  0  0  0  0  0  0  0  0  0  0
   27.9700  -16.9871  -17.6675 C   0  0  0  0  0  0  0  0  0  0  0  0
   26.3548  -21.0346  -12.7086 N   0  0  0  0  0  0  0  0  0  0  0  0
   25.5815  -21.6937  -11.6408 C   0  0  1  0  0  0  0  0  0  0  0  0
   26.5523  -22.0350  -10.5810 C   0  0  0  0  0  0  0  0  0  0  0  0
   26.5829  -21.0917   -9.4509 C   0  0  0  0  0  0  0  0  0  0  0  0
   25.5187  -20.2776   -9.0252 C   0  0  0  0  0  0  0  0  0  0  0  0
   25.9084  -19.5148   -7.9957 N   0  0  0  0  0  0  0  0  0  0  0  0
   27.2011  -19.7862   -7.7097 C   0  0  0  0  0  0  0  0  0  0  0  0
   28.0844  -19.3129   -6.7494 C   0  0  0  0  0  0  0  0  0  0  0  0
   29.3732  -19.8011   -6.6763 C   0  0  0  0  0  0  0  0  0  0  0  0
   29.8002  -20.7617   -7.5521 C   0  0  0  0  0  0  0  0  0  0  0  0
   28.9271  -21.2317   -8.5052 C   0  0  0  0  0  0  0  0  0  0  0  0
   27.6255  -20.7470   -8.5897 C   0  0  0  0  0  0  0  0  0  0  0  0
   24.4851  -20.8541  -11.1748 C   0  0  0  0  0  0  0  0  0  0  0  0
   23.4381  -21.4779  -10.4812 O   0  0  0  0  0  0  0  0  0  0  0  0
   24.4196  -19.6164  -11.3542 O   0  0  0  0  0  0  0  0  0  0  0  0
  1  2  1  0
  3  2  1  0
  4  5  1  0
  4  3  1  0
  5  6  1  1
  5  1  1  0
  6  7  2  0
  8  9  1  0
  9 19  2  0
  9 10  1  0
 10 11  2  0
 11 12  1  0
 12 13  1  0
 14 13  1  6
 15 14  1  0
 15  6  1  0
 16 14  1  0
 16 17  2  0
 18 12  2  0
 19 18  1  0
 20 16  1  0
 21 20  1  0
 21 32  1  0
 21 22  1  1
 23 22  1  0
 24 23  2  0
 25 26  1  0
 25 24  1  0
 26 31  2  0
 27 26  1  0
 27 28  2  0
 28 29  1  0
 29 30  2  0
 31 23  1  0
 31 30  1  0
 32 33  1  0
 34 32  2  0
M  END
$$$$
