PYW.pdb
     RDKit          3D

 34 37  0  0  1  0  0  0  0  0999 V2000
   27.6780  -19.4799  -17.0409 N   0  0  0  0  0  0  0  0  0  0  0  0
   28.8104  -18.6554  -17.3867 C   0  0  0  0  0  0  0  0  0  0  0  0
   29.4927  -18.2667  -16.1036 C   0  0  0  0  0  0  0  0  0  0  0  0
   29.2472  -19.5254  -15.2640 C   0  0  0  0  0  0  0  0  0  0  0  0
   27.8902  -20.0225  -15.7307 C   0  0  1  0  0  0  0  0  0  0  0  0
   26.8449  -19.5273  -14.7983 C   0  0  0  0  0  0  0  0  0  0  0  0
   27.0489  -18.4721  -14.1459 O   0  0  0  0  0  0  0  0  0  0  0  0
   23.7227  -15.4374  -18.5210 O   0  0  0  0  0  0  0  0  0  0  0  0
   23.6099  -16.4289  -17.5255 C   0  0  0  0  0  0  0  0  0  0  0  0
   23.3663  -16.1022  -16.2176 C   0  0  0  0  0  0  0  0  0  0  0  0
   23.2548  -17.0890  -15.2344 C   0  0  0  0  0  0  0  0  0  0  0  0
   23.3865  -18.4222  -15.5475 C   0  0  0  0  0  0  0  0  0  0  0  0
   23.2684  -19.4377  -14.5154 C   0  0  0  0  0  0  0  0  0  0  0  0
   24.5483  -19.7083  -13.7642 C   0  0  2  0  0  0  0  0  0  0  0  0
   25.6079  -20.1828  -14.5942 N   0  0  0  0  0  0  0  0  0  0  0  0
   24.3144  -20.5836  -12.6141 C   0  0  0  0  0  0  0  0  0  0  0  0
   24.0293  -21.8104  -12.8383 O   0  0  0  0  0  0  0  0  0  0  0  0
   23.6303  -18.7267  -16.8634 C   0  0  0  0  0  0  0  0  0  0  0  0
   23.7432  -17.7678  -17.8473 C   0  0  0  0  0  0  0  0  0  0  0  0
   24.3897  -20.1362  -11.2751 N   0  0  0  0  0  0  0  0  0  0  0  0
   24.1230  -21.0571  -10.1556 C   0  0  1  0  0  0  0  0  0  0  0  0
   24.7931  -20.4743   -8.9752 C   0  0  0  0  0  0  0  0  0  0  0  0
   26.2588  -20.6138   -8.9714 C   0  0  0  0  0  0  0  0  0  0  0  0
   27.0265  -21.2945   -9.9326 C   0  0  0  0  0  0  0  0  0  0  0  0
   28.3220  -21.2568   -9.5953 N   0  0  0  0  0  0  0  0  0  0  0  0
   28.4570  -20.5722   -8.4378 C   0  0  0  0  0  0  0  0  0  0  0  0
   29.5519  -20.2202   -7.6609 C   0  0  0  0  0  0  0  0  0  0  0  0
   29.3887  -19.4774   -6.5093 C   0  0  0  0  0  0  0  0  0  0  0  0
   28.1414  -19.0761   -6.1154 C   0  0  0  0  0  0  0  0  0  0  0  0
   27.0546  -19.4244   -6.8830 C   0  0  0  0  0  0  0  0  0  0  0  0
   27.2060  -20.1736   -8.0458 C   0  0  0  0  0  0  0  0  0  0  0  0
   22.6940  -21.2712   -9.9648 C   0  0  0  0  0  0  0  0  0  0  0  0
   21.8188  -20.6728  -10.8827 O   0  0  0  0  0  0  0  0  0  0  0  0
   22.2011  -21.9526   -9.0369 O   0  0  0  0  0  0  0  0  0  0  0  0
  1  2  1  0
  3  2  1  0
  4  5  1  0
  4  3  1  0
  5  6  1  1
  5  1  1  0
  6  7  2  0
  8  9  1  0
  9 19  2  0
  9 10  1  0
 10 11  2  0
 11 12  1  0
 12 13  1  0
 14 13  1  6
 15 14  1  0
 15  6  1  0
 16 14  1  0
 16 17  2  0
 18 12  2  0
 19 18  1  0
 20 16  1  0
 21 20  1  0
 21 32  1  0
 21 22  1  1
 23 22  1  0
 24 23  2  0
 25 26  1  0
 25 24  1  0
 26 31  2  0
 27 26  1  0
 27 28  2  0
 28 29  1  0
 29 30  2  0
 31 23  1  0
 31 30  1  0
 32 33  1  0
 34 32  2  0
M  END
$$$$
