PYW.pdb
     RDKit          3D

 34 37  0  0  1  0  0  0  0  0999 V2000
   28.5567  -20.2266  -15.7270 N   0  0  0  0  0  0  0  0  0  0  0  0
   28.2904  -19.5930  -16.9955 C   0  0  0  0  0  0  0  0  0  0  0  0
   27.8422  -18.1855  -16.7104 C   0  0  0  0  0  0  0  0  0  0  0  0
   28.6776  -17.8733  -15.4638 C   0  0  0  0  0  0  0  0  0  0  0  0
   28.7812  -19.2066  -14.7443 C   0  0  1  0  0  0  0  0  0  0  0  0
   27.7343  -19.2732  -13.6922 C   0  0  0  0  0  0  0  0  0  0  0  0
   27.7082  -18.3972  -12.7906 O   0  0  0  0  0  0  0  0  0  0  0  0
   19.7752  -19.9579  -10.1075 O   0  0  0  0  0  0  0  0  0  0  0  0
   20.9186  -20.1841  -10.9001 C   0  0  0  0  0  0  0  0  0  0  0  0
   21.6538  -21.3338  -10.7801 C   0  0  0  0  0  0  0  0  0  0  0  0
   22.7865  -21.5536  -11.5685 C   0  0  0  0  0  0  0  0  0  0  0  0
   23.2011  -20.6218  -12.4919 C   0  0  0  0  0  0  0  0  0  0  0  0
   24.3806  -20.8630  -13.3050 C   0  0  0  0  0  0  0  0  0  0  0  0
   25.6610  -20.3298  -12.7117 C   0  0  2  0  0  0  0  0  0  0  0  0
   26.7437  -20.2819  -13.6402 N   0  0  0  0  0  0  0  0  0  0  0  0
   26.0172  -21.0462  -11.4856 C   0  0  0  0  0  0  0  0  0  0  0  0
   26.7382  -22.0978  -11.5896 O   0  0  0  0  0  0  0  0  0  0  0  0
   22.4502  -19.4776  -12.5953 C   0  0  0  0  0  0  0  0  0  0  0  0
   21.3300  -19.2430  -11.8270 C   0  0  0  0  0  0  0  0  0  0  0  0
   25.6027  -20.6297  -10.1997 N   0  0  0  0  0  0  0  0  0  0  0  0
   26.0510  -21.3476   -8.9930 C   0  0  1  0  0  0  0  0  0  0  0  0
   27.4739  -20.9955   -8.8099 C   0  0  0  0  0  0  0  0  0  0  0  0
   27.7236  -19.9638   -7.7896 C   0  0  0  0  0  0  0  0  0  0  0  0
   27.3476  -18.6116   -7.8727 C   0  0  0  0  0  0  0  0  0  0  0  0
   27.7696  -17.9509   -6.7868 N   0  0  0  0  0  0  0  0  0  0  0  0
   28.4181  -18.8113   -5.9709 C   0  0  0  0  0  0  0  0  0  0  0  0
   29.0284  -18.6734   -4.7320 C   0  0  0  0  0  0  0  0  0  0  0  0
   29.6066  -19.7596   -4.1069 C   0  0  0  0  0  0  0  0  0  0  0  0
   29.5865  -20.9918   -4.7013 C   0  0  0  0  0  0  0  0  0  0  0  0
   28.9832  -21.1309   -5.9293 C   0  0  0  0  0  0  0  0  0  0  0  0
   28.3974  -20.0434   -6.5702 C   0  0  0  0  0  0  0  0  0  0  0  0
   25.2210  -21.0283   -7.8383 C   0  0  0  0  0  0  0  0  0  0  0  0
   25.3432  -21.8443   -6.7044 O   0  0  0  0  0  0  0  0  0  0  0  0
   24.4094  -20.0755   -7.7955 O   0  0  0  0  0  0  0  0  0  0  0  0
  1  2  1  0
  3  2  1  0
  4  5  1  0
  4  3  1  0
  5  6  1  1
  5  1  1  0
  6  7  2  0
  8  9  1  0
  9 19  2  0
  9 10  1  0
 10 11  2  0
 11 12  1  0
 12 13  1  0
 14 13  1  6
 15 14  1  0
 15  6  1  0
 16 14  1  0
 16 17  2  0
 18 12  2  0
 19 18  1  0
 20 16  1  0
 21 20  1  0
 21 32  1  0
 21 22  1  1
 23 22  1  0
 24 23  2  0
 25 26  1  0
 25 24  1  0
 26 31  2  0
 27 26  1  0
 27 28  2  0
 28 29  1  0
 29 30  2  0
 31 23  1  0
 31 30  1  0
 32 33  1  0
 34 32  2  0
M  END
$$$$
