PYW.pdb
     RDKit          3D

 34 37  0  0  1  0  0  0  0  0999 V2000
   27.0603  -20.4447  -16.5894 N   0  0  0  0  0  0  0  0  0  0  0  0
   27.6186  -19.5623  -17.5851 C   0  0  0  0  0  0  0  0  0  0  0  0
   28.6035  -18.6634  -16.8886 C   0  0  0  0  0  0  0  0  0  0  0  0
   29.1443  -19.6178  -15.8181 C   0  0  0  0  0  0  0  0  0  0  0  0
   27.9549  -20.4956  -15.4699 C   0  0  1  0  0  0  0  0  0  0  0  0
   27.2878  -19.9514  -14.2591 C   0  0  0  0  0  0  0  0  0  0  0  0
   27.5965  -18.8044  -13.8467 O   0  0  0  0  0  0  0  0  0  0  0  0
   22.7411  -17.1702  -17.2534 O   0  0  0  0  0  0  0  0  0  0  0  0
   23.0942  -17.8695  -16.0816 C   0  0  0  0  0  0  0  0  0  0  0  0
   23.1636  -19.2375  -16.0607 C   0  0  0  0  0  0  0  0  0  0  0  0
   23.5145  -19.9262  -14.8965 C   0  0  0  0  0  0  0  0  0  0  0  0
   23.8019  -19.2527  -13.7318 C   0  0  0  0  0  0  0  0  0  0  0  0
   24.1653  -19.9812  -12.5286 C   0  0  0  0  0  0  0  0  0  0  0  0
   25.6499  -20.1814  -12.3510 C   0  0  2  0  0  0  0  0  0  0  0  0
   26.3061  -20.6579  -13.5253 N   0  0  0  0  0  0  0  0  0  0  0  0
   25.9376  -21.0145  -11.1819 C   0  0  0  0  0  0  0  0  0  0  0  0
   25.7889  -22.2802  -11.2923 O   0  0  0  0  0  0  0  0  0  0  0  0
   23.7260  -17.8830  -13.7753 C   0  0  0  0  0  0  0  0  0  0  0  0
   23.3821  -17.1860  -14.9137 C   0  0  0  0  0  0  0  0  0  0  0  0
   26.3702  -20.4855   -9.9443 N   0  0  0  0  0  0  0  0  0  0  0  0
   26.4935  -21.3491   -8.7563 C   0  0  1  0  0  0  0  0  0  0  0  0
   27.8532  -21.1247   -8.2241 C   0  0  0  0  0  0  0  0  0  0  0  0
   27.9406  -20.0863   -7.1840 C   0  0  0  0  0  0  0  0  0  0  0  0
   27.3001  -18.8350   -7.2097 C   0  0  0  0  0  0  0  0  0  0  0  0
   27.6329  -18.1271   -6.1226 N   0  0  0  0  0  0  0  0  0  0  0  0
   28.4769  -18.8581   -5.3612 C   0  0  0  0  0  0  0  0  0  0  0  0
   29.1052  -18.6281   -4.1452 C   0  0  0  0  0  0  0  0  0  0  0  0
   29.9163  -19.5902   -3.5783 C   0  0  0  0  0  0  0  0  0  0  0  0
   30.1134  -20.7883   -4.2089 C   0  0  0  0  0  0  0  0  0  0  0  0
   29.4928  -21.0184   -5.4144 C   0  0  0  0  0  0  0  0  0  0  0  0
   28.6733  -20.0562   -5.9966 C   0  0  0  0  0  0  0  0  0  0  0  0
   25.4393  -21.0819   -7.7860 C   0  0  0  0  0  0  0  0  0  0  0  0
   25.2729  -21.9988   -6.7380 O   0  0  0  0  0  0  0  0  0  0  0  0
   24.6764  -20.0898   -7.8293 O   0  0  0  0  0  0  0  0  0  0  0  0
  1  2  1  0
  3  2  1  0
  4  5  1  0
  4  3  1  0
  5  6  1  1
  5  1  1  0
  6  7  2  0
  8  9  1  0
  9 19  2  0
  9 10  1  0
 10 11  2  0
 11 12  1  0
 12 13  1  0
 14 13  1  6
 15 14  1  0
 15  6  1  0
 16 14  1  0
 16 17  2  0
 18 12  2  0
 19 18  1  0
 20 16  1  0
 21 20  1  0
 21 32  1  0
 21 22  1  1
 23 22  1  0
 24 23  2  0
 25 26  1  0
 25 24  1  0
 26 31  2  0
 27 26  1  0
 27 28  2  0
 28 29  1  0
 29 30  2  0
 31 23  1  0
 31 30  1  0
 32 33  1  0
 34 32  2  0
M  END
$$$$
