PYW.pdb
     RDKit          3D

 34 37  0  0  1  0  0  0  0  0999 V2000
   27.3878  -19.3747  -14.1865 N   0  0  0  0  0  0  0  0  0  0  0  0
   28.6664  -18.7654  -13.9116 C   0  0  0  0  0  0  0  0  0  0  0  0
   29.4193  -19.6921  -12.9965 C   0  0  0  0  0  0  0  0  0  0  0  0
   28.9188  -21.0502  -13.5007 C   0  0  0  0  0  0  0  0  0  0  0  0
   27.4863  -20.7816  -13.9274 C   0  0  1  0  0  0  0  0  0  0  0  0
   26.5708  -21.1615  -12.8207 C   0  0  0  0  0  0  0  0  0  0  0  0
   26.5268  -22.3587  -12.4390 O   0  0  0  0  0  0  0  0  0  0  0  0
   28.9777  -20.2053   -6.6471 O   0  0  0  0  0  0  0  0  0  0  0  0
   27.8617  -20.0986   -7.5014 C   0  0  0  0  0  0  0  0  0  0  0  0
   27.5078  -18.9019   -8.0667 C   0  0  0  0  0  0  0  0  0  0  0  0
   26.4006  -18.8014   -8.9134 C   0  0  0  0  0  0  0  0  0  0  0  0
   25.6287  -19.9016   -9.2073 C   0  0  0  0  0  0  0  0  0  0  0  0
   24.4802  -19.7829  -10.0891 C   0  0  0  0  0  0  0  0  0  0  0  0
   24.5919  -20.5847  -11.3621 C   0  0  2  0  0  0  0  0  0  0  0  0
   25.7274  -20.2410  -12.1553 N   0  0  0  0  0  0  0  0  0  0  0  0
   23.3470  -20.5368  -12.1310 C   0  0  0  0  0  0  0  0  0  0  0  0
   23.1868  -19.5754  -12.9596 O   0  0  0  0  0  0  0  0  0  0  0  0
   26.0011  -21.0899   -8.6302 C   0  0  0  0  0  0  0  0  0  0  0  0
   27.0897  -21.2090   -7.7930 C   0  0  0  0  0  0  0  0  0  0  0  0
   22.3206  -21.5002  -11.9998 N   0  0  0  0  0  0  0  0  0  0  0  0
   21.1144  -21.4377  -12.8445 C   0  0  1  0  0  0  0  0  0  0  0  0
   21.5838  -21.5513  -14.2406 C   0  0  0  0  0  0  0  0  0  0  0  0
   22.6054  -22.5882  -14.4613 C   0  0  0  0  0  0  0  0  0  0  0  0
   22.5790  -23.8967  -13.9476 C   0  0  0  0  0  0  0  0  0  0  0  0
   23.6867  -24.5550  -14.3128 N   0  0  0  0  0  0  0  0  0  0  0  0
   24.4618  -23.7357  -15.0575 C   0  0  0  0  0  0  0  0  0  0  0  0
   25.6826  -23.8999  -15.6970 C   0  0  0  0  0  0  0  0  0  0  0  0
   26.2403  -22.8689  -16.4256 C   0  0  0  0  0  0  0  0  0  0  0  0
   25.5959  -21.6664  -16.5282 C   0  0  0  0  0  0  0  0  0  0  0  0
   24.3865  -21.5008  -15.8947 C   0  0  0  0  0  0  0  0  0  0  0  0
   23.8141  -22.5323  -15.1566 C   0  0  0  0  0  0  0  0  0  0  0  0
   20.1448  -22.4606  -12.4733 C   0  0  0  0  0  0  0  0  0  0  0  0
   18.9036  -22.4470  -13.1258 O   0  0  0  0  0  0  0  0  0  0  0  0
   20.3496  -23.3467  -11.6123 O   0  0  0  0  0  0  0  0  0  0  0  0
  1  2  1  0
  3  2  1  0
  4  5  1  0
  4  3  1  0
  5  6  1  1
  5  1  1  0
  6  7  2  0
  8  9  1  0
  9 19  2  0
  9 10  1  0
 10 11  2  0
 11 12  1  0
 12 13  1  0
 14 13  1  1
 15 14  1  0
 15  6  1  0
 16 14  1  0
 16 17  2  0
 18 12  2  0
 19 18  1  0
 20 16  1  0
 21 20  1  0
 21 32  1  0
 21 22  1  6
 23 22  1  0
 24 23  2  0
 25 26  1  0
 25 24  1  0
 26 31  2  0
 27 26  1  0
 27 28  2  0
 28 29  1  0
 29 30  2  0
 31 23  1  0
 31 30  1  0
 32 33  1  0
 34 32  2  0
M  END
$$$$
