HAW.pdb
     RDKit          3D

 30 32  0  0  1  0  0  0  0  0999 V2000
    9.4346  -15.7836   18.4705 N   0  0  0  0  0  0  0  0  0  0  0  0
    8.8098  -14.9189   19.4885 C   0  0  1  0  0  0  0  0  0  0  0  0
    7.4791  -14.5318   18.9200 C   0  0  0  0  0  0  0  0  0  0  0  0
    7.6663  -13.9692   17.5414 C   0  0  0  0  0  0  0  0  0  0  0  0
    8.1427  -12.7143   17.2424 C   0  0  0  0  0  0  0  0  0  0  0  0
    8.1395  -12.5929   15.9110 N   0  0  0  0  0  0  0  0  0  0  0  0
    7.6750  -13.7363   15.3880 C   0  0  0  0  0  0  0  0  0  0  0  0
    7.3871  -14.5737   16.3795 N   0  0  0  0  0  0  0  0  0  0  0  0
    8.6203  -15.6615   20.7511 C   0  0  0  0  0  0  0  0  0  0  0  0
    7.9247  -15.2253   21.6850 O   0  0  0  0  0  0  0  0  0  0  0  0
    9.5853  -19.1291   21.9740 C   0  0  0  0  0  0  0  0  0  0  0  0
    9.0398  -17.7285   22.1286 C   0  0  2  0  0  0  0  0  0  0  0  0
    9.2440  -16.9311   20.9419 N   0  0  0  0  0  0  0  0  0  0  0  0
    9.7881  -17.0933   23.2435 C   0  0  0  0  0  0  0  0  0  0  0  0
   10.9518  -16.6543   23.0672 O   0  0  0  0  0  0  0  0  0  0  0  0
    9.2387  -16.9519   24.5403 N   0  0  0  0  0  0  0  0  0  0  0  0
   10.0433  -16.3941   25.6050 C   0  0  1  0  0  0  0  0  0  0  0  0
    9.7558  -14.9559   25.8686 C   0  0  0  0  0  0  0  0  0  0  0  0
    8.3030  -14.7167   25.6885 C   0  0  0  0  0  0  0  0  0  0  0  0
    7.2835  -15.6107   25.4380 C   0  0  0  0  0  0  0  0  0  0  0  0
    6.1436  -14.9106   25.3490 N   0  0  0  0  0  0  0  0  0  0  0  0
    6.3602  -13.6093   25.5271 C   0  0  0  0  0  0  0  0  0  0  0  0
    5.5794  -12.4628   25.5403 C   0  0  0  0  0  0  0  0  0  0  0  0
    6.1363  -11.2161   25.7615 C   0  0  0  0  0  0  0  0  0  0  0  0
    7.4787  -11.0837   25.9738 C   0  0  0  0  0  0  0  0  0  0  0  0
    8.2700  -12.1973   25.9658 C   0  0  0  0  0  0  0  0  0  0  0  0
    7.7126  -13.4520   25.7436 C   0  0  0  0  0  0  0  0  0  0  0  0
    9.7886  -17.1751   26.8295 C   0  0  0  0  0  0  0  0  0  0  0  0
   10.5988  -16.9963   27.9335 O   0  0  0  0  0  0  0  0  0  0  0  0
    8.8556  -18.0054   26.9120 O   0  0  0  0  0  0  0  0  0  0  0  0
  2  1  1  6
  2  3  1  0
  2  9  1  0
  3  4  1  0
  4  5  2  0
  4  8  1  0
  5  6  1  0
  6  7  1  0
  8  7  2  0
  9 10  2  0
 12 11  1  6
 12 14  1  0
 13  9  1  0
 13 12  1  0
 14 15  2  0
 16 14  1  0
 16 17  1  0
 17 28  1  0
 17 18  1  1
 19 27  1  0
 19 18  1  0
 20 19  2  0
 21 20  1  0
 21 22  1  0
 22 27  2  0
 23 22  1  0
 23 24  2  0
 24 25  1  0
 25 26  2  0
 27 26  1  0
 28 30  2  0
 28 29  1  0
M  END
$$$$
