HAW.pdb
     RDKit          3D

 30 32  0  0  1  0  0  0  0  0999 V2000
    7.8788  -16.9657   19.2897 N   0  0  0  0  0  0  0  0  0  0  0  0
    8.4914  -16.1722   20.3711 C   0  0  1  0  0  0  0  0  0  0  0  0
    7.6454  -14.9418   20.4906 C   0  0  0  0  0  0  0  0  0  0  0  0
    7.9251  -14.0258   19.3353 C   0  0  0  0  0  0  0  0  0  0  0  0
    8.8597  -14.2370   18.3489 C   0  0  0  0  0  0  0  0  0  0  0  0
    8.8125  -13.1870   17.5227 N   0  0  0  0  0  0  0  0  0  0  0  0
    7.8769  -12.3407   17.9753 C   0  0  0  0  0  0  0  0  0  0  0  0
    7.3369  -12.8505   19.0778 N   0  0  0  0  0  0  0  0  0  0  0  0
    8.4665  -16.9248   21.6418 C   0  0  0  0  0  0  0  0  0  0  0  0
    7.4369  -17.4712   22.0746 O   0  0  0  0  0  0  0  0  0  0  0  0
   10.7547  -18.9294   23.5527 C   0  0  0  0  0  0  0  0  0  0  0  0
    9.7042  -17.8464   23.6330 C   0  0  2  0  0  0  0  0  0  0  0  0
    9.6504  -17.0503   22.4292 N   0  0  0  0  0  0  0  0  0  0  0  0
   10.0873  -16.9543   24.7571 C   0  0  0  0  0  0  0  0  0  0  0  0
   10.8822  -15.9987   24.5757 O   0  0  0  0  0  0  0  0  0  0  0  0
    9.5855  -17.1312   26.0688 N   0  0  0  0  0  0  0  0  0  0  0  0
   10.1370  -16.3580   27.1598 C   0  0  1  0  0  0  0  0  0  0  0  0
    9.1052  -15.6084   27.9305 C   0  0  0  0  0  0  0  0  0  0  0  0
    7.9682  -15.2953   27.0308 C   0  0  0  0  0  0  0  0  0  0  0  0
    7.0217  -16.1315   26.4774 C   0  0  0  0  0  0  0  0  0  0  0  0
    6.2047  -15.3782   25.7274 N   0  0  0  0  0  0  0  0  0  0  0  0
    6.5636  -14.0967   25.7591 C   0  0  0  0  0  0  0  0  0  0  0  0
    6.0991  -12.9184   25.1931 C   0  0  0  0  0  0  0  0  0  0  0  0
    6.7243  -11.7088   25.4362 C   0  0  0  0  0  0  0  0  0  0  0  0
    7.8222  -11.6455   26.2454 C   0  0  0  0  0  0  0  0  0  0  0  0
    8.2999  -12.7916   26.8152 C   0  0  0  0  0  0  0  0  0  0  0  0
    7.6732  -14.0092   26.5725 C   0  0  0  0  0  0  0  0  0  0  0  0
   10.8459  -17.2820   28.0641 C   0  0  0  0  0  0  0  0  0  0  0  0
   11.5634  -16.7764   29.1304 O   0  0  0  0  0  0  0  0  0  0  0  0
   10.8250  -18.5232   27.9040 O   0  0  0  0  0  0  0  0  0  0  0  0
  2  1  1  6
  2  3  1  0
  2  9  1  0
  3  4  1  0
  4  5  2  0
  4  8  1  0
  5  6  1  0
  6  7  1  0
  8  7  2  0
  9 10  2  0
 12 11  1  6
 12 14  1  0
 13  9  1  0
 13 12  1  0
 14 15  2  0
 16 14  1  0
 16 17  1  0
 17 28  1  0
 17 18  1  1
 19 27  1  0
 19 18  1  0
 20 19  2  0
 21 20  1  0
 21 22  1  0
 22 27  2  0
 23 22  1  0
 23 24  2  0
 24 25  1  0
 25 26  2  0
 27 26  1  0
 28 30  2  0
 28 29  1  0
M  END
$$$$
