HAW.pdb
     RDKit          3D

 30 32  0  0  1  0  0  0  0  0999 V2000
    9.8118  -15.5016   19.7016 N   0  0  0  0  0  0  0  0  0  0  0  0
    8.9789  -14.7891   20.6881 C   0  0  1  0  0  0  0  0  0  0  0  0
    7.6385  -14.6318   20.0381 C   0  0  0  0  0  0  0  0  0  0  0  0
    7.8191  -14.1964   18.6133 C   0  0  0  0  0  0  0  0  0  0  0  0
    8.2951  -12.9744   18.1996 C   0  0  0  0  0  0  0  0  0  0  0  0
    8.2852  -12.9739   16.8627 N   0  0  0  0  0  0  0  0  0  0  0  0
    7.8171  -14.1593   16.4476 C   0  0  0  0  0  0  0  0  0  0  0  0
    7.5335  -14.9032   17.5123 N   0  0  0  0  0  0  0  0  0  0  0  0
    8.8475  -15.5860   21.9247 C   0  0  0  0  0  0  0  0  0  0  0  0
    8.0043  -15.3259   22.8008 O   0  0  0  0  0  0  0  0  0  0  0  0
   10.4847  -18.7593   23.2427 C   0  0  0  0  0  0  0  0  0  0  0  0
    9.5799  -17.5516   23.3197 C   0  0  2  0  0  0  0  0  0  0  0  0
    9.7039  -16.7041   22.1569 N   0  0  0  0  0  0  0  0  0  0  0  0
   10.0050  -16.7674   24.5074 C   0  0  0  0  0  0  0  0  0  0  0  0
   10.9257  -15.9175   24.4190 O   0  0  0  0  0  0  0  0  0  0  0  0
    9.4054  -16.9339   25.7787 N   0  0  0  0  0  0  0  0  0  0  0  0
    9.8879  -16.1681   26.9070 C   0  0  1  0  0  0  0  0  0  0  0  0
    8.7966  -15.6759   27.7943 C   0  0  0  0  0  0  0  0  0  0  0  0
    7.7194  -15.0982   26.9540 C   0  0  0  0  0  0  0  0  0  0  0  0
    6.6738  -15.7202   26.3050 C   0  0  0  0  0  0  0  0  0  0  0  0
    5.9714  -14.7726   25.6677 N   0  0  0  0  0  0  0  0  0  0  0  0
    6.4987  -13.5661   25.8634 C   0  0  0  0  0  0  0  0  0  0  0  0
    6.2010  -12.2723   25.4610 C   0  0  0  0  0  0  0  0  0  0  0  0
    6.9807  -11.1997   25.8543 C   0  0  0  0  0  0  0  0  0  0  0  0
    8.0705  -11.3906   26.6545 C   0  0  0  0  0  0  0  0  0  0  0  0
    8.3855  -12.6551   27.0649 C   0  0  0  0  0  0  0  0  0  0  0  0
    7.6033  -13.7353   26.6709 C   0  0  0  0  0  0  0  0  0  0  0  0
   10.8010  -17.0248   27.6857 C   0  0  0  0  0  0  0  0  0  0  0  0
   11.0015  -18.3357   27.2999 O   0  0  0  0  0  0  0  0  0  0  0  0
   11.4110  -16.6084   28.6963 O   0  0  0  0  0  0  0  0  0  0  0  0
  2  1  1  6
  2  3  1  0
  2  9  1  0
  3  4  1  0
  4  5  2  0
  4  8  1  0
  5  6  1  0
  6  7  1  0
  8  7  2  0
  9 10  2  0
 12 11  1  6
 12 14  1  0
 13  9  1  0
 13 12  1  0
 14 15  2  0
 16 14  1  0
 16 17  1  0
 17 28  1  0
 17 18  1  1
 19 27  1  0
 19 18  1  0
 20 19  2  0
 21 20  1  0
 21 22  1  0
 22 27  2  0
 23 22  1  0
 23 24  2  0
 24 25  1  0
 25 26  2  0
 27 26  1  0
 28 30  2  0
 28 29  1  0
M  END
$$$$
