HAW.pdb
     RDKit          3D

 30 32  0  0  1  0  0  0  0  0999 V2000
    9.4844  -16.6213   19.2233 N   0  0  0  0  0  0  0  0  0  0  0  0
    9.1088  -15.6353   20.2535 C   0  0  1  0  0  0  0  0  0  0  0  0
    7.7830  -15.0902   19.8185 C   0  0  0  0  0  0  0  0  0  0  0  0
    7.9614  -14.2672   18.5763 C   0  0  0  0  0  0  0  0  0  0  0  0
    9.1466  -14.0641   17.9090 C   0  0  0  0  0  0  0  0  0  0  0  0
    8.8879  -13.2621   16.8711 N   0  0  0  0  0  0  0  0  0  0  0  0
    7.5801  -12.9691   16.8848 C   0  0  0  0  0  0  0  0  0  0  0  0
    7.0162  -13.5804   17.9219 N   0  0  0  0  0  0  0  0  0  0  0  0
    8.9753  -16.2900   21.5707 C   0  0  0  0  0  0  0  0  0  0  0  0
    7.8876  -16.7131   21.9995 O   0  0  0  0  0  0  0  0  0  0  0  0
   11.2457  -18.3545   23.4836 C   0  0  0  0  0  0  0  0  0  0  0  0
   10.1200  -17.3487   23.5493 C   0  0  2  0  0  0  0  0  0  0  0  0
   10.1169  -16.4607   22.4104 N   0  0  0  0  0  0  0  0  0  0  0  0
   10.3412  -16.5308   24.7693 C   0  0  0  0  0  0  0  0  0  0  0  0
   11.0247  -15.4780   24.7207 O   0  0  0  0  0  0  0  0  0  0  0  0
    9.8028  -16.8885   26.0285 N   0  0  0  0  0  0  0  0  0  0  0  0
   10.0973  -16.0812   27.1920 C   0  0  1  0  0  0  0  0  0  0  0  0
    8.8976  -15.7929   28.0275 C   0  0  0  0  0  0  0  0  0  0  0  0
    7.8456  -15.1989   27.1669 C   0  0  0  0  0  0  0  0  0  0  0  0
    6.8271  -15.8093   26.4657 C   0  0  0  0  0  0  0  0  0  0  0  0
    6.1402  -14.8489   25.8308 N   0  0  0  0  0  0  0  0  0  0  0  0
    6.6520  -13.6450   26.0771 C   0  0  0  0  0  0  0  0  0  0  0  0
    6.3592  -12.3425   25.7000 C   0  0  0  0  0  0  0  0  0  0  0  0
    7.1175  -11.2763   26.1488 C   0  0  0  0  0  0  0  0  0  0  0  0
    8.1807  -11.4825   26.9803 C   0  0  0  0  0  0  0  0  0  0  0  0
    8.4904  -12.7557   27.3667 C   0  0  0  0  0  0  0  0  0  0  0  0
    7.7296  -13.8296   26.9170 C   0  0  0  0  0  0  0  0  0  0  0  0
   11.0978  -16.7967   28.0052 C   0  0  0  0  0  0  0  0  0  0  0  0
   11.6882  -16.1578   29.0777 O   0  0  0  0  0  0  0  0  0  0  0  0
   11.4399  -17.9757   27.7609 O   0  0  0  0  0  0  0  0  0  0  0  0
  2  1  1  6
  2  3  1  0
  2  9  1  0
  3  4  1  0
  4  5  2  0
  4  8  1  0
  5  6  1  0
  6  7  1  0
  8  7  2  0
  9 10  2  0
 12 11  1  6
 12 14  1  0
 13  9  1  0
 13 12  1  0
 14 15  2  0
 16 14  1  0
 16 17  1  0
 17 28  1  0
 17 18  1  1
 19 27  1  0
 19 18  1  0
 20 19  2  0
 21 20  1  0
 21 22  1  0
 22 27  2  0
 23 22  1  0
 23 24  2  0
 24 25  1  0
 25 26  2  0
 27 26  1  0
 28 30  2  0
 28 29  1  0
M  END
$$$$
