HAW.pdb
     RDKit          3D

 30 32  0  0  1  0  0  0  0  0999 V2000
    9.2568  -16.2732   18.8167 N   0  0  0  0  0  0  0  0  0  0  0  0
    8.9140  -15.3165   19.8851 C   0  0  1  0  0  0  0  0  0  0  0  0
    7.6666  -14.6299   19.4198 C   0  0  0  0  0  0  0  0  0  0  0  0
    7.9259  -13.9536   18.1054 C   0  0  0  0  0  0  0  0  0  0  0  0
    8.9745  -13.1079   17.8288 C   0  0  0  0  0  0  0  0  0  0  0  0
    8.8378  -12.7037   16.5618 N   0  0  0  0  0  0  0  0  0  0  0  0
    7.7367  -13.2772   16.0565 C   0  0  0  0  0  0  0  0  0  0  0  0
    7.1818  -14.0375   16.9952 N   0  0  0  0  0  0  0  0  0  0  0  0
    8.6528  -16.0291   21.1522 C   0  0  0  0  0  0  0  0  0  0  0  0
    7.5254  -16.0711   21.6751 O   0  0  0  0  0  0  0  0  0  0  0  0
   10.1699  -18.8448   22.9388 C   0  0  0  0  0  0  0  0  0  0  0  0
    9.4931  -17.4963   23.0196 C   0  0  2  0  0  0  0  0  0  0  0  0
    9.7105  -16.7065   21.8303 N   0  0  0  0  0  0  0  0  0  0  0  0
   10.1004  -16.7754   24.1675 C   0  0  0  0  0  0  0  0  0  0  0  0
   11.1693  -16.1305   24.0272 O   0  0  0  0  0  0  0  0  0  0  0  0
    9.5169  -16.7773   25.4570 N   0  0  0  0  0  0  0  0  0  0  0  0
   10.2390  -16.2082   26.5738 C   0  0  1  0  0  0  0  0  0  0  0  0
    9.7182  -14.8770   26.9947 C   0  0  0  0  0  0  0  0  0  0  0  0
    8.3126  -14.7462   26.5391 C   0  0  0  0  0  0  0  0  0  0  0  0
    7.4004  -15.7207   26.1931 C   0  0  0  0  0  0  0  0  0  0  0  0
    6.2631  -15.1042   25.8410 N   0  0  0  0  0  0  0  0  0  0  0  0
    6.3802  -13.7817   25.9371 C   0  0  0  0  0  0  0  0  0  0  0  0
    5.5554  -12.6900   25.7088 C   0  0  0  0  0  0  0  0  0  0  0  0
    6.0015  -11.3967   25.9125 C   0  0  0  0  0  0  0  0  0  0  0  0
    7.2747  -11.1622   26.3467 C   0  0  0  0  0  0  0  0  0  0  0  0
    8.1074  -12.2201   26.5790 C   0  0  0  0  0  0  0  0  0  0  0  0
    7.6613  -13.5215   26.3750 C   0  0  0  0  0  0  0  0  0  0  0  0
   10.1472  -17.1484   27.7060 C   0  0  0  0  0  0  0  0  0  0  0  0
    9.3948  -18.2993   27.5776 O   0  0  0  0  0  0  0  0  0  0  0  0
   10.7306  -16.9445   28.7945 O   0  0  0  0  0  0  0  0  0  0  0  0
  2  1  1  6
  2  3  1  0
  2  9  1  0
  3  4  1  0
  4  5  2  0
  4  8  1  0
  5  6  1  0
  6  7  1  0
  8  7  2  0
  9 10  2  0
 12 11  1  6
 12 14  1  0
 13  9  1  0
 13 12  1  0
 14 15  2  0
 16 14  1  0
 16 17  1  0
 17 28  1  0
 17 18  1  1
 19 27  1  0
 19 18  1  0
 20 19  2  0
 21 20  1  0
 21 22  1  0
 22 27  2  0
 23 22  1  0
 23 24  2  0
 24 25  1  0
 25 26  2  0
 27 26  1  0
 28 30  2  0
 28 29  1  0
M  END
$$$$
