HAW.pdb
     RDKit          3D

 30 32  0  0  1  0  0  0  0  0999 V2000
    8.9815  -18.3939   18.5279 N   0  0  0  0  0  0  0  0  0  0  0  0
    8.2439  -17.9535   19.7263 C   0  0  1  0  0  0  0  0  0  0  0  0
    8.4197  -19.0529   20.7286 C   0  0  0  0  0  0  0  0  0  0  0  0
    7.6260  -20.2530   20.3021 C   0  0  0  0  0  0  0  0  0  0  0  0
    6.2577  -20.3761   20.3635 C   0  0  0  0  0  0  0  0  0  0  0  0
    5.9459  -21.5951   19.9118 N   0  0  0  0  0  0  0  0  0  0  0  0
    7.0831  -22.2203   19.5766 C   0  0  0  0  0  0  0  0  0  0  0  0
    8.1053  -21.4042   19.8138 N   0  0  0  0  0  0  0  0  0  0  0  0
    8.8160  -16.6975   20.2524 C   0  0  0  0  0  0  0  0  0  0  0  0
   10.0380  -16.4674   20.2500 O   0  0  0  0  0  0  0  0  0  0  0  0
    7.3567  -13.3877   21.3888 C   0  0  0  0  0  0  0  0  0  0  0  0
    8.4616  -14.4078   21.2411 C   0  0  2  0  0  0  0  0  0  0  0  0
    7.9643  -15.6870   20.7917 N   0  0  0  0  0  0  0  0  0  0  0  0
    9.0607  -14.5948   22.5873 C   0  0  0  0  0  0  0  0  0  0  0  0
    9.5952  -13.6317   23.1912 O   0  0  0  0  0  0  0  0  0  0  0  0
    9.0607  -15.8462   23.2488 N   0  0  0  0  0  0  0  0  0  0  0  0
    9.6442  -15.9625   24.5672 C   0  0  1  0  0  0  0  0  0  0  0  0
    8.7011  -16.5114   25.5820 C   0  0  0  0  0  0  0  0  0  0  0  0
    7.4930  -15.6520   25.6280 C   0  0  0  0  0  0  0  0  0  0  0  0
    6.2240  -15.8826   25.1403 C   0  0  0  0  0  0  0  0  0  0  0  0
    5.4800  -14.8031   25.4205 N   0  0  0  0  0  0  0  0  0  0  0  0
    6.1908  -13.8796   26.0638 C   0  0  0  0  0  0  0  0  0  0  0  0
    5.9460  -12.6150   26.5789 C   0  0  0  0  0  0  0  0  0  0  0  0
    6.9403  -11.8921   27.2128 C   0  0  0  0  0  0  0  0  0  0  0  0
    8.1964  -12.4103   27.3475 C   0  0  0  0  0  0  0  0  0  0  0  0
    8.4637  -13.6539   26.8489 C   0  0  0  0  0  0  0  0  0  0  0  0
    7.4658  -14.3829   26.2111 C   0  0  0  0  0  0  0  0  0  0  0  0
   10.8235  -16.8424   24.4707 C   0  0  0  0  0  0  0  0  0  0  0  0
   11.6363  -17.0169   25.5734 O   0  0  0  0  0  0  0  0  0  0  0  0
   11.1235  -17.4465   23.4163 O   0  0  0  0  0  0  0  0  0  0  0  0
  2  1  1  6
  2  3  1  0
  2  9  1  0
  3  4  1  0
  4  5  2  0
  4  8  1  0
  5  6  1  0
  6  7  1  0
  8  7  2  0
  9 10  2  0
 12 11  1  1
 12 14  1  0
 13  9  1  0
 13 12  1  0
 14 15  2  0
 16 14  1  0
 16 17  1  0
 17 28  1  0
 17 18  1  1
 19 27  1  0
 19 18  1  0
 20 19  2  0
 21 20  1  0
 21 22  1  0
 22 27  2  0
 23 22  1  0
 23 24  2  0
 24 25  1  0
 25 26  2  0
 27 26  1  0
 28 30  2  0
 28 29  1  0
M  END
$$$$
