HAW.pdb
     RDKit          3D

 30 32  0  0  1  0  0  0  0  0999 V2000
    8.0469  -17.1033   16.6232 N   0  0  0  0  0  0  0  0  0  0  0  0
    8.8608  -16.3318   17.5807 C   0  0  1  0  0  0  0  0  0  0  0  0
    8.3263  -14.9336   17.5218 C   0  0  0  0  0  0  0  0  0  0  0  0
    8.5281  -14.3763   16.1431 C   0  0  0  0  0  0  0  0  0  0  0  0
    7.6276  -13.6038   15.4478 C   0  0  0  0  0  0  0  0  0  0  0  0
    8.1724  -13.3291   14.2582 N   0  0  0  0  0  0  0  0  0  0  0  0
    9.3786  -13.9110   14.2062 C   0  0  0  0  0  0  0  0  0  0  0  0
    9.5954  -14.5481   15.3526 N   0  0  0  0  0  0  0  0  0  0  0  0
    8.7035  -16.8730   18.9459 C   0  0  0  0  0  0  0  0  0  0  0  0
    7.7844  -17.6517   19.2542 O   0  0  0  0  0  0  0  0  0  0  0  0
    9.8405  -18.5644   21.2974 C   0  0  0  0  0  0  0  0  0  0  0  0
    9.5688  -17.0780   21.3029 C   0  0  2  0  0  0  0  0  0  0  0  0
    9.6226  -16.5103   19.9761 N   0  0  0  0  0  0  0  0  0  0  0  0
   10.6380  -16.4456   22.1171 C   0  0  0  0  0  0  0  0  0  0  0  0
   11.7273  -17.0383   22.3176 O   0  0  0  0  0  0  0  0  0  0  0  0
   10.4882  -15.1643   22.6996 N   0  0  0  0  0  0  0  0  0  0  0  0
    9.6576  -15.0003   23.8724 C   0  0  1  0  0  0  0  0  0  0  0  0
    8.1997  -15.0953   23.5793 C   0  0  0  0  0  0  0  0  0  0  0  0
    7.4413  -14.8081   24.8213 C   0  0  0  0  0  0  0  0  0  0  0  0
    6.7802  -15.6677   25.6730 C   0  0  0  0  0  0  0  0  0  0  0  0
    6.2404  -14.9303   26.6540 N   0  0  0  0  0  0  0  0  0  0  0  0
    6.5112  -13.6371   26.4918 C   0  0  0  0  0  0  0  0  0  0  0  0
    6.2190  -12.4655   27.1747 C   0  0  0  0  0  0  0  0  0  0  0  0
    6.6683  -11.2382   26.7219 C   0  0  0  0  0  0  0  0  0  0  0  0
    7.4161  -11.1504   25.5828 C   0  0  0  0  0  0  0  0  0  0  0  0
    7.7179  -12.2894   24.8914 C   0  0  0  0  0  0  0  0  0  0  0  0
    7.2674  -13.5247   25.3446 C   0  0  0  0  0  0  0  0  0  0  0  0
   10.0285  -16.0434   24.8464 C   0  0  0  0  0  0  0  0  0  0  0  0
   10.5490  -15.6779   26.0722 O   0  0  0  0  0  0  0  0  0  0  0  0
    9.8897  -17.2639   24.6057 O   0  0  0  0  0  0  0  0  0  0  0  0
  2  1  1  6
  2  3  1  0
  2  9  1  0
  3  4  1  0
  4  5  2  0
  4  8  1  0
  5  6  1  0
  6  7  1  0
  8  7  2  0
  9 10  2  0
 12 11  1  6
 12 14  1  0
 13  9  1  0
 13 12  1  0
 14 15  2  0
 16 14  1  0
 16 17  1  0
 17 28  1  0
 17 18  1  6
 19 27  1  0
 19 18  1  0
 20 19  2  0
 21 20  1  0
 21 22  1  0
 22 27  2  0
 23 22  1  0
 23 24  2  0
 24 25  1  0
 25 26  2  0
 27 26  1  0
 28 30  2  0
 28 29  1  0
M  END
$$$$
