HAW.pdb
     RDKit          3D

 30 32  0  0  1  0  0  0  0  0999 V2000
    8.4164  -16.9248   17.8181 N   0  0  0  0  0  0  0  0  0  0  0  0
    8.7875  -15.9957   18.9014 C   0  0  1  0  0  0  0  0  0  0  0  0
    7.7828  -14.8865   18.8363 C   0  0  0  0  0  0  0  0  0  0  0  0
    7.9149  -14.1653   17.5268 C   0  0  0  0  0  0  0  0  0  0  0  0
    8.6705  -13.0386   17.3014 C   0  0  0  0  0  0  0  0  0  0  0  0
    8.5067  -12.6982   16.0190 N   0  0  0  0  0  0  0  0  0  0  0  0
    7.6734  -13.5834   15.4545 C   0  0  0  0  0  0  0  0  0  0  0  0
    7.3133  -14.4760   16.3714 N   0  0  0  0  0  0  0  0  0  0  0  0
    8.7057  -16.6717   20.2121 C   0  0  0  0  0  0  0  0  0  0  0  0
    7.6415  -16.7710   20.8474 O   0  0  0  0  0  0  0  0  0  0  0  0
   10.7605  -19.1483   22.0667 C   0  0  0  0  0  0  0  0  0  0  0  0
    9.8413  -17.9491   22.0626 C   0  0  2  0  0  0  0  0  0  0  0  0
    9.8723  -17.2442   20.8025 N   0  0  0  0  0  0  0  0  0  0  0  0
   10.3303  -17.0255   23.1181 C   0  0  0  0  0  0  0  0  0  0  0  0
   11.2739  -16.2291   22.8870 O   0  0  0  0  0  0  0  0  0  0  0  0
    9.7685  -16.9947   24.4169 N   0  0  0  0  0  0  0  0  0  0  0  0
   10.3793  -16.1815   25.4454 C   0  0  1  0  0  0  0  0  0  0  0  0
    9.9682  -14.7505   25.3860 C   0  0  0  0  0  0  0  0  0  0  0  0
    8.4981  -14.6663   25.5647 C   0  0  0  0  0  0  0  0  0  0  0  0
    7.5472  -15.6648   25.5566 C   0  0  0  0  0  0  0  0  0  0  0  0
    6.3529  -15.0885   25.7540 N   0  0  0  0  0  0  0  0  0  0  0  0
    6.4692  -13.7695   25.8906 C   0  0  0  0  0  0  0  0  0  0  0  0
    5.5995  -12.7105   26.1061 C   0  0  0  0  0  0  0  0  0  0  0  0
    6.0602  -11.4098   26.2017 C   0  0  0  0  0  0  0  0  0  0  0  0
    7.3928  -11.1355   26.0855 C   0  0  0  0  0  0  0  0  0  0  0  0
    8.2705  -12.1606   25.8729 C   0  0  0  0  0  0  0  0  0  0  0  0
    7.8099  -13.4693   25.7764 C   0  0  0  0  0  0  0  0  0  0  0  0
   10.0048  -16.7428   26.7565 C   0  0  0  0  0  0  0  0  0  0  0  0
   10.6051  -16.2590   27.9022 O   0  0  0  0  0  0  0  0  0  0  0  0
    9.1535  -17.6526   26.8767 O   0  0  0  0  0  0  0  0  0  0  0  0
  2  1  1  6
  2  3  1  0
  2  9  1  0
  3  4  1  0
  4  5  2  0
  4  8  1  0
  5  6  1  0
  6  7  1  0
  8  7  2  0
  9 10  2  0
 12 11  1  6
 12 14  1  0
 13  9  1  0
 13 12  1  0
 14 15  2  0
 16 14  1  0
 16 17  1  0
 17 28  1  0
 17 18  1  1
 19 27  1  0
 19 18  1  0
 20 19  2  0
 21 20  1  0
 21 22  1  0
 22 27  2  0
 23 22  1  0
 23 24  2  0
 24 25  1  0
 25 26  2  0
 27 26  1  0
 28 30  2  0
 28 29  1  0
M  END
$$$$
