HAW.pdb
     RDKit          3D

 30 32  0  0  1  0  0  0  0  0999 V2000
    8.6535  -18.2833   19.7749 N   0  0  0  0  0  0  0  0  0  0  0  0
    9.8779  -17.4670   19.6814 C   0  0  1  0  0  0  0  0  0  0  0  0
   10.2488  -17.4701   18.2301 C   0  0  0  0  0  0  0  0  0  0  0  0
   10.1368  -18.8642   17.6860 C   0  0  0  0  0  0  0  0  0  0  0  0
   11.0651  -19.8665   17.8436 C   0  0  0  0  0  0  0  0  0  0  0  0
   10.6049  -20.9421   17.1965 N   0  0  0  0  0  0  0  0  0  0  0  0
    9.4233  -20.6265   16.6482 C   0  0  0  0  0  0  0  0  0  0  0  0
    9.1382  -19.3626   16.9457 N   0  0  0  0  0  0  0  0  0  0  0  0
    9.6127  -16.0848   20.1295 C   0  0  0  0  0  0  0  0  0  0  0  0
   10.4365  -15.1651   19.9829 O   0  0  0  0  0  0  0  0  0  0  0  0
    6.6723  -14.1821   21.5583 C   0  0  0  0  0  0  0  0  0  0  0  0
    8.1447  -14.4866   21.4089 C   0  0  2  0  0  0  0  0  0  0  0  0
    8.3745  -15.7556   20.7587 N   0  0  0  0  0  0  0  0  0  0  0  0
    8.7120  -14.5632   22.7795 C   0  0  0  0  0  0  0  0  0  0  0  0
    8.6955  -13.5617   23.5377 O   0  0  0  0  0  0  0  0  0  0  0  0
    9.2909  -15.7478   23.2942 N   0  0  0  0  0  0  0  0  0  0  0  0
    9.8765  -15.7461   24.6168 C   0  0  1  0  0  0  0  0  0  0  0  0
    9.0424  -16.4504   25.6309 C   0  0  0  0  0  0  0  0  0  0  0  0
    7.7793  -15.6961   25.8203 C   0  0  0  0  0  0  0  0  0  0  0  0
    6.4872  -16.0338   25.4771 C   0  0  0  0  0  0  0  0  0  0  0  0
    5.6915  -15.0206   25.8485 N   0  0  0  0  0  0  0  0  0  0  0  0
    6.3904  -14.0395   26.4150 C   0  0  0  0  0  0  0  0  0  0  0  0
    6.1001  -12.7995   26.9650 C   0  0  0  0  0  0  0  0  0  0  0  0
    7.0954  -11.9943   27.4885 C   0  0  0  0  0  0  0  0  0  0  0  0
    8.3978  -12.4045   27.4762 C   0  0  0  0  0  0  0  0  0  0  0  0
    8.7105  -13.6216   26.9403 C   0  0  0  0  0  0  0  0  0  0  0  0
    7.7116  -14.4332   26.4133 C   0  0  0  0  0  0  0  0  0  0  0  0
   11.1972  -16.3967   24.5343 C   0  0  0  0  0  0  0  0  0  0  0  0
   12.0450  -16.3598   25.6239 O   0  0  0  0  0  0  0  0  0  0  0  0
   11.5883  -16.9894   23.5036 O   0  0  0  0  0  0  0  0  0  0  0  0
  2  1  1  6
  2  3  1  0
  2  9  1  0
  3  4  1  0
  4  5  2  0
  4  8  1  0
  5  6  1  0
  6  7  1  0
  8  7  2  0
  9 10  2  0
 12 11  1  1
 12 14  1  0
 13  9  1  0
 13 12  1  0
 14 15  2  0
 16 14  1  0
 16 17  1  0
 17 28  1  0
 17 18  1  1
 19 27  1  0
 19 18  1  0
 20 19  2  0
 21 20  1  0
 21 22  1  0
 22 27  2  0
 23 22  1  0
 23 24  2  0
 24 25  1  0
 25 26  2  0
 27 26  1  0
 28 30  2  0
 28 29  1  0
M  END
$$$$
