HAW.pdb
     RDKit          3D

 30 32  0  0  1  0  0  0  0  0999 V2000
    8.9992  -18.2607   19.4206 N   0  0  0  0  0  0  0  0  0  0  0  0
    9.3148  -19.1541   20.5504 C   0  0  1  0  0  0  0  0  0  0  0  0
   10.6582  -19.7367   20.2344 C   0  0  0  0  0  0  0  0  0  0  0  0
   10.5508  -20.6203   19.0262 C   0  0  0  0  0  0  0  0  0  0  0  0
   10.2594  -21.9643   19.0356 C   0  0  0  0  0  0  0  0  0  0  0  0
   10.2770  -22.3854   17.7669 N   0  0  0  0  0  0  0  0  0  0  0  0
   10.5707  -21.3387   16.9829 C   0  0  0  0  0  0  0  0  0  0  0  0
   10.7373  -20.2648   17.7486 N   0  0  0  0  0  0  0  0  0  0  0  0
    9.3832  -18.3879   21.8113 C   0  0  0  0  0  0  0  0  0  0  0  0
    9.9702  -17.2952   21.8982 O   0  0  0  0  0  0  0  0  0  0  0  0
    7.6899  -18.6383   25.1852 C   0  0  0  0  0  0  0  0  0  0  0  0
    8.7775  -18.1697   24.2468 C   0  0  2  0  0  0  0  0  0  0  0  0
    8.7634  -18.8900   22.9951 N   0  0  0  0  0  0  0  0  0  0  0  0
   10.0746  -18.4404   24.9182 C   0  0  0  0  0  0  0  0  0  0  0  0
   10.7115  -19.4969   24.6814 O   0  0  0  0  0  0  0  0  0  0  0  0
   10.6509  -17.5376   25.8436 N   0  0  0  0  0  0  0  0  0  0  0  0
   11.9431  -17.8302   26.4240 C   0  0  1  0  0  0  0  0  0  0  0  0
   12.5707  -16.6528   27.0874 C   0  0  0  0  0  0  0  0  0  0  0  0
   11.6257  -16.1091   28.0932 C   0  0  0  0  0  0  0  0  0  0  0  0
   11.4688  -16.4313   29.4247 C   0  0  0  0  0  0  0  0  0  0  0  0
   10.4779  -15.6707   29.9115 N   0  0  0  0  0  0  0  0  0  0  0  0
    9.9780  -14.8693   28.9734 C   0  0  0  0  0  0  0  0  0  0  0  0
    8.9788  -13.9089   28.9136 C   0  0  0  0  0  0  0  0  0  0  0  0
    8.7002  -13.2334   27.7392 C   0  0  0  0  0  0  0  0  0  0  0  0
    9.4079  -13.4982   26.6019 C   0  0  0  0  0  0  0  0  0  0  0  0
   10.3974  -14.4397   26.6340 C   0  0  0  0  0  0  0  0  0  0  0  0
   10.6796  -15.1203   27.8135 C   0  0  0  0  0  0  0  0  0  0  0  0
   11.7680  -18.9110   27.4116 C   0  0  0  0  0  0  0  0  0  0  0  0
   12.8737  -19.5946   27.8779 O   0  0  0  0  0  0  0  0  0  0  0  0
   10.6434  -19.2401   27.8517 O   0  0  0  0  0  0  0  0  0  0  0  0
  2  1  1  6
  2  3  1  0
  2  9  1  0
  3  4  1  0
  4  5  2  0
  4  8  1  0
  5  6  1  0
  6  7  1  0
  8  7  2  0
  9 10  2  0
 12 11  1  1
 12 14  1  0
 13  9  1  0
 13 12  1  0
 14 15  2  0
 16 14  1  0
 16 17  1  0
 17 28  1  0
 17 18  1  1
 19 27  1  0
 19 18  1  0
 20 19  2  0
 21 20  1  0
 21 22  1  0
 22 27  2  0
 23 22  1  0
 23 24  2  0
 24 25  1  0
 25 26  2  0
 27 26  1  0
 28 30  2  0
 28 29  1  0
M  END
$$$$
