HAW.pdb
     RDKit          3D

 30 32  0  0  1  0  0  0  0  0999 V2000
    7.5379  -17.5308   17.0267 N   0  0  0  0  0  0  0  0  0  0  0  0
    8.2167  -16.5698   17.9156 C   0  0  1  0  0  0  0  0  0  0  0  0
    7.4604  -15.2855   17.7655 C   0  0  0  0  0  0  0  0  0  0  0  0
    7.6833  -14.7292   16.3896 C   0  0  0  0  0  0  0  0  0  0  0  0
    8.6299  -13.7935   16.0437 C   0  0  0  0  0  0  0  0  0  0  0  0
    8.4917  -13.5502   14.7364 N   0  0  0  0  0  0  0  0  0  0  0  0
    7.4886  -14.3094   14.2737 C   0  0  0  0  0  0  0  0  0  0  0  0
    6.9967  -15.0267   15.2790 N   0  0  0  0  0  0  0  0  0  0  0  0
    8.1532  -17.0296   19.3178 C   0  0  0  0  0  0  0  0  0  0  0  0
    7.1296  -16.9121   20.0139 O   0  0  0  0  0  0  0  0  0  0  0  0
   10.0556  -19.4323   21.4142 C   0  0  0  0  0  0  0  0  0  0  0  0
    9.2672  -18.1503   21.2797 C   0  0  2  0  0  0  0  0  0  0  0  0
    9.2909  -17.6363   19.9303 N   0  0  0  0  0  0  0  0  0  0  0  0
    9.9156  -17.1487   22.1644 C   0  0  0  0  0  0  0  0  0  0  0  0
   10.8554  -16.4311   21.7405 O   0  0  0  0  0  0  0  0  0  0  0  0
    9.5153  -16.9537   23.5080 N   0  0  0  0  0  0  0  0  0  0  0  0
   10.2137  -15.9935   24.3341 C   0  0  1  0  0  0  0  0  0  0  0  0
    9.6595  -14.6142   24.2303 C   0  0  0  0  0  0  0  0  0  0  0  0
    8.3458  -14.5724   24.9179 C   0  0  0  0  0  0  0  0  0  0  0  0
    7.4159  -15.5721   25.1105 C   0  0  0  0  0  0  0  0  0  0  0  0
    6.3848  -15.0419   25.7838 N   0  0  0  0  0  0  0  0  0  0  0  0
    6.5881  -13.7520   26.0422 C   0  0  0  0  0  0  0  0  0  0  0  0
    5.8849  -12.7420   26.6824 C   0  0  0  0  0  0  0  0  0  0  0  0
    6.3963  -11.4607   26.7807 C   0  0  0  0  0  0  0  0  0  0  0  0
    7.6154  -11.1573   26.2456 C   0  0  0  0  0  0  0  0  0  0  0  0
    8.3283  -12.1339   25.6098 C   0  0  0  0  0  0  0  0  0  0  0  0
    7.8164  -13.4232   25.5095 C   0  0  0  0  0  0  0  0  0  0  0  0
   10.1319  -16.4481   25.7345 C   0  0  0  0  0  0  0  0  0  0  0  0
   10.9398  -15.8633   26.6897 O   0  0  0  0  0  0  0  0  0  0  0  0
    9.3500  -17.3549   26.0994 O   0  0  0  0  0  0  0  0  0  0  0  0
  2  1  1  6
  2  3  1  0
  2  9  1  0
  3  4  1  0
  4  5  2  0
  4  8  1  0
  5  6  1  0
  6  7  1  0
  8  7  2  0
  9 10  2  0
 12 11  1  6
 12 14  1  0
 13  9  1  0
 13 12  1  0
 14 15  2  0
 16 14  1  0
 16 17  1  0
 17 28  1  0
 17 18  1  1
 19 27  1  0
 19 18  1  0
 20 19  2  0
 21 20  1  0
 21 22  1  0
 22 27  2  0
 23 22  1  0
 23 24  2  0
 24 25  1  0
 25 26  2  0
 27 26  1  0
 28 30  2  0
 28 29  1  0
M  END
$$$$
