PIA.pdb
     RDKit          3D

 21 21  0  0  1  0  0  0  0  0999 V2000
   18.5587  -11.6553  -18.6308 N   0  0  0  0  0  0  0  0  0  0  0  0
   17.5185  -11.6194  -19.6195 C   0  0  0  0  0  0  0  0  0  0  0  0
   17.3970  -10.1820  -20.0899 C   0  0  0  0  0  0  0  0  0  0  0  0
   18.0105   -9.4434  -18.8923 C   0  0  0  0  0  0  0  0  0  0  0  0
   19.1859  -10.3556  -18.6008 C   0  0  1  0  0  0  0  0  0  0  0  0
   19.8049  -10.0550  -17.2941 C   0  0  0  0  0  0  0  0  0  0  0  0
   19.0848  -10.1405  -16.2706 O   0  0  0  0  0  0  0  0  0  0  0  0
   22.2470  -12.1168  -14.6868 C   0  0  0  0  0  0  0  0  0  0  0  0
   22.9100  -11.5570  -15.9353 C   0  0  0  0  0  0  0  0  0  0  0  0
   23.0305  -10.0687  -15.7475 C   0  0  2  0  0  0  0  0  0  0  0  0
   23.6119   -9.8074  -14.3760 C   0  0  0  0  0  0  0  0  0  0  0  0
   21.7050   -9.3644  -15.8941 C   0  0  2  0  0  0  0  0  0  0  0  0
   21.1473   -9.6859  -17.1831 N   0  0  0  0  0  0  0  0  0  0  0  0
   21.9530   -7.8877  -15.7995 C   0  0  0  0  0  0  0  0  0  0  0  0
   22.8210   -7.3601  -16.5396 O   0  0  0  0  0  0  0  0  0  0  0  0
   20.2135   -4.8994  -14.7693 C   0  0  0  0  0  0  0  0  0  0  0  0
   21.4866   -5.7217  -14.7315 C   0  0  2  0  0  0  0  0  0  0  0  0
   21.1989   -7.1153  -14.8724 N   0  0  0  0  0  0  0  0  0  0  0  0
   22.1857   -5.4229  -13.4522 C   0  0  0  0  0  0  0  0  0  0  0  0
   22.1828   -6.2368  -12.4869 O   0  0  0  0  0  0  0  0  0  0  0  0
   22.8481   -4.2253  -13.3325 O   0  0  0  0  0  0  0  0  0  0  0  0
  2  1  1  0
  3  4  1  0
  3  2  1  0
  4  5  1  0
  5  1  1  0
  5  6  1  1
  7  6  2  0
  9  8  1  0
 10  9  1  0
 10 11  1  1
 12 10  1  0
 12 13  1  6
 13  6  1  0
 14 12  1  0
 15 14  2  0
 17 16  1  1
 17 18  1  0
 18 14  1  0
 19 17  1  0
 19 21  1  0
 20 19  2  0
M  END
$$$$
