PIA.pdb
     RDKit          3D

 21 21  0  0  1  0  0  0  0  0999 V2000
   20.6536  -11.1291  -18.7071 N   0  0  0  0  0  0  0  0  0  0  0  0
   20.6198  -12.3044  -19.5307 C   0  0  0  0  0  0  0  0  0  0  0  0
   19.2820  -12.9797  -19.2930 C   0  0  0  0  0  0  0  0  0  0  0  0
   18.9208  -12.4067  -17.9155 C   0  0  0  0  0  0  0  0  0  0  0  0
   19.3472  -10.9656  -18.1154 C   0  0  1  0  0  0  0  0  0  0  0  0
   19.3917  -10.2230  -16.8397 C   0  0  0  0  0  0  0  0  0  0  0  0
   18.3111  -10.0401  -16.2296 O   0  0  0  0  0  0  0  0  0  0  0  0
   22.3646  -10.0734  -11.8341 C   0  0  0  0  0  0  0  0  0  0  0  0
   21.4909   -9.1937  -12.7143 C   0  0  0  0  0  0  0  0  0  0  0  0
   21.4728   -9.8128  -14.0859 C   0  0  2  0  0  0  0  0  0  0  0  0
   22.8931   -9.8664  -14.6028 C   0  0  0  0  0  0  0  0  0  0  0  0
   20.5974   -9.0482  -15.0470 C   0  0  2  0  0  0  0  0  0  0  0  0
   20.5896   -9.7329  -16.3147 N   0  0  0  0  0  0  0  0  0  0  0  0
   21.1807   -7.6758  -15.2121 C   0  0  0  0  0  0  0  0  0  0  0  0
   22.2968   -7.5442  -15.7745 O   0  0  0  0  0  0  0  0  0  0  0  0
   19.8797   -4.2349  -15.1697 C   0  0  0  0  0  0  0  0  0  0  0  0
   20.9895   -5.2398  -14.9306 C   0  0  2  0  0  0  0  0  0  0  0  0
   20.4563   -6.5509  -14.7273 N   0  0  0  0  0  0  0  0  0  0  0  0
   21.7841   -4.7734  -13.7619 C   0  0  0  0  0  0  0  0  0  0  0  0
   21.5249   -5.1549  -12.5865 O   0  0  0  0  0  0  0  0  0  0  0  0
   22.8249   -3.9044  -13.9830 O   0  0  0  0  0  0  0  0  0  0  0  0
  2  1  1  0
  3  4  1  0
  3  2  1  0
  4  5  1  0
  5  1  1  0
  5  6  1  1
  7  6  2  0
  9  8  1  0
 10  9  1  0
 10 11  1  6
 12 10  1  0
 12 13  1  6
 13  6  1  0
 14 12  1  0
 15 14  2  0
 17 16  1  1
 17 18  1  0
 18 14  1  0
 19 17  1  0
 19 21  1  0
 20 19  2  0
M  END
$$$$
