PIA.pdb
     RDKit          3D

 21 21  0  0  1  0  0  0  0  0999 V2000
   21.4756  -12.0500  -18.6229 N   0  0  0  0  0  0  0  0  0  0  0  0
   22.2708  -12.4762  -19.7395 C   0  0  0  0  0  0  0  0  0  0  0  0
   23.4701  -11.5498  -19.8151 C   0  0  0  0  0  0  0  0  0  0  0  0
   22.9279  -10.3289  -19.0591 C   0  0  0  0  0  0  0  0  0  0  0  0
   22.2127  -11.0275  -17.9194 C   0  0  1  0  0  0  0  0  0  0  0  0
   21.3321  -10.1052  -17.1745 C   0  0  0  0  0  0  0  0  0  0  0  0
   20.1767   -9.9085  -17.6214 O   0  0  0  0  0  0  0  0  0  0  0  0
   19.3072   -9.0382  -11.8647 C   0  0  0  0  0  0  0  0  0  0  0  0
   19.6166   -8.2981  -13.1563 C   0  0  0  0  0  0  0  0  0  0  0  0
   20.5439   -9.1701  -13.9592 C   0  0  2  0  0  0  0  0  0  0  0  0
   21.8134   -9.3747  -13.1630 C   0  0  0  0  0  0  0  0  0  0  0  0
   20.8649   -8.5748  -15.3072 C   0  0  2  0  0  0  0  0  0  0  0  0
   21.7558   -9.4640  -16.0084 N   0  0  0  0  0  0  0  0  0  0  0  0
   21.5375   -7.2530  -15.0806 C   0  0  0  0  0  0  0  0  0  0  0  0
   22.7234   -7.2283  -14.6654 O   0  0  0  0  0  0  0  0  0  0  0  0
   20.7236   -3.7021  -15.9348 C   0  0  0  0  0  0  0  0  0  0  0  0
   21.4892   -4.7977  -15.2193 C   0  0  2  0  0  0  0  0  0  0  0  0
   20.8170   -6.0538  -15.3413 N   0  0  0  0  0  0  0  0  0  0  0  0
   21.6521   -4.3879  -13.7980 C   0  0  0  0  0  0  0  0  0  0  0  0
   20.7873   -4.6681  -12.9217 O   0  0  0  0  0  0  0  0  0  0  0  0
   22.7789   -3.6861  -13.4442 O   0  0  0  0  0  0  0  0  0  0  0  0
  2  1  1  0
  3  4  1  0
  3  2  1  0
  4  5  1  0
  5  1  1  0
  5  6  1  6
  7  6  2  0
  9  8  1  0
 10  9  1  0
 10 11  1  1
 12 10  1  0
 12 13  1  1
 13  6  1  0
 14 12  1  0
 15 14  2  0
 17 16  1  6
 17 18  1  0
 18 14  1  0
 19 17  1  0
 19 21  1  0
 20 19  2  0
M  END
$$$$
