PIA.pdb
     RDKit          3D

 21 21  0  0  1  0  0  0  0  0999 V2000
   44.0776  -10.5191   -6.8003 N   0  0  0  0  0  0  0  0  0  0  0  0
   45.1423  -10.5830   -5.8396 C   0  0  0  0  0  0  0  0  0  0  0  0
   44.5833  -10.0905   -4.5178 C   0  0  0  0  0  0  0  0  0  0  0  0
   43.3922   -9.2576   -5.0113 C   0  0  0  0  0  0  0  0  0  0  0  0
   42.8652  -10.1773   -6.0953 C   0  0  1  0  0  0  0  0  0  0  0  0
   41.8784   -9.4998   -6.9601 C   0  0  0  0  0  0  0  0  0  0  0  0
   42.2772   -9.0421   -8.0578 O   0  0  0  0  0  0  0  0  0  0  0  0
   37.3679  -11.0327   -6.0236 C   0  0  0  0  0  0  0  0  0  0  0  0
   37.8822  -10.4168   -7.3150 C   0  0  0  0  0  0  0  0  0  0  0  0
   38.2137   -8.9782   -7.0223 C   0  0  2  0  0  0  0  0  0  0  0  0
   37.2296   -8.1023   -7.7649 C   0  0  0  0  0  0  0  0  0  0  0  0
   39.6259   -8.6250   -7.4166 C   0  0  2  0  0  0  0  0  0  0  0  0
   40.5403   -9.3642   -6.5838 N   0  0  0  0  0  0  0  0  0  0  0  0
   39.8127   -7.1526   -7.1972 C   0  0  0  0  0  0  0  0  0  0  0  0
   39.9104   -6.7119   -6.0244 O   0  0  0  0  0  0  0  0  0  0  0  0
   41.5406   -4.6256   -7.7213 C   0  0  0  0  0  0  0  0  0  0  0  0
   40.1005   -4.8889   -8.1153 C   0  0  2  0  0  0  0  0  0  0  0  0
   39.8751   -6.2854   -8.3238 N   0  0  0  0  0  0  0  0  0  0  0  0
   39.8067   -4.0883   -9.3349 C   0  0  0  0  0  0  0  0  0  0  0  0
   39.6519   -4.6301  -10.4648 O   0  0  0  0  0  0  0  0  0  0  0  0
   39.7041   -2.7237   -9.2130 O   0  0  0  0  0  0  0  0  0  0  0  0
  2  1  1  0
  3  4  1  0
  3  2  1  0
  4  5  1  0
  5  1  1  0
  5  6  1  6
  7  6  2  0
  9  8  1  0
 10  9  1  0
 10 11  1  6
 12 10  1  0
 12 13  1  1
 13  6  1  0
 14 12  1  0
 15 14  2  0
 17 16  1  6
 17 18  1  0
 18 14  1  0
 19 17  1  0
 19 21  1  0
 20 19  2  0
M  END
$$$$
