PIA.pdb
     RDKit          3D

 21 21  0  0  1  0  0  0  0  0999 V2000
   24.8373  -12.0711  -15.9153 N   0  0  0  0  0  0  0  0  0  0  0  0
   25.3554  -13.4066  -16.0101 C   0  0  0  0  0  0  0  0  0  0  0  0
   24.9748  -13.9387  -17.3791 C   0  0  0  0  0  0  0  0  0  0  0  0
   23.7781  -13.0351  -17.7071 C   0  0  0  0  0  0  0  0  0  0  0  0
   24.3138  -11.7066  -17.2101 C   0  0  1  0  0  0  0  0  0  0  0  0
   23.2530  -10.6828  -17.1248 C   0  0  0  0  0  0  0  0  0  0  0  0
   22.7843  -10.2332  -18.1979 O   0  0  0  0  0  0  0  0  0  0  0  0
   18.8453  -11.5087  -15.0547 C   0  0  0  0  0  0  0  0  0  0  0  0
   19.7692  -10.7365  -15.9830 C   0  0  0  0  0  0  0  0  0  0  0  0
   20.5463   -9.7669  -15.1339 C   0  0  2  0  0  0  0  0  0  0  0  0
   19.6187   -8.6462  -14.7209 C   0  0  0  0  0  0  0  0  0  0  0  0
   21.7474   -9.2095  -15.8559 C   0  0  2  0  0  0  0  0  0  0  0  0
   22.7751  -10.2185  -15.8973 N   0  0  0  0  0  0  0  0  0  0  0  0
   22.2351   -8.0159  -15.0888 C   0  0  0  0  0  0  0  0  0  0  0  0
   22.6046   -8.1589  -13.8961 O   0  0  0  0  0  0  0  0  0  0  0  0
   22.8838   -4.4038  -15.9013 C   0  0  0  0  0  0  0  0  0  0  0  0
   22.7224   -5.6069  -14.9930 C   0  0  2  0  0  0  0  0  0  0  0  0
   22.2689   -6.7456  -15.7293 N   0  0  0  0  0  0  0  0  0  0  0  0
   21.7785   -5.2343  -13.9046 C   0  0  0  0  0  0  0  0  0  0  0  0
   20.5350   -5.4280  -14.0073 O   0  0  0  0  0  0  0  0  0  0  0  0
   22.2879   -4.6650  -12.7628 O   0  0  0  0  0  0  0  0  0  0  0  0
  2  1  1  0
  3  4  1  0
  3  2  1  0
  4  5  1  0
  5  1  1  0
  5  6  1  1
  7  6  2  0
  9  8  1  0
 10  9  1  0
 10 11  1  6
 12 10  1  0
 12 13  1  1
 13  6  1  0
 14 12  1  0
 15 14  2  0
 17 16  1  6
 17 18  1  0
 18 14  1  0
 19 17  1  0
 19 21  1  0
 20 19  2  0
M  END
$$$$
