PIA.pdb
     RDKit          3D

 21 21  0  0  1  0  0  0  0  0999 V2000
   28.8315  -19.5252  -16.5151 N   0  0  0  0  0  0  0  0  0  0  0  0
   29.0474  -18.5155  -17.5125 C   0  0  0  0  0  0  0  0  0  0  0  0
   28.1721  -17.3310  -17.1478 C   0  0  0  0  0  0  0  0  0  0  0  0
   27.1143  -18.0231  -16.2772 C   0  0  0  0  0  0  0  0  0  0  0  0
   28.0057  -18.9536  -15.4783 C   0  0  1  0  0  0  0  0  0  0  0  0
   27.2245  -19.9730  -14.7494 C   0  0  0  0  0  0  0  0  0  0  0  0
   27.0204  -21.0724  -15.3179 O   0  0  0  0  0  0  0  0  0  0  0  0
   25.5488  -21.4147   -9.0908 C   0  0  0  0  0  0  0  0  0  0  0  0
   25.2824  -21.6362  -10.5712 C   0  0  0  0  0  0  0  0  0  0  0  0
   26.0695  -20.5993  -11.3263 C   0  0  2  0  0  0  0  0  0  0  0  0
   25.6184  -19.2310  -10.8664 C   0  0  0  0  0  0  0  0  0  0  0  0
   25.9010  -20.7286  -12.8195 C   0  0  2  0  0  0  0  0  0  0  0  0
   26.7216  -19.7376  -13.4679 N   0  0  0  0  0  0  0  0  0  0  0  0
   24.4564  -20.4867  -13.1444 C   0  0  0  0  0  0  0  0  0  0  0  0
   24.0064  -19.3136  -13.1156 O   0  0  0  0  0  0  0  0  0  0  0  0
   21.7734  -22.5441  -14.7261 C   0  0  0  0  0  0  0  0  0  0  0  0
   22.3011  -21.3477  -13.9590 C   0  0  2  0  0  0  0  0  0  0  0  0
   23.6256  -21.5926  -13.4788 N   0  0  0  0  0  0  0  0  0  0  0  0
   21.3504  -21.0599  -12.8509 C   0  0  0  0  0  0  0  0  0  0  0  0
   20.2094  -20.5636  -13.0656 O   0  0  0  0  0  0  0  0  0  0  0  0
   21.7382  -21.3470  -11.5646 O   0  0  0  0  0  0  0  0  0  0  0  0
  2  1  1  0
  3  4  1  0
  3  2  1  0
  4  5  1  0
  5  1  1  0
  5  6  1  6
  7  6  2  0
  9  8  1  0
 10  9  1  0
 10 11  1  1
 12 10  1  0
 12 13  1  6
 13  6  1  0
 14 12  1  0
 15 14  2  0
 17 16  1  1
 17 18  1  0
 18 14  1  0
 19 17  1  0
 19 21  1  0
 20 19  2  0
M  END
$$$$
