PIA.pdb
     RDKit          3D

 21 21  0  0  1  0  0  0  0  0999 V2000
   20.8717  -20.8110  -13.0208 N   0  0  0  0  0  0  0  0  0  0  0  0
   20.1426  -21.4051  -14.1054 C   0  0  0  0  0  0  0  0  0  0  0  0
   21.0237  -22.4896  -14.6967 C   0  0  0  0  0  0  0  0  0  0  0  0
   22.4061  -22.0098  -14.2332 C   0  0  0  0  0  0  0  0  0  0  0  0
   22.0712  -21.5873  -12.8162 C   0  0  1  0  0  0  0  0  0  0  0  0
   23.1598  -20.7981  -12.2054 C   0  0  0  0  0  0  0  0  0  0  0  0
   23.1276  -19.5515  -12.3410 O   0  0  0  0  0  0  0  0  0  0  0  0
   25.2083  -20.1195   -7.6132 C   0  0  0  0  0  0  0  0  0  0  0  0
   24.7442  -21.1261   -8.6538 C   0  0  0  0  0  0  0  0  0  0  0  0
   25.8008  -21.1809   -9.7241 C   0  0  2  0  0  0  0  0  0  0  0  0
   27.0092  -20.4111   -9.2400 C   0  0  0  0  0  0  0  0  0  0  0  0
   25.3156  -20.6172  -11.0362 C   0  0  2  0  0  0  0  0  0  0  0  0
   24.1995  -21.4037  -11.4962 N   0  0  0  0  0  0  0  0  0  0  0  0
   26.4428  -20.7055  -12.0224 C   0  0  0  0  0  0  0  0  0  0  0  0
   27.4727  -21.3611  -11.7240 O   0  0  0  0  0  0  0  0  0  0  0  0
   27.5893  -21.5640  -14.6813 C   0  0  0  0  0  0  0  0  0  0  0  0
   27.3941  -20.1339  -14.2174 C   0  0  2  0  0  0  0  0  0  0  0  0
   26.3212  -20.0440  -13.2764 N   0  0  0  0  0  0  0  0  0  0  0  0
   27.1527  -19.2922  -15.4207 C   0  0  0  0  0  0  0  0  0  0  0  0
   26.0586  -18.6884  -15.6014 O   0  0  0  0  0  0  0  0  0  0  0  0
   28.1564  -19.1783  -16.3518 O   0  0  0  0  0  0  0  0  0  0  0  0
  2  1  1  0
  3  4  1  0
  3  2  1  0
  4  5  1  0
  5  1  1  0
  5  6  1  6
  7  6  2  0
  9  8  1  0
 10  9  1  0
 10 11  1  1
 12 10  1  0
 12 13  1  6
 13  6  1  0
 14 12  1  0
 15 14  2  0
 17 16  1  6
 17 18  1  0
 18 14  1  0
 19 17  1  0
 19 21  1  0
 20 19  2  0
M  END
$$$$
