PIA.pdb
     RDKit          3D

 21 21  0  0  1  0  0  0  0  0999 V2000
   20.2631  -20.8539  -13.4517 N   0  0  0  0  0  0  0  0  0  0  0  0
   19.2167  -21.3923  -14.2739 C   0  0  0  0  0  0  0  0  0  0  0  0
   19.8526  -22.4169  -15.1947 C   0  0  0  0  0  0  0  0  0  0  0  0
   21.3110  -21.9382  -15.1802 C   0  0  0  0  0  0  0  0  0  0  0  0
   21.4624  -21.6157  -13.7066 C   0  0  1  0  0  0  0  0  0  0  0  0
   22.6921  -20.8442  -13.4356 C   0  0  0  0  0  0  0  0  0  0  0  0
   22.6184  -19.5925  -13.4692 O   0  0  0  0  0  0  0  0  0  0  0  0
   25.3420  -20.2700  -10.0494 C   0  0  0  0  0  0  0  0  0  0  0  0
   25.4492  -21.6282  -10.7243 C   0  0  0  0  0  0  0  0  0  0  0  0
   26.0547  -21.4043  -12.0839 C   0  0  2  0  0  0  0  0  0  0  0  0
   27.3254  -20.6024  -11.9129 C   0  0  0  0  0  0  0  0  0  0  0  0
   25.1111  -20.6917  -13.0200 C   0  0  2  0  0  0  0  0  0  0  0  0
   23.9066  -21.4717  -13.1493 N   0  0  0  0  0  0  0  0  0  0  0  0
   25.7866  -20.5714  -14.3542 C   0  0  0  0  0  0  0  0  0  0  0  0
   26.1634  -21.6118  -14.9501 O   0  0  0  0  0  0  0  0  0  0  0  0
   26.5110  -17.7303  -16.7103 C   0  0  0  0  0  0  0  0  0  0  0  0
   26.5148  -19.1720  -16.2414 C   0  0  2  0  0  0  0  0  0  0  0  0
   25.9864  -19.2798  -14.9171 N   0  0  0  0  0  0  0  0  0  0  0  0
   27.9121  -19.6768  -16.3273 C   0  0  0  0  0  0  0  0  0  0  0  0
   28.4338  -20.0058  -17.4290 O   0  0  0  0  0  0  0  0  0  0  0  0
   28.6421  -19.7824  -15.1683 O   0  0  0  0  0  0  0  0  0  0  0  0
  2  1  1  0
  3  4  1  0
  3  2  1  0
  4  5  1  0
  5  1  1  0
  5  6  1  6
  7  6  2  0
  9  8  1  0
 10  9  1  0
 10 11  1  1
 12 10  1  0
 12 13  1  6
 13  6  1  0
 14 12  1  0
 15 14  2  0
 17 16  1  1
 17 18  1  0
 18 14  1  0
 19 17  1  0
 19 21  1  0
 20 19  2  0
M  END
$$$$
