PIA.pdb
     RDKit          3D

 21 21  0  0  1  0  0  0  0  0999 V2000
   21.4485  -11.3851  -20.2094 N   0  0  0  0  0  0  0  0  0  0  0  0
   20.6858  -11.0891  -21.3890 C   0  0  0  0  0  0  0  0  0  0  0  0
   20.5267   -9.5816  -21.4533 C   0  0  0  0  0  0  0  0  0  0  0  0
   20.7421   -9.2150  -19.9784 C   0  0  0  0  0  0  0  0  0  0  0  0
   21.9025  -10.1340  -19.6506 C   0  0  1  0  0  0  0  0  0  0  0  0
   22.1446  -10.2176  -18.1962 C   0  0  0  0  0  0  0  0  0  0  0  0
   21.3760  -10.9369  -17.5142 O   0  0  0  0  0  0  0  0  0  0  0  0
   26.9607  -10.8790  -16.3379 C   0  0  0  0  0  0  0  0  0  0  0  0
   25.4579  -10.9448  -16.5596 C   0  0  0  0  0  0  0  0  0  0  0  0
   24.8522   -9.7532  -15.8680 C   0  0  2  0  0  0  0  0  0  0  0  0
   25.0806   -9.8994  -14.3801 C   0  0  0  0  0  0  0  0  0  0  0  0
   23.3788   -9.6118  -16.1573 C   0  0  2  0  0  0  0  0  0  0  0  0
   23.1909   -9.5247  -17.5832 N   0  0  0  0  0  0  0  0  0  0  0  0
   22.8978   -8.3511  -15.5014 C   0  0  0  0  0  0  0  0  0  0  0  0
   22.8280   -8.2967  -14.2478 O   0  0  0  0  0  0  0  0  0  0  0  0
   22.3759   -4.8309  -16.5437 C   0  0  0  0  0  0  0  0  0  0  0  0
   22.0669   -6.0435  -15.6878 C   0  0  2  0  0  0  0  0  0  0  0  0
   22.5303   -7.2424  -16.3143 N   0  0  0  0  0  0  0  0  0  0  0  0
   20.5985   -6.0712  -15.4478 C   0  0  0  0  0  0  0  0  0  0  0  0
   19.8642   -6.9824  -15.9217 O   0  0  0  0  0  0  0  0  0  0  0  0
   20.0406   -5.0717  -14.6881 O   0  0  0  0  0  0  0  0  0  0  0  0
  2  1  1  0
  3  4  1  0
  3  2  1  0
  4  5  1  0
  5  1  1  0
  5  6  1  1
  7  6  2  0
  9  8  1  0
 10  9  1  0
 10 11  1  1
 12 10  1  0
 12 13  1  6
 13  6  1  0
 14 12  1  0
 15 14  2  0
 17 16  1  6
 17 18  1  0
 18 14  1  0
 19 17  1  0
 19 21  1  0
 20 19  2  0
M  END
$$$$
