PIA.pdb
     RDKit          3D

 21 21  0  0  1  0  0  0  0  0999 V2000
   28.5657  -20.1781  -15.7492 N   0  0  0  0  0  0  0  0  0  0  0  0
   28.9763  -19.1802  -16.6960 C   0  0  0  0  0  0  0  0  0  0  0  0
   28.3162  -17.8765  -16.2876 C   0  0  0  0  0  0  0  0  0  0  0  0
   27.1356  -18.4076  -15.4630 C   0  0  0  0  0  0  0  0  0  0  0  0
   27.8327  -19.5149  -14.6972 C   0  0  1  0  0  0  0  0  0  0  0  0
   26.8695  -20.4107  -14.0260 C   0  0  0  0  0  0  0  0  0  0  0  0
   26.5532  -21.4748  -14.6100 O   0  0  0  0  0  0  0  0  0  0  0  0
   26.2861  -20.5859   -8.5932 C   0  0  0  0  0  0  0  0  0  0  0  0
   26.4061  -21.0871  -10.0236 C   0  0  0  0  0  0  0  0  0  0  0  0
   25.1631  -20.6547  -10.7537 C   0  0  2  0  0  0  0  0  0  0  0  0
   23.9842  -21.4009  -10.1701 C   0  0  0  0  0  0  0  0  0  0  0  0
   25.2552  -20.9054  -12.2380 C   0  0  2  0  0  0  0  0  0  0  0  0
   26.3185  -20.0988  -12.7811 N   0  0  0  0  0  0  0  0  0  0  0  0
   23.9470  -20.5082  -12.8560 C   0  0  0  0  0  0  0  0  0  0  0  0
   23.5706  -19.3112  -12.7858 O   0  0  0  0  0  0  0  0  0  0  0  0
   21.7145  -21.9790  -15.3992 C   0  0  0  0  0  0  0  0  0  0  0  0
   21.9675  -21.0985  -14.1913 C   0  0  2  0  0  0  0  0  0  0  0  0
   23.1595  -21.4971  -13.5094 N   0  0  0  0  0  0  0  0  0  0  0  0
   20.7696  -21.1746  -13.3115 C   0  0  0  0  0  0  0  0  0  0  0  0
   19.6708  -20.6446  -13.6368 O   0  0  0  0  0  0  0  0  0  0  0  0
   20.8771  -21.8427  -12.1159 O   0  0  0  0  0  0  0  0  0  0  0  0
  2  1  1  0
  3  4  1  0
  3  2  1  0
  4  5  1  0
  5  1  1  0
  5  6  1  6
  7  6  2  0
  9  8  1  0
 10  9  1  0
 10 11  1  1
 12 10  1  0
 12 13  1  6
 13  6  1  0
 14 12  1  0
 15 14  2  0
 17 16  1  6
 17 18  1  0
 18 14  1  0
 19 17  1  0
 19 21  1  0
 20 19  2  0
M  END
$$$$
