PIA.pdb
     RDKit          3D

 21 21  0  0  1  0  0  0  0  0999 V2000
   18.1427   -8.0568  -14.3923 N   0  0  0  0  0  0  0  0  0  0  0  0
   18.7342   -9.1321  -15.1370 C   0  0  0  0  0  0  0  0  0  0  0  0
   17.5981   -9.9723  -15.6898 C   0  0  0  0  0  0  0  0  0  0  0  0
   16.4729   -9.5958  -14.7160 C   0  0  0  0  0  0  0  0  0  0  0  0
   16.7158   -8.1034  -14.6053 C   0  0  1  0  0  0  0  0  0  0  0  0
   15.9564   -7.5034  -13.4898 C   0  0  0  0  0  0  0  0  0  0  0  0
   14.7040   -7.5162  -13.5593 O   0  0  0  0  0  0  0  0  0  0  0  0
   17.3484   -9.0720  -10.0549 C   0  0  0  0  0  0  0  0  0  0  0  0
   16.0746   -8.2975   -9.7559 C   0  0  0  0  0  0  0  0  0  0  0  0
   16.3699   -6.8420   -9.9991 C   0  0  2  0  0  0  0  0  0  0  0  0
   15.7793   -6.0398   -8.8612 C   0  0  0  0  0  0  0  0  0  0  0  0
   15.8191   -6.3591  -11.3175 C   0  0  2  0  0  0  0  0  0  0  0  0
   16.5956   -6.9358  -12.3854 N   0  0  0  0  0  0  0  0  0  0  0  0
   15.9395   -4.8640  -11.3491 C   0  0  0  0  0  0  0  0  0  0  0  0
   17.0807   -4.3375  -11.3482 O   0  0  0  0  0  0  0  0  0  0  0  0
   13.6127   -2.0381  -12.0444 C   0  0  0  0  0  0  0  0  0  0  0  0
   14.8734   -2.6504  -11.4664 C   0  0  2  0  0  0  0  0  0  0  0  0
   14.7570   -4.0729  -11.3795 N   0  0  0  0  0  0  0  0  0  0  0  0
   15.1153   -2.0282  -10.1364 C   0  0  0  0  0  0  0  0  0  0  0  0
   14.6219   -2.5084   -9.0779 O   0  0  0  0  0  0  0  0  0  0  0  0
   15.8985   -0.9013  -10.0737 O   0  0  0  0  0  0  0  0  0  0  0  0
  2  1  1  0
  3  4  1  0
  3  2  1  0
  4  5  1  0
  5  1  1  0
  5  6  1  1
  7  6  2  0
  9  8  1  0
 10  9  1  0
 10 11  1  1
 12 10  1  0
 12 13  1  6
 13  6  1  0
 14 12  1  0
 15 14  2  0
 17 16  1  1
 17 18  1  0
 18 14  1  0
 19 17  1  0
 19 21  1  0
 20 19  2  0
M  END
$$$$
