PIA.pdb
     RDKit          3D

 21 21  0  0  1  0  0  0  0  0999 V2000
   23.0913  -19.1277  -17.2417 N   0  0  0  0  0  0  0  0  0  0  0  0
   23.1663  -20.5613  -17.2351 C   0  0  0  0  0  0  0  0  0  0  0  0
   22.3310  -21.0483  -16.0658 C   0  0  0  0  0  0  0  0  0  0  0  0
   22.3258  -19.7920  -15.1839 C   0  0  0  0  0  0  0  0  0  0  0  0
   22.1231  -18.7307  -16.2474 C   0  0  1  0  0  0  0  0  0  0  0  0
   22.3725  -17.3725  -15.7241 C   0  0  0  0  0  0  0  0  0  0  0  0
   21.6615  -16.9713  -14.7718 O   0  0  0  0  0  0  0  0  0  0  0  0
   26.8147  -16.6379  -15.7466 C   0  0  0  0  0  0  0  0  0  0  0  0
   25.8151  -15.9327  -14.8437 C   0  0  0  0  0  0  0  0  0  0  0  0
   25.0605  -14.9485  -15.6963 C   0  0  2  0  0  0  0  0  0  0  0  0
   25.3200  -13.5580  -15.1610 C   0  0  0  0  0  0  0  0  0  0  0  0
   23.5790  -15.2297  -15.7193 C   0  0  2  0  0  0  0  0  0  0  0  0
   23.3639  -16.5476  -16.2603 N   0  0  0  0  0  0  0  0  0  0  0  0
   22.9275  -14.2043  -16.5998 C   0  0  0  0  0  0  0  0  0  0  0  0
   23.3456  -14.0456  -17.7743 O   0  0  0  0  0  0  0  0  0  0  0  0
   19.6932  -12.6302  -16.8619 C   0  0  0  0  0  0  0  0  0  0  0  0
   21.2004  -12.4861  -16.9391 C   0  0  2  0  0  0  0  0  0  0  0  0
   21.8484  -13.4325  -16.0851 N   0  0  0  0  0  0  0  0  0  0  0  0
   21.5443  -11.0835  -16.5798 C   0  0  0  0  0  0  0  0  0  0  0  0
   22.2109  -10.8067  -15.5437 O   0  0  0  0  0  0  0  0  0  0  0  0
   21.1183  -10.0728  -17.4070 O   0  0  0  0  0  0  0  0  0  0  0  0
  2  1  1  0
  3  4  1  0
  3  2  1  0
  4  5  1  0
  5  1  1  0
  5  6  1  1
  7  6  2  0
  9  8  1  0
 10  9  1  0
 10 11  1  1
 12 10  1  0
 12 13  1  6
 13  6  1  0
 14 12  1  0
 15 14  2  0
 17 16  1  1
 17 18  1  0
 18 14  1  0
 19 17  1  0
 19 21  1  0
 20 19  2  0
M  END
$$$$
