QNF.pdb
     RDKit          3D

 29 29  0  0  1  0  0  0  0  0999 V2000
   28.6197  -15.5438  -15.5196 N   0  0  0  0  0  0  0  0  0  0  0  0
   28.2410  -16.5553  -16.4312 C   0  0  0  0  0  0  0  0  0  0  0  0
   28.9569  -16.7549  -17.4308 O   0  0  0  0  0  0  0  0  0  0  0  0
   27.0367  -17.3466  -16.1982 C   0  0  0  0  0  0  0  0  0  0  0  0
   26.6875  -17.6435  -14.7901 C   0  0  0  0  0  0  0  0  0  0  0  0
   27.2506  -18.9275  -14.2235 C   0  0  2  0  0  0  0  0  0  0  0  0
   27.3335  -20.0168  -15.1150 N   0  0  0  0  0  0  0  0  0  0  0  0
   26.6903  -19.2857  -12.9098 C   0  0  0  0  0  0  0  0  0  0  0  0
   26.5125  -18.3271  -12.1009 O   0  0  0  0  0  0  0  0  0  0  0  0
   23.4486  -22.0870  -13.6327 N   0  0  0  0  0  0  0  0  0  0  0  0
   23.5240  -21.4064  -12.4004 C   0  0  0  0  0  0  0  0  0  0  0  0
   22.7621  -20.4458  -12.1585 O   0  0  0  0  0  0  0  0  0  0  0  0
   24.4992  -21.8089  -11.3731 C   0  0  0  0  0  0  0  0  0  0  0  0
   25.5812  -20.7543  -11.2986 C   0  0  2  0  0  0  0  0  0  0  0  0
   26.3490  -20.5898  -12.4979 N   0  0  0  0  0  0  0  0  0  0  0  0
   26.4826  -21.0319  -10.1231 C   0  0  0  0  0  0  0  0  0  0  0  0
   27.3571  -21.9265  -10.1585 O   0  0  0  0  0  0  0  0  0  0  0  0
   26.3084  -20.2385   -8.9700 N   0  0  0  0  0  0  0  0  0  0  0  0
   27.0395  -20.5118   -7.7082 C   0  0  1  0  0  0  0  0  0  0  0  0
   27.8165  -19.2735   -7.3259 C   0  0  0  0  0  0  0  0  0  0  0  0
   28.4796  -19.4798   -6.0360 C   0  0  0  0  0  0  0  0  0  0  0  0
   27.9416  -19.0187   -4.8731 C   0  0  0  0  0  0  0  0  0  0  0  0
   28.6138  -19.2403   -3.6937 C   0  0  0  0  0  0  0  0  0  0  0  0
   29.8264  -19.9216   -3.6628 C   0  0  0  0  0  0  0  0  0  0  0  0
   30.3578  -20.3784   -4.8256 C   0  0  0  0  0  0  0  0  0  0  0  0
   29.6882  -20.1616   -6.0244 C   0  0  0  0  0  0  0  0  0  0  0  0
   26.1494  -21.0242   -6.6838 C   0  0  0  0  0  0  0  0  0  0  0  0
   26.6290  -21.7636   -5.5980 O   0  0  0  0  0  0  0  0  0  0  0  0
   24.9194  -20.8270   -6.7307 O   0  0  0  0  0  0  0  0  0  0  0  0
  1  2  1  0
  2  3  2  0
  4  2  1  0
  4  5  1  0
  6  5  1  0
  6  7  1  6
  8  9  2  0
  8  6  1  0
 10 11  1  0
 11 12  2  0
 11 13  1  0
 14 13  1  6
 14 15  1  0
 15  8  1  0
 16 18  1  0
 16 14  1  0
 17 16  2  0
 19 20  1  1
 19 18  1  0
 21 22  2  0
 21 20  1  0
 23 22  1  0
 24 23  2  0
 25 24  1  0
 25 26  2  0
 26 21  1  0
 27 19  1  0
 28 27  1  0
 29 27  2  0
M  END
$$$$
