QNF.pdb
     RDKit          3D

 29 29  0  0  1  0  0  0  0  0999 V2000
   30.2202  -22.4858  -17.5474 N   0  0  0  0  0  0  0  0  0  0  0  0
   29.1854  -21.5712  -17.2468 C   0  0  0  0  0  0  0  0  0  0  0  0
   28.8078  -20.7854  -18.1365 O   0  0  0  0  0  0  0  0  0  0  0  0
   28.5755  -21.5555  -15.9207 C   0  0  0  0  0  0  0  0  0  0  0  0
   27.1210  -21.8224  -15.8447 C   0  0  0  0  0  0  0  0  0  0  0  0
   26.6843  -23.2254  -16.2020 C   0  0  2  0  0  0  0  0  0  0  0  0
   27.1270  -23.7161  -17.4475 N   0  0  0  0  0  0  0  0  0  0  0  0
   25.2572  -23.4802  -15.9446 C   0  0  0  0  0  0  0  0  0  0  0  0
   24.4431  -22.9671  -16.7686 O   0  0  0  0  0  0  0  0  0  0  0  0
   23.3102  -27.7366  -16.0237 N   0  0  0  0  0  0  0  0  0  0  0  0
   22.6740  -26.5060  -15.7623 C   0  0  0  0  0  0  0  0  0  0  0  0
   21.9331  -25.9799  -16.6202 O   0  0  0  0  0  0  0  0  0  0  0  0
   22.8672  -25.8132  -14.4773 C   0  0  0  0  0  0  0  0  0  0  0  0
   23.3256  -24.3992  -14.7582 C   0  0  2  0  0  0  0  0  0  0  0  0
   24.7452  -24.2345  -14.8695 N   0  0  0  0  0  0  0  0  0  0  0  0
   22.7610  -23.4651  -13.7189 C   0  0  0  0  0  0  0  0  0  0  0  0
   22.5634  -23.8322  -12.5388 O   0  0  0  0  0  0  0  0  0  0  0  0
   22.4628  -22.1474  -14.1241 N   0  0  0  0  0  0  0  0  0  0  0  0
   21.9604  -21.1256  -13.1729 C   0  0  1  0  0  0  0  0  0  0  0  0
   22.9997  -20.0361  -13.0458 C   0  0  0  0  0  0  0  0  0  0  0  0
   24.1096  -20.5013  -12.2106 C   0  0  0  0  0  0  0  0  0  0  0  0
   25.2334  -21.0466  -12.7530 C   0  0  0  0  0  0  0  0  0  0  0  0
   26.2402  -21.4688  -11.9162 C   0  0  0  0  0  0  0  0  0  0  0  0
   26.1358  -21.3522  -10.5337 C   0  0  0  0  0  0  0  0  0  0  0  0
   25.0127  -20.8081   -9.9992 C   0  0  0  0  0  0  0  0  0  0  0  0
   23.9882  -20.3769  -10.8338 C   0  0  0  0  0  0  0  0  0  0  0  0
   20.6317  -20.6731  -13.5387 C   0  0  0  0  0  0  0  0  0  0  0  0
   19.8376  -19.9371  -12.6534 O   0  0  0  0  0  0  0  0  0  0  0  0
   20.1427  -20.9233  -14.6577 O   0  0  0  0  0  0  0  0  0  0  0  0
  1  2  1  0
  2  3  2  0
  4  2  1  0
  4  5  1  0
  6  5  1  0
  6  7  1  6
  8  9  2  0
  8  6  1  0
 10 11  1  0
 11 12  2  0
 11 13  1  0
 14 13  1  1
 14 15  1  0
 15  8  1  0
 16 18  1  0
 16 14  1  0
 17 16  2  0
 19 20  1  6
 19 18  1  0
 21 22  2  0
 21 20  1  0
 23 22  1  0
 24 23  2  0
 25 24  1  0
 25 26  2  0
 26 21  1  0
 27 19  1  0
 28 27  1  0
 29 27  2  0
M  END
$$$$
