QNF.pdb
     RDKit          3D

 29 29  0  0  1  0  0  0  0  0999 V2000
   27.1214  -14.6322  -14.8357 N   0  0  0  0  0  0  0  0  0  0  0  0
   27.0435  -15.1738  -16.1389 C   0  0  0  0  0  0  0  0  0  0  0  0
   27.6143  -14.5730  -17.0688 O   0  0  0  0  0  0  0  0  0  0  0  0
   26.3101  -16.4123  -16.3814 C   0  0  0  0  0  0  0  0  0  0  0  0
   25.6852  -17.0661  -15.2089 C   0  0  0  0  0  0  0  0  0  0  0  0
   26.5429  -18.0723  -14.4750 C   0  0  2  0  0  0  0  0  0  0  0  0
   27.3206  -18.9305  -15.2792 N   0  0  0  0  0  0  0  0  0  0  0  0
   25.8328  -18.7691  -13.3895 C   0  0  0  0  0  0  0  0  0  0  0  0
   24.8593  -18.1454  -12.8715 O   0  0  0  0  0  0  0  0  0  0  0  0
   25.6402  -24.0549  -12.5440 N   0  0  0  0  0  0  0  0  0  0  0  0
   25.4182  -22.7260  -12.9588 C   0  0  0  0  0  0  0  0  0  0  0  0
   25.9406  -22.2933  -14.0084 O   0  0  0  0  0  0  0  0  0  0  0  0
   24.5694  -21.8191  -12.1680 C   0  0  0  0  0  0  0  0  0  0  0  0
   25.3764  -20.5881  -11.8191 C   0  0  2  0  0  0  0  0  0  0  0  0
   26.1544  -20.0497  -12.8961 N   0  0  0  0  0  0  0  0  0  0  0  0
   26.2480  -20.8728  -10.6230 C   0  0  0  0  0  0  0  0  0  0  0  0
   27.4843  -21.0351  -10.7307 O   0  0  0  0  0  0  0  0  0  0  0  0
   25.6175  -20.9475   -9.3635 N   0  0  0  0  0  0  0  0  0  0  0  0
   26.3903  -21.0286   -8.0996 C   0  0  1  0  0  0  0  0  0  0  0  0
   27.3806  -19.8877   -8.0685 C   0  0  0  0  0  0  0  0  0  0  0  0
   28.0571  -19.8505   -6.7697 C   0  0  0  0  0  0  0  0  0  0  0  0
   27.7570  -18.9084   -5.8333 C   0  0  0  0  0  0  0  0  0  0  0  0
   28.4297  -18.9230   -4.6336 C   0  0  0  0  0  0  0  0  0  0  0  0
   29.4064  -19.8744   -4.3572 C   0  0  0  0  0  0  0  0  0  0  0  0
   29.7014  -20.8106   -5.2950 C   0  0  0  0  0  0  0  0  0  0  0  0
   29.0285  -20.8074   -6.5113 C   0  0  0  0  0  0  0  0  0  0  0  0
   25.5111  -21.1159   -6.9491 C   0  0  0  0  0  0  0  0  0  0  0  0
   24.1781  -20.6976   -7.0109 O   0  0  0  0  0  0  0  0  0  0  0  0
   25.9091  -21.5666   -5.8571 O   0  0  0  0  0  0  0  0  0  0  0  0
  1  2  1  0
  2  3  2  0
  4  2  1  0
  4  5  1  0
  6  5  1  0
  6  7  1  6
  8  9  2  0
  8  6  1  0
 10 11  1  0
 11 12  2  0
 11 13  1  0
 14 13  1  6
 14 15  1  0
 15  8  1  0
 16 18  1  0
 16 14  1  0
 17 16  2  0
 19 20  1  1
 19 18  1  0
 21 22  2  0
 21 20  1  0
 23 22  1  0
 24 23  2  0
 25 24  1  0
 25 26  2  0
 26 21  1  0
 27 19  1  0
 28 27  1  0
 29 27  2  0
M  END
$$$$
