QNF.pdb
     RDKit          3D

 29 29  0  0  1  0  0  0  0  0999 V2000
   23.1618  -23.6023  -17.5791 N   0  0  0  0  0  0  0  0  0  0  0  0
   23.4667  -24.0963  -18.8678 C   0  0  0  0  0  0  0  0  0  0  0  0
   24.2011  -23.4155  -19.6085 O   0  0  0  0  0  0  0  0  0  0  0  0
   22.9305  -25.3789  -19.3130 C   0  0  0  0  0  0  0  0  0  0  0  0
   22.1201  -26.1452  -18.3390 C   0  0  0  0  0  0  0  0  0  0  0  0
   22.8802  -27.1101  -17.4570 C   0  0  2  0  0  0  0  0  0  0  0  0
   23.5922  -28.1302  -18.1206 N   0  0  0  0  0  0  0  0  0  0  0  0
   22.1002  -27.5927  -16.3052 C   0  0  0  0  0  0  0  0  0  0  0  0
   21.3320  -28.5755  -16.5262 O   0  0  0  0  0  0  0  0  0  0  0  0
   20.5997  -27.8036  -10.4659 N   0  0  0  0  0  0  0  0  0  0  0  0
   20.9135  -28.3470  -11.7283 C   0  0  0  0  0  0  0  0  0  0  0  0
   20.3743  -29.4060  -12.1151 O   0  0  0  0  0  0  0  0  0  0  0  0
   21.8811  -27.6828  -12.6177 C   0  0  0  0  0  0  0  0  0  0  0  0
   21.2773  -27.5916  -14.0017 C   0  0  2  0  0  0  0  0  0  0  0  0
   22.1450  -27.0489  -15.0055 N   0  0  0  0  0  0  0  0  0  0  0  0
   19.9835  -26.8208  -13.9430 C   0  0  0  0  0  0  0  0  0  0  0  0
   19.9584  -25.5886  -13.7248 O   0  0  0  0  0  0  0  0  0  0  0  0
   18.7887  -27.5417  -14.1480 N   0  0  0  0  0  0  0  0  0  0  0  0
   17.4554  -26.8961  -14.0658 C   0  0  1  0  0  0  0  0  0  0  0  0
   17.4286  -25.7266  -15.0224 C   0  0  0  0  0  0  0  0  0  0  0  0
   16.1233  -25.0645  -14.9634 C   0  0  0  0  0  0  0  0  0  0  0  0
   15.8435  -24.1168  -14.0264 C   0  0  0  0  0  0  0  0  0  0  0  0
   14.5977  -23.5336  -14.0196 C   0  0  0  0  0  0  0  0  0  0  0  0
   13.6212  -23.8896  -14.9443 C   0  0  0  0  0  0  0  0  0  0  0  0
   13.9062  -24.8354  -15.8756 C   0  0  0  0  0  0  0  0  0  0  0  0
   15.1615  -25.4321  -15.8939 C   0  0  0  0  0  0  0  0  0  0  0  0
   16.3894  -27.8639  -14.2424 C   0  0  0  0  0  0  0  0  0  0  0  0
   16.6577  -29.2119  -14.5006 O   0  0  0  0  0  0  0  0  0  0  0  0
   15.1897  -27.5326  -14.1724 O   0  0  0  0  0  0  0  0  0  0  0  0
  1  2  1  0
  2  3  2  0
  4  2  1  0
  4  5  1  0
  6  5  1  0
  6  7  1  6
  8  9  2  0
  8  6  1  0
 10 11  1  0
 11 12  2  0
 11 13  1  0
 14 13  1  1
 14 15  1  0
 15  8  1  0
 16 18  1  0
 16 14  1  0
 17 16  2  0
 19 20  1  6
 19 18  1  0
 21 22  2  0
 21 20  1  0
 23 22  1  0
 24 23  2  0
 25 24  1  0
 25 26  2  0
 26 21  1  0
 27 19  1  0
 28 27  1  0
 29 27  2  0
M  END
$$$$
