QNF.pdb
     RDKit          3D

 29 29  0  0  1  0  0  0  0  0999 V2000
   22.8710  -16.8225  -19.7843 N   0  0  0  0  0  0  0  0  0  0  0  0
   22.9695  -18.1445  -20.2746 C   0  0  0  0  0  0  0  0  0  0  0  0
   21.9981  -18.6265  -20.8875 O   0  0  0  0  0  0  0  0  0  0  0  0
   24.1877  -18.9211  -20.0655 C   0  0  0  0  0  0  0  0  0  0  0  0
   24.0552  -20.1959  -19.3238 C   0  0  0  0  0  0  0  0  0  0  0  0
   24.0813  -20.0917  -17.8155 C   0  0  2  0  0  0  0  0  0  0  0  0
   25.1597  -19.3726  -17.2605 N   0  0  0  0  0  0  0  0  0  0  0  0
   23.8148  -21.3691  -17.1334 C   0  0  0  0  0  0  0  0  0  0  0  0
   24.3917  -22.3884  -17.6163 O   0  0  0  0  0  0  0  0  0  0  0  0
   26.3403  -23.3996  -15.0552 N   0  0  0  0  0  0  0  0  0  0  0  0
   25.9246  -22.0592  -15.1887 C   0  0  0  0  0  0  0  0  0  0  0  0
   26.4757  -21.3034  -16.0174 O   0  0  0  0  0  0  0  0  0  0  0  0
   24.8357  -21.5193  -14.3572 C   0  0  0  0  0  0  0  0  0  0  0  0
   23.5299  -22.1237  -14.8242 C   0  0  2  0  0  0  0  0  0  0  0  0
   22.9802  -21.5339  -16.0095 N   0  0  0  0  0  0  0  0  0  0  0  0
   22.5256  -22.0961  -13.7008 C   0  0  0  0  0  0  0  0  0  0  0  0
   22.0330  -23.1458  -13.2297 O   0  0  0  0  0  0  0  0  0  0  0  0
   22.1579  -20.8340  -13.1897 N   0  0  0  0  0  0  0  0  0  0  0  0
   21.2079  -20.6883  -12.0594 C   0  0  1  0  0  0  0  0  0  0  0  0
   21.7486  -19.6451  -11.1094 C   0  0  0  0  0  0  0  0  0  0  0  0
   22.9382  -20.1609  -10.4277 C   0  0  0  0  0  0  0  0  0  0  0  0
   24.1949  -19.8821  -10.8723 C   0  0  0  0  0  0  0  0  0  0  0  0
   25.2727  -20.3989  -10.1915 C   0  0  0  0  0  0  0  0  0  0  0  0
   25.1080  -21.1974   -9.0642 C   0  0  0  0  0  0  0  0  0  0  0  0
   23.8526  -21.4720   -8.6264 C   0  0  0  0  0  0  0  0  0  0  0  0
   22.7549  -20.9554   -9.3048 C   0  0  0  0  0  0  0  0  0  0  0  0
   19.8573  -20.4526  -12.5332 C   0  0  0  0  0  0  0  0  0  0  0  0
   18.7401  -20.7872  -11.7612 O   0  0  0  0  0  0  0  0  0  0  0  0
   19.6375  -19.9428  -13.6493 O   0  0  0  0  0  0  0  0  0  0  0  0
  1  2  1  0
  2  3  2  0
  4  2  1  0
  4  5  1  0
  6  5  1  0
  6  7  1  6
  8  9  2  0
  8  6  1  0
 10 11  1  0
 11 12  2  0
 11 13  1  0
 14 13  1  1
 14 15  1  0
 15  8  1  0
 16 18  1  0
 16 14  1  0
 17 16  2  0
 19 20  1  1
 19 18  1  0
 21 22  2  0
 21 20  1  0
 23 22  1  0
 24 23  2  0
 25 24  1  0
 25 26  2  0
 26 21  1  0
 27 19  1  0
 28 27  1  0
 29 27  2  0
M  END
$$$$
