QNF.pdb
     RDKit          3D

 29 29  0  0  1  0  0  0  0  0999 V2000
   24.6473  -15.1173  -15.3139 N   0  0  0  0  0  0  0  0  0  0  0  0
   25.9626  -14.9236  -15.7937 C   0  0  0  0  0  0  0  0  0  0  0  0
   26.1376  -14.1562  -16.7591 O   0  0  0  0  0  0  0  0  0  0  0  0
   27.0869  -15.6098  -15.1646 C   0  0  0  0  0  0  0  0  0  0  0  0
   26.7883  -16.4458  -13.9793 C   0  0  0  0  0  0  0  0  0  0  0  0
   26.9613  -17.9373  -14.1587 C   0  0  2  0  0  0  0  0  0  0  0  0
   27.0914  -18.3928  -15.4868 N   0  0  0  0  0  0  0  0  0  0  0  0
   26.0255  -18.7387  -13.3525 C   0  0  0  0  0  0  0  0  0  0  0  0
   24.8497  -18.8491  -13.8112 O   0  0  0  0  0  0  0  0  0  0  0  0
   24.7909  -22.4891  -13.5306 N   0  0  0  0  0  0  0  0  0  0  0  0
   26.1426  -22.3727  -13.9136 C   0  0  0  0  0  0  0  0  0  0  0  0
   26.5775  -22.9983  -14.9043 O   0  0  0  0  0  0  0  0  0  0  0  0
   27.0711  -21.5153  -13.1580 C   0  0  0  0  0  0  0  0  0  0  0  0
   26.2935  -20.8054  -12.0719 C   0  0  2  0  0  0  0  0  0  0  0  0
   26.3378  -19.3739  -12.1336 N   0  0  0  0  0  0  0  0  0  0  0  0
   26.7452  -21.2943  -10.7197 C   0  0  0  0  0  0  0  0  0  0  0  0
   27.8802  -21.7910  -10.5426 O   0  0  0  0  0  0  0  0  0  0  0  0
   25.8373  -21.1687   -9.6476 N   0  0  0  0  0  0  0  0  0  0  0  0
   26.2906  -21.0858   -8.2373 C   0  0  1  0  0  0  0  0  0  0  0  0
   27.3585  -20.0213   -8.1383 C   0  0  0  0  0  0  0  0  0  0  0  0
   27.7678  -19.8546   -6.7416 C   0  0  0  0  0  0  0  0  0  0  0  0
   27.2971  -18.8321   -5.9753 C   0  0  0  0  0  0  0  0  0  0  0  0
   27.7217  -18.7263   -4.6712 C   0  0  0  0  0  0  0  0  0  0  0  0
   28.6182  -19.6365   -4.1205 C   0  0  0  0  0  0  0  0  0  0  0  0
   29.0842  -20.6534   -4.8898 C   0  0  0  0  0  0  0  0  0  0  0  0
   28.6625  -20.7720   -6.2090 C   0  0  0  0  0  0  0  0  0  0  0  0
   25.1691  -20.9228   -7.3320 C   0  0  0  0  0  0  0  0  0  0  0  0
   24.0085  -20.2437   -7.7165 O   0  0  0  0  0  0  0  0  0  0  0  0
   25.1949  -21.3806   -6.1728 O   0  0  0  0  0  0  0  0  0  0  0  0
  1  2  1  0
  2  3  2  0
  4  2  1  0
  4  5  1  0
  6  5  1  0
  6  7  1  6
  8  9  2  0
  8  6  1  0
 10 11  1  0
 11 12  2  0
 11 13  1  0
 14 13  1  6
 14 15  1  0
 15  8  1  0
 16 18  1  0
 16 14  1  0
 17 16  2  0
 19 20  1  6
 19 18  1  0
 21 22  2  0
 21 20  1  0
 23 22  1  0
 24 23  2  0
 25 24  1  0
 25 26  2  0
 26 21  1  0
 27 19  1  0
 28 27  1  0
 29 27  2  0
M  END
$$$$
