QNF.pdb
     RDKit          3D

 29 29  0  0  1  0  0  0  0  0999 V2000
   29.3107  -21.3821  -16.3590 N   0  0  0  0  0  0  0  0  0  0  0  0
   29.1349  -20.4356  -17.3939 C   0  0  0  0  0  0  0  0  0  0  0  0
   29.6185  -20.6820  -18.5151 O   0  0  0  0  0  0  0  0  0  0  0  0
   28.3989  -19.1995  -17.1471 C   0  0  0  0  0  0  0  0  0  0  0  0
   27.7530  -19.0528  -15.8227 C   0  0  0  0  0  0  0  0  0  0  0  0
   26.5580  -19.9429  -15.5651 C   0  0  2  0  0  0  0  0  0  0  0  0
   25.7970  -20.3048  -16.6957 N   0  0  0  0  0  0  0  0  0  0  0  0
   25.7389  -19.5105  -14.4205 C   0  0  0  0  0  0  0  0  0  0  0  0
   26.2484  -18.6206  -13.6765 O   0  0  0  0  0  0  0  0  0  0  0  0
   21.6238  -22.2361  -13.1642 N   0  0  0  0  0  0  0  0  0  0  0  0
   21.9525  -20.9210  -13.5513 C   0  0  0  0  0  0  0  0  0  0  0  0
   21.7876  -20.5473  -14.7324 O   0  0  0  0  0  0  0  0  0  0  0  0
   22.4969  -19.9601  -12.5773 C   0  0  0  0  0  0  0  0  0  0  0  0
   23.9990  -19.9034  -12.7467 C   0  0  2  0  0  0  0  0  0  0  0  0
   24.4594  -20.0077  -14.1003 N   0  0  0  0  0  0  0  0  0  0  0  0
   24.6490  -20.9520  -11.8809 C   0  0  0  0  0  0  0  0  0  0  0  0
   25.4968  -21.7519  -12.3369 O   0  0  0  0  0  0  0  0  0  0  0  0
   24.2685  -21.0001  -10.5236 N   0  0  0  0  0  0  0  0  0  0  0  0
   25.2656  -21.0964   -9.4292 C   0  0  1  0  0  0  0  0  0  0  0  0
   26.2857  -19.9965   -9.6111 C   0  0  0  0  0  0  0  0  0  0  0  0
   27.2359  -20.0090   -8.4963 C   0  0  0  0  0  0  0  0  0  0  0  0
   28.2451  -20.9206   -8.4266 C   0  0  0  0  0  0  0  0  0  0  0  0
   29.1034  -20.8839   -7.3523 C   0  0  0  0  0  0  0  0  0  0  0  0
   28.9634  -19.9406   -6.3393 C   0  0  0  0  0  0  0  0  0  0  0  0
   27.9549  -19.0349   -6.4144 C   0  0  0  0  0  0  0  0  0  0  0  0
   27.0810  -19.0606   -7.4951 C   0  0  0  0  0  0  0  0  0  0  0  0
   24.6206  -21.1329   -8.1304 C   0  0  0  0  0  0  0  0  0  0  0  0
   25.0670  -21.9826   -7.1132 O   0  0  0  0  0  0  0  0  0  0  0  0
   23.6405  -20.4085   -7.8685 O   0  0  0  0  0  0  0  0  0  0  0  0
  1  2  1  0
  2  3  2  0
  4  2  1  0
  4  5  1  0
  6  5  1  0
  6  7  1  6
  8  9  2  0
  8  6  1  0
 10 11  1  0
 11 12  2  0
 11 13  1  0
 14 13  1  6
 14 15  1  0
 15  8  1  0
 16 18  1  0
 16 14  1  0
 17 16  2  0
 19 20  1  1
 19 18  1  0
 21 22  2  0
 21 20  1  0
 23 22  1  0
 24 23  2  0
 25 24  1  0
 25 26  2  0
 26 21  1  0
 27 19  1  0
 28 27  1  0
 29 27  2  0
M  END
$$$$
