QNF.pdb
     RDKit          3D

 29 29  0  0  1  0  0  0  0  0999 V2000
   14.2867  -23.0236   -4.9055 N   0  0  0  0  0  0  0  0  0  0  0  0
   13.4250  -23.4571   -3.8724 C   0  0  0  0  0  0  0  0  0  0  0  0
   12.2605  -23.7866   -4.1670 O   0  0  0  0  0  0  0  0  0  0  0  0
   13.8978  -23.5169   -2.4927 C   0  0  0  0  0  0  0  0  0  0  0  0
   14.0794  -22.2283   -1.7861 C   0  0  0  0  0  0  0  0  0  0  0  0
   15.3832  -22.0594   -1.0390 C   0  0  2  0  0  0  0  0  0  0  0  0
   16.3007  -23.1252   -1.1407 N   0  0  0  0  0  0  0  0  0  0  0  0
   15.2124  -21.5613    0.3360 C   0  0  0  0  0  0  0  0  0  0  0  0
   14.3692  -20.6283    0.4889 O   0  0  0  0  0  0  0  0  0  0  0  0
   14.8125  -20.3477    5.0541 N   0  0  0  0  0  0  0  0  0  0  0  0
   15.2450  -21.6877    5.1231 C   0  0  0  0  0  0  0  0  0  0  0  0
   15.2511  -22.2971    6.2141 O   0  0  0  0  0  0  0  0  0  0  0  0
   15.6991  -22.3984    3.9160 C   0  0  0  0  0  0  0  0  0  0  0  0
   15.6308  -21.4454    2.7432 C   0  0  2  0  0  0  0  0  0  0  0  0
   15.9071  -22.0364    1.4668 N   0  0  0  0  0  0  0  0  0  0  0  0
   16.5367  -20.2667    2.9916 C   0  0  0  0  0  0  0  0  0  0  0  0
   17.7752  -20.3397    2.8268 O   0  0  0  0  0  0  0  0  0  0  0  0
   15.9350  -19.0641    3.4171 N   0  0  0  0  0  0  0  0  0  0  0  0
   16.7262  -17.8355    3.6737 C   0  0  1  0  0  0  0  0  0  0  0  0
   16.5524  -16.8990    2.5006 C   0  0  0  0  0  0  0  0  0  0  0  0
   17.3596  -15.6932    2.7019 C   0  0  0  0  0  0  0  0  0  0  0  0
   18.6662  -15.6354    2.3226 C   0  0  0  0  0  0  0  0  0  0  0  0
   19.3732  -14.4760    2.5418 C   0  0  0  0  0  0  0  0  0  0  0  0
   18.7856  -13.3661    3.1405 C   0  0  0  0  0  0  0  0  0  0  0  0
   17.4828  -13.4303    3.5168 C   0  0  0  0  0  0  0  0  0  0  0  0
   16.7568  -14.5958    3.3004 C   0  0  0  0  0  0  0  0  0  0  0  0
   16.4114  -17.2672    4.9706 C   0  0  0  0  0  0  0  0  0  0  0  0
   17.3973  -16.6910    5.7781 O   0  0  0  0  0  0  0  0  0  0  0  0
   15.2482  -17.2705    5.4190 O   0  0  0  0  0  0  0  0  0  0  0  0
  1  2  1  0
  2  3  2  0
  4  2  1  0
  4  5  1  0
  6  5  1  0
  6  7  1  1
  8  9  2  0
  8  6  1  0
 10 11  1  0
 11 12  2  0
 11 13  1  0
 14 13  1  1
 14 15  1  0
 15  8  1  0
 16 18  1  0
 16 14  1  0
 17 16  2  0
 19 20  1  6
 19 18  1  0
 21 22  2  0
 21 20  1  0
 23 22  1  0
 24 23  2  0
 25 24  1  0
 25 26  2  0
 26 21  1  0
 27 19  1  0
 28 27  1  0
 29 27  2  0
M  END
$$$$
