QNF.pdb
     RDKit          3D

 29 29  0  0  1  0  0  0  0  0999 V2000
   21.0766  -12.3323    5.7710 N   0  0  0  0  0  0  0  0  0  0  0  0
   19.9789  -11.6798    5.1651 C   0  0  0  0  0  0  0  0  0  0  0  0
   20.1659  -10.5695    4.6325 O   0  0  0  0  0  0  0  0  0  0  0  0
   18.6582  -12.3014    5.1655 C   0  0  0  0  0  0  0  0  0  0  0  0
   18.5570  -13.6685    5.7255 C   0  0  0  0  0  0  0  0  0  0  0  0
   17.2358  -14.3743    5.5180 C   0  0  2  0  0  0  0  0  0  0  0  0
   16.1039  -13.7547    6.0863 N   0  0  0  0  0  0  0  0  0  0  0  0
   17.2984  -15.8241    5.7675 C   0  0  0  0  0  0  0  0  0  0  0  0
   16.7850  -16.2241    6.8544 O   0  0  0  0  0  0  0  0  0  0  0  0
   15.7404  -19.9482    4.1658 N   0  0  0  0  0  0  0  0  0  0  0  0
   16.8129  -19.1635    3.6954 C   0  0  0  0  0  0  0  0  0  0  0  0
   16.6711  -18.4304    2.6933 O   0  0  0  0  0  0  0  0  0  0  0  0
   18.1214  -19.1895    4.3704 C   0  0  0  0  0  0  0  0  0  0  0  0
   18.1483  -18.0894    5.4084 C   0  0  2  0  0  0  0  0  0  0  0  0
   17.8785  -16.7750    4.9038 N   0  0  0  0  0  0  0  0  0  0  0  0
   19.4624  -18.1173    6.1458 C   0  0  0  0  0  0  0  0  0  0  0  0
   20.5349  -17.7781    5.5969 O   0  0  0  0  0  0  0  0  0  0  0  0
   19.4427  -18.5394    7.4914 N   0  0  0  0  0  0  0  0  0  0  0  0
   20.6744  -18.5981    8.3166 C   0  0  1  0  0  0  0  0  0  0  0  0
   20.8111  -17.2943    9.0682 C   0  0  0  0  0  0  0  0  0  0  0  0
   22.0463  -17.3003    9.8556 C   0  0  0  0  0  0  0  0  0  0  0  0
   23.2599  -17.0649    9.2845 C   0  0  0  0  0  0  0  0  0  0  0  0
   24.3847  -17.0878   10.0760 C   0  0  0  0  0  0  0  0  0  0  0  0
   24.3103  -17.3459   11.4410 C   0  0  0  0  0  0  0  0  0  0  0  0
   23.0975  -17.5803   12.0043 C   0  0  0  0  0  0  0  0  0  0  0  0
   21.9529  -17.5594   11.2157 C   0  0  0  0  0  0  0  0  0  0  0  0
   20.7009  -19.7921    9.1398 C   0  0  0  0  0  0  0  0  0  0  0  0
   21.8989  -20.4452    9.4467 O   0  0  0  0  0  0  0  0  0  0  0  0
   19.6556  -20.2858    9.6064 O   0  0  0  0  0  0  0  0  0  0  0  0
  1  2  1  0
  2  3  2  0
  4  2  1  0
  4  5  1  0
  6  5  1  0
  6  7  1  1
  8  9  2  0
  8  6  1  0
 10 11  1  0
 11 12  2  0
 11 13  1  0
 14 13  1  6
 14 15  1  0
 15  8  1  0
 16 18  1  0
 16 14  1  0
 17 16  2  0
 19 20  1  1
 19 18  1  0
 21 22  2  0
 21 20  1  0
 23 22  1  0
 24 23  2  0
 25 24  1  0
 25 26  2  0
 26 21  1  0
 27 19  1  0
 28 27  1  0
 29 27  2  0
M  END
$$$$
