QNF.pdb
     RDKit          3D

 29 29  0  0  1  0  0  0  0  0999 V2000
   22.4080  -18.8157  -16.0868 N   0  0  0  0  0  0  0  0  0  0  0  0
   21.4901  -18.8075  -15.0121 C   0  0  0  0  0  0  0  0  0  0  0  0
   20.5348  -18.0092  -15.0506 O   0  0  0  0  0  0  0  0  0  0  0  0
   21.6633  -19.7198  -13.8858 C   0  0  0  0  0  0  0  0  0  0  0  0
   22.8393  -20.6191  -13.9217 C   0  0  0  0  0  0  0  0  0  0  0  0
   23.9630  -20.2801  -12.9683 C   0  0  2  0  0  0  0  0  0  0  0  0
   24.4341  -18.9517  -13.0096 N   0  0  0  0  0  0  0  0  0  0  0  0
   25.0398  -21.2841  -12.9483 C   0  0  0  0  0  0  0  0  0  0  0  0
   25.3759  -21.7618  -14.0725 O   0  0  0  0  0  0  0  0  0  0  0  0
   29.7889  -21.2978  -11.6096 N   0  0  0  0  0  0  0  0  0  0  0  0
   29.1169  -20.3735  -12.4351 C   0  0  0  0  0  0  0  0  0  0  0  0
   29.7559  -19.5039  -13.0653 O   0  0  0  0  0  0  0  0  0  0  0  0
   27.6513  -20.4098  -12.5735 C   0  0  0  0  0  0  0  0  0  0  0  0
   27.1092  -21.4869  -11.6600 C   0  0  2  0  0  0  0  0  0  0  0  0
   25.7049  -21.7425  -11.7931 N   0  0  0  0  0  0  0  0  0  0  0  0
   27.4584  -21.1647  -10.2297 C   0  0  0  0  0  0  0  0  0  0  0  0
   28.5679  -21.4686   -9.7365 O   0  0  0  0  0  0  0  0  0  0  0  0
   26.4838  -20.4986   -9.4578 N   0  0  0  0  0  0  0  0  0  0  0  0
   26.3983  -20.6621   -7.9856 C   0  0  1  0  0  0  0  0  0  0  0  0
   26.8343  -19.3707   -7.3332 C   0  0  0  0  0  0  0  0  0  0  0  0
   27.8357  -19.6476   -6.3006 C   0  0  0  0  0  0  0  0  0  0  0  0
   27.5628  -20.4527   -5.2368 C   0  0  0  0  0  0  0  0  0  0  0  0
   28.5436  -20.6716   -4.2975 C   0  0  0  0  0  0  0  0  0  0  0  0
   29.8027  -20.0905   -4.4095 C   0  0  0  0  0  0  0  0  0  0  0  0
   30.0684  -19.2884   -5.4721 C   0  0  0  0  0  0  0  0  0  0  0  0
   29.0862  -19.0595   -6.4287 C   0  0  0  0  0  0  0  0  0  0  0  0
   25.0915  -21.1473   -7.5843 C   0  0  0  0  0  0  0  0  0  0  0  0
   24.0182  -21.1908   -8.4798 O   0  0  0  0  0  0  0  0  0  0  0  0
   24.8717  -21.5443   -6.4232 O   0  0  0  0  0  0  0  0  0  0  0  0
  1  2  1  0
  2  3  2  0
  4  2  1  0
  4  5  1  0
  6  5  1  0
  6  7  1  6
  8  9  2  0
  8  6  1  0
 10 11  1  0
 11 12  2  0
 11 13  1  0
 14 13  1  6
 14 15  1  0
 15  8  1  0
 16 18  1  0
 16 14  1  0
 17 16  2  0
 19 20  1  1
 19 18  1  0
 21 22  2  0
 21 20  1  0
 23 22  1  0
 24 23  2  0
 25 24  1  0
 25 26  2  0
 26 21  1  0
 27 19  1  0
 28 27  1  0
 29 27  2  0
M  END
$$$$
