QNF.pdb
     RDKit          3D

 29 29  0  0  1  0  0  0  0  0999 V2000
   12.0242  -11.6874  -16.8331 N   0  0  0  0  0  0  0  0  0  0  0  0
   12.2708  -12.6932  -17.7949 C   0  0  0  0  0  0  0  0  0  0  0  0
   11.6668  -13.7777  -17.6911 O   0  0  0  0  0  0  0  0  0  0  0  0
   13.2127  -12.4579  -18.8849 C   0  0  0  0  0  0  0  0  0  0  0  0
   13.8544  -11.1247  -18.9450 C   0  0  0  0  0  0  0  0  0  0  0  0
   15.3399  -11.0902  -18.6643 C   0  0  2  0  0  0  0  0  0  0  0  0
   15.7598  -11.6953  -17.4620 N   0  0  0  0  0  0  0  0  0  0  0  0
   15.9527   -9.7728  -18.9035 C   0  0  0  0  0  0  0  0  0  0  0  0
   15.7919   -9.2867  -20.0622 O   0  0  0  0  0  0  0  0  0  0  0  0
   15.1730   -5.4138  -16.7093 N   0  0  0  0  0  0  0  0  0  0  0  0
   14.3050   -6.5162  -16.5737 C   0  0  0  0  0  0  0  0  0  0  0  0
   13.1425   -6.3593  -16.1428 O   0  0  0  0  0  0  0  0  0  0  0  0
   14.7459   -7.8741  -16.9342 C   0  0  0  0  0  0  0  0  0  0  0  0
   16.1537   -7.7925  -17.4819 C   0  0  2  0  0  0  0  0  0  0  0  0
   16.6908   -9.0338  -17.9570 N   0  0  0  0  0  0  0  0  0  0  0  0
   17.0658   -7.1771  -16.4519 C   0  0  0  0  0  0  0  0  0  0  0  0
   16.8217   -6.0638  -15.9349 O   0  0  0  0  0  0  0  0  0  0  0  0
   18.2147   -7.9075  -16.0832 N   0  0  0  0  0  0  0  0  0  0  0  0
   19.1751   -7.4060  -15.0696 C   0  0  1  0  0  0  0  0  0  0  0  0
   20.1032   -8.5356  -14.6875 C   0  0  0  0  0  0  0  0  0  0  0  0
   21.1540   -8.0374  -13.7968 C   0  0  0  0  0  0  0  0  0  0  0  0
   22.1988   -7.3002  -14.2651 C   0  0  0  0  0  0  0  0  0  0  0  0
   23.1567   -6.8640  -13.3795 C   0  0  0  0  0  0  0  0  0  0  0  0
   23.0824   -7.1587  -12.0218 C   0  0  0  0  0  0  0  0  0  0  0  0
   22.0385   -7.8944  -11.5613 C   0  0  0  0  0  0  0  0  0  0  0  0
   21.0634   -8.3409  -12.4456 C   0  0  0  0  0  0  0  0  0  0  0  0
   19.8303   -6.1926  -15.5194 C   0  0  0  0  0  0  0  0  0  0  0  0
   20.1622   -5.1652  -14.6305 O   0  0  0  0  0  0  0  0  0  0  0  0
   20.1232   -6.0157  -16.7182 O   0  0  0  0  0  0  0  0  0  0  0  0
  1  2  1  0
  2  3  2  0
  4  2  1  0
  4  5  1  0
  6  5  1  0
  6  7  1  1
  8  9  2  0
  8  6  1  0
 10 11  1  0
 11 12  2  0
 11 13  1  0
 14 13  1  1
 14 15  1  0
 15  8  1  0
 16 18  1  0
 16 14  1  0
 17 16  2  0
 19 20  1  6
 19 18  1  0
 21 22  2  0
 21 20  1  0
 23 22  1  0
 24 23  2  0
 25 24  1  0
 25 26  2  0
 26 21  1  0
 27 19  1  0
 28 27  1  0
 29 27  2  0
M  END
$$$$
