QNF.pdb
     RDKit          3D

 29 29  0  0  1  0  0  0  0  0999 V2000
   20.9122  -17.6046  -14.9043 N   0  0  0  0  0  0  0  0  0  0  0  0
   22.2927  -17.6888  -15.1959 C   0  0  0  0  0  0  0  0  0  0  0  0
   22.9781  -16.6503  -15.1382 O   0  0  0  0  0  0  0  0  0  0  0  0
   22.8953  -18.9692  -15.5537 C   0  0  0  0  0  0  0  0  0  0  0  0
   22.8009  -20.0604  -14.5570 C   0  0  0  0  0  0  0  0  0  0  0  0
   23.5298  -19.8318  -13.2520 C   0  0  2  0  0  0  0  0  0  0  0  0
   23.8183  -18.4903  -12.9276 N   0  0  0  0  0  0  0  0  0  0  0  0
   24.6683  -20.7428  -13.0473 C   0  0  0  0  0  0  0  0  0  0  0  0
   24.4489  -21.9684  -13.2809 O   0  0  0  0  0  0  0  0  0  0  0  0
   27.7365  -22.5100  -15.2971 N   0  0  0  0  0  0  0  0  0  0  0  0
   27.8736  -21.2674  -14.6456 C   0  0  0  0  0  0  0  0  0  0  0  0
   27.7087  -20.1999  -15.2741 O   0  0  0  0  0  0  0  0  0  0  0  0
   28.2139  -21.1977  -13.2146 C   0  0  0  0  0  0  0  0  0  0  0  0
   26.9447  -21.3714  -12.4101 C   0  0  2  0  0  0  0  0  0  0  0  0
   25.9537  -20.3564  -12.6170 N   0  0  0  0  0  0  0  0  0  0  0  0
   27.2825  -21.4953  -10.9465 C   0  0  0  0  0  0  0  0  0  0  0  0
   28.4215  -21.8401  -10.5587 O   0  0  0  0  0  0  0  0  0  0  0  0
   26.2621  -21.2027  -10.0178 N   0  0  0  0  0  0  0  0  0  0  0  0
   26.5406  -21.0269   -8.5712 C   0  0  1  0  0  0  0  0  0  0  0  0
   27.6023  -19.9634   -8.4126 C   0  0  0  0  0  0  0  0  0  0  0  0
   27.8509  -19.7157   -6.9903 C   0  0  0  0  0  0  0  0  0  0  0  0
   27.1440  -18.7845   -6.2921 C   0  0  0  0  0  0  0  0  0  0  0  0
   27.4263  -18.5949   -4.9592 C   0  0  0  0  0  0  0  0  0  0  0  0
   28.4144  -19.3297   -4.3117 C   0  0  0  0  0  0  0  0  0  0  0  0
   29.1159  -20.2563   -5.0136 C   0  0  0  0  0  0  0  0  0  0  0  0
   28.8400  -20.4582   -6.3609 C   0  0  0  0  0  0  0  0  0  0  0  0
   25.3190  -20.7974   -7.8234 C   0  0  0  0  0  0  0  0  0  0  0  0
   25.1356  -21.3200   -6.5392 O   0  0  0  0  0  0  0  0  0  0  0  0
   24.3815  -20.1254   -8.2963 O   0  0  0  0  0  0  0  0  0  0  0  0
  1  2  1  0
  2  3  2  0
  4  2  1  0
  4  5  1  0
  6  5  1  0
  6  7  1  6
  8  9  2  0
  8  6  1  0
 10 11  1  0
 11 12  2  0
 11 13  1  0
 14 13  1  6
 14 15  1  0
 15  8  1  0
 16 18  1  0
 16 14  1  0
 17 16  2  0
 19 20  1  6
 19 18  1  0
 21 22  2  0
 21 20  1  0
 23 22  1  0
 24 23  2  0
 25 24  1  0
 25 26  2  0
 26 21  1  0
 27 19  1  0
 28 27  1  0
 29 27  2  0
M  END
$$$$
