QNF.pdb
     RDKit          3D

 29 29  0  0  1  0  0  0  0  0999 V2000
   10.9185  -15.1621    6.4861 N   0  0  0  0  0  0  0  0  0  0  0  0
   11.0582  -15.2605    5.0830 C   0  0  0  0  0  0  0  0  0  0  0  0
   10.0319  -15.2236    4.3781 O   0  0  0  0  0  0  0  0  0  0  0  0
   12.3804  -15.3997    4.4803 C   0  0  0  0  0  0  0  0  0  0  0  0
   13.5393  -15.4445    5.4010 C   0  0  0  0  0  0  0  0  0  0  0  0
   14.7672  -16.1623    4.8875 C   0  0  2  0  0  0  0  0  0  0  0  0
   14.5361  -17.2288    3.9946 N   0  0  0  0  0  0  0  0  0  0  0  0
   15.7455  -16.4805    5.9409 C   0  0  0  0  0  0  0  0  0  0  0  0
   15.7621  -15.7001    6.9387 O   0  0  0  0  0  0  0  0  0  0  0  0
   16.0789  -20.2428    6.9282 N   0  0  0  0  0  0  0  0  0  0  0  0
   17.3787  -20.1347    7.4630 C   0  0  0  0  0  0  0  0  0  0  0  0
   17.7824  -20.9504    8.3194 O   0  0  0  0  0  0  0  0  0  0  0  0
   18.2882  -19.0615    7.0277 C   0  0  0  0  0  0  0  0  0  0  0  0
   17.5259  -17.7549    7.0315 C   0  0  2  0  0  0  0  0  0  0  0  0
   16.6456  -17.5650    5.9162 N   0  0  0  0  0  0  0  0  0  0  0  0
   18.4904  -16.6030    7.1507 C   0  0  0  0  0  0  0  0  0  0  0  0
   18.7246  -15.8359    6.1898 O   0  0  0  0  0  0  0  0  0  0  0  0
   19.1248  -16.4139    8.3961 N   0  0  0  0  0  0  0  0  0  0  0  0
   19.8912  -15.1829    8.7107 C   0  0  1  0  0  0  0  0  0  0  0  0
   18.9812  -13.9908    8.5264 C   0  0  0  0  0  0  0  0  0  0  0  0
   19.4705  -13.1558    7.4267 C   0  0  0  0  0  0  0  0  0  0  0  0
   20.6581  -12.4940    7.5045 C   0  0  0  0  0  0  0  0  0  0  0  0
   21.0619  -11.7220    6.4401 C   0  0  0  0  0  0  0  0  0  0  0  0
   20.2868  -11.6021    5.2910 C   0  0  0  0  0  0  0  0  0  0  0  0
   19.1036  -12.2640    5.2199 C   0  0  0  0  0  0  0  0  0  0  0  0
   18.6842  -13.0480    6.2882 C   0  0  0  0  0  0  0  0  0  0  0  0
   20.5308  -15.2778   10.0092 C   0  0  0  0  0  0  0  0  0  0  0  0
   21.4682  -14.3319   10.4361 O   0  0  0  0  0  0  0  0  0  0  0  0
   20.2714  -16.2080   10.7974 O   0  0  0  0  0  0  0  0  0  0  0  0
  1  2  1  0
  2  3  2  0
  4  2  1  0
  4  5  1  0
  6  5  1  0
  6  7  1  1
  8  9  2  0
  8  6  1  0
 10 11  1  0
 11 12  2  0
 11 13  1  0
 14 13  1  6
 14 15  1  0
 15  8  1  0
 16 18  1  0
 16 14  1  0
 17 16  2  0
 19 20  1  1
 19 18  1  0
 21 22  2  0
 21 20  1  0
 23 22  1  0
 24 23  2  0
 25 24  1  0
 25 26  2  0
 26 21  1  0
 27 19  1  0
 28 27  1  0
 29 27  2  0
M  END
$$$$
