QNF.pdb
     RDKit          3D

 29 29  0  0  1  0  0  0  0  0999 V2000
   29.6406  -25.0092  -16.1700 N   0  0  0  0  0  0  0  0  0  0  0  0
   29.4397  -23.9198  -17.0478 C   0  0  0  0  0  0  0  0  0  0  0  0
   28.7675  -24.1030  -18.0804 O   0  0  0  0  0  0  0  0  0  0  0  0
   30.0088  -22.6107  -16.7428 C   0  0  0  0  0  0  0  0  0  0  0  0
   29.1239  -21.6308  -16.0722 C   0  0  0  0  0  0  0  0  0  0  0  0
   27.7211  -21.5166  -16.6252 C   0  0  2  0  0  0  0  0  0  0  0  0
   27.5982  -20.8964  -17.8855 N   0  0  0  0  0  0  0  0  0  0  0  0
   26.7374  -21.0404  -15.6385 C   0  0  0  0  0  0  0  0  0  0  0  0
   26.7813  -19.8050  -15.3610 O   0  0  0  0  0  0  0  0  0  0  0  0
   22.6656  -19.4187  -13.0812 N   0  0  0  0  0  0  0  0  0  0  0  0
   22.7362  -20.8266  -13.0767 C   0  0  0  0  0  0  0  0  0  0  0  0
   22.1814  -21.4869  -12.1723 O   0  0  0  0  0  0  0  0  0  0  0  0
   23.4632  -21.5502  -14.1332 C   0  0  0  0  0  0  0  0  0  0  0  0
   24.9390  -21.2485  -13.9937 C   0  0  2  0  0  0  0  0  0  0  0  0
   25.7753  -21.8441  -14.9941 N   0  0  0  0  0  0  0  0  0  0  0  0
   25.4080  -21.6282  -12.6126 C   0  0  0  0  0  0  0  0  0  0  0  0
   26.3084  -22.4785  -12.4317 O   0  0  0  0  0  0  0  0  0  0  0  0
   24.7941  -20.9835  -11.5186 N   0  0  0  0  0  0  0  0  0  0  0  0
   25.3521  -21.0586  -10.1459 C   0  0  1  0  0  0  0  0  0  0  0  0
   26.8128  -20.6755  -10.1999 C   0  0  0  0  0  0  0  0  0  0  0  0
   27.2931  -20.3520   -8.8544 C   0  0  0  0  0  0  0  0  0  0  0  0
   28.5944  -20.0274   -8.6180 C   0  0  0  0  0  0  0  0  0  0  0  0
   28.9859  -19.7371   -7.3317 C   0  0  0  0  0  0  0  0  0  0  0  0
   28.0859  -19.7685   -6.2713 C   0  0  0  0  0  0  0  0  0  0  0  0
   26.7901  -20.0933   -6.5134 C   0  0  0  0  0  0  0  0  0  0  0  0
   26.3813  -20.3882   -7.8088 C   0  0  0  0  0  0  0  0  0  0  0  0
   24.5478  -20.2989   -9.2078 C   0  0  0  0  0  0  0  0  0  0  0  0
   24.0590  -19.0269   -9.5225 O   0  0  0  0  0  0  0  0  0  0  0  0
   24.2606  -20.7489   -8.0813 O   0  0  0  0  0  0  0  0  0  0  0  0
  1  2  1  0
  2  3  2  0
  4  2  1  0
  4  5  1  0
  6  5  1  0
  6  7  1  6
  8  9  2  0
  8  6  1  0
 10 11  1  0
 11 12  2  0
 11 13  1  0
 14 13  1  6
 14 15  1  0
 15  8  1  0
 16 18  1  0
 16 14  1  0
 17 16  2  0
 19 20  1  6
 19 18  1  0
 21 22  2  0
 21 20  1  0
 23 22  1  0
 24 23  2  0
 25 24  1  0
 25 26  2  0
 26 21  1  0
 27 19  1  0
 28 27  1  0
 29 27  2  0
M  END
$$$$
