IQI.pdb
     RDKit          3D

 26 25  0  0  1  0  0  0  0  0999 V2000
    7.6352  -12.0305   18.9174 C   0  0  0  0  0  0  0  0  0  0  0  0
    8.2650  -13.3807   19.0456 C   0  0  0  0  0  0  0  0  0  0  0  0
    7.9405  -14.0566   20.3633 C   0  0  2  0  0  0  0  0  0  0  0  0
    8.2193  -13.1856   21.5382 C   0  0  0  0  0  0  0  0  0  0  0  0
    8.6489  -15.3820   20.3631 C   0  0  2  0  0  0  0  0  0  0  0  0
    8.1862  -16.0655   19.1395 N   0  0  0  0  0  0  0  0  0  0  0  0
    8.3274  -16.2507   21.5044 C   0  0  0  0  0  0  0  0  0  0  0  0
    7.6996  -17.3445   21.3189 O   0  0  0  0  0  0  0  0  0  0  0  0
   11.0796  -20.9358   22.8343 N   0  0  0  0  0  0  0  0  0  0  0  0
   11.4355  -19.8878   23.7397 C   0  0  0  0  0  0  0  0  0  0  0  0
   12.6427  -19.7729   24.0362 O   0  0  0  0  0  0  0  0  0  0  0  0
   10.3840  -18.9748   24.2989 C   0  0  0  0  0  0  0  0  0  0  0  0
   10.1755  -17.8583   23.2951 C   0  0  0  0  0  0  0  0  0  0  0  0
    9.0420  -16.9838   23.8067 C   0  0  2  0  0  0  0  0  0  0  0  0
    8.6603  -15.9835   22.8512 N   0  0  0  0  0  0  0  0  0  0  0  0
    9.3670  -16.4053   25.1378 C   0  0  0  0  0  0  0  0  0  0  0  0
    9.5607  -17.2061   26.0653 O   0  0  0  0  0  0  0  0  0  0  0  0
    6.3541  -12.1026   26.1266 C   0  0  0  0  0  0  0  0  0  0  0  0
    7.5673  -12.8962   25.8235 C   0  0  0  0  0  0  0  0  0  0  0  0
    8.2960  -13.5651   26.9091 C   0  0  2  0  0  0  0  0  0  0  0  0
    8.4918  -12.5178   28.0178 C   0  0  0  0  0  0  0  0  0  0  0  0
    9.4880  -14.3792   26.6848 C   0  0  2  0  0  0  0  0  0  0  0  0
    9.4570  -15.0224   25.3636 N   0  0  0  0  0  0  0  0  0  0  0  0
   10.0457  -15.2480   27.7071 C   0  0  0  0  0  0  0  0  0  0  0  0
   10.7735  -14.9480   28.6743 O   0  0  0  0  0  0  0  0  0  0  0  0
    9.7715  -16.6485   27.6650 O   0  0  0  0  0  0  0  0  0  0  0  0
  2  1  1  0
  3  2  1  0
  3  5  1  0
  3  4  1  1
  5  6  1  6
  7  5  1  0
  7  8  2  0
  9 10  1  0
 10 12  1  0
 11 10  2  0
 12 13  1  0
 14 13  1  6
 14 15  1  0
 15  7  1  0
 16 14  1  0
 17 16  2  0
 19 18  1  0
 20 19  1  0
 20 22  1  0
 20 21  1  1
 22 23  1  6
 22 24  1  0
 23 16  1  0
 24 26  1  0
 25 24  2  0
M  END
$$$$
