IQI.pdb
     RDKit          3D

 26 25  0  0  1  0  0  0  0  0999 V2000
    8.1543  -12.6039   18.1116 C   0  0  0  0  0  0  0  0  0  0  0  0
    8.0351  -14.0516   18.4668 C   0  0  0  0  0  0  0  0  0  0  0  0
    7.6706  -14.2705   19.9221 C   0  0  2  0  0  0  0  0  0  0  0  0
    8.5920  -13.5664   20.8559 C   0  0  0  0  0  0  0  0  0  0  0  0
    7.5574  -15.7548   20.1280 C   0  0  2  0  0  0  0  0  0  0  0  0
    6.5626  -16.2062   19.1355 N   0  0  0  0  0  0  0  0  0  0  0  0
    7.0716  -16.1556   21.4562 C   0  0  0  0  0  0  0  0  0  0  0  0
    5.9126  -15.7977   21.8481 O   0  0  0  0  0  0  0  0  0  0  0  0
    7.6129  -21.0529   25.1951 N   0  0  0  0  0  0  0  0  0  0  0  0
    7.0056  -20.0688   26.0363 C   0  0  0  0  0  0  0  0  0  0  0  0
    6.4906  -20.4658   27.1019 O   0  0  0  0  0  0  0  0  0  0  0  0
    6.9989  -18.6230   25.6346 C   0  0  0  0  0  0  0  0  0  0  0  0
    7.5213  -18.5469   24.2136 C   0  0  0  0  0  0  0  0  0  0  0  0
    7.4300  -17.0970   23.7657 C   0  0  2  0  0  0  0  0  0  0  0  0
    7.7937  -16.9355   22.3869 N   0  0  0  0  0  0  0  0  0  0  0  0
    8.2065  -16.2049   24.6676 C   0  0  0  0  0  0  0  0  0  0  0  0
    9.4026  -16.0293   24.3890 O   0  0  0  0  0  0  0  0  0  0  0  0
    5.5904  -11.8713   26.7217 C   0  0  0  0  0  0  0  0  0  0  0  0
    6.6488  -12.7645   26.1967 C   0  0  0  0  0  0  0  0  0  0  0  0
    7.4578  -13.5667   27.1236 C   0  0  2  0  0  0  0  0  0  0  0  0
    8.1580  -12.5750   28.0674 C   0  0  0  0  0  0  0  0  0  0  0  0
    8.3393  -14.6450   26.6830 C   0  0  2  0  0  0  0  0  0  0  0  0
    7.6393  -15.5779   25.7886 N   0  0  0  0  0  0  0  0  0  0  0  0
    9.2521  -15.3269   27.5845 C   0  0  0  0  0  0  0  0  0  0  0  0
    9.1090  -16.4259   28.1561 O   0  0  0  0  0  0  0  0  0  0  0  0
   10.5015  -14.7183   27.9119 O   0  0  0  0  0  0  0  0  0  0  0  0
  2  1  1  0
  3  2  1  0
  3  5  1  0
  3  4  1  1
  5  6  1  6
  7  5  1  0
  7  8  2  0
  9 10  1  0
 10 12  1  0
 11 10  2  0
 12 13  1  0
 14 13  1  1
 14 15  1  0
 15  7  1  0
 16 14  1  0
 17 16  2  0
 19 18  1  0
 20 19  1  0
 20 22  1  0
 20 21  1  6
 22 23  1  1
 22 24  1  0
 23 16  1  0
 24 26  1  0
 25 24  2  0
M  END
$$$$
