IQI.pdb
     RDKit          3D

 26 25  0  0  1  0  0  0  0  0999 V2000
    7.6585  -11.9917   20.9174 C   0  0  0  0  0  0  0  0  0  0  0  0
    7.3958  -13.4593   21.0330 C   0  0  0  0  0  0  0  0  0  0  0  0
    8.2446  -14.2836   20.0851 C   0  0  2  0  0  0  0  0  0  0  0  0
    8.0643  -13.8864   18.6615 C   0  0  0  0  0  0  0  0  0  0  0  0
    7.9656  -15.7286   20.3896 C   0  0  2  0  0  0  0  0  0  0  0  0
    6.5349  -15.9178   20.0799 N   0  0  0  0  0  0  0  0  0  0  0  0
    8.1693  -16.1109   21.7942 C   0  0  0  0  0  0  0  0  0  0  0  0
    7.1916  -16.0875   22.6118 O   0  0  0  0  0  0  0  0  0  0  0  0
   12.3200  -20.1233   24.1610 N   0  0  0  0  0  0  0  0  0  0  0  0
   11.6140  -19.6924   25.3275 C   0  0  0  0  0  0  0  0  0  0  0  0
   11.8588  -20.2876   26.3972 O   0  0  0  0  0  0  0  0  0  0  0  0
   10.6233  -18.5682   25.2460 C   0  0  0  0  0  0  0  0  0  0  0  0
   10.5992  -18.0910   23.8075 C   0  0  0  0  0  0  0  0  0  0  0  0
    9.5583  -16.9878   23.7048 C   0  0  2  0  0  0  0  0  0  0  0  0
    9.3982  -16.5223   22.3568 N   0  0  0  0  0  0  0  0  0  0  0  0
    9.8485  -15.8834   24.6579 C   0  0  0  0  0  0  0  0  0  0  0  0
   10.8115  -15.1490   24.3889 O   0  0  0  0  0  0  0  0  0  0  0  0
    6.2179  -12.3917   26.0280 C   0  0  0  0  0  0  0  0  0  0  0  0
    7.4941  -13.1130   25.8171 C   0  0  0  0  0  0  0  0  0  0  0  0
    8.1894  -13.7223   26.9583 C   0  0  2  0  0  0  0  0  0  0  0  0
    8.4318  -12.5967   27.9775 C   0  0  0  0  0  0  0  0  0  0  0  0
    9.3426  -14.6063   26.8087 C   0  0  2  0  0  0  0  0  0  0  0  0
    9.0860  -15.6587   25.8153 N   0  0  0  0  0  0  0  0  0  0  0  0
   10.1060  -15.0953   27.9441 C   0  0  0  0  0  0  0  0  0  0  0  0
   10.8636  -14.4624   28.7060 O   0  0  0  0  0  0  0  0  0  0  0  0
   10.0340  -16.4770   28.2965 O   0  0  0  0  0  0  0  0  0  0  0  0
  2  1  1  0
  3  2  1  0
  3  5  1  0
  3  4  1  6
  5  6  1  1
  7  5  1  0
  7  8  2  0
  9 10  1  0
 10 12  1  0
 11 10  2  0
 12 13  1  0
 14 13  1  6
 14 15  1  0
 15  7  1  0
 16 14  1  0
 17 16  2  0
 19 18  1  0
 20 19  1  0
 20 22  1  0
 20 21  1  1
 22 23  1  1
 22 24  1  0
 23 16  1  0
 24 26  1  0
 25 24  2  0
M  END
$$$$
