IQI.pdb
     RDKit          3D

 26 25  0  0  1  0  0  0  0  0999 V2000
    7.7898  -12.0476   20.9814 C   0  0  0  0  0  0  0  0  0  0  0  0
    7.5726  -13.5193   20.8296 C   0  0  0  0  0  0  0  0  0  0  0  0
    8.4642  -14.1378   19.7709 C   0  0  2  0  0  0  0  0  0  0  0  0
    8.1904  -13.6046   18.4080 C   0  0  0  0  0  0  0  0  0  0  0  0
    8.3458  -15.6291   19.9135 C   0  0  2  0  0  0  0  0  0  0  0  0
    6.9861  -15.9541   19.4403 N   0  0  0  0  0  0  0  0  0  0  0  0
    8.4659  -16.1260   21.2917 C   0  0  0  0  0  0  0  0  0  0  0  0
    7.4307  -16.2226   22.0293 O   0  0  0  0  0  0  0  0  0  0  0  0
   12.8932  -19.7958   23.5909 N   0  0  0  0  0  0  0  0  0  0  0  0
   11.9849  -19.9483   22.4970 C   0  0  0  0  0  0  0  0  0  0  0  0
   12.1918  -20.8940   21.7088 O   0  0  0  0  0  0  0  0  0  0  0  0
   10.8365  -18.9982   22.3228 C   0  0  0  0  0  0  0  0  0  0  0  0
   10.9210  -17.9780   23.4407 C   0  0  0  0  0  0  0  0  0  0  0  0
    9.7695  -17.0016   23.2621 C   0  0  2  0  0  0  0  0  0  0  0  0
    9.6704  -16.5273   21.9113 N   0  0  0  0  0  0  0  0  0  0  0  0
    9.8454  -15.8929   24.2507 C   0  0  0  0  0  0  0  0  0  0  0  0
   10.6609  -14.9878   24.0168 O   0  0  0  0  0  0  0  0  0  0  0  0
    6.1962  -12.6005   25.6927 C   0  0  0  0  0  0  0  0  0  0  0  0
    7.4814  -13.3164   25.5214 C   0  0  0  0  0  0  0  0  0  0  0  0
    8.0909  -14.0122   26.6622 C   0  0  2  0  0  0  0  0  0  0  0  0
    8.2984  -12.9568   27.7611 C   0  0  0  0  0  0  0  0  0  0  0  0
    9.2292  -14.9177   26.5271 C   0  0  2  0  0  0  0  0  0  0  0  0
    9.0447  -15.8467   25.4031 N   0  0  0  0  0  0  0  0  0  0  0  0
    9.8623  -15.5543   27.6694 C   0  0  0  0  0  0  0  0  0  0  0  0
    9.7855  -16.7416   28.0429 O   0  0  0  0  0  0  0  0  0  0  0  0
   10.6980  -14.7810   28.5308 O   0  0  0  0  0  0  0  0  0  0  0  0
  2  1  1  0
  3  2  1  0
  3  5  1  0
  3  4  1  6
  5  6  1  1
  7  5  1  0
  7  8  2  0
  9 10  1  0
 10 12  1  0
 11 10  2  0
 12 13  1  0
 14 13  1  6
 14 15  1  0
 15  7  1  0
 16 14  1  0
 17 16  2  0
 19 18  1  0
 20 19  1  0
 20 22  1  0
 20 21  1  1
 22 23  1  6
 22 24  1  0
 23 16  1  0
 24 26  1  0
 25 24  2  0
M  END
$$$$
