IQI.pdb
     RDKit          3D

 26 25  0  0  1  0  0  0  0  0999 V2000
    7.3503  -12.1966   19.0515 C   0  0  0  0  0  0  0  0  0  0  0  0
    8.0249  -13.5279   18.9582 C   0  0  0  0  0  0  0  0  0  0  0  0
    8.2862  -14.1496   20.3161 C   0  0  2  0  0  0  0  0  0  0  0  0
    9.0107  -13.2312   21.2372 C   0  0  0  0  0  0  0  0  0  0  0  0
    8.9540  -15.4735   20.0717 C   0  0  2  0  0  0  0  0  0  0  0  0
    8.0251  -16.2178   19.1990 N   0  0  0  0  0  0  0  0  0  0  0  0
    9.1729  -16.2833   21.2788 C   0  0  0  0  0  0  0  0  0  0  0  0
    8.1897  -16.8608   21.8486 O   0  0  0  0  0  0  0  0  0  0  0  0
   13.9572  -19.2654   21.8960 N   0  0  0  0  0  0  0  0  0  0  0  0
   12.7144  -19.6663   21.3133 C   0  0  0  0  0  0  0  0  0  0  0  0
   12.7650  -20.4204   20.3197 O   0  0  0  0  0  0  0  0  0  0  0  0
   11.4139  -19.1879   21.8891 C   0  0  0  0  0  0  0  0  0  0  0  0
   11.7446  -18.2328   23.0187 C   0  0  0  0  0  0  0  0  0  0  0  0
   10.6076  -17.2289   23.1217 C   0  0  2  0  0  0  0  0  0  0  0  0
   10.4231  -16.4973   21.9009 N   0  0  0  0  0  0  0  0  0  0  0  0
   10.7817  -16.3371   24.2993 C   0  0  0  0  0  0  0  0  0  0  0  0
   11.6392  -15.4455   24.2057 O   0  0  0  0  0  0  0  0  0  0  0  0
    9.2451  -12.0936   27.6535 C   0  0  0  0  0  0  0  0  0  0  0  0
    9.8180  -13.4521   27.7947 C   0  0  0  0  0  0  0  0  0  0  0  0
    9.6198  -14.4457   26.7315 C   0  0  2  0  0  0  0  0  0  0  0  0
    8.1034  -14.5390   26.4940 C   0  0  0  0  0  0  0  0  0  0  0  0
   10.2727  -15.7524   26.7307 C   0  0  2  0  0  0  0  0  0  0  0  0
   10.0256  -16.4743   25.4744 N   0  0  0  0  0  0  0  0  0  0  0  0
   10.2581  -16.6349   27.8848 C   0  0  0  0  0  0  0  0  0  0  0  0
    9.6660  -17.7230   28.0279 O   0  0  0  0  0  0  0  0  0  0  0  0
   10.9947  -16.2750   29.0537 O   0  0  0  0  0  0  0  0  0  0  0  0
  2  1  1  0
  3  2  1  0
  3  5  1  0
  3  4  1  1
  5  6  1  6
  7  5  1  0
  7  8  2  0
  9 10  1  0
 10 12  1  0
 11 10  2  0
 12 13  1  0
 14 13  1  6
 14 15  1  0
 15  7  1  0
 16 14  1  0
 17 16  2  0
 19 18  1  0
 20 19  1  0
 20 22  1  0
 20 21  1  1
 22 23  1  6
 22 24  1  0
 23 16  1  0
 24 26  1  0
 25 24  2  0
M  END
$$$$
