IQI.pdb
     RDKit          3D

 26 25  0  0  1  0  0  0  0  0999 V2000
    7.4013  -13.2472   16.8476 C   0  0  0  0  0  0  0  0  0  0  0  0
    8.2430  -14.0169   17.8147 C   0  0  0  0  0  0  0  0  0  0  0  0
    7.6707  -14.0184   19.2187 C   0  0  2  0  0  0  0  0  0  0  0  0
    7.4444  -12.6449   19.7469 C   0  0  0  0  0  0  0  0  0  0  0  0
    8.5638  -14.8901   20.0559 C   0  0  2  0  0  0  0  0  0  0  0  0
    8.6679  -16.1609   19.3125 N   0  0  0  0  0  0  0  0  0  0  0  0
    8.0400  -15.2010   21.3937 C   0  0  0  0  0  0  0  0  0  0  0  0
    7.8476  -14.2660   22.2385 O   0  0  0  0  0  0  0  0  0  0  0  0
    6.9552  -20.8767   24.1073 N   0  0  0  0  0  0  0  0  0  0  0  0
    6.4480  -19.9461   25.0672 C   0  0  0  0  0  0  0  0  0  0  0  0
    5.9172  -20.4158   26.0948 O   0  0  0  0  0  0  0  0  0  0  0  0
    6.5597  -18.4688   24.8283 C   0  0  0  0  0  0  0  0  0  0  0  0
    7.1128  -18.2781   23.4300 C   0  0  0  0  0  0  0  0  0  0  0  0
    7.2441  -16.7834   23.1857 C   0  0  2  0  0  0  0  0  0  0  0  0
    7.7116  -16.4935   21.8603 N   0  0  0  0  0  0  0  0  0  0  0  0
    8.0748  -16.1370   24.2367 C   0  0  0  0  0  0  0  0  0  0  0  0
    9.3058  -16.2281   24.1134 O   0  0  0  0  0  0  0  0  0  0  0  0
    5.9357  -11.6217   26.3549 C   0  0  0  0  0  0  0  0  0  0  0  0
    6.9434  -12.5865   25.8577 C   0  0  0  0  0  0  0  0  0  0  0  0
    7.5857  -13.5218   26.7903 C   0  0  2  0  0  0  0  0  0  0  0  0
    8.4191  -12.6704   27.7625 C   0  0  0  0  0  0  0  0  0  0  0  0
    8.2853  -14.7274   26.3537 C   0  0  2  0  0  0  0  0  0  0  0  0
    7.5195  -15.4497   25.3279 N   0  0  0  0  0  0  0  0  0  0  0  0
    8.9471  -15.6277   27.2824 C   0  0  0  0  0  0  0  0  0  0  0  0
    8.5149  -16.6817   27.7896 O   0  0  0  0  0  0  0  0  0  0  0  0
   10.2722  -15.3319   27.7239 O   0  0  0  0  0  0  0  0  0  0  0  0
  2  1  1  0
  3  2  1  0
  3  5  1  0
  3  4  1  1
  5  6  1  6
  7  5  1  0
  7  8  2  0
  9 10  1  0
 10 12  1  0
 11 10  2  0
 12 13  1  0
 14 13  1  1
 14 15  1  0
 15  7  1  0
 16 14  1  0
 17 16  2  0
 19 18  1  0
 20 19  1  0
 20 22  1  0
 20 21  1  6
 22 23  1  1
 22 24  1  0
 23 16  1  0
 24 26  1  0
 25 24  2  0
M  END
$$$$
