IQI.pdb
     RDKit          3D

 26 25  0  0  1  0  0  0  0  0999 V2000
    7.6410  -12.2142   19.7268 C   0  0  0  0  0  0  0  0  0  0  0  0
    7.1965  -13.6369   19.8476 C   0  0  0  0  0  0  0  0  0  0  0  0
    8.2835  -14.6250   19.4728 C   0  0  2  0  0  0  0  0  0  0  0  0
    8.8363  -14.3801   18.1122 C   0  0  0  0  0  0  0  0  0  0  0  0
    7.7240  -16.0009   19.7013 C   0  0  2  0  0  0  0  0  0  0  0  0
    6.5715  -16.1047   18.7849 N   0  0  0  0  0  0  0  0  0  0  0  0
    7.2299  -16.2448   21.0640 C   0  0  0  0  0  0  0  0  0  0  0  0
    6.0587  -15.8674   21.3969 O   0  0  0  0  0  0  0  0  0  0  0  0
    7.5882  -20.9365   24.9732 N   0  0  0  0  0  0  0  0  0  0  0  0
    7.0698  -19.9068   25.8193 C   0  0  0  0  0  0  0  0  0  0  0  0
    6.6164  -20.2527   26.9298 O   0  0  0  0  0  0  0  0  0  0  0  0
    7.0803  -18.4750   25.3703 C   0  0  0  0  0  0  0  0  0  0  0  0
    7.5339  -18.4588   23.9240 C   0  0  0  0  0  0  0  0  0  0  0  0
    7.5035  -17.0155   23.4472 C   0  0  2  0  0  0  0  0  0  0  0  0
    7.9565  -16.8867   22.0916 N   0  0  0  0  0  0  0  0  0  0  0  0
    8.2419  -16.1243   24.3814 C   0  0  0  0  0  0  0  0  0  0  0  0
    9.4529  -15.9646   24.1649 O   0  0  0  0  0  0  0  0  0  0  0  0
    5.7620  -11.6296   26.0778 C   0  0  0  0  0  0  0  0  0  0  0  0
    6.8123  -12.6011   25.6947 C   0  0  0  0  0  0  0  0  0  0  0  0
    7.4651  -13.4195   26.7248 C   0  0  2  0  0  0  0  0  0  0  0  0
    8.1500  -12.4420   27.6943 C   0  0  0  0  0  0  0  0  0  0  0  0
    8.2960  -14.5795   26.4121 C   0  0  2  0  0  0  0  0  0  0  0  0
    7.6237  -15.4809   25.4656 N   0  0  0  0  0  0  0  0  0  0  0  0
    9.0421  -15.3037   27.4268 C   0  0  0  0  0  0  0  0  0  0  0  0
    8.7567  -16.3818   27.9848 O   0  0  0  0  0  0  0  0  0  0  0  0
   10.2780  -14.7714   27.9039 O   0  0  0  0  0  0  0  0  0  0  0  0
  2  1  1  0
  3  2  1  0
  3  5  1  0
  3  4  1  6
  5  6  1  6
  7  5  1  0
  7  8  2  0
  9 10  1  0
 10 12  1  0
 11 10  2  0
 12 13  1  0
 14 13  1  1
 14 15  1  0
 15  7  1  0
 16 14  1  0
 17 16  2  0
 19 18  1  0
 20 19  1  0
 20 22  1  0
 20 21  1  6
 22 23  1  1
 22 24  1  0
 23 16  1  0
 24 26  1  0
 25 24  2  0
M  END
$$$$
