IQI.pdb
     RDKit          3D

 26 25  0  0  1  0  0  0  0  0999 V2000
    7.1905  -12.1636   19.4356 C   0  0  0  0  0  0  0  0  0  0  0  0
    7.4669  -13.6329   19.4688 C   0  0  0  0  0  0  0  0  0  0  0  0
    7.9048  -14.1166   20.8373 C   0  0  2  0  0  0  0  0  0  0  0  0
    9.0732  -13.3601   21.3659 C   0  0  0  0  0  0  0  0  0  0  0  0
    8.0938  -15.6041   20.7375 C   0  0  2  0  0  0  0  0  0  0  0  0
    6.8055  -16.1231   20.2381 N   0  0  0  0  0  0  0  0  0  0  0  0
    8.3765  -16.2746   22.0147 C   0  0  0  0  0  0  0  0  0  0  0  0
    7.4577  -16.3973   22.8898 O   0  0  0  0  0  0  0  0  0  0  0  0
    9.3888  -20.3754   26.0934 N   0  0  0  0  0  0  0  0  0  0  0  0
   10.4572  -20.2311   25.1540 C   0  0  0  0  0  0  0  0  0  0  0  0
   10.7295  -21.2187   24.4406 O   0  0  0  0  0  0  0  0  0  0  0  0
   11.2075  -18.9358   25.0472 C   0  0  0  0  0  0  0  0  0  0  0  0
   11.0083  -18.4137   23.6382 C   0  0  0  0  0  0  0  0  0  0  0  0
    9.9200  -17.3533   23.6888 C   0  0  2  0  0  0  0  0  0  0  0  0
    9.6233  -16.8239   22.3883 N   0  0  0  0  0  0  0  0  0  0  0  0
   10.2499  -16.2899   24.6749 C   0  0  0  0  0  0  0  0  0  0  0  0
   11.4020  -15.8311   24.6406 O   0  0  0  0  0  0  0  0  0  0  0  0
    6.7864  -12.3607   26.1686 C   0  0  0  0  0  0  0  0  0  0  0  0
    7.9613  -13.2180   25.8891 C   0  0  0  0  0  0  0  0  0  0  0  0
    8.6170  -13.9434   26.9850 C   0  0  2  0  0  0  0  0  0  0  0  0
    9.0345  -12.8884   28.0228 C   0  0  0  0  0  0  0  0  0  0  0  0
    9.6454  -14.9575   26.7658 C   0  0  2  0  0  0  0  0  0  0  0  0
    9.3217  -15.8085   25.6120 N   0  0  0  0  0  0  0  0  0  0  0  0
   10.2463  -15.7101   27.8537 C   0  0  0  0  0  0  0  0  0  0  0  0
   11.3137  -15.4890   28.4594 O   0  0  0  0  0  0  0  0  0  0  0  0
    9.5874  -16.8755   28.3497 O   0  0  0  0  0  0  0  0  0  0  0  0
  2  1  1  0
  3  2  1  0
  3  5  1  0
  3  4  1  6
  5  6  1  1
  7  5  1  0
  7  8  2  0
  9 10  1  0
 10 12  1  0
 11 10  2  0
 12 13  1  0
 14 13  1  6
 14 15  1  0
 15  7  1  0
 16 14  1  0
 17 16  2  0
 19 18  1  0
 20 19  1  0
 20 22  1  0
 20 21  1  1
 22 23  1  6
 22 24  1  0
 23 16  1  0
 24 26  1  0
 25 24  2  0
M  END
$$$$
