IQI.pdb
     RDKit          3D

 26 25  0  0  1  0  0  0  0  0999 V2000
    7.3487  -12.0972   18.8872 C   0  0  0  0  0  0  0  0  0  0  0  0
    7.6034  -13.5622   19.0456 C   0  0  0  0  0  0  0  0  0  0  0  0
    7.8511  -13.9621   20.4868 C   0  0  2  0  0  0  0  0  0  0  0  0
    8.9108  -13.1415   21.1353 C   0  0  0  0  0  0  0  0  0  0  0  0
    8.0912  -15.4456   20.4959 C   0  0  2  0  0  0  0  0  0  0  0  0
    6.8945  -16.0329   19.8622 N   0  0  0  0  0  0  0  0  0  0  0  0
    8.2201  -16.0390   21.8345 C   0  0  0  0  0  0  0  0  0  0  0  0
    7.2063  -16.1070   22.6043 O   0  0  0  0  0  0  0  0  0  0  0  0
   12.1907  -20.3258   24.0969 N   0  0  0  0  0  0  0  0  0  0  0  0
   11.5296  -19.8700   25.2801 C   0  0  0  0  0  0  0  0  0  0  0  0
   11.8166  -20.4414   26.3523 O   0  0  0  0  0  0  0  0  0  0  0  0
   10.5345  -18.7488   25.2125 C   0  0  0  0  0  0  0  0  0  0  0  0
   10.5029  -18.2592   23.7783 C   0  0  0  0  0  0  0  0  0  0  0  0
    9.5314  -17.0918   23.7108 C   0  0  2  0  0  0  0  0  0  0  0  0
    9.4111  -16.5677   22.3803 N   0  0  0  0  0  0  0  0  0  0  0  0
    9.8797  -16.0432   24.7066 C   0  0  0  0  0  0  0  0  0  0  0  0
   10.8253  -15.2921   24.4226 O   0  0  0  0  0  0  0  0  0  0  0  0
    6.5052  -12.4930   26.3846 C   0  0  0  0  0  0  0  0  0  0  0  0
    7.7197  -13.2903   26.0967 C   0  0  0  0  0  0  0  0  0  0  0  0
    8.4242  -13.9737   27.1892 C   0  0  2  0  0  0  0  0  0  0  0  0
    8.7648  -12.8978   28.2336 C   0  0  0  0  0  0  0  0  0  0  0  0
    9.5222  -14.9108   26.9655 C   0  0  2  0  0  0  0  0  0  0  0  0
    9.1887  -15.8874   25.9189 N   0  0  0  0  0  0  0  0  0  0  0  0
   10.2759  -15.5073   28.0551 C   0  0  0  0  0  0  0  0  0  0  0  0
   10.1636  -16.6464   28.5499 O   0  0  0  0  0  0  0  0  0  0  0  0
   11.2986  -14.7481   28.7001 O   0  0  0  0  0  0  0  0  0  0  0  0
  2  1  1  0
  3  2  1  0
  3  5  1  0
  3  4  1  6
  5  6  1  1
  7  5  1  0
  7  8  2  0
  9 10  1  0
 10 12  1  0
 11 10  2  0
 12 13  1  0
 14 13  1  6
 14 15  1  0
 15  7  1  0
 16 14  1  0
 17 16  2  0
 19 18  1  0
 20 19  1  0
 20 22  1  0
 20 21  1  1
 22 23  1  1
 22 24  1  0
 23 16  1  0
 24 26  1  0
 25 24  2  0
M  END
$$$$
