IQI.pdb
     RDKit          3D

 26 25  0  0  1  0  0  0  0  0999 V2000
    7.3689  -12.0288   19.0810 C   0  0  0  0  0  0  0  0  0  0  0  0
    7.5407  -13.5015   19.2758 C   0  0  0  0  0  0  0  0  0  0  0  0
    7.3453  -13.9294   20.7170 C   0  0  2  0  0  0  0  0  0  0  0  0
    8.2084  -13.1693   21.6626 C   0  0  0  0  0  0  0  0  0  0  0  0
    7.5072  -15.4229   20.7575 C   0  0  2  0  0  0  0  0  0  0  0  0
    6.4408  -15.9493   19.8833 N   0  0  0  0  0  0  0  0  0  0  0  0
    7.3279  -16.0245   22.0866 C   0  0  0  0  0  0  0  0  0  0  0  0
    6.2740  -16.6915   22.3500 O   0  0  0  0  0  0  0  0  0  0  0  0
    7.5315  -20.8352   23.7420 N   0  0  0  0  0  0  0  0  0  0  0  0
    6.5280  -20.1022   24.4494 C   0  0  0  0  0  0  0  0  0  0  0  0
    5.4974  -20.7211   24.7859 O   0  0  0  0  0  0  0  0  0  0  0  0
    6.7266  -18.6483   24.7638 C   0  0  0  0  0  0  0  0  0  0  0  0
    7.9866  -18.2002   24.0503 C   0  0  0  0  0  0  0  0  0  0  0  0
    8.1861  -16.7232   24.3502 C   0  0  2  0  0  0  0  0  0  0  0  0
    8.2503  -15.9346   23.1530 N   0  0  0  0  0  0  0  0  0  0  0  0
    9.3601  -16.5078   25.2376 C   0  0  0  0  0  0  0  0  0  0  0  0
   10.1861  -15.6549   24.8779 O   0  0  0  0  0  0  0  0  0  0  0  0
    8.6291  -13.0234   27.3196 C   0  0  0  0  0  0  0  0  0  0  0  0
    9.2910  -14.2997   26.9644 C   0  0  0  0  0  0  0  0  0  0  0  0
    9.4319  -15.3582   27.9728 C   0  0  2  0  0  0  0  0  0  0  0  0
   10.0008  -14.6897   29.2353 C   0  0  0  0  0  0  0  0  0  0  0  0
   10.0519  -16.6502   27.6900 C   0  0  2  0  0  0  0  0  0  0  0  0
    9.5508  -17.2213   26.4318 N   0  0  0  0  0  0  0  0  0  0  0  0
   10.2522  -17.6625   28.7128 C   0  0  0  0  0  0  0  0  0  0  0  0
    9.4775  -18.5700   29.0750 O   0  0  0  0  0  0  0  0  0  0  0  0
   11.4751  -17.6846   29.4494 O   0  0  0  0  0  0  0  0  0  0  0  0
  2  1  1  0
  3  2  1  0
  3  5  1  0
  3  4  1  1
  5  6  1  6
  7  5  1  0
  7  8  2  0
  9 10  1  0
 10 12  1  0
 11 10  2  0
 12 13  1  0
 14 13  1  6
 14 15  1  0
 15  7  1  0
 16 14  1  0
 17 16  2  0
 19 18  1  0
 20 19  1  0
 20 22  1  0
 20 21  1  1
 22 23  1  6
 22 24  1  0
 23 16  1  0
 24 26  1  0
 25 24  2  0
M  END
$$$$
