PMS.pdb
     RDKit          3D

 22 22  0  0  1  0  0  0  0  0999 V2000
    7.3344  -15.2396   19.8596 N   0  0  0  0  0  0  0  0  0  0  0  0
    6.7814  -14.4350   18.7888 C   0  0  0  0  0  0  0  0  0  0  0  0
    7.2128  -13.0330   19.2438 C   0  0  0  0  0  0  0  0  0  0  0  0
    8.7040  -13.3221   19.4641 C   0  0  0  0  0  0  0  0  0  0  0  0
    8.6418  -14.7120   20.0722 C   0  0  1  0  0  0  0  0  0  0  0  0
    8.9441  -14.5188   21.5399 C   0  0  0  0  0  0  0  0  0  0  0  0
   10.1349  -14.2183   21.8070 O   0  0  0  0  0  0  0  0  0  0  0  0
    7.4466  -12.0669   28.3428 C   0  0  0  0  0  0  0  0  0  0  0  0
    7.0659  -12.1547   26.5833 S   0  0  0  0  0  0  0  0  0  0  0  0
    7.1185  -13.9005   26.0668 C   0  0  0  0  0  0  0  0  0  0  0  0
    6.8448  -14.0185   24.5916 C   0  0  0  0  0  0  0  0  0  0  0  0
    8.1049  -14.5432   23.8863 C   0  0  2  0  0  0  0  0  0  0  0  0
    7.9112  -14.6814   22.4840 N   0  0  0  0  0  0  0  0  0  0  0  0
    8.5761  -15.7919   24.5302 C   0  0  0  0  0  0  0  0  0  0  0  0
    7.7588  -16.7273   24.6441 O   0  0  0  0  0  0  0  0  0  0  0  0
   12.5813  -16.3594   25.2287 O   0  0  0  0  0  0  0  0  0  0  0  0
   11.7743  -17.4727   25.0188 C   0  0  0  0  0  0  0  0  0  0  0  0
   10.3946  -17.1907   25.5907 C   0  0  2  0  0  0  0  0  0  0  0  0
    9.8902  -15.9767   25.0169 N   0  0  0  0  0  0  0  0  0  0  0  0
   10.4098  -17.2049   27.0477 C   0  0  0  0  0  0  0  0  0  0  0  0
    9.9901  -16.2261   27.7036 O   0  0  0  0  0  0  0  0  0  0  0  0
   10.8900  -18.3044   27.7307 O   0  0  0  0  0  0  0  0  0  0  0  0
  1  5  1  0
  2  1  1  0
  3  2  1  0
  3  4  1  0
  4  5  1  0
  5  6  1  1
  6  7  2  0
  8  9  1  0
  9 10  1  0
 11 10  1  0
 12 11  1  1
 12 14  1  0
 13  6  1  0
 13 12  1  0
 14 19  1  0
 14 15  2  0
 16 17  1  0
 18 17  1  6
 18 20  1  0
 19 18  1  0
 20 21  2  0
 20 22  1  0
M  END
$$$$
