PMS.pdb
     RDKit          3D

 22 22  0  0  1  0  0  0  0  0999 V2000
    7.2852  -14.9439   20.1167 N   0  0  0  0  0  0  0  0  0  0  0  0
    6.6839  -14.0093   19.1867 C   0  0  0  0  0  0  0  0  0  0  0  0
    7.1406  -12.6766   19.7982 C   0  0  0  0  0  0  0  0  0  0  0  0
    8.6398  -12.9867   19.9077 C   0  0  0  0  0  0  0  0  0  0  0  0
    8.6028  -14.4439   20.3330 C   0  0  1  0  0  0  0  0  0  0  0  0
    8.9755  -14.4413   21.7972 C   0  0  0  0  0  0  0  0  0  0  0  0
   10.1448  -14.0575   22.0521 O   0  0  0  0  0  0  0  0  0  0  0  0
    6.1534  -10.7412   26.5845 C   0  0  0  0  0  0  0  0  0  0  0  0
    6.3764  -12.5286   26.6486 S   0  0  0  0  0  0  0  0  0  0  0  0
    6.9280  -13.1015   25.0102 C   0  0  0  0  0  0  0  0  0  0  0  0
    7.0958  -14.5971   25.0076 C   0  0  0  0  0  0  0  0  0  0  0  0
    8.3096  -14.9659   24.1407 C   0  0  2  0  0  0  0  0  0  0  0  0
    8.0249  -14.8539   22.7516 N   0  0  0  0  0  0  0  0  0  0  0  0
    8.8281  -16.3017   24.5183 C   0  0  0  0  0  0  0  0  0  0  0  0
    8.0545  -17.2740   24.4088 O   0  0  0  0  0  0  0  0  0  0  0  0
   12.8281  -17.0113   24.8045 O   0  0  0  0  0  0  0  0  0  0  0  0
   11.9474  -18.0652   24.5848 C   0  0  0  0  0  0  0  0  0  0  0  0
   10.6714  -17.8071   25.3694 C   0  0  2  0  0  0  0  0  0  0  0  0
   10.1406  -16.5294   24.9910 N   0  0  0  0  0  0  0  0  0  0  0  0
   10.8862  -17.9676   26.8016 C   0  0  0  0  0  0  0  0  0  0  0  0
   10.6226  -17.0398   27.5981 O   0  0  0  0  0  0  0  0  0  0  0  0
   11.3864  -19.1518   27.3048 O   0  0  0  0  0  0  0  0  0  0  0  0
  1  5  1  0
  2  1  1  0
  3  2  1  0
  3  4  1  0
  4  5  1  0
  5  6  1  1
  6  7  2  0
  8  9  1  0
  9 10  1  0
 11 10  1  0
 12 11  1  1
 12 14  1  0
 13  6  1  0
 13 12  1  0
 14 19  1  0
 14 15  2  0
 16 17  1  0
 18 17  1  6
 18 20  1  0
 19 18  1  0
 20 21  2  0
 20 22  1  0
M  END
$$$$
