PMS.pdb
     RDKit          3D

 22 22  0  0  1  0  0  0  0  0999 V2000
    7.3235  -15.2888   19.8020 N   0  0  0  0  0  0  0  0  0  0  0  0
    6.6662  -14.5345   18.7537 C   0  0  0  0  0  0  0  0  0  0  0  0
    7.0659  -13.1051   19.1480 C   0  0  0  0  0  0  0  0  0  0  0  0
    8.5795  -13.3262   19.2736 C   0  0  0  0  0  0  0  0  0  0  0  0
    8.6180  -14.7022   19.9144 C   0  0  1  0  0  0  0  0  0  0  0  0
    9.0085  -14.4606   21.3539 C   0  0  0  0  0  0  0  0  0  0  0  0
   10.1709  -14.0149   21.5266 O   0  0  0  0  0  0  0  0  0  0  0  0
    6.8905  -11.6135   28.0929 C   0  0  0  0  0  0  0  0  0  0  0  0
    6.2382  -12.3521   26.5837 S   0  0  0  0  0  0  0  0  0  0  0  0
    7.5501  -13.3572   25.8182 C   0  0  0  0  0  0  0  0  0  0  0  0
    7.1464  -13.7758   24.4302 C   0  0  0  0  0  0  0  0  0  0  0  0
    8.3316  -14.4804   23.7522 C   0  0  2  0  0  0  0  0  0  0  0  0
    8.0803  -14.7394   22.3764 N   0  0  0  0  0  0  0  0  0  0  0  0
    8.7120  -15.6964   24.5089 C   0  0  0  0  0  0  0  0  0  0  0  0
    7.8172  -16.5323   24.7471 O   0  0  0  0  0  0  0  0  0  0  0  0
   12.6650  -16.3090   25.5120 O   0  0  0  0  0  0  0  0  0  0  0  0
   11.9253  -17.4207   25.1225 C   0  0  0  0  0  0  0  0  0  0  0  0
   10.4732  -17.2036   25.5160 C   0  0  2  0  0  0  0  0  0  0  0  0
   10.0227  -15.9562   24.9698 N   0  0  0  0  0  0  0  0  0  0  0  0
   10.2879  -17.3303   26.9558 C   0  0  0  0  0  0  0  0  0  0  0  0
    9.7936  -16.3957   27.6240 O   0  0  0  0  0  0  0  0  0  0  0  0
   10.6566  -18.4896   27.6084 O   0  0  0  0  0  0  0  0  0  0  0  0
  1  5  1  0
  2  1  1  0
  3  2  1  0
  3  4  1  0
  4  5  1  0
  5  6  1  1
  6  7  2  0
  8  9  1  0
  9 10  1  0
 11 10  1  0
 12 11  1  1
 12 14  1  0
 13  6  1  0
 13 12  1  0
 14 19  1  0
 14 15  2  0
 16 17  1  0
 18 17  1  1
 18 20  1  0
 19 18  1  0
 20 21  2  0
 20 22  1  0
M  END
$$$$
