PMS.pdb
     RDKit          3D

 22 22  0  0  1  0  0  0  0  0999 V2000
    7.1117  -15.0275   19.6757 N   0  0  0  0  0  0  0  0  0  0  0  0
    6.5308  -14.1253   18.7019 C   0  0  0  0  0  0  0  0  0  0  0  0
    7.1321  -12.7907   19.1665 C   0  0  0  0  0  0  0  0  0  0  0  0
    8.6050  -13.2191   19.2188 C   0  0  0  0  0  0  0  0  0  0  0  0
    8.4766  -14.6270   19.7728 C   0  0  1  0  0  0  0  0  0  0  0  0
    8.9402  -14.5344   21.2079 C   0  0  0  0  0  0  0  0  0  0  0  0
   10.1718  -14.3365   21.3618 O   0  0  0  0  0  0  0  0  0  0  0  0
    6.8695  -11.9657   28.2120 C   0  0  0  0  0  0  0  0  0  0  0  0
    6.2456  -12.4995   26.6074 S   0  0  0  0  0  0  0  0  0  0  0  0
    7.5599  -13.4296   25.7562 C   0  0  0  0  0  0  0  0  0  0  0  0
    7.1182  -13.8094   24.3686 C   0  0  0  0  0  0  0  0  0  0  0  0
    8.3043  -14.4309   23.6152 C   0  0  2  0  0  0  0  0  0  0  0  0
    7.9986  -14.6706   22.2469 N   0  0  0  0  0  0  0  0  0  0  0  0
    8.7876  -15.6415   24.3200 C   0  0  0  0  0  0  0  0  0  0  0  0
    7.9777  -16.5756   24.4859 O   0  0  0  0  0  0  0  0  0  0  0  0
   12.6983  -18.2500   25.3512 O   0  0  0  0  0  0  0  0  0  0  0  0
   12.1687  -17.0154   24.9903 C   0  0  0  0  0  0  0  0  0  0  0  0
   10.6762  -17.0211   25.2779 C   0  0  2  0  0  0  0  0  0  0  0  0
   10.1053  -15.7918   24.8088 N   0  0  0  0  0  0  0  0  0  0  0  0
   10.4061  -17.3119   26.6800 C   0  0  0  0  0  0  0  0  0  0  0  0
   10.8089  -18.3736   27.2045 O   0  0  0  0  0  0  0  0  0  0  0  0
    9.6980  -16.4159   27.4555 O   0  0  0  0  0  0  0  0  0  0  0  0
  1  5  1  0
  2  1  1  0
  3  2  1  0
  3  4  1  0
  4  5  1  0
  5  6  1  1
  6  7  2  0
  8  9  1  0
  9 10  1  0
 11 10  1  0
 12 11  1  1
 12 14  1  0
 13  6  1  0
 13 12  1  0
 14 19  1  0
 14 15  2  0
 16 17  1  0
 18 17  1  1
 18 20  1  0
 19 18  1  0
 20 21  2  0
 20 22  1  0
M  END
$$$$
