PMS.pdb
     RDKit          3D

 22 22  0  0  1  0  0  0  0  0999 V2000
    7.2694  -14.8724   20.3057 N   0  0  0  0  0  0  0  0  0  0  0  0
    6.7272  -13.9204   19.3572 C   0  0  0  0  0  0  0  0  0  0  0  0
    7.2868  -12.6095   19.9291 C   0  0  0  0  0  0  0  0  0  0  0  0
    8.7605  -13.0256   20.0325 C   0  0  0  0  0  0  0  0  0  0  0  0
    8.6223  -14.4649   20.4962 C   0  0  1  0  0  0  0  0  0  0  0  0
    9.0108  -14.4522   21.9563 C   0  0  0  0  0  0  0  0  0  0  0  0
   10.2236  -14.2160   22.1863 O   0  0  0  0  0  0  0  0  0  0  0  0
    5.1838  -11.8600   26.9756 C   0  0  0  0  0  0  0  0  0  0  0  0
    6.9754  -11.9434   26.7970 S   0  0  0  0  0  0  0  0  0  0  0  0
    7.3613  -12.6395   25.1588 C   0  0  0  0  0  0  0  0  0  0  0  0
    7.1970  -14.1354   25.1735 C   0  0  0  0  0  0  0  0  0  0  0  0
    8.3091  -14.7723   24.3260 C   0  0  2  0  0  0  0  0  0  0  0  0
    8.0265  -14.6969   22.9341 N   0  0  0  0  0  0  0  0  0  0  0  0
    8.5828  -16.1541   24.7859 C   0  0  0  0  0  0  0  0  0  0  0  0
    7.6334  -16.9631   24.7821 O   0  0  0  0  0  0  0  0  0  0  0  0
   12.1753  -17.8684   24.5116 O   0  0  0  0  0  0  0  0  0  0  0  0
   11.0324  -18.6334   24.7200 C   0  0  0  0  0  0  0  0  0  0  0  0
   10.1387  -17.9147   25.7176 C   0  0  2  0  0  0  0  0  0  0  0  0
    9.8510  -16.5991   25.2238 N   0  0  0  0  0  0  0  0  0  0  0  0
   10.7093  -17.9412   27.0581 C   0  0  0  0  0  0  0  0  0  0  0  0
   10.9346  -16.8801   27.6809 O   0  0  0  0  0  0  0  0  0  0  0  0
   11.0118  -19.1437   27.6650 O   0  0  0  0  0  0  0  0  0  0  0  0
  1  5  1  0
  2  1  1  0
  3  2  1  0
  3  4  1  0
  4  5  1  0
  5  6  1  1
  6  7  2  0
  8  9  1  0
  9 10  1  0
 11 10  1  0
 12 11  1  1
 12 14  1  0
 13  6  1  0
 13 12  1  0
 14 19  1  0
 14 15  2  0
 16 17  1  0
 18 17  1  6
 18 20  1  0
 19 18  1  0
 20 21  2  0
 20 22  1  0
M  END
$$$$
