PMS.pdb
     RDKit          3D

 22 22  0  0  1  0  0  0  0  0999 V2000
    7.2258  -14.9790   19.8822 N   0  0  0  0  0  0  0  0  0  0  0  0
    6.6264  -14.1176   18.8829 C   0  0  0  0  0  0  0  0  0  0  0  0
    7.1309  -12.7474   19.3588 C   0  0  0  0  0  0  0  0  0  0  0  0
    8.6239  -13.0869   19.4646 C   0  0  0  0  0  0  0  0  0  0  0  0
    8.5603  -14.4974   20.0234 C   0  0  1  0  0  0  0  0  0  0  0  0
    8.9675  -14.3705   21.4729 C   0  0  0  0  0  0  0  0  0  0  0  0
   10.1658  -14.0446   21.6666 O   0  0  0  0  0  0  0  0  0  0  0  0
    6.9561  -11.2876   27.5556 C   0  0  0  0  0  0  0  0  0  0  0  0
    6.2668  -12.8722   27.0432 S   0  0  0  0  0  0  0  0  0  0  0  0
    7.5381  -13.7801   26.1069 C   0  0  0  0  0  0  0  0  0  0  0  0
    7.1587  -13.8624   24.6529 C   0  0  0  0  0  0  0  0  0  0  0  0
    8.3044  -14.5223   23.8703 C   0  0  2  0  0  0  0  0  0  0  0  0
    8.0146  -14.6164   22.4810 N   0  0  0  0  0  0  0  0  0  0  0  0
    8.6602  -15.8271   24.4759 C   0  0  0  0  0  0  0  0  0  0  0  0
    7.7638  -16.6908   24.5558 O   0  0  0  0  0  0  0  0  0  0  0  0
   11.6542  -17.8129   23.6252 O   0  0  0  0  0  0  0  0  0  0  0  0
   11.6994  -17.7915   25.0153 C   0  0  0  0  0  0  0  0  0  0  0  0
   10.3295  -17.3968   25.5426 C   0  0  2  0  0  0  0  0  0  0  0  0
    9.9496  -16.1412   24.9626 N   0  0  0  0  0  0  0  0  0  0  0  0
   10.2933  -17.4207   26.9991 C   0  0  0  0  0  0  0  0  0  0  0  0
   10.0044  -16.3930   27.6509 O   0  0  0  0  0  0  0  0  0  0  0  0
   10.5787  -18.5836   27.6861 O   0  0  0  0  0  0  0  0  0  0  0  0
  1  5  1  0
  2  1  1  0
  3  2  1  0
  3  4  1  0
  4  5  1  0
  5  6  1  1
  6  7  2  0
  8  9  1  0
  9 10  1  0
 11 10  1  0
 12 11  1  1
 12 14  1  0
 13  6  1  0
 13 12  1  0
 14 19  1  0
 14 15  2  0
 16 17  1  0
 18 17  1  1
 18 20  1  0
 19 18  1  0
 20 21  2  0
 20 22  1  0
M  END
$$$$
