PMS.pdb
     RDKit          3D

 22 22  0  0  1  0  0  0  0  0999 V2000
    7.3679  -15.0570   19.8261 N   0  0  0  0  0  0  0  0  0  0  0  0
    6.7702  -14.2924   18.7500 C   0  0  0  0  0  0  0  0  0  0  0  0
    7.2147  -12.8742   19.1370 C   0  0  0  0  0  0  0  0  0  0  0  0
    8.7144  -13.1525   19.3080 C   0  0  0  0  0  0  0  0  0  0  0  0
    8.6810  -14.5198   19.9674 C   0  0  1  0  0  0  0  0  0  0  0  0
    9.0407  -14.2735   21.4141 C   0  0  0  0  0  0  0  0  0  0  0  0
   10.2078  -13.8511   21.6119 O   0  0  0  0  0  0  0  0  0  0  0  0
    7.1437  -11.8876   28.4363 C   0  0  0  0  0  0  0  0  0  0  0  0
    6.5368  -12.2072   26.7695 S   0  0  0  0  0  0  0  0  0  0  0  0
    7.6531  -13.4017   25.9668 C   0  0  0  0  0  0  0  0  0  0  0  0
    7.2384  -13.6275   24.5379 C   0  0  0  0  0  0  0  0  0  0  0  0
    8.3513  -14.3933   23.8059 C   0  0  2  0  0  0  0  0  0  0  0  0
    8.0817  -14.5232   22.4154 N   0  0  0  0  0  0  0  0  0  0  0  0
    8.6066  -15.6937   24.4688 C   0  0  0  0  0  0  0  0  0  0  0  0
    7.6351  -16.4583   24.6348 O   0  0  0  0  0  0  0  0  0  0  0  0
   12.2123  -16.7941   24.4055 O   0  0  0  0  0  0  0  0  0  0  0  0
   11.4975  -17.8902   24.8769 C   0  0  0  0  0  0  0  0  0  0  0  0
   10.1831  -17.4010   25.4629 C   0  0  2  0  0  0  0  0  0  0  0  0
    9.8808  -16.1090   24.9181 N   0  0  0  0  0  0  0  0  0  0  0  0
   10.1993  -17.4496   26.9191 C   0  0  0  0  0  0  0  0  0  0  0  0
    9.9983  -16.4184   27.5980 O   0  0  0  0  0  0  0  0  0  0  0  0
   10.4378  -18.6402   27.5759 O   0  0  0  0  0  0  0  0  0  0  0  0
  1  5  1  0
  2  1  1  0
  3  2  1  0
  3  4  1  0
  4  5  1  0
  5  6  1  1
  6  7  2  0
  8  9  1  0
  9 10  1  0
 11 10  1  0
 12 11  1  1
 12 14  1  0
 13  6  1  0
 13 12  1  0
 14 19  1  0
 14 15  2  0
 16 17  1  0
 18 17  1  6
 18 20  1  0
 19 18  1  0
 20 21  2  0
 20 22  1  0
M  END
$$$$
