PMS.pdb
     RDKit          3D

 22 22  0  0  1  0  0  0  0  0999 V2000
    7.1442  -14.9374   20.0269 N   0  0  0  0  0  0  0  0  0  0  0  0
    6.6331  -14.0266   19.0223 C   0  0  0  0  0  0  0  0  0  0  0  0
    7.3536  -12.7326   19.4285 C   0  0  0  0  0  0  0  0  0  0  0  0
    8.7841  -13.2859   19.4864 C   0  0  0  0  0  0  0  0  0  0  0  0
    8.5398  -14.6544   20.0972 C   0  0  1  0  0  0  0  0  0  0  0  0
    9.0258  -14.5466   21.5238 C   0  0  0  0  0  0  0  0  0  0  0  0
   10.2687  -14.4181   21.6584 O   0  0  0  0  0  0  0  0  0  0  0  0
    5.3965  -12.0994   26.8631 C   0  0  0  0  0  0  0  0  0  0  0  0
    7.1845  -11.8721   26.8548 S   0  0  0  0  0  0  0  0  0  0  0  0
    7.9514  -13.3468   26.1103 C   0  0  0  0  0  0  0  0  0  0  0  0
    7.4669  -13.5323   24.6977 C   0  0  0  0  0  0  0  0  0  0  0  0
    8.4465  -14.4463   23.9455 C   0  0  2  0  0  0  0  0  0  0  0  0
    8.0908  -14.5952   22.5764 N   0  0  0  0  0  0  0  0  0  0  0  0
    8.5892  -15.7423   24.6496 C   0  0  0  0  0  0  0  0  0  0  0  0
    7.5688  -16.4494   24.7709 O   0  0  0  0  0  0  0  0  0  0  0  0
   12.2122  -17.5148   24.8875 O   0  0  0  0  0  0  0  0  0  0  0  0
   11.0417  -18.2650   24.9313 C   0  0  0  0  0  0  0  0  0  0  0  0
   10.0107  -17.5140   25.7580 C   0  0  2  0  0  0  0  0  0  0  0  0
    9.8091  -16.2146   25.1852 N   0  0  0  0  0  0  0  0  0  0  0  0
   10.3705  -17.4983   27.1700 C   0  0  0  0  0  0  0  0  0  0  0  0
   10.5205  -16.4179   27.7821 O   0  0  0  0  0  0  0  0  0  0  0  0
   10.5523  -18.6813   27.8579 O   0  0  0  0  0  0  0  0  0  0  0  0
  1  5  1  0
  2  1  1  0
  3  2  1  0
  3  4  1  0
  4  5  1  0
  5  6  1  1
  6  7  2  0
  8  9  1  0
  9 10  1  0
 11 10  1  0
 12 11  1  1
 12 14  1  0
 13  6  1  0
 13 12  1  0
 14 19  1  0
 14 15  2  0
 16 17  1  0
 18 17  1  6
 18 20  1  0
 19 18  1  0
 20 21  2  0
 20 22  1  0
M  END
$$$$
