PMS.pdb
     RDKit          3D

 22 22  0  0  1  0  0  0  0  0999 V2000
    7.4927  -15.0854   20.1292 N   0  0  0  0  0  0  0  0  0  0  0  0
    6.7675  -14.2453   19.1974 C   0  0  0  0  0  0  0  0  0  0  0  0
    7.0544  -12.8588   19.7924 C   0  0  0  0  0  0  0  0  0  0  0  0
    8.5820  -12.9724   19.8889 C   0  0  0  0  0  0  0  0  0  0  0  0
    8.7369  -14.4179   20.3273 C   0  0  1  0  0  0  0  0  0  0  0  0
    9.1197  -14.3527   21.7875 C   0  0  0  0  0  0  0  0  0  0  0  0
   10.2716  -13.9072   22.0203 O   0  0  0  0  0  0  0  0  0  0  0  0
    6.7690  -10.8876   27.3149 C   0  0  0  0  0  0  0  0  0  0  0  0
    6.3699  -12.5525   26.7516 S   0  0  0  0  0  0  0  0  0  0  0  0
    7.5378  -13.0118   25.4316 C   0  0  0  0  0  0  0  0  0  0  0  0
    7.3451  -14.4519   25.0397 C   0  0  0  0  0  0  0  0  0  0  0  0
    8.5141  -14.8906   24.1442 C   0  0  2  0  0  0  0  0  0  0  0  0
    8.1964  -14.7794   22.7622 N   0  0  0  0  0  0  0  0  0  0  0  0
    8.9756  -16.2466   24.5236 C   0  0  0  0  0  0  0  0  0  0  0  0
    8.1314  -17.1650   24.5254 O   0  0  0  0  0  0  0  0  0  0  0  0
   12.9796  -16.9635   25.3029 O   0  0  0  0  0  0  0  0  0  0  0  0
   12.2179  -18.0134   24.8004 C   0  0  0  0  0  0  0  0  0  0  0  0
   10.7832  -17.8462   25.2735 C   0  0  2  0  0  0  0  0  0  0  0  0
   10.3093  -16.5510   24.8795 N   0  0  0  0  0  0  0  0  0  0  0  0
   10.6575  -18.1234   26.6985 C   0  0  0  0  0  0  0  0  0  0  0  0
   10.1898  -17.2664   27.4804 O   0  0  0  0  0  0  0  0  0  0  0  0
   11.0545  -19.3423   27.2109 O   0  0  0  0  0  0  0  0  0  0  0  0
  1  5  1  0
  2  1  1  0
  3  2  1  0
  3  4  1  0
  4  5  1  0
  5  6  1  1
  6  7  2  0
  8  9  1  0
  9 10  1  0
 11 10  1  0
 12 11  1  1
 12 14  1  0
 13  6  1  0
 13 12  1  0
 14 19  1  0
 14 15  2  0
 16 17  1  0
 18 17  1  1
 18 20  1  0
 19 18  1  0
 20 21  2  0
 20 22  1  0
M  END
$$$$
