PMS.pdb
     RDKit          3D

 22 22  0  0  1  0  0  0  0  0999 V2000
    7.3727  -14.9596   19.7980 N   0  0  0  0  0  0  0  0  0  0  0  0
    6.8644  -14.0714   18.7720 C   0  0  0  0  0  0  0  0  0  0  0  0
    7.3391  -12.7166   19.3176 C   0  0  0  0  0  0  0  0  0  0  0  0
    8.8156  -13.0730   19.5380 C   0  0  0  0  0  0  0  0  0  0  0  0
    8.6949  -14.4943   20.0586 C   0  0  1  0  0  0  0  0  0  0  0  0
    8.9826  -14.4022   21.5391 C   0  0  0  0  0  0  0  0  0  0  0  0
   10.1974  -14.2970   21.8436 O   0  0  0  0  0  0  0  0  0  0  0  0
    7.5773  -11.8225   28.3169 C   0  0  0  0  0  0  0  0  0  0  0  0
    7.1354  -11.9162   26.5720 S   0  0  0  0  0  0  0  0  0  0  0  0
    7.2028  -13.6602   26.0514 C   0  0  0  0  0  0  0  0  0  0  0  0
    6.8893  -13.7813   24.5845 C   0  0  0  0  0  0  0  0  0  0  0  0
    8.0873  -14.4194   23.8647 C   0  0  2  0  0  0  0  0  0  0  0  0
    7.9115  -14.4386   22.4534 N   0  0  0  0  0  0  0  0  0  0  0  0
    8.3764  -15.7587   24.4291 C   0  0  0  0  0  0  0  0  0  0  0  0
    7.4429  -16.5855   24.4625 O   0  0  0  0  0  0  0  0  0  0  0  0
   12.2011  -17.0957   24.6820 O   0  0  0  0  0  0  0  0  0  0  0  0
   11.1435  -17.9952   24.5966 C   0  0  0  0  0  0  0  0  0  0  0  0
    9.9759  -17.4546   25.4057 C   0  0  2  0  0  0  0  0  0  0  0  0
    9.6420  -16.1447   24.9263 N   0  0  0  0  0  0  0  0  0  0  0  0
   10.2449  -17.5198   26.8363 C   0  0  0  0  0  0  0  0  0  0  0  0
   10.2226  -16.4868   27.5413 O   0  0  0  0  0  0  0  0  0  0  0  0
   10.5298  -18.7285   27.4394 O   0  0  0  0  0  0  0  0  0  0  0  0
  1  5  1  0
  2  1  1  0
  3  2  1  0
  3  4  1  0
  4  5  1  0
  5  6  1  1
  6  7  2  0
  8  9  1  0
  9 10  1  0
 11 10  1  0
 12 11  1  1
 12 14  1  0
 13  6  1  0
 13 12  1  0
 14 19  1  0
 14 15  2  0
 16 17  1  0
 18 17  1  6
 18 20  1  0
 19 18  1  0
 20 21  2  0
 20 22  1  0
M  END
$$$$
