PMS.pdb
     RDKit          3D

 22 22  0  0  1  0  0  0  0  0999 V2000
    7.2606  -14.8860   19.8987 N   0  0  0  0  0  0  0  0  0  0  0  0
    6.7668  -13.9493   18.9095 C   0  0  0  0  0  0  0  0  0  0  0  0
    7.3652  -12.6399   19.4440 C   0  0  0  0  0  0  0  0  0  0  0  0
    8.8213  -13.1043   19.5845 C   0  0  0  0  0  0  0  0  0  0  0  0
    8.6245  -14.5205   20.0959 C   0  0  1  0  0  0  0  0  0  0  0  0
    8.9925  -14.4701   21.5605 C   0  0  0  0  0  0  0  0  0  0  0  0
   10.2105  -14.2746   21.8008 O   0  0  0  0  0  0  0  0  0  0  0  0
    6.4380  -10.8543   26.3215 C   0  0  0  0  0  0  0  0  0  0  0  0
    6.2224  -12.5381   26.9273 S   0  0  0  0  0  0  0  0  0  0  0  0
    7.4365  -13.6116   26.0960 C   0  0  0  0  0  0  0  0  0  0  0  0
    7.0850  -13.7709   24.6414 C   0  0  0  0  0  0  0  0  0  0  0  0
    8.2195  -14.5234   23.9290 C   0  0  2  0  0  0  0  0  0  0  0  0
    7.9853  -14.6391   22.5308 N   0  0  0  0  0  0  0  0  0  0  0  0
    8.4645  -15.8299   24.5838 C   0  0  0  0  0  0  0  0  0  0  0  0
    7.5191  -16.6426   24.6239 O   0  0  0  0  0  0  0  0  0  0  0  0
   12.1940  -17.2932   24.8113 O   0  0  0  0  0  0  0  0  0  0  0  0
   11.0905  -18.1392   24.8467 C   0  0  0  0  0  0  0  0  0  0  0  0
   10.0075  -17.4943   25.6962 C   0  0  2  0  0  0  0  0  0  0  0  0
    9.7014  -16.1999   25.1593 N   0  0  0  0  0  0  0  0  0  0  0  0
   10.3717  -17.4881   27.1071 C   0  0  0  0  0  0  0  0  0  0  0  0
   10.4624  -16.4142   27.7419 O   0  0  0  0  0  0  0  0  0  0  0  0
   10.6237  -18.6732   27.7689 O   0  0  0  0  0  0  0  0  0  0  0  0
  1  5  1  0
  2  1  1  0
  3  2  1  0
  3  4  1  0
  4  5  1  0
  5  6  1  1
  6  7  2  0
  8  9  1  0
  9 10  1  0
 11 10  1  0
 12 11  1  1
 12 14  1  0
 13  6  1  0
 13 12  1  0
 14 19  1  0
 14 15  2  0
 16 17  1  0
 18 17  1  6
 18 20  1  0
 19 18  1  0
 20 21  2  0
 20 22  1  0
M  END
$$$$
