PMS.pdb
     RDKit          3D

 22 22  0  0  1  0  0  0  0  0999 V2000
    7.7548  -18.8477   18.5103 N   0  0  0  0  0  0  0  0  0  0  0  0
    6.7670  -18.7086   17.4593 C   0  0  0  0  0  0  0  0  0  0  0  0
    7.0367  -17.2637   17.0144 C   0  0  0  0  0  0  0  0  0  0  0  0
    8.5529  -17.3771   16.8047 C   0  0  0  0  0  0  0  0  0  0  0  0
    8.9403  -18.2651   17.9738 C   0  0  1  0  0  0  0  0  0  0  0  0
    9.6196  -17.3473   18.9634 C   0  0  0  0  0  0  0  0  0  0  0  0
   10.7263  -16.8825   18.5912 O   0  0  0  0  0  0  0  0  0  0  0  0
    6.8543  -11.5486   20.2989 C   0  0  0  0  0  0  0  0  0  0  0  0
    6.9549  -12.9744   21.3970 S   0  0  0  0  0  0  0  0  0  0  0  0
    8.2728  -14.0771   20.7935 C   0  0  0  0  0  0  0  0  0  0  0  0
    8.4504  -15.2420   21.7295 C   0  0  0  0  0  0  0  0  0  0  0  0
    9.5261  -16.1824   21.1644 C   0  0  2  0  0  0  0  0  0  0  0  0
    8.9940  -17.0788   20.1968 N   0  0  0  0  0  0  0  0  0  0  0  0
   10.2372  -16.8752   22.2646 C   0  0  0  0  0  0  0  0  0  0  0  0
    9.7294  -17.9235   22.7110 O   0  0  0  0  0  0  0  0  0  0  0  0
   14.2025  -16.5759   22.8197 O   0  0  0  0  0  0  0  0  0  0  0  0
   13.5331  -16.4284   24.0301 C   0  0  0  0  0  0  0  0  0  0  0  0
   12.1527  -17.0518   23.9041 C   0  0  2  0  0  0  0  0  0  0  0  0
   11.4488  -16.4152   22.8286 N   0  0  0  0  0  0  0  0  0  0  0  0
   11.4441  -17.0367   25.1773 C   0  0  0  0  0  0  0  0  0  0  0  0
   10.3930  -16.3737   25.3190 O   0  0  0  0  0  0  0  0  0  0  0  0
   11.9240  -17.7573   26.2525 O   0  0  0  0  0  0  0  0  0  0  0  0
  1  5  1  0
  2  1  1  0
  3  2  1  0
  3  4  1  0
  4  5  1  0
  5  6  1  1
  6  7  2  0
  8  9  1  0
  9 10  1  0
 11 10  1  0
 12 11  1  1
 12 14  1  0
 13  6  1  0
 13 12  1  0
 14 19  1  0
 14 15  2  0
 16 17  1  0
 18 17  1  1
 18 20  1  0
 19 18  1  0
 20 21  2  0
 20 22  1  0
M  END
$$$$
