PMS.pdb
     RDKit          3D

 22 22  0  0  1  0  0  0  0  0999 V2000
    7.2877  -14.9677   19.7181 N   0  0  0  0  0  0  0  0  0  0  0  0
    6.7635  -14.1398   18.6504 C   0  0  0  0  0  0  0  0  0  0  0  0
    7.3783  -12.7830   19.0240 C   0  0  0  0  0  0  0  0  0  0  0  0
    8.8380  -13.2348   19.1682 C   0  0  0  0  0  0  0  0  0  0  0  0
    8.6571  -14.5878   19.8331 C   0  0  1  0  0  0  0  0  0  0  0  0
    9.0703  -14.3833   21.2720 C   0  0  0  0  0  0  0  0  0  0  0  0
   10.3035  -14.2295   21.4590 O   0  0  0  0  0  0  0  0  0  0  0  0
    6.1299  -12.5810   28.1733 C   0  0  0  0  0  0  0  0  0  0  0  0
    6.7538  -11.9099   26.6211 S   0  0  0  0  0  0  0  0  0  0  0  0
    7.7863  -13.1766   25.8170 C   0  0  0  0  0  0  0  0  0  0  0  0
    7.3345  -13.3974   24.3986 C   0  0  0  0  0  0  0  0  0  0  0  0
    8.3820  -14.2476   23.6633 C   0  0  2  0  0  0  0  0  0  0  0  0
    8.0845  -14.3777   22.2785 N   0  0  0  0  0  0  0  0  0  0  0  0
    8.5572  -15.5533   24.3418 C   0  0  0  0  0  0  0  0  0  0  0  0
    7.5749  -16.3212   24.3799 O   0  0  0  0  0  0  0  0  0  0  0  0
   12.2702  -17.1549   24.8741 O   0  0  0  0  0  0  0  0  0  0  0  0
   11.1300  -17.9463   24.7819 C   0  0  0  0  0  0  0  0  0  0  0  0
    9.9970  -17.2594   25.5267 C   0  0  2  0  0  0  0  0  0  0  0  0
    9.7672  -15.9701   24.9417 N   0  0  0  0  0  0  0  0  0  0  0  0
   10.2445  -17.2316   26.9624 C   0  0  0  0  0  0  0  0  0  0  0  0
   10.2797  -16.1484   27.5868 O   0  0  0  0  0  0  0  0  0  0  0  0
   10.4449  -18.4060   27.6598 O   0  0  0  0  0  0  0  0  0  0  0  0
  1  5  1  0
  2  1  1  0
  3  2  1  0
  3  4  1  0
  4  5  1  0
  5  6  1  1
  6  7  2  0
  8  9  1  0
  9 10  1  0
 11 10  1  0
 12 11  1  1
 12 14  1  0
 13  6  1  0
 13 12  1  0
 14 19  1  0
 14 15  2  0
 16 17  1  0
 18 17  1  6
 18 20  1  0
 19 18  1  0
 20 21  2  0
 20 22  1  0
M  END
$$$$
