PMS.pdb
     RDKit          3D

 22 22  0  0  1  0  0  0  0  0999 V2000
    7.2889  -14.9686   20.3299 N   0  0  0  0  0  0  0  0  0  0  0  0
    6.6848  -14.0352   19.4005 C   0  0  0  0  0  0  0  0  0  0  0  0
    7.1894  -12.7040   19.9765 C   0  0  0  0  0  0  0  0  0  0  0  0
    8.6832  -13.0484   20.0510 C   0  0  0  0  0  0  0  0  0  0  0  0
    8.6234  -14.4970   20.5021 C   0  0  1  0  0  0  0  0  0  0  0  0
    9.0357  -14.4792   21.9556 C   0  0  0  0  0  0  0  0  0  0  0  0
   10.2289  -14.1477   22.1703 O   0  0  0  0  0  0  0  0  0  0  0  0
    6.9968  -11.2427   27.5513 C   0  0  0  0  0  0  0  0  0  0  0  0
    6.0530  -12.1315   26.2991 S   0  0  0  0  0  0  0  0  0  0  0  0
    7.2172  -12.8306   25.0855 C   0  0  0  0  0  0  0  0  0  0  0  0
    7.2495  -14.3312   25.1951 C   0  0  0  0  0  0  0  0  0  0  0  0
    8.3990  -14.8743   24.3323 C   0  0  2  0  0  0  0  0  0  0  0  0
    8.0927  -14.8226   22.9443 N   0  0  0  0  0  0  0  0  0  0  0  0
    8.7918  -16.2288   24.7872 C   0  0  0  0  0  0  0  0  0  0  0  0
    7.9121  -17.1132   24.7959 O   0  0  0  0  0  0  0  0  0  0  0  0
   11.7270  -17.9800   23.6617 O   0  0  0  0  0  0  0  0  0  0  0  0
   11.8182  -18.2401   25.0250 C   0  0  0  0  0  0  0  0  0  0  0  0
   10.5028  -17.8585   25.6842 C   0  0  2  0  0  0  0  0  0  0  0  0
   10.0982  -16.5678   25.2071 N   0  0  0  0  0  0  0  0  0  0  0  0
   10.5852  -17.9634   27.1352 C   0  0  0  0  0  0  0  0  0  0  0  0
   10.9518  -19.0269   27.6821 O   0  0  0  0  0  0  0  0  0  0  0  0
   10.2583  -16.8855   27.9334 O   0  0  0  0  0  0  0  0  0  0  0  0
  1  5  1  0
  2  1  1  0
  3  2  1  0
  3  4  1  0
  4  5  1  0
  5  6  1  1
  6  7  2  0
  8  9  1  0
  9 10  1  0
 11 10  1  0
 12 11  1  1
 12 14  1  0
 13  6  1  0
 13 12  1  0
 14 19  1  0
 14 15  2  0
 16 17  1  0
 18 17  1  6
 18 20  1  0
 19 18  1  0
 20 21  2  0
 20 22  1  0
M  END
$$$$
