FAK.pdb
     RDKit          3D

 26 26  0  0  1  0  0  0  0  0999 V2000
    6.1171  -16.6176   25.2198 N   0  0  0  0  0  0  0  0  0  0  0  0
    7.1094  -15.7151   24.6694 C   0  0  1  0  0  0  0  0  0  0  0  0
    7.7584  -14.9852   25.8174 C   0  0  0  0  0  0  0  0  0  0  0  0
    7.1804  -13.6243   25.9609 C   0  0  0  0  0  0  0  0  0  0  0  0
    7.7170  -12.5492   25.2839 C   0  0  0  0  0  0  0  0  0  0  0  0
    7.1696  -11.2916   25.4282 C   0  0  0  0  0  0  0  0  0  0  0  0
    6.0739  -11.1256   26.2626 C   0  0  0  0  0  0  0  0  0  0  0  0
    5.5503  -12.2107   26.9316 C   0  0  0  0  0  0  0  0  0  0  0  0
    6.0910  -13.4606   26.7909 C   0  0  0  0  0  0  0  0  0  0  0  0
    8.0388  -16.4604   23.8182 C   0  0  0  0  0  0  0  0  0  0  0  0
    8.4491  -17.6157   24.1820 O   0  0  0  0  0  0  0  0  0  0  0  0
    9.9681  -15.7885   20.6328 C   0  0  0  0  0  0  0  0  0  0  0  0
    9.6796  -16.5857   21.9121 C   0  0  2  0  0  0  0  0  0  0  0  0
    8.5456  -16.0029   22.5795 N   0  0  0  0  0  0  0  0  0  0  0  0
   10.9326  -16.5421   22.6995 C   0  0  0  0  0  0  0  0  0  0  0  0
   11.2035  -15.6308   23.5171 O   0  0  0  0  0  0  0  0  0  0  0  0
   11.8583  -17.5839   22.5102 N   0  0  0  0  0  0  0  0  0  0  0  0
   12.9262  -17.7896   23.5707 C   0  0  1  0  0  0  0  0  0  0  0  0
   12.4576  -18.9707   24.3426 C   0  0  0  0  0  0  0  0  0  0  0  0
   12.8565  -19.1585   25.7286 C   0  0  0  0  0  0  0  0  0  0  0  0
   12.3731  -20.3137   26.5128 C   0  0  0  0  0  0  0  0  0  0  0  0
   12.8879  -20.2156   27.9763 C   0  0  0  0  0  0  0  0  0  0  0  0
   12.3973  -21.3531   28.7137 N   0  0  0  0  0  0  0  0  0  0  0  0
   14.1091  -18.0930   22.7029 C   0  0  0  0  0  0  0  0  0  0  0  0
   14.1196  -18.7671   21.5153 O   0  0  0  0  0  0  0  0  0  0  0  0
   15.2470  -17.6686   23.1372 O   0  0  0  0  0  0  0  0  0  0  0  0
  2  1  1  1
  2 10  1  0
  3  2  1  0
  3  4  1  0
  4  5  2  0
  4  9  1  0
  5  6  1  0
  6  7  2  0
  8  7  1  0
  9  8  2  0
 10 11  2  0
 13 12  1  6
 13 15  1  0
 14 10  1  0
 14 13  1  0
 15 16  2  0
 17 15  1  0
 17 18  1  0
 18 24  1  0
 19 20  1  0
 18 19  1  1
 21 20  1  0
 22 23  1  0
 22 21  1  0
 24 25  1  0
 26 24  2  0
M  END
$$$$
