FAK.pdb
     RDKit          3D

 26 26  0  0  1  0  0  0  0  0999 V2000
    9.4748  -16.7575   19.7935 N   0  0  0  0  0  0  0  0  0  0  0  0
    9.3356  -16.2016   21.1252 C   0  0  1  0  0  0  0  0  0  0  0  0
    7.9253  -15.6890   21.2678 C   0  0  0  0  0  0  0  0  0  0  0  0
    7.7275  -14.4743   20.4359 C   0  0  0  0  0  0  0  0  0  0  0  0
    8.1569  -13.2377   20.8703 C   0  0  0  0  0  0  0  0  0  0  0  0
    7.9652  -12.1191   20.0869 C   0  0  0  0  0  0  0  0  0  0  0  0
    7.3356  -12.2569   18.8585 C   0  0  0  0  0  0  0  0  0  0  0  0
    6.9129  -13.4999   18.4397 C   0  0  0  0  0  0  0  0  0  0  0  0
    7.1014  -14.6128   19.2147 C   0  0  0  0  0  0  0  0  0  0  0  0
    9.7241  -17.2011   22.1222 C   0  0  0  0  0  0  0  0  0  0  0  0
    9.5105  -16.9794   23.3633 O   0  0  0  0  0  0  0  0  0  0  0  0
   11.7162  -20.4015   22.1691 C   0  0  0  0  0  0  0  0  0  0  0  0
   10.7931  -19.3685   22.8297 C   0  0  2  0  0  0  0  0  0  0  0  0
   10.3386  -18.4406   21.8280 N   0  0  0  0  0  0  0  0  0  0  0  0
   11.5963  -18.7487   23.9080 C   0  0  0  0  0  0  0  0  0  0  0  0
   12.6497  -18.1010   23.6997 O   0  0  0  0  0  0  0  0  0  0  0  0
   11.1422  -18.9026   25.2302 N   0  0  0  0  0  0  0  0  0  0  0  0
   11.8957  -18.1766   26.3313 C   0  0  1  0  0  0  0  0  0  0  0  0
   10.9095  -17.2067   26.8762 C   0  0  0  0  0  0  0  0  0  0  0  0
   11.2393  -16.3777   28.0249 C   0  0  0  0  0  0  0  0  0  0  0  0
   10.2722  -15.3991   28.5636 C   0  0  0  0  0  0  0  0  0  0  0  0
   10.8934  -14.6497   29.7756 C   0  0  0  0  0  0  0  0  0  0  0  0
    9.9407  -13.6792   30.2539 N   0  0  0  0  0  0  0  0  0  0  0  0
   12.1680  -19.3166   27.2645 C   0  0  0  0  0  0  0  0  0  0  0  0
   13.2656  -19.5009   28.0559 O   0  0  0  0  0  0  0  0  0  0  0  0
   11.2569  -20.2279   27.3177 O   0  0  0  0  0  0  0  0  0  0  0  0
  2  1  1  6
  2 10  1  0
  3  2  1  0
  3  4  1  0
  4  5  2  0
  4  9  1  0
  5  6  1  0
  6  7  2  0
  8  7  1  0
  9  8  2  0
 10 11  2  0
 13 12  1  6
 13 15  1  0
 14 10  1  0
 14 13  1  0
 15 16  2  0
 17 15  1  0
 17 18  1  0
 18 24  1  0
 19 20  1  0
 18 19  1  1
 21 20  1  0
 22 23  1  0
 22 21  1  0
 24 25  1  0
 26 24  2  0
M  END
$$$$
