FAK.pdb
     RDKit          3D

 26 26  0  0  1  0  0  0  0  0999 V2000
    8.1455  -16.7640   19.1577 N   0  0  0  0  0  0  0  0  0  0  0  0
    8.7042  -16.8190   20.4944 C   0  0  1  0  0  0  0  0  0  0  0  0
    7.8320  -15.9826   21.3953 C   0  0  0  0  0  0  0  0  0  0  0  0
    7.6219  -14.6340   20.8090 C   0  0  0  0  0  0  0  0  0  0  0  0
    6.6676  -14.4228   19.8359 C   0  0  0  0  0  0  0  0  0  0  0  0
    6.4851  -13.1650   19.3006 C   0  0  0  0  0  0  0  0  0  0  0  0
    7.2742  -12.1186   19.7551 C   0  0  0  0  0  0  0  0  0  0  0  0
    8.2230  -12.3471   20.7281 C   0  0  0  0  0  0  0  0  0  0  0  0
    8.4072  -13.5944   21.2618 C   0  0  0  0  0  0  0  0  0  0  0  0
    8.8509  -18.2144   20.9129 C   0  0  0  0  0  0  0  0  0  0  0  0
    8.5449  -19.1573   20.1051 O   0  0  0  0  0  0  0  0  0  0  0  0
   11.5466  -18.0661   21.4206 C   0  0  0  0  0  0  0  0  0  0  0  0
   10.7119  -18.7125   22.5345 C   0  0  2  0  0  0  0  0  0  0  0  0
    9.3194  -18.6339   22.1798 N   0  0  0  0  0  0  0  0  0  0  0  0
   11.0631  -17.9791   23.7718 C   0  0  0  0  0  0  0  0  0  0  0  0
   12.2414  -17.7050   24.1016 O   0  0  0  0  0  0  0  0  0  0  0  0
   10.0098  -17.5749   24.6115 N   0  0  0  0  0  0  0  0  0  0  0  0
   10.1373  -16.2380   25.3212 C   0  0  1  0  0  0  0  0  0  0  0  0
    8.8006  -15.6068   25.1629 C   0  0  0  0  0  0  0  0  0  0  0  0
    8.4787  -14.3659   25.8500 C   0  0  0  0  0  0  0  0  0  0  0  0
    7.1305  -13.7687   25.7570 C   0  0  0  0  0  0  0  0  0  0  0  0
    7.0622  -12.4739   26.6145 C   0  0  0  0  0  0  0  0  0  0  0  0
    5.7255  -11.9397   26.5355 N   0  0  0  0  0  0  0  0  0  0  0  0
   10.3996  -16.7030   26.7211 C   0  0  0  0  0  0  0  0  0  0  0  0
   10.3408  -17.9810   27.1989 O   0  0  0  0  0  0  0  0  0  0  0  0
   10.7126  -15.7824   27.5685 O   0  0  0  0  0  0  0  0  0  0  0  0
  2  1  1  6
  2 10  1  0
  3  2  1  0
  3  4  1  0
  4  5  2  0
  4  9  1  0
  5  6  1  0
  6  7  2  0
  8  7  1  0
  9  8  2  0
 10 11  2  0
 13 12  1  6
 13 15  1  0
 14 10  1  0
 14 13  1  0
 15 16  2  0
 17 15  1  0
 17 18  1  0
 18 24  1  0
 19 20  1  0
 18 19  1  1
 21 20  1  0
 22 23  1  0
 22 21  1  0
 24 25  1  0
 26 24  2  0
M  END
$$$$
