FAK.pdb
     RDKit          3D

 26 26  0  0  1  0  0  0  0  0999 V2000
    8.2003  -16.5778   21.9193 N   0  0  0  0  0  0  0  0  0  0  0  0
    8.5677  -16.9101   20.5567 C   0  0  1  0  0  0  0  0  0  0  0  0
    7.6760  -16.1220   19.6317 C   0  0  0  0  0  0  0  0  0  0  0  0
    7.7879  -14.6682   19.9160 C   0  0  0  0  0  0  0  0  0  0  0  0
    7.4219  -14.1536   21.1421 C   0  0  0  0  0  0  0  0  0  0  0  0
    7.5308  -12.8014   21.3905 C   0  0  0  0  0  0  0  0  0  0  0  0
    8.0131  -11.9696   20.3907 C   0  0  0  0  0  0  0  0  0  0  0  0
    8.3744  -12.5004   19.1713 C   0  0  0  0  0  0  0  0  0  0  0  0
    8.2676  -13.8423   18.9209 C   0  0  0  0  0  0  0  0  0  0  0  0
   10.0008  -16.6833   20.3609 C   0  0  0  0  0  0  0  0  0  0  0  0
   10.8262  -17.6466   20.5222 O   0  0  0  0  0  0  0  0  0  0  0  0
   12.1931  -13.9660   18.9601 C   0  0  0  0  0  0  0  0  0  0  0  0
   11.9891  -15.2589   19.7616 C   0  0  2  0  0  0  0  0  0  0  0  0
   10.5814  -15.4467   19.9942 N   0  0  0  0  0  0  0  0  0  0  0  0
   12.7891  -15.0924   20.9962 C   0  0  0  0  0  0  0  0  0  0  0  0
   12.5771  -14.1895   21.8402 O   0  0  0  0  0  0  0  0  0  0  0  0
   13.8382  -16.0016   21.2212 N   0  0  0  0  0  0  0  0  0  0  0  0
   14.6559  -15.8459   22.4917 C   0  0  1  0  0  0  0  0  0  0  0  0
   14.4026  -17.0994   23.2499 C   0  0  0  0  0  0  0  0  0  0  0  0
   14.8020  -18.3889   22.7083 C   0  0  0  0  0  0  0  0  0  0  0  0
   14.5091  -19.6444   23.4302 C   0  0  0  0  0  0  0  0  0  0  0  0
   14.9917  -20.8631   22.5946 C   0  0  0  0  0  0  0  0  0  0  0  0
   14.6634  -22.0707   23.3103 N   0  0  0  0  0  0  0  0  0  0  0  0
   16.0369  -15.7835   21.9144 C   0  0  0  0  0  0  0  0  0  0  0  0
   16.4050  -15.9753   20.6133 O   0  0  0  0  0  0  0  0  0  0  0  0
   16.9832  -15.5219   22.7508 O   0  0  0  0  0  0  0  0  0  0  0  0
  2  1  1  1
  2 10  1  0
  3  2  1  0
  3  4  1  0
  4  5  2  0
  4  9  1  0
  5  6  1  0
  6  7  2  0
  8  7  1  0
  9  8  2  0
 10 11  2  0
 13 12  1  6
 13 15  1  0
 14 10  1  0
 14 13  1  0
 15 16  2  0
 17 15  1  0
 17 18  1  0
 18 24  1  0
 19 20  1  0
 18 19  1  1
 21 20  1  0
 22 23  1  0
 22 21  1  0
 24 25  1  0
 26 24  2  0
M  END
$$$$
