FAK.pdb
     RDKit          3D

 26 26  0  0  1  0  0  0  0  0999 V2000
    5.9970  -16.1349   25.3254 N   0  0  0  0  0  0  0  0  0  0  0  0
    6.6183  -15.0896   24.5359 C   0  0  1  0  0  0  0  0  0  0  0  0
    7.5989  -14.3627   25.4203 C   0  0  0  0  0  0  0  0  0  0  0  0
    6.9694  -13.1530   26.0094 C   0  0  0  0  0  0  0  0  0  0  0  0
    7.1179  -11.9155   25.4191 C   0  0  0  0  0  0  0  0  0  0  0  0
    6.5280  -10.8016   25.9786 C   0  0  0  0  0  0  0  0  0  0  0  0
    5.7850  -10.9451   27.1412 C   0  0  0  0  0  0  0  0  0  0  0  0
    5.6468  -12.1891   27.7180 C   0  0  0  0  0  0  0  0  0  0  0  0
    6.2310  -13.2972   27.1654 C   0  0  0  0  0  0  0  0  0  0  0  0
    7.2027  -15.6658   23.3234 C   0  0  0  0  0  0  0  0  0  0  0  0
    7.8882  -16.7429   23.3963 O   0  0  0  0  0  0  0  0  0  0  0  0
    7.9305  -14.1144   19.9965 C   0  0  0  0  0  0  0  0  0  0  0  0
    8.0560  -15.2811   20.9856 C   0  0  2  0  0  0  0  0  0  0  0  0
    7.0739  -15.1195   22.0251 N   0  0  0  0  0  0  0  0  0  0  0  0
    9.4561  -15.2469   21.4660 C   0  0  0  0  0  0  0  0  0  0  0  0
    9.9164  -14.3313   22.1886 O   0  0  0  0  0  0  0  0  0  0  0  0
   10.3025  -16.3032   21.0842 N   0  0  0  0  0  0  0  0  0  0  0  0
   11.6289  -16.4510   21.8095 C   0  0  1  0  0  0  0  0  0  0  0  0
   11.2715  -17.0791   23.1088 C   0  0  0  0  0  0  0  0  0  0  0  0
   11.2817  -18.5254   23.2627 C   0  0  0  0  0  0  0  0  0  0  0  0
   11.0983  -19.1539   24.5873 C   0  0  0  0  0  0  0  0  0  0  0  0
   11.0157  -20.6988   24.4359 C   0  0  0  0  0  0  0  0  0  0  0  0
   10.8683  -21.2822   25.7459 N   0  0  0  0  0  0  0  0  0  0  0  0
   12.3363  -17.3921   20.8829 C   0  0  0  0  0  0  0  0  0  0  0  0
   11.7826  -18.1827   19.9167 O   0  0  0  0  0  0  0  0  0  0  0  0
   13.6165  -17.4611   21.0233 O   0  0  0  0  0  0  0  0  0  0  0  0
  2  1  1  1
  2 10  1  0
  3  2  1  0
  3  4  1  0
  4  5  2  0
  4  9  1  0
  5  6  1  0
  6  7  2  0
  8  7  1  0
  9  8  2  0
 10 11  2  0
 13 12  1  6
 13 15  1  0
 14 10  1  0
 14 13  1  0
 15 16  2  0
 17 15  1  0
 17 18  1  0
 18 24  1  0
 19 20  1  0
 18 19  1  1
 21 20  1  0
 22 23  1  0
 22 21  1  0
 24 25  1  0
 26 24  2  0
M  END
$$$$
