FAK.pdb
     RDKit          3D

 26 26  0  0  1  0  0  0  0  0999 V2000
    6.4157  -15.4729   25.3797 N   0  0  0  0  0  0  0  0  0  0  0  0
    6.6815  -15.0961   24.0051 C   0  0  1  0  0  0  0  0  0  0  0  0
    7.1489  -13.6631   24.0002 C   0  0  0  0  0  0  0  0  0  0  0  0
    6.8909  -13.0280   25.3180 C   0  0  0  0  0  0  0  0  0  0  0  0
    5.6359  -12.5610   25.6484 C   0  0  0  0  0  0  0  0  0  0  0  0
    5.4123  -11.9729   26.8756 C   0  0  0  0  0  0  0  0  0  0  0  0
    6.4666  -11.8589   27.7700 C   0  0  0  0  0  0  0  0  0  0  0  0
    7.7142  -12.3309   27.4237 C   0  0  0  0  0  0  0  0  0  0  0  0
    7.9400  -12.9153   26.2063 C   0  0  0  0  0  0  0  0  0  0  0  0
    7.6207  -16.0451   23.4043 C   0  0  0  0  0  0  0  0  0  0  0  0
    8.1871  -16.9295   24.1339 O   0  0  0  0  0  0  0  0  0  0  0  0
    9.1862  -16.6231   20.0123 C   0  0  0  0  0  0  0  0  0  0  0  0
    8.8996  -17.0207   21.4667 C   0  0  2  0  0  0  0  0  0  0  0  0
    7.9742  -16.0763   22.0351 N   0  0  0  0  0  0  0  0  0  0  0  0
   10.2188  -17.0533   22.1379 C   0  0  0  0  0  0  0  0  0  0  0  0
   10.8722  -16.0230   22.4279 O   0  0  0  0  0  0  0  0  0  0  0  0
   10.7551  -18.3127   22.4613 N   0  0  0  0  0  0  0  0  0  0  0  0
   12.0272  -18.3538   23.2902 C   0  0  1  0  0  0  0  0  0  0  0  0
   11.8511  -19.5328   24.1787 C   0  0  0  0  0  0  0  0  0  0  0  0
   12.8836  -19.9046   25.1334 C   0  0  0  0  0  0  0  0  0  0  0  0
   12.7734  -21.1409   25.9349 C   0  0  0  0  0  0  0  0  0  0  0  0
   14.0665  -21.3487   26.7722 C   0  0  0  0  0  0  0  0  0  0  0  0
   13.9309  -22.5652   27.5338 N   0  0  0  0  0  0  0  0  0  0  0  0
   13.0412  -18.5838   22.2116 C   0  0  0  0  0  0  0  0  0  0  0  0
   14.3640  -18.2447   22.2262 O   0  0  0  0  0  0  0  0  0  0  0  0
   12.6052  -19.1667   21.1469 O   0  0  0  0  0  0  0  0  0  0  0  0
  2  1  1  1
  2 10  1  0
  3  2  1  0
  3  4  1  0
  4  5  2  0
  4  9  1  0
  5  6  1  0
  6  7  2  0
  8  7  1  0
  9  8  2  0
 10 11  2  0
 13 12  1  6
 13 15  1  0
 14 10  1  0
 14 13  1  0
 15 16  2  0
 17 15  1  0
 17 18  1  0
 18 24  1  0
 19 20  1  0
 18 19  1  1
 21 20  1  0
 22 23  1  0
 22 21  1  0
 24 25  1  0
 26 24  2  0
M  END
$$$$
