FAK.pdb
     RDKit          3D

 26 26  0  0  1  0  0  0  0  0999 V2000
    5.8624  -17.1709   25.4464 N   0  0  0  0  0  0  0  0  0  0  0  0
    6.4784  -15.9397   24.9916 C   0  0  1  0  0  0  0  0  0  0  0  0
    7.4245  -15.4708   26.0672 C   0  0  0  0  0  0  0  0  0  0  0  0
    7.1848  -14.0389   26.3819 C   0  0  0  0  0  0  0  0  0  0  0  0
    8.1731  -13.2602   26.9465 C   0  0  0  0  0  0  0  0  0  0  0  0
    7.9349  -11.9325   27.2336 C   0  0  0  0  0  0  0  0  0  0  0  0
    6.6890  -11.3942   26.9464 C   0  0  0  0  0  0  0  0  0  0  0  0
    5.7128  -12.1866   26.3822 C   0  0  0  0  0  0  0  0  0  0  0  0
    5.9456  -13.5051   26.0957 C   0  0  0  0  0  0  0  0  0  0  0  0
    7.1004  -16.1510   23.6831 C   0  0  0  0  0  0  0  0  0  0  0  0
    7.8078  -17.1958   23.4752 O   0  0  0  0  0  0  0  0  0  0  0  0
    7.5830  -14.0713   20.5656 C   0  0  0  0  0  0  0  0  0  0  0  0
    7.8477  -15.3119   21.4295 C   0  0  2  0  0  0  0  0  0  0  0  0
    6.9865  -15.2708   22.5818 N   0  0  0  0  0  0  0  0  0  0  0  0
    9.2920  -15.2714   21.7524 C   0  0  0  0  0  0  0  0  0  0  0  0
    9.7919  -14.4778   22.5846 O   0  0  0  0  0  0  0  0  0  0  0  0
   10.1356  -16.1761   21.0831 N   0  0  0  0  0  0  0  0  0  0  0  0
   11.3395  -16.7172   21.8347 C   0  0  1  0  0  0  0  0  0  0  0  0
   10.7629  -17.6728   22.8168 C   0  0  0  0  0  0  0  0  0  0  0  0
   11.5461  -18.1344   23.9523 C   0  0  0  0  0  0  0  0  0  0  0  0
   10.9655  -19.0442   24.9614 C   0  0  0  0  0  0  0  0  0  0  0  0
   12.0171  -19.3572   26.0626 C   0  0  0  0  0  0  0  0  0  0  0  0
   11.3232  -19.6442   27.2932 N   0  0  0  0  0  0  0  0  0  0  0  0
   12.0674  -17.3994   20.7169 C   0  0  0  0  0  0  0  0  0  0  0  0
   13.4179  -17.4858   20.5329 O   0  0  0  0  0  0  0  0  0  0  0  0
   11.3249  -17.9647   19.8265 O   0  0  0  0  0  0  0  0  0  0  0  0
  2  1  1  1
  2 10  1  0
  3  2  1  0
  3  4  1  0
  4  5  2  0
  4  9  1  0
  5  6  1  0
  6  7  2  0
  8  7  1  0
  9  8  2  0
 10 11  2  0
 13 12  1  6
 13 15  1  0
 14 10  1  0
 14 13  1  0
 15 16  2  0
 17 15  1  0
 17 18  1  0
 18 24  1  0
 19 20  1  0
 18 19  1  1
 21 20  1  0
 22 23  1  0
 22 21  1  0
 24 25  1  0
 26 24  2  0
M  END
$$$$
