FAK.pdb
     RDKit          3D

 26 26  0  0  1  0  0  0  0  0999 V2000
    6.7256  -16.1954   24.6692 N   0  0  0  0  0  0  0  0  0  0  0  0
    6.8498  -15.8256   23.2729 C   0  0  1  0  0  0  0  0  0  0  0  0
    6.5279  -14.3580   23.1524 C   0  0  0  0  0  0  0  0  0  0  0  0
    7.0191  -13.6190   24.3437 C   0  0  0  0  0  0  0  0  0  0  0  0
    8.2418  -12.9809   24.3300 C   0  0  0  0  0  0  0  0  0  0  0  0
    8.6844  -12.2996   25.4443 C   0  0  0  0  0  0  0  0  0  0  0  0
    7.8827  -12.2662   26.5759 C   0  0  0  0  0  0  0  0  0  0  0  0
    6.6638  -12.9091   26.5725 C   0  0  0  0  0  0  0  0  0  0  0  0
    6.2210  -13.5866   25.4681 C   0  0  0  0  0  0  0  0  0  0  0  0
    8.1753  -16.2011   22.7771 C   0  0  0  0  0  0  0  0  0  0  0  0
    8.6375  -15.6547   21.7173 O   0  0  0  0  0  0  0  0  0  0  0  0
   10.8126  -15.5306   23.1675 C   0  0  0  0  0  0  0  0  0  0  0  0
   10.4484  -16.9755   23.5351 C   0  0  2  0  0  0  0  0  0  0  0  0
    9.0277  -17.1509   23.3869 N   0  0  0  0  0  0  0  0  0  0  0  0
   10.9408  -17.1708   24.9176 C   0  0  0  0  0  0  0  0  0  0  0  0
   12.1411  -17.0258   25.2505 O   0  0  0  0  0  0  0  0  0  0  0  0
   10.0021  -17.5378   25.8985 N   0  0  0  0  0  0  0  0  0  0  0  0
   10.5147  -17.8503   27.2938 C   0  0  1  0  0  0  0  0  0  0  0  0
   10.0024  -19.2166   27.5781 C   0  0  0  0  0  0  0  0  0  0  0  0
   10.4770  -19.9627   28.7331 C   0  0  0  0  0  0  0  0  0  0  0  0
   10.0140  -21.3412   28.9949 C   0  0  0  0  0  0  0  0  0  0  0  0
   10.7240  -21.9101   30.2553 C   0  0  0  0  0  0  0  0  0  0  0  0
   10.3812  -23.3042   30.3865 N   0  0  0  0  0  0  0  0  0  0  0  0
   11.9923  -17.8218   27.0478 C   0  0  0  0  0  0  0  0  0  0  0  0
   12.6522  -18.1595   25.9008 O   0  0  0  0  0  0  0  0  0  0  0  0
   12.7191  -17.4366   28.0412 O   0  0  0  0  0  0  0  0  0  0  0  0
  2  1  1  1
  2 10  1  0
  3  2  1  0
  3  4  1  0
  4  5  2  0
  4  9  1  0
  5  6  1  0
  6  7  2  0
  8  7  1  0
  9  8  2  0
 10 11  2  0
 13 12  1  1
 13 15  1  0
 14 10  1  0
 14 13  1  0
 15 16  2  0
 17 15  1  0
 17 18  1  0
 18 24  1  0
 19 20  1  0
 18 19  1  6
 21 20  1  0
 22 23  1  0
 22 21  1  0
 24 25  1  0
 26 24  2  0
M  END
$$$$
