FAK.pdb
     RDKit          3D

 26 26  0  0  1  0  0  0  0  0999 V2000
    5.8863  -17.1537   25.7342 N   0  0  0  0  0  0  0  0  0  0  0  0
    6.5243  -15.9342   25.2783 C   0  0  1  0  0  0  0  0  0  0  0  0
    7.3639  -15.4001   26.4104 C   0  0  0  0  0  0  0  0  0  0  0  0
    6.9912  -13.9948   26.7155 C   0  0  0  0  0  0  0  0  0  0  0  0
    5.6740  -13.5872   26.6892 C   0  0  0  0  0  0  0  0  0  0  0  0
    5.3440  -12.2788   26.9739 C   0  0  0  0  0  0  0  0  0  0  0  0
    6.3550  -11.3818   27.2863 C   0  0  0  0  0  0  0  0  0  0  0  0
    7.6660  -11.8059   27.3080 C   0  0  0  0  0  0  0  0  0  0  0  0
    7.9975  -13.1041   27.0259 C   0  0  0  0  0  0  0  0  0  0  0  0
    7.2639  -16.1946   24.0418 C   0  0  0  0  0  0  0  0  0  0  0  0
    7.9326  -17.2772   23.9154 O   0  0  0  0  0  0  0  0  0  0  0  0
    8.1313  -14.2335   20.9294 C   0  0  0  0  0  0  0  0  0  0  0  0
    8.2301  -15.4710   21.8318 C   0  0  2  0  0  0  0  0  0  0  0  0
    7.3089  -15.3243   22.9277 N   0  0  0  0  0  0  0  0  0  0  0  0
    9.6502  -15.5520   22.2424 C   0  0  0  0  0  0  0  0  0  0  0  0
   10.1962  -14.7230   23.0086 O   0  0  0  0  0  0  0  0  0  0  0  0
   10.4148  -16.6198   21.7391 N   0  0  0  0  0  0  0  0  0  0  0  0
   11.7980  -16.8441   22.3253 C   0  0  1  0  0  0  0  0  0  0  0  0
   11.7752  -18.2540   22.7964 C   0  0  0  0  0  0  0  0  0  0  0  0
   12.2331  -18.5982   24.1334 C   0  0  0  0  0  0  0  0  0  0  0  0
   12.2206  -19.9972   24.6086 C   0  0  0  0  0  0  0  0  0  0  0  0
   12.5728  -20.0478   26.1218 C   0  0  0  0  0  0  0  0  0  0  0  0
   12.2789  -21.3689   26.6186 N   0  0  0  0  0  0  0  0  0  0  0  0
   12.6407  -16.6526   21.1014 C   0  0  0  0  0  0  0  0  0  0  0  0
   13.9562  -16.2905   21.0446 O   0  0  0  0  0  0  0  0  0  0  0  0
   12.0459  -16.8505   19.9742 O   0  0  0  0  0  0  0  0  0  0  0  0
  2  1  1  1
  2 10  1  0
  3  2  1  0
  3  4  1  0
  4  5  2  0
  4  9  1  0
  5  6  1  0
  6  7  2  0
  8  7  1  0
  9  8  2  0
 10 11  2  0
 13 12  1  6
 13 15  1  0
 14 10  1  0
 14 13  1  0
 15 16  2  0
 17 15  1  0
 17 18  1  0
 18 24  1  0
 19 20  1  0
 18 19  1  6
 21 20  1  0
 22 23  1  0
 22 21  1  0
 24 25  1  0
 26 24  2  0
M  END
$$$$
