FAK.pdb
     RDKit          3D

 26 26  0  0  1  0  0  0  0  0999 V2000
    6.1287  -16.6077   24.9550 N   0  0  0  0  0  0  0  0  0  0  0  0
    7.2674  -15.7442   24.7106 C   0  0  1  0  0  0  0  0  0  0  0  0
    7.6478  -15.0986   26.0184 C   0  0  0  0  0  0  0  0  0  0  0  0
    7.1328  -13.7066   26.0798 C   0  0  0  0  0  0  0  0  0  0  0  0
    7.7691  -12.6832   25.4089 C   0  0  0  0  0  0  0  0  0  0  0  0
    7.2792  -11.3959   25.4763 C   0  0  0  0  0  0  0  0  0  0  0  0
    6.1396  -11.1472   26.2273 C   0  0  0  0  0  0  0  0  0  0  0  0
    5.5163  -12.1815   26.8913 C   0  0  0  0  0  0  0  0  0  0  0  0
    5.9997  -13.4609   26.8268 C   0  0  0  0  0  0  0  0  0  0  0  0
    8.3413  -16.5092   24.0739 C   0  0  0  0  0  0  0  0  0  0  0  0
    8.6969  -17.6361   24.5626 O   0  0  0  0  0  0  0  0  0  0  0  0
   10.6316  -16.1172   21.0872 C   0  0  0  0  0  0  0  0  0  0  0  0
   10.1744  -16.8162   22.3748 C   0  0  2  0  0  0  0  0  0  0  0  0
    9.0511  -16.1010   22.9206 N   0  0  0  0  0  0  0  0  0  0  0  0
   11.3625  -16.8408   23.2579 C   0  0  0  0  0  0  0  0  0  0  0  0
   11.8326  -15.8189   23.8122 O   0  0  0  0  0  0  0  0  0  0  0  0
   11.9861  -18.0820   23.4777 N   0  0  0  0  0  0  0  0  0  0  0  0
   13.2119  -18.1147   24.3742 C   0  0  1  0  0  0  0  0  0  0  0  0
   13.2053  -19.4815   24.9591 C   0  0  0  0  0  0  0  0  0  0  0  0
   12.2204  -19.8559   25.9618 C   0  0  0  0  0  0  0  0  0  0  0  0
   12.1931  -21.2176   26.5346 C   0  0  0  0  0  0  0  0  0  0  0  0
   11.1492  -21.2901   27.6841 C   0  0  0  0  0  0  0  0  0  0  0  0
   11.1966  -22.6080   28.2663 N   0  0  0  0  0  0  0  0  0  0  0  0
   14.2931  -17.9226   23.3550 C   0  0  0  0  0  0  0  0  0  0  0  0
   14.2132  -18.1285   22.0073 O   0  0  0  0  0  0  0  0  0  0  0  0
   15.4299  -17.5199   23.8123 O   0  0  0  0  0  0  0  0  0  0  0  0
  2  1  1  1
  2 10  1  0
  3  2  1  0
  3  4  1  0
  4  5  2  0
  4  9  1  0
  5  6  1  0
  6  7  2  0
  8  7  1  0
  9  8  2  0
 10 11  2  0
 13 12  1  6
 13 15  1  0
 14 10  1  0
 14 13  1  0
 15 16  2  0
 17 15  1  0
 17 18  1  0
 18 24  1  0
 19 20  1  0
 18 19  1  6
 21 20  1  0
 22 23  1  0
 22 21  1  0
 24 25  1  0
 26 24  2  0
M  END
$$$$
