FAK.pdb
     RDKit          3D

 26 26  0  0  1  0  0  0  0  0999 V2000
    5.3250  -17.7128   24.3931 N   0  0  0  0  0  0  0  0  0  0  0  0
    5.8704  -16.3708   24.4534 C   0  0  1  0  0  0  0  0  0  0  0  0
    6.3890  -16.1444   25.8505 C   0  0  0  0  0  0  0  0  0  0  0  0
    6.7829  -14.7239   26.0345 C   0  0  0  0  0  0  0  0  0  0  0  0
    5.8324  -13.7287   26.1242 C   0  0  0  0  0  0  0  0  0  0  0  0
    6.2140  -12.4144   26.2941 C   0  0  0  0  0  0  0  0  0  0  0  0
    7.5651  -12.1101   26.3732 C   0  0  0  0  0  0  0  0  0  0  0  0
    8.5017  -13.1169   26.2816 C   0  0  0  0  0  0  0  0  0  0  0  0
    8.1267  -14.4228   26.1129 C   0  0  0  0  0  0  0  0  0  0  0  0
    6.8688  -16.1940   23.3971 C   0  0  0  0  0  0  0  0  0  0  0  0
    7.6140  -17.1750   23.0541 O   0  0  0  0  0  0  0  0  0  0  0  0
    7.9700  -13.4229   21.0664 C   0  0  0  0  0  0  0  0  0  0  0  0
    8.0160  -14.8639   21.5926 C   0  0  2  0  0  0  0  0  0  0  0  0
    7.0947  -14.9894   22.6911 N   0  0  0  0  0  0  0  0  0  0  0  0
    9.4295  -15.1095   21.9579 C   0  0  0  0  0  0  0  0  0  0  0  0
   10.3742  -15.0618   21.1346 O   0  0  0  0  0  0  0  0  0  0  0  0
    9.7129  -15.4107   23.3021 N   0  0  0  0  0  0  0  0  0  0  0  0
   11.1379  -15.7951   23.6610 C   0  0  1  0  0  0  0  0  0  0  0  0
   11.0119  -16.5108   24.9580 C   0  0  0  0  0  0  0  0  0  0  0  0
   12.1376  -17.2455   25.5137 C   0  0  0  0  0  0  0  0  0  0  0  0
   12.0000  -18.0247   26.7616 C   0  0  0  0  0  0  0  0  0  0  0  0
   13.3605  -18.6788   27.1326 C   0  0  0  0  0  0  0  0  0  0  0  0
   13.1761  -19.4867   28.3123 N   0  0  0  0  0  0  0  0  0  0  0  0
   11.4629  -16.7102   22.5201 C   0  0  0  0  0  0  0  0  0  0  0  0
   12.6365  -16.7922   21.8267 O   0  0  0  0  0  0  0  0  0  0  0  0
   10.5174  -17.5072   22.1535 O   0  0  0  0  0  0  0  0  0  0  0  0
  2  1  1  1
  2 10  1  0
  3  2  1  0
  3  4  1  0
  4  5  2  0
  4  9  1  0
  5  6  1  0
  6  7  2  0
  8  7  1  0
  9  8  2  0
 10 11  2  0
 13 12  1  1
 13 15  1  0
 14 10  1  0
 14 13  1  0
 15 16  2  0
 17 15  1  0
 17 18  1  0
 18 24  1  0
 19 20  1  0
 18 19  1  1
 21 20  1  0
 22 23  1  0
 22 21  1  0
 24 25  1  0
 26 24  2  0
M  END
$$$$
