FAK.pdb
     RDKit          3D

 26 26  0  0  1  0  0  0  0  0999 V2000
    6.8034  -16.0260   25.7559 N   0  0  0  0  0  0  0  0  0  0  0  0
    7.0575  -15.1800   24.6062 C   0  0  1  0  0  0  0  0  0  0  0  0
    7.9407  -14.0436   25.0540 C   0  0  0  0  0  0  0  0  0  0  0  0
    7.1882  -13.1192   25.9406 C   0  0  0  0  0  0  0  0  0  0  0  0
    7.7520  -12.6308   27.1007 C   0  0  0  0  0  0  0  0  0  0  0  0
    7.0403  -11.7741   27.9139 C   0  0  0  0  0  0  0  0  0  0  0  0
    5.7521  -11.4123   27.5477 C   0  0  0  0  0  0  0  0  0  0  0  0
    5.2041  -11.9095   26.3851 C   0  0  0  0  0  0  0  0  0  0  0  0
    5.9076  -12.7603   25.5752 C   0  0  0  0  0  0  0  0  0  0  0  0
    7.6065  -15.9832   23.5120 C   0  0  0  0  0  0  0  0  0  0  0  0
    8.3359  -17.0007   23.7724 O   0  0  0  0  0  0  0  0  0  0  0  0
    7.9123  -15.4881   19.7841 C   0  0  0  0  0  0  0  0  0  0  0  0
    8.2507  -16.2212   21.0893 C   0  0  2  0  0  0  0  0  0  0  0  0
    7.3959  -15.7282   22.1368 N   0  0  0  0  0  0  0  0  0  0  0  0
    9.6926  -15.9775   21.3205 C   0  0  0  0  0  0  0  0  0  0  0  0
   10.1925  -14.8316   21.4186 O   0  0  0  0  0  0  0  0  0  0  0  0
   10.5337  -17.0989   21.4340 N   0  0  0  0  0  0  0  0  0  0  0  0
   12.0150  -16.8578   21.6680 C   0  0  1  0  0  0  0  0  0  0  0  0
   12.1791  -16.9695   23.1414 C   0  0  0  0  0  0  0  0  0  0  0  0
   11.6385  -18.1095   23.8650 C   0  0  0  0  0  0  0  0  0  0  0  0
   11.6920  -18.1731   25.3402 C   0  0  0  0  0  0  0  0  0  0  0  0
   10.9450  -19.4394   25.8452 C   0  0  0  0  0  0  0  0  0  0  0  0
   11.3205  -19.6789   27.2163 N   0  0  0  0  0  0  0  0  0  0  0  0
   12.5953  -18.0237   20.9274 C   0  0  0  0  0  0  0  0  0  0  0  0
   11.9224  -18.9849   20.2287 O   0  0  0  0  0  0  0  0  0  0  0  0
   13.8805  -18.1269   20.9623 O   0  0  0  0  0  0  0  0  0  0  0  0
  2  1  1  1
  2 10  1  0
  3  2  1  0
  3  4  1  0
  4  5  2  0
  4  9  1  0
  5  6  1  0
  6  7  2  0
  8  7  1  0
  9  8  2  0
 10 11  2  0
 13 12  1  6
 13 15  1  0
 14 10  1  0
 14 13  1  0
 15 16  2  0
 17 15  1  0
 17 18  1  0
 18 24  1  0
 19 20  1  0
 18 19  1  1
 21 20  1  0
 22 23  1  0
 22 21  1  0
 24 25  1  0
 26 24  2  0
M  END
$$$$
