SIQ.pdb
     RDKit          3D

 24 23  0  0  1  0  0  0  0  0999 V2000
   16.9693  -12.7520  -19.0480 O   0  0  0  0  0  0  0  0  0  0  0  0
   17.1315  -12.1249  -17.8206 C   0  0  0  0  0  0  0  0  0  0  0  0
   18.0346  -12.9933  -16.9570 C   0  0  2  0  0  0  0  0  0  0  0  0
   17.2222  -13.9299  -16.2122 N   0  0  0  0  0  0  0  0  0  0  0  0
   18.8011  -12.1668  -15.9989 C   0  0  0  0  0  0  0  0  0  0  0  0
   18.2472  -11.7572  -14.9510 O   0  0  0  0  0  0  0  0  0  0  0  0
   24.1888  -12.7854  -15.0019 C   0  0  0  0  0  0  0  0  0  0  0  0
   22.6992  -12.5599  -14.8720 C   0  0  0  0  0  0  0  0  0  0  0  0
   22.3797  -11.1969  -15.4110 C   0  0  2  0  0  0  0  0  0  0  0  0
   23.1061  -10.1522  -14.6000 C   0  0  0  0  0  0  0  0  0  0  0  0
   20.9126  -10.9090  -15.4759 C   0  0  2  0  0  0  0  0  0  0  0  0
   20.1641  -11.8369  -16.2653 N   0  0  0  0  0  0  0  0  0  0  0  0
   20.7213   -9.5062  -15.9766 C   0  0  0  0  0  0  0  0  0  0  0  0
   21.0114   -9.3118  -17.1857 O   0  0  0  0  0  0  0  0  0  0  0  0
   16.1822   -5.6593  -15.2355 N   0  0  0  0  0  0  0  0  0  0  0  0
   17.0444   -4.8823  -16.0338 C   0  0  0  0  0  0  0  0  0  0  0  0
   16.6238   -3.8358  -16.5451 O   0  0  0  0  0  0  0  0  0  0  0  0
   18.4442   -5.3910  -16.2114 C   0  0  0  0  0  0  0  0  0  0  0  0
   18.6326   -6.7240  -15.5508 C   0  0  0  0  0  0  0  0  0  0  0  0
   20.0559   -7.1656  -15.7281 C   0  0  2  0  0  0  0  0  0  0  0  0
   20.2417   -8.4894  -15.1120 N   0  0  0  0  0  0  0  0  0  0  0  0
   20.9711   -6.2364  -15.0485 C   0  0  0  0  0  0  0  0  0  0  0  0
   21.5160   -6.5039  -13.8094 O   0  0  0  0  0  0  0  0  0  0  0  0
   21.2671   -5.1445  -15.6229 O   0  0  0  0  0  0  0  0  0  0  0  0
  2  1  1  0
  2  3  1  0
  3  4  1  1
  5 12  1  0
  5  3  1  0
  6  5  2  0
  7  8  1  0
  9  8  1  0
  9 11  1  0
  9 10  1  1
 11 12  1  6
 13 21  1  0
 13 11  1  0
 14 13  2  0
 16 15  1  0
 17 16  2  0
 18 16  1  0
 19 18  1  0
 20 19  1  1
 20 21  1  0
 22 20  1  0
 23 22  1  0
 24 22  2  0
M  END
$$$$
