SIQ.pdb
     RDKit          3D

 24 23  0  0  1  0  0  0  0  0999 V2000
   18.4225  -30.5191  -12.5620 O   0  0  0  0  0  0  0  0  0  0  0  0
   18.7248  -29.7215  -11.4670 C   0  0  0  0  0  0  0  0  0  0  0  0
   19.5752  -28.5547  -11.9474 C   0  0  2  0  0  0  0  0  0  0  0  0
   20.8988  -29.0356  -12.2771 N   0  0  0  0  0  0  0  0  0  0  0  0
   19.6965  -27.5226  -10.8945 C   0  0  0  0  0  0  0  0  0  0  0  0
   20.6944  -27.5249  -10.1350 O   0  0  0  0  0  0  0  0  0  0  0  0
   18.4273  -21.6607  -10.2377 C   0  0  0  0  0  0  0  0  0  0  0  0
   18.5597  -22.9598   -9.4752 C   0  0  0  0  0  0  0  0  0  0  0  0
   18.5795  -24.0874  -10.4643 C   0  0  2  0  0  0  0  0  0  0  0  0
   17.3100  -24.0639  -11.2795 C   0  0  0  0  0  0  0  0  0  0  0  0
   18.7958  -25.4287   -9.8369 C   0  0  2  0  0  0  0  0  0  0  0  0
   18.6830  -26.5287  -10.7432 N   0  0  0  0  0  0  0  0  0  0  0  0
   17.8379  -25.5813   -8.6904 C   0  0  0  0  0  0  0  0  0  0  0  0
   16.6758  -25.9575   -8.9938 O   0  0  0  0  0  0  0  0  0  0  0  0
   19.2159  -26.9113   -2.7917 N   0  0  0  0  0  0  0  0  0  0  0  0
   17.8100  -27.0000   -2.7831 C   0  0  0  0  0  0  0  0  0  0  0  0
   17.2329  -27.4345   -1.7774 O   0  0  0  0  0  0  0  0  0  0  0  0
   17.0959  -26.5505   -4.0232 C   0  0  0  0  0  0  0  0  0  0  0  0
   18.0540  -26.0198   -5.0475 C   0  0  0  0  0  0  0  0  0  0  0  0
   17.3027  -25.6998   -6.3066 C   0  0  2  0  0  0  0  0  0  0  0  0
   18.2522  -25.3095   -7.3615 N   0  0  0  0  0  0  0  0  0  0  0  0
   16.3988  -24.5602   -6.0906 C   0  0  0  0  0  0  0  0  0  0  0  0
   15.0948  -24.7162   -5.6672 O   0  0  0  0  0  0  0  0  0  0  0  0
   16.8345  -23.3882   -6.3064 O   0  0  0  0  0  0  0  0  0  0  0  0
  2  1  1  0
  2  3  1  0
  3  4  1  1
  5 12  1  0
  5  3  1  0
  6  5  2  0
  7  8  1  0
  9  8  1  0
  9 11  1  0
  9 10  1  1
 11 12  1  6
 13 21  1  0
 13 11  1  0
 14 13  2  0
 16 15  1  0
 17 16  2  0
 18 16  1  0
 19 18  1  0
 20 19  1  1
 20 21  1  0
 22 20  1  0
 23 22  1  0
 24 22  2  0
M  END
$$$$
