SIQ.pdb
     RDKit          3D

 24 23  0  0  1  0  0  0  0  0999 V2000
   19.3194  -12.4727  -17.3750 O   0  0  0  0  0  0  0  0  0  0  0  0
   18.5436  -11.6132  -18.1403 C   0  0  0  0  0  0  0  0  0  0  0  0
   19.2665  -10.2778  -18.2381 C   0  0  2  0  0  0  0  0  0  0  0  0
   20.5824  -10.4898  -18.7996 N   0  0  0  0  0  0  0  0  0  0  0  0
   19.4171   -9.6611  -16.9017 C   0  0  0  0  0  0  0  0  0  0  0  0
   18.3974   -9.4028  -16.2189 O   0  0  0  0  0  0  0  0  0  0  0  0
   22.3871  -10.0740  -11.8402 C   0  0  0  0  0  0  0  0  0  0  0  0
   21.8339   -9.0294  -12.7833 C   0  0  0  0  0  0  0  0  0  0  0  0
   21.5804   -9.6798  -14.1112 C   0  0  2  0  0  0  0  0  0  0  0  0
   22.8708  -10.2497  -14.6468 C   0  0  0  0  0  0  0  0  0  0  0  0
   20.9348   -8.7697  -15.1085 C   0  0  2  0  0  0  0  0  0  0  0  0
   20.7161   -9.3614  -16.3916 N   0  0  0  0  0  0  0  0  0  0  0  0
   21.7660   -7.5248  -15.2294 C   0  0  0  0  0  0  0  0  0  0  0  0
   22.8111   -7.6290  -15.9227 O   0  0  0  0  0  0  0  0  0  0  0  0
   21.5088   -3.9505  -18.9379 N   0  0  0  0  0  0  0  0  0  0  0  0
   20.3982   -3.8044  -18.0837 C   0  0  0  0  0  0  0  0  0  0  0  0
   19.3439   -3.3325  -18.5299 O   0  0  0  0  0  0  0  0  0  0  0  0
   20.5772   -4.2419  -16.6601 C   0  0  0  0  0  0  0  0  0  0  0  0
   21.9276   -4.8553  -16.4391 C   0  0  0  0  0  0  0  0  0  0  0  0
   22.1164   -5.1176  -14.9736 C   0  0  2  0  0  0  0  0  0  0  0  0
   21.3668   -6.3243  -14.5882 N   0  0  0  0  0  0  0  0  0  0  0  0
   21.5833   -4.0011  -14.1785 C   0  0  0  0  0  0  0  0  0  0  0  0
   22.2157   -2.7773  -14.0993 O   0  0  0  0  0  0  0  0  0  0  0  0
   20.5019   -4.1723  -13.5374 O   0  0  0  0  0  0  0  0  0  0  0  0
  2  1  1  0
  2  3  1  0
  3  4  1  1
  5 12  1  0
  5  3  1  0
  6  5  2  0
  7  8  1  0
  9  8  1  0
  9 11  1  0
  9 10  1  6
 11 12  1  6
 13 21  1  0
 13 11  1  0
 14 13  2  0
 16 15  1  0
 17 16  2  0
 18 16  1  0
 19 18  1  0
 20 19  1  6
 20 21  1  0
 22 20  1  0
 23 22  1  0
 24 22  2  0
M  END
$$$$
