SIQ.pdb
     RDKit          3D

 24 23  0  0  1  0  0  0  0  0999 V2000
   22.3917  -14.3819  -20.0972 O   0  0  0  0  0  0  0  0  0  0  0  0
   22.9999  -13.3272  -19.4309 C   0  0  0  0  0  0  0  0  0  0  0  0
   23.8708  -13.9017  -18.3232 C   0  0  2  0  0  0  0  0  0  0  0  0
   23.0273  -14.5529  -17.3453 N   0  0  0  0  0  0  0  0  0  0  0  0
   24.6379  -12.8321  -17.6478 C   0  0  0  0  0  0  0  0  0  0  0  0
   24.0716  -12.1039  -16.7983 O   0  0  0  0  0  0  0  0  0  0  0  0
   27.9108  -12.6479  -14.8010 C   0  0  0  0  0  0  0  0  0  0  0  0
   28.3461  -13.0873  -16.1809 C   0  0  0  0  0  0  0  0  0  0  0  0
   28.2118  -11.9189  -17.1122 C   0  0  2  0  0  0  0  0  0  0  0  0
   28.9662  -10.7389  -16.5508 C   0  0  0  0  0  0  0  0  0  0  0  0
   26.7918  -11.5587  -17.4177 C   0  0  2  0  0  0  0  0  0  0  0  0
   26.0158  -12.6295  -17.9611 N   0  0  0  0  0  0  0  0  0  0  0  0
   26.7860  -10.3737  -18.3400 C   0  0  0  0  0  0  0  0  0  0  0  0
   27.2293  -10.5798  -19.4997 O   0  0  0  0  0  0  0  0  0  0  0  0
   23.3867   -5.1196  -18.0196 N   0  0  0  0  0  0  0  0  0  0  0  0
   24.0439   -4.9770  -19.2574 C   0  0  0  0  0  0  0  0  0  0  0  0
   23.7622   -4.0195  -19.9903 O   0  0  0  0  0  0  0  0  0  0  0  0
   25.0625   -6.0210  -19.6070 C   0  0  0  0  0  0  0  0  0  0  0  0
   25.1752   -7.0609  -18.5324 C   0  0  0  0  0  0  0  0  0  0  0  0
   26.2129   -8.0698  -18.9291 C   0  0  2  0  0  0  0  0  0  0  0  0
   26.3034   -9.1156  -17.8972 N   0  0  0  0  0  0  0  0  0  0  0  0
   27.5364   -7.4360  -19.0243 C   0  0  0  0  0  0  0  0  0  0  0  0
   28.3584   -7.2645  -17.9293 O   0  0  0  0  0  0  0  0  0  0  0  0
   27.9355   -7.0273  -20.1573 O   0  0  0  0  0  0  0  0  0  0  0  0
  2  1  1  0
  2  3  1  0
  3  4  1  1
  5 12  1  0
  5  3  1  0
  6  5  2  0
  7  8  1  0
  9  8  1  0
  9 11  1  0
  9 10  1  1
 11 12  1  6
 13 21  1  0
 13 11  1  0
 14 13  2  0
 16 15  1  0
 17 16  2  0
 18 16  1  0
 19 18  1  0
 20 19  1  1
 20 21  1  0
 22 20  1  0
 23 22  1  0
 24 22  2  0
M  END
$$$$
