SIQ.pdb
     RDKit          3D

 24 23  0  0  1  0  0  0  0  0999 V2000
   25.6956  -19.7793  -18.7070 O   0  0  0  0  0  0  0  0  0  0  0  0
   25.2837  -20.5453  -17.6254 C   0  0  0  0  0  0  0  0  0  0  0  0
   26.5215  -21.0184  -16.8772 C   0  0  2  0  0  0  0  0  0  0  0  0
   27.2055  -22.0142  -17.6724 N   0  0  0  0  0  0  0  0  0  0  0  0
   26.1530  -21.6228  -15.5782 C   0  0  0  0  0  0  0  0  0  0  0  0
   26.0520  -22.8690  -15.4799 O   0  0  0  0  0  0  0  0  0  0  0  0
   28.8553  -20.2564  -11.3604 C   0  0  0  0  0  0  0  0  0  0  0  0
   28.0324  -21.0256  -12.3694 C   0  0  0  0  0  0  0  0  0  0  0  0
   26.5810  -20.7862  -12.0751 C   0  0  2  0  0  0  0  0  0  0  0  0
   26.2406  -21.3610  -10.7222 C   0  0  0  0  0  0  0  0  0  0  0  0
   25.6625  -21.3111  -13.1335 C   0  0  2  0  0  0  0  0  0  0  0  0
   25.9135  -20.7924  -14.4421 N   0  0  0  0  0  0  0  0  0  0  0  0
   24.2457  -21.0414  -12.7151 C   0  0  0  0  0  0  0  0  0  0  0  0
   23.8785  -21.5857  -11.6414 O   0  0  0  0  0  0  0  0  0  0  0  0
   20.2420  -16.9193  -15.0919 N   0  0  0  0  0  0  0  0  0  0  0  0
   21.1696  -17.6787  -15.8317 C   0  0  0  0  0  0  0  0  0  0  0  0
   21.3964  -17.3821  -17.0124 O   0  0  0  0  0  0  0  0  0  0  0  0
   21.8320  -18.8199  -15.1185 C   0  0  0  0  0  0  0  0  0  0  0  0
   21.3484  -18.9391  -13.7040 C   0  0  0  0  0  0  0  0  0  0  0  0
   22.0042  -20.1237  -13.0567 C   0  0  2  0  0  0  0  0  0  0  0  0
   23.4028  -20.2193  -13.5058 N   0  0  0  0  0  0  0  0  0  0  0  0
   21.3313  -21.3678  -13.4592 C   0  0  0  0  0  0  0  0  0  0  0  0
   21.4675  -22.5470  -12.7558 O   0  0  0  0  0  0  0  0  0  0  0  0
   20.6006  -21.3564  -14.4964 O   0  0  0  0  0  0  0  0  0  0  0  0
  2  1  1  0
  2  3  1  0
  3  4  1  6
  5 12  1  0
  5  3  1  0
  6  5  2  0
  7  8  1  0
  9  8  1  0
  9 11  1  0
  9 10  1  1
 11 12  1  6
 13 21  1  0
 13 11  1  0
 14 13  2  0
 16 15  1  0
 17 16  2  0
 18 16  1  0
 19 18  1  0
 20 19  1  6
 20 21  1  0
 22 20  1  0
 23 22  1  0
 24 22  2  0
M  END
$$$$
