SIQ.pdb
     RDKit          3D

 24 23  0  0  1  0  0  0  0  0999 V2000
   27.7739  -18.3343  -17.5067 O   0  0  0  0  0  0  0  0  0  0  0  0
   27.1383  -19.5420  -17.2542 C   0  0  0  0  0  0  0  0  0  0  0  0
   27.9734  -20.3190  -16.2472 C   0  0  2  0  0  0  0  0  0  0  0  0
   28.8147  -21.2602  -16.9532 N   0  0  0  0  0  0  0  0  0  0  0  0
   27.1072  -21.0693  -15.3117 C   0  0  0  0  0  0  0  0  0  0  0  0
   26.8572  -22.2784  -15.5314 O   0  0  0  0  0  0  0  0  0  0  0  0
   25.6816  -21.0559   -9.3847 C   0  0  0  0  0  0  0  0  0  0  0  0
   25.2314  -21.4649  -10.7692 C   0  0  0  0  0  0  0  0  0  0  0  0
   26.1070  -20.7749  -11.7729 C   0  0  2  0  0  0  0  0  0  0  0  0
   26.0767  -19.2863  -11.5280 C   0  0  0  0  0  0  0  0  0  0  0  0
   25.7581  -21.0978  -13.1919 C   0  0  2  0  0  0  0  0  0  0  0  0
   26.5584  -20.4210  -14.1644 N   0  0  0  0  0  0  0  0  0  0  0  0
   24.3002  -20.8074  -13.4047 C   0  0  0  0  0  0  0  0  0  0  0  0
   24.0049  -19.5997  -13.5997 O   0  0  0  0  0  0  0  0  0  0  0  0
   19.6446  -24.6909  -15.0619 N   0  0  0  0  0  0  0  0  0  0  0  0
   19.1004  -23.4119  -15.2909 C   0  0  0  0  0  0  0  0  0  0  0  0
   17.9975  -23.3091  -15.8445 O   0  0  0  0  0  0  0  0  0  0  0  0
   19.9161  -22.2380  -14.8367 C   0  0  0  0  0  0  0  0  0  0  0  0
   21.2526  -22.6681  -14.3099 C   0  0  0  0  0  0  0  0  0  0  0  0
   21.9731  -21.4730  -13.7578 C   0  0  2  0  0  0  0  0  0  0  0  0
   23.3439  -21.8545  -13.3808 N   0  0  0  0  0  0  0  0  0  0  0  0
   21.3057  -20.9873  -12.5407 C   0  0  0  0  0  0  0  0  0  0  0  0
   20.4295  -19.9213  -12.5491 O   0  0  0  0  0  0  0  0  0  0  0  0
   21.5490  -21.5690  -11.4397 O   0  0  0  0  0  0  0  0  0  0  0  0
  2  1  1  0
  2  3  1  0
  3  4  1  6
  5 12  1  0
  5  3  1  0
  6  5  2  0
  7  8  1  0
  9  8  1  0
  9 11  1  0
  9 10  1  6
 11 12  1  6
 13 21  1  0
 13 11  1  0
 14 13  2  0
 16 15  1  0
 17 16  2  0
 18 16  1  0
 19 18  1  0
 20 19  1  1
 20 21  1  0
 22 20  1  0
 23 22  1  0
 24 22  2  0
M  END
$$$$
