SIQ.pdb
     RDKit          3D

 24 23  0  0  1  0  0  0  0  0999 V2000
   17.2730  -11.1540  -18.7429 O   0  0  0  0  0  0  0  0  0  0  0  0
   18.0100  -10.6355  -17.6874 C   0  0  0  0  0  0  0  0  0  0  0  0
   19.0338  -11.6782  -17.2630 C   0  0  2  0  0  0  0  0  0  0  0  0
   18.3455  -12.8147  -16.6915 N   0  0  0  0  0  0  0  0  0  0  0  0
   19.9581  -11.1266  -16.2482 C   0  0  0  0  0  0  0  0  0  0  0  0
   19.6483  -11.1767  -15.0340 O   0  0  0  0  0  0  0  0  0  0  0  0
   25.8146  -10.3600  -15.0202 C   0  0  0  0  0  0  0  0  0  0  0  0
   24.4311   -9.7829  -14.8210 C   0  0  0  0  0  0  0  0  0  0  0  0
   23.5148  -10.3916  -15.8410 C   0  0  2  0  0  0  0  0  0  0  0  0
   24.0670  -10.1461  -17.2235 C   0  0  0  0  0  0  0  0  0  0  0  0
   22.0996   -9.9180  -15.7308 C   0  0  2  0  0  0  0  0  0  0  0  0
   21.1965  -10.5400  -16.6483 N   0  0  0  0  0  0  0  0  0  0  0  0
   22.0801   -8.4251  -15.8920 C   0  0  0  0  0  0  0  0  0  0  0  0
   22.1834   -8.0000  -17.0720 O   0  0  0  0  0  0  0  0  0  0  0  0
   19.7973   -5.1284  -17.6173 N   0  0  0  0  0  0  0  0  0  0  0  0
   19.9512   -3.9969  -16.7924 C   0  0  0  0  0  0  0  0  0  0  0  0
   19.7602   -2.8681  -17.2642 O   0  0  0  0  0  0  0  0  0  0  0  0
   20.3450   -4.2471  -15.3669 C   0  0  0  0  0  0  0  0  0  0  0  0
   20.4245   -5.7145  -15.0680 C   0  0  0  0  0  0  0  0  0  0  0  0
   21.8643   -6.1376  -15.0529 C   0  0  2  0  0  0  0  0  0  0  0  0
   21.9518   -7.5778  -14.7618 N   0  0  0  0  0  0  0  0  0  0  0  0
   22.5963   -5.4329  -13.9897 C   0  0  0  0  0  0  0  0  0  0  0  0
   22.7837   -5.9726  -12.7337 O   0  0  0  0  0  0  0  0  0  0  0  0
   23.0699   -4.2820  -14.2367 O   0  0  0  0  0  0  0  0  0  0  0  0
  2  1  1  0
  2  3  1  0
  3  4  1  1
  5 12  1  0
  5  3  1  0
  6  5  2  0
  7  8  1  0
  9  8  1  0
  9 11  1  0
  9 10  1  6
 11 12  1  6
 13 21  1  0
 13 11  1  0
 14 13  2  0
 16 15  1  0
 17 16  2  0
 18 16  1  0
 19 18  1  0
 20 19  1  1
 20 21  1  0
 22 20  1  0
 23 22  1  0
 24 22  2  0
M  END
$$$$
