SIQ.pdb
     RDKit          3D

 24 23  0  0  1  0  0  0  0  0999 V2000
   17.7098  -12.3339  -16.9398 O   0  0  0  0  0  0  0  0  0  0  0  0
   18.6372  -11.7108  -16.1165 C   0  0  0  0  0  0  0  0  0  0  0  0
   20.0193  -12.2420  -16.4675 C   0  0  2  0  0  0  0  0  0  0  0  0
   20.0787  -13.6534  -16.1574 N   0  0  0  0  0  0  0  0  0  0  0  0
   21.0656  -11.5431  -15.6894 C   0  0  0  0  0  0  0  0  0  0  0  0
   21.2721  -11.8673  -14.4957 O   0  0  0  0  0  0  0  0  0  0  0  0
   26.5817  -10.7237  -15.0881 C   0  0  0  0  0  0  0  0  0  0  0  0
   25.3240   -9.8983  -14.9348 C   0  0  0  0  0  0  0  0  0  0  0  0
   24.2205  -10.5748  -15.6930 C   0  0  2  0  0  0  0  0  0  0  0  0
   24.6531  -10.7948  -17.1217 C   0  0  0  0  0  0  0  0  0  0  0  0
   22.9161   -9.8442  -15.6283 C   0  0  2  0  0  0  0  0  0  0  0  0
   21.8366  -10.5047  -16.2937 N   0  0  0  0  0  0  0  0  0  0  0  0
   23.1144   -8.4603  -16.1769 C   0  0  0  0  0  0  0  0  0  0  0  0
   23.1372   -8.3665  -17.4317 O   0  0  0  0  0  0  0  0  0  0  0  0
   21.6005   -3.1262  -13.4089 N   0  0  0  0  0  0  0  0  0  0  0  0
   20.7509   -3.5911  -14.4318 C   0  0  0  0  0  0  0  0  0  0  0  0
   19.6087   -3.1240  -14.5348 O   0  0  0  0  0  0  0  0  0  0  0  0
   21.3046   -4.6443  -15.3451 C   0  0  0  0  0  0  0  0  0  0  0  0
   22.7107   -5.0101  -14.9737 C   0  0  0  0  0  0  0  0  0  0  0  0
   23.2291   -6.0278  -15.9471 C   0  0  2  0  0  0  0  0  0  0  0  0
   23.2632   -7.3518  -15.3048 N   0  0  0  0  0  0  0  0  0  0  0  0
   24.6063   -5.7020  -16.3470 C   0  0  0  0  0  0  0  0  0  0  0  0
   24.8945   -4.8979  -17.4306 O   0  0  0  0  0  0  0  0  0  0  0  0
   25.5663   -6.1832  -15.6712 O   0  0  0  0  0  0  0  0  0  0  0  0
  2  1  1  0
  2  3  1  0
  3  4  1  1
  5 12  1  0
  5  3  1  0
  6  5  2  0
  7  8  1  0
  9  8  1  0
  9 11  1  0
  9 10  1  6
 11 12  1  6
 13 21  1  0
 13 11  1  0
 14 13  2  0
 16 15  1  0
 17 16  2  0
 18 16  1  0
 19 18  1  0
 20 19  1  1
 20 21  1  0
 22 20  1  0
 23 22  1  0
 24 22  2  0
M  END
$$$$
