SIQ.pdb
     RDKit          3D

 24 23  0  0  1  0  0  0  0  0999 V2000
   11.4161  -12.7597    7.3918 O   0  0  0  0  0  0  0  0  0  0  0  0
   12.1317  -13.5907    6.5411 C   0  0  0  0  0  0  0  0  0  0  0  0
   12.9382  -12.7189    5.5898 C   0  0  2  0  0  0  0  0  0  0  0  0
   12.0441  -12.1106    4.6294 N   0  0  0  0  0  0  0  0  0  0  0  0
   13.9401  -13.5246    4.8580 C   0  0  0  0  0  0  0  0  0  0  0  0
   13.5858  -14.2016    3.8636 O   0  0  0  0  0  0  0  0  0  0  0  0
   19.2333  -11.8252    4.8088 C   0  0  0  0  0  0  0  0  0  0  0  0
   17.8775  -12.3158    4.3529 C   0  0  0  0  0  0  0  0  0  0  0  0
   17.7095  -13.7335    4.8135 C   0  0  2  0  0  0  0  0  0  0  0  0
   18.7393  -14.6067    4.1400 C   0  0  0  0  0  0  0  0  0  0  0  0
   16.3272  -14.2686    4.6077 C   0  0  2  0  0  0  0  0  0  0  0  0
   15.3034  -13.5319    5.2812 N   0  0  0  0  0  0  0  0  0  0  0  0
   16.3058  -15.7122    5.0209 C   0  0  0  0  0  0  0  0  0  0  0  0
   16.2769  -15.9268    6.2606 O   0  0  0  0  0  0  0  0  0  0  0  0
   16.2172  -22.6435    2.9122 N   0  0  0  0  0  0  0  0  0  0  0  0
   15.4796  -21.4433    2.9122 C   0  0  0  0  0  0  0  0  0  0  0  0
   14.6189  -21.2569    2.0417 O   0  0  0  0  0  0  0  0  0  0  0  0
   15.7978  -20.4534    3.9932 C   0  0  0  0  0  0  0  0  0  0  0  0
   15.8909  -19.0583    3.4510 C   0  0  0  0  0  0  0  0  0  0  0  0
   16.2203  -18.1149    4.5708 C   0  0  2  0  0  0  0  0  0  0  0  0
   16.3183  -16.7429    4.0467 N   0  0  0  0  0  0  0  0  0  0  0  0
   17.5256  -18.4508    5.1590 C   0  0  0  0  0  0  0  0  0  0  0  0
   18.7115  -17.9331    4.6799 O   0  0  0  0  0  0  0  0  0  0  0  0
   17.5621  -19.2514    6.1427 O   0  0  0  0  0  0  0  0  0  0  0  0
  2  1  1  0
  2  3  1  0
  3  4  1  6
  5 12  1  0
  5  3  1  0
  6  5  2  0
  7  8  1  0
  9  8  1  0
  9 11  1  0
  9 10  1  6
 11 12  1  1
 13 21  1  0
 13 11  1  0
 14 13  2  0
 16 15  1  0
 17 16  2  0
 18 16  1  0
 19 18  1  0
 20 19  1  6
 20 21  1  0
 22 20  1  0
 23 22  1  0
 24 22  2  0
M  END
$$$$
