SIQ.pdb
     RDKit          3D

 24 23  0  0  1  0  0  0  0  0999 V2000
   19.2438  -10.1781  -21.4962 O   0  0  0  0  0  0  0  0  0  0  0  0
   19.2908   -9.7924  -20.1638 C   0  0  0  0  0  0  0  0  0  0  0  0
   19.7428  -10.9873  -19.3372 C   0  0  2  0  0  0  0  0  0  0  0  0
   18.6975  -11.9869  -19.3361 N   0  0  0  0  0  0  0  0  0  0  0  0
   20.0157  -10.5879  -17.9391 C   0  0  0  0  0  0  0  0  0  0  0  0
   19.0639  -10.4631  -17.1322 O   0  0  0  0  0  0  0  0  0  0  0  0
   23.8566  -12.8215  -15.0441 C   0  0  0  0  0  0  0  0  0  0  0  0
   22.5782  -12.1552  -15.5007 C   0  0  0  0  0  0  0  0  0  0  0  0
   22.8117  -10.6744  -15.5557 C   0  0  2  0  0  0  0  0  0  0  0  0
   23.1065  -10.1597  -14.1683 C   0  0  0  0  0  0  0  0  0  0  0  0
   21.6873   -9.9155  -16.1876 C   0  0  2  0  0  0  0  0  0  0  0  0
   21.3555  -10.3456  -17.5101 N   0  0  0  0  0  0  0  0  0  0  0  0
   22.0278   -8.4530  -16.1716 C   0  0  0  0  0  0  0  0  0  0  0  0
   23.0440   -8.1198  -16.8350 O   0  0  0  0  0  0  0  0  0  0  0  0
   18.6142   -3.9977  -17.6921 N   0  0  0  0  0  0  0  0  0  0  0  0
   19.7180   -3.2380  -17.2573 C   0  0  0  0  0  0  0  0  0  0  0  0
   19.7384   -2.0177  -17.4663 O   0  0  0  0  0  0  0  0  0  0  0  0
   20.8160   -3.9805  -16.5553 C   0  0  0  0  0  0  0  0  0  0  0  0
   20.5112   -5.4452  -16.4529 C   0  0  0  0  0  0  0  0  0  0  0  0
   21.5706   -6.1129  -15.6257 C   0  0  2  0  0  0  0  0  0  0  0  0
   21.2309   -7.5334  -15.4430 N   0  0  0  0  0  0  0  0  0  0  0  0
   21.6376   -5.5054  -14.2882 C   0  0  0  0  0  0  0  0  0  0  0  0
   22.4902   -4.4628  -13.9878 O   0  0  0  0  0  0  0  0  0  0  0  0
   20.8847   -5.9612  -13.3742 O   0  0  0  0  0  0  0  0  0  0  0  0
  2  1  1  0
  2  3  1  0
  3  4  1  1
  5 12  1  0
  5  3  1  0
  6  5  2  0
  7  8  1  0
  9  8  1  0
  9 11  1  0
  9 10  1  1
 11 12  1  6
 13 21  1  0
 13 11  1  0
 14 13  2  0
 16 15  1  0
 17 16  2  0
 18 16  1  0
 19 18  1  0
 20 19  1  6
 20 21  1  0
 22 20  1  0
 23 22  1  0
 24 22  2  0
M  END
$$$$
