KDR.pdb
     RDKit          3D

 29 28  0  0  1  0  0  0  0  0999 V2000
    7.5195  -16.9602   19.6406 N   0  0  0  0  0  0  0  0  0  0  0  0
    8.7502  -16.1465   19.6153 C   0  0  1  0  0  0  0  0  0  0  0  0
    8.4043  -14.7308   19.8974 C   0  0  0  0  0  0  0  0  0  0  0  0
    7.7923  -13.9847   18.8009 C   0  0  0  0  0  0  0  0  0  0  0  0
    8.3916  -13.8104   17.4893 C   0  0  0  0  0  0  0  0  0  0  0  0
    7.7808  -12.9557   16.4502 C   0  0  0  0  0  0  0  0  0  0  0  0
    8.6457  -13.0256   15.2231 N   0  0  0  0  0  0  0  0  0  0  0  0
    9.5793  -16.7132   20.7631 C   0  0  0  0  0  0  0  0  0  0  0  0
    8.9630  -17.2177   21.7174 O   0  0  0  0  0  0  0  0  0  0  0  0
   10.9812  -16.6849   20.7771 N   0  0  0  0  0  0  0  0  0  0  0  0
   11.8133  -17.0659   21.8774 C   0  0  1  0  0  0  0  0  0  0  0  0
   13.2434  -16.7958   21.5385 C   0  0  0  0  0  0  0  0  0  0  0  0
   14.1513  -17.1899   22.6392 C   0  0  0  0  0  0  0  0  0  0  0  0
   14.0742  -18.2907   23.2428 O   0  0  0  0  0  0  0  0  0  0  0  0
   11.3969  -16.3911   23.1393 C   0  0  0  0  0  0  0  0  0  0  0  0
   11.7590  -15.1992   23.2996 O   0  0  0  0  0  0  0  0  0  0  0  0
   15.1760  -16.3426   23.0867 O   0  0  0  0  0  0  0  0  0  0  0  0
    5.2425  -12.6333   27.4761 N   0  0  0  0  0  0  0  0  0  0  0  0
    6.2714  -12.1122   26.6252 C   0  0  0  0  0  0  0  0  0  0  0  0
    6.4373  -10.8369   26.5474 N   0  0  0  0  0  0  0  0  0  0  0  0
    7.0916  -13.0048   25.8820 N   0  0  0  0  0  0  0  0  0  0  0  0
    6.8575  -14.4282   25.9573 C   0  0  0  0  0  0  0  0  0  0  0  0
    8.2125  -15.0760   26.3121 C   0  0  0  0  0  0  0  0  0  0  0  0
    8.7948  -15.7428   25.0942 C   0  0  0  0  0  0  0  0  0  0  0  0
   10.1247  -16.3605   25.3348 C   0  0  2  0  0  0  0  0  0  0  0  0
   10.6268  -17.0359   24.1359 N   0  0  0  0  0  0  0  0  0  0  0  0
   10.1295  -17.2631   26.4903 C   0  0  0  0  0  0  0  0  0  0  0  0
   10.0126  -16.7041   27.7677 O   0  0  0  0  0  0  0  0  0  0  0  0
   10.2296  -18.5098   26.4457 O   0  0  0  0  0  0  0  0  0  0  0  0
  2  1  1  1
  3  2  1  0
  4  3  1  0
  5  4  1  0
  6  5  1  0
  7  6  1  0
  8 10  1  0
  8  2  1  0
  9  8  2  0
 11 10  1  0
 12 13  1  0
 11 12  1  6
 13 17  1  0
 14 13  2  0
 15 26  1  0
 15 11  1  0
 16 15  2  0
 18 19  1  0
 19 21  1  0
 20 19  2  0
 21 22  1  0
 22 23  1  0
 23 24  1  0
 25 24  1  6
 25 26  1  0
 25 27  1  0
 27 28  1  0
 29 27  2  0
M  END
$$$$
