KDR.pdb
     RDKit          3D

 29 28  0  0  1  0  0  0  0  0999 V2000
    8.9243  -17.4736   19.0354 N   0  0  0  0  0  0  0  0  0  0  0  0
    9.9337  -16.4793   19.4474 C   0  0  1  0  0  0  0  0  0  0  0  0
    9.2557  -15.1952   19.7551 C   0  0  0  0  0  0  0  0  0  0  0  0
    8.7572  -14.4376   18.6100 C   0  0  0  0  0  0  0  0  0  0  0  0
    8.2072  -13.0955   18.6882 C   0  0  0  0  0  0  0  0  0  0  0  0
    7.8164  -12.3318   17.4851 C   0  0  0  0  0  0  0  0  0  0  0  0
    7.5149  -13.3141   16.3885 N   0  0  0  0  0  0  0  0  0  0  0  0
   10.5207  -17.0713   20.7247 C   0  0  0  0  0  0  0  0  0  0  0  0
    9.7575  -17.7308   21.4511 O   0  0  0  0  0  0  0  0  0  0  0  0
   11.8615  -16.9005   21.0977 N   0  0  0  0  0  0  0  0  0  0  0  0
   12.4491  -17.3402   22.3263 C   0  0  1  0  0  0  0  0  0  0  0  0
   13.9214  -17.0870   22.2941 C   0  0  0  0  0  0  0  0  0  0  0  0
   14.5994  -17.9240   21.2787 C   0  0  0  0  0  0  0  0  0  0  0  0
   14.3125  -19.1307   21.0692 O   0  0  0  0  0  0  0  0  0  0  0  0
   11.7947  -16.7056   23.5053 C   0  0  0  0  0  0  0  0  0  0  0  0
   11.7147  -15.4522   23.5121 O   0  0  0  0  0  0  0  0  0  0  0  0
   15.6251  -17.4128   20.4696 O   0  0  0  0  0  0  0  0  0  0  0  0
    5.0403  -12.8131   26.9727 N   0  0  0  0  0  0  0  0  0  0  0  0
    6.4498  -12.6094   26.8119 C   0  0  0  0  0  0  0  0  0  0  0  0
    6.8908  -11.4219   26.5763 N   0  0  0  0  0  0  0  0  0  0  0  0
    7.3387  -13.7146   26.9143 N   0  0  0  0  0  0  0  0  0  0  0  0
    7.4713  -14.6356   25.8095 C   0  0  0  0  0  0  0  0  0  0  0  0
    8.3247  -15.8143   26.3229 C   0  0  0  0  0  0  0  0  0  0  0  0
    9.2011  -16.3321   25.2134 C   0  0  0  0  0  0  0  0  0  0  0  0
   10.5069  -16.8607   25.6865 C   0  0  2  0  0  0  0  0  0  0  0  0
   11.2749  -17.4528   24.5887 N   0  0  0  0  0  0  0  0  0  0  0  0
   10.3665  -17.8031   26.8009 C   0  0  0  0  0  0  0  0  0  0  0  0
    9.8390  -17.3286   28.0069 O   0  0  0  0  0  0  0  0  0  0  0  0
   10.6780  -19.0151   26.7792 O   0  0  0  0  0  0  0  0  0  0  0  0
  2  1  1  1
  3  2  1  0
  4  3  1  0
  5  4  1  0
  6  5  1  0
  7  6  1  0
  8 10  1  0
  8  2  1  0
  9  8  2  0
 11 10  1  0
 12 13  1  0
 11 12  1  6
 13 17  1  0
 14 13  2  0
 15 26  1  0
 15 11  1  0
 16 15  2  0
 18 19  1  0
 19 21  1  0
 20 19  2  0
 21 22  1  0
 22 23  1  0
 23 24  1  0
 25 24  1  6
 25 26  1  0
 25 27  1  0
 27 28  1  0
 29 27  2  0
M  END
$$$$
