KDR.pdb
     RDKit          3D

 29 28  0  0  1  0  0  0  0  0999 V2000
    6.6947  -16.7319   20.3794 N   0  0  0  0  0  0  0  0  0  0  0  0
    7.9512  -15.9774   20.2081 C   0  0  1  0  0  0  0  0  0  0  0  0
    7.6947  -14.5385   20.4670 C   0  0  0  0  0  0  0  0  0  0  0  0
    7.2747  -13.7404   19.3180 C   0  0  0  0  0  0  0  0  0  0  0  0
    8.0497  -13.5807   18.1000 C   0  0  0  0  0  0  0  0  0  0  0  0
    7.5950  -12.7288   16.9816 C   0  0  0  0  0  0  0  0  0  0  0  0
    8.5382  -12.9317   15.8293 N   0  0  0  0  0  0  0  0  0  0  0  0
    8.8606  -16.5426   21.2943 C   0  0  0  0  0  0  0  0  0  0  0  0
    8.3177  -16.9706   22.3273 O   0  0  0  0  0  0  0  0  0  0  0  0
   10.2562  -16.5944   21.1689 N   0  0  0  0  0  0  0  0  0  0  0  0
   11.1593  -17.1688   22.1189 C   0  0  1  0  0  0  0  0  0  0  0  0
   12.5502  -17.1263   21.5742 C   0  0  0  0  0  0  0  0  0  0  0  0
   13.4935  -17.8921   22.4198 C   0  0  0  0  0  0  0  0  0  0  0  0
   13.3699  -18.0112   23.6659 O   0  0  0  0  0  0  0  0  0  0  0  0
   11.0548  -16.5021   23.4477 C   0  0  0  0  0  0  0  0  0  0  0  0
   11.2463  -15.2614   23.4843 O   0  0  0  0  0  0  0  0  0  0  0  0
   14.6071  -18.5466   21.8725 O   0  0  0  0  0  0  0  0  0  0  0  0
    5.3989  -12.4186   27.3772 N   0  0  0  0  0  0  0  0  0  0  0  0
    6.6655  -11.9768   26.8727 C   0  0  0  0  0  0  0  0  0  0  0  0
    6.9869  -10.7338   26.9814 N   0  0  0  0  0  0  0  0  0  0  0  0
    7.5467  -12.9111   26.2622 N   0  0  0  0  0  0  0  0  0  0  0  0
    7.0584  -14.2152   25.8784 C   0  0  0  0  0  0  0  0  0  0  0  0
    8.0589  -15.2421   26.4494 C   0  0  0  0  0  0  0  0  0  0  0  0
    8.8127  -15.9011   25.3248 C   0  0  0  0  0  0  0  0  0  0  0  0
   10.0377  -16.6148   25.7699 C   0  0  2  0  0  0  0  0  0  0  0  0
   10.7546  -17.2062   24.6378 N   0  0  0  0  0  0  0  0  0  0  0  0
    9.7649  -17.6178   26.8041 C   0  0  0  0  0  0  0  0  0  0  0  0
    9.7684  -17.2074   28.1418 O   0  0  0  0  0  0  0  0  0  0  0  0
    9.5239  -18.8295   26.6041 O   0  0  0  0  0  0  0  0  0  0  0  0
  2  1  1  1
  3  2  1  0
  4  3  1  0
  5  4  1  0
  6  5  1  0
  7  6  1  0
  8 10  1  0
  8  2  1  0
  9  8  2  0
 11 10  1  0
 12 13  1  0
 11 12  1  6
 13 17  1  0
 14 13  2  0
 15 26  1  0
 15 11  1  0
 16 15  2  0
 18 19  1  0
 19 21  1  0
 20 19  2  0
 21 22  1  0
 22 23  1  0
 23 24  1  0
 25 24  1  6
 25 26  1  0
 25 27  1  0
 27 28  1  0
 29 27  2  0
M  END
$$$$
