KDR.pdb
     RDKit          3D

 29 28  0  0  1  0  0  0  0  0999 V2000
    7.4265  -17.5645   20.2833 N   0  0  0  0  0  0  0  0  0  0  0  0
    8.8280  -17.1094   20.2050 C   0  0  1  0  0  0  0  0  0  0  0  0
    8.8525  -15.6381   20.0100 C   0  0  0  0  0  0  0  0  0  0  0  0
    8.4314  -15.1535   18.6979 C   0  0  0  0  0  0  0  0  0  0  0  0
    8.4054  -13.7548   18.3072 C   0  0  0  0  0  0  0  0  0  0  0  0
    7.9825  -13.3198   16.9599 C   0  0  0  0  0  0  0  0  0  0  0  0
    7.9917  -11.8173   16.9322 N   0  0  0  0  0  0  0  0  0  0  0  0
    9.3958  -17.4571   21.5772 C   0  0  0  0  0  0  0  0  0  0  0  0
    8.6087  -17.4491   22.5392 O   0  0  0  0  0  0  0  0  0  0  0  0
   10.7449  -17.7782   21.7847 N   0  0  0  0  0  0  0  0  0  0  0  0
   11.3253  -18.1829   23.0286 C   0  0  1  0  0  0  0  0  0  0  0  0
   12.7060  -18.7019   22.7897 C   0  0  0  0  0  0  0  0  0  0  0  0
   13.2742  -19.3277   24.0049 C   0  0  0  0  0  0  0  0  0  0  0  0
   12.6329  -19.4703   25.0775 O   0  0  0  0  0  0  0  0  0  0  0  0
   11.3047  -17.0781   24.0286 C   0  0  0  0  0  0  0  0  0  0  0  0
   12.0221  -16.0750   23.7910 O   0  0  0  0  0  0  0  0  0  0  0  0
   14.5907  -19.8114   24.0364 O   0  0  0  0  0  0  0  0  0  0  0  0
    4.5304  -13.3059   26.7188 N   0  0  0  0  0  0  0  0  0  0  0  0
    5.7356  -12.5975   27.0349 C   0  0  0  0  0  0  0  0  0  0  0  0
    5.7051  -11.3125   27.1228 N   0  0  0  0  0  0  0  0  0  0  0  0
    6.9429  -13.3183   27.2465 N   0  0  0  0  0  0  0  0  0  0  0  0
    8.1104  -13.0148   26.4519 C   0  0  0  0  0  0  0  0  0  0  0  0
    9.2147  -13.9924   26.9061 C   0  0  0  0  0  0  0  0  0  0  0  0
    9.2935  -15.1538   25.9512 C   0  0  0  0  0  0  0  0  0  0  0  0
   10.4665  -16.0356   26.1852 C   0  0  2  0  0  0  0  0  0  0  0  0
   10.5223  -17.1242   25.2067 N   0  0  0  0  0  0  0  0  0  0  0  0
   10.5211  -16.5542   27.5555 C   0  0  0  0  0  0  0  0  0  0  0  0
   10.7506  -15.6489   28.5975 O   0  0  0  0  0  0  0  0  0  0  0  0
   10.3794  -17.7513   27.8921 O   0  0  0  0  0  0  0  0  0  0  0  0
  2  1  1  1
  3  2  1  0
  4  3  1  0
  5  4  1  0
  6  5  1  0
  7  6  1  0
  8 10  1  0
  8  2  1  0
  9  8  2  0
 11 10  1  0
 12 13  1  0
 11 12  1  6
 13 17  1  0
 14 13  2  0
 15 26  1  0
 15 11  1  0
 16 15  2  0
 18 19  1  0
 19 21  1  0
 20 19  2  0
 21 22  1  0
 22 23  1  0
 23 24  1  0
 25 24  1  1
 25 26  1  0
 25 27  1  0
 27 28  1  0
 29 27  2  0
M  END
$$$$
