KDR.pdb
     RDKit          3D

 29 28  0  0  1  0  0  0  0  0999 V2000
   13.0192  -16.4068   18.2522 N   0  0  0  0  0  0  0  0  0  0  0  0
   13.1973  -17.8695   18.1740 C   0  0  1  0  0  0  0  0  0  0  0  0
   13.8305  -18.2147   16.8767 C   0  0  0  0  0  0  0  0  0  0  0  0
   13.3675  -17.4642   15.7122 C   0  0  0  0  0  0  0  0  0  0  0  0
   13.0773  -18.0530   14.4164 C   0  0  0  0  0  0  0  0  0  0  0  0
   12.7060  -17.2347   13.2434 C   0  0  0  0  0  0  0  0  0  0  0  0
   12.6130  -18.1456   12.0517 N   0  0  0  0  0  0  0  0  0  0  0  0
   14.1612  -18.1756   19.3158 C   0  0  0  0  0  0  0  0  0  0  0  0
   14.5594  -19.3477   19.4276 O   0  0  0  0  0  0  0  0  0  0  0  0
   14.6029  -17.2011   20.2221 N   0  0  0  0  0  0  0  0  0  0  0  0
   15.4937  -17.4241   21.3198 C   0  0  1  0  0  0  0  0  0  0  0  0
   16.1880  -16.1470   21.6664 C   0  0  0  0  0  0  0  0  0  0  0  0
   17.4933  -16.0286   20.9784 C   0  0  0  0  0  0  0  0  0  0  0  0
   17.6145  -15.6991   19.7705 O   0  0  0  0  0  0  0  0  0  0  0  0
   14.7849  -18.0148   22.4901 C   0  0  0  0  0  0  0  0  0  0  0  0
   14.1039  -17.2359   23.2021 O   0  0  0  0  0  0  0  0  0  0  0  0
   18.7017  -16.2814   21.6447 O   0  0  0  0  0  0  0  0  0  0  0  0
   13.6900  -26.3286   23.4577 N   0  0  0  0  0  0  0  0  0  0  0  0
   13.9862  -25.8650   24.7811 C   0  0  0  0  0  0  0  0  0  0  0  0
   14.1393  -26.7241   25.7290 N   0  0  0  0  0  0  0  0  0  0  0  0
   14.1070  -24.4701   25.0295 N   0  0  0  0  0  0  0  0  0  0  0  0
   13.0872  -23.5641   24.5545 C   0  0  0  0  0  0  0  0  0  0  0  0
   13.4977  -22.1550   25.0314 C   0  0  0  0  0  0  0  0  0  0  0  0
   14.3106  -21.4710   23.9644 C   0  0  0  0  0  0  0  0  0  0  0  0
   14.1243  -19.9971   23.9303 C   0  0  2  0  0  0  0  0  0  0  0  0
   14.8545  -19.3902   22.8149 N   0  0  0  0  0  0  0  0  0  0  0  0
   14.4708  -19.3526   25.2009 C   0  0  0  0  0  0  0  0  0  0  0  0
   13.5059  -19.3243   26.2138 O   0  0  0  0  0  0  0  0  0  0  0  0
   15.5672  -18.8146   25.4745 O   0  0  0  0  0  0  0  0  0  0  0  0
  2  1  1  6
  3  2  1  0
  4  3  1  0
  5  4  1  0
  6  5  1  0
  7  6  1  0
  8 10  1  0
  8  2  1  0
  9  8  2  0
 11 10  1  0
 12 13  1  0
 11 12  1  1
 13 17  1  0
 14 13  2  0
 15 26  1  0
 15 11  1  0
 16 15  2  0
 18 19  1  0
 19 21  1  0
 20 19  2  0
 21 22  1  0
 22 23  1  0
 23 24  1  0
 25 24  1  1
 25 26  1  0
 25 27  1  0
 27 28  1  0
 29 27  2  0
M  END
$$$$
