KDR.pdb
     RDKit          3D

 29 28  0  0  1  0  0  0  0  0999 V2000
    9.9347  -13.0891   18.7682 N   0  0  0  0  0  0  0  0  0  0  0  0
    8.6434  -13.4076   19.4072 C   0  0  1  0  0  0  0  0  0  0  0  0
    7.6483  -13.7386   18.3568 C   0  0  0  0  0  0  0  0  0  0  0  0
    8.1348  -14.5386   17.2356 C   0  0  0  0  0  0  0  0  0  0  0  0
    7.7881  -14.3023   15.8450 C   0  0  0  0  0  0  0  0  0  0  0  0
    8.2964  -15.1537   14.7495 C   0  0  0  0  0  0  0  0  0  0  0  0
    7.6928  -14.6654   13.4628 N   0  0  0  0  0  0  0  0  0  0  0  0
    8.9500  -14.6501   20.2370 C   0  0  0  0  0  0  0  0  0  0  0  0
    7.9999  -15.1883   20.8308 O   0  0  0  0  0  0  0  0  0  0  0  0
   10.2380  -15.1928   20.3493 N   0  0  0  0  0  0  0  0  0  0  0  0
   10.5956  -16.3415   21.1242 C   0  0  1  0  0  0  0  0  0  0  0  0
   11.9525  -16.8161   20.7161 C   0  0  0  0  0  0  0  0  0  0  0  0
   11.9003  -17.6276   19.4792 C   0  0  0  0  0  0  0  0  0  0  0  0
   11.1080  -18.5903   19.3129 O   0  0  0  0  0  0  0  0  0  0  0  0
   10.5126  -16.0644   22.5862 C   0  0  0  0  0  0  0  0  0  0  0  0
   11.1681  -15.0865   23.0234 O   0  0  0  0  0  0  0  0  0  0  0  0
   12.7485  -17.3676   18.3924 O   0  0  0  0  0  0  0  0  0  0  0  0
    4.7877  -12.3143   26.8694 N   0  0  0  0  0  0  0  0  0  0  0  0
    5.9629  -11.6641   26.3691 C   0  0  0  0  0  0  0  0  0  0  0  0
    6.0255  -10.3773   26.3869 N   0  0  0  0  0  0  0  0  0  0  0  0
    7.0389  -12.4435   25.8625 N   0  0  0  0  0  0  0  0  0  0  0  0
    6.9376  -13.8844   25.8455 C   0  0  0  0  0  0  0  0  0  0  0  0
    8.2195  -14.4048   25.1619 C   0  0  0  0  0  0  0  0  0  0  0  0
    8.1978  -15.9095   25.1132 C   0  0  0  0  0  0  0  0  0  0  0  0
    9.5355  -16.5149   24.8845 C   0  0  2  0  0  0  0  0  0  0  0  0
    9.7382  -16.8495   23.4729 N   0  0  0  0  0  0  0  0  0  0  0  0
    9.7862  -17.6764   25.7436 C   0  0  0  0  0  0  0  0  0  0  0  0
   10.0976  -18.8965   25.1333 O   0  0  0  0  0  0  0  0  0  0  0  0
    9.7486  -17.6842   26.9945 O   0  0  0  0  0  0  0  0  0  0  0  0
  2  1  1  6
  3  2  1  0
  4  3  1  0
  5  4  1  0
  6  5  1  0
  7  6  1  0
  8 10  1  0
  8  2  1  0
  9  8  2  0
 11 10  1  0
 12 13  1  0
 11 12  1  6
 13 17  1  0
 14 13  2  0
 15 26  1  0
 15 11  1  0
 16 15  2  0
 18 19  1  0
 19 21  1  0
 20 19  2  0
 21 22  1  0
 22 23  1  0
 23 24  1  0
 25 24  1  6
 25 26  1  0
 25 27  1  0
 27 28  1  0
 29 27  2  0
M  END
$$$$
