KDR.pdb
     RDKit          3D

 29 28  0  0  1  0  0  0  0  0999 V2000
   13.3610  -17.7842   20.7601 N   0  0  0  0  0  0  0  0  0  0  0  0
   13.2680  -19.1638   21.2752 C   0  0  1  0  0  0  0  0  0  0  0  0
   13.1624  -20.1047   20.1320 C   0  0  0  0  0  0  0  0  0  0  0  0
   12.1870  -19.7608   19.1006 C   0  0  0  0  0  0  0  0  0  0  0  0
   11.9242  -20.5613   17.9174 C   0  0  0  0  0  0  0  0  0  0  0  0
   10.8585  -20.2178   16.9532 C   0  0  0  0  0  0  0  0  0  0  0  0
   10.7921  -21.3113   15.9245 N   0  0  0  0  0  0  0  0  0  0  0  0
   14.5986  -19.3703   21.9916 C   0  0  0  0  0  0  0  0  0  0  0  0
   14.8033  -20.4834   22.5054 O   0  0  0  0  0  0  0  0  0  0  0  0
   15.5759  -18.3693   22.0874 N   0  0  0  0  0  0  0  0  0  0  0  0
   16.8749  -18.5232   22.6677 C   0  0  1  0  0  0  0  0  0  0  0  0
   17.8649  -17.7107   21.8978 C   0  0  0  0  0  0  0  0  0  0  0  0
   18.1201  -18.2840   20.5571 C   0  0  0  0  0  0  0  0  0  0  0  0
   18.0181  -17.6266   19.4896 O   0  0  0  0  0  0  0  0  0  0  0  0
   16.8720  -18.1801   24.1180 C   0  0  0  0  0  0  0  0  0  0  0  0
   16.4313  -17.0489   24.4396 O   0  0  0  0  0  0  0  0  0  0  0  0
   18.5001  -19.6241   20.3902 O   0  0  0  0  0  0  0  0  0  0  0  0
   13.7072  -22.1690   31.0910 N   0  0  0  0  0  0  0  0  0  0  0  0
   14.5149  -21.1192   31.6386 C   0  0  0  0  0  0  0  0  0  0  0  0
   14.4469  -20.8663   32.9000 N   0  0  0  0  0  0  0  0  0  0  0  0
   15.3765  -20.3747   30.7869 N   0  0  0  0  0  0  0  0  0  0  0  0
   15.3516  -20.6036   29.3609 C   0  0  0  0  0  0  0  0  0  0  0  0
   16.3280  -19.5842   28.7373 C   0  0  0  0  0  0  0  0  0  0  0  0
   16.3639  -19.7593   27.2423 C   0  0  0  0  0  0  0  0  0  0  0  0
   17.2519  -18.7880   26.5524 C   0  0  2  0  0  0  0  0  0  0  0  0
   17.3387  -19.0669   25.1170 N   0  0  0  0  0  0  0  0  0  0  0  0
   18.5856  -18.7111   27.1568 C   0  0  0  0  0  0  0  0  0  0  0  0
   18.7254  -18.0231   28.3672 O   0  0  0  0  0  0  0  0  0  0  0  0
   19.6326  -19.2107   26.6873 O   0  0  0  0  0  0  0  0  0  0  0  0
  2  1  1  6
  3  2  1  0
  4  3  1  0
  5  4  1  0
  6  5  1  0
  7  6  1  0
  8 10  1  0
  8  2  1  0
  9  8  2  0
 11 10  1  0
 12 13  1  0
 11 12  1  6
 13 17  1  0
 14 13  2  0
 15 26  1  0
 15 11  1  0
 16 15  2  0
 18 19  1  0
 19 21  1  0
 20 19  2  0
 21 22  1  0
 22 23  1  0
 23 24  1  0
 25 24  1  1
 25 26  1  0
 25 27  1  0
 27 28  1  0
 29 27  2  0
M  END
$$$$
