KDR.pdb
     RDKit          3D

 29 28  0  0  1  0  0  0  0  0999 V2000
    7.8096  -17.7826   19.9559 N   0  0  0  0  0  0  0  0  0  0  0  0
    9.0779  -17.0289   19.9282 C   0  0  1  0  0  0  0  0  0  0  0  0
    8.7807  -15.5747   19.9271 C   0  0  0  0  0  0  0  0  0  0  0  0
    8.1470  -15.0459   18.7219 C   0  0  0  0  0  0  0  0  0  0  0  0
    7.7666  -13.6567   18.5345 C   0  0  0  0  0  0  0  0  0  0  0  0
    7.1782  -13.1633   17.2721 C   0  0  0  0  0  0  0  0  0  0  0  0
    6.8864  -11.6982   17.4366 N   0  0  0  0  0  0  0  0  0  0  0  0
    9.7545  -17.4160   21.2392 C   0  0  0  0  0  0  0  0  0  0  0  0
    9.0237  -17.8134   22.1628 O   0  0  0  0  0  0  0  0  0  0  0  0
   11.1412  -17.3402   21.4326 N   0  0  0  0  0  0  0  0  0  0  0  0
   11.8335  -17.6514   22.6458 C   0  0  1  0  0  0  0  0  0  0  0  0
   13.3055  -17.6718   22.3893 C   0  0  0  0  0  0  0  0  0  0  0  0
   13.6639  -18.6418   21.3302 C   0  0  0  0  0  0  0  0  0  0  0  0
   13.1913  -19.8058   21.2655 O   0  0  0  0  0  0  0  0  0  0  0  0
   11.4666  -16.7121   23.7432 C   0  0  0  0  0  0  0  0  0  0  0  0
   11.4989  -15.4839   23.4826 O   0  0  0  0  0  0  0  0  0  0  0  0
   14.5714  -18.3165   20.3111 O   0  0  0  0  0  0  0  0  0  0  0  0
    5.0478  -12.7814   26.1805 N   0  0  0  0  0  0  0  0  0  0  0  0
    6.4552  -12.6376   26.4102 C   0  0  0  0  0  0  0  0  0  0  0  0
    6.9550  -11.4564   26.5320 N   0  0  0  0  0  0  0  0  0  0  0  0
    7.2772  -13.7944   26.5005 N   0  0  0  0  0  0  0  0  0  0  0  0
    6.9041  -14.9985   25.7951 C   0  0  0  0  0  0  0  0  0  0  0  0
    8.0136  -16.0329   26.0788 C   0  0  0  0  0  0  0  0  0  0  0  0
    9.3232  -15.5444   25.5190 C   0  0  0  0  0  0  0  0  0  0  0  0
   10.5042  -16.2733   26.0499 C   0  0  2  0  0  0  0  0  0  0  0  0
   11.0931  -17.1507   25.0356 N   0  0  0  0  0  0  0  0  0  0  0  0
   10.2070  -17.0138   27.2801 C   0  0  0  0  0  0  0  0  0  0  0  0
   10.2973  -18.4098   27.2509 O   0  0  0  0  0  0  0  0  0  0  0  0
    9.8741  -16.5098   28.3763 O   0  0  0  0  0  0  0  0  0  0  0  0
  2  1  1  1
  3  2  1  0
  4  3  1  0
  5  4  1  0
  6  5  1  0
  7  6  1  0
  8 10  1  0
  8  2  1  0
  9  8  2  0
 11 10  1  0
 12 13  1  0
 11 12  1  6
 13 17  1  0
 14 13  2  0
 15 26  1  0
 15 11  1  0
 16 15  2  0
 18 19  1  0
 19 21  1  0
 20 19  2  0
 21 22  1  0
 22 23  1  0
 23 24  1  0
 25 24  1  6
 25 26  1  0
 25 27  1  0
 27 28  1  0
 29 27  2  0
M  END
$$$$
