KDR.pdb
     RDKit          3D

 29 28  0  0  1  0  0  0  0  0999 V2000
   10.0976  -17.4889   17.8323 N   0  0  0  0  0  0  0  0  0  0  0  0
   10.5218  -16.3311   18.6428 C   0  0  1  0  0  0  0  0  0  0  0  0
    9.4740  -15.2816   18.5792 C   0  0  0  0  0  0  0  0  0  0  0  0
    8.9523  -14.9695   17.2510 C   0  0  0  0  0  0  0  0  0  0  0  0
    7.9133  -13.9901   16.9847 C   0  0  0  0  0  0  0  0  0  0  0  0
    7.4645  -13.6690   15.6140 C   0  0  0  0  0  0  0  0  0  0  0  0
    6.3566  -12.6584   15.7123 N   0  0  0  0  0  0  0  0  0  0  0  0
   10.6028  -16.8936   20.0581 C   0  0  0  0  0  0  0  0  0  0  0  0
    9.5310  -17.1572   20.6296 O   0  0  0  0  0  0  0  0  0  0  0  0
   11.8182  -17.1183   20.7205 N   0  0  0  0  0  0  0  0  0  0  0  0
   11.9637  -17.6500   22.0411 C   0  0  1  0  0  0  0  0  0  0  0  0
   13.3859  -18.0510   22.2638 C   0  0  0  0  0  0  0  0  0  0  0  0
   13.8595  -18.9913   21.2233 C   0  0  0  0  0  0  0  0  0  0  0  0
   14.8385  -18.7570   20.4690 O   0  0  0  0  0  0  0  0  0  0  0  0
   11.4810  -16.6911   23.0748 C   0  0  0  0  0  0  0  0  0  0  0  0
   11.5126  -15.4696   22.7843 O   0  0  0  0  0  0  0  0  0  0  0  0
   13.2334  -20.2283   21.0095 O   0  0  0  0  0  0  0  0  0  0  0  0
    7.0284  -12.9835   27.6751 N   0  0  0  0  0  0  0  0  0  0  0  0
    6.6440  -12.2457   26.5081 C   0  0  0  0  0  0  0  0  0  0  0  0
    5.7496  -11.3243   26.6129 N   0  0  0  0  0  0  0  0  0  0  0  0
    7.2519  -12.5383   25.2563 N   0  0  0  0  0  0  0  0  0  0  0  0
    7.2796  -13.8985   24.7709 C   0  0  0  0  0  0  0  0  0  0  0  0
    8.4024  -14.6174   25.5481 C   0  0  0  0  0  0  0  0  0  0  0  0
    9.2061  -15.4758   24.6078 C   0  0  0  0  0  0  0  0  0  0  0  0
   10.3103  -16.2133   25.2751 C   0  0  2  0  0  0  0  0  0  0  0  0
   11.0013  -17.1044   24.3402 N   0  0  0  0  0  0  0  0  0  0  0  0
    9.8659  -16.9413   26.4677 C   0  0  0  0  0  0  0  0  0  0  0  0
    9.7913  -16.2449   27.6791 O   0  0  0  0  0  0  0  0  0  0  0  0
    9.5398  -18.1488   26.5098 O   0  0  0  0  0  0  0  0  0  0  0  0
  2  1  1  6
  3  2  1  0
  4  3  1  0
  5  4  1  0
  6  5  1  0
  7  6  1  0
  8 10  1  0
  8  2  1  0
  9  8  2  0
 11 10  1  0
 12 13  1  0
 11 12  1  1
 13 17  1  0
 14 13  2  0
 15 26  1  0
 15 11  1  0
 16 15  2  0
 18 19  1  0
 19 21  1  0
 20 19  2  0
 21 22  1  0
 22 23  1  0
 23 24  1  0
 25 24  1  6
 25 26  1  0
 25 27  1  0
 27 28  1  0
 29 27  2  0
M  END
$$$$
