KDR.pdb
     RDKit          3D

 29 28  0  0  1  0  0  0  0  0999 V2000
   10.0549  -13.6438   18.6540 N   0  0  0  0  0  0  0  0  0  0  0  0
    8.7741  -13.9324   19.3277 C   0  0  1  0  0  0  0  0  0  0  0  0
    7.7547  -14.2823   18.3072 C   0  0  0  0  0  0  0  0  0  0  0  0
    8.1064  -13.9966   16.9185 C   0  0  0  0  0  0  0  0  0  0  0  0
    7.2144  -14.1873   15.7881 C   0  0  0  0  0  0  0  0  0  0  0  0
    7.5986  -13.8203   14.4093 C   0  0  0  0  0  0  0  0  0  0  0  0
    6.4781  -14.2220   13.4919 N   0  0  0  0  0  0  0  0  0  0  0  0
    9.0865  -15.1548   20.1847 C   0  0  0  0  0  0  0  0  0  0  0  0
    8.1570  -15.6325   20.8575 O   0  0  0  0  0  0  0  0  0  0  0  0
   10.3579  -15.7439   20.2373 N   0  0  0  0  0  0  0  0  0  0  0  0
   10.7246  -16.8684   21.0430 C   0  0  1  0  0  0  0  0  0  0  0  0
   12.0203  -17.4306   20.5551 C   0  0  0  0  0  0  0  0  0  0  0  0
   11.9062  -17.9521   19.1744 C   0  0  0  0  0  0  0  0  0  0  0  0
   10.9820  -18.7162   18.7947 O   0  0  0  0  0  0  0  0  0  0  0  0
   10.7743  -16.5137   22.4897 C   0  0  0  0  0  0  0  0  0  0  0  0
   11.9028  -16.2646   22.9813 O   0  0  0  0  0  0  0  0  0  0  0  0
   12.8410  -17.6193   18.1827 O   0  0  0  0  0  0  0  0  0  0  0  0
    7.0376  -10.2102   25.6597 N   0  0  0  0  0  0  0  0  0  0  0  0
    6.7010  -11.4810   26.2305 C   0  0  0  0  0  0  0  0  0  0  0  0
    5.5418  -11.6412   26.7694 N   0  0  0  0  0  0  0  0  0  0  0  0
    7.6458  -12.5432   26.1944 N   0  0  0  0  0  0  0  0  0  0  0  0
    7.3139  -13.8211   26.7802 C   0  0  0  0  0  0  0  0  0  0  0  0
    8.5169  -14.7501   26.5134 C   0  0  0  0  0  0  0  0  0  0  0  0
    8.5549  -15.1317   25.0574 C   0  0  0  0  0  0  0  0  0  0  0  0
    9.6464  -16.0826   24.7217 C   0  0  2  0  0  0  0  0  0  0  0  0
    9.6190  -16.4512   23.3043 N   0  0  0  0  0  0  0  0  0  0  0  0
    9.6434  -17.2735   25.5770 C   0  0  0  0  0  0  0  0  0  0  0  0
   10.3820  -17.2375   26.7649 O   0  0  0  0  0  0  0  0  0  0  0  0
    9.0325  -18.3408   25.3447 O   0  0  0  0  0  0  0  0  0  0  0  0
  2  1  1  6
  3  2  1  0
  4  3  1  0
  5  4  1  0
  6  5  1  0
  7  6  1  0
  8 10  1  0
  8  2  1  0
  9  8  2  0
 11 10  1  0
 12 13  1  0
 11 12  1  6
 13 17  1  0
 14 13  2  0
 15 26  1  0
 15 11  1  0
 16 15  2  0
 18 19  1  0
 19 21  1  0
 20 19  2  0
 21 22  1  0
 22 23  1  0
 23 24  1  0
 25 24  1  1
 25 26  1  0
 25 27  1  0
 27 28  1  0
 29 27  2  0
M  END
$$$$
