KDR.pdb
     RDKit          3D

 29 28  0  0  1  0  0  0  0  0999 V2000
    9.4707  -18.2255   16.0270 N   0  0  0  0  0  0  0  0  0  0  0  0
   10.6249  -17.3334   16.2491 C   0  0  1  0  0  0  0  0  0  0  0  0
   10.1720  -15.9220   16.1713 C   0  0  0  0  0  0  0  0  0  0  0  0
    9.1834  -15.6170   15.1402 C   0  0  0  0  0  0  0  0  0  0  0  0
    8.6227  -14.2983   14.9028 C   0  0  0  0  0  0  0  0  0  0  0  0
    7.6628  -14.0340   13.8110 C   0  0  0  0  0  0  0  0  0  0  0  0
    7.3947  -12.5558   13.7752 N   0  0  0  0  0  0  0  0  0  0  0  0
   11.0602  -17.6574   17.6746 C   0  0  0  0  0  0  0  0  0  0  0  0
   10.5259  -18.6348   18.2261 O   0  0  0  0  0  0  0  0  0  0  0  0
   12.0208  -16.9067   18.3673 N   0  0  0  0  0  0  0  0  0  0  0  0
   13.3774  -17.2981   18.6005 C   0  0  1  0  0  0  0  0  0  0  0  0
   14.0270  -17.6460   17.3005 C   0  0  0  0  0  0  0  0  0  0  0  0
   15.4504  -18.0108   17.4794 C   0  0  0  0  0  0  0  0  0  0  0  0
   16.4056  -17.3071   17.0615 O   0  0  0  0  0  0  0  0  0  0  0  0
   14.1312  -16.2484   19.3430 C   0  0  0  0  0  0  0  0  0  0  0  0
   15.3721  -16.4048   19.4570 O   0  0  0  0  0  0  0  0  0  0  0  0
   15.8307  -19.1884   18.1403 O   0  0  0  0  0  0  0  0  0  0  0  0
    6.3384  -15.1692   19.2798 N   0  0  0  0  0  0  0  0  0  0  0  0
    7.4667  -14.4320   19.7673 C   0  0  0  0  0  0  0  0  0  0  0  0
    7.5362  -13.1656   19.5404 N   0  0  0  0  0  0  0  0  0  0  0  0
    8.4893  -15.1042   20.4915 N   0  0  0  0  0  0  0  0  0  0  0  0
    9.6933  -14.3966   20.8602 C   0  0  0  0  0  0  0  0  0  0  0  0
   10.8741  -15.3127   20.4753 C   0  0  0  0  0  0  0  0  0  0  0  0
   11.8209  -15.4421   21.6388 C   0  0  0  0  0  0  0  0  0  0  0  0
   13.2006  -14.9812   21.3350 C   0  0  2  0  0  0  0  0  0  0  0  0
   13.5073  -15.1113   19.9086 N   0  0  0  0  0  0  0  0  0  0  0  0
   14.2150  -15.6495   22.1562 C   0  0  0  0  0  0  0  0  0  0  0  0
   14.1931  -15.4365   23.5389 O   0  0  0  0  0  0  0  0  0  0  0  0
   15.1167  -16.4076   21.7335 O   0  0  0  0  0  0  0  0  0  0  0  0
  2  1  1  1
  3  2  1  0
  4  3  1  0
  5  4  1  0
  6  5  1  0
  7  6  1  0
  8 10  1  0
  8  2  1  0
  9  8  2  0
 11 10  1  0
 12 13  1  0
 11 12  1  6
 13 17  1  0
 14 13  2  0
 15 26  1  0
 15 11  1  0
 16 15  2  0
 18 19  1  0
 19 21  1  0
 20 19  2  0
 21 22  1  0
 22 23  1  0
 23 24  1  0
 25 24  1  6
 25 26  1  0
 25 27  1  0
 27 28  1  0
 29 27  2  0
M  END
$$$$
