KDR.pdb
     RDKit          3D

 29 28  0  0  1  0  0  0  0  0999 V2000
    8.9062  -17.8361   19.0773 N   0  0  0  0  0  0  0  0  0  0  0  0
   10.2292  -18.2800   18.5979 C   0  0  1  0  0  0  0  0  0  0  0  0
   10.7851  -17.2532   17.6814 C   0  0  0  0  0  0  0  0  0  0  0  0
    9.8565  -16.6872   16.7063 C   0  0  0  0  0  0  0  0  0  0  0  0
    9.3801  -15.3152   16.7242 C   0  0  0  0  0  0  0  0  0  0  0  0
    8.5575  -14.7514   15.6339 C   0  0  0  0  0  0  0  0  0  0  0  0
    8.2905  -13.3071   15.9521 N   0  0  0  0  0  0  0  0  0  0  0  0
   11.0689  -18.3449   19.8695 C   0  0  0  0  0  0  0  0  0  0  0  0
   10.5693  -18.9149   20.8547 O   0  0  0  0  0  0  0  0  0  0  0  0
   12.3559  -17.7960   19.9618 N   0  0  0  0  0  0  0  0  0  0  0  0
   13.2263  -17.8936   21.0936 C   0  0  1  0  0  0  0  0  0  0  0  0
   14.5663  -17.3334   20.7424 C   0  0  0  0  0  0  0  0  0  0  0  0
   15.3423  -18.2619   19.8898 C   0  0  0  0  0  0  0  0  0  0  0  0
   15.6799  -18.0007   18.7066 O   0  0  0  0  0  0  0  0  0  0  0  0
   12.6390  -17.2363   22.2954 C   0  0  0  0  0  0  0  0  0  0  0  0
   12.5096  -15.9876   22.2613 O   0  0  0  0  0  0  0  0  0  0  0  0
   15.7584  -19.5171   20.3583 O   0  0  0  0  0  0  0  0  0  0  0  0
    6.1296  -14.3864   21.4368 N   0  0  0  0  0  0  0  0  0  0  0  0
    7.3861  -13.7063   21.3233 C   0  0  0  0  0  0  0  0  0  0  0  0
    7.4703  -12.6615   20.5741 N   0  0  0  0  0  0  0  0  0  0  0  0
    8.5174  -14.1907   22.0357 N   0  0  0  0  0  0  0  0  0  0  0  0
    8.5024  -15.5256   22.5873 C   0  0  0  0  0  0  0  0  0  0  0  0
    9.8695  -15.7307   23.2731 C   0  0  0  0  0  0  0  0  0  0  0  0
    9.9676  -17.1348   23.8077 C   0  0  0  0  0  0  0  0  0  0  0  0
   11.2817  -17.4423   24.4297 C   0  0  2  0  0  0  0  0  0  0  0  0
   12.2341  -17.9578   23.4433 N   0  0  0  0  0  0  0  0  0  0  0  0
   11.1675  -18.3484   25.5768 C   0  0  0  0  0  0  0  0  0  0  0  0
   10.7311  -17.8203   26.7969 O   0  0  0  0  0  0  0  0  0  0  0  0
   11.4268  -19.5728   25.5720 O   0  0  0  0  0  0  0  0  0  0  0  0
  2  1  1  1
  3  2  1  0
  4  3  1  0
  5  4  1  0
  6  5  1  0
  7  6  1  0
  8 10  1  0
  8  2  1  0
  9  8  2  0
 11 10  1  0
 12 13  1  0
 11 12  1  6
 13 17  1  0
 14 13  2  0
 15 26  1  0
 15 11  1  0
 16 15  2  0
 18 19  1  0
 19 21  1  0
 20 19  2  0
 21 22  1  0
 22 23  1  0
 23 24  1  0
 25 24  1  6
 25 26  1  0
 25 27  1  0
 27 28  1  0
 29 27  2  0
M  END
$$$$
