VPL.pdb
     RDKit          3D

 23 23  0  0  1  0  0  0  0  0999 V2000
   14.2405  -10.6532  -14.2574 C   0  0  0  0  0  0  0  0  0  0  0  0
   15.2703  -10.4356  -15.3219 C   0  0  2  0  0  0  0  0  0  0  0  0
   14.7753  -10.9921  -16.6342 C   0  0  0  0  0  0  0  0  0  0  0  0
   16.6242  -10.9896  -14.9420 C   0  0  2  0  0  0  0  0  0  0  0  0
   16.5977  -12.4111  -14.8108 N   0  0  0  0  0  0  0  0  0  0  0  0
   17.1007  -10.2913  -13.7248 C   0  0  0  0  0  0  0  0  0  0  0  0
   17.1820  -10.9229  -12.6134 O   0  0  0  0  0  0  0  0  0  0  0  0
   17.4806   -8.9310  -13.7180 N   0  0  0  0  0  0  0  0  0  0  0  0
   17.5388   -8.0732  -14.8579 C   0  0  0  0  0  0  0  0  0  0  0  0
   18.2295   -6.8267  -14.3549 C   0  0  0  0  0  0  0  0  0  0  0  0
   18.9413   -7.2672  -13.0833 C   0  0  0  0  0  0  0  0  0  0  0  0
   17.8703   -8.2131  -12.5398 C   0  0  1  0  0  0  0  0  0  0  0  0
   16.8111   -7.3679  -11.9826 C   0  0  0  0  0  0  0  0  0  0  0  0
   15.9284   -6.8587  -12.7066 O   0  0  0  0  0  0  0  0  0  0  0  0
   14.6682   -6.4438   -6.2551 C   0  0  0  0  0  0  0  0  0  0  0  0
   14.4674   -6.1594   -7.7552 C   0  0  2  0  0  0  0  0  0  0  0  0
   13.0742   -6.5800   -8.0910 C   0  0  0  0  0  0  0  0  0  0  0  0
   15.5225   -6.8493   -8.5437 C   0  0  0  0  0  0  0  0  0  0  0  0
   15.6254   -6.4133   -9.9674 C   0  0  2  0  0  0  0  0  0  0  0  0
   16.7634   -7.1059  -10.5934 N   0  0  0  0  0  0  0  0  0  0  0  0
   15.8416   -4.9524  -10.0331 C   0  0  0  0  0  0  0  0  0  0  0  0
   14.7426   -4.0932  -10.1793 O   0  0  0  0  0  0  0  0  0  0  0  0
   16.9577   -4.4092   -9.9665 O   0  0  0  0  0  0  0  0  0  0  0  0
  2  1  1  1
  2  3  1  0
  4  2  1  0
  4  5  1  1
  6  8  1  0
  6  4  1  0
  7  6  2  0
  8 12  1  0
  9  8  1  0
  9 10  1  0
 10 11  1  0
 12 11  1  0
 13 20  1  0
 12 13  1  6
 14 13  2  0
 16 15  1  1
 16 17  1  0
 18 16  1  0
 19 20  1  0
 19 18  1  1
 21 22  1  0
 21 19  1  0
 23 21  2  0
M  END
$$$$
