VPL.pdb
     RDKit          3D

 23 23  0  0  1  0  0  0  0  0999 V2000
   22.3472  -31.4638  -10.9660 C   0  0  0  0  0  0  0  0  0  0  0  0
   22.8103  -32.2245   -9.7627 C   0  0  2  0  0  0  0  0  0  0  0  0
   23.4703  -31.2836   -8.7851 C   0  0  0  0  0  0  0  0  0  0  0  0
   23.7013  -33.3916  -10.1210 C   0  0  2  0  0  0  0  0  0  0  0  0
   23.0543  -34.2980  -11.0145 N   0  0  0  0  0  0  0  0  0  0  0  0
   24.1765  -34.0301   -8.8709 C   0  0  0  0  0  0  0  0  0  0  0  0
   23.4101  -34.8299   -8.2278 O   0  0  0  0  0  0  0  0  0  0  0  0
   25.4614  -33.8012   -8.3312 N   0  0  0  0  0  0  0  0  0  0  0  0
   26.3893  -32.8098   -8.7722 C   0  0  0  0  0  0  0  0  0  0  0  0
   27.6726  -33.1486   -8.0495 C   0  0  0  0  0  0  0  0  0  0  0  0
   27.5018  -34.5994   -7.6209 C   0  0  0  0  0  0  0  0  0  0  0  0
   26.0206  -34.5522   -7.2454 C   0  0  1  0  0  0  0  0  0  0  0  0
   25.9400  -33.8722   -5.9502 C   0  0  0  0  0  0  0  0  0  0  0  0
   26.0694  -32.6328   -5.8502 O   0  0  0  0  0  0  0  0  0  0  0  0
   22.7867  -32.8650   -3.5507 C   0  0  0  0  0  0  0  0  0  0  0  0
   23.0746  -34.3725   -3.4236 C   0  0  2  0  0  0  0  0  0  0  0  0
   21.9137  -34.9735   -2.7013 C   0  0  0  0  0  0  0  0  0  0  0  0
   24.3862  -34.5795   -2.7547 C   0  0  0  0  0  0  0  0  0  0  0  0
   25.5507  -33.9638   -3.4566 C   0  0  2  0  0  0  0  0  0  0  0  0
   25.7106  -34.6136   -4.7676 N   0  0  0  0  0  0  0  0  0  0  0  0
   26.7800  -34.1565   -2.6584 C   0  0  0  0  0  0  0  0  0  0  0  0
   27.7969  -34.9941   -3.1399 O   0  0  0  0  0  0  0  0  0  0  0  0
   26.9888  -33.6164   -1.5585 O   0  0  0  0  0  0  0  0  0  0  0  0
  2  1  1  6
  2  3  1  0
  4  2  1  0
  4  5  1  6
  6  8  1  0
  6  4  1  0
  7  6  2  0
  8 12  1  0
  9  8  1  0
  9 10  1  0
 10 11  1  0
 12 11  1  0
 13 20  1  0
 12 13  1  1
 14 13  2  0
 16 15  1  1
 16 17  1  0
 18 16  1  0
 19 20  1  0
 19 18  1  1
 21 22  1  0
 21 19  1  0
 23 21  2  0
M  END
$$$$
