VPL.pdb
     RDKit          3D

 23 23  0  0  1  0  0  0  0  0999 V2000
   16.6065  -26.7919   -2.7865 C   0  0  0  0  0  0  0  0  0  0  0  0
   15.7541  -26.6894   -4.0128 C   0  0  2  0  0  0  0  0  0  0  0  0
   15.7995  -27.9891   -4.7778 C   0  0  0  0  0  0  0  0  0  0  0  0
   16.1212  -25.5055   -4.8777 C   0  0  2  0  0  0  0  0  0  0  0  0
   17.4247  -25.6456   -5.4429 N   0  0  0  0  0  0  0  0  0  0  0  0
   15.9493  -24.2647   -4.0855 C   0  0  0  0  0  0  0  0  0  0  0  0
   16.9709  -23.5619   -3.7648 O   0  0  0  0  0  0  0  0  0  0  0  0
   14.6889  -23.7990   -3.6503 N   0  0  0  0  0  0  0  0  0  0  0  0
   13.4289  -24.4072   -3.9344 C   0  0  0  0  0  0  0  0  0  0  0  0
   12.4092  -23.3970   -3.4617 C   0  0  0  0  0  0  0  0  0  0  0  0
   13.1751  -22.0836   -3.3849 C   0  0  0  0  0  0  0  0  0  0  0  0
   14.5007  -22.6249   -2.8494 C   0  0  1  0  0  0  0  0  0  0  0  0
   14.2927  -22.9047   -1.4263 C   0  0  0  0  0  0  0  0  0  0  0  0
   13.7721  -23.9722   -1.0364 O   0  0  0  0  0  0  0  0  0  0  0  0
   16.9637  -21.1507    3.7723 C   0  0  0  0  0  0  0  0  0  0  0  0
   15.8139  -21.9646    3.1500 C   0  0  2  0  0  0  0  0  0  0  0  0
   15.9991  -23.3793    3.5916 C   0  0  0  0  0  0  0  0  0  0  0  0
   15.8073  -21.7791    1.6747 C   0  0  0  0  0  0  0  0  0  0  0  0
   14.5586  -22.2307    0.9930 C   0  0  2  0  0  0  0  0  0  0  0  0
   14.6819  -21.9596   -0.4485 N   0  0  0  0  0  0  0  0  0  0  0  0
   13.3950  -21.4968    1.5342 C   0  0  0  0  0  0  0  0  0  0  0  0
   12.6658  -22.0406    2.6019 O   0  0  0  0  0  0  0  0  0  0  0  0
   13.0003  -20.4001    1.1024 O   0  0  0  0  0  0  0  0  0  0  0  0
  2  1  1  1
  2  3  1  0
  4  2  1  0
  4  5  1  1
  6  8  1  0
  6  4  1  0
  7  6  2  0
  8 12  1  0
  9  8  1  0
  9 10  1  0
 10 11  1  0
 12 11  1  0
 13 20  1  0
 12 13  1  1
 14 13  2  0
 16 15  1  1
 16 17  1  0
 18 16  1  0
 19 20  1  0
 19 18  1  1
 21 22  1  0
 21 19  1  0
 23 21  2  0
M  END
$$$$
