VPL.pdb
     RDKit          3D

 23 23  0  0  1  0  0  0  0  0999 V2000
   22.7840  -20.7524  -13.3390 C   0  0  0  0  0  0  0  0  0  0  0  0
   23.8783  -21.0599  -12.3649 C   0  0  2  0  0  0  0  0  0  0  0  0
   24.3100  -19.7954  -11.6640 C   0  0  0  0  0  0  0  0  0  0  0  0
   25.0410  -21.7815  -13.0067 C   0  0  2  0  0  0  0  0  0  0  0  0
   24.6118  -22.9211  -13.7520 N   0  0  0  0  0  0  0  0  0  0  0  0
   26.0406  -22.1005  -11.9601 C   0  0  0  0  0  0  0  0  0  0  0  0
   25.8675  -23.1132  -11.1953 O   0  0  0  0  0  0  0  0  0  0  0  0
   27.2059  -21.3306  -11.7500 N   0  0  0  0  0  0  0  0  0  0  0  0
   27.6228  -20.2131  -12.5347 C   0  0  0  0  0  0  0  0  0  0  0  0
   29.0253  -19.9193  -12.0545 C   0  0  0  0  0  0  0  0  0  0  0  0
   29.4733  -21.2012  -11.3664 C   0  0  0  0  0  0  0  0  0  0  0  0
   28.1498  -21.5750  -10.6988 C   0  0  1  0  0  0  0  0  0  0  0  0
   27.9976  -20.6835   -9.5460 C   0  0  0  0  0  0  0  0  0  0  0  0
   27.1702  -19.7465   -9.5454 O   0  0  0  0  0  0  0  0  0  0  0  0
   28.7425  -19.1507   -4.5110 C   0  0  0  0  0  0  0  0  0  0  0  0
   28.9998  -20.6638   -4.6372 C   0  0  2  0  0  0  0  0  0  0  0  0
   30.0725  -21.0021   -3.6545 C   0  0  0  0  0  0  0  0  0  0  0  0
   29.3314  -21.0018   -6.0467 C   0  0  0  0  0  0  0  0  0  0  0  0
   28.2547  -20.6950   -7.0336 C   0  0  2  0  0  0  0  0  0  0  0  0
   28.7950  -20.8662   -8.3921 N   0  0  0  0  0  0  0  0  0  0  0  0
   27.7932  -19.3013   -6.8594 C   0  0  0  0  0  0  0  0  0  0  0  0
   26.6214  -19.0431   -6.1331 O   0  0  0  0  0  0  0  0  0  0  0  0
   28.3823  -18.3091   -7.3216 O   0  0  0  0  0  0  0  0  0  0  0  0
  2  1  1  6
  2  3  1  0
  4  2  1  0
  4  5  1  1
  6  8  1  0
  6  4  1  0
  7  6  2  0
  8 12  1  0
  9  8  1  0
  9 10  1  0
 10 11  1  0
 12 11  1  0
 13 20  1  0
 12 13  1  1
 14 13  2  0
 16 15  1  6
 16 17  1  0
 18 16  1  0
 19 20  1  0
 19 18  1  1
 21 22  1  0
 21 19  1  0
 23 21  2  0
M  END
$$$$
