VPL.pdb
     RDKit          3D

 23 23  0  0  1  0  0  0  0  0999 V2000
   24.8916  -19.6315  -13.1154 C   0  0  0  0  0  0  0  0  0  0  0  0
   25.6474  -20.0698  -11.8999 C   0  0  2  0  0  0  0  0  0  0  0  0
   26.6046  -18.9841  -11.4733 C   0  0  0  0  0  0  0  0  0  0  0  0
   26.3420  -21.3978  -12.0955 C   0  0  2  0  0  0  0  0  0  0  0  0
   25.4536  -22.3902  -12.6096 N   0  0  0  0  0  0  0  0  0  0  0  0
   26.9926  -21.7877  -10.8223 C   0  0  0  0  0  0  0  0  0  0  0  0
   26.3229  -22.4071   -9.9232 O   0  0  0  0  0  0  0  0  0  0  0  0
   28.3465  -21.5076  -10.5336 N   0  0  0  0  0  0  0  0  0  0  0  0
   29.2638  -20.8351  -11.3965 C   0  0  0  0  0  0  0  0  0  0  0  0
   30.6081  -21.0167  -10.7304 C   0  0  0  0  0  0  0  0  0  0  0  0
   30.4137  -22.1942   -9.7852 C   0  0  0  0  0  0  0  0  0  0  0  0
   28.9973  -21.8716   -9.3090 C   0  0  1  0  0  0  0  0  0  0  0  0
   29.1199  -20.7690   -8.3520 C   0  0  0  0  0  0  0  0  0  0  0  0
   29.2008  -19.5794   -8.7278 O   0  0  0  0  0  0  0  0  0  0  0  0
   25.9669  -19.9542   -5.0282 C   0  0  0  0  0  0  0  0  0  0  0  0
   26.9377  -21.1365   -4.8513 C   0  0  2  0  0  0  0  0  0  0  0  0
   26.4610  -21.9122   -3.6674 C   0  0  0  0  0  0  0  0  0  0  0  0
   28.3306  -20.6301   -4.7315 C   0  0  0  0  0  0  0  0  0  0  0  0
   28.8699  -19.9846   -5.9645 C   0  0  2  0  0  0  0  0  0  0  0  0
   29.1500  -21.0300   -6.9622 N   0  0  0  0  0  0  0  0  0  0  0  0
   30.1182  -19.2584   -5.6486 C   0  0  0  0  0  0  0  0  0  0  0  0
   30.0523  -17.9649   -5.1102 O   0  0  0  0  0  0  0  0  0  0  0  0
   31.2580  -19.7202   -5.8291 O   0  0  0  0  0  0  0  0  0  0  0  0
  2  1  1  6
  2  3  1  0
  4  2  1  0
  4  5  1  1
  6  8  1  0
  6  4  1  0
  7  6  2  0
  8 12  1  0
  9  8  1  0
  9 10  1  0
 10 11  1  0
 12 11  1  0
 13 20  1  0
 12 13  1  1
 14 13  2  0
 16 15  1  1
 16 17  1  0
 18 16  1  0
 19 20  1  0
 19 18  1  1
 21 22  1  0
 21 19  1  0
 23 21  2  0
M  END
$$$$
