VPL.pdb
     RDKit          3D

 23 23  0  0  1  0  0  0  0  0999 V2000
   26.0012  -24.9561  -15.6950 C   0  0  0  0  0  0  0  0  0  0  0  0
   25.9209  -24.0590  -16.8906 C   0  0  2  0  0  0  0  0  0  0  0  0
   25.4026  -24.8332  -18.0776 C   0  0  0  0  0  0  0  0  0  0  0  0
   27.2324  -23.3693  -17.1883 C   0  0  2  0  0  0  0  0  0  0  0  0
   28.2642  -24.3049  -17.5022 N   0  0  0  0  0  0  0  0  0  0  0  0
   27.5686  -22.4748  -16.0555 C   0  0  0  0  0  0  0  0  0  0  0  0
   28.5480  -22.7608  -15.2813 O   0  0  0  0  0  0  0  0  0  0  0  0
   26.8512  -21.2919  -15.7711 N   0  0  0  0  0  0  0  0  0  0  0  0
   25.7579  -20.7741  -16.5293 C   0  0  0  0  0  0  0  0  0  0  0  0
   25.5252  -19.3942  -15.9586 C   0  0  0  0  0  0  0  0  0  0  0  0
   26.8225  -19.0510  -15.2395 C   0  0  0  0  0  0  0  0  0  0  0  0
   27.1324  -20.4311  -14.6595 C   0  0  1  0  0  0  0  0  0  0  0  0
   26.2289  -20.6178  -13.5213 C   0  0  0  0  0  0  0  0  0  0  0  0
   25.0982  -21.1331  -13.6582 O   0  0  0  0  0  0  0  0  0  0  0  0
   26.3875  -19.2040   -7.4732 C   0  0  0  0  0  0  0  0  0  0  0  0
   25.7088  -20.0416   -8.5729 C   0  0  2  0  0  0  0  0  0  0  0  0
   25.5695  -21.4278   -8.0346 C   0  0  0  0  0  0  0  0  0  0  0  0
   26.4940  -19.9494   -9.8322 C   0  0  0  0  0  0  0  0  0  0  0  0
   25.8302  -20.5460  -11.0285 C   0  0  2  0  0  0  0  0  0  0  0  0
   26.6218  -20.2133  -12.2241 N   0  0  0  0  0  0  0  0  0  0  0  0
   24.4651  -19.9975  -11.1737 C   0  0  0  0  0  0  0  0  0  0  0  0
   23.3650  -20.7446  -10.7275 O   0  0  0  0  0  0  0  0  0  0  0  0
   24.2086  -18.8900  -11.6766 O   0  0  0  0  0  0  0  0  0  0  0  0
  2  1  1  1
  2  3  1  0
  4  2  1  0
  4  5  1  1
  6  8  1  0
  6  4  1  0
  7  6  2  0
  8 12  1  0
  9  8  1  0
  9 10  1  0
 10 11  1  0
 12 11  1  0
 13 20  1  0
 12 13  1  1
 14 13  2  0
 16 15  1  1
 16 17  1  0
 18 16  1  0
 19 20  1  0
 19 18  1  1
 21 22  1  0
 21 19  1  0
 23 21  2  0
M  END
$$$$
