VPL.pdb
     RDKit          3D

 23 23  0  0  1  0  0  0  0  0999 V2000
   25.5880  -19.3940  -10.6690 C   0  0  0  0  0  0  0  0  0  0  0  0
   26.4504  -19.8070  -11.8207 C   0  0  2  0  0  0  0  0  0  0  0  0
   25.9100  -19.2196  -13.1013 C   0  0  0  0  0  0  0  0  0  0  0  0
   26.6225  -21.3060  -11.9091 C   0  0  2  0  0  0  0  0  0  0  0  0
   25.3906  -21.9647  -12.2038 N   0  0  0  0  0  0  0  0  0  0  0  0
   27.2677  -21.7860  -10.6642 C   0  0  0  0  0  0  0  0  0  0  0  0
   26.5762  -22.4033   -9.7803 O   0  0  0  0  0  0  0  0  0  0  0  0
   28.6397  -21.5965  -10.3871 N   0  0  0  0  0  0  0  0  0  0  0  0
   29.5868  -20.9626  -11.2470 C   0  0  0  0  0  0  0  0  0  0  0  0
   30.9249  -21.2418  -10.6025 C   0  0  0  0  0  0  0  0  0  0  0  0
   30.6689  -22.4261   -9.6808 C   0  0  0  0  0  0  0  0  0  0  0  0
   29.2808  -22.0275   -9.1793 C   0  0  1  0  0  0  0  0  0  0  0  0
   29.4826  -20.9564   -8.2002 C   0  0  0  0  0  0  0  0  0  0  0  0
   29.6522  -19.7689   -8.5518 O   0  0  0  0  0  0  0  0  0  0  0  0
   26.6246  -19.4715   -3.3068 C   0  0  0  0  0  0  0  0  0  0  0  0
   27.9814  -19.2469   -3.9999 C   0  0  2  0  0  0  0  0  0  0  0  0
   28.0512  -17.7968   -4.3508 C   0  0  0  0  0  0  0  0  0  0  0  0
   28.1109  -20.1654   -5.1619 C   0  0  0  0  0  0  0  0  0  0  0  0
   29.4624  -20.1868   -5.7949 C   0  0  2  0  0  0  0  0  0  0  0  0
   29.4901  -21.2468   -6.8158 N   0  0  0  0  0  0  0  0  0  0  0  0
   30.4939  -20.4614   -4.7721 C   0  0  0  0  0  0  0  0  0  0  0  0
   30.7945  -21.7872   -4.4269 O   0  0  0  0  0  0  0  0  0  0  0  0
   31.1359  -19.5800   -4.1754 O   0  0  0  0  0  0  0  0  0  0  0  0
  2  1  1  1
  2  3  1  0
  4  2  1  0
  4  5  1  1
  6  8  1  0
  6  4  1  0
  7  6  2  0
  8 12  1  0
  9  8  1  0
  9 10  1  0
 10 11  1  0
 12 11  1  0
 13 20  1  0
 12 13  1  1
 14 13  2  0
 16 15  1  6
 16 17  1  0
 18 16  1  0
 19 20  1  0
 19 18  1  1
 21 22  1  0
 21 19  1  0
 23 21  2  0
M  END
$$$$
