VPL.pdb
     RDKit          3D

 23 23  0  0  1  0  0  0  0  0999 V2000
   25.1327  -19.4068  -10.4591 C   0  0  0  0  0  0  0  0  0  0  0  0
   25.9065  -19.7187  -11.7020 C   0  0  2  0  0  0  0  0  0  0  0  0
   25.2141  -19.1177  -12.9003 C   0  0  0  0  0  0  0  0  0  0  0  0
   26.1593  -21.1990  -11.8725 C   0  0  2  0  0  0  0  0  0  0  0  0
   24.9480  -21.9219  -12.0929 N   0  0  0  0  0  0  0  0  0  0  0  0
   26.9370  -21.6871  -10.7091 C   0  0  0  0  0  0  0  0  0  0  0  0
   26.3536  -22.3462   -9.7787 O   0  0  0  0  0  0  0  0  0  0  0  0
   28.3233  -21.4608  -10.5616 N   0  0  0  0  0  0  0  0  0  0  0  0
   29.1653  -20.7888  -11.4985 C   0  0  0  0  0  0  0  0  0  0  0  0
   30.5664  -21.0364  -10.9892 C   0  0  0  0  0  0  0  0  0  0  0  0
   30.4334  -22.2390  -10.0652 C   0  0  0  0  0  0  0  0  0  0  0  0
   29.0893  -21.8876   -9.4274 C   0  0  1  0  0  0  0  0  0  0  0  0
   29.3541  -20.8232   -8.4560 C   0  0  0  0  0  0  0  0  0  0  0  0
   29.2343  -19.6156   -8.7562 O   0  0  0  0  0  0  0  0  0  0  0  0
   26.3861  -19.7034   -3.9272 C   0  0  0  0  0  0  0  0  0  0  0  0
   27.8023  -19.3780   -4.4372 C   0  0  2  0  0  0  0  0  0  0  0  0
   27.8203  -17.9194   -4.7581 C   0  0  0  0  0  0  0  0  0  0  0  0
   28.1394  -20.2619   -5.5843 C   0  0  0  0  0  0  0  0  0  0  0  0
   29.5675  -20.2106   -6.0152 C   0  0  2  0  0  0  0  0  0  0  0  0
   29.7567  -21.1431   -7.1383 N   0  0  0  0  0  0  0  0  0  0  0  0
   30.4469  -20.6052   -4.8942 C   0  0  0  0  0  0  0  0  0  0  0  0
   31.0199  -19.6174   -4.0797 O   0  0  0  0  0  0  0  0  0  0  0  0
   30.7267  -21.7822   -4.6087 O   0  0  0  0  0  0  0  0  0  0  0  0
  2  1  1  1
  2  3  1  0
  4  2  1  0
  4  5  1  1
  6  8  1  0
  6  4  1  0
  7  6  2  0
  8 12  1  0
  9  8  1  0
  9 10  1  0
 10 11  1  0
 12 11  1  0
 13 20  1  0
 12 13  1  1
 14 13  2  0
 16 15  1  6
 16 17  1  0
 18 16  1  0
 19 20  1  0
 19 18  1  1
 21 22  1  0
 21 19  1  0
 23 21  2  0
M  END
$$$$
