VPL.pdb
     RDKit          3D

 23 23  0  0  1  0  0  0  0  0999 V2000
   21.7415  -19.8443  -14.2554 C   0  0  0  0  0  0  0  0  0  0  0  0
   22.6464  -20.2678  -13.1407 C   0  0  2  0  0  0  0  0  0  0  0  0
   23.2364  -19.0516  -12.4702 C   0  0  0  0  0  0  0  0  0  0  0  0
   23.7100  -21.2411  -13.5942 C   0  0  2  0  0  0  0  0  0  0  0  0
   23.1495  -22.3477  -14.3012 N   0  0  0  0  0  0  0  0  0  0  0  0
   24.5239  -21.6387  -12.4212 C   0  0  0  0  0  0  0  0  0  0  0  0
   24.0914  -22.5346  -11.6144 O   0  0  0  0  0  0  0  0  0  0  0  0
   25.7844  -21.0708  -12.1321 N   0  0  0  0  0  0  0  0  0  0  0  0
   26.4180  -20.0232  -12.8666 C   0  0  0  0  0  0  0  0  0  0  0  0
   27.8207  -19.9676  -12.3071 C   0  0  0  0  0  0  0  0  0  0  0  0
   28.0183  -21.3157  -11.6280 C   0  0  0  0  0  0  0  0  0  0  0  0
   26.6171  -21.4810  -11.0395 C   0  0  1  0  0  0  0  0  0  0  0  0
   26.5467  -20.5949   -9.8748 C   0  0  0  0  0  0  0  0  0  0  0  0
   26.1153  -19.4251   -9.9650 O   0  0  0  0  0  0  0  0  0  0  0  0
   29.0352  -20.5099   -4.2793 C   0  0  0  0  0  0  0  0  0  0  0  0
   27.7962  -20.0454   -5.0671 C   0  0  2  0  0  0  0  0  0  0  0  0
   26.6353  -20.1252   -4.1309 C   0  0  0  0  0  0  0  0  0  0  0  0
   27.6472  -20.8646   -6.2990 C   0  0  0  0  0  0  0  0  0  0  0  0
   26.8961  -20.2006   -7.4049 C   0  0  2  0  0  0  0  0  0  0  0  0
   26.9712  -21.0501   -8.6047 N   0  0  0  0  0  0  0  0  0  0  0  0
   27.4932  -18.8804   -7.6982 C   0  0  0  0  0  0  0  0  0  0  0  0
   26.9073  -17.7202   -7.1709 O   0  0  0  0  0  0  0  0  0  0  0  0
   28.5066  -18.7138   -8.3984 O   0  0  0  0  0  0  0  0  0  0  0  0
  2  1  1  6
  2  3  1  0
  4  2  1  0
  4  5  1  1
  6  8  1  0
  6  4  1  0
  7  6  2  0
  8 12  1  0
  9  8  1  0
  9 10  1  0
 10 11  1  0
 12 11  1  0
 13 20  1  0
 12 13  1  1
 14 13  2  0
 16 15  1  1
 16 17  1  0
 18 16  1  0
 19 20  1  0
 19 18  1  1
 21 22  1  0
 21 19  1  0
 23 21  2  0
M  END
$$$$
