VPL.pdb
     RDKit          3D

 23 23  0  0  1  0  0  0  0  0999 V2000
   16.5004  -11.5689  -17.7733 C   0  0  0  0  0  0  0  0  0  0  0  0
   17.4734  -10.9781  -16.8011 C   0  0  2  0  0  0  0  0  0  0  0  0
   17.5835   -9.4904  -17.0272 C   0  0  0  0  0  0  0  0  0  0  0  0
   18.8207  -11.6620  -16.8399 C   0  0  2  0  0  0  0  0  0  0  0  0
   18.7127  -13.0615  -16.5784 N   0  0  0  0  0  0  0  0  0  0  0  0
   19.7404  -10.9563  -15.9166 C   0  0  0  0  0  0  0  0  0  0  0  0
   19.7542  -11.2563  -14.6715 O   0  0  0  0  0  0  0  0  0  0  0  0
   20.6275   -9.9426  -16.3413 N   0  0  0  0  0  0  0  0  0  0  0  0
   20.7949   -9.4863  -17.6838 C   0  0  0  0  0  0  0  0  0  0  0  0
   22.0138   -8.5946  -17.6281 C   0  0  0  0  0  0  0  0  0  0  0  0
   22.7285   -8.9988  -16.3460 C   0  0  0  0  0  0  0  0  0  0  0  0
   21.5010   -9.2214  -15.4624 C   0  0  1  0  0  0  0  0  0  0  0  0
   21.0061   -7.8927  -15.0934 C   0  0  0  0  0  0  0  0  0  0  0  0
   20.2463   -7.2432  -15.8442 O   0  0  0  0  0  0  0  0  0  0  0  0
   19.5181   -5.5118   -9.7376 C   0  0  0  0  0  0  0  0  0  0  0  0
   19.6099   -5.2407  -11.2508 C   0  0  2  0  0  0  0  0  0  0  0  0
   18.2177   -4.9872  -11.7284 C   0  0  0  0  0  0  0  0  0  0  0  0
   20.2916   -6.3771  -11.9251 C   0  0  0  0  0  0  0  0  0  0  0  0
   20.7151   -6.1077  -13.3307 C   0  0  2  0  0  0  0  0  0  0  0  0
   21.3825   -7.3073  -13.8620 N   0  0  0  0  0  0  0  0  0  0  0  0
   21.6541   -4.9663  -13.3644 C   0  0  0  0  0  0  0  0  0  0  0  0
   21.1712   -3.6771  -13.6333 O   0  0  0  0  0  0  0  0  0  0  0  0
   22.8774   -5.0639  -13.1666 O   0  0  0  0  0  0  0  0  0  0  0  0
  2  1  1  6
  2  3  1  0
  4  2  1  0
  4  5  1  1
  6  8  1  0
  6  4  1  0
  7  6  2  0
  8 12  1  0
  9  8  1  0
  9 10  1  0
 10 11  1  0
 12 11  1  0
 13 20  1  0
 12 13  1  6
 14 13  2  0
 16 15  1  1
 16 17  1  0
 18 16  1  0
 19 20  1  0
 19 18  1  1
 21 22  1  0
 21 19  1  0
 23 21  2  0
M  END
$$$$
