VPL.pdb
     RDKit          3D

 23 23  0  0  1  0  0  0  0  0999 V2000
   14.5585  -12.6008  -16.3586 C   0  0  0  0  0  0  0  0  0  0  0  0
   15.8890  -11.9154  -16.3885 C   0  0  2  0  0  0  0  0  0  0  0  0
   15.7293  -10.4698  -15.9867 C   0  0  0  0  0  0  0  0  0  0  0  0
   16.5885  -12.0632  -17.7201 C   0  0  2  0  0  0  0  0  0  0  0  0
   16.7913  -13.4341  -18.0635 N   0  0  0  0  0  0  0  0  0  0  0  0
   17.8390  -11.2683  -17.6926 C   0  0  0  0  0  0  0  0  0  0  0  0
   18.9489  -11.8293  -17.3861 O   0  0  0  0  0  0  0  0  0  0  0  0
   17.8797   -9.8887  -17.9924 N   0  0  0  0  0  0  0  0  0  0  0  0
   16.7597   -9.0757  -18.3433 C   0  0  0  0  0  0  0  0  0  0  0  0
   17.3710   -7.7712  -18.7999 C   0  0  0  0  0  0  0  0  0  0  0  0
   18.8170   -8.1171  -19.1272 C   0  0  0  0  0  0  0  0  0  0  0  0
   19.0783   -9.1020  -17.9876 C   0  0  1  0  0  0  0  0  0  0  0  0
   19.2560   -8.2993  -16.7749 C   0  0  0  0  0  0  0  0  0  0  0  0
   18.2936   -8.0127  -16.0303 O   0  0  0  0  0  0  0  0  0  0  0  0
   21.1225   -9.4275  -12.9043 C   0  0  0  0  0  0  0  0  0  0  0  0
   22.0109   -9.3266  -14.1581 C   0  0  2  0  0  0  0  0  0  0  0  0
   23.3192   -9.9582  -13.8112 C   0  0  0  0  0  0  0  0  0  0  0  0
   22.1112   -7.9076  -14.5908 C   0  0  0  0  0  0  0  0  0  0  0  0
   20.8309   -7.3071  -15.0680 C   0  0  2  0  0  0  0  0  0  0  0  0
   20.5387   -7.8241  -16.4149 N   0  0  0  0  0  0  0  0  0  0  0  0
   20.9538   -5.8348  -15.1218 C   0  0  0  0  0  0  0  0  0  0  0  0
   21.0642   -5.1917  -16.3635 O   0  0  0  0  0  0  0  0  0  0  0  0
   20.9672   -5.0993  -14.1198 O   0  0  0  0  0  0  0  0  0  0  0  0
  2  1  1  6
  2  3  1  0
  4  2  1  0
  4  5  1  1
  6  8  1  0
  6  4  1  0
  7  6  2  0
  8 12  1  0
  9  8  1  0
  9 10  1  0
 10 11  1  0
 12 11  1  0
 13 20  1  0
 12 13  1  1
 14 13  2  0
 16 15  1  1
 16 17  1  0
 18 16  1  0
 19 20  1  0
 19 18  1  6
 21 22  1  0
 21 19  1  0
 23 21  2  0
M  END
$$$$
