VPL.pdb
     RDKit          3D

 23 23  0  0  1  0  0  0  0  0999 V2000
   18.2885  -20.7005    3.3909 C   0  0  0  0  0  0  0  0  0  0  0  0
   17.4108  -20.5695    2.1853 C   0  0  2  0  0  0  0  0  0  0  0  0
   17.8096  -19.3495    1.3920 C   0  0  0  0  0  0  0  0  0  0  0  0
   15.9404  -20.5666    2.5350 C   0  0  2  0  0  0  0  0  0  0  0  0
   15.1192  -20.7025    1.3751 N   0  0  0  0  0  0  0  0  0  0  0  0
   15.6424  -19.3538    3.3329 C   0  0  0  0  0  0  0  0  0  0  0  0
   15.0724  -18.3477    2.7820 O   0  0  0  0  0  0  0  0  0  0  0  0
   15.9600  -19.2386    4.7043 N   0  0  0  0  0  0  0  0  0  0  0  0
   16.5478  -20.2563    5.5149 C   0  0  0  0  0  0  0  0  0  0  0  0
   16.4443  -19.7204    6.9242 C   0  0  0  0  0  0  0  0  0  0  0  0
   15.3677  -18.6466    6.8498 C   0  0  0  0  0  0  0  0  0  0  0  0
   15.7270  -18.0590    5.4851 C   0  0  1  0  0  0  0  0  0  0  0  0
   16.9221  -17.2357    5.6869 C   0  0  0  0  0  0  0  0  0  0  0  0
   18.0726  -17.6991    5.5310 O   0  0  0  0  0  0  0  0  0  0  0  0
   18.4558  -11.6233    4.3577 C   0  0  0  0  0  0  0  0  0  0  0  0
   18.8201  -12.7911    5.2933 C   0  0  2  0  0  0  0  0  0  0  0  0
   20.1710  -13.2724    4.8758 C   0  0  0  0  0  0  0  0  0  0  0  0
   17.7566  -13.8288    5.2402 C   0  0  0  0  0  0  0  0  0  0  0  0
   17.9636  -14.9845    6.1618 C   0  0  2  0  0  0  0  0  0  0  0  0
   16.7985  -15.8792    6.0681 N   0  0  0  0  0  0  0  0  0  0  0  0
   18.1031  -14.5019    7.5522 C   0  0  0  0  0  0  0  0  0  0  0  0
   16.9720  -14.4259    8.3781 O   0  0  0  0  0  0  0  0  0  0  0  0
   19.1797  -14.1470    8.0622 O   0  0  0  0  0  0  0  0  0  0  0  0
  2  1  1  1
  2  3  1  0
  4  2  1  0
  4  5  1  6
  6  8  1  0
  6  4  1  0
  7  6  2  0
  8 12  1  0
  9  8  1  0
  9 10  1  0
 10 11  1  0
 12 11  1  0
 13 20  1  0
 12 13  1  1
 14 13  2  0
 16 15  1  6
 16 17  1  0
 18 16  1  0
 19 20  1  0
 19 18  1  6
 21 22  1  0
 21 19  1  0
 23 21  2  0
M  END
$$$$
