VPL.pdb
     RDKit          3D

 23 23  0  0  1  0  0  0  0  0999 V2000
   24.6216  -16.9608  -15.2944 C   0  0  0  0  0  0  0  0  0  0  0  0
   25.9919  -17.2364  -15.8305 C   0  0  2  0  0  0  0  0  0  0  0  0
   26.3573  -16.1960  -16.8605 C   0  0  0  0  0  0  0  0  0  0  0  0
   26.1341  -18.6428  -16.3654 C   0  0  2  0  0  0  0  0  0  0  0  0
   25.2979  -18.8654  -17.5010 N   0  0  0  0  0  0  0  0  0  0  0  0
   25.8974  -19.6000  -15.2589 C   0  0  0  0  0  0  0  0  0  0  0  0
   24.7872  -20.2345  -15.1864 O   0  0  0  0  0  0  0  0  0  0  0  0
   26.8513  -19.8603  -14.2504 N   0  0  0  0  0  0  0  0  0  0  0  0
   28.1038  -19.1936  -14.0918 C   0  0  0  0  0  0  0  0  0  0  0  0
   28.8304  -20.0038  -13.0433 C   0  0  0  0  0  0  0  0  0  0  0  0
   28.1207  -21.3507  -13.0371 C   0  0  0  0  0  0  0  0  0  0  0  0
   26.6880  -20.8531  -13.2291 C   0  0  1  0  0  0  0  0  0  0  0  0
   26.2582  -20.3106  -11.9378 C   0  0  0  0  0  0  0  0  0  0  0  0
   26.4906  -19.1260  -11.6132 O   0  0  0  0  0  0  0  0  0  0  0  0
   21.8121  -21.9849   -8.0252 C   0  0  0  0  0  0  0  0  0  0  0  0
   22.9058  -20.9484   -8.3431 C   0  0  2  0  0  0  0  0  0  0  0  0
   22.2215  -19.6279   -8.4801 C   0  0  0  0  0  0  0  0  0  0  0  0
   23.6658  -21.3725   -9.5487 C   0  0  0  0  0  0  0  0  0  0  0  0
   24.8929  -20.5705   -9.8290 C   0  0  2  0  0  0  0  0  0  0  0  0
   25.5608  -21.1270  -11.0169 N   0  0  0  0  0  0  0  0  0  0  0  0
   25.8118  -20.6339   -8.6727 C   0  0  0  0  0  0  0  0  0  0  0  0
   26.9121  -21.5032   -8.7063 O   0  0  0  0  0  0  0  0  0  0  0  0
   25.6805  -19.9547   -7.6399 O   0  0  0  0  0  0  0  0  0  0  0  0
  2  1  1  6
  2  3  1  0
  4  2  1  0
  4  5  1  6
  6  8  1  0
  6  4  1  0
  7  6  2  0
  8 12  1  0
  9  8  1  0
  9 10  1  0
 10 11  1  0
 12 11  1  0
 13 20  1  0
 12 13  1  1
 14 13  2  0
 16 15  1  6
 16 17  1  0
 18 16  1  0
 19 20  1  0
 19 18  1  1
 21 22  1  0
 21 19  1  0
 23 21  2  0
M  END
$$$$
