VPL.pdb
     RDKit          3D

 23 23  0  0  1  0  0  0  0  0999 V2000
   25.4586  -15.9886  -16.1635 C   0  0  0  0  0  0  0  0  0  0  0  0
   25.5287  -17.3072  -15.4582 C   0  0  2  0  0  0  0  0  0  0  0  0
   26.1242  -17.1218  -14.0843 C   0  0  0  0  0  0  0  0  0  0  0  0
   26.2627  -18.3567  -16.2609 C   0  0  2  0  0  0  0  0  0  0  0  0
   25.7572  -18.4554  -17.5925 N   0  0  0  0  0  0  0  0  0  0  0  0
   26.2261  -19.6379  -15.5170 C   0  0  0  0  0  0  0  0  0  0  0  0
   25.3004  -20.4909  -15.7540 O   0  0  0  0  0  0  0  0  0  0  0  0
   27.1789  -19.9831  -14.5333 N   0  0  0  0  0  0  0  0  0  0  0  0
   28.1696  -19.1125  -13.9866 C   0  0  0  0  0  0  0  0  0  0  0  0
   29.0682  -20.0237  -13.1828 C   0  0  0  0  0  0  0  0  0  0  0  0
   28.7922  -21.4173  -13.7301 C   0  0  0  0  0  0  0  0  0  0  0  0
   27.2839  -21.2841  -13.9401 C   0  0  1  0  0  0  0  0  0  0  0  0
   26.6678  -21.3830  -12.6144 C   0  0  0  0  0  0  0  0  0  0  0  0
   27.3563  -21.4250  -11.5719 O   0  0  0  0  0  0  0  0  0  0  0  0
   24.8682  -21.2892   -8.3583 C   0  0  0  0  0  0  0  0  0  0  0  0
   26.0036  -20.6803   -9.2019 C   0  0  2  0  0  0  0  0  0  0  0  0
   26.6892  -19.6727   -8.3386 C   0  0  0  0  0  0  0  0  0  0  0  0
   25.4502  -20.1283  -10.4667 C   0  0  0  0  0  0  0  0  0  0  0  0
   24.5784  -21.0682  -11.2311 C   0  0  2  0  0  0  0  0  0  0  0  0
   25.2603  -21.4338  -12.4833 N   0  0  0  0  0  0  0  0  0  0  0  0
   23.2886  -20.4174  -11.5448 C   0  0  0  0  0  0  0  0  0  0  0  0
   22.1616  -20.6927  -10.7564 O   0  0  0  0  0  0  0  0  0  0  0  0
   23.1203  -19.6197  -12.4831 O   0  0  0  0  0  0  0  0  0  0  0  0
  2  1  1  6
  2  3  1  0
  4  2  1  0
  4  5  1  6
  6  8  1  0
  6  4  1  0
  7  6  2  0
  8 12  1  0
  9  8  1  0
  9 10  1  0
 10 11  1  0
 12 11  1  0
 13 20  1  0
 12 13  1  1
 14 13  2  0
 16 15  1  1
 16 17  1  0
 18 16  1  0
 19 20  1  0
 19 18  1  6
 21 22  1  0
 21 19  1  0
 23 21  2  0
M  END
$$$$
