VPL.pdb
     RDKit          3D

 23 23  0  0  1  0  0  0  0  0999 V2000
   28.7914  -25.5190   10.2980 C   0  0  0  0  0  0  0  0  0  0  0  0
   28.4258  -24.7450   11.5260 C   0  0  2  0  0  0  0  0  0  0  0  0
   27.7177  -25.6465   12.5073 C   0  0  0  0  0  0  0  0  0  0  0  0
   27.6242  -23.5027   11.2122 C   0  0  2  0  0  0  0  0  0  0  0  0
   26.3654  -23.8198   10.6180 N   0  0  0  0  0  0  0  0  0  0  0  0
   28.4560  -22.5941   10.3881 C   0  0  0  0  0  0  0  0  0  0  0  0
   28.1320  -22.3541    9.1724 O   0  0  0  0  0  0  0  0  0  0  0  0
   29.6188  -21.9600   10.8785 N   0  0  0  0  0  0  0  0  0  0  0  0
   30.1026  -22.0221   12.2204 C   0  0  0  0  0  0  0  0  0  0  0  0
   31.2060  -20.9907   12.2699 C   0  0  0  0  0  0  0  0  0  0  0  0
   30.9384  -20.0828   11.0775 C   0  0  0  0  0  0  0  0  0  0  0  0
   30.4878  -21.1480   10.0778 C   0  0  1  0  0  0  0  0  0  0  0  0
   31.6995  -21.8391    9.6299 C   0  0  0  0  0  0  0  0  0  0  0  0
   32.0847  -22.9017   10.1640 O   0  0  0  0  0  0  0  0  0  0  0  0
   33.0204  -23.2561    4.9288 C   0  0  0  0  0  0  0  0  0  0  0  0
   32.7026  -21.9219    5.6292 C   0  0  2  0  0  0  0  0  0  0  0  0
   32.4778  -20.9124    4.5517 C   0  0  0  0  0  0  0  0  0  0  0  0
   33.7976  -21.5762    6.5738 C   0  0  0  0  0  0  0  0  0  0  0  0
   33.5924  -22.0561    7.9722 C   0  0  2  0  0  0  0  0  0  0  0  0
   32.4711  -21.3117    8.5683 N   0  0  0  0  0  0  0  0  0  0  0  0
   34.8158  -21.8250    8.7692 C   0  0  0  0  0  0  0  0  0  0  0  0
   35.8971  -22.7111    8.6550 O   0  0  0  0  0  0  0  0  0  0  0  0
   34.9651  -20.8759    9.5579 O   0  0  0  0  0  0  0  0  0  0  0  0
  2  1  1  6
  2  3  1  0
  4  2  1  0
  4  5  1  6
  6  8  1  0
  6  4  1  0
  7  6  2  0
  8 12  1  0
  9  8  1  0
  9 10  1  0
 10 11  1  0
 12 11  1  0
 13 20  1  0
 12 13  1  1
 14 13  2  0
 16 15  1  6
 16 17  1  0
 18 16  1  0
 19 20  1  0
 19 18  1  6
 21 22  1  0
 21 19  1  0
 23 21  2  0
M  END
$$$$
