VPL.pdb
     RDKit          3D

 23 23  0  0  1  0  0  0  0  0999 V2000
   26.2584  -18.5001  -15.6445 C   0  0  0  0  0  0  0  0  0  0  0  0
   27.1978  -18.6711  -14.4916 C   0  0  2  0  0  0  0  0  0  0  0  0
   28.4330  -17.8323  -14.7090 C   0  0  0  0  0  0  0  0  0  0  0  0
   27.5326  -20.1208  -14.2255 C   0  0  2  0  0  0  0  0  0  0  0  0
   28.2730  -20.6999  -15.3002 N   0  0  0  0  0  0  0  0  0  0  0  0
   26.2813  -20.8488  -13.9085 C   0  0  0  0  0  0  0  0  0  0  0  0
   25.8126  -21.7084  -14.7342 O   0  0  0  0  0  0  0  0  0  0  0  0
   25.5539  -20.6437  -12.7153 N   0  0  0  0  0  0  0  0  0  0  0  0
   25.8603  -19.6840  -11.7035 C   0  0  0  0  0  0  0  0  0  0  0  0
   24.9451  -20.0432  -10.5558 C   0  0  0  0  0  0  0  0  0  0  0  0
   24.5289  -21.4816  -10.8306 C   0  0  0  0  0  0  0  0  0  0  0  0
   24.3856  -21.3901  -12.3499 C   0  0  1  0  0  0  0  0  0  0  0  0
   23.1270  -20.6861  -12.6086 C   0  0  0  0  0  0  0  0  0  0  0  0
   22.9607  -19.4936  -12.2726 O   0  0  0  0  0  0  0  0  0  0  0  0
   20.1313  -21.3283  -17.4453 C   0  0  0  0  0  0  0  0  0  0  0  0
   20.5393  -20.4873  -16.2215 C   0  0  2  0  0  0  0  0  0  0  0  0
   21.9331  -20.0119  -16.4706 C   0  0  0  0  0  0  0  0  0  0  0  0
   20.3789  -21.2923  -14.9817 C   0  0  0  0  0  0  0  0  0  0  0  0
   20.8686  -20.6292  -13.7374 C   0  0  2  0  0  0  0  0  0  0  0  0
   22.0573  -21.3499  -13.2535 N   0  0  0  0  0  0  0  0  0  0  0  0
   19.8159  -20.6635  -12.7001 C   0  0  0  0  0  0  0  0  0  0  0  0
   18.8225  -19.6734  -12.6852 O   0  0  0  0  0  0  0  0  0  0  0  0
   19.7406  -21.5297  -11.8117 O   0  0  0  0  0  0  0  0  0  0  0  0
  2  1  1  6
  2  3  1  0
  4  2  1  0
  4  5  1  6
  6  8  1  0
  6  4  1  0
  7  6  2  0
  8 12  1  0
  9  8  1  0
  9 10  1  0
 10 11  1  0
 12 11  1  0
 13 20  1  0
 12 13  1  1
 14 13  2  0
 16 15  1  6
 16 17  1  0
 18 16  1  0
 19 20  1  0
 19 18  1  6
 21 22  1  0
 21 19  1  0
 23 21  2  0
M  END
$$$$
