TDP.pdb
     RDKit          3D

 23 23  0  0  1  0  0  0  0  0999 V2000
    6.3488  -18.5618   23.4605 C   0  0  0  0  0  0  0  0  0  0  0  0
    6.4663  -18.3065   24.9572 C   0  0  1  0  0  0  0  0  0  0  0  0
    5.9702  -19.3355   25.7189 O   0  0  0  0  0  0  0  0  0  0  0  0
    7.9280  -18.0867   25.3437 C   0  0  2  0  0  0  0  0  0  0  0  0
    7.9468  -17.6685   26.7680 N   0  0  0  0  0  0  0  0  0  0  0  0
    8.5772  -17.0003   24.6081 C   0  0  0  0  0  0  0  0  0  0  0  0
    8.3567  -15.7990   24.8901 O   0  0  0  0  0  0  0  0  0  0  0  0
    9.4940  -17.2530   23.5414 N   0  0  0  0  0  0  0  0  0  0  0  0
    9.9939  -16.1303   22.7391 C   0  0  1  0  0  0  0  0  0  0  0  0
   11.4143  -16.4873   22.3483 C   0  0  0  0  0  0  0  0  0  0  0  0
   12.1346  -15.5410   21.5245 C   0  0  0  0  0  0  0  0  0  0  0  0
   11.9154  -15.2552   20.3280 O   0  0  0  0  0  0  0  0  0  0  0  0
    9.1283  -15.8130   21.6339 C   0  0  0  0  0  0  0  0  0  0  0  0
    8.3979  -16.8134   21.2228 O   0  0  0  0  0  0  0  0  0  0  0  0
   13.2284  -14.8227   22.0850 O   0  0  0  0  0  0  0  0  0  0  0  0
    8.9078  -14.6287   20.9022 N   0  0  0  0  0  0  0  0  0  0  0  0
    9.4780  -13.3200   20.9311 C   0  0  0  0  0  0  0  0  0  0  0  0
    8.5224  -12.4208   20.1310 C   0  0  0  0  0  0  0  0  0  0  0  0
    7.2383  -13.2693   20.0588 C   0  0  0  0  0  0  0  0  0  0  0  0
    7.9014  -14.6108   19.8080 C   0  0  1  0  0  0  0  0  0  0  0  0
    8.5919  -14.6370   18.4955 C   0  0  0  0  0  0  0  0  0  0  0  0
    7.9595  -14.6733   17.2739 O   0  0  0  0  0  0  0  0  0  0  0  0
    9.8476  -14.6250   18.5002 O   0  0  0  0  0  0  0  0  0  0  0  0
  2  4  1  0
  2  1  1  6
  3  2  1  0
  4  6  1  0
  4  5  1  1
  6  8  1  0
  6  7  2  0
  8  9  1  0
  9 10  1  6
  9 13  1  0
 11 10  1  0
 12 11  2  0
 13 16  1  0
 14 13  2  0
 15 11  1  0
 16 17  1  0
 16 20  1  0
 17 18  1  0
 18 19  1  0
 20 19  1  0
 20 21  1  6
 21 22  1  0
 23 21  2  0
M  END
$$$$
