TDP.pdb
     RDKit          3D

 23 23  0  0  1  0  0  0  0  0999 V2000
    8.3905  -12.4349   20.6184 C   0  0  0  0  0  0  0  0  0  0  0  0
    7.8398  -13.3563   19.5382 C   0  0  1  0  0  0  0  0  0  0  0  0
    8.4309  -13.1634   18.3141 O   0  0  0  0  0  0  0  0  0  0  0  0
    8.0353  -14.8177   19.9388 C   0  0  2  0  0  0  0  0  0  0  0  0
    7.2960  -15.6453   18.9525 N   0  0  0  0  0  0  0  0  0  0  0  0
    7.4607  -15.1555   21.2422 C   0  0  0  0  0  0  0  0  0  0  0  0
    6.2218  -15.1412   21.4321 O   0  0  0  0  0  0  0  0  0  0  0  0
    8.2782  -15.5217   22.3556 N   0  0  0  0  0  0  0  0  0  0  0  0
    7.6574  -15.7244   23.6700 C   0  0  1  0  0  0  0  0  0  0  0  0
    7.6947  -17.2171   23.9312 C   0  0  0  0  0  0  0  0  0  0  0  0
    7.2783  -17.6733   25.2395 C   0  0  0  0  0  0  0  0  0  0  0  0
    6.3230  -17.2477   25.9233 O   0  0  0  0  0  0  0  0  0  0  0  0
    8.2642  -14.9193   24.6971 C   0  0  0  0  0  0  0  0  0  0  0  0
    9.5648  -14.8447   24.6192 O   0  0  0  0  0  0  0  0  0  0  0  0
    8.0005  -18.7247   25.8715 O   0  0  0  0  0  0  0  0  0  0  0  0
    7.7312  -14.1875   25.7774 N   0  0  0  0  0  0  0  0  0  0  0  0
    6.4166  -14.0043   26.3034 C   0  0  0  0  0  0  0  0  0  0  0  0
    6.5000  -12.7951   27.2484 C   0  0  0  0  0  0  0  0  0  0  0  0
    7.8315  -12.1362   26.8397 C   0  0  0  0  0  0  0  0  0  0  0  0
    8.6369  -13.4100   26.6638 C   0  0  1  0  0  0  0  0  0  0  0  0
    8.8080  -14.1252   27.9520 C   0  0  0  0  0  0  0  0  0  0  0  0
    8.2329  -15.3360   28.2627 O   0  0  0  0  0  0  0  0  0  0  0  0
    9.5323  -13.5846   28.8239 O   0  0  0  0  0  0  0  0  0  0  0  0
  2  4  1  0
  2  1  1  1
  3  2  1  0
  4  6  1  0
  4  5  1  6
  6  8  1  0
  6  7  2  0
  8  9  1  0
  9 10  1  1
  9 13  1  0
 11 10  1  0
 12 11  2  0
 13 16  1  0
 14 13  2  0
 15 11  1  0
 16 17  1  0
 16 20  1  0
 17 18  1  0
 18 19  1  0
 20 19  1  0
 20 21  1  1
 21 22  1  0
 23 21  2  0
M  END
$$$$
