TDP.pdb
     RDKit          3D

 23 23  0  0  1  0  0  0  0  0999 V2000
   -9.0916  -26.4563   34.4849 C   0  0  0  0  0  0  0  0  0  0  0  0
   -9.1113  -27.9459   34.1690 C   0  0  1  0  0  0  0  0  0  0  0  0
   -9.5754  -28.7105   35.2108 O   0  0  0  0  0  0  0  0  0  0  0  0
   -9.9895  -28.2168   32.9485 C   0  0  2  0  0  0  0  0  0  0  0  0
   -9.8136  -29.6468   32.5904 N   0  0  0  0  0  0  0  0  0  0  0  0
   -9.5947  -27.4634   31.7570 C   0  0  0  0  0  0  0  0  0  0  0  0
   -8.5490  -27.7436   31.1253 O   0  0  0  0  0  0  0  0  0  0  0  0
  -10.3799  -26.3806   31.2539 N   0  0  0  0  0  0  0  0  0  0  0  0
   -9.8686  -25.5774   30.1369 C   0  0  1  0  0  0  0  0  0  0  0  0
  -11.0833  -25.1065   29.3620 C   0  0  0  0  0  0  0  0  0  0  0  0
  -11.8361  -26.1054   28.6350 C   0  0  0  0  0  0  0  0  0  0  0  0
  -11.3993  -27.1517   28.1098 O   0  0  0  0  0  0  0  0  0  0  0  0
   -8.9879  -24.5253   30.5712 C   0  0  0  0  0  0  0  0  0  0  0  0
   -9.1191  -24.2037   31.8292 O   0  0  0  0  0  0  0  0  0  0  0  0
  -13.2387  -25.9319   28.4654 O   0  0  0  0  0  0  0  0  0  0  0  0
   -8.0028  -23.7681   29.9058 N   0  0  0  0  0  0  0  0  0  0  0  0
   -7.5412  -23.7016   28.5563 C   0  0  0  0  0  0  0  0  0  0  0  0
   -6.2041  -22.9450   28.5997 C   0  0  0  0  0  0  0  0  0  0  0  0
   -5.8275  -23.0068   30.0925 C   0  0  0  0  0  0  0  0  0  0  0  0
   -7.2135  -22.7565   30.6568 C   0  0  1  0  0  0  0  0  0  0  0  0
   -7.6982  -21.3957   30.3198 C   0  0  0  0  0  0  0  0  0  0  0  0
   -7.3386  -20.2452   30.9835 O   0  0  0  0  0  0  0  0  0  0  0  0
   -8.4963  -21.2862   29.3565 O   0  0  0  0  0  0  0  0  0  0  0  0
  2  4  1  0
  2  1  1  1
  3  2  1  0
  4  6  1  0
  4  5  1  6
  6  8  1  0
  6  7  2  0
  8  9  1  0
  9 10  1  1
  9 13  1  0
 11 10  1  0
 12 11  2  0
 13 16  1  0
 14 13  2  0
 15 11  1  0
 16 17  1  0
 16 20  1  0
 17 18  1  0
 18 19  1  0
 20 19  1  0
 20 21  1  6
 21 22  1  0
 23 21  2  0
M  END
$$$$
