TDP.pdb
     RDKit          3D

 23 23  0  0  1  0  0  0  0  0999 V2000
    8.8799  -12.4477   20.3442 C   0  0  0  0  0  0  0  0  0  0  0  0
    8.1618  -13.3312   19.3329 C   0  0  1  0  0  0  0  0  0  0  0  0
    8.7235  -13.2817   18.0810 O   0  0  0  0  0  0  0  0  0  0  0  0
    8.1668  -14.7852   19.8023 C   0  0  2  0  0  0  0  0  0  0  0  0
    7.3345  -15.5575   18.8458 N   0  0  0  0  0  0  0  0  0  0  0  0
    7.5455  -14.9857   21.1125 C   0  0  0  0  0  0  0  0  0  0  0  0
    6.3104  -14.8484   21.2763 O   0  0  0  0  0  0  0  0  0  0  0  0
    8.3105  -15.3513   22.2628 N   0  0  0  0  0  0  0  0  0  0  0  0
    7.6233  -15.6064   23.5344 C   0  0  1  0  0  0  0  0  0  0  0  0
    7.6559  -17.1077   23.7406 C   0  0  0  0  0  0  0  0  0  0  0  0
    7.1820  -17.6146   25.0100 C   0  0  0  0  0  0  0  0  0  0  0  0
    7.8266  -17.7149   26.0758 O   0  0  0  0  0  0  0  0  0  0  0  0
    8.1708  -14.8384   24.6215 C   0  0  0  0  0  0  0  0  0  0  0  0
    9.4732  -14.7551   24.6142 O   0  0  0  0  0  0  0  0  0  0  0  0
    5.8363  -18.0657   25.1199 O   0  0  0  0  0  0  0  0  0  0  0  0
    7.5779  -14.1510   25.6997 N   0  0  0  0  0  0  0  0  0  0  0  0
    6.2321  -13.9472   26.1309 C   0  0  0  0  0  0  0  0  0  0  0  0
    6.2807  -12.8000   27.1525 C   0  0  0  0  0  0  0  0  0  0  0  0
    7.6630  -12.1715   26.8915 C   0  0  0  0  0  0  0  0  0  0  0  0
    8.4352  -13.4636   26.7011 C   0  0  1  0  0  0  0  0  0  0  0  0
    8.4765  -14.2596   27.9520 C   0  0  0  0  0  0  0  0  0  0  0  0
    7.8763  -15.4856   28.1251 O   0  0  0  0  0  0  0  0  0  0  0  0
    9.1068  -13.7779   28.9256 O   0  0  0  0  0  0  0  0  0  0  0  0
  2  4  1  0
  2  1  1  1
  3  2  1  0
  4  6  1  0
  4  5  1  6
  6  8  1  0
  6  7  2  0
  8  9  1  0
  9 10  1  1
  9 13  1  0
 11 10  1  0
 12 11  2  0
 13 16  1  0
 14 13  2  0
 15 11  1  0
 16 17  1  0
 16 20  1  0
 17 18  1  0
 18 19  1  0
 20 19  1  0
 20 21  1  1
 21 22  1  0
 23 21  2  0
M  END
$$$$
