TDP.pdb
     RDKit          3D

 23 23  0  0  1  0  0  0  0  0999 V2000
   10.3586  -13.9982   18.2381 C   0  0  0  0  0  0  0  0  0  0  0  0
    9.9566  -14.0719   19.7051 C   0  0  1  0  0  0  0  0  0  0  0  0
   10.4663  -13.0409   20.4549 O   0  0  0  0  0  0  0  0  0  0  0  0
    8.4347  -14.0537   19.8386 C   0  0  2  0  0  0  0  0  0  0  0  0
    7.9768  -12.6959   19.4502 N   0  0  0  0  0  0  0  0  0  0  0  0
    7.9589  -14.2502   21.2090 C   0  0  0  0  0  0  0  0  0  0  0  0
    7.5380  -13.2907   21.8970 O   0  0  0  0  0  0  0  0  0  0  0  0
    7.9454  -15.5391   21.8260 N   0  0  0  0  0  0  0  0  0  0  0  0
    7.2997  -15.7058   23.1334 C   0  0  1  0  0  0  0  0  0  0  0  0
    7.0219  -17.1884   23.2835 C   0  0  0  0  0  0  0  0  0  0  0  0
    6.5365  -17.6469   24.5670 C   0  0  0  0  0  0  0  0  0  0  0  0
    7.2169  -18.0067   25.5514 O   0  0  0  0  0  0  0  0  0  0  0  0
    8.0658  -15.1265   24.2053 C   0  0  0  0  0  0  0  0  0  0  0  0
    9.3550  -15.2956   24.0929 O   0  0  0  0  0  0  0  0  0  0  0  0
    5.1331  -17.7184   24.7944 O   0  0  0  0  0  0  0  0  0  0  0  0
    7.7003  -14.4054   25.3599 N   0  0  0  0  0  0  0  0  0  0  0  0
    6.4537  -14.0320   25.9472 C   0  0  0  0  0  0  0  0  0  0  0  0
    6.7790  -12.9438   26.9825 C   0  0  0  0  0  0  0  0  0  0  0  0
    8.2000  -12.5055   26.5792 C   0  0  0  0  0  0  0  0  0  0  0  0
    8.7527  -13.8847   26.2718 C   0  0  1  0  0  0  0  0  0  0  0  0
    8.8170  -14.7268   27.4911 C   0  0  0  0  0  0  0  0  0  0  0  0
    9.7460  -14.5869   28.4965 O   0  0  0  0  0  0  0  0  0  0  0  0
    7.9589  -15.6354   27.6145 O   0  0  0  0  0  0  0  0  0  0  0  0
  2  4  1  0
  2  1  1  6
  3  2  1  0
  4  6  1  0
  4  5  1  1
  6  8  1  0
  6  7  2  0
  8  9  1  0
  9 10  1  1
  9 13  1  0
 11 10  1  0
 12 11  2  0
 13 16  1  0
 14 13  2  0
 15 11  1  0
 16 17  1  0
 16 20  1  0
 17 18  1  0
 18 19  1  0
 20 19  1  0
 20 21  1  1
 21 22  1  0
 23 21  2  0
M  END
$$$$
