TDP.pdb
     RDKit          3D

 23 23  0  0  1  0  0  0  0  0999 V2000
    8.2426  -12.3707   20.2708 C   0  0  0  0  0  0  0  0  0  0  0  0
    7.9878  -13.4502   19.2272 C   0  0  1  0  0  0  0  0  0  0  0  0
    8.6947  -13.2538   18.0667 O   0  0  0  0  0  0  0  0  0  0  0  0
    8.3566  -14.8238   19.7854 C   0  0  2  0  0  0  0  0  0  0  0  0
    7.8960  -15.8351   18.8009 N   0  0  0  0  0  0  0  0  0  0  0  0
    7.6737  -15.1563   21.0368 C   0  0  0  0  0  0  0  0  0  0  0  0
    6.5048  -15.6087   21.0415 O   0  0  0  0  0  0  0  0  0  0  0  0
    8.3037  -14.9881   22.3084 N   0  0  0  0  0  0  0  0  0  0  0  0
    7.5594  -15.3144   23.5306 C   0  0  1  0  0  0  0  0  0  0  0  0
    7.5054  -16.8275   23.6033 C   0  0  0  0  0  0  0  0  0  0  0  0
    6.9861  -17.4162   24.8185 C   0  0  0  0  0  0  0  0  0  0  0  0
    5.7929  -17.4723   25.1853 O   0  0  0  0  0  0  0  0  0  0  0  0
    8.1077  -14.6758   24.6980 C   0  0  0  0  0  0  0  0  0  0  0  0
    9.4095  -14.7294   24.7746 O   0  0  0  0  0  0  0  0  0  0  0  0
    7.8889  -18.0154   25.7417 O   0  0  0  0  0  0  0  0  0  0  0  0
    7.5166  -13.9969   25.7825 N   0  0  0  0  0  0  0  0  0  0  0  0
    6.1721  -13.8047   26.2229 C   0  0  0  0  0  0  0  0  0  0  0  0
    6.2186  -12.6610   27.2485 C   0  0  0  0  0  0  0  0  0  0  0  0
    7.5946  -12.0212   26.9812 C   0  0  0  0  0  0  0  0  0  0  0  0
    8.3751  -13.3068   26.7810 C   0  0  1  0  0  0  0  0  0  0  0  0
    8.4303  -14.1071   28.0286 C   0  0  0  0  0  0  0  0  0  0  0  0
    7.8290  -15.3321   28.2054 O   0  0  0  0  0  0  0  0  0  0  0  0
    9.0744  -13.6305   28.9956 O   0  0  0  0  0  0  0  0  0  0  0  0
  2  4  1  0
  2  1  1  1
  3  2  1  0
  4  6  1  0
  4  5  1  6
  6  8  1  0
  6  7  2  0
  8  9  1  0
  9 10  1  1
  9 13  1  0
 11 10  1  0
 12 11  2  0
 13 16  1  0
 14 13  2  0
 15 11  1  0
 16 17  1  0
 16 20  1  0
 17 18  1  0
 18 19  1  0
 20 19  1  0
 20 21  1  1
 21 22  1  0
 23 21  2  0
M  END
$$$$
