TDP.pdb
     RDKit          3D

 23 23  0  0  1  0  0  0  0  0999 V2000
    8.4726  -12.2963   20.3671 C   0  0  0  0  0  0  0  0  0  0  0  0
    8.0376  -13.2719   19.2818 C   0  0  1  0  0  0  0  0  0  0  0  0
    8.7048  -13.0896   18.0958 O   0  0  0  0  0  0  0  0  0  0  0  0
    8.2642  -14.7111   19.7419 C   0  0  2  0  0  0  0  0  0  0  0  0
    7.6341  -15.5985   18.7321 N   0  0  0  0  0  0  0  0  0  0  0  0
    7.6107  -15.0362   21.0108 C   0  0  0  0  0  0  0  0  0  0  0  0
    6.3640  -15.1337   21.0960 O   0  0  0  0  0  0  0  0  0  0  0  0
    8.3572  -15.2627   22.2082 N   0  0  0  0  0  0  0  0  0  0  0  0
    7.6437  -15.5079   23.4671 C   0  0  1  0  0  0  0  0  0  0  0  0
    7.6219  -17.0116   23.6567 C   0  0  0  0  0  0  0  0  0  0  0  0
    7.0834  -17.5168   24.9008 C   0  0  0  0  0  0  0  0  0  0  0  0
    6.0810  -17.0995   25.5191 O   0  0  0  0  0  0  0  0  0  0  0  0
    8.2018  -14.7712   24.5704 C   0  0  0  0  0  0  0  0  0  0  0  0
    9.5062  -14.7302   24.5804 O   0  0  0  0  0  0  0  0  0  0  0  0
    7.7257  -18.6135   25.5419 O   0  0  0  0  0  0  0  0  0  0  0  0
    7.6176  -14.0776   25.6494 N   0  0  0  0  0  0  0  0  0  0  0  0
    6.2740  -13.8472   26.0741 C   0  0  0  0  0  0  0  0  0  0  0  0
    6.3416  -12.7076   27.1031 C   0  0  0  0  0  0  0  0  0  0  0  0
    7.7388  -12.1077   26.8540 C   0  0  0  0  0  0  0  0  0  0  0  0
    8.4838  -13.4152   26.6600 C   0  0  1  0  0  0  0  0  0  0  0  0
    8.5005  -14.2195   27.9061 C   0  0  0  0  0  0  0  0  0  0  0  0
    9.1935  -13.8882   29.0477 O   0  0  0  0  0  0  0  0  0  0  0  0
    7.8316  -15.2823   27.9196 O   0  0  0  0  0  0  0  0  0  0  0  0
  2  4  1  0
  2  1  1  1
  3  2  1  0
  4  6  1  0
  4  5  1  6
  6  8  1  0
  6  7  2  0
  8  9  1  0
  9 10  1  1
  9 13  1  0
 11 10  1  0
 12 11  2  0
 13 16  1  0
 14 13  2  0
 15 11  1  0
 16 17  1  0
 16 20  1  0
 17 18  1  0
 18 19  1  0
 20 19  1  0
 20 21  1  1
 21 22  1  0
 23 21  2  0
M  END
$$$$
