TDP.pdb
     RDKit          3D

 23 23  0  0  1  0  0  0  0  0999 V2000
    8.6760  -12.5248   20.3590 C   0  0  0  0  0  0  0  0  0  0  0  0
    7.9467  -13.4329   19.3780 C   0  0  1  0  0  0  0  0  0  0  0  0
    8.4684  -13.3828   18.1089 O   0  0  0  0  0  0  0  0  0  0  0  0
    7.9979  -14.8820   19.8594 C   0  0  2  0  0  0  0  0  0  0  0  0
    7.1995  -15.6901   18.9035 N   0  0  0  0  0  0  0  0  0  0  0  0
    7.3742  -15.0931   21.1668 C   0  0  0  0  0  0  0  0  0  0  0  0
    6.1335  -15.2284   21.2832 O   0  0  0  0  0  0  0  0  0  0  0  0
    8.1444  -15.1608   22.3687 N   0  0  0  0  0  0  0  0  0  0  0  0
    7.4789  -15.4941   23.6337 C   0  0  1  0  0  0  0  0  0  0  0  0
    7.3744  -17.0058   23.6727 C   0  0  0  0  0  0  0  0  0  0  0  0
    6.8240  -17.6032   24.8698 C   0  0  0  0  0  0  0  0  0  0  0  0
    6.3962  -17.0132   25.8849 O   0  0  0  0  0  0  0  0  0  0  0  0
    8.1336  -14.9074   24.7732 C   0  0  0  0  0  0  0  0  0  0  0  0
    9.4357  -14.9894   24.7422 O   0  0  0  0  0  0  0  0  0  0  0  0
    6.7337  -19.0209   24.9611 O   0  0  0  0  0  0  0  0  0  0  0  0
    7.6469  -14.2549   25.9238 N   0  0  0  0  0  0  0  0  0  0  0  0
    6.3502  -14.0791   26.4950 C   0  0  0  0  0  0  0  0  0  0  0  0
    6.4912  -12.9574   27.5360 C   0  0  0  0  0  0  0  0  0  0  0  0
    7.8333  -12.3049   27.1522 C   0  0  0  0  0  0  0  0  0  0  0  0
    8.5950  -13.5819   26.8503 C   0  0  1  0  0  0  0  0  0  0  0  0
    8.7719  -14.4084   28.0692 C   0  0  0  0  0  0  0  0  0  0  0  0
    9.5194  -14.0442   29.1657 O   0  0  0  0  0  0  0  0  0  0  0  0
    8.1961  -15.5239   28.1024 O   0  0  0  0  0  0  0  0  0  0  0  0
  2  4  1  0
  2  1  1  1
  3  2  1  0
  4  6  1  0
  4  5  1  6
  6  8  1  0
  6  7  2  0
  8  9  1  0
  9 10  1  1
  9 13  1  0
 11 10  1  0
 12 11  2  0
 13 16  1  0
 14 13  2  0
 15 11  1  0
 16 17  1  0
 16 20  1  0
 17 18  1  0
 18 19  1  0
 20 19  1  0
 20 21  1  1
 21 22  1  0
 23 21  2  0
M  END
$$$$
