TDP.pdb
     RDKit          3D

 23 23  0  0  1  0  0  0  0  0999 V2000
   12.7145  -19.1959   21.8215 C   0  0  0  0  0  0  0  0  0  0  0  0
   11.9625  -18.0114   22.4137 C   0  0  1  0  0  0  0  0  0  0  0  0
   12.7714  -17.1651   23.1310 O   0  0  0  0  0  0  0  0  0  0  0  0
   11.2887  -17.2042   21.3052 C   0  0  2  0  0  0  0  0  0  0  0  0
   12.3562  -16.4493   20.6019 N   0  0  0  0  0  0  0  0  0  0  0  0
   10.3522  -16.1920   21.7965 C   0  0  0  0  0  0  0  0  0  0  0  0
   10.7440  -15.0501   22.1336 O   0  0  0  0  0  0  0  0  0  0  0  0
    8.9516  -16.4515   21.9106 N   0  0  0  0  0  0  0  0  0  0  0  0
    8.0674  -15.4120   22.4509 C   0  0  1  0  0  0  0  0  0  0  0  0
    6.6572  -15.8113   22.0642 C   0  0  0  0  0  0  0  0  0  0  0  0
    6.4928  -16.5720   20.8447 C   0  0  0  0  0  0  0  0  0  0  0  0
    5.8599  -17.6390   20.6950 O   0  0  0  0  0  0  0  0  0  0  0  0
    8.2659  -15.1961   23.8599 C   0  0  0  0  0  0  0  0  0  0  0  0
    9.2182  -15.9195   24.3825 O   0  0  0  0  0  0  0  0  0  0  0  0
    7.0981  -16.1020   19.6451 O   0  0  0  0  0  0  0  0  0  0  0  0
    7.6346  -14.3520   24.7956 N   0  0  0  0  0  0  0  0  0  0  0  0
    6.5150  -13.4676   24.7418 C   0  0  0  0  0  0  0  0  0  0  0  0
    6.6063  -12.5871   25.9981 C   0  0  0  0  0  0  0  0  0  0  0  0
    8.0600  -12.8044   26.4601 C   0  0  0  0  0  0  0  0  0  0  0  0
    8.1305  -14.2969   26.1961 C   0  0  1  0  0  0  0  0  0  0  0  0
    7.2075  -15.0480   27.0815 C   0  0  0  0  0  0  0  0  0  0  0  0
    7.4469  -15.3360   28.4056 O   0  0  0  0  0  0  0  0  0  0  0  0
    6.1267  -15.4509   26.5849 O   0  0  0  0  0  0  0  0  0  0  0  0
  2  4  1  0
  2  1  1  6
  3  2  1  0
  4  6  1  0
  4  5  1  1
  6  8  1  0
  6  7  2  0
  8  9  1  0
  9 10  1  1
  9 13  1  0
 11 10  1  0
 12 11  2  0
 13 16  1  0
 14 13  2  0
 15 11  1  0
 16 17  1  0
 16 20  1  0
 17 18  1  0
 18 19  1  0
 20 19  1  0
 20 21  1  1
 21 22  1  0
 23 21  2  0
M  END
$$$$
