TDP.pdb
     RDKit          3D

 23 23  0  0  1  0  0  0  0  0999 V2000
    8.4094  -12.2373   20.3064 C   0  0  0  0  0  0  0  0  0  0  0  0
    8.0889  -13.2871   19.2508 C   0  0  1  0  0  0  0  0  0  0  0  0
    8.7554  -13.0814   18.0681 O   0  0  0  0  0  0  0  0  0  0  0  0
    8.4454  -14.6810   19.7648 C   0  0  2  0  0  0  0  0  0  0  0  0
    7.9432  -15.6581   18.7662 N   0  0  0  0  0  0  0  0  0  0  0  0
    7.7862  -15.0336   21.0233 C   0  0  0  0  0  0  0  0  0  0  0  0
    6.5565  -15.2719   21.0709 O   0  0  0  0  0  0  0  0  0  0  0  0
    8.5082  -15.1288   22.2529 N   0  0  0  0  0  0  0  0  0  0  0  0
    7.7781  -15.3882   23.4995 C   0  0  1  0  0  0  0  0  0  0  0  0
    7.8668  -16.8822   23.7401 C   0  0  0  0  0  0  0  0  0  0  0  0
    7.0053  -17.7348   22.9501 C   0  0  0  0  0  0  0  0  0  0  0  0
    5.7563  -17.7699   22.9598 O   0  0  0  0  0  0  0  0  0  0  0  0
    8.2440  -14.5750   24.5916 C   0  0  0  0  0  0  0  0  0  0  0  0
    9.5349  -14.3832   24.6023 O   0  0  0  0  0  0  0  0  0  0  0  0
    7.5888  -18.6607   22.0399 O   0  0  0  0  0  0  0  0  0  0  0  0
    7.5805  -13.9372   25.6590 N   0  0  0  0  0  0  0  0  0  0  0  0
    6.2161  -13.8437   26.0694 C   0  0  0  0  0  0  0  0  0  0  0  0
    6.1551  -12.6952   27.0888 C   0  0  0  0  0  0  0  0  0  0  0  0
    7.4852  -11.9558   26.8472 C   0  0  0  0  0  0  0  0  0  0  0  0
    8.3633  -13.1806   26.6715 C   0  0  1  0  0  0  0  0  0  0  0  0
    8.4507  -13.9691   27.9249 C   0  0  0  0  0  0  0  0  0  0  0  0
    7.9122  -15.2224   28.1056 O   0  0  0  0  0  0  0  0  0  0  0  0
    9.0621  -13.4536   28.8931 O   0  0  0  0  0  0  0  0  0  0  0  0
  2  4  1  0
  2  1  1  1
  3  2  1  0
  4  6  1  0
  4  5  1  6
  6  8  1  0
  6  7  2  0
  8  9  1  0
  9 10  1  1
  9 13  1  0
 11 10  1  0
 12 11  2  0
 13 16  1  0
 14 13  2  0
 15 11  1  0
 16 17  1  0
 16 20  1  0
 17 18  1  0
 18 19  1  0
 20 19  1  0
 20 21  1  1
 21 22  1  0
 23 21  2  0
M  END
$$$$
