TDP.pdb
     RDKit          3D

 23 23  0  0  1  0  0  0  0  0999 V2000
    8.7618  -12.3932   20.5145 C   0  0  0  0  0  0  0  0  0  0  0  0
    7.9797  -13.2085   19.4933 C   0  0  1  0  0  0  0  0  0  0  0  0
    8.4222  -13.0257   18.2065 O   0  0  0  0  0  0  0  0  0  0  0  0
    8.0702  -14.6975   19.8234 C   0  0  2  0  0  0  0  0  0  0  0  0
    7.2250  -15.4172   18.8376 N   0  0  0  0  0  0  0  0  0  0  0  0
    7.5239  -15.0465   21.1359 C   0  0  0  0  0  0  0  0  0  0  0  0
    6.2875  -15.1021   21.3338 O   0  0  0  0  0  0  0  0  0  0  0  0
    8.3680  -15.3449   22.2498 N   0  0  0  0  0  0  0  0  0  0  0  0
    7.7621  -15.6856   23.5426 C   0  0  1  0  0  0  0  0  0  0  0  0
    7.9172  -17.1850   23.7019 C   0  0  0  0  0  0  0  0  0  0  0  0
    7.5176  -17.7637   24.9662 C   0  0  0  0  0  0  0  0  0  0  0  0
    8.2156  -18.4539   25.7395 O   0  0  0  0  0  0  0  0  0  0  0  0
    8.3006  -14.9072   24.6268 C   0  0  0  0  0  0  0  0  0  0  0  0
    9.5996  -14.7837   24.6023 O   0  0  0  0  0  0  0  0  0  0  0  0
    6.1897  -17.5585   25.4361 O   0  0  0  0  0  0  0  0  0  0  0  0
    7.7017  -14.2444   25.7169 N   0  0  0  0  0  0  0  0  0  0  0  0
    6.3626  -14.1315   26.1996 C   0  0  0  0  0  0  0  0  0  0  0  0
    6.3667  -12.9643   27.1994 C   0  0  0  0  0  0  0  0  0  0  0  0
    7.6872  -12.2412   26.8716 C   0  0  0  0  0  0  0  0  0  0  0  0
    8.5448  -13.4767   26.6709 C   0  0  1  0  0  0  0  0  0  0  0  0
    8.6946  -14.2431   27.9320 C   0  0  0  0  0  0  0  0  0  0  0  0
    9.4793  -13.8622   28.9962 O   0  0  0  0  0  0  0  0  0  0  0  0
    8.0571  -15.3201   28.0355 O   0  0  0  0  0  0  0  0  0  0  0  0
  2  4  1  0
  2  1  1  1
  3  2  1  0
  4  6  1  0
  4  5  1  6
  6  8  1  0
  6  7  2  0
  8  9  1  0
  9 10  1  1
  9 13  1  0
 11 10  1  0
 12 11  2  0
 13 16  1  0
 14 13  2  0
 15 11  1  0
 16 17  1  0
 16 20  1  0
 17 18  1  0
 18 19  1  0
 20 19  1  0
 20 21  1  1
 21 22  1  0
 23 21  2  0
M  END
$$$$
