TDP.pdb
     RDKit          3D

 23 23  0  0  1  0  0  0  0  0999 V2000
   -5.3519  -20.8270   24.2722 C   0  0  0  0  0  0  0  0  0  0  0  0
   -4.0164  -21.5142   24.0207 C   0  0  1  0  0  0  0  0  0  0  0  0
   -3.1397  -20.7392   23.3024 O   0  0  0  0  0  0  0  0  0  0  0  0
   -3.3530  -21.8834   25.3465 C   0  0  2  0  0  0  0  0  0  0  0  0
   -2.1236  -22.6503   25.0230 N   0  0  0  0  0  0  0  0  0  0  0  0
   -4.1598  -22.7724   26.1841 C   0  0  0  0  0  0  0  0  0  0  0  0
   -4.2920  -23.9876   25.9067 O   0  0  0  0  0  0  0  0  0  0  0  0
   -4.8291  -22.3035   27.3565 N   0  0  0  0  0  0  0  0  0  0  0  0
   -5.7429  -23.2014   28.0727 C   0  0  1  0  0  0  0  0  0  0  0  0
   -5.3250  -23.1584   29.5292 C   0  0  0  0  0  0  0  0  0  0  0  0
   -6.0883  -23.9570   30.4634 C   0  0  0  0  0  0  0  0  0  0  0  0
   -6.0960  -25.2021   30.5684 O   0  0  0  0  0  0  0  0  0  0  0  0
   -7.1266  -22.8852   27.8351 C   0  0  0  0  0  0  0  0  0  0  0  0
   -7.3830  -21.6062   27.7933 O   0  0  0  0  0  0  0  0  0  0  0  0
   -6.9470  -23.3068   31.3942 O   0  0  0  0  0  0  0  0  0  0  0  0
   -8.2691  -23.6859   27.6345 N   0  0  0  0  0  0  0  0  0  0  0  0
   -8.5234  -25.0897   27.6921 C   0  0  0  0  0  0  0  0  0  0  0  0
   -9.8799  -25.3060   27.0028 C   0  0  0  0  0  0  0  0  0  0  0  0
  -10.0843  -23.9864   26.2341 C   0  0  0  0  0  0  0  0  0  0  0  0
   -9.5728  -23.0485   27.3115 C   0  0  1  0  0  0  0  0  0  0  0  0
  -10.4482  -23.0699   28.5088 C   0  0  0  0  0  0  0  0  0  0  0  0
  -11.6847  -22.4718   28.5907 O   0  0  0  0  0  0  0  0  0  0  0  0
  -10.0288  -23.6798   29.5233 O   0  0  0  0  0  0  0  0  0  0  0  0
  2  4  1  0
  2  1  1  1
  3  2  1  0
  4  6  1  0
  4  5  1  6
  6  8  1  0
  6  7  2  0
  8  9  1  0
  9 10  1  1
  9 13  1  0
 11 10  1  0
 12 11  2  0
 13 16  1  0
 14 13  2  0
 15 11  1  0
 16 17  1  0
 16 20  1  0
 17 18  1  0
 18 19  1  0
 20 19  1  0
 20 21  1  1
 21 22  1  0
 23 21  2  0
M  END
$$$$
