PAK.pdb
     RDKit          3D

 22 22  0  0  1  0  0  0  0  0999 V2000
    8.3285  -15.0489   18.7216 N   0  0  0  0  0  0  0  0  0  0  0  0
    7.2795  -14.2956   18.0640 C   0  0  0  0  0  0  0  0  0  0  0  0
    8.0988  -13.2073   17.3694 C   0  0  0  0  0  0  0  0  0  0  0  0
    9.0006  -12.7772   18.5241 C   0  0  0  0  0  0  0  0  0  0  0  0
    9.3368  -14.1324   19.1423 C   0  0  1  0  0  0  0  0  0  0  0  0
    9.3215  -14.0205   20.6165 C   0  0  0  0  0  0  0  0  0  0  0  0
   10.2599  -13.4641   21.2007 O   0  0  0  0  0  0  0  0  0  0  0  0
    6.8423  -14.5231   23.4256 C   0  0  0  0  0  0  0  0  0  0  0  0
    8.2284  -14.4323   22.8423 C   0  0  2  0  0  0  0  0  0  0  0  0
    8.2550  -14.5332   21.4186 N   0  0  0  0  0  0  0  0  0  0  0  0
    9.0597  -15.4885   23.5019 C   0  0  0  0  0  0  0  0  0  0  0  0
    9.1315  -15.5865   24.7553 O   0  0  0  0  0  0  0  0  0  0  0  0
    9.7985  -16.4196   22.7330 N   0  0  0  0  0  0  0  0  0  0  0  0
   10.5962  -17.4871   23.3038 C   0  0  1  0  0  0  0  0  0  0  0  0
   10.9783  -18.4995   22.2320 C   0  0  0  0  0  0  0  0  0  0  0  0
   11.8013  -19.6202   22.8179 C   0  0  0  0  0  0  0  0  0  0  0  0
   12.2315  -20.6332   21.8250 C   0  0  0  0  0  0  0  0  0  0  0  0
   13.0046  -21.7854   22.4016 C   0  0  0  0  0  0  0  0  0  0  0  0
   13.3207  -22.7695   21.4018 N   0  0  0  0  0  0  0  0  0  0  0  0
   11.7923  -16.8717   23.9200 C   0  0  0  0  0  0  0  0  0  0  0  0
   12.2966  -15.7795   23.5539 O   0  0  0  0  0  0  0  0  0  0  0  0
   12.4088  -17.5331   24.9730 O   0  0  0  0  0  0  0  0  0  0  0  0
  1  5  1  0
  1  2  1  0
  2  3  1  0
  3  4  1  0
  5  4  1  0
  6 10  1  0
  5  6  1  1
  7  6  2  0
  9 11  1  0
  9  8  1  1
  9 10  1  0
 11 13  1  0
 12 11  2  0
 13 14  1  0
 14 15  1  6
 15 16  1  0
 16 17  1  0
 18 17  1  0
 19 18  1  0
 20 14  1  0
 21 20  2  0
 22 20  1  0
M  END
$$$$
