PAK.pdb
     RDKit          3D

 22 22  0  0  1  0  0  0  0  0999 V2000
    8.3709  -15.0368   18.0257 N   0  0  0  0  0  0  0  0  0  0  0  0
    7.4113  -14.4571   17.1072 C   0  0  0  0  0  0  0  0  0  0  0  0
    8.0170  -13.0690   16.8966 C   0  0  0  0  0  0  0  0  0  0  0  0
    8.3030  -12.6822   18.3458 C   0  0  0  0  0  0  0  0  0  0  0  0
    8.8352  -14.0046   18.8932 C   0  0  1  0  0  0  0  0  0  0  0  0
    8.3039  -14.2251   20.2553 C   0  0  0  0  0  0  0  0  0  0  0  0
    8.6196  -13.4545   21.1706 O   0  0  0  0  0  0  0  0  0  0  0  0
    5.7796  -16.5392   21.9156 C   0  0  0  0  0  0  0  0  0  0  0  0
    6.8829  -15.5140   21.8796 C   0  0  2  0  0  0  0  0  0  0  0  0
    7.4252  -15.3064   20.5755 N   0  0  0  0  0  0  0  0  0  0  0  0
    7.9242  -15.9449   22.8654 C   0  0  0  0  0  0  0  0  0  0  0  0
    8.8730  -16.7044   22.5354 O   0  0  0  0  0  0  0  0  0  0  0  0
    7.8769  -15.5099   24.2117 N   0  0  0  0  0  0  0  0  0  0  0  0
    8.8516  -15.8850   25.2171 C   0  0  1  0  0  0  0  0  0  0  0  0
    8.7817  -14.9378   26.4078 C   0  0  0  0  0  0  0  0  0  0  0  0
    9.8148  -15.2999   27.4461 C   0  0  0  0  0  0  0  0  0  0  0  0
    9.7721  -14.4493   28.6593 C   0  0  0  0  0  0  0  0  0  0  0  0
   10.7769  -14.8146   29.7151 C   0  0  0  0  0  0  0  0  0  0  0  0
   10.6423  -13.9921   30.8871 N   0  0  0  0  0  0  0  0  0  0  0  0
    8.5679  -17.2810   25.6169 C   0  0  0  0  0  0  0  0  0  0  0  0
    7.4153  -17.7788   25.6862 O   0  0  0  0  0  0  0  0  0  0  0  0
    9.6355  -18.1069   25.9397 O   0  0  0  0  0  0  0  0  0  0  0  0
  1  5  1  0
  1  2  1  0
  2  3  1  0
  3  4  1  0
  5  4  1  0
  6 10  1  0
  5  6  1  1
  7  6  2  0
  9 11  1  0
  9  8  1  6
  9 10  1  0
 11 13  1  0
 12 11  2  0
 13 14  1  0
 14 15  1  1
 15 16  1  0
 16 17  1  0
 18 17  1  0
 19 18  1  0
 20 14  1  0
 21 20  2  0
 22 20  1  0
M  END
$$$$
