PAK.pdb
     RDKit          3D

 22 22  0  0  1  0  0  0  0  0999 V2000
    7.7938  -14.8672   18.6088 N   0  0  0  0  0  0  0  0  0  0  0  0
    6.7320  -13.8812   18.5814 C   0  0  0  0  0  0  0  0  0  0  0  0
    7.4176  -12.7409   17.8278 C   0  0  0  0  0  0  0  0  0  0  0  0
    8.7469  -12.6896   18.5774 C   0  0  0  0  0  0  0  0  0  0  0  0
    9.0354  -14.1795   18.7469 C   0  0  1  0  0  0  0  0  0  0  0  0
    9.5911  -14.4249   20.0948 C   0  0  0  0  0  0  0  0  0  0  0  0
   10.7684  -14.1307   20.3375 O   0  0  0  0  0  0  0  0  0  0  0  0
    8.2554  -15.5288   23.4831 C   0  0  0  0  0  0  0  0  0  0  0  0
    9.3208  -15.1671   22.4812 C   0  0  2  0  0  0  0  0  0  0  0  0
    8.8212  -14.9972   21.1548 N   0  0  0  0  0  0  0  0  0  0  0  0
   10.3810  -16.2215   22.5577 C   0  0  0  0  0  0  0  0  0  0  0  0
   10.2313  -17.3501   22.0195 O   0  0  0  0  0  0  0  0  0  0  0  0
   11.5967  -15.9835   23.2428 N   0  0  0  0  0  0  0  0  0  0  0  0
   12.7127  -16.9088   23.2544 C   0  0  1  0  0  0  0  0  0  0  0  0
   13.9764  -16.2273   22.7462 C   0  0  0  0  0  0  0  0  0  0  0  0
   13.8336  -15.8396   21.2951 C   0  0  0  0  0  0  0  0  0  0  0  0
   15.0289  -15.1683   20.7314 C   0  0  0  0  0  0  0  0  0  0  0  0
   14.9096  -14.7920   19.2816 C   0  0  0  0  0  0  0  0  0  0  0  0
   16.0866  -14.1154   18.8073 N   0  0  0  0  0  0  0  0  0  0  0  0
   12.8783  -17.3932   24.6426 C   0  0  0  0  0  0  0  0  0  0  0  0
   12.3138  -16.8836   25.6439 O   0  0  0  0  0  0  0  0  0  0  0  0
   13.7091  -18.4818   24.8690 O   0  0  0  0  0  0  0  0  0  0  0  0
  1  5  1  0
  1  2  1  0
  2  3  1  0
  3  4  1  0
  5  4  1  0
  6 10  1  0
  5  6  1  1
  7  6  2  0
  9 11  1  0
  9  8  1  1
  9 10  1  0
 11 13  1  0
 12 11  2  0
 13 14  1  0
 14 15  1  1
 15 16  1  0
 16 17  1  0
 18 17  1  0
 19 18  1  0
 20 14  1  0
 21 20  2  0
 22 20  1  0
M  END
$$$$
