PAK.pdb
     RDKit          3D

 22 22  0  0  1  0  0  0  0  0999 V2000
    8.9074  -14.2451   18.1741 N   0  0  0  0  0  0  0  0  0  0  0  0
    7.7206  -14.1385   17.3493 C   0  0  0  0  0  0  0  0  0  0  0  0
    7.3284  -12.6813   17.5964 C   0  0  0  0  0  0  0  0  0  0  0  0
    7.4389  -12.6319   19.1186 C   0  0  0  0  0  0  0  0  0  0  0  0
    8.7135  -13.4438   19.3376 C   0  0  1  0  0  0  0  0  0  0  0  0
    8.5462  -14.3169   20.5190 C   0  0  0  0  0  0  0  0  0  0  0  0
    8.2756  -13.8182   21.6188 O   0  0  0  0  0  0  0  0  0  0  0  0
    8.5450  -18.0597   21.2389 C   0  0  0  0  0  0  0  0  0  0  0  0
    8.5122  -16.5936   21.5841 C   0  0  2  0  0  0  0  0  0  0  0  0
    8.6841  -15.7384   20.4541 N   0  0  0  0  0  0  0  0  0  0  0  0
    9.5516  -16.3600   22.6361 C   0  0  0  0  0  0  0  0  0  0  0  0
   10.7541  -16.1335   22.3388 O   0  0  0  0  0  0  0  0  0  0  0  0
    9.2150  -16.3860   24.0109 N   0  0  0  0  0  0  0  0  0  0  0  0
   10.1688  -16.1687   25.0809 C   0  0  1  0  0  0  0  0  0  0  0  0
    9.4702  -15.6086   26.3130 C   0  0  0  0  0  0  0  0  0  0  0  0
   10.4506  -15.4009   27.4409 C   0  0  0  0  0  0  0  0  0  0  0  0
    9.8527  -14.7926   28.6532 C   0  0  0  0  0  0  0  0  0  0  0  0
   10.8221  -14.5531   29.7760 C   0  0  0  0  0  0  0  0  0  0  0  0
   10.1765  -13.9767   30.9245 N   0  0  0  0  0  0  0  0  0  0  0  0
   10.8210  -17.4650   25.3693 C   0  0  0  0  0  0  0  0  0  0  0  0
   10.2269  -18.5732   25.3717 O   0  0  0  0  0  0  0  0  0  0  0  0
   12.1786  -17.4730   25.6581 O   0  0  0  0  0  0  0  0  0  0  0  0
  1  5  1  0
  1  2  1  0
  2  3  1  0
  3  4  1  0
  5  4  1  0
  6 10  1  0
  5  6  1  1
  7  6  2  0
  9 11  1  0
  9  8  1  6
  9 10  1  0
 11 13  1  0
 12 11  2  0
 13 14  1  0
 14 15  1  1
 15 16  1  0
 16 17  1  0
 18 17  1  0
 19 18  1  0
 20 14  1  0
 21 20  2  0
 22 20  1  0
M  END
$$$$
