PAK.pdb
     RDKit          3D

 22 22  0  0  1  0  0  0  0  0999 V2000
    9.1371  -14.4373   18.0123 N   0  0  0  0  0  0  0  0  0  0  0  0
    7.8954  -14.3079   17.2763 C   0  0  0  0  0  0  0  0  0  0  0  0
    7.4283  -12.9279   17.7406 C   0  0  0  0  0  0  0  0  0  0  0  0
    7.6329  -13.0719   19.2469 C   0  0  0  0  0  0  0  0  0  0  0  0
    8.9679  -13.8124   19.2829 C   0  0  1  0  0  0  0  0  0  0  0  0
    8.9326  -14.8434   20.3420 C   0  0  0  0  0  0  0  0  0  0  0  0
    8.5392  -14.5459   21.4769 O   0  0  0  0  0  0  0  0  0  0  0  0
    9.8617  -18.5283   20.6725 C   0  0  0  0  0  0  0  0  0  0  0  0
    9.4219  -17.1709   21.1559 C   0  0  2  0  0  0  0  0  0  0  0  0
    9.3384  -16.1957   20.1168 N   0  0  0  0  0  0  0  0  0  0  0  0
   10.3623  -16.7597   22.2461 C   0  0  0  0  0  0  0  0  0  0  0  0
   11.4817  -16.2414   21.9931 O   0  0  0  0  0  0  0  0  0  0  0  0
   10.0221  -16.9412   23.6082 N   0  0  0  0  0  0  0  0  0  0  0  0
   10.8162  -16.4411   24.7132 C   0  0  1  0  0  0  0  0  0  0  0  0
    9.9163  -15.8758   25.8043 C   0  0  0  0  0  0  0  0  0  0  0  0
   10.7240  -15.4666   27.0111 C   0  0  0  0  0  0  0  0  0  0  0  0
    9.9147  -14.8805   28.1061 C   0  0  0  0  0  0  0  0  0  0  0  0
   10.7058  -14.4590   29.3120 C   0  0  0  0  0  0  0  0  0  0  0  0
    9.8804  -13.7996   30.2877 N   0  0  0  0  0  0  0  0  0  0  0  0
   11.6399  -17.5625   25.2162 C   0  0  0  0  0  0  0  0  0  0  0  0
   11.2995  -18.7719   25.1643 O   0  0  0  0  0  0  0  0  0  0  0  0
   12.8724  -17.2748   25.7858 O   0  0  0  0  0  0  0  0  0  0  0  0
  1  5  1  0
  1  2  1  0
  2  3  1  0
  3  4  1  0
  5  4  1  0
  6 10  1  0
  5  6  1  1
  7  6  2  0
  9 11  1  0
  9  8  1  6
  9 10  1  0
 11 13  1  0
 12 11  2  0
 13 14  1  0
 14 15  1  1
 15 16  1  0
 16 17  1  0
 18 17  1  0
 19 18  1  0
 20 14  1  0
 21 20  2  0
 22 20  1  0
M  END
$$$$
