PAK.pdb
     RDKit          3D

 22 22  0  0  1  0  0  0  0  0999 V2000
    9.5275  -14.6374   18.1699 N   0  0  0  0  0  0  0  0  0  0  0  0
    8.6645  -14.8749   17.0301 C   0  0  0  0  0  0  0  0  0  0  0  0
    7.9640  -13.5208   16.9124 C   0  0  0  0  0  0  0  0  0  0  0  0
    7.5753  -13.2960   18.3718 C   0  0  0  0  0  0  0  0  0  0  0  0
    8.8365  -13.7848   19.0805 C   0  0  1  0  0  0  0  0  0  0  0  0
    8.4596  -14.5503   20.2879 C   0  0  0  0  0  0  0  0  0  0  0  0
    7.6431  -14.0751   21.0873 O   0  0  0  0  0  0  0  0  0  0  0  0
    9.4564  -17.8562   21.9079 C   0  0  0  0  0  0  0  0  0  0  0  0
    8.7169  -16.5489   21.7908 C   0  0  2  0  0  0  0  0  0  0  0  0
    9.0019  -15.8392   20.5854 N   0  0  0  0  0  0  0  0  0  0  0  0
    9.0374  -15.7446   23.0123 C   0  0  0  0  0  0  0  0  0  0  0  0
   10.1825  -15.2557   23.2005 O   0  0  0  0  0  0  0  0  0  0  0  0
    8.0564  -15.5047   24.0044 N   0  0  0  0  0  0  0  0  0  0  0  0
    8.2162  -14.5524   25.0857 C   0  0  1  0  0  0  0  0  0  0  0  0
    6.8811  -13.9038   25.4274 C   0  0  0  0  0  0  0  0  0  0  0  0
    7.0196  -12.9746   26.6079 C   0  0  0  0  0  0  0  0  0  0  0  0
    5.7882  -12.2105   26.9197 C   0  0  0  0  0  0  0  0  0  0  0  0
    5.8920  -11.3226   28.1274 C   0  0  0  0  0  0  0  0  0  0  0  0
    4.7130  -10.5176   28.3007 N   0  0  0  0  0  0  0  0  0  0  0  0
    8.7779  -15.2808   26.2445 C   0  0  0  0  0  0  0  0  0  0  0  0
    9.3904  -14.7342   27.1971 O   0  0  0  0  0  0  0  0  0  0  0  0
    8.6259  -16.6594   26.2966 O   0  0  0  0  0  0  0  0  0  0  0  0
  1  5  1  0
  1  2  1  0
  2  3  1  0
  3  4  1  0
  5  4  1  0
  6 10  1  0
  5  6  1  1
  7  6  2  0
  9 11  1  0
  9  8  1  1
  9 10  1  0
 11 13  1  0
 12 11  2  0
 13 14  1  0
 14 15  1  1
 15 16  1  0
 16 17  1  0
 18 17  1  0
 19 18  1  0
 20 14  1  0
 21 20  2  0
 22 20  1  0
M  END
$$$$
