PAK.pdb
     RDKit          3D

 22 22  0  0  1  0  0  0  0  0999 V2000
    7.0514  -17.9368   18.9152 N   0  0  0  0  0  0  0  0  0  0  0  0
    6.3668  -17.8283   17.6425 C   0  0  0  0  0  0  0  0  0  0  0  0
    7.4867  -18.2222   16.6788 C   0  0  0  0  0  0  0  0  0  0  0  0
    8.6225  -17.3611   17.2266 C   0  0  0  0  0  0  0  0  0  0  0  0
    8.4037  -17.5241   18.7290 C   0  0  1  0  0  0  0  0  0  0  0  0
    8.6238  -16.2271   19.4039 C   0  0  0  0  0  0  0  0  0  0  0  0
    9.7756  -15.8572   19.6644 O   0  0  0  0  0  0  0  0  0  0  0  0
    6.5701  -13.1892   20.3703 C   0  0  0  0  0  0  0  0  0  0  0  0
    7.7469  -14.1249   20.4673 C   0  0  2  0  0  0  0  0  0  0  0  0
    7.5508  -15.3600   19.7790 N   0  0  0  0  0  0  0  0  0  0  0  0
    8.0380  -14.3258   21.9221 C   0  0  0  0  0  0  0  0  0  0  0  0
    8.3581  -13.3656   22.6712 O   0  0  0  0  0  0  0  0  0  0  0  0
    7.9624  -15.6118   22.5091 N   0  0  0  0  0  0  0  0  0  0  0  0
    8.2356  -15.8794   23.9075 C   0  0  1  0  0  0  0  0  0  0  0  0
    7.5850  -17.1877   24.3376 C   0  0  0  0  0  0  0  0  0  0  0  0
    7.8993  -17.4974   25.7804 C   0  0  0  0  0  0  0  0  0  0  0  0
    7.4263  -18.8295   26.2265 C   0  0  0  0  0  0  0  0  0  0  0  0
    7.5517  -19.0755   27.7035 C   0  0  0  0  0  0  0  0  0  0  0  0
    7.0520  -20.3724   28.0728 N   0  0  0  0  0  0  0  0  0  0  0  0
    9.7048  -15.9230   24.0763 C   0  0  0  0  0  0  0  0  0  0  0  0
   10.3002  -15.7208   25.1653 O   0  0  0  0  0  0  0  0  0  0  0  0
   10.4903  -16.2047   22.9672 O   0  0  0  0  0  0  0  0  0  0  0  0
  1  5  1  0
  1  2  1  0
  2  3  1  0
  3  4  1  0
  5  4  1  0
  6 10  1  0
  5  6  1  1
  7  6  2  0
  9 11  1  0
  9  8  1  1
  9 10  1  0
 11 13  1  0
 12 11  2  0
 13 14  1  0
 14 15  1  6
 15 16  1  0
 16 17  1  0
 18 17  1  0
 19 18  1  0
 20 14  1  0
 21 20  2  0
 22 20  1  0
M  END
$$$$
