PAK.pdb
     RDKit          3D

 22 22  0  0  1  0  0  0  0  0999 V2000
    7.0495  -14.8056   21.3441 N   0  0  0  0  0  0  0  0  0  0  0  0
    6.3869  -13.8559   20.4727 C   0  0  0  0  0  0  0  0  0  0  0  0
    7.4976  -13.5698   19.4615 C   0  0  0  0  0  0  0  0  0  0  0  0
    8.6681  -13.3343   20.4133 C   0  0  0  0  0  0  0  0  0  0  0  0
    8.4228  -14.4347   21.4432 C   0  0  1  0  0  0  0  0  0  0  0  0
    8.6992  -13.9131   22.7988 C   0  0  0  0  0  0  0  0  0  0  0  0
    9.8684  -13.7321   23.1615 O   0  0  0  0  0  0  0  0  0  0  0  0
    6.7709  -12.4878   25.7298 C   0  0  0  0  0  0  0  0  0  0  0  0
    7.9148  -13.2280   25.0867 C   0  0  2  0  0  0  0  0  0  0  0  0
    7.6621  -13.6006   23.7320 N   0  0  0  0  0  0  0  0  0  0  0  0
    8.2239  -14.4098   25.9523 C   0  0  0  0  0  0  0  0  0  0  0  0
    7.4076  -15.3583   26.0925 O   0  0  0  0  0  0  0  0  0  0  0  0
    9.4536  -14.5015   26.6477 N   0  0  0  0  0  0  0  0  0  0  0  0
    9.8336  -15.6315   27.4724 C   0  0  1  0  0  0  0  0  0  0  0  0
   11.0466  -16.3389   26.8825 C   0  0  0  0  0  0  0  0  0  0  0  0
   10.6819  -17.0651   25.6113 C   0  0  0  0  0  0  0  0  0  0  0  0
   11.8174  -17.7776   24.9786 C   0  0  0  0  0  0  0  0  0  0  0  0
   11.4901  -18.4377   23.6691 C   0  0  0  0  0  0  0  0  0  0  0  0
   12.6293  -19.1188   23.1155 N   0  0  0  0  0  0  0  0  0  0  0  0
   10.1123  -15.1196   28.8324 C   0  0  0  0  0  0  0  0  0  0  0  0
   10.1783  -13.9001   29.1317 O   0  0  0  0  0  0  0  0  0  0  0  0
   10.3163  -16.0353   29.8552 O   0  0  0  0  0  0  0  0  0  0  0  0
  1  5  1  0
  1  2  1  0
  2  3  1  0
  3  4  1  0
  5  4  1  0
  6 10  1  0
  5  6  1  1
  7  6  2  0
  9 11  1  0
  9  8  1  1
  9 10  1  0
 11 13  1  0
 12 11  2  0
 13 14  1  0
 14 15  1  6
 15 16  1  0
 16 17  1  0
 18 17  1  0
 19 18  1  0
 20 14  1  0
 21 20  2  0
 22 20  1  0
M  END
$$$$
