PAK.pdb
     RDKit          3D

 22 22  0  0  1  0  0  0  0  0999 V2000
    8.3625  -15.3168   18.6166 N   0  0  0  0  0  0  0  0  0  0  0  0
    7.1811  -14.7869   17.9655 C   0  0  0  0  0  0  0  0  0  0  0  0
    7.7960  -13.6759   17.1135 C   0  0  0  0  0  0  0  0  0  0  0  0
    8.6908  -13.0080   18.1551 C   0  0  0  0  0  0  0  0  0  0  0  0
    9.2516  -14.2323   18.8751 C   0  0  1  0  0  0  0  0  0  0  0  0
    9.3037  -13.9695   20.3292 C   0  0  0  0  0  0  0  0  0  0  0  0
   10.2196  -13.2814   20.7972 O   0  0  0  0  0  0  0  0  0  0  0  0
    6.9980  -14.2870   23.2945 C   0  0  0  0  0  0  0  0  0  0  0  0
    8.3550  -14.2156   22.6440 C   0  0  2  0  0  0  0  0  0  0  0  0
    8.3290  -14.4808   21.2415 N   0  0  0  0  0  0  0  0  0  0  0  0
    9.2538  -15.1575   23.3832 C   0  0  0  0  0  0  0  0  0  0  0  0
    9.3482  -15.1331   24.6387 O   0  0  0  0  0  0  0  0  0  0  0  0
   10.0338  -16.1145   22.6905 N   0  0  0  0  0  0  0  0  0  0  0  0
   10.8217  -17.1411   23.3440 C   0  0  1  0  0  0  0  0  0  0  0  0
   10.7742  -18.4384   22.5473 C   0  0  0  0  0  0  0  0  0  0  0  0
   11.6308  -19.4993   23.1931 C   0  0  0  0  0  0  0  0  0  0  0  0
   11.6496  -20.7867   22.4586 C   0  0  0  0  0  0  0  0  0  0  0  0
   12.4276  -21.8807   23.1336 C   0  0  0  0  0  0  0  0  0  0  0  0
   12.5212  -23.0555   22.3093 N   0  0  0  0  0  0  0  0  0  0  0  0
   12.2052  -16.6318   23.4693 C   0  0  0  0  0  0  0  0  0  0  0  0
   12.7395  -15.8246   22.6668 O   0  0  0  0  0  0  0  0  0  0  0  0
   12.9757  -17.0655   24.5391 O   0  0  0  0  0  0  0  0  0  0  0  0
  1  5  1  0
  1  2  1  0
  2  3  1  0
  3  4  1  0
  5  4  1  0
  6 10  1  0
  5  6  1  1
  7  6  2  0
  9 11  1  0
  9  8  1  1
  9 10  1  0
 11 13  1  0
 12 11  2  0
 13 14  1  0
 14 15  1  6
 15 16  1  0
 16 17  1  0
 18 17  1  0
 19 18  1  0
 20 14  1  0
 21 20  2  0
 22 20  1  0
M  END
$$$$
