PAK.pdb
     RDKit          3D

 22 22  0  0  1  0  0  0  0  0999 V2000
    8.4030  -14.8026   18.9019 N   0  0  0  0  0  0  0  0  0  0  0  0
    7.2636  -14.0894   18.3602 C   0  0  0  0  0  0  0  0  0  0  0  0
    7.6788  -12.6415   18.6235 C   0  0  0  0  0  0  0  0  0  0  0  0
    8.1281  -12.7553   20.0784 C   0  0  0  0  0  0  0  0  0  0  0  0
    8.8738  -14.0874   20.0422 C   0  0  1  0  0  0  0  0  0  0  0  0
    8.5723  -14.8558   21.2689 C   0  0  0  0  0  0  0  0  0  0  0  0
    7.6369  -14.5056   21.9996 O   0  0  0  0  0  0  0  0  0  0  0  0
    9.7035  -18.0884   22.9067 C   0  0  0  0  0  0  0  0  0  0  0  0
    9.0929  -16.7113   22.8829 C   0  0  2  0  0  0  0  0  0  0  0  0
    9.3224  -16.0075   21.6623 N   0  0  0  0  0  0  0  0  0  0  0  0
    9.6182  -15.9701   24.0730 C   0  0  0  0  0  0  0  0  0  0  0  0
   10.7387  -15.3958   24.0525 O   0  0  0  0  0  0  0  0  0  0  0  0
    8.8674  -15.8893   25.2703 N   0  0  0  0  0  0  0  0  0  0  0  0
    9.3259  -15.2131   26.4679 C   0  0  1  0  0  0  0  0  0  0  0  0
    8.1878  -14.4273   27.1061 C   0  0  0  0  0  0  0  0  0  0  0  0
    7.7421  -13.2992   26.2089 C   0  0  0  0  0  0  0  0  0  0  0  0
    6.5744  -12.5458   26.7247 C   0  0  0  0  0  0  0  0  0  0  0  0
    6.1716  -11.3655   25.8867 C   0  0  0  0  0  0  0  0  0  0  0  0
    4.9688  -10.7484   26.3772 N   0  0  0  0  0  0  0  0  0  0  0  0
    9.8569  -16.2429   27.3880 C   0  0  0  0  0  0  0  0  0  0  0  0
    9.6051  -17.4716   27.2990 O   0  0  0  0  0  0  0  0  0  0  0  0
   10.6896  -15.8398   28.4227 O   0  0  0  0  0  0  0  0  0  0  0  0
  1  5  1  0
  1  2  1  0
  2  3  1  0
  3  4  1  0
  5  4  1  0
  6 10  1  0
  5  6  1  1
  7  6  2  0
  9 11  1  0
  9  8  1  6
  9 10  1  0
 11 13  1  0
 12 11  2  0
 13 14  1  0
 14 15  1  1
 15 16  1  0
 16 17  1  0
 18 17  1  0
 19 18  1  0
 20 14  1  0
 21 20  2  0
 22 20  1  0
M  END
$$$$
