PAK.pdb
     RDKit          3D

 22 22  0  0  1  0  0  0  0  0999 V2000
    7.1571  -14.9263   19.7768 N   0  0  0  0  0  0  0  0  0  0  0  0
    6.3545  -13.7520   19.4994 C   0  0  0  0  0  0  0  0  0  0  0  0
    7.2717  -12.9975   18.5363 C   0  0  0  0  0  0  0  0  0  0  0  0
    8.5913  -13.0917   19.2988 C   0  0  0  0  0  0  0  0  0  0  0  0
    8.5275  -14.5325   19.8004 C   0  0  1  0  0  0  0  0  0  0  0  0
    9.0381  -14.5961   21.1865 C   0  0  0  0  0  0  0  0  0  0  0  0
   10.2582  -14.6184   21.3920 O   0  0  0  0  0  0  0  0  0  0  0  0
    7.7273  -14.0380   24.6642 C   0  0  0  0  0  0  0  0  0  0  0  0
    8.6555  -14.6849   23.6694 C   0  0  2  0  0  0  0  0  0  0  0  0
    8.1755  -14.6341   22.3260 N   0  0  0  0  0  0  0  0  0  0  0  0
    8.8981  -16.0877   24.1329 C   0  0  0  0  0  0  0  0  0  0  0  0
    7.9554  -16.9114   24.2692 O   0  0  0  0  0  0  0  0  0  0  0  0
   10.2053  -16.5388   24.4358 N   0  0  0  0  0  0  0  0  0  0  0  0
   10.5176  -17.8926   24.8500 C   0  0  1  0  0  0  0  0  0  0  0  0
   11.6898  -18.4398   24.0461 C   0  0  0  0  0  0  0  0  0  0  0  0
   11.3604  -18.4837   22.5744 C   0  0  0  0  0  0  0  0  0  0  0  0
   12.4789  -18.9510   21.7213 C   0  0  0  0  0  0  0  0  0  0  0  0
   12.2039  -18.8986   20.2451 C   0  0  0  0  0  0  0  0  0  0  0  0
   13.3455  -19.3126   19.4746 N   0  0  0  0  0  0  0  0  0  0  0  0
   10.8212  -17.8589   26.2977 C   0  0  0  0  0  0  0  0  0  0  0  0
   11.0182  -16.8065   26.9571 O   0  0  0  0  0  0  0  0  0  0  0  0
   10.8966  -19.0617   26.9862 O   0  0  0  0  0  0  0  0  0  0  0  0
  1  5  1  0
  1  2  1  0
  2  3  1  0
  3  4  1  0
  5  4  1  0
  6 10  1  0
  5  6  1  1
  7  6  2  0
  9 11  1  0
  9  8  1  1
  9 10  1  0
 11 13  1  0
 12 11  2  0
 13 14  1  0
 14 15  1  6
 15 16  1  0
 16 17  1  0
 18 17  1  0
 19 18  1  0
 20 14  1  0
 21 20  2  0
 22 20  1  0
M  END
$$$$
