PAK.pdb
     RDKit          3D

 22 22  0  0  1  0  0  0  0  0999 V2000
    9.1868  -14.1925   17.8738 N   0  0  0  0  0  0  0  0  0  0  0  0
    8.1072  -14.0864   16.9128 C   0  0  0  0  0  0  0  0  0  0  0  0
    7.5901  -12.6795   17.2151 C   0  0  0  0  0  0  0  0  0  0  0  0
    7.5070  -12.7496   18.7382 C   0  0  0  0  0  0  0  0  0  0  0  0
    8.7962  -13.5023   19.0589 C   0  0  1  0  0  0  0  0  0  0  0  0
    8.5426  -14.4781   20.1404 C   0  0  0  0  0  0  0  0  0  0  0  0
    8.1069  -14.0879   21.2310 O   0  0  0  0  0  0  0  0  0  0  0  0
    8.8772  -18.2431   20.6413 C   0  0  0  0  0  0  0  0  0  0  0  0
    8.7069  -16.8085   21.0686 C   0  0  2  0  0  0  0  0  0  0  0  0
    8.7803  -15.8795   19.9872 N   0  0  0  0  0  0  0  0  0  0  0  0
    9.7324  -16.5330   22.1242 C   0  0  0  0  0  0  0  0  0  0  0  0
   10.8959  -16.1504   21.8318 O   0  0  0  0  0  0  0  0  0  0  0  0
    9.4262  -16.6946   23.4968 N   0  0  0  0  0  0  0  0  0  0  0  0
   10.3319  -16.3454   24.5736 C   0  0  1  0  0  0  0  0  0  0  0  0
    9.5637  -15.7434   25.7430 C   0  0  0  0  0  0  0  0  0  0  0  0
   10.4923  -15.4140   26.8856 C   0  0  0  0  0  0  0  0  0  0  0  0
    9.8039  -14.8833   28.0863 C   0  0  0  0  0  0  0  0  0  0  0  0
   10.7129  -14.5692   29.2409 C   0  0  0  0  0  0  0  0  0  0  0  0
    9.9870  -14.0343   30.3612 N   0  0  0  0  0  0  0  0  0  0  0  0
   11.0495  -17.5764   24.9721 C   0  0  0  0  0  0  0  0  0  0  0  0
   10.5612  -18.7335   24.9111 O   0  0  0  0  0  0  0  0  0  0  0  0
   12.3487  -17.4608   25.4464 O   0  0  0  0  0  0  0  0  0  0  0  0
  1  5  1  0
  1  2  1  0
  2  3  1  0
  3  4  1  0
  5  4  1  0
  6 10  1  0
  5  6  1  1
  7  6  2  0
  9 11  1  0
  9  8  1  6
  9 10  1  0
 11 13  1  0
 12 11  2  0
 13 14  1  0
 14 15  1  1
 15 16  1  0
 16 17  1  0
 18 17  1  0
 19 18  1  0
 20 14  1  0
 21 20  2  0
 22 20  1  0
M  END
$$$$
