PAK.pdb
     RDKit          3D

 22 22  0  0  1  0  0  0  0  0999 V2000
    8.1892  -13.2742   21.4771 N   0  0  0  0  0  0  0  0  0  0  0  0
    8.4033  -13.0224   20.0660 C   0  0  0  0  0  0  0  0  0  0  0  0
    7.0579  -13.4627   19.4878 C   0  0  0  0  0  0  0  0  0  0  0  0
    6.8882  -14.8016   20.2021 C   0  0  0  0  0  0  0  0  0  0  0  0
    7.3790  -14.4410   21.6024 C   0  0  1  0  0  0  0  0  0  0  0  0
    8.1903  -15.5525   22.1430 C   0  0  0  0  0  0  0  0  0  0  0  0
    7.6575  -16.6440   22.3803 O   0  0  0  0  0  0  0  0  0  0  0  0
   11.7425  -16.5888   22.2142 C   0  0  0  0  0  0  0  0  0  0  0  0
   10.3946  -16.5082   22.8823 C   0  0  2  0  0  0  0  0  0  0  0  0
    9.5891  -15.4280   22.4113 N   0  0  0  0  0  0  0  0  0  0  0  0
   10.6325  -16.4372   24.3588 C   0  0  0  0  0  0  0  0  0  0  0  0
   11.4233  -17.2263   24.9399 O   0  0  0  0  0  0  0  0  0  0  0  0
    9.9715  -15.4731   25.1574 N   0  0  0  0  0  0  0  0  0  0  0  0
   10.1547  -15.3472   26.5900 C   0  0  1  0  0  0  0  0  0  0  0  0
    9.3332  -14.1853   27.1330 C   0  0  0  0  0  0  0  0  0  0  0  0
    8.2008  -13.8418   26.1971 C   0  0  0  0  0  0  0  0  0  0  0  0
    7.2932  -12.7890   26.7119 C   0  0  0  0  0  0  0  0  0  0  0  0
    6.1416  -12.4576   25.8053 C   0  0  0  0  0  0  0  0  0  0  0  0
    5.3172  -11.4128   26.3501 N   0  0  0  0  0  0  0  0  0  0  0  0
    9.7532  -16.6306   27.2071 C   0  0  0  0  0  0  0  0  0  0  0  0
    9.0347  -17.4949   26.6434 O   0  0  0  0  0  0  0  0  0  0  0  0
   10.1918  -16.9122   28.4935 O   0  0  0  0  0  0  0  0  0  0  0  0
  1  5  1  0
  1  2  1  0
  2  3  1  0
  3  4  1  0
  5  4  1  0
  6 10  1  0
  5  6  1  6
  7  6  2  0
  9 11  1  0
  9  8  1  6
  9 10  1  0
 11 13  1  0
 12 11  2  0
 13 14  1  0
 14 15  1  1
 15 16  1  0
 16 17  1  0
 18 17  1  0
 19 18  1  0
 20 14  1  0
 21 20  2  0
 22 20  1  0
M  END
$$$$
