PAK.pdb
     RDKit          3D

 22 22  0  0  1  0  0  0  0  0999 V2000
    8.2615  -18.5405   18.8227 N   0  0  0  0  0  0  0  0  0  0  0  0
    7.0758  -18.7756   18.0232 C   0  0  0  0  0  0  0  0  0  0  0  0
    7.5768  -18.3650   16.6380 C   0  0  0  0  0  0  0  0  0  0  0  0
    8.2467  -17.0366   16.9817 C   0  0  0  0  0  0  0  0  0  0  0  0
    8.9311  -17.3957   18.2987 C   0  0  1  0  0  0  0  0  0  0  0  0
    8.8014  -16.2682   19.2463 C   0  0  0  0  0  0  0  0  0  0  0  0
    9.4308  -15.2216   19.0466 O   0  0  0  0  0  0  0  0  0  0  0  0
    6.5736  -15.2844   22.1365 C   0  0  0  0  0  0  0  0  0  0  0  0
    7.8538  -15.2552   21.3427 C   0  0  2  0  0  0  0  0  0  0  0  0
    7.9680  -16.3268   20.4065 N   0  0  0  0  0  0  0  0  0  0  0  0
    8.9855  -15.2345   22.3227 C   0  0  0  0  0  0  0  0  0  0  0  0
   10.1602  -14.9488   21.9702 O   0  0  0  0  0  0  0  0  0  0  0  0
    8.7716  -15.5378   23.6888 N   0  0  0  0  0  0  0  0  0  0  0  0
    9.7944  -15.4298   24.7106 C   0  0  1  0  0  0  0  0  0  0  0  0
    9.1888  -14.9506   26.0234 C   0  0  0  0  0  0  0  0  0  0  0  0
   10.2356  -14.8854   27.1080 C   0  0  0  0  0  0  0  0  0  0  0  0
    9.7192  -14.4132   28.4148 C   0  0  0  0  0  0  0  0  0  0  0  0
   10.7612  -14.2850   29.4897 C   0  0  0  0  0  0  0  0  0  0  0  0
   10.1997  -13.8013   30.7221 N   0  0  0  0  0  0  0  0  0  0  0  0
   10.4231  -16.7610   24.8571 C   0  0  0  0  0  0  0  0  0  0  0  0
    9.8146  -17.8524   24.7167 O   0  0  0  0  0  0  0  0  0  0  0  0
   11.7738  -16.8242   25.1703 O   0  0  0  0  0  0  0  0  0  0  0  0
  1  5  1  0
  1  2  1  0
  2  3  1  0
  3  4  1  0
  5  4  1  0
  6 10  1  0
  5  6  1  1
  7  6  2  0
  9 11  1  0
  9  8  1  1
  9 10  1  0
 11 13  1  0
 12 11  2  0
 13 14  1  0
 14 15  1  1
 15 16  1  0
 16 17  1  0
 18 17  1  0
 19 18  1  0
 20 14  1  0
 21 20  2  0
 22 20  1  0
M  END
$$$$
