VGT.pdb
     RDKit          3D

 19 18  0  0  1  0  0  0  0  0999 V2000
    7.0833  -12.7773   19.1665 C   0  0  0  0  0  0  0  0  0  0  0  0
    8.5478  -13.1583   19.1950 C   0  0  2  0  0  0  0  0  0  0  0  0
    9.2111  -12.5622   17.9994 C   0  0  0  0  0  0  0  0  0  0  0  0
    8.7562  -14.6289   19.3630 C   0  0  2  0  0  0  0  0  0  0  0  0
    8.3431  -15.3207   18.1614 N   0  0  0  0  0  0  0  0  0  0  0  0
    8.0691  -15.2071   20.5295 C   0  0  0  0  0  0  0  0  0  0  0  0
    7.1188  -16.0492   20.4129 O   0  0  0  0  0  0  0  0  0  0  0  0
    8.4248  -14.8605   21.8464 N   0  0  0  0  0  0  0  0  0  0  0  0
    7.6598  -15.3591   22.9998 C   0  0  0  0  0  0  0  0  0  0  0  0
    8.2313  -14.8605   24.2654 C   0  0  0  0  0  0  0  0  0  0  0  0
    9.4676  -14.6423   24.3195 O   0  0  0  0  0  0  0  0  0  0  0  0
    7.0931  -11.7684   26.1885 C   0  0  0  0  0  0  0  0  0  0  0  0
    7.0608  -12.9533   27.0972 C   0  0  1  0  0  0  0  0  0  0  0  0
    5.7406  -13.4530   27.1631 O   0  0  0  0  0  0  0  0  0  0  0  0
    7.9588  -14.0824   26.6458 C   0  0  2  0  0  0  0  0  0  0  0  0
    7.4635  -14.6167   25.4151 N   0  0  0  0  0  0  0  0  0  0  0  0
    8.1942  -15.0802   27.6840 C   0  0  0  0  0  0  0  0  0  0  0  0
    7.8003  -16.2624   27.5588 O   0  0  0  0  0  0  0  0  0  0  0  0
    8.8664  -14.7314   28.8405 O   0  0  0  0  0  0  0  0  0  0  0  0
  2  1  1  6
  2  4  1  0
  3  2  1  0
  4  5  1  6
  6  4  1  0
  6  7  2  0
  8  6  1  0
  9  8  1  0
  9 10  1  0
 10 11  2  0
 10 16  1  0
 13 12  1  6
 13 15  1  0
 14 13  1  0
 15 17  1  0
 15 16  1  6
 17 18  2  0
 17 19  1  0
M  END
$$$$
