VGT.pdb
     RDKit          3D

 19 18  0  0  1  0  0  0  0  0999 V2000
    7.0722  -13.2213   17.9080 C   0  0  0  0  0  0  0  0  0  0  0  0
    8.3154  -13.5932   18.6871 C   0  0  2  0  0  0  0  0  0  0  0  0
    8.7027  -12.4296   19.5360 C   0  0  0  0  0  0  0  0  0  0  0  0
    9.4046  -14.1249   17.8124 C   0  0  2  0  0  0  0  0  0  0  0  0
    8.8505  -15.0583   16.8560 N   0  0  0  0  0  0  0  0  0  0  0  0
   10.5107  -14.7630   18.5450 C   0  0  0  0  0  0  0  0  0  0  0  0
   10.5746  -16.0242   18.7200 O   0  0  0  0  0  0  0  0  0  0  0  0
   11.5655  -14.0119   19.0964 N   0  0  0  0  0  0  0  0  0  0  0  0
   12.7101  -14.6676   19.7476 C   0  0  0  0  0  0  0  0  0  0  0  0
   12.3779  -15.0516   21.1330 C   0  0  0  0  0  0  0  0  0  0  0  0
   13.3143  -15.3771   21.9052 O   0  0  0  0  0  0  0  0  0  0  0  0
    8.9117  -13.7476   23.0279 C   0  0  0  0  0  0  0  0  0  0  0  0
    9.2251  -15.2013   23.1672 C   0  0  1  0  0  0  0  0  0  0  0  0
    8.4645  -15.9331   22.2275 O   0  0  0  0  0  0  0  0  0  0  0  0
   10.6826  -15.5276   22.9345 C   0  0  2  0  0  0  0  0  0  0  0  0
   11.0669  -15.0722   21.6343 N   0  0  0  0  0  0  0  0  0  0  0  0
   11.0097  -16.9237   23.2045 C   0  0  0  0  0  0  0  0  0  0  0  0
   11.3934  -17.6950   22.2956 O   0  0  0  0  0  0  0  0  0  0  0  0
   10.8994  -17.4254   24.4879 O   0  0  0  0  0  0  0  0  0  0  0  0
  2  1  1  6
  2  4  1  0
  3  2  1  0
  4  5  1  6
  6  4  1  0
  6  7  2  0
  8  6  1  0
  9  8  1  0
  9 10  1  0
 10 11  2  0
 10 16  1  0
 13 12  1  6
 13 15  1  0
 14 13  1  0
 15 17  1  0
 15 16  1  6
 17 18  2  0
 17 19  1  0
M  END
$$$$
