VGT.pdb
     RDKit          3D

 19 18  0  0  1  0  0  0  0  0999 V2000
    6.9715  -12.8818   19.2436 C   0  0  0  0  0  0  0  0  0  0  0  0
    8.4450  -13.2211   19.1758 C   0  0  2  0  0  0  0  0  0  0  0  0
    9.0037  -12.6377   17.9220 C   0  0  0  0  0  0  0  0  0  0  0  0
    8.7081  -14.6806   19.3631 C   0  0  2  0  0  0  0  0  0  0  0  0
    8.2905  -15.4069   18.1836 N   0  0  0  0  0  0  0  0  0  0  0  0
    8.0696  -15.2615   20.5556 C   0  0  0  0  0  0  0  0  0  0  0  0
    7.1244  -16.1134   20.4762 O   0  0  0  0  0  0  0  0  0  0  0  0
    8.4694  -14.9068   21.8576 N   0  0  0  0  0  0  0  0  0  0  0  0
    7.7643  -15.4250   23.0401 C   0  0  0  0  0  0  0  0  0  0  0  0
    8.3641  -14.9007   24.2821 C   0  0  0  0  0  0  0  0  0  0  0  0
    9.6144  -14.7908   24.3433 O   0  0  0  0  0  0  0  0  0  0  0  0
    7.0998  -11.6915   26.1464 C   0  0  0  0  0  0  0  0  0  0  0  0
    7.1967  -12.8531   27.0803 C   0  0  1  0  0  0  0  0  0  0  0  0
    5.9166  -13.4304   27.2387 O   0  0  0  0  0  0  0  0  0  0  0  0
    8.1341  -13.9364   26.5979 C   0  0  2  0  0  0  0  0  0  0  0  0
    7.6086  -14.5175   25.4014 N   0  0  0  0  0  0  0  0  0  0  0  0
    8.4790  -14.9025   27.6354 C   0  0  0  0  0  0  0  0  0  0  0  0
    9.0485  -14.5525   28.6944 O   0  0  0  0  0  0  0  0  0  0  0  0
    8.1780  -16.2408   27.4635 O   0  0  0  0  0  0  0  0  0  0  0  0
  2  1  1  6
  2  4  1  0
  3  2  1  0
  4  5  1  6
  6  4  1  0
  6  7  2  0
  8  6  1  0
  9  8  1  0
  9 10  1  0
 10 11  2  0
 10 16  1  0
 13 12  1  6
 13 15  1  0
 14 13  1  0
 15 17  1  0
 15 16  1  6
 17 18  2  0
 17 19  1  0
M  END
$$$$
