VGT.pdb
     RDKit          3D

 19 18  0  0  1  0  0  0  0  0999 V2000
    8.5266  -13.1295   17.6126 C   0  0  0  0  0  0  0  0  0  0  0  0
    7.9328  -13.5276   18.9467 C   0  0  2  0  0  0  0  0  0  0  0  0
    8.2037  -12.4354   19.9256 C   0  0  0  0  0  0  0  0  0  0  0  0
    8.3667  -14.8889   19.3859 C   0  0  2  0  0  0  0  0  0  0  0  0
    8.1216  -15.8443   18.3275 N   0  0  0  0  0  0  0  0  0  0  0  0
    7.7319  -15.3532   20.6304 C   0  0  0  0  0  0  0  0  0  0  0  0
    6.7170  -16.1248   20.6313 O   0  0  0  0  0  0  0  0  0  0  0  0
    8.2127  -14.9688   21.8960 N   0  0  0  0  0  0  0  0  0  0  0  0
    7.5635  -15.4325   23.1320 C   0  0  0  0  0  0  0  0  0  0  0  0
    8.1347  -14.7557   24.3121 C   0  0  0  0  0  0  0  0  0  0  0  0
    9.3775  -14.5756   24.3562 O   0  0  0  0  0  0  0  0  0  0  0  0
    6.4302  -11.5582   26.0820 C   0  0  0  0  0  0  0  0  0  0  0  0
    6.7755  -12.6547   27.0357 C   0  0  1  0  0  0  0  0  0  0  0  0
    5.6230  -13.4333   27.2860 O   0  0  0  0  0  0  0  0  0  0  0  0
    7.8545  -13.5806   26.5228 C   0  0  2  0  0  0  0  0  0  0  0  0
    7.3597  -14.3015   25.3909 N   0  0  0  0  0  0  0  0  0  0  0  0
    8.4347  -14.4208   27.5650 C   0  0  0  0  0  0  0  0  0  0  0  0
    8.3810  -15.6705   27.5056 O   0  0  0  0  0  0  0  0  0  0  0  0
    9.0629  -13.8418   28.6519 O   0  0  0  0  0  0  0  0  0  0  0  0
  2  1  1  6
  2  4  1  0
  3  2  1  0
  4  5  1  6
  6  4  1  0
  6  7  2  0
  8  6  1  0
  9  8  1  0
  9 10  1  0
 10 11  2  0
 10 16  1  0
 13 12  1  6
 13 15  1  0
 14 13  1  0
 15 17  1  0
 15 16  1  6
 17 18  2  0
 17 19  1  0
M  END
$$$$
