VGT.pdb
     RDKit          3D

 19 18  0  0  1  0  0  0  0  0999 V2000
    7.2961  -13.5047   20.7046 C   0  0  0  0  0  0  0  0  0  0  0  0
    8.5854  -13.0551   20.0515 C   0  0  2  0  0  0  0  0  0  0  0  0
    8.3349  -11.7552   19.3644 C   0  0  0  0  0  0  0  0  0  0  0  0
    9.1941  -14.1151   19.1912 C   0  0  2  0  0  0  0  0  0  0  0  0
    8.3892  -14.3016   18.0035 N   0  0  0  0  0  0  0  0  0  0  0  0
    9.3850  -15.4078   19.8692 C   0  0  0  0  0  0  0  0  0  0  0  0
    8.4083  -16.1676   20.1760 O   0  0  0  0  0  0  0  0  0  0  0  0
   10.6641  -15.8798   20.2188 N   0  0  0  0  0  0  0  0  0  0  0  0
   10.8327  -17.0681   21.0695 C   0  0  0  0  0  0  0  0  0  0  0  0
   11.7148  -16.7741   22.2152 C   0  0  0  0  0  0  0  0  0  0  0  0
   11.2047  -16.7039   23.3614 O   0  0  0  0  0  0  0  0  0  0  0  0
   14.7102  -18.8890   21.6632 C   0  0  0  0  0  0  0  0  0  0  0  0
   15.1917  -17.6936   22.4183 C   0  0  1  0  0  0  0  0  0  0  0  0
   15.8681  -16.8252   21.5320 O   0  0  0  0  0  0  0  0  0  0  0  0
   14.0793  -16.9079   23.0739 C   0  0  2  0  0  0  0  0  0  0  0  0
   13.0978  -16.5682   22.0906 N   0  0  0  0  0  0  0  0  0  0  0  0
   14.5601  -15.7769   23.8604 C   0  0  0  0  0  0  0  0  0  0  0  0
   14.2322  -14.6000   23.5852 O   0  0  0  0  0  0  0  0  0  0  0  0
   15.3985  -15.9895   24.9388 O   0  0  0  0  0  0  0  0  0  0  0  0
  2  1  1  6
  2  4  1  0
  3  2  1  0
  4  5  1  6
  6  4  1  0
  6  7  2  0
  8  6  1  0
  9  8  1  0
  9 10  1  0
 10 11  2  0
 10 16  1  0
 13 12  1  6
 13 15  1  0
 14 13  1  0
 15 17  1  0
 15 16  1  6
 17 18  2  0
 17 19  1  0
M  END
$$$$
