VGT.pdb
     RDKit          3D

 19 18  0  0  1  0  0  0  0  0999 V2000
    9.5614  -19.3748   23.6300 C   0  0  0  0  0  0  0  0  0  0  0  0
    8.6514  -20.5843   23.6264 C   0  0  2  0  0  0  0  0  0  0  0  0
    9.2551  -21.6230   22.7425 C   0  0  0  0  0  0  0  0  0  0  0  0
    7.2327  -20.2354   23.3102 C   0  0  2  0  0  0  0  0  0  0  0  0
    7.1395  -19.7594   21.9472 N   0  0  0  0  0  0  0  0  0  0  0  0
    6.6358  -19.2467   24.2231 C   0  0  0  0  0  0  0  0  0  0  0  0
    6.4138  -19.5007   25.4526 O   0  0  0  0  0  0  0  0  0  0  0  0
    6.2745  -17.9583   23.7868 N   0  0  0  0  0  0  0  0  0  0  0  0
    5.7441  -16.9562   24.7241 C   0  0  0  0  0  0  0  0  0  0  0  0
    6.7408  -15.8998   24.9844 C   0  0  0  0  0  0  0  0  0  0  0  0
    7.8557  -15.9735   24.4096 O   0  0  0  0  0  0  0  0  0  0  0  0
    5.4715  -12.3616   27.0522 C   0  0  0  0  0  0  0  0  0  0  0  0
    6.4459  -12.4163   25.9216 C   0  0  1  0  0  0  0  0  0  0  0  0
    7.2880  -11.2828   25.9783 O   0  0  0  0  0  0  0  0  0  0  0  0
    7.3256  -13.6454   25.9444 C   0  0  2  0  0  0  0  0  0  0  0  0
    6.5073  -14.8140   25.8430 N   0  0  0  0  0  0  0  0  0  0  0  0
    8.2623  -13.6615   27.0630 C   0  0  0  0  0  0  0  0  0  0  0  0
    8.1915  -14.5269   27.9654 O   0  0  0  0  0  0  0  0  0  0  0  0
    9.2588  -12.7069   27.1460 O   0  0  0  0  0  0  0  0  0  0  0  0
  2  1  1  6
  2  4  1  0
  3  2  1  0
  4  5  1  6
  6  4  1  0
  6  7  2  0
  8  6  1  0
  9  8  1  0
  9 10  1  0
 10 11  2  0
 10 16  1  0
 13 12  1  1
 13 15  1  0
 14 13  1  0
 15 17  1  0
 15 16  1  1
 17 18  2  0
 17 19  1  0
M  END
$$$$
