VGT.pdb
     RDKit          3D

 19 18  0  0  1  0  0  0  0  0999 V2000
   10.1013  -19.3499   23.3437 C   0  0  0  0  0  0  0  0  0  0  0  0
    9.0110  -18.3009   23.3863 C   0  0  2  0  0  0  0  0  0  0  0  0
    7.6910  -18.9943   23.3494 C   0  0  0  0  0  0  0  0  0  0  0  0
    9.1939  -17.2392   22.3501 C   0  0  2  0  0  0  0  0  0  0  0  0
    8.9834  -17.8010   21.0335 N   0  0  0  0  0  0  0  0  0  0  0  0
   10.5022  -16.5661   22.3990 C   0  0  0  0  0  0  0  0  0  0  0  0
   11.3997  -16.7549   21.5133 O   0  0  0  0  0  0  0  0  0  0  0  0
   10.8374  -15.6713   23.4324 N   0  0  0  0  0  0  0  0  0  0  0  0
   12.1726  -15.0584   23.5078 C   0  0  0  0  0  0  0  0  0  0  0  0
   13.1914  -16.0604   23.8757 C   0  0  0  0  0  0  0  0  0  0  0  0
   12.8652  -16.9860   24.6604 O   0  0  0  0  0  0  0  0  0  0  0  0
   15.6841  -17.6153   21.2698 C   0  0  0  0  0  0  0  0  0  0  0  0
   16.4186  -17.1745   22.4933 C   0  0  1  0  0  0  0  0  0  0  0  0
   17.0513  -15.9375   22.2355 O   0  0  0  0  0  0  0  0  0  0  0  0
   15.5250  -16.9925   23.6987 C   0  0  2  0  0  0  0  0  0  0  0  0
   14.5094  -16.0330   23.3932 N   0  0  0  0  0  0  0  0  0  0  0  0
   16.2640  -16.7170   24.9263 C   0  0  0  0  0  0  0  0  0  0  0  0
   16.1336  -15.6339   25.5412 O   0  0  0  0  0  0  0  0  0  0  0  0
   17.1336  -17.6619   25.4382 O   0  0  0  0  0  0  0  0  0  0  0  0
  2  1  1  6
  2  4  1  0
  3  2  1  0
  4  5  1  6
  6  4  1  0
  6  7  2  0
  8  6  1  0
  9  8  1  0
  9 10  1  0
 10 11  2  0
 10 16  1  0
 13 12  1  6
 13 15  1  0
 14 13  1  0
 15 17  1  0
 15 16  1  6
 17 18  2  0
 17 19  1  0
M  END
$$$$
