VGT.pdb
     RDKit          3D

 19 18  0  0  1  0  0  0  0  0999 V2000
    8.1265  -13.0880   17.9697 C   0  0  0  0  0  0  0  0  0  0  0  0
    7.7813  -13.4693   19.3932 C   0  0  2  0  0  0  0  0  0  0  0  0
    8.3788  -12.4548   20.3089 C   0  0  0  0  0  0  0  0  0  0  0  0
    8.1320  -14.8874   19.7097 C   0  0  2  0  0  0  0  0  0  0  0  0
    7.6031  -15.7612   18.6851 N   0  0  0  0  0  0  0  0  0  0  0  0
    7.6756  -15.3418   21.0335 C   0  0  0  0  0  0  0  0  0  0  0  0
    6.4470  -15.5639   21.2918 O   0  0  0  0  0  0  0  0  0  0  0  0
    8.5752  -15.5574   22.0942 N   0  0  0  0  0  0  0  0  0  0  0  0
    8.1000  -15.9493   23.4301 C   0  0  0  0  0  0  0  0  0  0  0  0
    8.4590  -14.9311   24.4358 C   0  0  0  0  0  0  0  0  0  0  0  0
    9.4841  -14.2313   24.2402 O   0  0  0  0  0  0  0  0  0  0  0  0
    6.4187  -11.9941   25.8710 C   0  0  0  0  0  0  0  0  0  0  0  0
    6.8149  -12.9384   26.9584 C   0  0  1  0  0  0  0  0  0  0  0  0
    5.7507  -13.8344   27.2068 O   0  0  0  0  0  0  0  0  0  0  0  0
    8.0400  -13.7589   26.6259 C   0  0  2  0  0  0  0  0  0  0  0  0
    7.7127  -14.7032   25.6027 N   0  0  0  0  0  0  0  0  0  0  0  0
    8.6782  -14.3419   27.8014 C   0  0  0  0  0  0  0  0  0  0  0  0
    8.8039  -15.5809   27.9328 O   0  0  0  0  0  0  0  0  0  0  0  0
    9.1619  -13.5231   28.8047 O   0  0  0  0  0  0  0  0  0  0  0  0
  2  1  1  6
  2  4  1  0
  3  2  1  0
  4  5  1  6
  6  4  1  0
  6  7  2  0
  8  6  1  0
  9  8  1  0
  9 10  1  0
 10 11  2  0
 10 16  1  0
 13 12  1  6
 13 15  1  0
 14 13  1  0
 15 17  1  0
 15 16  1  6
 17 18  2  0
 17 19  1  0
M  END
$$$$
