VGT.pdb
     RDKit          3D

 19 18  0  0  1  0  0  0  0  0999 V2000
    6.8960  -12.7908   20.8928 C   0  0  0  0  0  0  0  0  0  0  0  0
    8.2555  -13.1945   20.3640 C   0  0  2  0  0  0  0  0  0  0  0  0
    8.4381  -12.5770   19.0187 C   0  0  0  0  0  0  0  0  0  0  0  0
    8.4762  -14.6721   20.4139 C   0  0  2  0  0  0  0  0  0  0  0  0
    7.7191  -15.3143   19.3615 N   0  0  0  0  0  0  0  0  0  0  0  0
    8.1469  -15.2888   21.7094 C   0  0  0  0  0  0  0  0  0  0  0  0
    7.0012  -15.7921   21.9534 O   0  0  0  0  0  0  0  0  0  0  0  0
    9.0840  -15.3575   22.7573 N   0  0  0  0  0  0  0  0  0  0  0  0
    8.7178  -15.9018   24.0740 C   0  0  0  0  0  0  0  0  0  0  0  0
    9.7938  -15.6705   25.0567 C   0  0  0  0  0  0  0  0  0  0  0  0
   10.9198  -15.3036   24.6367 O   0  0  0  0  0  0  0  0  0  0  0  0
   10.1447  -13.1425   27.4464 C   0  0  0  0  0  0  0  0  0  0  0  0
   10.2481  -14.3958   28.2523 C   0  0  1  0  0  0  0  0  0  0  0  0
    9.0011  -14.6605   28.8623 O   0  0  0  0  0  0  0  0  0  0  0  0
   10.6270  -15.6083   27.4332 C   0  0  2  0  0  0  0  0  0  0  0  0
    9.6243  -15.8396   26.4399 N   0  0  0  0  0  0  0  0  0  0  0  0
   10.9479  -16.7754   28.2480 C   0  0  0  0  0  0  0  0  0  0  0  0
   11.9080  -16.7701   29.0521 O   0  0  0  0  0  0  0  0  0  0  0  0
   10.1854  -17.9238   28.1439 O   0  0  0  0  0  0  0  0  0  0  0  0
  2  1  1  6
  2  4  1  0
  3  2  1  0
  4  5  1  6
  6  4  1  0
  6  7  2  0
  8  6  1  0
  9  8  1  0
  9 10  1  0
 10 11  2  0
 10 16  1  0
 13 12  1  6
 13 15  1  0
 14 13  1  0
 15 17  1  0
 15 16  1  6
 17 18  2  0
 17 19  1  0
M  END
$$$$
