VGT.pdb
     RDKit          3D

 19 18  0  0  1  0  0  0  0  0999 V2000
   11.6066  -17.8055   19.7635 C   0  0  0  0  0  0  0  0  0  0  0  0
   10.7474  -16.9613   20.6802 C   0  0  2  0  0  0  0  0  0  0  0  0
   11.0816  -17.3117   22.0909 C   0  0  0  0  0  0  0  0  0  0  0  0
    9.2942  -17.0393   20.3393 C   0  0  2  0  0  0  0  0  0  0  0  0
    9.1120  -16.8063   18.9231 N   0  0  0  0  0  0  0  0  0  0  0  0
    8.4429  -16.1161   21.1076 C   0  0  0  0  0  0  0  0  0  0  0  0
    8.2759  -14.8990   20.7665 O   0  0  0  0  0  0  0  0  0  0  0  0
    7.7621  -16.5279   22.2685 N   0  0  0  0  0  0  0  0  0  0  0  0
    6.8891  -15.6042   23.0093 C   0  0  0  0  0  0  0  0  0  0  0  0
    7.6095  -14.9957   24.1442 C   0  0  0  0  0  0  0  0  0  0  0  0
    8.8128  -15.3082   24.3266 O   0  0  0  0  0  0  0  0  0  0  0  0
    6.5138  -11.2165   25.5975 C   0  0  0  0  0  0  0  0  0  0  0  0
    6.8060  -12.2815   26.6031 C   0  0  1  0  0  0  0  0  0  0  0  0
    5.5926  -12.8764   27.0163 O   0  0  0  0  0  0  0  0  0  0  0  0
    7.7005  -13.3792   26.0741 C   0  0  2  0  0  0  0  0  0  0  0  0
    7.0187  -14.0836   25.0328 N   0  0  0  0  0  0  0  0  0  0  0  0
    8.2437  -14.2346   27.1240 C   0  0  0  0  0  0  0  0  0  0  0  0
    8.0121  -15.4649   27.1529 O   0  0  0  0  0  0  0  0  0  0  0  0
    9.0352  -13.6921   28.1192 O   0  0  0  0  0  0  0  0  0  0  0  0
  2  1  1  6
  2  4  1  0
  3  2  1  0
  4  5  1  6
  6  4  1  0
  6  7  2  0
  8  6  1  0
  9  8  1  0
  9 10  1  0
 10 11  2  0
 10 16  1  0
 13 12  1  6
 13 15  1  0
 14 13  1  0
 15 17  1  0
 15 16  1  6
 17 18  2  0
 17 19  1  0
M  END
$$$$
