VGT.pdb
     RDKit          3D

 19 18  0  0  1  0  0  0  0  0999 V2000
    7.5411  -12.7231   21.3033 C   0  0  0  0  0  0  0  0  0  0  0  0
    8.2753  -13.3392   20.1318 C   0  0  2  0  0  0  0  0  0  0  0  0
    7.7078  -12.7749   18.8731 C   0  0  0  0  0  0  0  0  0  0  0  0
    8.3073  -14.8323   20.1943 C   0  0  2  0  0  0  0  0  0  0  0  0
    6.9573  -15.3513   20.1579 N   0  0  0  0  0  0  0  0  0  0  0  0
    9.0154  -15.3730   21.3663 C   0  0  0  0  0  0  0  0  0  0  0  0
   10.2779  -15.2671   21.5087 O   0  0  0  0  0  0  0  0  0  0  0  0
    8.3341  -16.0408   22.4010 N   0  0  0  0  0  0  0  0  0  0  0  0
    9.0603  -16.6314   23.5358 C   0  0  0  0  0  0  0  0  0  0  0  0
    9.4723  -15.5898   24.4963 C   0  0  0  0  0  0  0  0  0  0  0  0
   10.2672  -14.6976   24.1078 O   0  0  0  0  0  0  0  0  0  0  0  0
    8.2123  -12.7031   26.2224 C   0  0  0  0  0  0  0  0  0  0  0  0
    8.5349  -13.7024   27.2846 C   0  0  1  0  0  0  0  0  0  0  0  0
    7.3591  -14.4026   27.6369 O   0  0  0  0  0  0  0  0  0  0  0  0
    9.5676  -14.7209   26.8589 C   0  0  2  0  0  0  0  0  0  0  0  0
    9.0210  -15.5439   25.8247 N   0  0  0  0  0  0  0  0  0  0  0  0
   10.1407  -15.4612   27.9779 C   0  0  0  0  0  0  0  0  0  0  0  0
   10.0337  -16.7060   28.0643 O   0  0  0  0  0  0  0  0  0  0  0  0
   10.8216  -14.7901   28.9765 O   0  0  0  0  0  0  0  0  0  0  0  0
  2  1  1  1
  2  4  1  0
  3  2  1  0
  4  5  1  1
  6  4  1  0
  6  7  2  0
  8  6  1  0
  9  8  1  0
  9 10  1  0
 10 11  2  0
 10 16  1  0
 13 12  1  6
 13 15  1  0
 14 13  1  0
 15 17  1  0
 15 16  1  6
 17 18  2  0
 17 19  1  0
M  END
$$$$
