VGT.pdb
     RDKit          3D

 19 18  0  0  1  0  0  0  0  0999 V2000
    6.6234  -13.8909   18.6616 C   0  0  0  0  0  0  0  0  0  0  0  0
    7.9191  -13.1835   18.9956 C   0  0  2  0  0  0  0  0  0  0  0  0
    8.6027  -12.8285   17.7184 C   0  0  0  0  0  0  0  0  0  0  0  0
    8.7581  -13.9490   19.9674 C   0  0  2  0  0  0  0  0  0  0  0  0
    9.0942  -15.2411   19.4100 N   0  0  0  0  0  0  0  0  0  0  0  0
    8.1398  -14.1255   21.2917 C   0  0  0  0  0  0  0  0  0  0  0  0
    7.9035  -13.1439   22.0701 O   0  0  0  0  0  0  0  0  0  0  0  0
    7.7728  -15.3954   21.7752 N   0  0  0  0  0  0  0  0  0  0  0  0
    7.0902  -15.5512   23.0690 C   0  0  0  0  0  0  0  0  0  0  0  0
    7.8873  -14.9570   24.1593 C   0  0  0  0  0  0  0  0  0  0  0  0
    9.1188  -14.7867   23.9767 O   0  0  0  0  0  0  0  0  0  0  0  0
    6.9008  -11.7085   26.2245 C   0  0  0  0  0  0  0  0  0  0  0  0
    7.1630  -12.8916   27.0976 C   0  0  1  0  0  0  0  0  0  0  0  0
    5.9357  -13.5153   27.4166 O   0  0  0  0  0  0  0  0  0  0  0  0
    8.0534  -13.9294   26.4533 C   0  0  2  0  0  0  0  0  0  0  0  0
    7.3398  -14.5713   25.3930 N   0  0  0  0  0  0  0  0  0  0  0  0
    8.6567  -14.8463   27.4145 C   0  0  0  0  0  0  0  0  0  0  0  0
    8.4653  -16.0823   27.3512 O   0  0  0  0  0  0  0  0  0  0  0  0
    9.4620  -14.3579   28.4265 O   0  0  0  0  0  0  0  0  0  0  0  0
  2  1  1  6
  2  4  1  0
  3  2  1  0
  4  5  1  6
  6  4  1  0
  6  7  2  0
  8  6  1  0
  9  8  1  0
  9 10  1  0
 10 11  2  0
 10 16  1  0
 13 12  1  6
 13 15  1  0
 14 13  1  0
 15 17  1  0
 15 16  1  6
 17 18  2  0
 17 19  1  0
M  END
$$$$
