VGT.pdb
     RDKit          3D

 19 18  0  0  1  0  0  0  0  0999 V2000
    6.9071  -14.1311   18.1858 C   0  0  0  0  0  0  0  0  0  0  0  0
    8.2555  -13.5303   18.5203 C   0  0  2  0  0  0  0  0  0  0  0  0
    9.0832  -13.5149   17.2796 C   0  0  0  0  0  0  0  0  0  0  0  0
    8.9001  -14.1851   19.6993 C   0  0  2  0  0  0  0  0  0  0  0  0
    9.1343  -15.5838   19.4131 N   0  0  0  0  0  0  0  0  0  0  0  0
    8.1395  -14.0557   20.9530 C   0  0  0  0  0  0  0  0  0  0  0  0
    7.9527  -12.9312   21.5242 O   0  0  0  0  0  0  0  0  0  0  0  0
    7.5728  -15.1727   21.5950 N   0  0  0  0  0  0  0  0  0  0  0  0
    6.7594  -15.0223   22.8114 C   0  0  0  0  0  0  0  0  0  0  0  0
    7.5924  -14.5954   23.9520 C   0  0  0  0  0  0  0  0  0  0  0  0
    8.8377  -14.5357   23.7949 O   0  0  0  0  0  0  0  0  0  0  0  0
    6.7491  -11.3973   26.1612 C   0  0  0  0  0  0  0  0  0  0  0  0
    6.9490  -12.6337   26.9749 C   0  0  1  0  0  0  0  0  0  0  0  0
    5.6920  -13.2189   27.2480 O   0  0  0  0  0  0  0  0  0  0  0  0
    7.8023  -13.6749   26.2875 C   0  0  2  0  0  0  0  0  0  0  0  0
    7.0646  -14.2517   25.2065 N   0  0  0  0  0  0  0  0  0  0  0  0
    8.3778  -14.6476   27.2104 C   0  0  0  0  0  0  0  0  0  0  0  0
    8.1592  -15.8748   27.0903 O   0  0  0  0  0  0  0  0  0  0  0  0
    9.1862  -14.2235   28.2485 O   0  0  0  0  0  0  0  0  0  0  0  0
  2  1  1  6
  2  4  1  0
  3  2  1  0
  4  5  1  6
  6  4  1  0
  6  7  2  0
  8  6  1  0
  9  8  1  0
  9 10  1  0
 10 11  2  0
 10 16  1  0
 13 12  1  6
 13 15  1  0
 14 13  1  0
 15 17  1  0
 15 16  1  6
 17 18  2  0
 17 19  1  0
M  END
$$$$
