VGT.pdb
     RDKit          3D

 19 18  0  0  1  0  0  0  0  0999 V2000
    8.9433  -18.4954   21.4338 C   0  0  0  0  0  0  0  0  0  0  0  0
    7.4897  -18.1546   21.1851 C   0  0  2  0  0  0  0  0  0  0  0  0
    6.7002  -19.4198   21.2099 C   0  0  0  0  0  0  0  0  0  0  0  0
    7.2967  -17.3158   19.9630 C   0  0  2  0  0  0  0  0  0  0  0  0
    7.9875  -17.9182   18.8437 N   0  0  0  0  0  0  0  0  0  0  0  0
    7.7269  -15.9163   20.1167 C   0  0  0  0  0  0  0  0  0  0  0  0
    8.9348  -15.5505   19.9360 O   0  0  0  0  0  0  0  0  0  0  0  0
    6.8234  -14.8979   20.4739 N   0  0  0  0  0  0  0  0  0  0  0  0
    7.2658  -13.5028   20.6221 C   0  0  0  0  0  0  0  0  0  0  0  0
    7.7237  -13.2396   21.9998 C   0  0  0  0  0  0  0  0  0  0  0  0
    8.1444  -12.0896   22.2817 O   0  0  0  0  0  0  0  0  0  0  0  0
    5.9178  -13.1088   25.1020 C   0  0  0  0  0  0  0  0  0  0  0  0
    6.9644  -14.1571   25.2935 C   0  0  1  0  0  0  0  0  0  0  0  0
    6.3952  -15.4299   25.0631 O   0  0  0  0  0  0  0  0  0  0  0  0
    8.1454  -14.0052   24.3624 C   0  0  2  0  0  0  0  0  0  0  0  0
    7.7136  -14.2097   23.0144 N   0  0  0  0  0  0  0  0  0  0  0  0
    9.2952  -14.8129   24.7555 C   0  0  0  0  0  0  0  0  0  0  0  0
    9.7462  -15.7163   24.0146 O   0  0  0  0  0  0  0  0  0  0  0  0
    9.9150  -14.5905   25.9710 O   0  0  0  0  0  0  0  0  0  0  0  0
  2  1  1  6
  2  4  1  0
  3  2  1  0
  4  5  1  6
  6  4  1  0
  6  7  2  0
  8  6  1  0
  9  8  1  0
  9 10  1  0
 10 11  2  0
 10 16  1  0
 13 12  1  6
 13 15  1  0
 14 13  1  0
 15 17  1  0
 15 16  1  6
 17 18  2  0
 17 19  1  0
M  END
$$$$
