MPS.pdb
     RDKit          3D

 22 22  0  0  1  0  0  0  0  0999 V2000
   12.6861  -15.6913  -14.2652 C   0  0  0  0  0  0  0  0  0  0  0  0
   13.6428  -14.3593  -13.4775 S   0  0  0  0  0  0  0  0  0  0  0  0
   15.0211  -13.8828  -14.5802 C   0  0  0  0  0  0  0  0  0  0  0  0
   15.7823  -12.8010  -13.8765 C   0  0  0  0  0  0  0  0  0  0  0  0
   17.0129  -12.3348  -14.6178 C   0  0  2  0  0  0  0  0  0  0  0  0
   18.0942  -13.2323  -14.4049 N   0  0  0  0  0  0  0  0  0  0  0  0
   17.3116  -10.9419  -14.2329 C   0  0  0  0  0  0  0  0  0  0  0  0
   18.0640  -10.8275  -13.2025 O   0  0  0  0  0  0  0  0  0  0  0  0
   16.8625   -9.7737  -14.8682 N   0  0  0  0  0  0  0  0  0  0  0  0
   16.0137   -9.6690  -16.0284 C   0  0  0  0  0  0  0  0  0  0  0  0
   16.4902   -8.3330  -16.6333 C   0  0  0  0  0  0  0  0  0  0  0  0
   16.4884   -7.4866  -15.3856 C   0  0  0  0  0  0  0  0  0  0  0  0
   17.2279   -8.4306  -14.4285 C   0  0  1  0  0  0  0  0  0  0  0  0
   16.7733   -8.1386  -13.0566 C   0  0  0  0  0  0  0  0  0  0  0  0
   15.7310   -8.7249  -12.6687 O   0  0  0  0  0  0  0  0  0  0  0  0
   17.3148   -6.7544   -8.5337 O   0  0  0  0  0  0  0  0  0  0  0  0
   17.9503   -6.9134   -9.7766 C   0  0  0  0  0  0  0  0  0  0  0  0
   16.8440   -7.0266  -10.8013 C   0  0  2  0  0  0  0  0  0  0  0  0
   17.4048   -7.2608  -12.1414 N   0  0  0  0  0  0  0  0  0  0  0  0
   16.1260   -5.7350  -10.8338 C   0  0  0  0  0  0  0  0  0  0  0  0
   16.4534   -4.8142  -11.6270 O   0  0  0  0  0  0  0  0  0  0  0  0
   15.0544   -5.4699   -9.9923 O   0  0  0  0  0  0  0  0  0  0  0  0
  2  1  1  0
  3  2  1  0
  4  3  1  0
  4  5  1  0
  5  6  1  1
  7  9  1  0
  7  5  1  0
  8  7  2  0
  9 13  1  0
 10  9  1  0
 10 11  1  0
 11 12  1  0
 13 12  1  0
 13 14  1  1
 14 19  1  0
 14 15  2  0
 17 16  1  0
 18 17  1  1
 18 20  1  0
 19 18  1  0
 20 22  1  0
 21 20  2  0
M  END
$$$$
