MPS.pdb
     RDKit          3D

 22 22  0  0  1  0  0  0  0  0999 V2000
   12.9645  -16.6127    4.5135 C   0  0  0  0  0  0  0  0  0  0  0  0
   11.8111  -16.9370    3.1444 S   0  0  0  0  0  0  0  0  0  0  0  0
   12.7086  -17.7870    1.7973 C   0  0  0  0  0  0  0  0  0  0  0  0
   13.4138  -18.9541    2.4180 C   0  0  0  0  0  0  0  0  0  0  0  0
   14.1015  -19.8565    1.4211 C   0  0  2  0  0  0  0  0  0  0  0  0
   13.1541  -20.4318    0.5314 N   0  0  0  0  0  0  0  0  0  0  0  0
   14.9145  -20.8506    2.1480 C   0  0  0  0  0  0  0  0  0  0  0  0
   14.5333  -22.0633    1.9901 O   0  0  0  0  0  0  0  0  0  0  0  0
   16.0259  -20.5984    2.9674 N   0  0  0  0  0  0  0  0  0  0  0  0
   16.6195  -19.3237    3.2841 C   0  0  0  0  0  0  0  0  0  0  0  0
   18.0881  -19.7253    3.5283 C   0  0  0  0  0  0  0  0  0  0  0  0
   17.8688  -20.9125    4.4316 C   0  0  0  0  0  0  0  0  0  0  0  0
   16.7864  -21.6513    3.6336 C   0  0  1  0  0  0  0  0  0  0  0  0
   15.9690  -22.4285    4.5832 C   0  0  0  0  0  0  0  0  0  0  0  0
   15.0565  -21.8074    5.1852 O   0  0  0  0  0  0  0  0  0  0  0  0
   16.3547  -26.2382    4.8125 O   0  0  0  0  0  0  0  0  0  0  0  0
   15.2720  -25.9669    5.6658 C   0  0  0  0  0  0  0  0  0  0  0  0
   15.2705  -24.4695    5.8773 C   0  0  2  0  0  0  0  0  0  0  0  0
   16.1198  -23.8065    4.8750 N   0  0  0  0  0  0  0  0  0  0  0  0
   15.8540  -24.2018    7.2087 C   0  0  0  0  0  0  0  0  0  0  0  0
   15.2531  -24.5114    8.2704 O   0  0  0  0  0  0  0  0  0  0  0  0
   17.0938  -23.5956    7.3580 O   0  0  0  0  0  0  0  0  0  0  0  0
  2  1  1  0
  3  2  1  0
  4  3  1  0
  4  5  1  0
  5  6  1  1
  7  9  1  0
  7  5  1  0
  8  7  2  0
  9 13  1  0
 10  9  1  0
 10 11  1  0
 11 12  1  0
 13 12  1  0
 13 14  1  1
 14 19  1  0
 14 15  2  0
 17 16  1  0
 18 17  1  6
 18 20  1  0
 19 18  1  0
 20 22  1  0
 21 20  2  0
M  END
$$$$
