MPS.pdb
     RDKit          3D

 22 22  0  0  1  0  0  0  0  0999 V2000
   20.5982  -18.4069  -14.4151 C   0  0  0  0  0  0  0  0  0  0  0  0
   22.0355  -17.4290  -14.9516 S   0  0  0  0  0  0  0  0  0  0  0  0
   23.3032  -18.5567  -15.6327 C   0  0  0  0  0  0  0  0  0  0  0  0
   23.7397  -19.4449  -14.5078 C   0  0  0  0  0  0  0  0  0  0  0  0
   24.7540  -20.4896  -14.9090 C   0  0  2  0  0  0  0  0  0  0  0  0
   24.1237  -21.5567  -15.6045 N   0  0  0  0  0  0  0  0  0  0  0  0
   25.5046  -20.9201  -13.7135 C   0  0  0  0  0  0  0  0  0  0  0  0
   24.8614  -21.7164  -12.9434 O   0  0  0  0  0  0  0  0  0  0  0  0
   26.8102  -20.5498  -13.3555 N   0  0  0  0  0  0  0  0  0  0  0  0
   27.7600  -19.7953  -14.1341 C   0  0  0  0  0  0  0  0  0  0  0  0
   29.0969  -20.3494  -13.6019 C   0  0  0  0  0  0  0  0  0  0  0  0
   28.8201  -20.2727  -12.1218 C   0  0  0  0  0  0  0  0  0  0  0  0
   27.4264  -20.9132  -12.0831 C   0  0  1  0  0  0  0  0  0  0  0  0
   26.7022  -20.3621  -10.9231 C   0  0  0  0  0  0  0  0  0  0  0  0
   26.1660  -19.2349  -11.0738 O   0  0  0  0  0  0  0  0  0  0  0  0
   24.6189  -20.4088   -6.6288 O   0  0  0  0  0  0  0  0  0  0  0  0
   25.0811  -21.1752   -7.7119 C   0  0  0  0  0  0  0  0  0  0  0  0
   25.9834  -20.2648   -8.5144 C   0  0  2  0  0  0  0  0  0  0  0  0
   26.5572  -20.9878   -9.6605 N   0  0  0  0  0  0  0  0  0  0  0  0
   27.1002  -19.8513   -7.6389 C   0  0  0  0  0  0  0  0  0  0  0  0
   28.2036  -20.4569   -7.6409 O   0  0  0  0  0  0  0  0  0  0  0  0
   26.9910  -18.7747   -6.7695 O   0  0  0  0  0  0  0  0  0  0  0  0
  2  1  1  0
  3  2  1  0
  4  3  1  0
  4  5  1  0
  5  6  1  1
  7  9  1  0
  7  5  1  0
  8  7  2  0
  9 13  1  0
 10  9  1  0
 10 11  1  0
 11 12  1  0
 13 12  1  0
 13 14  1  1
 14 19  1  0
 14 15  2  0
 17 16  1  0
 18 17  1  1
 18 20  1  0
 19 18  1  0
 20 22  1  0
 21 20  2  0
M  END
$$$$
