MPS.pdb
     RDKit          3D

 22 22  0  0  1  0  0  0  0  0999 V2000
   14.6695  -19.8316    0.9311 C   0  0  0  0  0  0  0  0  0  0  0  0
   14.7241  -21.6478    0.8410 S   0  0  0  0  0  0  0  0  0  0  0  0
   14.6071  -22.1617   -0.9097 C   0  0  0  0  0  0  0  0  0  0  0  0
   14.6724  -23.6585   -0.9252 C   0  0  0  0  0  0  0  0  0  0  0  0
   14.4706  -24.2674   -2.2926 C   0  0  2  0  0  0  0  0  0  0  0  0
   13.1094  -24.1665   -2.6884 N   0  0  0  0  0  0  0  0  0  0  0  0
   14.9878  -25.6495   -2.2884 C   0  0  0  0  0  0  0  0  0  0  0  0
   14.1531  -26.5254   -1.8679 O   0  0  0  0  0  0  0  0  0  0  0  0
   16.2640  -26.0764   -2.6874 N   0  0  0  0  0  0  0  0  0  0  0  0
   17.3704  -25.2642   -3.1273 C   0  0  0  0  0  0  0  0  0  0  0  0
   18.1064  -26.2385   -4.0690 C   0  0  0  0  0  0  0  0  0  0  0  0
   18.1277  -27.4607   -3.1863 C   0  0  0  0  0  0  0  0  0  0  0  0
   16.6624  -27.4801   -2.7316 C   0  0  1  0  0  0  0  0  0  0  0  0
   16.6028  -28.1295   -1.4093 C   0  0  0  0  0  0  0  0  0  0  0  0
   16.7554  -27.3869   -0.4063 O   0  0  0  0  0  0  0  0  0  0  0  0
   16.2470  -32.1116   -0.8488 O   0  0  0  0  0  0  0  0  0  0  0  0
   15.5833  -31.4008    0.1653 C   0  0  0  0  0  0  0  0  0  0  0  0
   16.2146  -30.0270    0.1960 C   0  0  2  0  0  0  0  0  0  0  0  0
   16.3890  -29.5094   -1.1704 N   0  0  0  0  0  0  0  0  0  0  0  0
   17.5567  -30.1612    0.8006 C   0  0  0  0  0  0  0  0  0  0  0  0
   18.6057  -29.9332    0.1434 O   0  0  0  0  0  0  0  0  0  0  0  0
   17.7306  -30.5452    2.1231 O   0  0  0  0  0  0  0  0  0  0  0  0
  2  1  1  0
  3  2  1  0
  4  3  1  0
  4  5  1  0
  5  6  1  1
  7  9  1  0
  7  5  1  0
  8  7  2  0
  9 13  1  0
 10  9  1  0
 10 11  1  0
 11 12  1  0
 13 12  1  0
 13 14  1  1
 14 19  1  0
 14 15  2  0
 17 16  1  0
 18 17  1  6
 18 20  1  0
 19 18  1  0
 20 22  1  0
 21 20  2  0
M  END
$$$$
