MPS.pdb
     RDKit          3D

 22 22  0  0  1  0  0  0  0  0999 V2000
   19.2602  -14.1397  -21.9734 C   0  0  0  0  0  0  0  0  0  0  0  0
   18.9659  -12.9780  -20.6045 S   0  0  0  0  0  0  0  0  0  0  0  0
   20.4147  -12.9912  -19.4894 C   0  0  0  0  0  0  0  0  0  0  0  0
   20.1290  -12.0041  -18.3991 C   0  0  0  0  0  0  0  0  0  0  0  0
   20.3051  -12.5605  -17.0061 C   0  0  2  0  0  0  0  0  0  0  0  0
   19.1277  -13.2362  -16.5854 N   0  0  0  0  0  0  0  0  0  0  0  0
   20.7229  -11.4735  -16.0996 C   0  0  0  0  0  0  0  0  0  0  0  0
   19.7541  -10.8112  -15.5861 O   0  0  0  0  0  0  0  0  0  0  0  0
   22.0362  -11.1113  -15.7618 N   0  0  0  0  0  0  0  0  0  0  0  0
   23.2637  -11.7218  -16.2068 C   0  0  0  0  0  0  0  0  0  0  0  0
   24.1954  -11.4355  -15.0120 C   0  0  0  0  0  0  0  0  0  0  0  0
   23.8901   -9.9728  -14.8103 C   0  0  0  0  0  0  0  0  0  0  0  0
   22.3569  -10.0183  -14.8490 C   0  0  1  0  0  0  0  0  0  0  0  0
   21.8732   -8.7126  -15.3339 C   0  0  0  0  0  0  0  0  0  0  0  0
   21.9343   -8.5108  -16.5734 O   0  0  0  0  0  0  0  0  0  0  0  0
   19.4402   -6.3134  -13.3783 O   0  0  0  0  0  0  0  0  0  0  0  0
   19.5886   -5.9751  -14.7339 C   0  0  0  0  0  0  0  0  0  0  0  0
   21.0006   -6.3638  -15.1105 C   0  0  2  0  0  0  0  0  0  0  0  0
   21.3474   -7.6710  -14.5305 N   0  0  0  0  0  0  0  0  0  0  0  0
   21.9150   -5.3578  -14.5303 C   0  0  0  0  0  0  0  0  0  0  0  0
   22.7157   -5.6462  -13.6030 O   0  0  0  0  0  0  0  0  0  0  0  0
   21.9386   -4.0437  -14.9768 O   0  0  0  0  0  0  0  0  0  0  0  0
  2  1  1  0
  3  2  1  0
  4  3  1  0
  4  5  1  0
  5  6  1  1
  7  9  1  0
  7  5  1  0
  8  7  2  0
  9 13  1  0
 10  9  1  0
 10 11  1  0
 11 12  1  0
 13 12  1  0
 13 14  1  6
 14 19  1  0
 14 15  2  0
 17 16  1  0
 18 17  1  1
 18 20  1  0
 19 18  1  0
 20 22  1  0
 21 20  2  0
M  END
$$$$
