MPS.pdb
     RDKit          3D

 22 22  0  0  1  0  0  0  0  0999 V2000
   28.2169  -12.2678  -15.9578 C   0  0  0  0  0  0  0  0  0  0  0  0
   27.0784  -10.8556  -16.0980 S   0  0  0  0  0  0  0  0  0  0  0  0
   25.3743  -11.4825  -16.3120 C   0  0  0  0  0  0  0  0  0  0  0  0
   24.4719  -10.2865  -16.3156 C   0  0  0  0  0  0  0  0  0  0  0  0
   23.0318  -10.6054  -16.6404 C   0  0  2  0  0  0  0  0  0  0  0  0
   22.9025  -11.0042  -17.9984 N   0  0  0  0  0  0  0  0  0  0  0  0
   22.1864   -9.4519  -16.2763 C   0  0  0  0  0  0  0  0  0  0  0  0
   22.0263   -8.5959  -17.2156 O   0  0  0  0  0  0  0  0  0  0  0  0
   21.5652   -9.2151  -15.0401 N   0  0  0  0  0  0  0  0  0  0  0  0
   21.5933  -10.0463  -13.8630 C   0  0  0  0  0  0  0  0  0  0  0  0
   20.2422   -9.6926  -13.2095 C   0  0  0  0  0  0  0  0  0  0  0  0
   20.3129   -8.1895  -13.3027 C   0  0  0  0  0  0  0  0  0  0  0  0
   20.7451   -8.0387  -14.7672 C   0  0  1  0  0  0  0  0  0  0  0  0
   21.4998   -6.7783  -14.8935 C   0  0  0  0  0  0  0  0  0  0  0  0
   22.6938   -6.7915  -14.5001 O   0  0  0  0  0  0  0  0  0  0  0  0
   20.0729   -3.5898  -16.8274 O   0  0  0  0  0  0  0  0  0  0  0  0
   21.4777   -3.5977  -16.8070 C   0  0  0  0  0  0  0  0  0  0  0  0
   21.8745   -4.3874  -15.5799 C   0  0  2  0  0  0  0  0  0  0  0  0
   21.0008   -5.5603  -15.4172 N   0  0  0  0  0  0  0  0  0  0  0  0
   21.6816   -3.5162  -14.4015 C   0  0  0  0  0  0  0  0  0  0  0  0
   20.8193   -3.7728  -13.5213 O   0  0  0  0  0  0  0  0  0  0  0  0
   22.4403   -2.3707  -14.2040 O   0  0  0  0  0  0  0  0  0  0  0  0
  2  1  1  0
  3  2  1  0
  4  3  1  0
  4  5  1  0
  5  6  1  6
  7  9  1  0
  7  5  1  0
  8  7  2  0
  9 13  1  0
 10  9  1  0
 10 11  1  0
 11 12  1  0
 13 12  1  0
 13 14  1  1
 14 19  1  0
 14 15  2  0
 17 16  1  0
 18 17  1  6
 18 20  1  0
 19 18  1  0
 20 22  1  0
 21 20  2  0
M  END
$$$$
