MPS.pdb
     RDKit          3D

 22 22  0  0  1  0  0  0  0  0999 V2000
   15.3732  -20.1331    7.9380 C   0  0  0  0  0  0  0  0  0  0  0  0
   16.0596  -21.7551    7.4820 S   0  0  0  0  0  0  0  0  0  0  0  0
   16.2011  -21.8523    5.6618 C   0  0  0  0  0  0  0  0  0  0  0  0
   16.6481  -23.2451    5.3375 C   0  0  0  0  0  0  0  0  0  0  0  0
   16.7808  -23.5181    3.8580 C   0  0  2  0  0  0  0  0  0  0  0  0
   15.5037  -23.5230    3.2344 N   0  0  0  0  0  0  0  0  0  0  0  0
   17.5429  -24.7666    3.6624 C   0  0  0  0  0  0  0  0  0  0  0  0
   16.8173  -25.8059    3.4774 O   0  0  0  0  0  0  0  0  0  0  0  0
   18.9387  -24.9144    3.6615 N   0  0  0  0  0  0  0  0  0  0  0  0
   19.9366  -23.8867    3.8207 C   0  0  0  0  0  0  0  0  0  0  0  0
   21.1133  -24.4797    3.0200 C   0  0  0  0  0  0  0  0  0  0  0  0
   21.1064  -25.8802    3.5783 C   0  0  0  0  0  0  0  0  0  0  0  0
   19.6090  -26.1970    3.4704 C   0  0  1  0  0  0  0  0  0  0  0  0
   19.2722  -27.1761    4.5201 C   0  0  0  0  0  0  0  0  0  0  0  0
   19.0029  -26.7155    5.6586 O   0  0  0  0  0  0  0  0  0  0  0  0
   17.6515  -30.6367    3.9749 O   0  0  0  0  0  0  0  0  0  0  0  0
   18.5583  -30.8457    5.0275 C   0  0  0  0  0  0  0  0  0  0  0  0
   18.9700  -29.4711    5.5048 C   0  0  2  0  0  0  0  0  0  0  0  0
   19.2247  -28.5828    4.3597 N   0  0  0  0  0  0  0  0  0  0  0  0
   20.2366  -29.6144    6.2530 C   0  0  0  0  0  0  0  0  0  0  0  0
   21.3417  -29.2711    5.7579 O   0  0  0  0  0  0  0  0  0  0  0  0
   20.2740  -30.1347    7.5394 O   0  0  0  0  0  0  0  0  0  0  0  0
  2  1  1  0
  3  2  1  0
  4  3  1  0
  4  5  1  0
  5  6  1  1
  7  9  1  0
  7  5  1  0
  8  7  2  0
  9 13  1  0
 10  9  1  0
 10 11  1  0
 11 12  1  0
 13 12  1  0
 13 14  1  1
 14 19  1  0
 14 15  2  0
 17 16  1  0
 18 17  1  6
 18 20  1  0
 19 18  1  0
 20 22  1  0
 21 20  2  0
M  END
$$$$
