MPS.pdb
     RDKit          3D

 22 22  0  0  1  0  0  0  0  0999 V2000
   13.2267  -22.7423   -2.2326 C   0  0  0  0  0  0  0  0  0  0  0  0
   13.2717  -22.6041   -0.4191 S   0  0  0  0  0  0  0  0  0  0  0  0
   14.9025  -21.9523    0.0889 C   0  0  0  0  0  0  0  0  0  0  0  0
   14.8961  -21.8928    1.5860 C   0  0  0  0  0  0  0  0  0  0  0  0
   16.1284  -22.4837    2.2289 C   0  0  2  0  0  0  0  0  0  0  0  0
   15.8341  -23.7503    2.8025 N   0  0  0  0  0  0  0  0  0  0  0  0
   16.6874  -21.5118    3.1884 C   0  0  0  0  0  0  0  0  0  0  0  0
   16.3967  -21.7502    4.4130 O   0  0  0  0  0  0  0  0  0  0  0  0
   17.4785  -20.3906    2.8931 N   0  0  0  0  0  0  0  0  0  0  0  0
   17.9401  -19.9501    1.6006 C   0  0  0  0  0  0  0  0  0  0  0  0
   19.2534  -19.2343    1.9753 C   0  0  0  0  0  0  0  0  0  0  0  0
   18.7565  -18.4035    3.1313 C   0  0  0  0  0  0  0  0  0  0  0  0
   17.9859  -19.4764    3.9118 C   0  0  1  0  0  0  0  0  0  0  0  0
   16.9076  -18.8086    4.6636 C   0  0  0  0  0  0  0  0  0  0  0  0
   15.8179  -18.6383    4.0599 O   0  0  0  0  0  0  0  0  0  0  0  0
   15.6975  -19.3887    8.2051 O   0  0  0  0  0  0  0  0  0  0  0  0
   15.8071  -17.9907    8.1175 C   0  0  0  0  0  0  0  0  0  0  0  0
   15.8535  -17.6659    6.6413 C   0  0  2  0  0  0  0  0  0  0  0  0
   16.9904  -18.3450    5.9996 N   0  0  0  0  0  0  0  0  0  0  0  0
   16.0657  -16.2093    6.5068 C   0  0  0  0  0  0  0  0  0  0  0  0
   17.1597  -15.7329    6.1062 O   0  0  0  0  0  0  0  0  0  0  0  0
   15.0711  -15.2914    6.8149 O   0  0  0  0  0  0  0  0  0  0  0  0
  2  1  1  0
  3  2  1  0
  4  3  1  0
  4  5  1  0
  5  6  1  1
  7  9  1  0
  7  5  1  0
  8  7  2  0
  9 13  1  0
 10  9  1  0
 10 11  1  0
 11 12  1  0
 13 12  1  0
 13 14  1  6
 14 19  1  0
 14 15  2  0
 17 16  1  0
 18 17  1  1
 18 20  1  0
 19 18  1  0
 20 22  1  0
 21 20  2  0
M  END
$$$$
