MPS.pdb
     RDKit          3D

 22 22  0  0  1  0  0  0  0  0999 V2000
   26.1524  -21.6846   -4.3824 C   0  0  0  0  0  0  0  0  0  0  0  0
   27.9205  -21.2670   -4.2855 S   0  0  0  0  0  0  0  0  0  0  0  0
   28.2634  -19.8618   -5.4038 C   0  0  0  0  0  0  0  0  0  0  0  0
   27.6526  -20.2054   -6.7281 C   0  0  0  0  0  0  0  0  0  0  0  0
   27.8188  -19.1319   -7.7774 C   0  0  2  0  0  0  0  0  0  0  0  0
   27.1283  -17.9496   -7.3962 N   0  0  0  0  0  0  0  0  0  0  0  0
   27.4026  -19.6673   -9.0881 C   0  0  0  0  0  0  0  0  0  0  0  0
   26.2188  -19.3320   -9.4447 O   0  0  0  0  0  0  0  0  0  0  0  0
   28.1567  -20.4811   -9.9477 N   0  0  0  0  0  0  0  0  0  0  0  0
   29.3568  -21.2179   -9.6406 C   0  0  0  0  0  0  0  0  0  0  0  0
   30.0558  -21.2455  -11.0148 C   0  0  0  0  0  0  0  0  0  0  0  0
   28.8886  -21.6623  -11.8733 C   0  0  0  0  0  0  0  0  0  0  0  0
   27.8215  -20.6903  -11.3530 C   0  0  1  0  0  0  0  0  0  0  0  0
   26.5013  -21.3213  -11.5343 C   0  0  0  0  0  0  0  0  0  0  0  0
   26.2314  -22.2947  -10.7858 O   0  0  0  0  0  0  0  0  0  0  0  0
   23.6529  -19.7121  -13.7455 O   0  0  0  0  0  0  0  0  0  0  0  0
   23.1100  -20.6721  -12.8751 C   0  0  0  0  0  0  0  0  0  0  0  0
   24.2304  -21.6404  -12.5683 C   0  0  2  0  0  0  0  0  0  0  0  0
   25.5147  -20.9287  -12.4721 N   0  0  0  0  0  0  0  0  0  0  0  0
   24.3264  -22.5907  -13.6963 C   0  0  0  0  0  0  0  0  0  0  0  0
   25.3057  -22.5846  -14.4869 O   0  0  0  0  0  0  0  0  0  0  0  0
   23.3427  -23.5386  -13.9429 O   0  0  0  0  0  0  0  0  0  0  0  0
  2  1  1  0
  3  2  1  0
  4  3  1  0
  4  5  1  0
  5  6  1  1
  7  9  1  0
  7  5  1  0
  8  7  2  0
  9 13  1  0
 10  9  1  0
 10 11  1  0
 11 12  1  0
 13 12  1  0
 13 14  1  1
 14 19  1  0
 14 15  2  0
 17 16  1  0
 18 17  1  6
 18 20  1  0
 19 18  1  0
 20 22  1  0
 21 20  2  0
M  END
$$$$
