MPS.pdb
     RDKit          3D

 22 22  0  0  1  0  0  0  0  0999 V2000
   25.6689  -14.1886  -18.3455 C   0  0  0  0  0  0  0  0  0  0  0  0
   25.4138  -13.9592  -16.5589 S   0  0  0  0  0  0  0  0  0  0  0  0
   26.6352  -14.9694  -15.6476 C   0  0  0  0  0  0  0  0  0  0  0  0
   25.9569  -16.2605  -15.3042 C   0  0  0  0  0  0  0  0  0  0  0  0
   26.5666  -17.4705  -15.9715 C   0  0  2  0  0  0  0  0  0  0  0  0
   26.1841  -17.5327  -17.3388 N   0  0  0  0  0  0  0  0  0  0  0  0
   26.2144  -18.6781  -15.1998 C   0  0  0  0  0  0  0  0  0  0  0  0
   25.0152  -19.0906  -15.3811 O   0  0  0  0  0  0  0  0  0  0  0  0
   27.0420  -19.3893  -14.3172 N   0  0  0  0  0  0  0  0  0  0  0  0
   28.4408  -19.1706  -14.0469 C   0  0  0  0  0  0  0  0  0  0  0  0
   28.9011  -20.5911  -13.6621 C   0  0  0  0  0  0  0  0  0  0  0  0
   27.8003  -20.9505  -12.6966 C   0  0  0  0  0  0  0  0  0  0  0  0
   26.5794  -20.5222  -13.5212 C   0  0  1  0  0  0  0  0  0  0  0  0
   25.5010  -20.1560  -12.5847 C   0  0  0  0  0  0  0  0  0  0  0  0
   25.5989  -19.0381  -12.0177 O   0  0  0  0  0  0  0  0  0  0  0  0
   21.6714  -21.2382   -9.8378 O   0  0  0  0  0  0  0  0  0  0  0  0
   22.3478  -21.5615  -11.0260 C   0  0  0  0  0  0  0  0  0  0  0  0
   23.6147  -20.7357  -11.0247 C   0  0  2  0  0  0  0  0  0  0  0  0
   24.3696  -20.9482  -12.2698 N   0  0  0  0  0  0  0  0  0  0  0  0
   24.4563  -21.2033   -9.9032 C   0  0  0  0  0  0  0  0  0  0  0  0
   24.6286  -20.5076   -8.8686 O   0  0  0  0  0  0  0  0  0  0  0  0
   25.1003  -22.4326   -9.9321 O   0  0  0  0  0  0  0  0  0  0  0  0
  2  1  1  0
  3  2  1  0
  4  3  1  0
  4  5  1  0
  5  6  1  6
  7  9  1  0
  7  5  1  0
  8  7  2  0
  9 13  1  0
 10  9  1  0
 10 11  1  0
 11 12  1  0
 13 12  1  0
 13 14  1  1
 14 19  1  0
 14 15  2  0
 17 16  1  0
 18 17  1  6
 18 20  1  0
 19 18  1  0
 20 22  1  0
 21 20  2  0
M  END
$$$$
