MPS.pdb
     RDKit          3D

 22 22  0  0  1  0  0  0  0  0999 V2000
   12.5166  -13.1026    3.8491 C   0  0  0  0  0  0  0  0  0  0  0  0
   12.4667  -14.9009    4.1202 S   0  0  0  0  0  0  0  0  0  0  0  0
   13.9991  -15.6465    3.4579 C   0  0  0  0  0  0  0  0  0  0  0  0
   15.0775  -15.3814    4.4637 C   0  0  0  0  0  0  0  0  0  0  0  0
   16.4462  -15.8545    4.0349 C   0  0  2  0  0  0  0  0  0  0  0  0
   16.4423  -17.2582    3.8119 N   0  0  0  0  0  0  0  0  0  0  0  0
   17.4444  -15.4131    5.0281 C   0  0  0  0  0  0  0  0  0  0  0  0
   17.8461  -16.3359    5.8206 O   0  0  0  0  0  0  0  0  0  0  0  0
   17.9737  -14.1220    5.1792 N   0  0  0  0  0  0  0  0  0  0  0  0
   17.6605  -12.9427    4.4119 C   0  0  0  0  0  0  0  0  0  0  0  0
   18.9829  -12.1560    4.5114 C   0  0  0  0  0  0  0  0  0  0  0  0
   19.2273  -12.2772    5.9942 C   0  0  0  0  0  0  0  0  0  0  0  0
   18.9832  -13.7809    6.1771 C   0  0  1  0  0  0  0  0  0  0  0  0
   18.5154  -14.0035    7.5575 C   0  0  0  0  0  0  0  0  0  0  0  0
   17.3320  -13.6663    7.8156 O   0  0  0  0  0  0  0  0  0  0  0  0
   19.4561  -16.8946    9.7919 O   0  0  0  0  0  0  0  0  0  0  0  0
   18.3770  -16.1308   10.2676 C   0  0  0  0  0  0  0  0  0  0  0  0
   18.7208  -14.6887    9.9692 C   0  0  2  0  0  0  0  0  0  0  0  0
   19.2777  -14.5616    8.6131 N   0  0  0  0  0  0  0  0  0  0  0  0
   19.7660  -14.2674   10.9257 C   0  0  0  0  0  0  0  0  0  0  0  0
   20.9350  -13.9899   10.5506 O   0  0  0  0  0  0  0  0  0  0  0  0
   19.5137  -14.1560   12.2861 O   0  0  0  0  0  0  0  0  0  0  0  0
  2  1  1  0
  3  2  1  0
  4  3  1  0
  4  5  1  0
  5  6  1  1
  7  9  1  0
  7  5  1  0
  8  7  2  0
  9 13  1  0
 10  9  1  0
 10 11  1  0
 11 12  1  0
 13 12  1  0
 13 14  1  1
 14 19  1  0
 14 15  2  0
 17 16  1  0
 18 17  1  1
 18 20  1  0
 19 18  1  0
 20 22  1  0
 21 20  2  0
M  END
$$$$
