MPS.pdb
     RDKit          3D

 22 22  0  0  1  0  0  0  0  0999 V2000
   27.7306  -21.5504  -20.8174 C   0  0  0  0  0  0  0  0  0  0  0  0
   26.3851  -22.6144  -20.2114 S   0  0  0  0  0  0  0  0  0  0  0  0
   25.8770  -22.0450  -18.5499 C   0  0  0  0  0  0  0  0  0  0  0  0
   26.6755  -22.8366  -17.5597 C   0  0  0  0  0  0  0  0  0  0  0  0
   27.9832  -22.1899  -17.1688 C   0  0  2  0  0  0  0  0  0  0  0  0
   29.0554  -23.1140  -17.2967 N   0  0  0  0  0  0  0  0  0  0  0  0
   27.8532  -21.6133  -15.8166 C   0  0  0  0  0  0  0  0  0  0  0  0
   28.0371  -22.4504  -14.8646 O   0  0  0  0  0  0  0  0  0  0  0  0
   27.5565  -20.2809  -15.4900 N   0  0  0  0  0  0  0  0  0  0  0  0
   27.3662  -19.1714  -16.3902 C   0  0  0  0  0  0  0  0  0  0  0  0
   27.8174  -17.9871  -15.5118 C   0  0  0  0  0  0  0  0  0  0  0  0
   27.0599  -18.3172  -14.2506 C   0  0  0  0  0  0  0  0  0  0  0  0
   27.4096  -19.8053  -14.1178 C   0  0  1  0  0  0  0  0  0  0  0  0
   26.3072  -20.4716  -13.4004 C   0  0  0  0  0  0  0  0  0  0  0  0
   25.3652  -20.9208  -14.1016 O   0  0  0  0  0  0  0  0  0  0  0  0
   25.5144  -20.1330   -9.4182 O   0  0  0  0  0  0  0  0  0  0  0  0
   25.2280  -21.4242   -9.8922 C   0  0  0  0  0  0  0  0  0  0  0  0
   25.0407  -21.2897  -11.3868 C   0  0  2  0  0  0  0  0  0  0  0  0
   26.2165  -20.6500  -11.9980 N   0  0  0  0  0  0  0  0  0  0  0  0
   23.8779  -20.4069  -11.6176 C   0  0  0  0  0  0  0  0  0  0  0  0
   24.0136  -19.2267  -12.0333 O   0  0  0  0  0  0  0  0  0  0  0  0
   22.5767  -20.8324  -11.3882 O   0  0  0  0  0  0  0  0  0  0  0  0
  2  1  1  0
  3  2  1  0
  4  3  1  0
  4  5  1  0
  5  6  1  1
  7  9  1  0
  7  5  1  0
  8  7  2  0
  9 13  1  0
 10  9  1  0
 10 11  1  0
 11 12  1  0
 13 12  1  0
 13 14  1  6
 14 19  1  0
 14 15  2  0
 17 16  1  0
 18 17  1  1
 18 20  1  0
 19 18  1  0
 20 22  1  0
 21 20  2  0
M  END
$$$$
