FVQ.pdb
     RDKit          3D

 28 28  0  0  1  0  0  0  0  0999 V2000
    6.0096  -17.6995   25.7987 N   0  0  0  0  0  0  0  0  0  0  0  0
    6.4046  -16.3818   25.4005 C   0  0  1  0  0  0  0  0  0  0  0  0
    7.0176  -15.6600   26.5796 C   0  0  0  0  0  0  0  0  0  0  0  0
    6.7124  -14.2117   26.6214 C   0  0  0  0  0  0  0  0  0  0  0  0
    5.4615  -13.6848   26.6373 C   0  0  0  0  0  0  0  0  0  0  0  0
    5.2216  -12.3105   26.6851 C   0  0  0  0  0  0  0  0  0  0  0  0
    6.2902  -11.4630   26.7172 C   0  0  0  0  0  0  0  0  0  0  0  0
    7.5766  -11.9822   26.7014 C   0  0  0  0  0  0  0  0  0  0  0  0
    7.7995  -13.3376   26.6552 C   0  0  0  0  0  0  0  0  0  0  0  0
    7.4860  -16.4587   24.3691 C   0  0  0  0  0  0  0  0  0  0  0  0
    8.3002  -17.3966   24.4217 O   0  0  0  0  0  0  0  0  0  0  0  0
    8.6697  -13.1671   21.5170 C   0  0  0  0  0  0  0  0  0  0  0  0
    8.1939  -14.5715   21.1663 C   0  0  2  0  0  0  0  0  0  0  0  0
    6.7877  -14.5452   20.6670 C   0  0  0  0  0  0  0  0  0  0  0  0
    8.4917  -15.5177   22.2615 C   0  0  2  0  0  0  0  0  0  0  0  0
    7.5748  -15.4725   23.3441 N   0  0  0  0  0  0  0  0  0  0  0  0
    9.9129  -15.5628   22.7064 C   0  0  0  0  0  0  0  0  0  0  0  0
   10.4814  -14.5743   23.2387 O   0  0  0  0  0  0  0  0  0  0  0  0
   10.6498  -19.5053   24.9560 N   0  0  0  0  0  0  0  0  0  0  0  0
   11.0608  -18.4004   25.7735 C   0  0  0  0  0  0  0  0  0  0  0  0
   10.4909  -18.3781   26.9149 O   0  0  0  0  0  0  0  0  0  0  0  0
   12.0460  -17.4002   25.3203 C   0  0  0  0  0  0  0  0  0  0  0  0
   12.5782  -17.6201   23.9474 C   0  0  0  0  0  0  0  0  0  0  0  0
   12.1362  -16.6969   22.8881 C   0  0  2  0  0  0  0  0  0  0  0  0
   10.7312  -16.7421   22.5448 N   0  0  0  0  0  0  0  0  0  0  0  0
   13.0116  -16.7256   21.6599 C   0  0  0  0  0  0  0  0  0  0  0  0
   12.5379  -16.8978   20.3766 O   0  0  0  0  0  0  0  0  0  0  0  0
   14.2393  -16.5857   21.8314 O   0  0  0  0  0  0  0  0  0  0  0  0
  2  1  1  1
  2 10  1  0
  2  3  1  0
  4  9  2  0
  4  3  1  0
  5  4  1  0
  6  7  1  0
  6  5  2  0
  7  8  2  0
  8  9  1  0
 10 11  2  0
 13 12  1  1
 14 13  1  0
 15 13  1  0
 15 16  1  1
 16 10  1  0
 17 18  2  0
 17 15  1  0
 19 20  1  0
 20 21  2  0
 22 20  1  0
 22 23  1  0
 24 23  1  1
 24 26  1  0
 24 25  1  0
 25 17  1  0
 26 27  1  0
 28 26  2  0
M  END
$$$$
