FVQ.pdb
     RDKit          3D

 28 28  0  0  1  0  0  0  0  0999 V2000
    6.0442  -17.2816   26.0095 N   0  0  0  0  0  0  0  0  0  0  0  0
    6.4957  -16.0912   25.3538 C   0  0  1  0  0  0  0  0  0  0  0  0
    7.4053  -15.3172   26.2815 C   0  0  0  0  0  0  0  0  0  0  0  0
    6.9102  -13.9619   26.6142 C   0  0  0  0  0  0  0  0  0  0  0  0
    7.6596  -12.9821   27.1809 C   0  0  0  0  0  0  0  0  0  0  0  0
    7.1514  -11.7144   27.4698 C   0  0  0  0  0  0  0  0  0  0  0  0
    5.8470  -11.4511   27.1693 C   0  0  0  0  0  0  0  0  0  0  0  0
    5.0647  -12.4397   26.5900 C   0  0  0  0  0  0  0  0  0  0  0  0
    5.5773  -13.6837   26.3097 C   0  0  0  0  0  0  0  0  0  0  0  0
    7.3371  -16.4449   24.1679 C   0  0  0  0  0  0  0  0  0  0  0  0
    7.8955  -17.5551   24.1376 O   0  0  0  0  0  0  0  0  0  0  0  0
    8.6608  -13.5257   20.8913 C   0  0  0  0  0  0  0  0  0  0  0  0
    8.0057  -14.8980   20.7943 C   0  0  2  0  0  0  0  0  0  0  0  0
    6.5588  -14.7712   20.4508 C   0  0  0  0  0  0  0  0  0  0  0  0
    8.3381  -15.7251   21.9727 C   0  0  2  0  0  0  0  0  0  0  0  0
    7.4899  -15.5221   23.0926 N   0  0  0  0  0  0  0  0  0  0  0  0
    9.7812  -15.7750   22.3395 C   0  0  0  0  0  0  0  0  0  0  0  0
   10.3549  -14.8283   22.9381 O   0  0  0  0  0  0  0  0  0  0  0  0
   12.1867  -20.1609   25.4570 N   0  0  0  0  0  0  0  0  0  0  0  0
   11.5829  -18.9107   25.8185 C   0  0  0  0  0  0  0  0  0  0  0  0
   11.0852  -18.9120   26.9934 O   0  0  0  0  0  0  0  0  0  0  0  0
   11.5512  -17.7511   24.9071 C   0  0  0  0  0  0  0  0  0  0  0  0
   12.2167  -17.9666   23.5929 C   0  0  0  0  0  0  0  0  0  0  0  0
   11.9683  -16.9761   22.5315 C   0  0  2  0  0  0  0  0  0  0  0  0
   10.6158  -16.9102   22.0211 N   0  0  0  0  0  0  0  0  0  0  0  0
   12.9834  -17.0201   21.4166 C   0  0  0  0  0  0  0  0  0  0  0  0
   12.6613  -17.1468   20.0820 O   0  0  0  0  0  0  0  0  0  0  0  0
   14.1863  -16.9377   21.7371 O   0  0  0  0  0  0  0  0  0  0  0  0
  2  1  1  1
  2 10  1  0
  2  3  1  0
  4  9  2  0
  4  3  1  0
  5  4  1  0
  6  7  1  0
  6  5  2  0
  7  8  2  0
  8  9  1  0
 10 11  2  0
 13 12  1  1
 14 13  1  0
 15 13  1  0
 15 16  1  1
 16 10  1  0
 17 18  2  0
 17 15  1  0
 19 20  1  0
 20 21  2  0
 22 20  1  0
 22 23  1  0
 24 23  1  6
 24 26  1  0
 24 25  1  0
 25 17  1  0
 26 27  1  0
 28 26  2  0
M  END
$$$$
