FVQ.pdb
     RDKit          3D

 28 28  0  0  1  0  0  0  0  0999 V2000
    5.7335  -18.1599   25.2277 N   0  0  0  0  0  0  0  0  0  0  0  0
    6.0881  -16.7775   25.1078 C   0  0  1  0  0  0  0  0  0  0  0  0
    6.6024  -16.2706   26.4366 C   0  0  0  0  0  0  0  0  0  0  0  0
    6.8296  -14.8079   26.4736 C   0  0  0  0  0  0  0  0  0  0  0  0
    8.0503  -14.2142   26.4697 C   0  0  0  0  0  0  0  0  0  0  0  0
    8.2160  -12.8284   26.4974 C   0  0  0  0  0  0  0  0  0  0  0  0
    7.1035  -12.0394   26.5297 C   0  0  0  0  0  0  0  0  0  0  0  0
    5.8470  -12.6274   26.5345 C   0  0  0  0  0  0  0  0  0  0  0  0
    5.6972  -13.9933   26.5060 C   0  0  0  0  0  0  0  0  0  0  0  0
    7.2261  -16.6198   24.1490 C   0  0  0  0  0  0  0  0  0  0  0  0
    8.1509  -17.4502   24.1731 O   0  0  0  0  0  0  0  0  0  0  0  0
    8.0246  -12.9911   21.4627 C   0  0  0  0  0  0  0  0  0  0  0  0
    7.8512  -14.4658   21.1208 C   0  0  2  0  0  0  0  0  0  0  0  0
    6.4997  -14.7197   20.5406 C   0  0  0  0  0  0  0  0  0  0  0  0
    8.2580  -15.3211   22.2549 C   0  0  2  0  0  0  0  0  0  0  0  0
    7.2431  -15.5359   23.2239 N   0  0  0  0  0  0  0  0  0  0  0  0
    9.5809  -15.0023   22.8613 C   0  0  0  0  0  0  0  0  0  0  0  0
    9.6956  -14.2571   23.8689 O   0  0  0  0  0  0  0  0  0  0  0  0
   10.4612  -17.8321   26.7805 N   0  0  0  0  0  0  0  0  0  0  0  0
   11.7874  -18.1211   26.3160 C   0  0  0  0  0  0  0  0  0  0  0  0
   12.5850  -18.4664   27.2502 O   0  0  0  0  0  0  0  0  0  0  0  0
   12.1703  -18.0224   24.8947 C   0  0  0  0  0  0  0  0  0  0  0  0
   11.2149  -17.2678   24.0378 C   0  0  0  0  0  0  0  0  0  0  0  0
   11.7590  -16.1884   23.1960 C   0  0  2  0  0  0  0  0  0  0  0  0
   10.8173  -15.5207   22.3234 N   0  0  0  0  0  0  0  0  0  0  0  0
   13.0211  -16.5725   22.4646 C   0  0  0  0  0  0  0  0  0  0  0  0
   14.2919  -16.3927   22.9684 O   0  0  0  0  0  0  0  0  0  0  0  0
   12.8919  -17.0819   21.3332 O   0  0  0  0  0  0  0  0  0  0  0  0
  2  1  1  1
  2 10  1  0
  2  3  1  0
  4  9  2  0
  4  3  1  0
  5  4  1  0
  6  7  1  0
  6  5  2  0
  7  8  2  0
  8  9  1  0
 10 11  2  0
 13 12  1  1
 14 13  1  0
 15 13  1  0
 15 16  1  1
 16 10  1  0
 17 18  2  0
 17 15  1  0
 19 20  1  0
 20 21  2  0
 22 20  1  0
 22 23  1  0
 24 23  1  6
 24 26  1  0
 24 25  1  0
 25 17  1  0
 26 27  1  0
 28 26  2  0
M  END
$$$$
