FVQ.pdb
     RDKit          3D

 28 28  0  0  1  0  0  0  0  0999 V2000
    5.6851  -17.8215   25.7703 N   0  0  0  0  0  0  0  0  0  0  0  0
    6.2187  -16.5247   25.4801 C   0  0  1  0  0  0  0  0  0  0  0  0
    7.0926  -16.0694   26.6274 C   0  0  0  0  0  0  0  0  0  0  0  0
    7.0922  -14.6036   26.8370 C   0  0  0  0  0  0  0  0  0  0  0  0
    8.1581  -13.8840   27.2714 C   0  0  0  0  0  0  0  0  0  0  0  0
    8.1136  -12.4998   27.4470 C   0  0  0  0  0  0  0  0  0  0  0  0
    6.9494  -11.8447   27.1699 C   0  0  0  0  0  0  0  0  0  0  0  0
    5.8488  -12.5627   26.7250 C   0  0  0  0  0  0  0  0  0  0  0  0
    5.9058  -13.9254   26.5554 C   0  0  0  0  0  0  0  0  0  0  0  0
    7.1223  -16.5951   24.2893 C   0  0  0  0  0  0  0  0  0  0  0  0
    7.6718  -17.6761   24.0157 O   0  0  0  0  0  0  0  0  0  0  0  0
    6.5647  -14.2837   20.9899 C   0  0  0  0  0  0  0  0  0  0  0  0
    8.0171  -14.2786   21.4506 C   0  0  2  0  0  0  0  0  0  0  0  0
    8.9426  -14.1834   20.2836 C   0  0  0  0  0  0  0  0  0  0  0  0
    8.2694  -15.3736   22.4102 C   0  0  2  0  0  0  0  0  0  0  0  0
    7.3434  -15.4403   23.4840 N   0  0  0  0  0  0  0  0  0  0  0  0
    9.6832  -15.5305   22.8528 C   0  0  0  0  0  0  0  0  0  0  0  0
   10.2024  -14.7810   23.7202 O   0  0  0  0  0  0  0  0  0  0  0  0
   12.7578  -19.1299   27.1952 N   0  0  0  0  0  0  0  0  0  0  0  0
   12.0788  -19.1899   25.9328 C   0  0  0  0  0  0  0  0  0  0  0  0
   11.8425  -20.3817   25.5433 O   0  0  0  0  0  0  0  0  0  0  0  0
   11.7005  -17.9812   25.1761 C   0  0  0  0  0  0  0  0  0  0  0  0
   11.9235  -18.0649   23.7065 C   0  0  0  0  0  0  0  0  0  0  0  0
   11.8284  -16.8171   22.9297 C   0  0  2  0  0  0  0  0  0  0  0  0
   10.5510  -16.5474   22.3055 N   0  0  0  0  0  0  0  0  0  0  0  0
   12.9725  -16.6178   21.9670 C   0  0  0  0  0  0  0  0  0  0  0  0
   12.8215  -16.4873   20.6028 O   0  0  0  0  0  0  0  0  0  0  0  0
   14.1221  -16.5723   22.4493 O   0  0  0  0  0  0  0  0  0  0  0  0
  2  1  1  1
  2 10  1  0
  2  3  1  0
  4  9  2  0
  4  3  1  0
  5  4  1  0
  6  7  1  0
  6  5  2  0
  7  8  2  0
  8  9  1  0
 10 11  2  0
 13 12  1  6
 14 13  1  0
 15 13  1  0
 15 16  1  1
 16 10  1  0
 17 18  2  0
 17 15  1  0
 19 20  1  0
 20 21  2  0
 22 20  1  0
 22 23  1  0
 24 23  1  6
 24 26  1  0
 24 25  1  0
 25 17  1  0
 26 27  1  0
 28 26  2  0
M  END
$$$$
