FVQ.pdb
     RDKit          3D

 28 28  0  0  1  0  0  0  0  0999 V2000
   63.7322   52.2423  -13.0299 N   0  0  0  0  0  0  0  0  0  0  0  0
   64.3129   53.2558  -12.2014 C   0  0  1  0  0  0  0  0  0  0  0  0
   64.7381   52.6487  -10.8832 C   0  0  0  0  0  0  0  0  0  0  0  0
   64.8455   51.1721  -10.9094 C   0  0  0  0  0  0  0  0  0  0  0  0
   65.7826   50.4768  -11.6030 C   0  0  0  0  0  0  0  0  0  0  0  0
   65.8503   49.0826  -11.5916 C   0  0  0  0  0  0  0  0  0  0  0  0
   64.9358   48.3916  -10.8518 C   0  0  0  0  0  0  0  0  0  0  0  0
   63.9699   49.0842  -10.1361 C   0  0  0  0  0  0  0  0  0  0  0  0
   63.9145   50.4574  -10.1550 C   0  0  0  0  0  0  0  0  0  0  0  0
   65.5682   53.7758  -12.8285 C   0  0  0  0  0  0  0  0  0  0  0  0
   66.4426   54.2734  -12.0983 O   0  0  0  0  0  0  0  0  0  0  0  0
   66.7677   56.3419  -15.1240 C   0  0  0  0  0  0  0  0  0  0  0  0
   65.9964   55.3630  -16.0007 C   0  0  2  0  0  0  0  0  0  0  0  0
   65.3865   56.0647  -17.1683 C   0  0  0  0  0  0  0  0  0  0  0  0
   65.0942   54.5235  -15.1854 C   0  0  2  0  0  0  0  0  0  0  0  0
   65.7544   53.6967  -14.2392 N   0  0  0  0  0  0  0  0  0  0  0  0
   64.0258   53.8068  -15.9366 C   0  0  0  0  0  0  0  0  0  0  0  0
   64.2667   52.7960  -16.6464 O   0  0  0  0  0  0  0  0  0  0  0  0
   61.1698   56.3077  -19.9643 N   0  0  0  0  0  0  0  0  0  0  0  0
   62.3161   56.7516  -19.2247 C   0  0  0  0  0  0  0  0  0  0  0  0
   62.8176   57.8355  -19.6741 O   0  0  0  0  0  0  0  0  0  0  0  0
   62.8466   56.0132  -18.0629 C   0  0  0  0  0  0  0  0  0  0  0  0
   62.4532   56.5627  -16.7364 C   0  0  0  0  0  0  0  0  0  0  0  0
   62.3260   55.6153  -15.6157 C   0  0  2  0  0  0  0  0  0  0  0  0
   62.6463   54.2342  -15.9056 N   0  0  0  0  0  0  0  0  0  0  0  0
   61.0230   55.7400  -14.8661 C   0  0  0  0  0  0  0  0  0  0  0  0
   60.9301   55.9766  -13.5109 O   0  0  0  0  0  0  0  0  0  0  0  0
   59.9715   55.6170  -15.5260 O   0  0  0  0  0  0  0  0  0  0  0  0
  2  1  1  6
  2 10  1  0
  2  3  1  0
  4  9  2  0
  4  3  1  0
  5  4  1  0
  6  7  1  0
  6  5  2  0
  7  8  2  0
  8  9  1  0
 10 11  2  0
 13 12  1  1
 14 13  1  0
 15 13  1  0
 15 16  1  6
 16 10  1  0
 17 18  2  0
 17 15  1  0
 19 20  1  0
 20 21  2  0
 22 20  1  0
 22 23  1  0
 24 23  1  6
 24 26  1  0
 24 25  1  0
 25 17  1  0
 26 27  1  0
 28 26  2  0
M  END
$$$$
