FVQ.pdb
     RDKit          3D

 28 28  0  0  1  0  0  0  0  0999 V2000
    5.4635  -18.0583   25.2385 N   0  0  0  0  0  0  0  0  0  0  0  0
    5.9700  -16.7236   25.1257 C   0  0  1  0  0  0  0  0  0  0  0  0
    6.5612  -16.2938   26.4497 C   0  0  0  0  0  0  0  0  0  0  0  0
    6.8997  -14.8539   26.5165 C   0  0  0  0  0  0  0  0  0  0  0  0
    8.1590  -14.3595   26.6281 C   0  0  0  0  0  0  0  0  0  0  0  0
    8.4312  -12.9913   26.6796 C   0  0  0  0  0  0  0  0  0  0  0  0
    7.3868  -12.1160   26.6149 C   0  0  0  0  0  0  0  0  0  0  0  0
    6.0923  -12.6018   26.5010 C   0  0  0  0  0  0  0  0  0  0  0  0
    5.8376  -13.9514   26.4504 C   0  0  0  0  0  0  0  0  0  0  0  0
    7.1019  -16.6840   24.1476 C   0  0  0  0  0  0  0  0  0  0  0  0
    7.9206  -17.6194   24.1387 O   0  0  0  0  0  0  0  0  0  0  0  0
    8.3924  -13.0632   21.7035 C   0  0  0  0  0  0  0  0  0  0  0  0
    8.0082  -14.4590   21.2284 C   0  0  2  0  0  0  0  0  0  0  0  0
    6.6421  -14.4565   20.6271 C   0  0  0  0  0  0  0  0  0  0  0  0
    8.2688  -15.4639   22.2799 C   0  0  2  0  0  0  0  0  0  0  0  0
    7.2328  -15.5916   23.2419 N   0  0  0  0  0  0  0  0  0  0  0  0
    9.6264  -15.4202   22.8917 C   0  0  0  0  0  0  0  0  0  0  0  0
    9.9474  -14.5606   23.7529 O   0  0  0  0  0  0  0  0  0  0  0  0
   13.0319  -17.8203   27.6164 N   0  0  0  0  0  0  0  0  0  0  0  0
   12.2669  -18.3794   26.5392 C   0  0  0  0  0  0  0  0  0  0  0  0
   11.1899  -18.9442   26.9254 O   0  0  0  0  0  0  0  0  0  0  0  0
   12.7006  -18.2985   25.1314 C   0  0  0  0  0  0  0  0  0  0  0  0
   11.6248  -17.9540   24.1616 C   0  0  0  0  0  0  0  0  0  0  0  0
   11.7233  -16.6604   23.4641 C   0  0  2  0  0  0  0  0  0  0  0  0
   10.6640  -16.3565   22.5264 N   0  0  0  0  0  0  0  0  0  0  0  0
   13.0853  -16.3976   22.8713 C   0  0  0  0  0  0  0  0  0  0  0  0
   14.2069  -16.0961   23.6142 O   0  0  0  0  0  0  0  0  0  0  0  0
   13.1879  -16.4581   21.6295 O   0  0  0  0  0  0  0  0  0  0  0  0
  2  1  1  1
  2 10  1  0
  2  3  1  0
  4  9  2  0
  4  3  1  0
  5  4  1  0
  6  7  1  0
  6  5  2  0
  7  8  2  0
  8  9  1  0
 10 11  2  0
 13 12  1  1
 14 13  1  0
 15 13  1  0
 15 16  1  1
 16 10  1  0
 17 18  2  0
 17 15  1  0
 19 20  1  0
 20 21  2  0
 22 20  1  0
 22 23  1  0
 24 23  1  6
 24 26  1  0
 24 25  1  0
 25 17  1  0
 26 27  1  0
 28 26  2  0
M  END
$$$$
