FVQ.pdb
     RDKit          3D

 28 28  0  0  1  0  0  0  0  0999 V2000
    5.6164  -18.1035   25.4607 N   0  0  0  0  0  0  0  0  0  0  0  0
    5.9699  -16.7219   25.3309 C   0  0  1  0  0  0  0  0  0  0  0  0
    6.5698  -16.2296   26.6289 C   0  0  0  0  0  0  0  0  0  0  0  0
    6.7538  -14.7614   26.6862 C   0  0  0  0  0  0  0  0  0  0  0  0
    7.9564  -14.1338   26.7349 C   0  0  0  0  0  0  0  0  0  0  0  0
    8.0815  -12.7441   26.7799 C   0  0  0  0  0  0  0  0  0  0  0  0
    6.9467  -11.9870   26.7746 C   0  0  0  0  0  0  0  0  0  0  0  0
    5.7081  -12.6099   26.7254 C   0  0  0  0  0  0  0  0  0  0  0  0
    5.5984  -13.9792   26.6805 C   0  0  0  0  0  0  0  0  0  0  0  0
    7.0461  -16.5608   24.3036 C   0  0  0  0  0  0  0  0  0  0  0  0
    7.9705  -17.3911   24.2673 O   0  0  0  0  0  0  0  0  0  0  0  0
    8.5053  -14.1669   20.1929 C   0  0  0  0  0  0  0  0  0  0  0  0
    7.6051  -14.1569   21.4221 C   0  0  2  0  0  0  0  0  0  0  0  0
    7.5641  -12.7978   22.0376 C   0  0  0  0  0  0  0  0  0  0  0  0
    7.9290  -15.2834   22.3218 C   0  0  2  0  0  0  0  0  0  0  0  0
    7.0055  -15.4738   23.3828 N   0  0  0  0  0  0  0  0  0  0  0  0
    9.3485  -15.3662   22.7664 C   0  0  0  0  0  0  0  0  0  0  0  0
    9.8234  -14.5983   23.6430 O   0  0  0  0  0  0  0  0  0  0  0  0
   11.5936  -19.6761   25.7628 N   0  0  0  0  0  0  0  0  0  0  0  0
   12.8512  -19.1651   25.2985 C   0  0  0  0  0  0  0  0  0  0  0  0
   13.8442  -19.5590   25.9962 O   0  0  0  0  0  0  0  0  0  0  0  0
   12.9631  -18.2737   24.1283 C   0  0  0  0  0  0  0  0  0  0  0  0
   11.6726  -17.9477   23.4614 C   0  0  0  0  0  0  0  0  0  0  0  0
   11.5226  -16.5997   22.8870 C   0  0  2  0  0  0  0  0  0  0  0  0
   10.2726  -16.3274   22.2108 N   0  0  0  0  0  0  0  0  0  0  0  0
   12.7085  -16.1595   22.0652 C   0  0  0  0  0  0  0  0  0  0  0  0
   13.8471  -15.5895   22.5942 O   0  0  0  0  0  0  0  0  0  0  0  0
   12.6400  -16.3257   20.8307 O   0  0  0  0  0  0  0  0  0  0  0  0
  2  1  1  1
  2 10  1  0
  2  3  1  0
  4  9  2  0
  4  3  1  0
  5  4  1  0
  6  7  1  0
  6  5  2  0
  7  8  2  0
  8  9  1  0
 10 11  2  0
 13 12  1  6
 14 13  1  0
 15 13  1  0
 15 16  1  1
 16 10  1  0
 17 18  2  0
 17 15  1  0
 19 20  1  0
 20 21  2  0
 22 20  1  0
 22 23  1  0
 24 23  1  6
 24 26  1  0
 24 25  1  0
 25 17  1  0
 26 27  1  0
 28 26  2  0
M  END
$$$$
