FVQ.pdb
     RDKit          3D

 28 28  0  0  1  0  0  0  0  0999 V2000
    6.9828  -17.5122   26.5765 N   0  0  0  0  0  0  0  0  0  0  0  0
    6.2993  -17.1056   25.3855 C   0  0  1  0  0  0  0  0  0  0  0  0
    5.6646  -15.7505   25.6047 C   0  0  0  0  0  0  0  0  0  0  0  0
    6.5831  -14.7445   26.1852 C   0  0  0  0  0  0  0  0  0  0  0  0
    7.9000  -14.9545   26.4389 C   0  0  0  0  0  0  0  0  0  0  0  0
    8.7306  -13.9720   26.9805 C   0  0  0  0  0  0  0  0  0  0  0  0
    8.1948  -12.7503   27.2660 C   0  0  0  0  0  0  0  0  0  0  0  0
    6.8507  -12.5163   27.0141 C   0  0  0  0  0  0  0  0  0  0  0  0
    6.0436  -13.4919   26.4797 C   0  0  0  0  0  0  0  0  0  0  0  0
    7.2785  -16.9158   24.2699 C   0  0  0  0  0  0  0  0  0  0  0  0
    8.1589  -17.7750   24.0912 O   0  0  0  0  0  0  0  0  0  0  0  0
    6.1490  -14.7758   20.9404 C   0  0  0  0  0  0  0  0  0  0  0  0
    7.5717  -14.4763   21.3963 C   0  0  2  0  0  0  0  0  0  0  0  0
    8.4466  -14.1603   20.2291 C   0  0  0  0  0  0  0  0  0  0  0  0
    8.0568  -15.5165   22.3270 C   0  0  2  0  0  0  0  0  0  0  0  0
    7.1968  -15.7691   23.4277 N   0  0  0  0  0  0  0  0  0  0  0  0
    9.4894  -15.4110   22.7224 C   0  0  0  0  0  0  0  0  0  0  0  0
    9.8960  -14.5555   23.5508 O   0  0  0  0  0  0  0  0  0  0  0  0
   10.7050  -17.8032   26.2829 N   0  0  0  0  0  0  0  0  0  0  0  0
   11.5346  -18.6248   25.4492 C   0  0  0  0  0  0  0  0  0  0  0  0
   11.5640  -19.8469   25.8149 O   0  0  0  0  0  0  0  0  0  0  0  0
   12.2725  -18.0897   24.2892 C   0  0  0  0  0  0  0  0  0  0  0  0
   12.0884  -16.6326   24.0454 C   0  0  0  0  0  0  0  0  0  0  0  0
   11.8648  -16.1958   22.6566 C   0  0  2  0  0  0  0  0  0  0  0  0
   10.5042  -16.2785   22.1707 N   0  0  0  0  0  0  0  0  0  0  0  0
   12.8447  -16.7869   21.6738 C   0  0  0  0  0  0  0  0  0  0  0  0
   14.2138  -16.6612   21.7766 O   0  0  0  0  0  0  0  0  0  0  0  0
   12.3724  -17.4250   20.7114 O   0  0  0  0  0  0  0  0  0  0  0  0
  2  1  1  1
  2 10  1  0
  2  3  1  0
  4  9  2  0
  4  3  1  0
  5  4  1  0
  6  7  1  0
  6  5  2  0
  7  8  2  0
  8  9  1  0
 10 11  2  0
 13 12  1  6
 14 13  1  0
 15 13  1  0
 15 16  1  1
 16 10  1  0
 17 18  2  0
 17 15  1  0
 19 20  1  0
 20 21  2  0
 22 20  1  0
 22 23  1  0
 24 23  1  1
 24 26  1  0
 24 25  1  0
 25 17  1  0
 26 27  1  0
 28 26  2  0
M  END
$$$$
