FVQ.pdb
     RDKit          3D

 28 28  0  0  1  0  0  0  0  0999 V2000
    6.4822  -17.0536   23.2257 N   0  0  0  0  0  0  0  0  0  0  0  0
    7.2541  -16.1052   22.4804 C   0  0  1  0  0  0  0  0  0  0  0  0
    6.3293  -15.2336   21.6606 C   0  0  0  0  0  0  0  0  0  0  0  0
    7.0321  -14.2395   20.8177 C   0  0  0  0  0  0  0  0  0  0  0  0
    7.1470  -12.9193   21.1114 C   0  0  0  0  0  0  0  0  0  0  0  0
    7.8271  -12.0192   20.2892 C   0  0  0  0  0  0  0  0  0  0  0  0
    8.3997  -12.4879   19.1431 C   0  0  0  0  0  0  0  0  0  0  0  0
    8.2931  -13.8342   18.8253 C   0  0  0  0  0  0  0  0  0  0  0  0
    7.6214  -14.7104   19.6438 C   0  0  0  0  0  0  0  0  0  0  0  0
    7.9638  -15.1740   23.4123 C   0  0  0  0  0  0  0  0  0  0  0  0
    8.9376  -14.5276   22.9889 O   0  0  0  0  0  0  0  0  0  0  0  0
    7.0863  -13.5822   27.7680 C   0  0  0  0  0  0  0  0  0  0  0  0
    7.7123  -13.2553   26.4179 C   0  0  2  0  0  0  0  0  0  0  0  0
    6.7678  -12.4666   25.5732 C   0  0  0  0  0  0  0  0  0  0  0  0
    8.3015  -14.4633   25.8039 C   0  0  2  0  0  0  0  0  0  0  0  0
    7.5249  -15.0320   24.7607 N   0  0  0  0  0  0  0  0  0  0  0  0
    8.8266  -15.4807   26.7572 C   0  0  0  0  0  0  0  0  0  0  0  0
    8.0676  -16.2348   27.4196 O   0  0  0  0  0  0  0  0  0  0  0  0
   11.8149  -17.6287   23.5676 N   0  0  0  0  0  0  0  0  0  0  0  0
   12.2946  -17.8246   24.9054 C   0  0  0  0  0  0  0  0  0  0  0  0
   13.5415  -17.5860   25.0341 O   0  0  0  0  0  0  0  0  0  0  0  0
   11.4167  -18.2595   26.0084 C   0  0  0  0  0  0  0  0  0  0  0  0
   11.7058  -17.6307   27.3265 C   0  0  0  0  0  0  0  0  0  0  0  0
   10.7006  -16.7050   27.8762 C   0  0  2  0  0  0  0  0  0  0  0  0
   10.2413  -15.6582   26.9888 N   0  0  0  0  0  0  0  0  0  0  0  0
   11.0601  -16.1640   29.2376 C   0  0  0  0  0  0  0  0  0  0  0  0
   11.4372  -16.9488   30.3066 O   0  0  0  0  0  0  0  0  0  0  0  0
   11.0065  -14.9273   29.3921 O   0  0  0  0  0  0  0  0  0  0  0  0
  2  1  1  1
  2 10  1  0
  2  3  1  0
  4  9  2  0
  4  3  1  0
  5  4  1  0
  6  7  1  0
  6  5  2  0
  7  8  2  0
  8  9  1  0
 10 11  2  0
 13 12  1  1
 14 13  1  0
 15 13  1  0
 15 16  1  1
 16 10  1  0
 17 18  2  0
 17 15  1  0
 19 20  1  0
 20 21  2  0
 22 20  1  0
 22 23  1  0
 24 23  1  6
 24 26  1  0
 24 25  1  0
 25 17  1  0
 26 27  1  0
 28 26  2  0
M  END
$$$$
