FVQ.pdb
     RDKit          3D

 28 28  0  0  1  0  0  0  0  0999 V2000
    7.5303  -17.4391   22.5719 N   0  0  0  0  0  0  0  0  0  0  0  0
    8.0023  -16.1791   22.0813 C   0  0  1  0  0  0  0  0  0  0  0  0
    6.8905  -15.4802   21.3313 C   0  0  0  0  0  0  0  0  0  0  0  0
    7.3180  -14.2414   20.6419 C   0  0  0  0  0  0  0  0  0  0  0  0
    6.9463  -12.9870   21.0037 C   0  0  0  0  0  0  0  0  0  0  0  0
    7.3816  -11.8459   20.3276 C   0  0  0  0  0  0  0  0  0  0  0  0
    8.2155  -11.9999   19.2589 C   0  0  0  0  0  0  0  0  0  0  0  0
    8.6067  -13.2739   18.8735 C   0  0  0  0  0  0  0  0  0  0  0  0
    8.1717  -14.3895   19.5482 C   0  0  0  0  0  0  0  0  0  0  0  0
    8.3448  -15.2774   23.2254 C   0  0  0  0  0  0  0  0  0  0  0  0
    8.5160  -14.0661   23.0047 O   0  0  0  0  0  0  0  0  0  0  0  0
    8.4381  -12.9148   26.9475 C   0  0  0  0  0  0  0  0  0  0  0  0
    7.9036  -13.8223   25.8465 C   0  0  2  0  0  0  0  0  0  0  0  0
    6.4380  -14.0503   26.0129 C   0  0  0  0  0  0  0  0  0  0  0  0
    8.7496  -15.0246   25.6975 C   0  0  2  0  0  0  0  0  0  0  0  0
    8.4684  -15.8031   24.5443 N   0  0  0  0  0  0  0  0  0  0  0  0
    8.9210  -15.8491   26.9264 C   0  0  0  0  0  0  0  0  0  0  0  0
    7.9418  -16.2552   27.6044 O   0  0  0  0  0  0  0  0  0  0  0  0
   13.7737  -19.1394   26.5269 N   0  0  0  0  0  0  0  0  0  0  0  0
   12.7973  -18.6458   25.5989 C   0  0  0  0  0  0  0  0  0  0  0  0
   13.2520  -18.5064   24.4149 O   0  0  0  0  0  0  0  0  0  0  0  0
   11.4104  -18.3361   25.9950 C   0  0  0  0  0  0  0  0  0  0  0  0
   11.1084  -18.5422   27.4382 C   0  0  0  0  0  0  0  0  0  0  0  0
   10.3888  -17.4688   28.1450 C   0  0  2  0  0  0  0  0  0  0  0  0
   10.2242  -16.2255   27.4232 N   0  0  0  0  0  0  0  0  0  0  0  0
   10.8833  -17.2361   29.5510 C   0  0  0  0  0  0  0  0  0  0  0  0
   11.0927  -18.2395   30.4730 O   0  0  0  0  0  0  0  0  0  0  0  0
   11.1108  -16.0565   29.8875 O   0  0  0  0  0  0  0  0  0  0  0  0
  2  1  1  1
  2 10  1  0
  2  3  1  0
  4  9  2  0
  4  3  1  0
  5  4  1  0
  6  7  1  0
  6  5  2  0
  7  8  2  0
  8  9  1  0
 10 11  2  0
 13 12  1  1
 14 13  1  0
 15 13  1  0
 15 16  1  6
 16 10  1  0
 17 18  2  0
 17 15  1  0
 19 20  1  0
 20 21  2  0
 22 20  1  0
 22 23  1  0
 24 23  1  6
 24 26  1  0
 24 25  1  0
 25 17  1  0
 26 27  1  0
 28 26  2  0
M  END
$$$$
