FVQ.pdb
     RDKit          3D

 28 28  0  0  1  0  0  0  0  0999 V2000
    7.2588  -16.1847   26.7762 N   0  0  0  0  0  0  0  0  0  0  0  0
    6.2875  -16.3159   25.7320 C   0  0  1  0  0  0  0  0  0  0  0  0
    5.3516  -15.1284   25.7603 C   0  0  0  0  0  0  0  0  0  0  0  0
    6.0308  -13.8345   25.9995 C   0  0  0  0  0  0  0  0  0  0  0  0
    6.8383  -13.2080   25.1063 C   0  0  0  0  0  0  0  0  0  0  0  0
    7.4521  -11.9828   25.3730 C   0  0  0  0  0  0  0  0  0  0  0  0
    7.2297  -11.3921   26.5825 C   0  0  0  0  0  0  0  0  0  0  0  0
    6.4076  -12.0170   27.5089 C   0  0  0  0  0  0  0  0  0  0  0  0
    5.8084  -13.2229   27.2337 C   0  0  0  0  0  0  0  0  0  0  0  0
    6.9593  -16.2672   24.3957 C   0  0  0  0  0  0  0  0  0  0  0  0
    6.3111  -16.5914   23.3857 O   0  0  0  0  0  0  0  0  0  0  0  0
    7.6837  -14.3065   21.9309 C   0  0  0  0  0  0  0  0  0  0  0  0
    9.1050  -14.7405   22.2672 C   0  0  2  0  0  0  0  0  0  0  0  0
    9.9521  -14.7782   21.0389 C   0  0  0  0  0  0  0  0  0  0  0  0
    9.1000  -15.9560   23.1075 C   0  0  2  0  0  0  0  0  0  0  0  0
    8.3185  -15.8524   24.2879 N   0  0  0  0  0  0  0  0  0  0  0  0
   10.4312  -16.5809   23.3460 C   0  0  0  0  0  0  0  0  0  0  0  0
   11.4757  -15.8966   23.5024 O   0  0  0  0  0  0  0  0  0  0  0  0
   13.6400  -21.1056   22.2894 N   0  0  0  0  0  0  0  0  0  0  0  0
   13.1848  -20.2147   21.2612 C   0  0  0  0  0  0  0  0  0  0  0  0
   13.0914  -20.7710   20.1167 O   0  0  0  0  0  0  0  0  0  0  0  0
   12.8625  -18.7989   21.5223 C   0  0  0  0  0  0  0  0  0  0  0  0
   13.0183  -18.3704   22.9395 C   0  0  0  0  0  0  0  0  0  0  0  0
   11.8709  -18.5668   23.8421 C   0  0  2  0  0  0  0  0  0  0  0  0
   10.6083  -18.0134   23.4021 N   0  0  0  0  0  0  0  0  0  0  0  0
   12.1658  -18.2107   25.2779 C   0  0  0  0  0  0  0  0  0  0  0  0
   11.3680  -17.3948   26.0518 O   0  0  0  0  0  0  0  0  0  0  0  0
   13.2008  -18.6900   25.7832 O   0  0  0  0  0  0  0  0  0  0  0  0
  2  1  1  1
  2 10  1  0
  2  3  1  0
  4  9  2  0
  4  3  1  0
  5  4  1  0
  6  7  1  0
  6  5  2  0
  7  8  2  0
  8  9  1  0
 10 11  2  0
 13 12  1  6
 14 13  1  0
 15 13  1  0
 15 16  1  1
 16 10  1  0
 17 18  2  0
 17 15  1  0
 19 20  1  0
 20 21  2  0
 22 20  1  0
 22 23  1  0
 24 23  1  6
 24 26  1  0
 24 25  1  0
 25 17  1  0
 26 27  1  0
 28 26  2  0
M  END
$$$$
