FVQ.pdb
     RDKit          3D

 28 28  0  0  1  0  0  0  0  0999 V2000
    6.2905  -17.9253   20.4743 N   0  0  0  0  0  0  0  0  0  0  0  0
    5.7938  -17.0355   21.4806 C   0  0  1  0  0  0  0  0  0  0  0  0
    4.9313  -17.8058   22.4553 C   0  0  0  0  0  0  0  0  0  0  0  0
    3.8172  -18.5436   21.8174 C   0  0  0  0  0  0  0  0  0  0  0  0
    3.4599  -19.8178   22.1196 C   0  0  0  0  0  0  0  0  0  0  0  0
    2.3953  -20.4714   21.4966 C   0  0  0  0  0  0  0  0  0  0  0  0
    1.6853  -19.7998   20.5447 C   0  0  0  0  0  0  0  0  0  0  0  0
    2.0352  -18.4967   20.2217 C   0  0  0  0  0  0  0  0  0  0  0  0
    3.0852  -17.8640   20.8432 C   0  0  0  0  0  0  0  0  0  0  0  0
    6.9280  -16.4905   22.2904 C   0  0  0  0  0  0  0  0  0  0  0  0
    8.0400  -17.0407   22.2126 O   0  0  0  0  0  0  0  0  0  0  0  0
    6.4811  -13.0912   25.2511 C   0  0  0  0  0  0  0  0  0  0  0  0
    7.5734  -13.3456   24.2196 C   0  0  2  0  0  0  0  0  0  0  0  0
    7.3865  -12.4723   23.0238 C   0  0  0  0  0  0  0  0  0  0  0  0
    7.7323  -14.7927   23.9664 C   0  0  2  0  0  0  0  0  0  0  0  0
    6.7321  -15.3578   23.1328 N   0  0  0  0  0  0  0  0  0  0  0  0
    8.0300  -15.6281   25.1635 C   0  0  0  0  0  0  0  0  0  0  0  0
    7.1258  -16.0438   25.9337 O   0  0  0  0  0  0  0  0  0  0  0  0
    6.7491  -20.1502   25.8977 N   0  0  0  0  0  0  0  0  0  0  0  0
    8.0782  -20.6750   25.7700 C   0  0  0  0  0  0  0  0  0  0  0  0
    8.1063  -21.9371   25.5840 O   0  0  0  0  0  0  0  0  0  0  0  0
    9.2798  -19.8228   25.8493 C   0  0  0  0  0  0  0  0  0  0  0  0
    9.1215  -18.4589   25.2738 C   0  0  0  0  0  0  0  0  0  0  0  0
    9.6396  -17.3236   26.0564 C   0  0  2  0  0  0  0  0  0  0  0  0
    9.3778  -16.0048   25.5214 N   0  0  0  0  0  0  0  0  0  0  0  0
   11.0825  -17.4828   26.4664 C   0  0  0  0  0  0  0  0  0  0  0  0
   12.0747  -16.5715   26.1730 O   0  0  0  0  0  0  0  0  0  0  0  0
   11.3828  -18.5092   27.1087 O   0  0  0  0  0  0  0  0  0  0  0  0
  2  1  1  6
  2 10  1  0
  2  3  1  0
  4  9  2  0
  4  3  1  0
  5  4  1  0
  6  7  1  0
  6  5  2  0
  7  8  2  0
  8  9  1  0
 10 11  2  0
 13 12  1  1
 14 13  1  0
 15 13  1  0
 15 16  1  1
 16 10  1  0
 17 18  2  0
 17 15  1  0
 19 20  1  0
 20 21  2  0
 22 20  1  0
 22 23  1  0
 24 23  1  6
 24 26  1  0
 24 25  1  0
 25 17  1  0
 26 27  1  0
 28 26  2  0
M  END
$$$$
