FVQ.pdb
     RDKit          3D

 28 28  0  0  1  0  0  0  0  0999 V2000
    5.9758  -17.6001   25.7011 N   0  0  0  0  0  0  0  0  0  0  0  0
    6.4644  -16.3154   25.2991 C   0  0  1  0  0  0  0  0  0  0  0  0
    7.3773  -15.7637   26.3711 C   0  0  0  0  0  0  0  0  0  0  0  0
    7.2170  -14.3106   26.6063 C   0  0  0  0  0  0  0  0  0  0  0  0
    8.2399  -13.4212   26.6793 C   0  0  0  0  0  0  0  0  0  0  0  0
    8.0400  -12.0566   26.8951 C   0  0  0  0  0  0  0  0  0  0  0  0
    6.7625  -11.5995   27.0382 C   0  0  0  0  0  0  0  0  0  0  0  0
    5.7036  -12.4930   26.9669 C   0  0  0  0  0  0  0  0  0  0  0  0
    5.9137  -13.8343   26.7532 C   0  0  0  0  0  0  0  0  0  0  0  0
    7.3153  -16.4487   24.0753 C   0  0  0  0  0  0  0  0  0  0  0  0
    7.9403  -17.5074   23.8911 O   0  0  0  0  0  0  0  0  0  0  0  0
    6.4254  -14.1042   20.7770 C   0  0  0  0  0  0  0  0  0  0  0  0
    7.9182  -14.2871   21.0218 C   0  0  2  0  0  0  0  0  0  0  0  0
    8.6691  -14.2973   19.7319 C   0  0  0  0  0  0  0  0  0  0  0  0
    8.1668  -15.4150   21.9435 C   0  0  2  0  0  0  0  0  0  0  0  0
    7.4018  -15.3782   23.1386 N   0  0  0  0  0  0  0  0  0  0  0  0
    9.5989  -15.7500   22.1813 C   0  0  0  0  0  0  0  0  0  0  0  0
   10.3403  -15.0456   22.9145 O   0  0  0  0  0  0  0  0  0  0  0  0
   12.1161  -20.3633   24.4911 N   0  0  0  0  0  0  0  0  0  0  0  0
   13.2859  -19.9323   23.7812 C   0  0  0  0  0  0  0  0  0  0  0  0
   14.3738  -20.3509   24.3004 O   0  0  0  0  0  0  0  0  0  0  0  0
   13.2161  -19.0888   22.5729 C   0  0  0  0  0  0  0  0  0  0  0  0
   11.8412  -18.6907   22.1635 C   0  0  0  0  0  0  0  0  0  0  0  0
   11.5824  -17.2573   21.9442 C   0  0  2  0  0  0  0  0  0  0  0  0
   10.2294  -16.9000   21.5760 N   0  0  0  0  0  0  0  0  0  0  0  0
   12.5982  -16.5916   21.0495 C   0  0  0  0  0  0  0  0  0  0  0  0
   13.8548  -16.2023   21.4620 O   0  0  0  0  0  0  0  0  0  0  0  0
   12.2658  -16.3844   19.8650 O   0  0  0  0  0  0  0  0  0  0  0  0
  2  1  1  1
  2 10  1  0
  2  3  1  0
  4  9  2  0
  4  3  1  0
  5  4  1  0
  6  7  1  0
  6  5  2  0
  7  8  2  0
  8  9  1  0
 10 11  2  0
 13 12  1  6
 14 13  1  0
 15 13  1  0
 15 16  1  1
 16 10  1  0
 17 18  2  0
 17 15  1  0
 19 20  1  0
 20 21  2  0
 22 20  1  0
 22 23  1  0
 24 23  1  6
 24 26  1  0
 24 25  1  0
 25 17  1  0
 26 27  1  0
 28 26  2  0
M  END
$$$$
