FVQ.pdb
     RDKit          3D

 28 28  0  0  1  0  0  0  0  0999 V2000
    9.8711  -16.9047   21.6531 N   0  0  0  0  0  0  0  0  0  0  0  0
    9.2500  -15.6692   22.0255 C   0  0  1  0  0  0  0  0  0  0  0  0
    7.8431  -15.6240   21.4727 C   0  0  0  0  0  0  0  0  0  0  0  0
    7.5391  -14.3947   20.7052 C   0  0  0  0  0  0  0  0  0  0  0  0
    7.2393  -13.1918   21.2581 C   0  0  0  0  0  0  0  0  0  0  0  0
    6.9670  -12.0561   20.4934 C   0  0  0  0  0  0  0  0  0  0  0  0
    7.0043  -12.1615   19.1337 C   0  0  0  0  0  0  0  0  0  0  0  0
    7.3086  -13.3826   18.5497 C   0  0  0  0  0  0  0  0  0  0  0  0
    7.5756  -14.4933   19.3139 C   0  0  0  0  0  0  0  0  0  0  0  0
    9.1006  -15.5966   23.5127 C   0  0  0  0  0  0  0  0  0  0  0  0
    9.6420  -16.4688   24.2138 O   0  0  0  0  0  0  0  0  0  0  0  0
    7.5602  -11.9825   25.0426 C   0  0  0  0  0  0  0  0  0  0  0  0
    7.3350  -13.2269   25.8925 C   0  0  2  0  0  0  0  0  0  0  0  0
    7.2776  -12.8752   27.3418 C   0  0  0  0  0  0  0  0  0  0  0  0
    8.2701  -14.3043   25.5075 C   0  0  2  0  0  0  0  0  0  0  0  0
    8.3518  -14.5415   24.1103 N   0  0  0  0  0  0  0  0  0  0  0  0
    8.1717  -15.5592   26.3043 C   0  0  0  0  0  0  0  0  0  0  0  0
    7.2187  -16.3694   26.1659 O   0  0  0  0  0  0  0  0  0  0  0  0
   10.9861  -19.5045   24.0620 N   0  0  0  0  0  0  0  0  0  0  0  0
   10.7973  -20.1829   25.3118 C   0  0  0  0  0  0  0  0  0  0  0  0
   11.1348  -21.4129   25.2741 O   0  0  0  0  0  0  0  0  0  0  0  0
   10.2640  -19.5071   26.5099 C   0  0  0  0  0  0  0  0  0  0  0  0
    9.9631  -18.0598   26.3329 C   0  0  0  0  0  0  0  0  0  0  0  0
    9.4889  -17.3124   27.5102 C   0  0  2  0  0  0  0  0  0  0  0  0
    9.1597  -15.9199   27.2945 N   0  0  0  0  0  0  0  0  0  0  0  0
   10.3555  -17.4978   28.7309 C   0  0  0  0  0  0  0  0  0  0  0  0
   10.4498  -18.6762   29.4404 O   0  0  0  0  0  0  0  0  0  0  0  0
   11.0212  -16.5142   29.1123 O   0  0  0  0  0  0  0  0  0  0  0  0
  2  1  1  1
  2 10  1  0
  2  3  1  0
  4  9  2  0
  4  3  1  0
  5  4  1  0
  6  7  1  0
  6  5  2  0
  7  8  2  0
  8  9  1  0
 10 11  2  0
 13 12  1  6
 14 13  1  0
 15 13  1  0
 15 16  1  6
 16 10  1  0
 17 18  2  0
 17 15  1  0
 19 20  1  0
 20 21  2  0
 22 20  1  0
 22 23  1  0
 24 23  1  6
 24 26  1  0
 24 25  1  0
 25 17  1  0
 26 27  1  0
 28 26  2  0
M  END
$$$$
