NMY.pdb
     RDKit          3D

 29 29  0  0  1  0  0  0  0  0999 V2000
   22.4101  -15.4072  -19.7418 N   0  0  0  0  0  0  0  0  0  0  0  0
   22.3317  -15.7183  -18.3680 C   0  0  0  0  0  0  0  0  0  0  0  0
   21.7962  -16.8163  -18.0535 O   0  0  0  0  0  0  0  0  0  0  0  0
   22.8679  -14.7695  -17.3534 C   0  0  0  0  0  0  0  0  0  0  0  0
   23.3034  -13.5373  -18.0759 C   0  0  2  0  0  0  0  0  0  0  0  0
   24.3985  -13.8205  -18.9507 N   0  0  0  0  0  0  0  0  0  0  0  0
   23.6381  -12.4091  -17.1524 C   0  0  0  0  0  0  0  0  0  0  0  0
   22.7201  -11.9769  -16.4400 O   0  0  0  0  0  0  0  0  0  0  0  0
   30.3543  -12.7596  -15.4509 C   0  0  0  0  0  0  0  0  0  0  0  0
   29.4178  -11.3206  -15.9797 S   0  0  0  0  0  0  0  0  0  0  0  0
   27.6389  -11.7722  -15.9315 C   0  0  0  0  0  0  0  0  0  0  0  0
   26.8791  -10.5415  -16.2587 C   0  0  0  0  0  0  0  0  0  0  0  0
   25.3735  -10.7273  -16.3599 C   0  0  2  0  0  0  0  0  0  0  0  0
   24.9445  -11.8617  -17.0966 N   0  0  0  0  0  0  0  0  0  0  0  0
   24.7567   -9.4455  -16.7006 C   0  0  0  0  0  0  0  0  0  0  0  0
   25.0508   -8.8050  -17.7674 O   0  0  0  0  0  0  0  0  0  0  0  0
   19.0893   -4.0827  -19.7484 O   0  0  0  0  0  0  0  0  0  0  0  0
   19.9006   -5.0705  -19.1975 C   0  0  0  0  0  0  0  0  0  0  0  0
   21.2461   -4.8543  -19.0632 C   0  0  0  0  0  0  0  0  0  0  0  0
   22.0324   -5.8439  -18.5158 C   0  0  0  0  0  0  0  0  0  0  0  0
   21.4436   -7.0203  -18.1202 C   0  0  0  0  0  0  0  0  0  0  0  0
   22.2505   -8.0949  -17.5425 C   0  0  0  0  0  0  0  0  0  0  0  0
   23.0518   -7.6019  -16.3630 C   0  0  2  0  0  0  0  0  0  0  0  0
   23.7788   -8.7940  -15.8845 N   0  0  0  0  0  0  0  0  0  0  0  0
   22.1440   -7.0883  -15.3234 C   0  0  0  0  0  0  0  0  0  0  0  0
   21.6102   -7.8250  -14.4952 O   0  0  0  0  0  0  0  0  0  0  0  0
   20.0745   -7.2338  -18.2595 C   0  0  0  0  0  0  0  0  0  0  0  0
   19.2998   -6.2523  -18.8014 C   0  0  0  0  0  0  0  0  0  0  0  0
   21.8901   -5.7242  -15.2878 O   0  0  0  0  0  0  0  0  0  0  0  0
  2  1  1  0
  3  2  2  0
  4  5  1  0
  4  2  1  0
  5  6  1  1
  7  5  1  0
  7  8  2  0
  9 10  1  0
 11 10  1  0
 12 11  1  0
 13 12  1  6
 13 14  1  0
 14  7  1  0
 15 24  1  0
 15 13  1  0
 16 15  2  0
 18 17  1  0
 19 18  2  0
 20 19  1  0
 21 20  2  0
 21 27  1  0
 22 21  1  0
 23 24  1  0
 23 22  1  6
 25 23  1  0
 26 25  2  0
 27 28  2  0
 28 18  1  0
 29 25  1  0
M  END
$$$$
