NMY.pdb
     RDKit          3D

 29 29  0  0  1  0  0  0  0  0999 V2000
   28.7557  -21.0192  -17.3672 N   0  0  0  0  0  0  0  0  0  0  0  0
   29.2084  -21.9826  -16.4413 C   0  0  0  0  0  0  0  0  0  0  0  0
   30.1300  -22.7577  -16.8174 O   0  0  0  0  0  0  0  0  0  0  0  0
   28.6041  -22.0576  -15.0826 C   0  0  0  0  0  0  0  0  0  0  0  0
   27.5873  -20.9685  -14.9818 C   0  0  2  0  0  0  0  0  0  0  0  0
   28.1408  -19.8126  -14.3476 N   0  0  0  0  0  0  0  0  0  0  0  0
   26.3337  -21.4049  -14.2923 C   0  0  0  0  0  0  0  0  0  0  0  0
   25.5832  -22.1647  -14.9220 O   0  0  0  0  0  0  0  0  0  0  0  0
   25.6076  -19.3984   -8.2572 C   0  0  0  0  0  0  0  0  0  0  0  0
   26.0035  -21.1504   -8.2873 S   0  0  0  0  0  0  0  0  0  0  0  0
   26.0739  -21.6697  -10.0468 C   0  0  0  0  0  0  0  0  0  0  0  0
   24.9496  -20.9909  -10.7355 C   0  0  0  0  0  0  0  0  0  0  0  0
   24.8548  -21.2648  -12.2280 C   0  0  2  0  0  0  0  0  0  0  0  0
   26.0209  -20.9686  -12.9804 N   0  0  0  0  0  0  0  0  0  0  0  0
   23.5895  -20.7307  -12.7313 C   0  0  0  0  0  0  0  0  0  0  0  0
   23.2859  -19.4917  -12.6464 O   0  0  0  0  0  0  0  0  0  0  0  0
   16.1014  -20.0178  -17.1873 O   0  0  0  0  0  0  0  0  0  0  0  0
   17.3447  -20.3865  -16.6815 C   0  0  0  0  0  0  0  0  0  0  0  0
   18.4269  -19.5674  -16.8629 C   0  0  0  0  0  0  0  0  0  0  0  0
   19.6490  -19.9496  -16.3550 C   0  0  0  0  0  0  0  0  0  0  0  0
   19.7468  -21.1425  -15.6809 C   0  0  0  0  0  0  0  0  0  0  0  0
   21.0310  -21.5822  -15.1359 C   0  0  0  0  0  0  0  0  0  0  0  0
   21.2993  -20.9490  -13.7930 C   0  0  2  0  0  0  0  0  0  0  0  0
   22.5838  -21.5321  -13.3583 N   0  0  0  0  0  0  0  0  0  0  0  0
   20.2202  -21.2971  -12.8533 C   0  0  0  0  0  0  0  0  0  0  0  0
   19.2820  -20.5364  -12.6197 O   0  0  0  0  0  0  0  0  0  0  0  0
   18.6420  -21.9709  -15.4999 C   0  0  0  0  0  0  0  0  0  0  0  0
   17.4346  -21.5893  -16.0037 C   0  0  0  0  0  0  0  0  0  0  0  0
   20.2756  -22.5288  -12.2158 O   0  0  0  0  0  0  0  0  0  0  0  0
  2  1  1  0
  3  2  2  0
  4  5  1  0
  4  2  1  0
  5  6  1  1
  7  5  1  0
  7  8  2  0
  9 10  1  0
 11 10  1  0
 12 11  1  0
 13 12  1  1
 13 14  1  0
 14  7  1  0
 15 24  1  0
 15 13  1  0
 16 15  2  0
 18 17  1  0
 19 18  2  0
 20 19  1  0
 21 20  2  0
 21 27  1  0
 22 21  1  0
 23 24  1  0
 23 22  1  6
 25 23  1  0
 26 25  2  0
 27 28  2  0
 28 18  1  0
 29 25  1  0
M  END
$$$$
