NMY.pdb
     RDKit          3D

 29 29  0  0  1  0  0  0  0  0999 V2000
   29.6848  -19.2723  -17.0584 N   0  0  0  0  0  0  0  0  0  0  0  0
   28.4030  -19.0542  -17.6060 C   0  0  0  0  0  0  0  0  0  0  0  0
   28.2441  -18.0210  -18.3121 O   0  0  0  0  0  0  0  0  0  0  0  0
   27.3021  -20.0218  -17.3440 C   0  0  0  0  0  0  0  0  0  0  0  0
   27.8795  -21.1615  -16.5708 C   0  0  2  0  0  0  0  0  0  0  0  0
   28.2735  -22.2221  -17.4452 N   0  0  0  0  0  0  0  0  0  0  0  0
   26.9604  -21.6654  -15.5036 C   0  0  0  0  0  0  0  0  0  0  0  0
   26.4025  -22.7528  -15.7120 O   0  0  0  0  0  0  0  0  0  0  0  0
   24.8245  -20.8732   -7.9274 C   0  0  0  0  0  0  0  0  0  0  0  0
   25.9048  -20.3524   -9.2649 S   0  0  0  0  0  0  0  0  0  0  0  0
   25.2041  -21.0119  -10.8284 C   0  0  0  0  0  0  0  0  0  0  0  0
   26.1814  -20.6969  -11.8982 C   0  0  0  0  0  0  0  0  0  0  0  0
   25.8154  -21.2273  -13.2753 C   0  0  2  0  0  0  0  0  0  0  0  0
   26.7394  -20.9318  -14.3109 N   0  0  0  0  0  0  0  0  0  0  0  0
   24.4076  -20.9326  -13.5411 C   0  0  0  0  0  0  0  0  0  0  0  0
   23.9795  -19.7425  -13.7280 O   0  0  0  0  0  0  0  0  0  0  0  0
   15.9564  -22.0136  -15.5000 O   0  0  0  0  0  0  0  0  0  0  0  0
   17.2921  -22.2364  -15.1774 C   0  0  0  0  0  0  0  0  0  0  0  0
   17.6179  -22.8376  -13.9911 C   0  0  0  0  0  0  0  0  0  0  0  0
   18.9452  -23.0495  -13.6897 C   0  0  0  0  0  0  0  0  0  0  0  0
   19.9044  -22.6512  -14.5887 C   0  0  0  0  0  0  0  0  0  0  0  0
   21.3232  -22.8538  -14.2965 C   0  0  0  0  0  0  0  0  0  0  0  0
   21.9739  -21.5728  -13.8359 C   0  0  2  0  0  0  0  0  0  0  0  0
   23.3882  -21.9336  -13.6163 N   0  0  0  0  0  0  0  0  0  0  0  0
   21.3475  -21.1181  -12.5831 C   0  0  0  0  0  0  0  0  0  0  0  0
   21.6264  -21.6133  -11.4919 O   0  0  0  0  0  0  0  0  0  0  0  0
   19.5661  -22.0404  -15.7937 C   0  0  0  0  0  0  0  0  0  0  0  0
   18.2519  -21.8325  -16.0884 C   0  0  0  0  0  0  0  0  0  0  0  0
   20.4118  -20.0950  -12.6495 O   0  0  0  0  0  0  0  0  0  0  0  0
  2  1  1  0
  3  2  2  0
  4  5  1  0
  4  2  1  0
  5  6  1  6
  7  5  1  0
  7  8  2  0
  9 10  1  0
 11 10  1  0
 12 11  1  0
 13 12  1  1
 13 14  1  0
 14  7  1  0
 15 24  1  0
 15 13  1  0
 16 15  2  0
 18 17  1  0
 19 18  2  0
 20 19  1  0
 21 20  2  0
 21 27  1  0
 22 21  1  0
 23 24  1  0
 23 22  1  1
 25 23  1  0
 26 25  2  0
 27 28  2  0
 28 18  1  0
 29 25  1  0
M  END
$$$$
