NMY.pdb
     RDKit          3D

 29 29  0  0  1  0  0  0  0  0999 V2000
   31.4452  -24.3622  -20.3494 N   0  0  0  0  0  0  0  0  0  0  0  0
   31.3445  -23.1437  -19.6455 C   0  0  0  0  0  0  0  0  0  0  0  0
   32.4064  -22.4835  -19.4778 O   0  0  0  0  0  0  0  0  0  0  0  0
   30.0251  -22.6813  -19.1335 C   0  0  0  0  0  0  0  0  0  0  0  0
   29.8197  -23.3047  -17.7921 C   0  0  2  0  0  0  0  0  0  0  0  0
   29.1843  -24.5797  -17.9153 N   0  0  0  0  0  0  0  0  0  0  0  0
   29.0638  -22.4222  -16.8501 C   0  0  0  0  0  0  0  0  0  0  0  0
   29.1595  -22.6806  -15.6413 O   0  0  0  0  0  0  0  0  0  0  0  0
   27.3301  -16.3305  -18.0776 C   0  0  0  0  0  0  0  0  0  0  0  0
   28.9243  -16.6634  -17.3192 S   0  0  0  0  0  0  0  0  0  0  0  0
   29.0302  -18.4733  -17.0300 C   0  0  0  0  0  0  0  0  0  0  0  0
   27.6365  -18.9698  -16.9296 C   0  0  0  0  0  0  0  0  0  0  0  0
   27.5057  -20.4353  -16.5464 C   0  0  2  0  0  0  0  0  0  0  0  0
   28.2757  -21.3418  -17.3202 N   0  0  0  0  0  0  0  0  0  0  0  0
   26.0900  -20.7564  -16.3661 C   0  0  0  0  0  0  0  0  0  0  0  0
   25.3461  -21.1428  -17.3314 O   0  0  0  0  0  0  0  0  0  0  0  0
   18.3698  -22.1540  -12.4199 O   0  0  0  0  0  0  0  0  0  0  0  0
   19.7121  -21.9173  -12.7026 C   0  0  0  0  0  0  0  0  0  0  0  0
   20.5184  -22.9485  -13.1046 C   0  0  0  0  0  0  0  0  0  0  0  0
   21.8440  -22.6944  -13.3796 C   0  0  0  0  0  0  0  0  0  0  0  0
   22.3192  -21.4128  -13.2425 C   0  0  0  0  0  0  0  0  0  0  0  0
   23.7233  -21.1099  -13.5187 C   0  0  0  0  0  0  0  0  0  0  0  0
   23.9653  -20.9469  -14.9990 C   0  0  2  0  0  0  0  0  0  0  0  0
   25.4110  -20.6700  -15.1098 N   0  0  0  0  0  0  0  0  0  0  0  0
   23.1735  -19.8161  -15.5119 C   0  0  0  0  0  0  0  0  0  0  0  0
   23.5410  -18.6483  -15.3905 O   0  0  0  0  0  0  0  0  0  0  0  0
   21.4936  -20.3685  -12.8333 C   0  0  0  0  0  0  0  0  0  0  0  0
   20.1827  -20.6238  -12.5622 C   0  0  0  0  0  0  0  0  0  0  0  0
   21.9732  -20.0912  -16.1524 O   0  0  0  0  0  0  0  0  0  0  0  0
  2  1  1  0
  3  2  2  0
  4  5  1  0
  4  2  1  0
  5  6  1  6
  7  5  1  0
  7  8  2  0
  9 10  1  0
 11 10  1  0
 12 11  1  0
 13 12  1  6
 13 14  1  0
 14  7  1  0
 15 24  1  0
 15 13  1  0
 16 15  2  0
 18 17  1  0
 19 18  2  0
 20 19  1  0
 21 20  2  0
 21 27  1  0
 22 21  1  0
 23 24  1  0
 23 22  1  1
 25 23  1  0
 26 25  2  0
 27 28  2  0
 28 18  1  0
 29 25  1  0
M  END
$$$$
