NMY.pdb
     RDKit          3D

 29 29  0  0  1  0  0  0  0  0999 V2000
   32.5122  -34.2328  -19.7542 N   0  0  0  0  0  0  0  0  0  0  0  0
   31.2310  -33.7290  -20.0623 C   0  0  0  0  0  0  0  0  0  0  0  0
   30.5732  -34.3294  -20.9558 O   0  0  0  0  0  0  0  0  0  0  0  0
   30.7030  -32.5356  -19.3454 C   0  0  0  0  0  0  0  0  0  0  0  0
   31.7446  -32.1014  -18.3673 C   0  0  2  0  0  0  0  0  0  0  0  0
   31.8131  -33.0056  -17.2617 N   0  0  0  0  0  0  0  0  0  0  0  0
   31.5482  -30.6960  -17.8939 C   0  0  0  0  0  0  0  0  0  0  0  0
   30.8772  -30.5405  -16.8631 O   0  0  0  0  0  0  0  0  0  0  0  0
   34.8593  -27.1144  -21.6993 C   0  0  0  0  0  0  0  0  0  0  0  0
   35.1006  -26.4302  -20.0558 S   0  0  0  0  0  0  0  0  0  0  0  0
   34.1817  -27.4944  -18.8752 C   0  0  0  0  0  0  0  0  0  0  0  0
   32.7393  -27.2476  -19.1146 C   0  0  0  0  0  0  0  0  0  0  0  0
   31.7999  -28.2205  -18.4197 C   0  0  2  0  0  0  0  0  0  0  0  0
   32.1044  -29.5955  -18.5932 N   0  0  0  0  0  0  0  0  0  0  0  0
   30.4183  -27.8120  -18.6723 C   0  0  0  0  0  0  0  0  0  0  0  0
   29.5091  -28.6432  -19.0144 O   0  0  0  0  0  0  0  0  0  0  0  0
   25.2947  -31.0461  -15.9673 O   0  0  0  0  0  0  0  0  0  0  0  0
   26.1620  -29.9684  -16.1219 C   0  0  0  0  0  0  0  0  0  0  0  0
   27.5156  -30.1657  -16.0594 C   0  0  0  0  0  0  0  0  0  0  0  0
   28.3578  -29.0867  -16.2147 C   0  0  0  0  0  0  0  0  0  0  0  0
   27.8149  -27.8430  -16.4277 C   0  0  0  0  0  0  0  0  0  0  0  0
   28.6802  -26.6747  -16.5886 C   0  0  0  0  0  0  0  0  0  0  0  0
   28.6288  -26.1483  -18.0017 C   0  0  2  0  0  0  0  0  0  0  0  0
   29.9577  -26.4620  -18.5625 N   0  0  0  0  0  0  0  0  0  0  0  0
   28.3966  -24.6942  -17.9838 C   0  0  0  0  0  0  0  0  0  0  0  0
   29.2883  -23.8835  -18.2313 O   0  0  0  0  0  0  0  0  0  0  0  0
   26.4372  -27.6493  -16.4902 C   0  0  0  0  0  0  0  0  0  0  0  0
   25.6072  -28.7192  -16.3362 C   0  0  0  0  0  0  0  0  0  0  0  0
   27.1233  -24.2357  -17.6755 O   0  0  0  0  0  0  0  0  0  0  0  0
  2  1  1  0
  3  2  2  0
  4  5  1  0
  4  2  1  0
  5  6  1  1
  7  5  1  0
  7  8  2  0
  9 10  1  0
 11 10  1  0
 12 11  1  0
 13 12  1  6
 13 14  1  0
 14  7  1  0
 15 24  1  0
 15 13  1  0
 16 15  2  0
 18 17  1  0
 19 18  2  0
 20 19  1  0
 21 20  2  0
 21 27  1  0
 22 21  1  0
 23 24  1  0
 23 22  1  1
 25 23  1  0
 26 25  2  0
 27 28  2  0
 28 18  1  0
 29 25  1  0
M  END
$$$$
