NMY.pdb
     RDKit          3D

 29 29  0  0  1  0  0  0  0  0999 V2000
   20.1413  -34.3705  -16.2021 N   0  0  0  0  0  0  0  0  0  0  0  0
   19.1028  -34.5453  -15.2633 C   0  0  0  0  0  0  0  0  0  0  0  0
   18.1762  -35.3451  -15.5684 O   0  0  0  0  0  0  0  0  0  0  0  0
   19.1266  -33.8024  -13.9731 C   0  0  0  0  0  0  0  0  0  0  0  0
   20.4305  -33.0787  -13.8948 C   0  0  2  0  0  0  0  0  0  0  0  0
   21.4710  -33.9515  -13.4472 N   0  0  0  0  0  0  0  0  0  0  0  0
   20.3638  -31.8502  -13.0440 C   0  0  0  0  0  0  0  0  0  0  0  0
   19.4987  -31.0118  -13.3371 O   0  0  0  0  0  0  0  0  0  0  0  0
   17.3417  -31.3117   -6.5780 C   0  0  0  0  0  0  0  0  0  0  0  0
   17.9544  -32.1561   -8.0405 S   0  0  0  0  0  0  0  0  0  0  0  0
   19.3933  -31.2025   -8.6656 C   0  0  0  0  0  0  0  0  0  0  0  0
   19.8126  -31.8480   -9.9331 C   0  0  0  0  0  0  0  0  0  0  0  0
   20.9372  -31.1388  -10.6706 C   0  0  2  0  0  0  0  0  0  0  0  0
   21.2496  -31.6561  -11.9544 N   0  0  0  0  0  0  0  0  0  0  0  0
   22.0554  -30.9330   -9.7504 C   0  0  0  0  0  0  0  0  0  0  0  0
   21.9219  -30.3243   -8.6341 O   0  0  0  0  0  0  0  0  0  0  0  0
   25.8354  -34.7771   -3.5567 O   0  0  0  0  0  0  0  0  0  0  0  0
   25.2025  -34.2079   -4.6582 C   0  0  0  0  0  0  0  0  0  0  0  0
   25.2782  -32.8569   -4.8677 C   0  0  0  0  0  0  0  0  0  0  0  0
   24.6453  -32.3123   -5.9633 C   0  0  0  0  0  0  0  0  0  0  0  0
   23.9557  -33.1410   -6.8146 C   0  0  0  0  0  0  0  0  0  0  0  0
   23.2656  -32.5947   -7.9828 C   0  0  0  0  0  0  0  0  0  0  0  0
   24.2353  -31.9278   -8.9269 C   0  0  2  0  0  0  0  0  0  0  0  0
   23.3878  -31.3865  -10.0074 N   0  0  0  0  0  0  0  0  0  0  0  0
   25.1837  -32.9240   -9.4529 C   0  0  0  0  0  0  0  0  0  0  0  0
   26.1275  -33.3479   -8.7872 O   0  0  0  0  0  0  0  0  0  0  0  0
   23.8827  -34.5145   -6.5956 C   0  0  0  0  0  0  0  0  0  0  0  0
   24.5103  -35.0496   -5.5108 C   0  0  0  0  0  0  0  0  0  0  0  0
   24.9950  -33.3928  -10.7457 O   0  0  0  0  0  0  0  0  0  0  0  0
  2  1  1  0
  3  2  2  0
  4  5  1  0
  4  2  1  0
  5  6  1  1
  7  5  1  0
  7  8  2  0
  9 10  1  0
 11 10  1  0
 12 11  1  0
 13 12  1  1
 13 14  1  0
 14  7  1  0
 15 24  1  0
 15 13  1  0
 16 15  2  0
 18 17  1  0
 19 18  2  0
 20 19  1  0
 21 20  2  0
 21 27  1  0
 22 21  1  0
 23 24  1  0
 23 22  1  1
 25 23  1  0
 26 25  2  0
 27 28  2  0
 28 18  1  0
 29 25  1  0
M  END
$$$$
