NMY.pdb
     RDKit          3D

 29 29  0  0  1  0  0  0  0  0999 V2000
   34.4966  -24.3758  -20.5366 N   0  0  0  0  0  0  0  0  0  0  0  0
   35.6718  -25.0256  -20.9690 C   0  0  0  0  0  0  0  0  0  0  0  0
   36.3222  -24.4826  -21.9036 O   0  0  0  0  0  0  0  0  0  0  0  0
   36.1020  -26.2994  -20.3292 C   0  0  0  0  0  0  0  0  0  0  0  0
   35.0906  -26.6424  -19.2854 C   0  0  2  0  0  0  0  0  0  0  0  0
   35.4140  -26.0200  -18.0393 N   0  0  0  0  0  0  0  0  0  0  0  0
   34.9102  -28.1173  -19.1126 C   0  0  0  0  0  0  0  0  0  0  0  0
   34.4800  -28.7475  -20.0897 O   0  0  0  0  0  0  0  0  0  0  0  0
   40.2750  -31.1035  -16.2451 C   0  0  0  0  0  0  0  0  0  0  0  0
   38.5588  -31.3345  -15.7668 S   0  0  0  0  0  0  0  0  0  0  0  0
   37.5168  -30.5282  -17.0453 C   0  0  0  0  0  0  0  0  0  0  0  0
   36.1075  -30.7077  -16.6200 C   0  0  0  0  0  0  0  0  0  0  0  0
   35.0729  -30.1386  -17.5778 C   0  0  2  0  0  0  0  0  0  0  0  0
   35.2175  -28.7615  -17.8879 N   0  0  0  0  0  0  0  0  0  0  0  0
   33.7434  -30.5876  -17.1652 C   0  0  0  0  0  0  0  0  0  0  0  0
   33.0348  -29.9445  -16.3173 O   0  0  0  0  0  0  0  0  0  0  0  0
   25.5173  -31.7134  -16.5583 O   0  0  0  0  0  0  0  0  0  0  0  0
   26.8668  -31.5190  -16.8388 C   0  0  0  0  0  0  0  0  0  0  0  0
   27.6671  -30.8731  -15.9346 C   0  0  0  0  0  0  0  0  0  0  0  0
   29.0000  -30.6903  -16.2302 C   0  0  0  0  0  0  0  0  0  0  0  0
   29.4882  -31.1614  -17.4247 C   0  0  0  0  0  0  0  0  0  0  0  0
   30.8967  -30.9770  -17.7736 C   0  0  0  0  0  0  0  0  0  0  0  0
   31.7363  -32.1297  -17.2808 C   0  0  2  0  0  0  0  0  0  0  0  0
   33.1165  -31.7731  -17.6636 N   0  0  0  0  0  0  0  0  0  0  0  0
   31.3125  -33.3743  -17.9441 C   0  0  0  0  0  0  0  0  0  0  0  0
   31.7330  -33.7040  -19.0523 O   0  0  0  0  0  0  0  0  0  0  0  0
   28.6688  -31.8175  -18.3398 C   0  0  0  0  0  0  0  0  0  0  0  0
   27.3507  -31.9967  -18.0438 C   0  0  0  0  0  0  0  0  0  0  0  0
   30.4070  -34.1947  -17.2856 O   0  0  0  0  0  0  0  0  0  0  0  0
  2  1  1  0
  3  2  2  0
  4  5  1  0
  4  2  1  0
  5  6  1  1
  7  5  1  0
  7  8  2  0
  9 10  1  0
 11 10  1  0
 12 11  1  0
 13 12  1  1
 13 14  1  0
 14  7  1  0
 15 24  1  0
 15 13  1  0
 16 15  2  0
 18 17  1  0
 19 18  2  0
 20 19  1  0
 21 20  2  0
 21 27  1  0
 22 21  1  0
 23 24  1  0
 23 22  1  6
 25 23  1  0
 26 25  2  0
 27 28  2  0
 28 18  1  0
 29 25  1  0
M  END
$$$$
