NMY.pdb
     RDKit          3D

 29 29  0  0  1  0  0  0  0  0999 V2000
   27.9337  -19.0740  -19.2796 N   0  0  0  0  0  0  0  0  0  0  0  0
   27.6309  -18.9110  -17.9113 C   0  0  0  0  0  0  0  0  0  0  0  0
   28.2311  -17.9902  -17.2921 O   0  0  0  0  0  0  0  0  0  0  0  0
   26.6389  -19.8045  -17.2521 C   0  0  0  0  0  0  0  0  0  0  0  0
   27.3514  -20.5461  -16.1693 C   0  0  2  0  0  0  0  0  0  0  0  0
   28.1793  -21.5754  -16.7170 N   0  0  0  0  0  0  0  0  0  0  0  0
   26.4228  -21.1029  -15.1373 C   0  0  0  0  0  0  0  0  0  0  0  0
   25.6335  -21.9833  -15.5102 O   0  0  0  0  0  0  0  0  0  0  0  0
   24.6447  -20.7696   -7.3760 C   0  0  0  0  0  0  0  0  0  0  0  0
   25.7608  -20.3105   -8.7068 S   0  0  0  0  0  0  0  0  0  0  0  0
   25.0164  -20.8987  -10.2785 C   0  0  0  0  0  0  0  0  0  0  0  0
   25.9996  -20.6071  -11.3496 C   0  0  0  0  0  0  0  0  0  0  0  0
   25.5496  -20.9867  -12.7515 C   0  0  2  0  0  0  0  0  0  0  0  0
   26.4462  -20.6436  -13.7964 N   0  0  0  0  0  0  0  0  0  0  0  0
   24.1508  -20.5961  -12.9253 C   0  0  0  0  0  0  0  0  0  0  0  0
   23.7478  -19.3949  -12.7547 O   0  0  0  0  0  0  0  0  0  0  0  0
   21.7026  -17.0886  -18.2090 O   0  0  0  0  0  0  0  0  0  0  0  0
   21.5712  -18.1806  -17.3558 C   0  0  0  0  0  0  0  0  0  0  0  0
   20.3263  -18.6550  -17.0392 C   0  0  0  0  0  0  0  0  0  0  0  0
   20.2166  -19.7365  -16.1931 C   0  0  0  0  0  0  0  0  0  0  0  0
   21.3603  -20.3082  -15.6910 C   0  0  0  0  0  0  0  0  0  0  0  0
   21.2795  -21.4527  -14.7837 C   0  0  0  0  0  0  0  0  0  0  0  0
   21.7055  -21.0729  -13.3870 C   0  0  2  0  0  0  0  0  0  0  0  0
   23.1132  -21.5080  -13.2977 N   0  0  0  0  0  0  0  0  0  0  0  0
   20.8731  -21.7832  -12.4016 C   0  0  0  0  0  0  0  0  0  0  0  0
   21.2091  -22.8612  -11.9131 O   0  0  0  0  0  0  0  0  0  0  0  0
   22.6234  -19.8208  -16.0172 C   0  0  0  0  0  0  0  0  0  0  0  0
   22.7279  -18.7508  -16.8546 C   0  0  0  0  0  0  0  0  0  0  0  0
   19.6702  -21.2056  -12.0192 O   0  0  0  0  0  0  0  0  0  0  0  0
  2  1  1  0
  3  2  2  0
  4  5  1  0
  4  2  1  0
  5  6  1  6
  7  5  1  0
  7  8  2  0
  9 10  1  0
 11 10  1  0
 12 11  1  0
 13 12  1  1
 13 14  1  0
 14  7  1  0
 15 24  1  0
 15 13  1  0
 16 15  2  0
 18 17  1  0
 19 18  2  0
 20 19  1  0
 21 20  2  0
 21 27  1  0
 22 21  1  0
 23 24  1  0
 23 22  1  6
 25 23  1  0
 26 25  2  0
 27 28  2  0
 28 18  1  0
 29 25  1  0
M  END
$$$$
