NMY.pdb
     RDKit          3D

 29 29  0  0  1  0  0  0  0  0999 V2000
   24.7844  -21.4567  -21.4710 N   0  0  0  0  0  0  0  0  0  0  0  0
   25.1446  -20.1051  -21.6551 C   0  0  0  0  0  0  0  0  0  0  0  0
   26.1823  -19.8705  -22.3329 O   0  0  0  0  0  0  0  0  0  0  0  0
   24.3141  -19.0212  -21.0615 C   0  0  0  0  0  0  0  0  0  0  0  0
   23.1778  -19.6688  -20.3406 C   0  0  2  0  0  0  0  0  0  0  0  0
   22.0512  -19.8295  -21.2064 N   0  0  0  0  0  0  0  0  0  0  0  0
   22.7903  -18.9410  -19.0925 C   0  0  0  0  0  0  0  0  0  0  0  0
   23.7107  -18.4580  -18.4168 O   0  0  0  0  0  0  0  0  0  0  0  0
   16.8238  -16.8340  -18.9466 C   0  0  0  0  0  0  0  0  0  0  0  0
   18.0325  -15.5186  -18.7570 S   0  0  0  0  0  0  0  0  0  0  0  0
   19.6947  -16.2975  -18.7247 C   0  0  0  0  0  0  0  0  0  0  0  0
   19.6280  -17.4002  -17.7354 C   0  0  0  0  0  0  0  0  0  0  0  0
   20.9266  -18.1676  -17.5445 C   0  0  2  0  0  0  0  0  0  0  0  0
   21.4335  -18.8114  -18.7030 N   0  0  0  0  0  0  0  0  0  0  0  0
   20.8290  -18.9747  -16.3285 C   0  0  0  0  0  0  0  0  0  0  0  0
   20.3490  -20.1596  -16.3286 O   0  0  0  0  0  0  0  0  0  0  0  0
   22.1714  -21.5666   -8.0504 O   0  0  0  0  0  0  0  0  0  0  0  0
   22.1206  -20.8444   -9.2392 C   0  0  0  0  0  0  0  0  0  0  0  0
   23.1069  -20.9995  -10.1763 C   0  0  0  0  0  0  0  0  0  0  0  0
   23.0392  -20.2760  -11.3465 C   0  0  0  0  0  0  0  0  0  0  0  0
   21.9832  -19.4188  -11.5396 C   0  0  0  0  0  0  0  0  0  0  0  0
   21.8848  -18.6295  -12.7672 C   0  0  0  0  0  0  0  0  0  0  0  0
   21.1752  -19.3980  -13.8545 C   0  0  2  0  0  0  0  0  0  0  0  0
   21.2553  -18.5222  -15.0400 N   0  0  0  0  0  0  0  0  0  0  0  0
   19.7735  -19.6301  -13.4673 C   0  0  0  0  0  0  0  0  0  0  0  0
   18.9038  -18.7706  -13.6023 O   0  0  0  0  0  0  0  0  0  0  0  0
   20.9833  -19.2658  -10.5824 C   0  0  0  0  0  0  0  0  0  0  0  0
   21.0537  -19.9834   -9.4260 C   0  0  0  0  0  0  0  0  0  0  0  0
   19.4353  -20.8656  -12.9326 O   0  0  0  0  0  0  0  0  0  0  0  0
  2  1  1  0
  3  2  2  0
  4  5  1  0
  4  2  1  0
  5  6  1  6
  7  5  1  0
  7  8  2  0
  9 10  1  0
 11 10  1  0
 12 11  1  0
 13 12  1  6
 13 14  1  0
 14  7  1  0
 15 24  1  0
 15 13  1  0
 16 15  2  0
 18 17  1  0
 19 18  2  0
 20 19  1  0
 21 20  2  0
 21 27  1  0
 22 21  1  0
 23 24  1  0
 23 22  1  1
 25 23  1  0
 26 25  2  0
 27 28  2  0
 28 18  1  0
 29 25  1  0
M  END
$$$$
