NMY.pdb
     RDKit          3D

 29 29  0  0  1  0  0  0  0  0999 V2000
   36.5075  -24.3324  -18.3736 N   0  0  0  0  0  0  0  0  0  0  0  0
   35.1938  -24.2802  -18.8852 C   0  0  0  0  0  0  0  0  0  0  0  0
   35.0607  -24.2970  -20.1396 O   0  0  0  0  0  0  0  0  0  0  0  0
   34.0311  -24.2087  -17.9578 C   0  0  0  0  0  0  0  0  0  0  0  0
   32.8070  -24.5446  -18.7445 C   0  0  2  0  0  0  0  0  0  0  0  0
   32.3748  -23.4219  -19.5176 N   0  0  0  0  0  0  0  0  0  0  0  0
   31.6928  -25.0649  -17.8929 C   0  0  0  0  0  0  0  0  0  0  0  0
   31.9604  -26.0091  -17.1353 O   0  0  0  0  0  0  0  0  0  0  0  0
   26.5310  -21.2134  -17.6837 C   0  0  0  0  0  0  0  0  0  0  0  0
   27.2643  -21.4894  -16.0671 S   0  0  0  0  0  0  0  0  0  0  0  0
   28.7092  -22.5980  -16.2990 C   0  0  0  0  0  0  0  0  0  0  0  0
   28.2068  -23.8128  -16.9853 C   0  0  0  0  0  0  0  0  0  0  0  0
   29.2485  -24.8971  -17.2105 C   0  0  2  0  0  0  0  0  0  0  0  0
   30.3927  -24.5029  -17.9514 N   0  0  0  0  0  0  0  0  0  0  0  0
   28.5753  -26.1240  -17.6362 C   0  0  0  0  0  0  0  0  0  0  0  0
   28.1552  -26.2964  -18.8314 O   0  0  0  0  0  0  0  0  0  0  0  0
   25.3439  -34.2808  -17.5009 O   0  0  0  0  0  0  0  0  0  0  0  0
   26.0284  -33.0953  -17.2487 C   0  0  0  0  0  0  0  0  0  0  0  0
   26.7555  -32.5003  -18.2449 C   0  0  0  0  0  0  0  0  0  0  0  0
   27.4260  -31.3274  -17.9759 C   0  0  0  0  0  0  0  0  0  0  0  0
   27.3459  -30.7883  -16.7150 C   0  0  0  0  0  0  0  0  0  0  0  0
   28.0521  -29.5484  -16.3932 C   0  0  0  0  0  0  0  0  0  0  0  0
   27.5345  -28.3959  -17.2181 C   0  0  2  0  0  0  0  0  0  0  0  0
   28.3255  -27.2336  -16.7684 N   0  0  0  0  0  0  0  0  0  0  0  0
   26.1016  -28.1925  -16.9464 C   0  0  0  0  0  0  0  0  0  0  0  0
   25.2240  -28.6168  -17.6969 O   0  0  0  0  0  0  0  0  0  0  0  0
   26.6045  -31.3986  -15.7063 C   0  0  0  0  0  0  0  0  0  0  0  0
   25.9424  -32.5587  -15.9763 C   0  0  0  0  0  0  0  0  0  0  0  0
   25.7422  -27.4963  -15.8006 O   0  0  0  0  0  0  0  0  0  0  0  0
  2  1  1  0
  3  2  2  0
  4  5  1  0
  4  2  1  0
  5  6  1  1
  7  5  1  0
  7  8  2  0
  9 10  1  0
 11 10  1  0
 12 11  1  0
 13 12  1  6
 13 14  1  0
 14  7  1  0
 15 24  1  0
 15 13  1  0
 16 15  2  0
 18 17  1  0
 19 18  2  0
 20 19  1  0
 21 20  2  0
 21 27  1  0
 22 21  1  0
 23 24  1  0
 23 22  1  1
 25 23  1  0
 26 25  2  0
 27 28  2  0
 28 18  1  0
 29 25  1  0
M  END
$$$$
