NMY.pdb
     RDKit          3D

 29 29  0  0  1  0  0  0  0  0999 V2000
   28.9913  -19.1799  -16.7642 N   0  0  0  0  0  0  0  0  0  0  0  0
   29.2052  -20.5568  -16.5438 C   0  0  0  0  0  0  0  0  0  0  0  0
   30.0487  -21.1362  -17.2815 O   0  0  0  0  0  0  0  0  0  0  0  0
   28.4515  -21.2704  -15.4763 C   0  0  0  0  0  0  0  0  0  0  0  0
   27.5026  -20.2925  -14.8653 C   0  0  2  0  0  0  0  0  0  0  0  0
   28.1917  -19.3887  -13.9976 N   0  0  0  0  0  0  0  0  0  0  0  0
   26.3660  -20.9530  -14.1515 C   0  0  0  0  0  0  0  0  0  0  0  0
   25.5871  -21.6273  -14.8412 O   0  0  0  0  0  0  0  0  0  0  0  0
   28.0396  -21.1135   -7.4128 C   0  0  0  0  0  0  0  0  0  0  0  0
   26.4502  -20.7175   -8.1503 S   0  0  0  0  0  0  0  0  0  0  0  0
   26.4816  -21.3195   -9.8845 C   0  0  0  0  0  0  0  0  0  0  0  0
   25.1759  -20.9539  -10.4849 C   0  0  0  0  0  0  0  0  0  0  0  0
   25.0664  -21.2067  -11.9801 C   0  0  2  0  0  0  0  0  0  0  0  0
   26.1900  -20.8127  -12.7519 N   0  0  0  0  0  0  0  0  0  0  0  0
   23.7543  -20.7569  -12.4448 C   0  0  0  0  0  0  0  0  0  0  0  0
   23.3667  -19.5436  -12.3348 O   0  0  0  0  0  0  0  0  0  0  0  0
   16.6191  -19.5860  -17.1516 O   0  0  0  0  0  0  0  0  0  0  0  0
   17.8463  -19.9442  -16.6008 C   0  0  0  0  0  0  0  0  0  0  0  0
   18.7099  -18.9745  -16.1662 C   0  0  0  0  0  0  0  0  0  0  0  0
   19.9197  -19.3488  -15.6242 C   0  0  0  0  0  0  0  0  0  0  0  0
   20.2250  -20.6852  -15.5352 C   0  0  0  0  0  0  0  0  0  0  0  0
   21.5042  -21.1169  -14.9724 C   0  0  0  0  0  0  0  0  0  0  0  0
   21.4633  -21.1202  -13.4641 C   0  0  2  0  0  0  0  0  0  0  0  0
   22.7918  -21.6194  -13.0584 N   0  0  0  0  0  0  0  0  0  0  0  0
   20.3980  -22.0230  -12.9964 C   0  0  0  0  0  0  0  0  0  0  0  0
   20.5555  -23.2408  -12.9203 O   0  0  0  0  0  0  0  0  0  0  0  0
   19.3420  -21.6664  -15.9790 C   0  0  0  0  0  0  0  0  0  0  0  0
   18.1460  -21.2922  -16.5147 C   0  0  0  0  0  0  0  0  0  0  0  0
   19.1790  -21.4681  -12.6320 O   0  0  0  0  0  0  0  0  0  0  0  0
  2  1  1  0
  3  2  2  0
  4  5  1  0
  4  2  1  0
  5  6  1  1
  7  5  1  0
  7  8  2  0
  9 10  1  0
 11 10  1  0
 12 11  1  0
 13 12  1  1
 13 14  1  0
 14  7  1  0
 15 24  1  0
 15 13  1  0
 16 15  2  0
 18 17  1  0
 19 18  2  0
 20 19  1  0
 21 20  2  0
 21 27  1  0
 22 21  1  0
 23 24  1  0
 23 22  1  6
 25 23  1  0
 26 25  2  0
 27 28  2  0
 28 18  1  0
 29 25  1  0
M  END
$$$$
