STG.pdb
     RDKit          3D

 18 17  0  0  1  0  0  0  0  0999 V2000
   25.0706  -13.0703  -15.1751 O   0  0  0  0  0  0  0  0  0  0  0  0
   24.7719  -11.7942  -15.6492 C   0  0  0  0  0  0  0  0  0  0  0  0
   23.3003  -11.7369  -15.9863 C   0  0  2  0  0  0  0  0  0  0  0  0
   22.9590  -12.6824  -17.0123 N   0  0  0  0  0  0  0  0  0  0  0  0
   22.8622  -10.3927  -16.3938 C   0  0  0  0  0  0  0  0  0  0  0  0
   23.0712   -9.9457  -17.5717 O   0  0  0  0  0  0  0  0  0  0  0  0
   19.7159   -9.0574  -17.1630 C   0  0  0  0  0  0  0  0  0  0  0  0
   20.1630   -8.2950  -15.9581 C   0  0  1  0  0  0  0  0  0  0  0  0
   19.5812   -8.8609  -14.8053 O   0  0  0  0  0  0  0  0  0  0  0  0
   21.6495   -8.2846  -15.7666 C   0  0  2  0  0  0  0  0  0  0  0  0
   22.1892   -9.5809  -15.4394 N   0  0  0  0  0  0  0  0  0  0  0  0
   21.9314   -7.3847  -14.5931 C   0  0  0  0  0  0  0  0  0  0  0  0
   22.2530   -7.9345  -13.5165 O   0  0  0  0  0  0  0  0  0  0  0  0
   21.8424   -5.9791  -14.6825 N   0  0  0  0  0  0  0  0  0  0  0  0
   22.1136   -5.1530  -13.5269 C   0  0  0  0  0  0  0  0  0  0  0  0
   21.9126   -3.7398  -13.8867 C   0  0  0  0  0  0  0  0  0  0  0  0
   22.0526   -2.7528  -12.9407 O   0  0  0  0  0  0  0  0  0  0  0  0
   21.6072   -3.4234  -15.0788 O   0  0  0  0  0  0  0  0  0  0  0  0
  2  1  1  0
  2  3  1  0
  3  4  1  6
  5 11  1  0
  5  3  1  0
  6  5  2  0
  8  7  1  6
  8 10  1  0
  9  8  1  0
 10 11  1  1
 10 12  1  0
 12 13  2  0
 14 12  1  0
 14 15  1  0
 16 15  1  0
 16 17  1  0
 18 16  2  0
M  END
$$$$
