STG.pdb
     RDKit          3D

 18 17  0  0  1  0  0  0  0  0999 V2000
   18.4776  -13.6027  -15.0406 O   0  0  0  0  0  0  0  0  0  0  0  0
   19.1942  -12.5277  -15.5633 C   0  0  0  0  0  0  0  0  0  0  0  0
   18.2167  -11.5327  -16.1438 C   0  0  2  0  0  0  0  0  0  0  0  0
   17.4629  -12.1055  -17.2240 N   0  0  0  0  0  0  0  0  0  0  0  0
   18.8691  -10.2966  -16.6034 C   0  0  0  0  0  0  0  0  0  0  0  0
   19.2050  -10.1274  -17.8239 O   0  0  0  0  0  0  0  0  0  0  0  0
   17.5419   -7.2044  -17.1655 C   0  0  0  0  0  0  0  0  0  0  0  0
   18.5721   -6.9259  -16.1195 C   0  0  1  0  0  0  0  0  0  0  0  0
   17.9448   -6.8301  -14.8605 O   0  0  0  0  0  0  0  0  0  0  0  0
   19.6371   -7.9763  -16.0253 C   0  0  2  0  0  0  0  0  0  0  0  0
   19.1260   -9.2716  -15.6515 N   0  0  0  0  0  0  0  0  0  0  0  0
   20.5784   -7.5456  -14.9322 C   0  0  0  0  0  0  0  0  0  0  0  0
   20.4069   -8.0490  -13.8000 O   0  0  0  0  0  0  0  0  0  0  0  0
   21.6160   -6.6152  -15.1541 N   0  0  0  0  0  0  0  0  0  0  0  0
   22.4854   -6.2152  -14.0698 C   0  0  0  0  0  0  0  0  0  0  0  0
   21.8968   -5.0535  -13.3836 C   0  0  0  0  0  0  0  0  0  0  0  0
   22.5142   -4.5066  -12.2841 O   0  0  0  0  0  0  0  0  0  0  0  0
   20.8103   -4.5477  -13.8056 O   0  0  0  0  0  0  0  0  0  0  0  0
  2  1  1  0
  2  3  1  0
  3  4  1  6
  5 11  1  0
  5  3  1  0
  6  5  2  0
  8  7  1  6
  8 10  1  0
  9  8  1  0
 10 11  1  1
 10 12  1  0
 12 13  2  0
 14 12  1  0
 14 15  1  0
 16 15  1  0
 16 17  1  0
 18 16  2  0
M  END
$$$$
