STG.pdb
     RDKit          3D

 18 17  0  0  1  0  0  0  0  0999 V2000
   19.5576  -13.6778  -15.1961 O   0  0  0  0  0  0  0  0  0  0  0  0
   20.1936  -12.7641  -16.0346 C   0  0  0  0  0  0  0  0  0  0  0  0
   19.1401  -11.9783  -16.7796 C   0  0  2  0  0  0  0  0  0  0  0  0
   18.6274  -12.7171  -17.8996 N   0  0  0  0  0  0  0  0  0  0  0  0
   19.6269  -10.6679  -17.2389 C   0  0  0  0  0  0  0  0  0  0  0  0
   19.9687  -10.4653  -18.4526 O   0  0  0  0  0  0  0  0  0  0  0  0
   18.0118   -7.6992  -17.8974 C   0  0  0  0  0  0  0  0  0  0  0  0
   18.9624   -7.3274  -16.8060 C   0  0  1  0  0  0  0  0  0  0  0  0
   18.2721   -7.2940  -15.5771 O   0  0  0  0  0  0  0  0  0  0  0  0
   20.1161   -8.2732  -16.6612 C   0  0  2  0  0  0  0  0  0  0  0  0
   19.7137   -9.6082  -16.2943 N   0  0  0  0  0  0  0  0  0  0  0  0
   20.9703   -7.7496  -15.5375 C   0  0  0  0  0  0  0  0  0  0  0  0
   20.8474   -8.3021  -14.4220 O   0  0  0  0  0  0  0  0  0  0  0  0
   21.8768   -6.6825  -15.7138 N   0  0  0  0  0  0  0  0  0  0  0  0
   22.7516   -6.2788  -14.6353 C   0  0  0  0  0  0  0  0  0  0  0  0
   22.0421   -5.3203  -13.7722 C   0  0  0  0  0  0  0  0  0  0  0  0
   22.6581   -4.7927  -12.6626 O   0  0  0  0  0  0  0  0  0  0  0  0
   20.8514   -4.9741  -14.0493 O   0  0  0  0  0  0  0  0  0  0  0  0
  2  1  1  0
  2  3  1  0
  3  4  1  6
  5 11  1  0
  5  3  1  0
  6  5  2  0
  8  7  1  6
  8 10  1  0
  9  8  1  0
 10 11  1  1
 10 12  1  0
 12 13  2  0
 14 12  1  0
 14 15  1  0
 16 15  1  0
 16 17  1  0
 18 16  2  0
M  END
$$$$
