STG.pdb
     RDKit          3D

 18 17  0  0  1  0  0  0  0  0999 V2000
   17.8520  -13.3306  -16.3909 O   0  0  0  0  0  0  0  0  0  0  0  0
   18.4961  -12.4210  -15.5542 C   0  0  0  0  0  0  0  0  0  0  0  0
   18.5742  -11.0876  -16.2601 C   0  0  2  0  0  0  0  0  0  0  0  0
   19.3620  -11.1725  -17.4582 N   0  0  0  0  0  0  0  0  0  0  0  0
   19.1054  -10.0188  -15.3996 C   0  0  0  0  0  0  0  0  0  0  0  0
   18.6432   -9.8068  -14.2281 O   0  0  0  0  0  0  0  0  0  0  0  0
   22.5904   -9.7579  -14.1748 C   0  0  0  0  0  0  0  0  0  0  0  0
   22.2963   -8.4952  -14.9177 C   0  0  1  0  0  0  0  0  0  0  0  0
   22.8785   -8.5618  -16.2001 O   0  0  0  0  0  0  0  0  0  0  0  0
   20.8326   -8.2220  -15.0896 C   0  0  2  0  0  0  0  0  0  0  0  0
   20.1618   -9.2084  -15.8995 N   0  0  0  0  0  0  0  0  0  0  0  0
   20.7169   -6.9082  -15.8156 C   0  0  0  0  0  0  0  0  0  0  0  0
   20.6719   -6.9485  -17.0650 O   0  0  0  0  0  0  0  0  0  0  0  0
   20.6601   -5.6733  -15.1350 N   0  0  0  0  0  0  0  0  0  0  0  0
   20.6753   -4.4292  -15.8722 C   0  0  0  0  0  0  0  0  0  0  0  0
   20.5732   -3.3066  -14.9255 C   0  0  0  0  0  0  0  0  0  0  0  0
   21.1362   -3.3956  -13.6749 O   0  0  0  0  0  0  0  0  0  0  0  0
   19.9614   -2.2445  -15.2607 O   0  0  0  0  0  0  0  0  0  0  0  0
  2  1  1  0
  2  3  1  0
  3  4  1  6
  5 11  1  0
  5  3  1  0
  6  5  2  0
  8  7  1  6
  8 10  1  0
  9  8  1  0
 10 11  1  6
 10 12  1  0
 12 13  2  0
 14 12  1  0
 14 15  1  0
 16 15  1  0
 16 17  1  0
 18 16  2  0
M  END
$$$$
