STG.pdb
     RDKit          3D

 18 17  0  0  1  0  0  0  0  0999 V2000
   16.4791  -10.7072  -18.8659 O   0  0  0  0  0  0  0  0  0  0  0  0
   17.0713  -10.2550  -17.6880 C   0  0  0  0  0  0  0  0  0  0  0  0
   18.0602  -11.2946  -17.2151 C   0  0  2  0  0  0  0  0  0  0  0  0
   17.4007  -12.5128  -16.8351 N   0  0  0  0  0  0  0  0  0  0  0  0
   18.8937  -10.8204  -16.0992 C   0  0  0  0  0  0  0  0  0  0  0  0
   18.6084  -11.0916  -14.8843 O   0  0  0  0  0  0  0  0  0  0  0  0
   23.2293   -9.4212  -14.4352 C   0  0  0  0  0  0  0  0  0  0  0  0
   22.3118  -10.0147  -15.4546 C   0  0  1  0  0  0  0  0  0  0  0  0
   22.2752  -11.4145  -15.2909 O   0  0  0  0  0  0  0  0  0  0  0  0
   20.9051   -9.5039  -15.3719 C   0  0  2  0  0  0  0  0  0  0  0  0
   20.0448  -10.0401  -16.3972 N   0  0  0  0  0  0  0  0  0  0  0  0
   20.9686   -8.0155  -15.5886 C   0  0  0  0  0  0  0  0  0  0  0  0
   21.2687   -7.6180  -16.7360 O   0  0  0  0  0  0  0  0  0  0  0  0
   20.7044   -7.0913  -14.5553 N   0  0  0  0  0  0  0  0  0  0  0  0
   20.8503   -5.6714  -14.7875 C   0  0  0  0  0  0  0  0  0  0  0  0
   21.9780   -5.1655  -13.9880 C   0  0  0  0  0  0  0  0  0  0  0  0
   22.4352   -3.8811  -14.1618 O   0  0  0  0  0  0  0  0  0  0  0  0
   22.5374   -5.9166  -13.1292 O   0  0  0  0  0  0  0  0  0  0  0  0
  2  1  1  0
  2  3  1  0
  3  4  1  1
  5 11  1  0
  5  3  1  0
  6  5  2  0
  8  7  1  1
  8 10  1  0
  9  8  1  0
 10 11  1  6
 10 12  1  0
 12 13  2  0
 14 12  1  0
 14 15  1  0
 16 15  1  0
 16 17  1  0
 18 16  2  0
M  END
$$$$
