STG.pdb
     RDKit          3D

 18 17  0  0  1  0  0  0  0  0999 V2000
   21.2808  -20.5323  -14.7457 O   0  0  0  0  0  0  0  0  0  0  0  0
   22.0078  -19.4521  -14.2486 C   0  0  0  0  0  0  0  0  0  0  0  0
   22.2060  -18.4505  -15.3622 C   0  0  2  0  0  0  0  0  0  0  0  0
   21.0378  -18.3491  -16.1918 N   0  0  0  0  0  0  0  0  0  0  0  0
   23.3765  -18.7559  -16.1998 C   0  0  0  0  0  0  0  0  0  0  0  0
   23.2534  -19.1867  -17.3957 O   0  0  0  0  0  0  0  0  0  0  0  0
   26.1041  -16.3694  -17.2481 C   0  0  0  0  0  0  0  0  0  0  0  0
   26.7220  -17.4889  -16.4748 C   0  0  1  0  0  0  0  0  0  0  0  0
   26.9547  -17.0681  -15.1495 O   0  0  0  0  0  0  0  0  0  0  0  0
   25.8778  -18.7265  -16.4240 C   0  0  2  0  0  0  0  0  0  0  0  0
   24.6732  -18.5610  -15.6492 N   0  0  0  0  0  0  0  0  0  0  0  0
   26.6979  -19.7854  -15.7365 C   0  0  0  0  0  0  0  0  0  0  0  0
   26.6343  -19.8358  -14.4883 O   0  0  0  0  0  0  0  0  0  0  0  0
   27.5101  -20.6919  -16.4508 N   0  0  0  0  0  0  0  0  0  0  0  0
   28.2409  -21.7268  -15.7535 C   0  0  0  0  0  0  0  0  0  0  0  0
   28.9485  -22.5632  -16.7368 C   0  0  0  0  0  0  0  0  0  0  0  0
   28.8199  -22.3169  -18.0828 O   0  0  0  0  0  0  0  0  0  0  0  0
   29.6852  -23.5215  -16.3450 O   0  0  0  0  0  0  0  0  0  0  0  0
  2  1  1  0
  2  3  1  0
  3  4  1  6
  5 11  1  0
  5  3  1  0
  6  5  2  0
  8  7  1  6
  8 10  1  0
  9  8  1  0
 10 11  1  1
 10 12  1  0
 12 13  2  0
 14 12  1  0
 14 15  1  0
 16 15  1  0
 16 17  1  0
 18 16  2  0
M  END
$$$$
