STG.pdb
     RDKit          3D

 18 17  0  0  1  0  0  0  0  0999 V2000
   15.9236  -11.0811  -16.0062 O   0  0  0  0  0  0  0  0  0  0  0  0
   17.1537  -10.7391  -15.4471 C   0  0  0  0  0  0  0  0  0  0  0  0
   18.2436  -11.4708  -16.1947 C   0  0  2  0  0  0  0  0  0  0  0  0
   18.1826  -12.8866  -15.9600 N   0  0  0  0  0  0  0  0  0  0  0  0
   19.5898  -10.9773  -15.8640 C   0  0  0  0  0  0  0  0  0  0  0  0
   20.3880  -11.6457  -15.1244 O   0  0  0  0  0  0  0  0  0  0  0  0
   23.4421   -8.3193  -17.1311 C   0  0  0  0  0  0  0  0  0  0  0  0
   22.0581   -8.8241  -17.3815 C   0  0  1  0  0  0  0  0  0  0  0  0
   22.1222   -9.9879  -18.1747 O   0  0  0  0  0  0  0  0  0  0  0  0
   21.3015   -9.1590  -16.1317 C   0  0  2  0  0  0  0  0  0  0  0  0
   19.9988   -9.7207  -16.3895 N   0  0  0  0  0  0  0  0  0  0  0  0
   21.0816   -7.8645  -15.3953 C   0  0  0  0  0  0  0  0  0  0  0  0
   20.2625   -7.0587  -15.8895 O   0  0  0  0  0  0  0  0  0  0  0  0
   21.7603   -7.5539  -14.1976 N   0  0  0  0  0  0  0  0  0  0  0  0
   21.4866   -6.3169  -13.5003 C   0  0  0  0  0  0  0  0  0  0  0  0
   22.1890   -5.2154  -14.1788 C   0  0  0  0  0  0  0  0  0  0  0  0
   22.0136   -3.9167  -13.7649 O   0  0  0  0  0  0  0  0  0  0  0  0
   22.9646   -5.4603  -15.1551 O   0  0  0  0  0  0  0  0  0  0  0  0
  2  1  1  0
  2  3  1  0
  3  4  1  1
  5 11  1  0
  5  3  1  0
  6  5  2  0
  8  7  1  1
  8 10  1  0
  9  8  1  0
 10 11  1  6
 10 12  1  0
 12 13  2  0
 14 12  1  0
 14 15  1  0
 16 15  1  0
 16 17  1  0
 18 16  2  0
M  END
$$$$
