STG.pdb
     RDKit          3D

 18 17  0  0  1  0  0  0  0  0999 V2000
   21.3687  -18.4130  -15.5518 O   0  0  0  0  0  0  0  0  0  0  0  0
   22.2258  -19.2758  -14.8710 C   0  0  0  0  0  0  0  0  0  0  0  0
   23.1335  -19.9462  -15.8755 C   0  0  2  0  0  0  0  0  0  0  0  0
   22.3851  -20.7248  -16.8225 N   0  0  0  0  0  0  0  0  0  0  0  0
   24.1544  -20.7953  -15.2415 C   0  0  0  0  0  0  0  0  0  0  0  0
   24.1588  -22.0640  -15.3874 O   0  0  0  0  0  0  0  0  0  0  0  0
   27.7364  -21.3264  -15.6032 C   0  0  0  0  0  0  0  0  0  0  0  0
   27.5335  -20.7509  -14.2391 C   0  0  1  0  0  0  0  0  0  0  0  0
   27.8177  -19.3703  -14.2680 O   0  0  0  0  0  0  0  0  0  0  0  0
   26.1415  -20.9241  -13.7110 C   0  0  2  0  0  0  0  0  0  0  0  0
   25.1566  -20.1720  -14.4480 N   0  0  0  0  0  0  0  0  0  0  0  0
   26.1392  -20.3872  -12.3045 C   0  0  0  0  0  0  0  0  0  0  0  0
   25.8641  -19.1760  -12.1564 O   0  0  0  0  0  0  0  0  0  0  0  0
   26.4318  -21.1984  -11.1875 N   0  0  0  0  0  0  0  0  0  0  0  0
   26.3735  -20.6518   -9.8499 C   0  0  0  0  0  0  0  0  0  0  0  0
   25.0048  -20.7988   -9.3283 C   0  0  0  0  0  0  0  0  0  0  0  0
   24.7354  -20.5645   -8.0011 O   0  0  0  0  0  0  0  0  0  0  0  0
   24.0608  -21.1445  -10.1054 O   0  0  0  0  0  0  0  0  0  0  0  0
  2  1  1  0
  2  3  1  0
  3  4  1  6
  5 11  1  0
  5  3  1  0
  6  5  2  0
  8  7  1  6
  8 10  1  0
  9  8  1  0
 10 11  1  6
 10 12  1  0
 12 13  2  0
 14 12  1  0
 14 15  1  0
 16 15  1  0
 16 17  1  0
 18 16  2  0
M  END
$$$$
