STG.pdb
     RDKit          3D

 18 17  0  0  1  0  0  0  0  0999 V2000
   17.8334  -12.4067  -18.6420 O   0  0  0  0  0  0  0  0  0  0  0  0
   18.0592  -11.5018  -17.6063 C   0  0  0  0  0  0  0  0  0  0  0  0
   19.3902  -11.8220  -16.9674 C   0  0  2  0  0  0  0  0  0  0  0  0
   19.4056  -13.1511  -16.4230 N   0  0  0  0  0  0  0  0  0  0  0  0
   19.7640  -10.8593  -15.9193 C   0  0  0  0  0  0  0  0  0  0  0  0
   19.2224  -10.8802  -14.7630 O   0  0  0  0  0  0  0  0  0  0  0  0
   22.8427  -10.5449  -14.0778 C   0  0  0  0  0  0  0  0  0  0  0  0
   22.6807   -9.2609  -14.8250 C   0  0  1  0  0  0  0  0  0  0  0  0
   23.4646   -9.3005  -15.9962 O   0  0  0  0  0  0  0  0  0  0  0  0
   21.2663   -8.9696  -15.2265 C   0  0  2  0  0  0  0  0  0  0  0  0
   20.7567   -9.8852  -16.2168 N   0  0  0  0  0  0  0  0  0  0  0  0
   21.2647   -7.6013  -15.8543 C   0  0  0  0  0  0  0  0  0  0  0  0
   21.2719   -7.5466  -17.1039 O   0  0  0  0  0  0  0  0  0  0  0  0
   21.2554   -6.4186  -15.0843 N   0  0  0  0  0  0  0  0  0  0  0  0
   21.2386   -5.1245  -15.7297 C   0  0  0  0  0  0  0  0  0  0  0  0
   21.2714   -4.0722  -14.7008 C   0  0  0  0  0  0  0  0  0  0  0  0
   21.1667   -4.3956  -13.3691 O   0  0  0  0  0  0  0  0  0  0  0  0
   21.3972   -2.8540  -15.0395 O   0  0  0  0  0  0  0  0  0  0  0  0
  2  1  1  0
  2  3  1  0
  3  4  1  1
  5 11  1  0
  5  3  1  0
  6  5  2  0
  8  7  1  6
  8 10  1  0
  9  8  1  0
 10 11  1  6
 10 12  1  0
 12 13  2  0
 14 12  1  0
 14 15  1  0
 16 15  1  0
 16 17  1  0
 18 16  2  0
M  END
$$$$
