STG.pdb
     RDKit          3D

 18 17  0  0  1  0  0  0  0  0999 V2000
   14.5887   -8.3309  -15.4580 O   0  0  0  0  0  0  0  0  0  0  0  0
   15.7678   -8.4215  -14.7204 C   0  0  0  0  0  0  0  0  0  0  0  0
   16.7396   -9.3022  -15.4704 C   0  0  2  0  0  0  0  0  0  0  0  0
   16.2507  -10.6483  -15.5818 N   0  0  0  0  0  0  0  0  0  0  0  0
   18.0795   -9.3167  -14.8625 C   0  0  0  0  0  0  0  0  0  0  0  0
   18.4110  -10.1846  -13.9863 O   0  0  0  0  0  0  0  0  0  0  0  0
   21.5130   -9.9155  -16.1852 C   0  0  0  0  0  0  0  0  0  0  0  0
   21.4267   -8.4951  -15.7292 C   0  0  1  0  0  0  0  0  0  0  0  0
   21.1773   -7.6628  -16.8396 O   0  0  0  0  0  0  0  0  0  0  0  0
   20.3484   -8.2495  -14.7175 C   0  0  2  0  0  0  0  0  0  0  0  0
   19.0199   -8.3315  -15.2719 N   0  0  0  0  0  0  0  0  0  0  0  0
   20.5290   -6.8395  -14.2217 C   0  0  0  0  0  0  0  0  0  0  0  0
   19.6706   -5.9983  -14.5681 O   0  0  0  0  0  0  0  0  0  0  0  0
   21.6131   -6.4622  -13.4007 N   0  0  0  0  0  0  0  0  0  0  0  0
   21.6911   -5.1232  -12.8601 C   0  0  0  0  0  0  0  0  0  0  0  0
   22.0506   -4.1881  -13.9387 C   0  0  0  0  0  0  0  0  0  0  0  0
   22.2368   -4.6425  -15.2223 O   0  0  0  0  0  0  0  0  0  0  0  0
   22.1913   -2.9504  -13.6879 O   0  0  0  0  0  0  0  0  0  0  0  0
  2  1  1  0
  2  3  1  0
  3  4  1  1
  5 11  1  0
  5  3  1  0
  6  5  2  0
  8  7  1  6
  8 10  1  0
  9  8  1  0
 10 11  1  6
 10 12  1  0
 12 13  2  0
 14 12  1  0
 14 15  1  0
 16 15  1  0
 16 17  1  0
 18 16  2  0
M  END
$$$$
