STG.pdb
     RDKit          3D

 18 17  0  0  1  0  0  0  0  0999 V2000
   21.6269  -13.5364  -17.3331 O   0  0  0  0  0  0  0  0  0  0  0  0
   21.9580  -12.3094  -17.9053 C   0  0  0  0  0  0  0  0  0  0  0  0
   20.8250  -11.3408  -17.6593 C   0  0  2  0  0  0  0  0  0  0  0  0
   19.7029  -11.6170  -18.5124 N   0  0  0  0  0  0  0  0  0  0  0  0
   21.2316   -9.9364  -17.8245 C   0  0  0  0  0  0  0  0  0  0  0  0
   21.8621   -9.5364  -18.8606 O   0  0  0  0  0  0  0  0  0  0  0  0
   19.1202   -7.1980  -18.4441 C   0  0  0  0  0  0  0  0  0  0  0  0
   19.8057   -6.8480  -17.1633 C   0  0  1  0  0  0  0  0  0  0  0  0
   18.9485   -7.1350  -16.0814 O   0  0  0  0  0  0  0  0  0  0  0  0
   21.0899   -7.5889  -16.9431 C   0  0  2  0  0  0  0  0  0  0  0  0
   20.9069   -9.0112  -16.7943 N   0  0  0  0  0  0  0  0  0  0  0  0
   21.6673   -7.0844  -15.6474 C   0  0  0  0  0  0  0  0  0  0  0  0
   21.5051   -7.7991  -14.6337 O   0  0  0  0  0  0  0  0  0  0  0  0
   22.3648   -5.8609  -15.5587 N   0  0  0  0  0  0  0  0  0  0  0  0
   22.9262   -5.4275  -14.2984 C   0  0  0  0  0  0  0  0  0  0  0  0
   21.9349   -4.6041  -13.5868 C   0  0  0  0  0  0  0  0  0  0  0  0
   22.2853   -3.9204  -12.4472 O   0  0  0  0  0  0  0  0  0  0  0  0
   20.7447   -4.5205  -14.0241 O   0  0  0  0  0  0  0  0  0  0  0  0
  2  1  1  0
  2  3  1  0
  3  4  1  6
  5 11  1  0
  5  3  1  0
  6  5  2  0
  8  7  1  6
  8 10  1  0
  9  8  1  0
 10 11  1  1
 10 12  1  0
 12 13  2  0
 14 12  1  0
 14 15  1  0
 16 15  1  0
 16 17  1  0
 18 16  2  0
M  END
$$$$
