STG.pdb
     RDKit          3D

 18 17  0  0  1  0  0  0  0  0999 V2000
   14.2447   -8.9762  -14.8502 O   0  0  0  0  0  0  0  0  0  0  0  0
   15.4969   -8.6765  -14.3165 C   0  0  0  0  0  0  0  0  0  0  0  0
   16.4310   -9.8294  -14.6006 C   0  0  2  0  0  0  0  0  0  0  0  0
   16.0164  -11.0225  -13.9166 N   0  0  0  0  0  0  0  0  0  0  0  0
   17.8288   -9.5272  -14.2544 C   0  0  0  0  0  0  0  0  0  0  0  0
   18.3220   -9.8367  -13.1178 O   0  0  0  0  0  0  0  0  0  0  0  0
   22.3839   -8.7247  -15.8032 C   0  0  0  0  0  0  0  0  0  0  0  0
   20.9442   -9.0363  -16.0543 C   0  0  1  0  0  0  0  0  0  0  0  0
   20.7803  -10.4327  -16.1590 O   0  0  0  0  0  0  0  0  0  0  0  0
   20.0228   -8.5433  -14.9797 C   0  0  2  0  0  0  0  0  0  0  0  0
   18.6401   -8.8725  -15.2218 N   0  0  0  0  0  0  0  0  0  0  0  0
   20.1206   -7.0410  -14.9774 C   0  0  0  0  0  0  0  0  0  0  0  0
   19.4983   -6.4271  -15.8720 O   0  0  0  0  0  0  0  0  0  0  0  0
   20.8764   -6.3363  -14.0162 N   0  0  0  0  0  0  0  0  0  0  0  0
   21.0120   -4.8990  -14.1012 C   0  0  0  0  0  0  0  0  0  0  0  0
   21.8409   -4.4259  -12.9805 C   0  0  0  0  0  0  0  0  0  0  0  0
   22.2868   -3.1264  -12.9429 O   0  0  0  0  0  0  0  0  0  0  0  0
   22.1500   -5.2196  -12.0376 O   0  0  0  0  0  0  0  0  0  0  0  0
  2  1  1  0
  2  3  1  0
  3  4  1  1
  5 11  1  0
  5  3  1  0
  6  5  2  0
  8  7  1  1
  8 10  1  0
  9  8  1  0
 10 11  1  6
 10 12  1  0
 12 13  2  0
 14 12  1  0
 14 15  1  0
 16 15  1  0
 16 17  1  0
 18 16  2  0
M  END
$$$$
