STG.pdb
     RDKit          3D

 18 17  0  0  1  0  0  0  0  0999 V2000
   15.6795  -10.3591  -15.2378 O   0  0  0  0  0  0  0  0  0  0  0  0
   16.9548  -10.3003  -14.6785 C   0  0  0  0  0  0  0  0  0  0  0  0
   17.9675  -10.6273  -15.7508 C   0  0  2  0  0  0  0  0  0  0  0  0
   17.8798  -12.0029  -16.1546 N   0  0  0  0  0  0  0  0  0  0  0  0
   19.3478  -10.3244  -15.3407 C   0  0  0  0  0  0  0  0  0  0  0  0
   20.0705  -11.1810  -14.7285 O   0  0  0  0  0  0  0  0  0  0  0  0
   22.4483   -9.7595  -17.1434 C   0  0  0  0  0  0  0  0  0  0  0  0
   22.1293   -8.4787  -16.4429 C   0  0  1  0  0  0  0  0  0  0  0  0
   21.5155   -7.5909  -17.3500 O   0  0  0  0  0  0  0  0  0  0  0  0
   21.2130   -8.6441  -15.2683 C   0  0  2  0  0  0  0  0  0  0  0  0
   19.8774   -9.0391  -15.6409 N   0  0  0  0  0  0  0  0  0  0  0  0
   21.1022   -7.2954  -14.6088 C   0  0  0  0  0  0  0  0  0  0  0  0
   20.0733   -6.6256  -14.8484 O   0  0  0  0  0  0  0  0  0  0  0  0
   22.1045   -6.7898  -13.7536 N   0  0  0  0  0  0  0  0  0  0  0  0
   21.8998   -5.5498  -13.0381 C   0  0  0  0  0  0  0  0  0  0  0  0
   22.0974   -4.4214  -13.9627 C   0  0  0  0  0  0  0  0  0  0  0  0
   21.8976   -3.1294  -13.5388 O   0  0  0  0  0  0  0  0  0  0  0  0
   22.4554   -4.6366  -15.1627 O   0  0  0  0  0  0  0  0  0  0  0  0
  2  1  1  0
  2  3  1  0
  3  4  1  1
  5 11  1  0
  5  3  1  0
  6  5  2  0
  8  7  1  6
  8 10  1  0
  9  8  1  0
 10 11  1  6
 10 12  1  0
 12 13  2  0
 14 12  1  0
 14 15  1  0
 16 15  1  0
 16 17  1  0
 18 16  2  0
M  END
$$$$
