STG.pdb
     RDKit          3D

 18 17  0  0  1  0  0  0  0  0999 V2000
   24.2017  -12.1547  -15.9400 O   0  0  0  0  0  0  0  0  0  0  0  0
   23.5229  -10.9832  -16.2704 C   0  0  0  0  0  0  0  0  0  0  0  0
   22.0525  -11.1807  -15.9853 C   0  0  2  0  0  0  0  0  0  0  0  0
   21.5194  -12.2933  -16.7209 N   0  0  0  0  0  0  0  0  0  0  0  0
   21.2521   -9.9787  -16.2674 C   0  0  0  0  0  0  0  0  0  0  0  0
   21.0248   -9.5873  -17.4616 O   0  0  0  0  0  0  0  0  0  0  0  0
   17.6765   -9.5076  -15.7604 C   0  0  0  0  0  0  0  0  0  0  0  0
   18.3894   -8.5488  -14.8630 C   0  0  1  0  0  0  0  0  0  0  0  0
   18.5128   -9.1158  -13.5781 O   0  0  0  0  0  0  0  0  0  0  0  0
   19.7626   -8.1823  -15.3390 C   0  0  2  0  0  0  0  0  0  0  0  0
   20.7242   -9.2432  -15.1705 N   0  0  0  0  0  0  0  0  0  0  0  0
   20.2268   -7.0319  -14.4859 C   0  0  0  0  0  0  0  0  0  0  0  0
   19.4638   -6.0451  -14.3941 O   0  0  0  0  0  0  0  0  0  0  0  0
   21.4659   -7.0462  -13.8106 N   0  0  0  0  0  0  0  0  0  0  0  0
   21.9436   -5.8622  -13.1313 C   0  0  0  0  0  0  0  0  0  0  0  0
   22.3471   -4.8616  -14.1328 C   0  0  0  0  0  0  0  0  0  0  0  0
   22.6565   -3.5781  -13.7508 O   0  0  0  0  0  0  0  0  0  0  0  0
   22.4118   -5.1802  -15.3612 O   0  0  0  0  0  0  0  0  0  0  0  0
  2  1  1  0
  2  3  1  0
  3  4  1  6
  5 11  1  0
  5  3  1  0
  6  5  2  0
  8  7  1  6
  8 10  1  0
  9  8  1  0
 10 11  1  1
 10 12  1  0
 12 13  2  0
 14 12  1  0
 14 15  1  0
 16 15  1  0
 16 17  1  0
 18 16  2  0
M  END
$$$$
