GQC.pdb
     RDKit          3D

 20 19  0  0  1  0  0  0  0  0999 V2000
    6.1054  -18.8746   19.7940 N   0  0  0  0  0  0  0  0  0  0  0  0
    5.5300  -17.6703   20.3507 C   0  0  0  0  0  0  0  0  0  0  0  0
    6.6266  -16.7597   20.7439 C   0  0  0  0  0  0  0  0  0  0  0  0
    7.7711  -17.2296   20.9379 O   0  0  0  0  0  0  0  0  0  0  0  0
    8.4083  -13.7978   17.5987 N   0  0  0  0  0  0  0  0  0  0  0  0
    8.3502  -13.1725   18.8615 C   0  0  0  0  0  0  0  0  0  0  0  0
    9.4786  -12.8635   19.3729 O   0  0  0  0  0  0  0  0  0  0  0  0
    7.0919  -12.8770   19.5785 C   0  0  0  0  0  0  0  0  0  0  0  0
    7.3184  -13.0789   21.0563 C   0  0  0  0  0  0  0  0  0  0  0  0
    7.5174  -14.5362   21.4100 C   0  0  2  0  0  0  0  0  0  0  0  0
    6.4540  -15.3615   20.9169 N   0  0  0  0  0  0  0  0  0  0  0  0
    7.6573  -14.5995   22.8849 C   0  0  0  0  0  0  0  0  0  0  0  0
    6.8829  -13.8836   23.5621 O   0  0  0  0  0  0  0  0  0  0  0  0
    8.6081  -15.4168   23.5487 N   0  0  0  0  0  0  0  0  0  0  0  0
    8.7120  -15.3716   24.9772 C   0  0  1  0  0  0  0  0  0  0  0  0
    7.4517  -15.7884   25.6859 C   0  0  0  0  0  0  0  0  0  0  0  0
    6.5383  -17.0686   24.8303 S   0  0  0  0  0  0  0  0  0  0  0  0
    9.7843  -16.3064   25.3970 C   0  0  0  0  0  0  0  0  0  0  0  0
   10.4313  -17.0533   24.4260 O   0  0  0  0  0  0  0  0  0  0  0  0
   10.1028  -16.4203   26.6182 O   0  0  0  0  0  0  0  0  0  0  0  0
  2  1  1  0
  2  3  1  0
  3 11  1  0
  4  3  2  0
  6  5  1  0
  6  8  1  0
  7  6  2  0
  9  8  1  0
 10  9  1  1
 11 10  1  0
 12 10  1  0
 12 14  1  0
 13 12  2  0
 14 15  1  0
 15 18  1  0
 15 16  1  1
 16 17  1  0
 18 20  2  0
 18 19  1  0
M  END
$$$$
