GQC.pdb
     RDKit          3D

 20 19  0  0  1  0  0  0  0  0999 V2000
   -1.3763  -26.4454   27.7334 N   0  0  0  0  0  0  0  0  0  0  0  0
   -2.8030  -26.6754   27.7885 C   0  0  0  0  0  0  0  0  0  0  0  0
   -3.4611  -25.4494   28.2885 C   0  0  0  0  0  0  0  0  0  0  0  0
   -3.1558  -25.0103   29.4209 O   0  0  0  0  0  0  0  0  0  0  0  0
   -5.2980  -20.4523   25.1359 N   0  0  0  0  0  0  0  0  0  0  0  0
   -4.0365  -20.8054   25.6585 C   0  0  0  0  0  0  0  0  0  0  0  0
   -3.0510  -20.1205   25.2224 O   0  0  0  0  0  0  0  0  0  0  0  0
   -3.8252  -21.8865   26.6441 C   0  0  0  0  0  0  0  0  0  0  0  0
   -5.1673  -22.4548   27.0335 C   0  0  0  0  0  0  0  0  0  0  0  0
   -5.0456  -23.5454   28.0747 C   0  0  2  0  0  0  0  0  0  0  0  0
   -4.4344  -24.7299   27.5470 N   0  0  0  0  0  0  0  0  0  0  0  0
   -6.4120  -23.7877   28.5971 C   0  0  0  0  0  0  0  0  0  0  0  0
   -7.1371  -24.5799   27.9509 O   0  0  0  0  0  0  0  0  0  0  0  0
   -6.9238  -23.1757   29.7702 N   0  0  0  0  0  0  0  0  0  0  0  0
   -8.2363  -23.5141   30.2353 C   0  0  1  0  0  0  0  0  0  0  0  0
   -8.2401  -24.2253   31.5614 C   0  0  0  0  0  0  0  0  0  0  0  0
   -9.8762  -24.4349   32.2575 S   0  0  0  0  0  0  0  0  0  0  0  0
   -9.0093  -22.2596   30.4049 C   0  0  0  0  0  0  0  0  0  0  0  0
  -10.3930  -22.3256   30.3900 O   0  0  0  0  0  0  0  0  0  0  0  0
   -8.4172  -21.1501   30.5602 O   0  0  0  0  0  0  0  0  0  0  0  0
  2  1  1  0
  2  3  1  0
  3 11  1  0
  4  3  2  0
  6  5  1  0
  6  8  1  0
  7  6  2  0
  9  8  1  0
 10  9  1  6
 11 10  1  0
 12 10  1  0
 12 14  1  0
 13 12  2  0
 14 15  1  0
 15 18  1  0
 15 16  1  1
 16 17  1  0
 18 20  2  0
 18 19  1  0
M  END
$$$$
