GQC.pdb
     RDKit          3D

 20 19  0  0  1  0  0  0  0  0999 V2000
    7.4223  -16.7830   18.9392 N   0  0  0  0  0  0  0  0  0  0  0  0
    8.2259  -15.9025   19.7580 C   0  0  0  0  0  0  0  0  0  0  0  0
    7.7324  -15.9693   21.1502 C   0  0  0  0  0  0  0  0  0  0  0  0
    6.4985  -15.9469   21.3628 O   0  0  0  0  0  0  0  0  0  0  0  0
    6.5214  -18.3529   25.7895 N   0  0  0  0  0  0  0  0  0  0  0  0
    7.0801  -19.0238   24.6819 C   0  0  0  0  0  0  0  0  0  0  0  0
    6.5068  -20.1174   24.3568 O   0  0  0  0  0  0  0  0  0  0  0  0
    8.2477  -18.5304   23.9217 C   0  0  0  0  0  0  0  0  0  0  0  0
    8.6321  -17.1720   24.4536 C   0  0  0  0  0  0  0  0  0  0  0  0
    8.0680  -16.0483   23.6124 C   0  0  2  0  0  0  0  0  0  0  0  0
    8.5903  -16.0587   22.2775 N   0  0  0  0  0  0  0  0  0  0  0  0
    8.3633  -14.7878   24.3353 C   0  0  0  0  0  0  0  0  0  0  0  0
    9.5448  -14.3715   24.2960 O   0  0  0  0  0  0  0  0  0  0  0  0
    7.3888  -14.0482   25.0537 N   0  0  0  0  0  0  0  0  0  0  0  0
    7.7880  -12.9156   25.8355 C   0  0  1  0  0  0  0  0  0  0  0  0
    6.6655  -11.9545   26.1196 C   0  0  0  0  0  0  0  0  0  0  0  0
    5.1712  -12.7499   26.7022 S   0  0  0  0  0  0  0  0  0  0  0  0
    8.2919  -13.4046   27.1420 C   0  0  0  0  0  0  0  0  0  0  0  0
    8.8087  -12.4850   28.0402 O   0  0  0  0  0  0  0  0  0  0  0  0
    8.2510  -14.6375   27.4317 O   0  0  0  0  0  0  0  0  0  0  0  0
  2  1  1  0
  2  3  1  0
  3 11  1  0
  4  3  2  0
  6  5  1  0
  6  8  1  0
  7  6  2  0
  9  8  1  0
 10  9  1  1
 11 10  1  0
 12 10  1  0
 12 14  1  0
 13 12  2  0
 14 15  1  0
 15 18  1  0
 15 16  1  1
 16 17  1  0
 18 20  2  0
 18 19  1  0
M  END
$$$$
