GQC.pdb
     RDKit          3D

 20 19  0  0  1  0  0  0  0  0999 V2000
    7.2380  -16.7307   18.9984 N   0  0  0  0  0  0  0  0  0  0  0  0
    8.2535  -16.8013   20.0256 C   0  0  0  0  0  0  0  0  0  0  0  0
    7.6103  -16.6003   21.3417 C   0  0  0  0  0  0  0  0  0  0  0  0
    6.4215  -16.2090   21.3874 O   0  0  0  0  0  0  0  0  0  0  0  0
    6.9109  -19.4580   27.8503 N   0  0  0  0  0  0  0  0  0  0  0  0
    7.7684  -18.6649   27.0598 C   0  0  0  0  0  0  0  0  0  0  0  0
    9.0139  -18.9213   27.1753 O   0  0  0  0  0  0  0  0  0  0  0  0
    7.2998  -17.6004   26.1478 C   0  0  0  0  0  0  0  0  0  0  0  0
    7.9982  -17.7590   24.8200 C   0  0  0  0  0  0  0  0  0  0  0  0
    7.5840  -16.6968   23.8259 C   0  0  2  0  0  0  0  0  0  0  0  0
    8.2730  -16.8290   22.5759 N   0  0  0  0  0  0  0  0  0  0  0  0
    7.8246  -15.3875   24.4791 C   0  0  0  0  0  0  0  0  0  0  0  0
    8.9727  -14.8974   24.3676 O   0  0  0  0  0  0  0  0  0  0  0  0
    6.8344  -14.6805   25.2087 N   0  0  0  0  0  0  0  0  0  0  0  0
    7.1455  -13.4025   25.7771 C   0  0  1  0  0  0  0  0  0  0  0  0
    5.9303  -12.6063   26.1694 C   0  0  0  0  0  0  0  0  0  0  0  0
    6.3151  -11.1105   27.0748 S   0  0  0  0  0  0  0  0  0  0  0  0
    7.9460  -13.6209   27.0066 C   0  0  0  0  0  0  0  0  0  0  0  0
    8.6295  -12.5468   27.5529 O   0  0  0  0  0  0  0  0  0  0  0  0
    8.0042  -14.7657   27.5467 O   0  0  0  0  0  0  0  0  0  0  0  0
  2  1  1  0
  2  3  1  0
  3 11  1  0
  4  3  2  0
  6  5  1  0
  6  8  1  0
  7  6  2  0
  9  8  1  0
 10  9  1  1
 11 10  1  0
 12 10  1  0
 12 14  1  0
 13 12  2  0
 14 15  1  0
 15 18  1  0
 15 16  1  1
 16 17  1  0
 18 20  2  0
 18 19  1  0
M  END
$$$$
