GQC.pdb
     RDKit          3D

 20 19  0  0  1  0  0  0  0  0999 V2000
    8.5629  -16.9066   19.1255 N   0  0  0  0  0  0  0  0  0  0  0  0
    9.0638  -17.2491   20.4382 C   0  0  0  0  0  0  0  0  0  0  0  0
    8.1875  -16.6302   21.4556 C   0  0  0  0  0  0  0  0  0  0  0  0
    7.2718  -15.8599   21.0862 O   0  0  0  0  0  0  0  0  0  0  0  0
    8.0207  -19.7773   25.4444 N   0  0  0  0  0  0  0  0  0  0  0  0
    6.8740  -19.7183   24.6254 C   0  0  0  0  0  0  0  0  0  0  0  0
    6.4166  -20.8464   24.2402 O   0  0  0  0  0  0  0  0  0  0  0  0
    6.2157  -18.4594   24.2174 C   0  0  0  0  0  0  0  0  0  0  0  0
    6.9639  -17.3017   24.8306 C   0  0  0  0  0  0  0  0  0  0  0  0
    7.4089  -16.2950   23.7928 C   0  0  2  0  0  0  0  0  0  0  0  0
    8.3266  -16.8624   22.8490 N   0  0  0  0  0  0  0  0  0  0  0  0
    7.9840  -15.1471   24.5346 C   0  0  0  0  0  0  0  0  0  0  0  0
    9.2240  -15.1495   24.7164 O   0  0  0  0  0  0  0  0  0  0  0  0
    7.2095  -14.0697   25.0367 N   0  0  0  0  0  0  0  0  0  0  0  0
    7.8504  -13.0011   25.7444 C   0  0  1  0  0  0  0  0  0  0  0  0
    6.9870  -11.7783   25.8985 C   0  0  0  0  0  0  0  0  0  0  0  0
    5.3259  -12.1399   26.4599 S   0  0  0  0  0  0  0  0  0  0  0  0
    8.1860  -13.4793   27.1077 C   0  0  0  0  0  0  0  0  0  0  0  0
    7.7553  -14.7381   27.4942 O   0  0  0  0  0  0  0  0  0  0  0  0
    8.8527  -12.7524   27.9032 O   0  0  0  0  0  0  0  0  0  0  0  0
  2  1  1  0
  2  3  1  0
  3 11  1  0
  4  3  2  0
  6  5  1  0
  6  8  1  0
  7  6  2  0
  9  8  1  0
 10  9  1  1
 11 10  1  0
 12 10  1  0
 12 14  1  0
 13 12  2  0
 14 15  1  0
 15 18  1  0
 15 16  1  1
 16 17  1  0
 18 20  2  0
 18 19  1  0
M  END
$$$$
