GQC.pdb
     RDKit          3D

 20 19  0  0  1  0  0  0  0  0999 V2000
    5.3477  -19.8454   22.0140 N   0  0  0  0  0  0  0  0  0  0  0  0
    5.2776  -19.2407   23.3258 C   0  0  0  0  0  0  0  0  0  0  0  0
    6.1300  -18.0327   23.3364 C   0  0  0  0  0  0  0  0  0  0  0  0
    6.8747  -17.8017   22.3564 O   0  0  0  0  0  0  0  0  0  0  0  0
    5.9054  -12.9149   27.1595 N   0  0  0  0  0  0  0  0  0  0  0  0
    7.0650  -12.7415   26.3756 C   0  0  0  0  0  0  0  0  0  0  0  0
    7.6806  -11.6357   26.5441 O   0  0  0  0  0  0  0  0  0  0  0  0
    7.5680  -13.7448   25.4136 C   0  0  0  0  0  0  0  0  0  0  0  0
    6.6066  -14.9069   25.3800 C   0  0  0  0  0  0  0  0  0  0  0  0
    7.0353  -15.9749   24.3981 C   0  0  2  0  0  0  0  0  0  0  0  0
    6.1533  -17.1049   24.4104 N   0  0  0  0  0  0  0  0  0  0  0  0
    8.4323  -16.3325   24.7434 C   0  0  0  0  0  0  0  0  0  0  0  0
    8.5965  -17.1556   25.6742 O   0  0  0  0  0  0  0  0  0  0  0  0
    9.5664  -15.7959   24.0812 N   0  0  0  0  0  0  0  0  0  0  0  0
   10.8259  -16.4744   24.1631 C   0  0  1  0  0  0  0  0  0  0  0  0
   11.7517  -16.1650   23.0178 C   0  0  0  0  0  0  0  0  0  0  0  0
   13.3758  -16.8983   23.1908 S   0  0  0  0  0  0  0  0  0  0  0  0
   11.5068  -16.0460   25.4092 C   0  0  0  0  0  0  0  0  0  0  0  0
   12.6821  -16.6814   25.7753 O   0  0  0  0  0  0  0  0  0  0  0  0
   11.0243  -15.1182   26.1248 O   0  0  0  0  0  0  0  0  0  0  0  0
  2  1  1  0
  2  3  1  0
  3 11  1  0
  4  3  2  0
  6  5  1  0
  6  8  1  0
  7  6  2  0
  9  8  1  0
 10  9  1  1
 11 10  1  0
 12 10  1  0
 12 14  1  0
 13 12  2  0
 14 15  1  0
 15 18  1  0
 15 16  1  6
 16 17  1  0
 18 20  2  0
 18 19  1  0
M  END
$$$$
