GQC.pdb
     RDKit          3D

 20 19  0  0  1  0  0  0  0  0999 V2000
   11.3855  -22.1420   26.0745 N   0  0  0  0  0  0  0  0  0  0  0  0
   11.3851  -23.2782   26.9692 C   0  0  0  0  0  0  0  0  0  0  0  0
   11.3771  -22.7836   28.3625 C   0  0  0  0  0  0  0  0  0  0  0  0
   11.6512  -21.5822   28.5861 O   0  0  0  0  0  0  0  0  0  0  0  0
    8.3809  -24.9742   33.4840 N   0  0  0  0  0  0  0  0  0  0  0  0
    9.1783  -23.9107   33.9554 C   0  0  0  0  0  0  0  0  0  0  0  0
    8.9821  -23.5755   35.1718 O   0  0  0  0  0  0  0  0  0  0  0  0
   10.1831  -23.2053   33.1322 C   0  0  0  0  0  0  0  0  0  0  0  0
   10.1726  -23.7968   31.7444 C   0  0  0  0  0  0  0  0  0  0  0  0
   11.1419  -23.0968   30.8177 C   0  0  2  0  0  0  0  0  0  0  0  0
   11.0716  -23.6050   29.4791 N   0  0  0  0  0  0  0  0  0  0  0  0
   12.4886  -23.2479   31.4197 C   0  0  0  0  0  0  0  0  0  0  0  0
   13.1391  -24.2738   31.1112 O   0  0  0  0  0  0  0  0  0  0  0  0
   13.0608  -22.3030   32.3100 N   0  0  0  0  0  0  0  0  0  0  0  0
   14.4753  -22.3067   32.5394 C   0  0  1  0  0  0  0  0  0  0  0  0
   15.2344  -21.3753   31.6335 C   0  0  0  0  0  0  0  0  0  0  0  0
   16.9247  -21.8845   31.3358 S   0  0  0  0  0  0  0  0  0  0  0  0
   14.7231  -21.8657   33.9338 C   0  0  0  0  0  0  0  0  0  0  0  0
   16.0040  -21.9817   34.4487 O   0  0  0  0  0  0  0  0  0  0  0  0
   13.7835  -21.3926   34.6401 O   0  0  0  0  0  0  0  0  0  0  0  0
  2  1  1  0
  2  3  1  0
  3 11  1  0
  4  3  2  0
  6  5  1  0
  6  8  1  0
  7  6  2  0
  9  8  1  0
 10  9  1  1
 11 10  1  0
 12 10  1  0
 12 14  1  0
 13 12  2  0
 14 15  1  0
 15 18  1  0
 15 16  1  6
 16 17  1  0
 18 20  2  0
 18 19  1  0
M  END
$$$$
