GQC.pdb
     RDKit          3D

 20 19  0  0  1  0  0  0  0  0999 V2000
    7.4859  -12.6793   19.1173 N   0  0  0  0  0  0  0  0  0  0  0  0
    8.4701  -13.5240   19.7569 C   0  0  0  0  0  0  0  0  0  0  0  0
    7.9170  -14.0071   21.0402 C   0  0  0  0  0  0  0  0  0  0  0  0
    6.7820  -13.6198   21.4008 O   0  0  0  0  0  0  0  0  0  0  0  0
    6.1181  -17.5268   24.8892 N   0  0  0  0  0  0  0  0  0  0  0  0
    6.1092  -17.9849   23.5553 C   0  0  0  0  0  0  0  0  0  0  0  0
    5.0662  -18.6326   23.2049 O   0  0  0  0  0  0  0  0  0  0  0  0
    7.2098  -17.7531   22.5962 C   0  0  0  0  0  0  0  0  0  0  0  0
    8.2597  -16.8988   23.2623 C   0  0  0  0  0  0  0  0  0  0  0  0
    7.9913  -15.4208   23.0840 C   0  0  2  0  0  0  0  0  0  0  0  0
    8.6094  -14.8987   21.9007 N   0  0  0  0  0  0  0  0  0  0  0  0
    8.4617  -14.7519   24.3210 C   0  0  0  0  0  0  0  0  0  0  0  0
    9.6983  -14.5919   24.4475 O   0  0  0  0  0  0  0  0  0  0  0  0
    7.5928  -14.2951   25.3453 N   0  0  0  0  0  0  0  0  0  0  0  0
    8.1388  -13.7050   26.5315 C   0  0  1  0  0  0  0  0  0  0  0  0
    7.1432  -12.8893   27.3111 C   0  0  0  0  0  0  0  0  0  0  0  0
    6.2515  -11.7010   26.3121 S   0  0  0  0  0  0  0  0  0  0  0  0
    8.6095  -14.7948   27.4208 C   0  0  0  0  0  0  0  0  0  0  0  0
    9.3003  -14.4589   28.5737 O   0  0  0  0  0  0  0  0  0  0  0  0
    8.3850  -16.0083   27.1329 O   0  0  0  0  0  0  0  0  0  0  0  0
  2  1  1  0
  2  3  1  0
  3 11  1  0
  4  3  2  0
  6  5  1  0
  6  8  1  0
  7  6  2  0
  9  8  1  0
 10  9  1  1
 11 10  1  0
 12 10  1  0
 12 14  1  0
 13 12  2  0
 14 15  1  0
 15 18  1  0
 15 16  1  1
 16 17  1  0
 18 20  2  0
 18 19  1  0
M  END
$$$$
