GQC.pdb
     RDKit          3D

 20 19  0  0  1  0  0  0  0  0999 V2000
    7.4863  -13.4702   18.3831 N   0  0  0  0  0  0  0  0  0  0  0  0
    8.4318  -13.2206   19.4485 C   0  0  0  0  0  0  0  0  0  0  0  0
    7.9558  -13.8995   20.6726 C   0  0  0  0  0  0  0  0  0  0  0  0
    6.7378  -14.1670   20.7887 O   0  0  0  0  0  0  0  0  0  0  0  0
   11.0940  -17.9782   20.4873 N   0  0  0  0  0  0  0  0  0  0  0  0
   10.0742  -18.0386   21.4597 C   0  0  0  0  0  0  0  0  0  0  0  0
   10.1815  -18.9861   22.3088 O   0  0  0  0  0  0  0  0  0  0  0  0
    8.9419  -17.0909   21.5274 C   0  0  0  0  0  0  0  0  0  0  0  0
    8.9458  -16.4289   22.8830 C   0  0  0  0  0  0  0  0  0  0  0  0
    8.3314  -15.0471   22.8459 C   0  0  2  0  0  0  0  0  0  0  0  0
    8.8132  -14.2715   21.7408 N   0  0  0  0  0  0  0  0  0  0  0  0
    8.6199  -14.4191   24.1579 C   0  0  0  0  0  0  0  0  0  0  0  0
    9.8162  -14.1387   24.4048 O   0  0  0  0  0  0  0  0  0  0  0  0
    7.6234  -14.1282   25.1248 N   0  0  0  0  0  0  0  0  0  0  0  0
    8.0053  -13.6322   26.4139 C   0  0  1  0  0  0  0  0  0  0  0  0
    6.8978  -12.9113   27.1337 C   0  0  0  0  0  0  0  0  0  0  0  0
    6.1082  -11.6432   26.1470 S   0  0  0  0  0  0  0  0  0  0  0  0
    8.4036  -14.7849   27.2582 C   0  0  0  0  0  0  0  0  0  0  0  0
    8.8965  -14.5376   28.5290 O   0  0  0  0  0  0  0  0  0  0  0  0
    8.2956  -15.9715   26.8270 O   0  0  0  0  0  0  0  0  0  0  0  0
  2  1  1  0
  2  3  1  0
  3 11  1  0
  4  3  2  0
  6  5  1  0
  6  8  1  0
  7  6  2  0
  9  8  1  0
 10  9  1  1
 11 10  1  0
 12 10  1  0
 12 14  1  0
 13 12  2  0
 14 15  1  0
 15 18  1  0
 15 16  1  1
 16 17  1  0
 18 20  2  0
 18 19  1  0
M  END
$$$$
