GQC.pdb
     RDKit          3D

 20 19  0  0  1  0  0  0  0  0999 V2000
    7.3518  -17.7629   16.4098 N   0  0  0  0  0  0  0  0  0  0  0  0
    8.5450  -17.1809   16.9832 C   0  0  0  0  0  0  0  0  0  0  0  0
    8.6552  -17.6177   18.3915 C   0  0  0  0  0  0  0  0  0  0  0  0
    7.6253  -17.9930   18.9972 O   0  0  0  0  0  0  0  0  0  0  0  0
    9.9431  -21.1807   18.1121 N   0  0  0  0  0  0  0  0  0  0  0  0
   10.9211  -20.7081   19.0117 C   0  0  0  0  0  0  0  0  0  0  0  0
   12.0799  -20.5165   18.5111 O   0  0  0  0  0  0  0  0  0  0  0  0
   10.6649  -20.4401   20.4426 C   0  0  0  0  0  0  0  0  0  0  0  0
   11.0595  -19.0160   20.7460 C   0  0  0  0  0  0  0  0  0  0  0  0
    9.9325  -18.0421   20.4818 C   0  0  2  0  0  0  0  0  0  0  0  0
    9.8804  -17.6366   19.1079 N   0  0  0  0  0  0  0  0  0  0  0  0
   10.1300  -16.9028   21.4102 C   0  0  0  0  0  0  0  0  0  0  0  0
   11.2341  -16.3120   21.3606 O   0  0  0  0  0  0  0  0  0  0  0  0
    9.1457  -16.4617   22.3318 N   0  0  0  0  0  0  0  0  0  0  0  0
    9.3726  -15.2748   23.1021 C   0  0  1  0  0  0  0  0  0  0  0  0
    8.1072  -14.5626   23.4970 C   0  0  0  0  0  0  0  0  0  0  0  0
    7.0254  -14.2047   22.1161 S   0  0  0  0  0  0  0  0  0  0  0  0
   10.0729  -15.6568   24.3526 C   0  0  0  0  0  0  0  0  0  0  0  0
   10.2077  -17.0024   24.6532 O   0  0  0  0  0  0  0  0  0  0  0  0
   10.5385  -14.7714   25.1304 O   0  0  0  0  0  0  0  0  0  0  0  0
  2  1  1  0
  2  3  1  0
  3 11  1  0
  4  3  2  0
  6  5  1  0
  6  8  1  0
  7  6  2  0
  9  8  1  0
 10  9  1  6
 11 10  1  0
 12 10  1  0
 12 14  1  0
 13 12  2  0
 14 15  1  0
 15 18  1  0
 15 16  1  1
 16 17  1  0
 18 20  2  0
 18 19  1  0
M  END
$$$$
