GQC.pdb
     RDKit          3D

 20 19  0  0  1  0  0  0  0  0999 V2000
    5.6469  -18.9516   20.4946 N   0  0  0  0  0  0  0  0  0  0  0  0
    5.3684  -17.6310   21.0142 C   0  0  0  0  0  0  0  0  0  0  0  0
    6.5886  -16.8056   20.8880 C   0  0  0  0  0  0  0  0  0  0  0  0
    7.6762  -17.3612   20.6111 O   0  0  0  0  0  0  0  0  0  0  0  0
    9.5394  -13.1373   18.5376 N   0  0  0  0  0  0  0  0  0  0  0  0
    8.1757  -13.2749   18.2048 C   0  0  0  0  0  0  0  0  0  0  0  0
    7.9281  -13.4399   16.9632 O   0  0  0  0  0  0  0  0  0  0  0  0
    7.0775  -13.2367   19.1934 C   0  0  0  0  0  0  0  0  0  0  0  0
    7.6735  -13.2563   20.5792 C   0  0  0  0  0  0  0  0  0  0  0  0
    7.8282  -14.6625   21.1149 C   0  0  2  0  0  0  0  0  0  0  0  0
    6.5984  -15.3974   21.0655 N   0  0  0  0  0  0  0  0  0  0  0  0
    8.3671  -14.5355   22.4905 C   0  0  0  0  0  0  0  0  0  0  0  0
    8.3959  -13.3853   22.9874 O   0  0  0  0  0  0  0  0  0  0  0  0
    8.8410  -15.6345   23.2523 N   0  0  0  0  0  0  0  0  0  0  0  0
    9.0069  -15.4999   24.6693 C   0  0  1  0  0  0  0  0  0  0  0  0
    7.7302  -15.1750   25.3966 C   0  0  0  0  0  0  0  0  0  0  0  0
    7.3041  -13.4366   25.3550 S   0  0  0  0  0  0  0  0  0  0  0  0
    9.5044  -16.7901   25.2057 C   0  0  0  0  0  0  0  0  0  0  0  0
    9.8807  -16.8542   26.5374 O   0  0  0  0  0  0  0  0  0  0  0  0
    9.5841  -17.8131   24.4621 O   0  0  0  0  0  0  0  0  0  0  0  0
  2  1  1  0
  2  3  1  0
  3 11  1  0
  4  3  2  0
  6  5  1  0
  6  8  1  0
  7  6  2  0
  9  8  1  0
 10  9  1  1
 11 10  1  0
 12 10  1  0
 12 14  1  0
 13 12  2  0
 14 15  1  0
 15 18  1  0
 15 16  1  1
 16 17  1  0
 18 20  2  0
 18 19  1  0
M  END
$$$$
