GQC.pdb
     RDKit          3D

 20 19  0  0  1  0  0  0  0  0999 V2000
    5.1848  -19.2639   21.2709 N   0  0  0  0  0  0  0  0  0  0  0  0
    5.1430  -18.0626   22.0750 C   0  0  0  0  0  0  0  0  0  0  0  0
    6.2640  -17.1856   21.6745 C   0  0  0  0  0  0  0  0  0  0  0  0
    7.4295  -17.6439   21.6772 O   0  0  0  0  0  0  0  0  0  0  0  0
   10.0393  -13.0564   18.7208 N   0  0  0  0  0  0  0  0  0  0  0  0
    8.6801  -13.2648   19.0344 C   0  0  0  0  0  0  0  0  0  0  0  0
    8.0165  -13.9389   18.1769 O   0  0  0  0  0  0  0  0  0  0  0  0
    8.0289  -12.7557   20.2599 C   0  0  0  0  0  0  0  0  0  0  0  0
    6.8256  -13.6145   20.5604 C   0  0  0  0  0  0  0  0  0  0  0  0
    7.2099  -14.9405   21.1789 C   0  0  2  0  0  0  0  0  0  0  0  0
    6.0926  -15.8327   21.2809 N   0  0  0  0  0  0  0  0  0  0  0  0
    7.8223  -14.6336   22.4940 C   0  0  0  0  0  0  0  0  0  0  0  0
    7.5571  -13.5179   22.9998 O   0  0  0  0  0  0  0  0  0  0  0  0
    8.6763  -15.5275   23.1899 N   0  0  0  0  0  0  0  0  0  0  0  0
    9.2296  -15.1440   24.4549 C   0  0  1  0  0  0  0  0  0  0  0  0
    8.1938  -14.9325   25.5257 C   0  0  0  0  0  0  0  0  0  0  0  0
    6.8705  -16.1379   25.4909 S   0  0  0  0  0  0  0  0  0  0  0  0
   10.1291  -16.2284   24.9189 C   0  0  0  0  0  0  0  0  0  0  0  0
   10.8750  -16.0255   26.0685 O   0  0  0  0  0  0  0  0  0  0  0  0
   10.2142  -17.3181   24.2777 O   0  0  0  0  0  0  0  0  0  0  0  0
  2  1  1  0
  2  3  1  0
  3 11  1  0
  4  3  2  0
  6  5  1  0
  6  8  1  0
  7  6  2  0
  9  8  1  0
 10  9  1  1
 11 10  1  0
 12 10  1  0
 12 14  1  0
 13 12  2  0
 14 15  1  0
 15 18  1  0
 15 16  1  1
 16 17  1  0
 18 20  2  0
 18 19  1  0
M  END
$$$$
