GQC.pdb
     RDKit          3D

 20 19  0  0  1  0  0  0  0  0999 V2000
    3.4792  -19.6096   21.8694 N   0  0  0  0  0  0  0  0  0  0  0  0
    3.5383  -18.1811   22.0871 C   0  0  0  0  0  0  0  0  0  0  0  0
    4.9403  -17.7368   21.9355 C   0  0  0  0  0  0  0  0  0  0  0  0
    5.8588  -18.5870   21.9779 O   0  0  0  0  0  0  0  0  0  0  0  0
    7.2826  -12.7236   18.9733 N   0  0  0  0  0  0  0  0  0  0  0  0
    8.4008  -13.3206   19.5918 C   0  0  0  0  0  0  0  0  0  0  0  0
    9.5383  -12.9136   19.1787 O   0  0  0  0  0  0  0  0  0  0  0  0
    8.3071  -14.3496   20.6488 C   0  0  0  0  0  0  0  0  0  0  0  0
    6.8556  -14.7112   20.8443 C   0  0  0  0  0  0  0  0  0  0  0  0
    6.6870  -15.9945   21.6273 C   0  0  2  0  0  0  0  0  0  0  0  0
    5.3111  -16.3804   21.7415 N   0  0  0  0  0  0  0  0  0  0  0  0
    7.3337  -15.7763   22.9437 C   0  0  0  0  0  0  0  0  0  0  0  0
    6.6278  -15.2741   23.8494 O   0  0  0  0  0  0  0  0  0  0  0  0
    8.6867  -16.1037   23.2174 N   0  0  0  0  0  0  0  0  0  0  0  0
    9.1788  -16.0322   24.5613 C   0  0  1  0  0  0  0  0  0  0  0  0
    8.4263  -16.9090   25.5253 C   0  0  0  0  0  0  0  0  0  0  0  0
    9.2105  -17.0494   27.1285 S   0  0  0  0  0  0  0  0  0  0  0  0
   10.5920  -16.4827   24.5655 C   0  0  0  0  0  0  0  0  0  0  0  0
   11.3500  -16.2792   25.7071 O   0  0  0  0  0  0  0  0  0  0  0  0
   11.0964  -17.0424   23.5466 O   0  0  0  0  0  0  0  0  0  0  0  0
  2  1  1  0
  2  3  1  0
  3 11  1  0
  4  3  2  0
  6  5  1  0
  6  8  1  0
  7  6  2  0
  9  8  1  0
 10  9  1  6
 11 10  1  0
 12 10  1  0
 12 14  1  0
 13 12  2  0
 14 15  1  0
 15 18  1  0
 15 16  1  1
 16 17  1  0
 18 20  2  0
 18 19  1  0
M  END
$$$$
