AKL.pdb
     RDKit          3D

 23 22  0  0  1  0  0  0  0  0999 V2000
    6.6562  -19.5581   20.1028 C   0  0  0  0  0  0  0  0  0  0  0  0
    6.7489  -18.9581   21.5184 C   0  0  2  0  0  0  0  0  0  0  0  0
    5.4309  -18.3842   21.7511 N   0  0  0  0  0  0  0  0  0  0  0  0
    7.6962  -17.8178   21.4709 C   0  0  0  0  0  0  0  0  0  0  0  0
    8.9085  -18.1137   21.2870 O   0  0  0  0  0  0  0  0  0  0  0  0
    7.3027  -16.4631   21.6153 N   0  0  0  0  0  0  0  0  0  0  0  0
    8.2762  -15.3778   21.5827 C   0  0  1  0  0  0  0  0  0  0  0  0
    7.7077  -14.3811   20.5771 C   0  0  0  0  0  0  0  0  0  0  0  0
    7.7991  -14.8432   19.1643 C   0  0  0  0  0  0  0  0  0  0  0  0
    7.9872  -13.6650   18.2341 C   0  0  0  0  0  0  0  0  0  0  0  0
    8.1050  -14.0511   16.7792 C   0  0  0  0  0  0  0  0  0  0  0  0
    8.3961  -12.8724   15.9828 N   0  0  0  0  0  0  0  0  0  0  0  0
    8.5731  -14.7744   22.8642 C   0  0  0  0  0  0  0  0  0  0  0  0
    8.7547  -13.5255   22.9376 O   0  0  0  0  0  0  0  0  0  0  0  0
    8.3370  -11.9078   26.6622 C   0  0  0  0  0  0  0  0  0  0  0  0
    7.3021  -13.0780   26.6564 C   0  0  1  0  0  0  0  0  0  0  0  0
    5.9657  -12.3797   26.7704 C   0  0  0  0  0  0  0  0  0  0  0  0
    7.5374  -13.8733   25.4347 C   0  0  0  0  0  0  0  0  0  0  0  0
    8.6727  -14.8158   25.4008 C   0  0  2  0  0  0  0  0  0  0  0  0
    8.6732  -15.5058   24.0628 N   0  0  0  0  0  0  0  0  0  0  0  0
    8.8003  -15.8670   26.3776 C   0  0  0  0  0  0  0  0  0  0  0  0
    9.6724  -15.7131   27.4740 O   0  0  0  0  0  0  0  0  0  0  0  0
    8.1866  -16.9406   26.3431 O   0  0  0  0  0  0  0  0  0  0  0  0
  2  1  1  6
  2  3  1  0
  2  4  1  0
  4  5  2  0
  6  4  1  0
  6  7  1  0
  7 13  1  0
  7  8  1  6
  9  8  1  0
  9 10  1  0
 10 11  1  0
 11 12  1  0
 13 14  2  0
 16 15  1  6
 16 18  1  0
 17 16  1  0
 19 18  1  1
 19 21  1  0
 20 19  1  0
 20 13  1  0
 21 23  2  0
 21 22  1  0
M  END
$$$$
