AKL.pdb
     RDKit          3D

 23 22  0  0  1  0  0  0  0  0999 V2000
    8.4873  -12.3711   19.2333 C   0  0  0  0  0  0  0  0  0  0  0  0
    8.5468  -13.9030   19.0845 C   0  0  2  0  0  0  0  0  0  0  0  0
    7.5803  -14.1988   18.0361 N   0  0  0  0  0  0  0  0  0  0  0  0
    8.0078  -14.5048   20.3284 C   0  0  0  0  0  0  0  0  0  0  0  0
    6.7946  -14.2656   20.5774 O   0  0  0  0  0  0  0  0  0  0  0  0
    8.7755  -15.3087   21.2089 N   0  0  0  0  0  0  0  0  0  0  0  0
    8.1755  -15.9580   22.3686 C   0  0  1  0  0  0  0  0  0  0  0  0
    8.4717  -17.4420   22.1749 C   0  0  0  0  0  0  0  0  0  0  0  0
    7.5525  -18.1119   21.2134 C   0  0  0  0  0  0  0  0  0  0  0  0
    7.8620  -19.5905   21.1292 C   0  0  0  0  0  0  0  0  0  0  0  0
    7.1066  -20.3089   20.0370 C   0  0  0  0  0  0  0  0  0  0  0  0
    7.4413  -21.7216   20.0594 N   0  0  0  0  0  0  0  0  0  0  0  0
    8.6178  -15.4607   23.6537 C   0  0  0  0  0  0  0  0  0  0  0  0
    9.8381  -15.1787   23.8262 O   0  0  0  0  0  0  0  0  0  0  0  0
    5.4813  -12.2294   26.9208 C   0  0  0  0  0  0  0  0  0  0  0  0
    6.6926  -12.7421   26.0779 C   0  0  1  0  0  0  0  0  0  0  0  0
    7.6400  -11.5637   26.0521 C   0  0  0  0  0  0  0  0  0  0  0  0
    7.1847  -13.9802   26.7146 C   0  0  0  0  0  0  0  0  0  0  0  0
    8.2703  -14.7385   26.0628 C   0  0  2  0  0  0  0  0  0  0  0  0
    7.7559  -15.2642   24.7493 N   0  0  0  0  0  0  0  0  0  0  0  0
    8.8901  -15.8645   26.7135 C   0  0  0  0  0  0  0  0  0  0  0  0
    9.9206  -15.6608   27.6530 O   0  0  0  0  0  0  0  0  0  0  0  0
    8.5871  -17.0477   26.5166 O   0  0  0  0  0  0  0  0  0  0  0  0
  2  1  1  1
  2  3  1  0
  2  4  1  0
  4  5  2  0
  6  4  1  0
  6  7  1  0
  7 13  1  0
  7  8  1  1
  9  8  1  0
  9 10  1  0
 10 11  1  0
 11 12  1  0
 13 14  2  0
 16 15  1  1
 16 18  1  0
 17 16  1  0
 19 18  1  1
 19 21  1  0
 20 19  1  0
 20 13  1  0
 21 23  2  0
 21 22  1  0
M  END
$$$$
