AKL.pdb
     RDKit          3D

 23 22  0  0  1  0  0  0  0  0999 V2000
    8.4304  -12.3098   19.1883 C   0  0  0  0  0  0  0  0  0  0  0  0
    8.5755  -13.8136   18.8881 C   0  0  2  0  0  0  0  0  0  0  0  0
    7.5594  -14.0770   17.8786 N   0  0  0  0  0  0  0  0  0  0  0  0
    8.1624  -14.5638   20.0991 C   0  0  0  0  0  0  0  0  0  0  0  0
    7.0409  -14.2532   20.5858 O   0  0  0  0  0  0  0  0  0  0  0  0
    8.9495  -15.5778   20.7016 N   0  0  0  0  0  0  0  0  0  0  0  0
    8.4936  -16.2953   21.8864 C   0  0  1  0  0  0  0  0  0  0  0  0
    9.1704  -17.6595   21.7944 C   0  0  0  0  0  0  0  0  0  0  0  0
    8.9120  -18.5329   22.9728 C   0  0  0  0  0  0  0  0  0  0  0  0
    8.0371  -19.7034   22.5811 C   0  0  0  0  0  0  0  0  0  0  0  0
    7.6197  -20.5678   23.7465 C   0  0  0  0  0  0  0  0  0  0  0  0
    6.8038  -21.6702   23.2697 N   0  0  0  0  0  0  0  0  0  0  0  0
    8.7426  -15.6293   23.1469 C   0  0  0  0  0  0  0  0  0  0  0  0
    9.8661  -15.0880   23.3542 O   0  0  0  0  0  0  0  0  0  0  0  0
    5.8068  -11.8894   26.6799 C   0  0  0  0  0  0  0  0  0  0  0  0
    7.1632  -12.4365   26.1310 C   0  0  1  0  0  0  0  0  0  0  0  0
    8.0983  -12.3395   27.3155 C   0  0  0  0  0  0  0  0  0  0  0  0
    6.9110  -13.7866   25.5887 C   0  0  0  0  0  0  0  0  0  0  0  0
    8.0476  -14.7108   25.4096 C   0  0  2  0  0  0  0  0  0  0  0  0
    7.7910  -15.5416   24.1806 N   0  0  0  0  0  0  0  0  0  0  0  0
    8.4179  -15.6480   26.4391 C   0  0  0  0  0  0  0  0  0  0  0  0
    7.7927  -16.9092   26.5070 O   0  0  0  0  0  0  0  0  0  0  0  0
    9.2737  -15.4401   27.3078 O   0  0  0  0  0  0  0  0  0  0  0  0
  2  1  1  1
  2  3  1  0
  2  4  1  0
  4  5  2  0
  6  4  1  0
  6  7  1  0
  7 13  1  0
  7  8  1  1
  9  8  1  0
  9 10  1  0
 10 11  1  0
 11 12  1  0
 13 14  2  0
 16 15  1  1
 16 18  1  0
 17 16  1  0
 19 18  1  1
 19 21  1  0
 20 19  1  0
 20 13  1  0
 21 23  2  0
 21 22  1  0
M  END
$$$$
