AKL.pdb
     RDKit          3D

 23 22  0  0  1  0  0  0  0  0999 V2000
    9.0934  -19.2582   19.8461 C   0  0  0  0  0  0  0  0  0  0  0  0
    8.6954  -18.8454   21.2757 C   0  0  2  0  0  0  0  0  0  0  0  0
    7.2414  -18.7743   21.2362 N   0  0  0  0  0  0  0  0  0  0  0  0
    9.1732  -17.4595   21.5015 C   0  0  0  0  0  0  0  0  0  0  0  0
   10.4230  -17.3133   21.5896 O   0  0  0  0  0  0  0  0  0  0  0  0
    8.3106  -16.3396   21.6137 N   0  0  0  0  0  0  0  0  0  0  0  0
    8.8171  -15.0180   21.9647 C   0  0  1  0  0  0  0  0  0  0  0  0
    7.7977  -14.0467   21.3773 C   0  0  0  0  0  0  0  0  0  0  0  0
    7.4336  -14.3481   19.9649 C   0  0  0  0  0  0  0  0  0  0  0  0
    8.3570  -13.6186   19.0140 C   0  0  0  0  0  0  0  0  0  0  0  0
    7.9947  -13.7948   17.5590 C   0  0  0  0  0  0  0  0  0  0  0  0
    8.9149  -13.0360   16.7309 N   0  0  0  0  0  0  0  0  0  0  0  0
    9.0512  -14.8000   23.3761 C   0  0  0  0  0  0  0  0  0  0  0  0
   10.1245  -14.2473   23.7515 O   0  0  0  0  0  0  0  0  0  0  0  0
    5.3488  -12.6410   26.5956 C   0  0  0  0  0  0  0  0  0  0  0  0
    6.7677  -12.9074   25.9986 C   0  0  1  0  0  0  0  0  0  0  0  0
    7.6025  -11.7616   26.5250 C   0  0  0  0  0  0  0  0  0  0  0  0
    7.1717  -14.2687   26.4036 C   0  0  0  0  0  0  0  0  0  0  0  0
    8.3997  -14.8523   25.8295 C   0  0  2  0  0  0  0  0  0  0  0  0
    8.1383  -15.1708   24.3815 N   0  0  0  0  0  0  0  0  0  0  0  0
    8.9924  -16.0417   26.3857 C   0  0  0  0  0  0  0  0  0  0  0  0
    9.5285  -16.0231   27.6890 O   0  0  0  0  0  0  0  0  0  0  0  0
    9.0771  -17.1280   25.8000 O   0  0  0  0  0  0  0  0  0  0  0  0
  2  1  1  6
  2  3  1  0
  2  4  1  0
  4  5  2  0
  6  4  1  0
  6  7  1  0
  7 13  1  0
  7  8  1  1
  9  8  1  0
  9 10  1  0
 10 11  1  0
 11 12  1  0
 13 14  2  0
 16 15  1  1
 16 18  1  0
 17 16  1  0
 19 18  1  1
 19 21  1  0
 20 19  1  0
 20 13  1  0
 21 23  2  0
 21 22  1  0
M  END
$$$$
