AKL.pdb
     RDKit          3D

 23 22  0  0  1  0  0  0  0  0999 V2000
    9.0635  -12.2676   19.1403 C   0  0  0  0  0  0  0  0  0  0  0  0
    8.7692  -13.7009   18.6589 C   0  0  2  0  0  0  0  0  0  0  0  0
    7.6360  -13.5501   17.7568 N   0  0  0  0  0  0  0  0  0  0  0  0
    8.2753  -14.4810   19.8197 C   0  0  0  0  0  0  0  0  0  0  0  0
    7.0594  -14.3221   20.1153 O   0  0  0  0  0  0  0  0  0  0  0  0
    9.0872  -15.3648   20.5751 N   0  0  0  0  0  0  0  0  0  0  0  0
    8.5628  -16.0847   21.7297 C   0  0  1  0  0  0  0  0  0  0  0  0
    9.1596  -17.4840   21.6144 C   0  0  0  0  0  0  0  0  0  0  0  0
    8.7371  -18.4033   22.7074 C   0  0  0  0  0  0  0  0  0  0  0  0
    9.2815  -19.7944   22.4678 C   0  0  0  0  0  0  0  0  0  0  0  0
    8.7299  -20.8347   23.4127 C   0  0  0  0  0  0  0  0  0  0  0  0
    9.1651  -22.1551   22.9940 N   0  0  0  0  0  0  0  0  0  0  0  0
    8.8220  -15.4681   23.0131 C   0  0  0  0  0  0  0  0  0  0  0  0
    9.9695  -14.9971   23.2575 O   0  0  0  0  0  0  0  0  0  0  0  0
    5.5319  -12.1517   26.6936 C   0  0  0  0  0  0  0  0  0  0  0  0
    7.0159  -12.3897   26.2673 C   0  0  1  0  0  0  0  0  0  0  0  0
    7.7131  -12.7381   27.5631 C   0  0  0  0  0  0  0  0  0  0  0  0
    7.0147  -13.4221   25.2115 C   0  0  0  0  0  0  0  0  0  0  0  0
    8.0714  -14.4525   25.2157 C   0  0  2  0  0  0  0  0  0  0  0  0
    7.8553  -15.3547   24.0301 N   0  0  0  0  0  0  0  0  0  0  0  0
    8.2530  -15.3318   26.3422 C   0  0  0  0  0  0  0  0  0  0  0  0
    7.3635  -16.4042   26.5544 O   0  0  0  0  0  0  0  0  0  0  0  0
    9.1593  -15.2298   27.1780 O   0  0  0  0  0  0  0  0  0  0  0  0
  2  1  1  1
  2  3  1  0
  2  4  1  0
  4  5  2  0
  6  4  1  0
  6  7  1  0
  7 13  1  0
  7  8  1  1
  9  8  1  0
  9 10  1  0
 10 11  1  0
 11 12  1  0
 13 14  2  0
 16 15  1  1
 16 18  1  0
 17 16  1  0
 19 18  1  1
 19 21  1  0
 20 19  1  0
 20 13  1  0
 21 23  2  0
 21 22  1  0
M  END
$$$$
