AKL.pdb
     RDKit          3D

 23 22  0  0  1  0  0  0  0  0999 V2000
    8.2556  -12.1100   19.7473 C   0  0  0  0  0  0  0  0  0  0  0  0
    8.3809  -13.5683   19.2673 C   0  0  2  0  0  0  0  0  0  0  0  0
    7.2766  -13.7336   18.3324 N   0  0  0  0  0  0  0  0  0  0  0  0
    8.0869  -14.4558   20.4188 C   0  0  0  0  0  0  0  0  0  0  0  0
    6.8674  -14.6048   20.7045 O   0  0  0  0  0  0  0  0  0  0  0  0
    9.0868  -15.1176   21.1759 N   0  0  0  0  0  0  0  0  0  0  0  0
    8.7457  -15.9914   22.2924 C   0  0  1  0  0  0  0  0  0  0  0  0
    9.5505  -17.2637   22.0452 C   0  0  0  0  0  0  0  0  0  0  0  0
    9.3121  -18.3257   23.0618 C   0  0  0  0  0  0  0  0  0  0  0  0
   10.2152  -19.5126   22.8076 C   0  0  0  0  0  0  0  0  0  0  0  0
    9.9547  -20.6829   23.7253 C   0  0  0  0  0  0  0  0  0  0  0  0
   10.9707  -21.6998   23.5209 N   0  0  0  0  0  0  0  0  0  0  0  0
    8.9714  -15.4312   23.6076 C   0  0  0  0  0  0  0  0  0  0  0  0
   10.1004  -14.9368   23.8887 O   0  0  0  0  0  0  0  0  0  0  0  0
    5.5826  -12.0763   26.3178 C   0  0  0  0  0  0  0  0  0  0  0  0
    6.9127  -12.6654   25.7482 C   0  0  1  0  0  0  0  0  0  0  0  0
    7.9408  -11.5997   26.0545 C   0  0  0  0  0  0  0  0  0  0  0  0
    7.1161  -13.9881   26.3725 C   0  0  0  0  0  0  0  0  0  0  0  0
    8.2801  -14.8001   25.9677 C   0  0  2  0  0  0  0  0  0  0  0  0
    7.9908  -15.3990   24.6171 N   0  0  0  0  0  0  0  0  0  0  0  0
    8.7488  -15.8921   26.7821 C   0  0  0  0  0  0  0  0  0  0  0  0
    9.6546  -15.6526   27.8349 O   0  0  0  0  0  0  0  0  0  0  0  0
    8.4138  -17.0742   26.6380 O   0  0  0  0  0  0  0  0  0  0  0  0
  2  1  1  1
  2  3  1  0
  2  4  1  0
  4  5  2  0
  6  4  1  0
  6  7  1  0
  7 13  1  0
  7  8  1  6
  9  8  1  0
  9 10  1  0
 10 11  1  0
 11 12  1  0
 13 14  2  0
 16 15  1  1
 16 18  1  0
 17 16  1  0
 19 18  1  1
 19 21  1  0
 20 19  1  0
 20 13  1  0
 21 23  2  0
 21 22  1  0
M  END
$$$$
