AKL.pdb
     RDKit          3D

 23 22  0  0  1  0  0  0  0  0999 V2000
    6.7106  -18.9489   25.1218 C   0  0  0  0  0  0  0  0  0  0  0  0
    6.3782  -18.9454   23.6179 C   0  0  2  0  0  0  0  0  0  0  0  0
    6.8359  -20.2453   23.1470 N   0  0  0  0  0  0  0  0  0  0  0  0
    7.2442  -17.9367   22.9602 C   0  0  0  0  0  0  0  0  0  0  0  0
    8.4334  -18.2919   22.7348 O   0  0  0  0  0  0  0  0  0  0  0  0
    6.7999  -16.6424   22.5885 N   0  0  0  0  0  0  0  0  0  0  0  0
    7.7190  -15.6435   22.0556 C   0  0  1  0  0  0  0  0  0  0  0  0
    6.8280  -14.6709   21.2889 C   0  0  0  0  0  0  0  0  0  0  0  0
    7.5707  -13.5242   20.6959 C   0  0  0  0  0  0  0  0  0  0  0  0
    7.3447  -13.4647   19.2011 C   0  0  0  0  0  0  0  0  0  0  0  0
    8.0907  -12.3443   18.5171 C   0  0  0  0  0  0  0  0  0  0  0  0
    7.9170  -12.4480   17.0793 N   0  0  0  0  0  0  0  0  0  0  0  0
    8.5539  -14.9849   23.0373 C   0  0  0  0  0  0  0  0  0  0  0  0
    9.0628  -13.8595   22.7679 O   0  0  0  0  0  0  0  0  0  0  0  0
    8.3765  -11.6135   26.4241 C   0  0  0  0  0  0  0  0  0  0  0  0
    7.4391  -12.8484   26.6164 C   0  0  1  0  0  0  0  0  0  0  0  0
    6.0576  -12.2417   26.7163 C   0  0  0  0  0  0  0  0  0  0  0  0
    7.6830  -13.7711   25.4897 C   0  0  0  0  0  0  0  0  0  0  0  0
    8.8543  -14.6678   25.5384 C   0  0  2  0  0  0  0  0  0  0  0  0
    8.8409  -15.5289   24.3036 N   0  0  0  0  0  0  0  0  0  0  0  0
    9.0556  -15.5747   26.6395 C   0  0  0  0  0  0  0  0  0  0  0  0
    8.6191  -16.9114   26.5453 O   0  0  0  0  0  0  0  0  0  0  0  0
    9.6024  -15.2763   27.7083 O   0  0  0  0  0  0  0  0  0  0  0  0
  2  1  1  1
  2  3  1  0
  2  4  1  0
  4  5  2  0
  6  4  1  0
  6  7  1  0
  7 13  1  0
  7  8  1  1
  9  8  1  0
  9 10  1  0
 10 11  1  0
 11 12  1  0
 13 14  2  0
 16 15  1  6
 16 18  1  0
 17 16  1  0
 19 18  1  1
 19 21  1  0
 20 19  1  0
 20 13  1  0
 21 23  2  0
 21 22  1  0
M  END
$$$$
