AKL.pdb
     RDKit          3D

 23 22  0  0  1  0  0  0  0  0999 V2000
    5.6506  -19.5656   24.5448 C   0  0  0  0  0  0  0  0  0  0  0  0
    6.0755  -19.5814   23.0644 C   0  0  2  0  0  0  0  0  0  0  0  0
    6.8623  -20.7996   22.9306 N   0  0  0  0  0  0  0  0  0  0  0  0
    7.0144  -18.4542   22.8459 C   0  0  0  0  0  0  0  0  0  0  0  0
    8.1996  -18.6384   23.2365 O   0  0  0  0  0  0  0  0  0  0  0  0
    6.6428  -17.2292   22.2357 N   0  0  0  0  0  0  0  0  0  0  0  0
    7.5705  -16.1075   22.1485 C   0  0  1  0  0  0  0  0  0  0  0  0
    7.1205  -15.3309   20.9148 C   0  0  0  0  0  0  0  0  0  0  0  0
    8.1496  -14.3868   20.3976 C   0  0  0  0  0  0  0  0  0  0  0  0
    7.7431  -13.8531   19.0415 C   0  0  0  0  0  0  0  0  0  0  0  0
    8.8040  -13.0091   18.3768 C   0  0  0  0  0  0  0  0  0  0  0  0
    8.4252  -12.7425   17.0007 N   0  0  0  0  0  0  0  0  0  0  0  0
    7.6537  -15.2800   23.3329 C   0  0  0  0  0  0  0  0  0  0  0  0
    6.7375  -14.4428   23.5735 O   0  0  0  0  0  0  0  0  0  0  0  0
    7.6940  -11.8904   26.8413 C   0  0  0  0  0  0  0  0  0  0  0  0
    7.0133  -13.2906   26.9705 C   0  0  1  0  0  0  0  0  0  0  0  0
    5.5594  -12.9637   27.2271 C   0  0  0  0  0  0  0  0  0  0  0  0
    7.3200  -14.0489   25.7411 C   0  0  0  0  0  0  0  0  0  0  0  0
    8.6929  -14.5480   25.5307 C   0  0  2  0  0  0  0  0  0  0  0  0
    8.7132  -15.3505   24.2572 N   0  0  0  0  0  0  0  0  0  0  0  0
    9.3482  -15.3700   26.5158 C   0  0  0  0  0  0  0  0  0  0  0  0
    9.2339  -16.7734   26.4566 O   0  0  0  0  0  0  0  0  0  0  0  0
   10.0345  -14.9392   27.4505 O   0  0  0  0  0  0  0  0  0  0  0  0
  2  1  1  1
  2  3  1  0
  2  4  1  0
  4  5  2  0
  6  4  1  0
  6  7  1  0
  7 13  1  0
  7  8  1  6
  9  8  1  0
  9 10  1  0
 10 11  1  0
 11 12  1  0
 13 14  2  0
 16 15  1  6
 16 18  1  0
 17 16  1  0
 19 18  1  1
 19 21  1  0
 20 19  1  0
 20 13  1  0
 21 23  2  0
 21 22  1  0
M  END
$$$$
