AKL.pdb
     RDKit          3D

 23 22  0  0  1  0  0  0  0  0999 V2000
    8.6483  -13.0004   18.9731 C   0  0  0  0  0  0  0  0  0  0  0  0
    8.3601  -14.4958   18.7426 C   0  0  2  0  0  0  0  0  0  0  0  0
    7.3078  -14.5067   17.7359 N   0  0  0  0  0  0  0  0  0  0  0  0
    7.7552  -15.0415   19.9821 C   0  0  0  0  0  0  0  0  0  0  0  0
    6.5860  -14.6485   20.2457 O   0  0  0  0  0  0  0  0  0  0  0  0
    8.4162  -15.9540   20.8431 N   0  0  0  0  0  0  0  0  0  0  0  0
    7.8081  -16.4048   22.0895 C   0  0  1  0  0  0  0  0  0  0  0  0
    8.1832  -17.8802   22.1891 C   0  0  0  0  0  0  0  0  0  0  0  0
    7.7364  -18.5238   23.4558 C   0  0  0  0  0  0  0  0  0  0  0  0
    8.0441  -20.0049   23.4330 C   0  0  0  0  0  0  0  0  0  0  0  0
    7.6285  -20.7320   24.6892 C   0  0  0  0  0  0  0  0  0  0  0  0
    7.8312  -22.1595   24.5174 N   0  0  0  0  0  0  0  0  0  0  0  0
    8.1798  -15.6505   23.2674 C   0  0  0  0  0  0  0  0  0  0  0  0
    9.3785  -15.2768   23.4152 O   0  0  0  0  0  0  0  0  0  0  0  0
    7.6535  -11.4718   26.5174 C   0  0  0  0  0  0  0  0  0  0  0  0
    6.7321  -12.6505   26.9672 C   0  0  1  0  0  0  0  0  0  0  0  0
    5.4808  -11.9621   27.4642 C   0  0  0  0  0  0  0  0  0  0  0  0
    6.5801  -13.5605   25.8143 C   0  0  0  0  0  0  0  0  0  0  0  0
    7.6983  -14.4539   25.4542 C   0  0  2  0  0  0  0  0  0  0  0  0
    7.2707  -15.2962   24.2820 N   0  0  0  0  0  0  0  0  0  0  0  0
    8.2549  -15.3767   26.4103 C   0  0  0  0  0  0  0  0  0  0  0  0
    9.4910  -15.0980   27.0271 O   0  0  0  0  0  0  0  0  0  0  0  0
    7.7240  -16.4388   26.7574 O   0  0  0  0  0  0  0  0  0  0  0  0
  2  1  1  1
  2  3  1  0
  2  4  1  0
  4  5  2  0
  6  4  1  0
  6  7  1  0
  7 13  1  0
  7  8  1  1
  9  8  1  0
  9 10  1  0
 10 11  1  0
 11 12  1  0
 13 14  2  0
 16 15  1  6
 16 18  1  0
 17 16  1  0
 19 18  1  1
 19 21  1  0
 20 19  1  0
 20 13  1  0
 21 23  2  0
 21 22  1  0
M  END
$$$$
