AKL.pdb
     RDKit          3D

 23 22  0  0  1  0  0  0  0  0999 V2000
    8.2822  -12.3825   18.8631 C   0  0  0  0  0  0  0  0  0  0  0  0
    8.7648  -13.7945   18.4812 C   0  0  2  0  0  0  0  0  0  0  0  0
    7.9426  -14.1561   17.3349 N   0  0  0  0  0  0  0  0  0  0  0  0
    8.3825  -14.7201   19.5753 C   0  0  0  0  0  0  0  0  0  0  0  0
    7.6645  -15.7024   19.2427 O   0  0  0  0  0  0  0  0  0  0  0  0
    8.7822  -14.5485   20.9251 N   0  0  0  0  0  0  0  0  0  0  0  0
    8.6133  -15.6088   21.9119 C   0  0  1  0  0  0  0  0  0  0  0  0
    9.3494  -16.8067   21.3196 C   0  0  0  0  0  0  0  0  0  0  0  0
    9.2302  -18.0437   22.1403 C   0  0  0  0  0  0  0  0  0  0  0  0
    9.9405  -19.1963   21.4649 C   0  0  0  0  0  0  0  0  0  0  0  0
    9.7128  -20.5290   22.1369 C   0  0  0  0  0  0  0  0  0  0  0  0
   10.4081  -21.5713   21.4031 N   0  0  0  0  0  0  0  0  0  0  0  0
    9.0563  -15.2839   23.2508 C   0  0  0  0  0  0  0  0  0  0  0  0
   10.2714  -14.9995   23.4531 O   0  0  0  0  0  0  0  0  0  0  0  0
    5.8531  -11.4881   26.2756 C   0  0  0  0  0  0  0  0  0  0  0  0
    7.1829  -12.2763   26.5014 C   0  0  1  0  0  0  0  0  0  0  0  0
    7.1321  -12.6604   27.9631 C   0  0  0  0  0  0  0  0  0  0  0  0
    7.2164  -13.3809   25.5219 C   0  0  0  0  0  0  0  0  0  0  0  0
    8.3958  -14.2673   25.4816 C   0  0  2  0  0  0  0  0  0  0  0  0
    8.2007  -15.2618   24.3684 N   0  0  0  0  0  0  0  0  0  0  0  0
    8.7859  -15.0445   26.6301 C   0  0  0  0  0  0  0  0  0  0  0  0
    8.3342  -16.3717   26.7738 O   0  0  0  0  0  0  0  0  0  0  0  0
    9.5149  -14.6376   27.5429 O   0  0  0  0  0  0  0  0  0  0  0  0
  2  1  1  1
  2  3  1  0
  2  4  1  0
  4  5  2  0
  6  4  1  0
  6  7  1  0
  7 13  1  0
  7  8  1  6
  9  8  1  0
  9 10  1  0
 10 11  1  0
 11 12  1  0
 13 14  2  0
 16 15  1  6
 16 18  1  0
 17 16  1  0
 19 18  1  1
 19 21  1  0
 20 19  1  0
 20 13  1  0
 21 23  2  0
 21 22  1  0
M  END
$$$$
