AKL.pdb
     RDKit          3D

 23 22  0  0  1  0  0  0  0  0999 V2000
    6.7952  -19.1153   23.1645 C   0  0  0  0  0  0  0  0  0  0  0  0
    6.7743  -18.4419   21.7793 C   0  0  2  0  0  0  0  0  0  0  0  0
    7.4004  -19.4173   20.8975 N   0  0  0  0  0  0  0  0  0  0  0  0
    7.6888  -17.2750   21.8241 C   0  0  0  0  0  0  0  0  0  0  0  0
    8.9182  -17.5315   21.7064 O   0  0  0  0  0  0  0  0  0  0  0  0
    7.2477  -15.9369   21.9845 N   0  0  0  0  0  0  0  0  0  0  0  0
    8.1910  -14.8328   22.1170 C   0  0  1  0  0  0  0  0  0  0  0  0
    7.3975  -13.5970   21.7035 C   0  0  0  0  0  0  0  0  0  0  0  0
    7.0167  -13.5885   20.2637 C   0  0  0  0  0  0  0  0  0  0  0  0
    8.2163  -13.2611   19.4018 C   0  0  0  0  0  0  0  0  0  0  0  0
    7.9059  -13.1985   17.9255 C   0  0  0  0  0  0  0  0  0  0  0  0
    9.0970  -12.8097   17.1918 N   0  0  0  0  0  0  0  0  0  0  0  0
    8.8038  -14.6957   23.4209 C   0  0  0  0  0  0  0  0  0  0  0  0
    9.5839  -13.7262   23.6438 O   0  0  0  0  0  0  0  0  0  0  0  0
    6.0174  -12.3736   26.5193 C   0  0  0  0  0  0  0  0  0  0  0  0
    7.4108  -12.9051   26.0542 C   0  0  1  0  0  0  0  0  0  0  0  0
    8.3942  -12.1410   26.9121 C   0  0  0  0  0  0  0  0  0  0  0  0
    7.3977  -14.3743   26.2015 C   0  0  0  0  0  0  0  0  0  0  0  0
    8.6303  -15.1342   25.9156 C   0  0  2  0  0  0  0  0  0  0  0  0
    8.5802  -15.5927   24.4826 N   0  0  0  0  0  0  0  0  0  0  0  0
    8.9831  -16.3015   26.6826 C   0  0  0  0  0  0  0  0  0  0  0  0
    9.0760  -17.5599   26.0550 O   0  0  0  0  0  0  0  0  0  0  0  0
    9.2249  -16.3020   27.8958 O   0  0  0  0  0  0  0  0  0  0  0  0
  2  1  1  1
  2  3  1  0
  2  4  1  0
  4  5  2  0
  6  4  1  0
  6  7  1  0
  7 13  1  0
  7  8  1  1
  9  8  1  0
  9 10  1  0
 10 11  1  0
 11 12  1  0
 13 14  2  0
 16 15  1  1
 16 18  1  0
 17 16  1  0
 19 18  1  1
 19 21  1  0
 20 19  1  0
 20 13  1  0
 21 23  2  0
 21 22  1  0
M  END
$$$$
