AKL.pdb
     RDKit          3D

 23 22  0  0  1  0  0  0  0  0999 V2000
    8.6287  -12.2084   19.0614 C   0  0  0  0  0  0  0  0  0  0  0  0
    8.3663  -13.6820   18.6982 C   0  0  2  0  0  0  0  0  0  0  0  0
    7.1449  -13.6436   17.9061 N   0  0  0  0  0  0  0  0  0  0  0  0
    8.0291  -14.4080   19.9469 C   0  0  0  0  0  0  0  0  0  0  0  0
    6.8889  -14.1726   20.4323 O   0  0  0  0  0  0  0  0  0  0  0  0
    8.9056  -15.3217   20.5856 N   0  0  0  0  0  0  0  0  0  0  0  0
    8.5150  -16.0353   21.7958 C   0  0  1  0  0  0  0  0  0  0  0  0
    9.2636  -17.3625   21.7185 C   0  0  0  0  0  0  0  0  0  0  0  0
    8.7932  -18.2479   20.6172 C   0  0  0  0  0  0  0  0  0  0  0  0
    9.8361  -19.2975   20.3012 C   0  0  0  0  0  0  0  0  0  0  0  0
    9.4174  -20.2650   19.2204 C   0  0  0  0  0  0  0  0  0  0  0  0
   10.4662  -21.2470   19.0106 N   0  0  0  0  0  0  0  0  0  0  0  0
    8.7537  -15.3278   23.0355 C   0  0  0  0  0  0  0  0  0  0  0  0
    9.8634  -14.7508   23.2197 O   0  0  0  0  0  0  0  0  0  0  0  0
    8.2702  -11.7377   26.7466 C   0  0  0  0  0  0  0  0  0  0  0  0
    7.0865  -12.7503   26.8648 C   0  0  1  0  0  0  0  0  0  0  0  0
    5.8884  -11.8742   27.1540 C   0  0  0  0  0  0  0  0  0  0  0  0
    7.0506  -13.5396   25.6173 C   0  0  0  0  0  0  0  0  0  0  0  0
    8.1232  -14.5198   25.3583 C   0  0  2  0  0  0  0  0  0  0  0  0
    7.8067  -15.2368   24.0730 N   0  0  0  0  0  0  0  0  0  0  0  0
    8.4357  -15.5543   26.3109 C   0  0  0  0  0  0  0  0  0  0  0  0
    9.5903  -15.4535   27.1128 O   0  0  0  0  0  0  0  0  0  0  0  0
    7.7531  -16.5684   26.5006 O   0  0  0  0  0  0  0  0  0  0  0  0
  2  1  1  1
  2  3  1  0
  2  4  1  0
  4  5  2  0
  6  4  1  0
  6  7  1  0
  7 13  1  0
  7  8  1  1
  9  8  1  0
  9 10  1  0
 10 11  1  0
 11 12  1  0
 13 14  2  0
 16 15  1  6
 16 18  1  0
 17 16  1  0
 19 18  1  1
 19 21  1  0
 20 19  1  0
 20 13  1  0
 21 23  2  0
 21 22  1  0
M  END
$$$$
