PYG.pdb
     RDKit          3D

 24 25  0  0  1  0  0  0  0  0999 V2000
    8.0156  -15.6006   18.7602 N   0  0  0  0  0  0  0  0  0  0  0  0
    7.8244  -15.5239   17.3220 C   0  0  0  0  0  0  0  0  0  0  0  0
    7.6466  -14.0377   17.0662 C   0  0  0  0  0  0  0  0  0  0  0  0
    8.1410  -13.3458   18.3347 C   0  0  0  0  0  0  0  0  0  0  0  0
    8.8548  -14.4759   19.0296 C   0  0  1  0  0  0  0  0  0  0  0  0
    9.0194  -14.1751   20.4540 C   0  0  0  0  0  0  0  0  0  0  0  0
    9.8910  -13.3297   20.7841 O   0  0  0  0  0  0  0  0  0  0  0  0
    6.6617  -12.2664   28.7425 O   0  0  0  0  0  0  0  0  0  0  0  0
    6.7257  -12.7543   27.4336 C   0  0  0  0  0  0  0  0  0  0  0  0
    6.7518  -14.1110   27.1880 C   0  0  0  0  0  0  0  0  0  0  0  0
    6.8154  -14.6069   25.8882 C   0  0  0  0  0  0  0  0  0  0  0  0
    6.8548  -13.7655   24.7957 C   0  0  0  0  0  0  0  0  0  0  0  0
    6.9223  -14.3414   23.4281 C   0  0  0  0  0  0  0  0  0  0  0  0
    8.3283  -14.3014   22.8731 C   0  0  2  0  0  0  0  0  0  0  0  0
    8.2649  -14.7689   21.5028 N   0  0  0  0  0  0  0  0  0  0  0  0
    9.2478  -15.1424   23.6433 C   0  0  0  0  0  0  0  0  0  0  0  0
    9.6296  -14.7860   24.7788 O   0  0  0  0  0  0  0  0  0  0  0  0
    6.8284  -12.4100   25.0472 C   0  0  0  0  0  0  0  0  0  0  0  0
    6.7649  -11.9130   26.3435 C   0  0  0  0  0  0  0  0  0  0  0  0
    9.7549  -16.3931   23.1585 N   0  0  0  0  0  0  0  0  0  0  0  0
   10.5790  -17.2546   23.9459 C   0  0  0  0  0  0  0  0  0  0  0  0
    9.8066  -18.0494   24.9317 C   0  0  0  0  0  0  0  0  0  0  0  0
    9.5283  -19.2474   24.6830 O   0  0  0  0  0  0  0  0  0  0  0  0
    9.3703  -17.5227   26.1354 O   0  0  0  0  0  0  0  0  0  0  0  0
  1  5  1  0
  1  2  1  0
  2  3  1  0
  4  3  1  0
  5  4  1  0
  6  7  2  0
  5  6  1  1
  8  9  1  0
  9 19  2  0
  9 10  1  0
 10 11  2  0
 11 12  1  0
 12 13  1  0
 14 13  1  1
 14 15  1  0
 15  6  1  0
 16 14  1  0
 16 20  1  0
 17 16  2  0
 18 12  2  0
 19 18  1  0
 21 20  1  0
 21 22  1  0
 22 24  1  0
 23 22  2  0
M  END
$$$$
