PYG.pdb
     RDKit          3D

 24 25  0  0  1  0  0  0  0  0999 V2000
    7.5868  -15.1563   20.5158 N   0  0  0  0  0  0  0  0  0  0  0  0
    7.1114  -14.5637   19.2773 C   0  0  0  0  0  0  0  0  0  0  0  0
    7.2362  -13.0711   19.5271 C   0  0  0  0  0  0  0  0  0  0  0  0
    8.1423  -12.9387   20.7492 C   0  0  0  0  0  0  0  0  0  0  0  0
    8.7043  -14.3325   20.8537 C   0  0  1  0  0  0  0  0  0  0  0  0
    9.2401  -14.5664   22.1972 C   0  0  0  0  0  0  0  0  0  0  0  0
   10.3059  -13.9807   22.5202 O   0  0  0  0  0  0  0  0  0  0  0  0
    5.9356  -10.4475   26.5476 O   0  0  0  0  0  0  0  0  0  0  0  0
    6.4302  -11.7264   26.2738 C   0  0  0  0  0  0  0  0  0  0  0  0
    7.7094  -12.0816   26.6468 C   0  0  0  0  0  0  0  0  0  0  0  0
    8.2114  -13.3528   26.3787 C   0  0  0  0  0  0  0  0  0  0  0  0
    7.4534  -14.3065   25.7314 C   0  0  0  0  0  0  0  0  0  0  0  0
    8.0323  -15.6488   25.4676 C   0  0  0  0  0  0  0  0  0  0  0  0
    9.1957  -15.5767   24.5043 C   0  0  2  0  0  0  0  0  0  0  0  0
    8.6450  -15.4109   23.1741 N   0  0  0  0  0  0  0  0  0  0  0  0
   10.0251  -16.7831   24.5523 C   0  0  0  0  0  0  0  0  0  0  0  0
   10.5413  -17.1529   25.6289 O   0  0  0  0  0  0  0  0  0  0  0  0
    6.1751  -13.9457   25.3609 C   0  0  0  0  0  0  0  0  0  0  0  0
    5.6723  -12.6778   25.6274 C   0  0  0  0  0  0  0  0  0  0  0  0
   10.2910  -17.5949   23.4005 N   0  0  0  0  0  0  0  0  0  0  0  0
   10.9167  -18.8769   23.4816 C   0  0  0  0  0  0  0  0  0  0  0  0
   12.3614  -18.8360   23.1483 C   0  0  0  0  0  0  0  0  0  0  0  0
   12.9204  -17.7319   22.9407 O   0  0  0  0  0  0  0  0  0  0  0  0
   13.1368  -19.9791   23.0537 O   0  0  0  0  0  0  0  0  0  0  0  0
  1  5  1  0
  1  2  1  0
  2  3  1  0
  4  3  1  0
  5  4  1  0
  6  7  2  0
  5  6  1  1
  8  9  1  0
  9 19  2  0
  9 10  1  0
 10 11  2  0
 11 12  1  0
 12 13  1  0
 14 13  1  1
 14 15  1  0
 15  6  1  0
 16 14  1  0
 16 20  1  0
 17 16  2  0
 18 12  2  0
 19 18  1  0
 21 20  1  0
 21 22  1  0
 22 24  1  0
 23 22  2  0
M  END
$$$$
