PYG.pdb
     RDKit          3D

 24 25  0  0  1  0  0  0  0  0999 V2000
    8.2032  -15.1073   19.9432 N   0  0  0  0  0  0  0  0  0  0  0  0
    7.6587  -14.6555   18.6741 C   0  0  0  0  0  0  0  0  0  0  0  0
    7.0708  -13.2950   19.0043 C   0  0  0  0  0  0  0  0  0  0  0  0
    7.6735  -12.9092   20.3534 C   0  0  0  0  0  0  0  0  0  0  0  0
    8.7850  -13.9181   20.4807 C   0  0  1  0  0  0  0  0  0  0  0  0
    9.2099  -14.0343   21.8780 C   0  0  0  0  0  0  0  0  0  0  0  0
    9.3811  -12.9750   22.5353 O   0  0  0  0  0  0  0  0  0  0  0  0
    6.2547  -10.7259   27.2293 O   0  0  0  0  0  0  0  0  0  0  0  0
    6.5841  -11.8298   26.4367 C   0  0  0  0  0  0  0  0  0  0  0  0
    6.7163  -13.0837   26.9953 C   0  0  0  0  0  0  0  0  0  0  0  0
    7.0441  -14.1894   26.2145 C   0  0  0  0  0  0  0  0  0  0  0  0
    7.2494  -14.0778   24.8549 C   0  0  0  0  0  0  0  0  0  0  0  0
    7.5973  -15.2860   24.0638 C   0  0  0  0  0  0  0  0  0  0  0  0
    9.0940  -15.4664   23.9472 C   0  0  2  0  0  0  0  0  0  0  0  0
    9.4464  -15.2614   22.5565 N   0  0  0  0  0  0  0  0  0  0  0  0
    9.5225  -16.7995   24.3774 C   0  0  0  0  0  0  0  0  0  0  0  0
    9.2136  -17.2278   25.5102 O   0  0  0  0  0  0  0  0  0  0  0  0
    7.1159  -12.8217   24.3019 C   0  0  0  0  0  0  0  0  0  0  0  0
    6.7889  -11.7170   25.0792 C   0  0  0  0  0  0  0  0  0  0  0  0
   10.3017  -17.6745   23.5506 N   0  0  0  0  0  0  0  0  0  0  0  0
   10.8277  -18.9187   24.0161 C   0  0  0  0  0  0  0  0  0  0  0  0
   11.9636  -18.7501   24.9549 C   0  0  0  0  0  0  0  0  0  0  0  0
   11.7400  -18.6000   26.1805 O   0  0  0  0  0  0  0  0  0  0  0  0
   13.2831  -18.7503   24.5356 O   0  0  0  0  0  0  0  0  0  0  0  0
  1  5  1  0
  1  2  1  0
  2  3  1  0
  4  3  1  0
  5  4  1  0
  6  7  2  0
  5  6  1  1
  8  9  1  0
  9 19  2  0
  9 10  1  0
 10 11  2  0
 11 12  1  0
 12 13  1  0
 14 13  1  6
 14 15  1  0
 15  6  1  0
 16 14  1  0
 16 20  1  0
 17 16  2  0
 18 12  2  0
 19 18  1  0
 21 20  1  0
 21 22  1  0
 22 24  1  0
 23 22  2  0
M  END
$$$$
