PYG.pdb
     RDKit          3D

 24 25  0  0  1  0  0  0  0  0999 V2000
    7.5958  -15.1284   20.5236 N   0  0  0  0  0  0  0  0  0  0  0  0
    7.1509  -14.5492   19.2675 C   0  0  0  0  0  0  0  0  0  0  0  0
    7.3837  -13.0611   19.4605 C   0  0  0  0  0  0  0  0  0  0  0  0
    8.3095  -12.9489   20.6699 C   0  0  0  0  0  0  0  0  0  0  0  0
    8.7724  -14.3744   20.8219 C   0  0  1  0  0  0  0  0  0  0  0  0
    9.3040  -14.5965   22.1690 C   0  0  0  0  0  0  0  0  0  0  0  0
   10.3921  -14.0435   22.4751 O   0  0  0  0  0  0  0  0  0  0  0  0
    5.8070  -10.3766   26.7998 O   0  0  0  0  0  0  0  0  0  0  0  0
    6.3408  -11.6253   26.4662 C   0  0  0  0  0  0  0  0  0  0  0  0
    5.5189  -12.6605   26.0732 C   0  0  0  0  0  0  0  0  0  0  0  0
    6.0407  -13.9077   25.7389 C   0  0  0  0  0  0  0  0  0  0  0  0
    7.3963  -14.1594   25.7865 C   0  0  0  0  0  0  0  0  0  0  0  0
    7.9057  -15.5060   25.4207 C   0  0  0  0  0  0  0  0  0  0  0  0
    9.1345  -15.4199   24.5437 C   0  0  2  0  0  0  0  0  0  0  0  0
    8.6815  -15.3952   23.1673 N   0  0  0  0  0  0  0  0  0  0  0  0
   10.0378  -16.5545   24.7496 C   0  0  0  0  0  0  0  0  0  0  0  0
   10.4586  -16.8279   25.8943 O   0  0  0  0  0  0  0  0  0  0  0  0
    8.2132  -13.1207   26.1801 C   0  0  0  0  0  0  0  0  0  0  0  0
    7.6946  -11.8753   26.5141 C   0  0  0  0  0  0  0  0  0  0  0  0
   10.4850  -17.4010   23.6820 N   0  0  0  0  0  0  0  0  0  0  0  0
   11.2915  -18.5608   23.8962 C   0  0  0  0  0  0  0  0  0  0  0  0
   11.4991  -19.3556   22.6611 C   0  0  0  0  0  0  0  0  0  0  0  0
   11.0400  -18.9396   21.5699 O   0  0  0  0  0  0  0  0  0  0  0  0
   12.1879  -20.5565   22.6549 O   0  0  0  0  0  0  0  0  0  0  0  0
  1  5  1  0
  1  2  1  0
  2  3  1  0
  4  3  1  0
  5  4  1  0
  6  7  2  0
  5  6  1  1
  8  9  1  0
  9 19  2  0
  9 10  1  0
 10 11  2  0
 11 12  1  0
 12 13  1  0
 14 13  1  1
 14 15  1  0
 15  6  1  0
 16 14  1  0
 16 20  1  0
 17 16  2  0
 18 12  2  0
 19 18  1  0
 21 20  1  0
 21 22  1  0
 22 24  1  0
 23 22  2  0
M  END
$$$$
