PYG.pdb
     RDKit          3D

 24 25  0  0  1  0  0  0  0  0999 V2000
    7.4419  -15.2261   20.6793 N   0  0  0  0  0  0  0  0  0  0  0  0
    6.9106  -14.6278   19.4665 C   0  0  0  0  0  0  0  0  0  0  0  0
    7.1507  -13.1422   19.6688 C   0  0  0  0  0  0  0  0  0  0  0  0
    8.1561  -13.0461   20.8142 C   0  0  0  0  0  0  0  0  0  0  0  0
    8.6333  -14.4718   20.9100 C   0  0  1  0  0  0  0  0  0  0  0  0
    9.2560  -14.7141   22.2138 C   0  0  0  0  0  0  0  0  0  0  0  0
   10.3555  -14.1531   22.4586 O   0  0  0  0  0  0  0  0  0  0  0  0
    5.7383  -10.6016   26.4605 O   0  0  0  0  0  0  0  0  0  0  0  0
    6.3484  -11.8403   26.2397 C   0  0  0  0  0  0  0  0  0  0  0  0
    5.5902  -12.9631   25.9827 C   0  0  0  0  0  0  0  0  0  0  0  0
    6.1881  -14.2013   25.7614 C   0  0  0  0  0  0  0  0  0  0  0  0
    7.5587  -14.3565   25.7899 C   0  0  0  0  0  0  0  0  0  0  0  0
    8.1504  -15.6973   25.5479 C   0  0  0  0  0  0  0  0  0  0  0  0
    9.2921  -15.6346   24.5584 C   0  0  2  0  0  0  0  0  0  0  0  0
    8.7109  -15.5409   23.2341 N   0  0  0  0  0  0  0  0  0  0  0  0
   10.1560  -16.8147   24.6399 C   0  0  0  0  0  0  0  0  0  0  0  0
   10.7228  -17.1102   25.7140 O   0  0  0  0  0  0  0  0  0  0  0  0
    8.3117  -13.2304   26.0473 C   0  0  0  0  0  0  0  0  0  0  0  0
    7.7170  -11.9939   26.2683 C   0  0  0  0  0  0  0  0  0  0  0  0
   10.4006  -17.6826   23.5249 N   0  0  0  0  0  0  0  0  0  0  0  0
   11.1100  -18.9172   23.6426 C   0  0  0  0  0  0  0  0  0  0  0  0
   12.5444  -18.7948   23.2853 C   0  0  0  0  0  0  0  0  0  0  0  0
   13.0890  -17.6644   23.2784 O   0  0  0  0  0  0  0  0  0  0  0  0
   13.3254  -19.8887   22.9531 O   0  0  0  0  0  0  0  0  0  0  0  0
  1  5  1  0
  1  2  1  0
  2  3  1  0
  4  3  1  0
  5  4  1  0
  6  7  2  0
  5  6  1  1
  8  9  1  0
  9 19  2  0
  9 10  1  0
 10 11  2  0
 11 12  1  0
 12 13  1  0
 14 13  1  1
 14 15  1  0
 15  6  1  0
 16 14  1  0
 16 20  1  0
 17 16  2  0
 18 12  2  0
 19 18  1  0
 21 20  1  0
 21 22  1  0
 22 24  1  0
 23 22  2  0
M  END
$$$$
