PYG.pdb
     RDKit          3D

 24 25  0  0  1  0  0  0  0  0999 V2000
    7.1405  -15.1353   20.3098 N   0  0  0  0  0  0  0  0  0  0  0  0
    6.5418  -14.6982   19.0602 C   0  0  0  0  0  0  0  0  0  0  0  0
    6.9616  -13.2427   18.9555 C   0  0  0  0  0  0  0  0  0  0  0  0
    8.0955  -13.0740   19.9644 C   0  0  0  0  0  0  0  0  0  0  0  0
    8.4245  -14.5091   20.2830 C   0  0  1  0  0  0  0  0  0  0  0  0
    9.1622  -14.5943   21.5460 C   0  0  0  0  0  0  0  0  0  0  0  0
   10.3818  -14.2845   21.5418 O   0  0  0  0  0  0  0  0  0  0  0  0
   10.8809  -14.7699   30.2681 O   0  0  0  0  0  0  0  0  0  0  0  0
   10.2578  -14.8344   29.0178 C   0  0  0  0  0  0  0  0  0  0  0  0
    9.9465  -13.6830   28.3258 C   0  0  0  0  0  0  0  0  0  0  0  0
    9.3260  -13.7365   27.0801 C   0  0  0  0  0  0  0  0  0  0  0  0
    8.9979  -14.9386   26.4881 C   0  0  0  0  0  0  0  0  0  0  0  0
    8.3367  -14.9451   25.1580 C   0  0  0  0  0  0  0  0  0  0  0  0
    9.3456  -14.9586   24.0318 C   0  0  2  0  0  0  0  0  0  0  0  0
    8.6034  -15.0034   22.7879 N   0  0  0  0  0  0  0  0  0  0  0  0
   10.2471  -16.1102   24.1148 C   0  0  0  0  0  0  0  0  0  0  0  0
   11.3809  -15.9899   24.6269 O   0  0  0  0  0  0  0  0  0  0  0  0
    9.3115  -16.0866   27.1847 C   0  0  0  0  0  0  0  0  0  0  0  0
    9.9307  -16.0354   28.4279 C   0  0  0  0  0  0  0  0  0  0  0  0
    9.8974  -17.4129   23.6279 N   0  0  0  0  0  0  0  0  0  0  0  0
   10.7479  -18.5514   23.7760 C   0  0  0  0  0  0  0  0  0  0  0  0
   10.8060  -19.0507   25.1715 C   0  0  0  0  0  0  0  0  0  0  0  0
   11.7953  -18.7711   25.8910 O   0  0  0  0  0  0  0  0  0  0  0  0
    9.8022  -19.8248   25.7282 O   0  0  0  0  0  0  0  0  0  0  0  0
  1  5  1  0
  1  2  1  0
  2  3  1  0
  4  3  1  0
  5  4  1  0
  6  7  2  0
  5  6  1  1
  8  9  1  0
  9 19  2  0
  9 10  1  0
 10 11  2  0
 11 12  1  0
 12 13  1  0
 14 13  1  1
 14 15  1  0
 15  6  1  0
 16 14  1  0
 16 20  1  0
 17 16  2  0
 18 12  2  0
 19 18  1  0
 21 20  1  0
 21 22  1  0
 22 24  1  0
 23 22  2  0
M  END
$$$$
