PYG.pdb
     RDKit          3D

 24 25  0  0  1  0  0  0  0  0999 V2000
    8.0371  -15.4312   18.6130 N   0  0  0  0  0  0  0  0  0  0  0  0
    7.8814  -15.2788   17.1764 C   0  0  0  0  0  0  0  0  0  0  0  0
    7.7668  -13.7763   16.9892 C   0  0  0  0  0  0  0  0  0  0  0  0
    8.2588  -13.1656   18.2996 C   0  0  0  0  0  0  0  0  0  0  0  0
    8.9127  -14.3547   18.9536 C   0  0  1  0  0  0  0  0  0  0  0  0
    9.0568  -14.1287   20.3939 C   0  0  0  0  0  0  0  0  0  0  0  0
   10.0208  -13.4234   20.7895 O   0  0  0  0  0  0  0  0  0  0  0  0
    6.7352  -11.9294   28.5650 O   0  0  0  0  0  0  0  0  0  0  0  0
    6.7595  -12.4903   27.2843 C   0  0  0  0  0  0  0  0  0  0  0  0
    6.9797  -11.7024   26.1742 C   0  0  0  0  0  0  0  0  0  0  0  0
    7.0057  -12.2514   24.8946 C   0  0  0  0  0  0  0  0  0  0  0  0
    6.8132  -13.6011   24.6841 C   0  0  0  0  0  0  0  0  0  0  0  0
    6.8498  -14.1404   23.3005 C   0  0  0  0  0  0  0  0  0  0  0  0
    8.2656  -14.2553   22.7822 C   0  0  2  0  0  0  0  0  0  0  0  0
    8.1849  -14.6485   21.3897 N   0  0  0  0  0  0  0  0  0  0  0  0
    9.0477  -15.2407   23.5325 C   0  0  0  0  0  0  0  0  0  0  0  0
    9.2119  -15.1117   24.7649 O   0  0  0  0  0  0  0  0  0  0  0  0
    6.5934  -14.3841   25.7977 C   0  0  0  0  0  0  0  0  0  0  0  0
    6.5671  -13.8382   27.0755 C   0  0  0  0  0  0  0  0  0  0  0  0
    9.6582  -16.3844   22.9197 N   0  0  0  0  0  0  0  0  0  0  0  0
   10.4386  -17.3328   23.6498 C   0  0  0  0  0  0  0  0  0  0  0  0
   10.8929  -18.4713   22.8145 C   0  0  0  0  0  0  0  0  0  0  0  0
   11.3127  -19.5177   23.3654 O   0  0  0  0  0  0  0  0  0  0  0  0
   10.8754  -18.4337   21.4307 O   0  0  0  0  0  0  0  0  0  0  0  0
  1  5  1  0
  1  2  1  0
  2  3  1  0
  4  3  1  0
  5  4  1  0
  6  7  2  0
  5  6  1  1
  8  9  1  0
  9 19  2  0
  9 10  1  0
 10 11  2  0
 11 12  1  0
 12 13  1  0
 14 13  1  1
 14 15  1  0
 15  6  1  0
 16 14  1  0
 16 20  1  0
 17 16  2  0
 18 12  2  0
 19 18  1  0
 21 20  1  0
 21 22  1  0
 22 24  1  0
 23 22  2  0
M  END
$$$$
