PYG.pdb
     RDKit          3D

 24 25  0  0  1  0  0  0  0  0999 V2000
    8.5913  -13.3190   20.1949 N   0  0  0  0  0  0  0  0  0  0  0  0
    8.1540  -13.0253   18.8408 C   0  0  0  0  0  0  0  0  0  0  0  0
    7.4083  -14.2820   18.4281 C   0  0  0  0  0  0  0  0  0  0  0  0
    7.1452  -15.0424   19.7260 C   0  0  0  0  0  0  0  0  0  0  0  0
    7.4605  -13.9888   20.7557 C   0  0  1  0  0  0  0  0  0  0  0  0
    7.7136  -14.6094   22.0585 C   0  0  0  0  0  0  0  0  0  0  0  0
    6.8152  -15.3398   22.5513 O   0  0  0  0  0  0  0  0  0  0  0  0
    5.8610  -10.4734   27.3709 O   0  0  0  0  0  0  0  0  0  0  0  0
    6.3018  -11.6214   26.7052 C   0  0  0  0  0  0  0  0  0  0  0  0
    6.8993  -12.6524   27.3993 C   0  0  0  0  0  0  0  0  0  0  0  0
    7.3417  -13.7998   26.7457 C   0  0  0  0  0  0  0  0  0  0  0  0
    7.2014  -13.9532   25.3818 C   0  0  0  0  0  0  0  0  0  0  0  0
    7.6889  -15.1954   24.7293 C   0  0  0  0  0  0  0  0  0  0  0  0
    9.0704  -15.0137   24.1421 C   0  0  2  0  0  0  0  0  0  0  0  0
    8.9056  -14.4499   22.8172 N   0  0  0  0  0  0  0  0  0  0  0  0
    9.8025  -16.2795   24.0562 C   0  0  0  0  0  0  0  0  0  0  0  0
   10.0390  -16.9442   25.0879 O   0  0  0  0  0  0  0  0  0  0  0  0
    6.6032  -12.9192   24.6931 C   0  0  0  0  0  0  0  0  0  0  0  0
    6.1611  -11.7733   25.3434 C   0  0  0  0  0  0  0  0  0  0  0  0
   10.2815  -16.8228   22.8186 N   0  0  0  0  0  0  0  0  0  0  0  0
   11.0031  -18.0534   22.7382 C   0  0  0  0  0  0  0  0  0  0  0  0
   12.4733  -17.8650   22.7931 C   0  0  0  0  0  0  0  0  0  0  0  0
   13.1847  -18.2423   21.8308 O   0  0  0  0  0  0  0  0  0  0  0  0
   13.1098  -17.2819   23.8756 O   0  0  0  0  0  0  0  0  0  0  0  0
  1  5  1  0
  1  2  1  0
  2  3  1  0
  4  3  1  0
  5  4  1  0
  6  7  2  0
  5  6  1  1
  8  9  1  0
  9 19  2  0
  9 10  1  0
 10 11  2  0
 11 12  1  0
 12 13  1  0
 14 13  1  6
 14 15  1  0
 15  6  1  0
 16 14  1  0
 16 20  1  0
 17 16  2  0
 18 12  2  0
 19 18  1  0
 21 20  1  0
 21 22  1  0
 22 24  1  0
 23 22  2  0
M  END
$$$$
