PYG.pdb
     RDKit          3D

 24 25  0  0  1  0  0  0  0  0999 V2000
    7.8332  -15.2664   18.6500 N   0  0  0  0  0  0  0  0  0  0  0  0
    7.7201  -15.0892   17.2123 C   0  0  0  0  0  0  0  0  0  0  0  0
    7.8912  -13.5921   17.0246 C   0  0  0  0  0  0  0  0  0  0  0  0
    8.4789  -13.0830   18.3389 C   0  0  0  0  0  0  0  0  0  0  0  0
    8.8928  -14.3730   18.9977 C   0  0  1  0  0  0  0  0  0  0  0  0
    9.0655  -14.1764   20.4392 C   0  0  0  0  0  0  0  0  0  0  0  0
   10.0669  -13.5236   20.8323 O   0  0  0  0  0  0  0  0  0  0  0  0
    6.9107  -12.1277   28.7170 O   0  0  0  0  0  0  0  0  0  0  0  0
    6.8953  -12.6110   27.4049 C   0  0  0  0  0  0  0  0  0  0  0  0
    7.3127  -11.8176   26.3571 C   0  0  0  0  0  0  0  0  0  0  0  0
    7.3012  -12.2895   25.0468 C   0  0  0  0  0  0  0  0  0  0  0  0
    6.8735  -13.5654   24.7428 C   0  0  0  0  0  0  0  0  0  0  0  0
    6.8794  -14.0240   23.3300 C   0  0  0  0  0  0  0  0  0  0  0  0
    8.2834  -14.2821   22.8315 C   0  0  2  0  0  0  0  0  0  0  0  0
    8.1825  -14.6696   21.4387 N   0  0  0  0  0  0  0  0  0  0  0  0
    8.9523  -15.3387   23.5943 C   0  0  0  0  0  0  0  0  0  0  0  0
    9.1054  -15.2263   24.8297 O   0  0  0  0  0  0  0  0  0  0  0  0
    6.4573  -14.3541   25.7945 C   0  0  0  0  0  0  0  0  0  0  0  0
    6.4680  -13.8851   27.1027 C   0  0  0  0  0  0  0  0  0  0  0  0
    9.4603  -16.5362   22.9908 N   0  0  0  0  0  0  0  0  0  0  0  0
   10.0550  -17.5941   23.7449 C   0  0  0  0  0  0  0  0  0  0  0  0
   11.4664  -17.3201   24.1096 C   0  0  0  0  0  0  0  0  0  0  0  0
   11.7537  -17.0068   25.2902 O   0  0  0  0  0  0  0  0  0  0  0  0
   12.5009  -17.3950   23.1925 O   0  0  0  0  0  0  0  0  0  0  0  0
  1  5  1  0
  1  2  1  0
  2  3  1  0
  4  3  1  0
  5  4  1  0
  6  7  2  0
  5  6  1  1
  8  9  1  0
  9 19  2  0
  9 10  1  0
 10 11  2  0
 11 12  1  0
 12 13  1  0
 14 13  1  1
 14 15  1  0
 15  6  1  0
 16 14  1  0
 16 20  1  0
 17 16  2  0
 18 12  2  0
 19 18  1  0
 21 20  1  0
 21 22  1  0
 22 24  1  0
 23 22  2  0
M  END
$$$$
