PYG.pdb
     RDKit          3D

 24 25  0  0  1  0  0  0  0  0999 V2000
    7.9236  -15.6353   18.7586 N   0  0  0  0  0  0  0  0  0  0  0  0
    7.7551  -15.5624   17.3173 C   0  0  0  0  0  0  0  0  0  0  0  0
    7.7857  -14.0714   17.0312 C   0  0  0  0  0  0  0  0  0  0  0  0
    8.3616  -13.4284   18.2910 C   0  0  0  0  0  0  0  0  0  0  0  0
    8.9079  -14.6316   19.0145 C   0  0  1  0  0  0  0  0  0  0  0  0
    9.1022  -14.3273   20.4344 C   0  0  0  0  0  0  0  0  0  0  0  0
   10.0265  -13.5337   20.7492 O   0  0  0  0  0  0  0  0  0  0  0  0
    7.0310  -11.9340   28.6265 O   0  0  0  0  0  0  0  0  0  0  0  0
    7.0455  -12.5502   27.3713 C   0  0  0  0  0  0  0  0  0  0  0  0
    6.7081  -11.8439   26.2360 C   0  0  0  0  0  0  0  0  0  0  0  0
    6.7194  -12.4484   24.9814 C   0  0  0  0  0  0  0  0  0  0  0  0
    7.0672  -13.7738   24.8218 C   0  0  0  0  0  0  0  0  0  0  0  0
    7.0646  -14.3746   23.4633 C   0  0  0  0  0  0  0  0  0  0  0  0
    8.4535  -14.4155   22.8670 C   0  0  2  0  0  0  0  0  0  0  0  0
    8.3212  -14.8632   21.4950 N   0  0  0  0  0  0  0  0  0  0  0  0
    9.3412  -15.3198   23.6018 C   0  0  0  0  0  0  0  0  0  0  0  0
    9.5988  -15.1116   24.8070 O   0  0  0  0  0  0  0  0  0  0  0  0
    7.4037  -14.4750   25.9605 C   0  0  0  0  0  0  0  0  0  0  0  0
    7.3930  -13.8737   27.2134 C   0  0  0  0  0  0  0  0  0  0  0  0
    9.9545  -16.4697   23.0035 N   0  0  0  0  0  0  0  0  0  0  0  0
   10.8150  -17.3541   23.7237 C   0  0  0  0  0  0  0  0  0  0  0  0
   10.2530  -18.7197   23.8631 C   0  0  0  0  0  0  0  0  0  0  0  0
    9.0986  -18.8720   24.3307 O   0  0  0  0  0  0  0  0  0  0  0  0
   10.9544  -19.8552   23.4949 O   0  0  0  0  0  0  0  0  0  0  0  0
  1  5  1  0
  1  2  1  0
  2  3  1  0
  4  3  1  0
  5  4  1  0
  6  7  2  0
  5  6  1  1
  8  9  1  0
  9 19  2  0
  9 10  1  0
 10 11  2  0
 11 12  1  0
 12 13  1  0
 14 13  1  1
 14 15  1  0
 15  6  1  0
 16 14  1  0
 16 20  1  0
 17 16  2  0
 18 12  2  0
 19 18  1  0
 21 20  1  0
 21 22  1  0
 22 24  1  0
 23 22  2  0
M  END
$$$$
