QKT.pdb
     RDKit          3D

 26 25  0  0  1  0  0  0  0  0999 V2000
   23.9404  -11.3486  -21.4898 N   0  0  0  0  0  0  0  0  0  0  0  0
   24.3793  -12.2502  -20.4466 C   0  0  0  0  0  0  0  0  0  0  0  0
   25.1081  -13.1888  -20.8027 O   0  0  0  0  0  0  0  0  0  0  0  0
   23.9339  -11.9977  -19.0669 C   0  0  0  0  0  0  0  0  0  0  0  0
   23.1080  -10.7934  -18.8375 C   0  0  0  0  0  0  0  0  0  0  0  0
   21.7398  -11.0070  -18.2734 C   0  0  2  0  0  0  0  0  0  0  0  0
   20.9924  -11.7985  -19.1981 N   0  0  0  0  0  0  0  0  0  0  0  0
   21.0717   -9.8728  -17.6549 C   0  0  0  0  0  0  0  0  0  0  0  0
   20.7952   -8.8692  -18.4059 O   0  0  0  0  0  0  0  0  0  0  0  0
   20.6822   -9.7352  -16.2816 N   0  0  0  0  0  0  0  0  0  0  0  0
   19.9356   -8.5616  -15.8819 C   0  0  1  0  0  0  0  0  0  0  0  0
   18.5969   -8.8072  -15.2893 C   0  0  0  0  0  0  0  0  0  0  0  0
   17.7598   -7.7030  -14.8273 C   0  0  0  0  0  0  0  0  0  0  0  0
   16.9389   -6.9296  -15.7934 C   0  0  0  0  0  0  0  0  0  0  0  0
   16.1138   -5.8616  -15.0128 C   0  0  0  0  0  0  0  0  0  0  0  0
   15.0023   -6.5080  -14.3410 N   0  0  0  0  0  0  0  0  0  0  0  0
   20.7871   -7.7607  -14.9186 C   0  0  0  0  0  0  0  0  0  0  0  0
   21.0895   -8.2734  -13.8287 O   0  0  0  0  0  0  0  0  0  0  0  0
   24.0092   -5.8431  -15.9878 C   0  0  0  0  0  0  0  0  0  0  0  0
   22.9995   -4.8261  -15.4650 C   0  0  1  0  0  0  0  0  0  0  0  0
   22.2691   -4.4522  -16.6286 O   0  0  0  0  0  0  0  0  0  0  0  0
   21.9982   -5.5369  -14.5496 C   0  0  2  0  0  0  0  0  0  0  0  0
   21.2026   -6.4953  -15.2742 N   0  0  0  0  0  0  0  0  0  0  0  0
   21.1122   -4.5515  -13.9522 C   0  0  0  0  0  0  0  0  0  0  0  0
   19.7683   -4.5204  -14.2513 O   0  0  0  0  0  0  0  0  0  0  0  0
   21.5442   -3.6915  -13.1490 O   0  0  0  0  0  0  0  0  0  0  0  0
  1  2  1  0
  2  3  2  0
  4  5  1  0
  4  2  1  0
  5  6  1  0
  6  7  1  6
  8  9  2  0
  8  6  1  0
 10  8  1  0
 11 10  1  0
 11 12  1  1
 12 13  1  0
 13 14  1  0
 14 15  1  0
 15 16  1  0
 17 11  1  0
 18 17  2  0
 20 19  1  6
 20 22  1  0
 20 21  1  0
 22 23  1  6
 23 17  1  0
 24 25  1  0
 24 22  1  0
 26 24  2  0
M  END
$$$$
