QKT.pdb
     RDKit          3D

 26 25  0  0  1  0  0  0  0  0999 V2000
   31.2915  -21.4824  -10.9279 N   0  0  0  0  0  0  0  0  0  0  0  0
   31.2291  -21.7370   -9.5048 C   0  0  0  0  0  0  0  0  0  0  0  0
   32.2239  -22.2796   -9.0000 O   0  0  0  0  0  0  0  0  0  0  0  0
   30.0124  -21.3474   -8.7743 C   0  0  0  0  0  0  0  0  0  0  0  0
   28.9710  -20.6291   -9.5389 C   0  0  0  0  0  0  0  0  0  0  0  0
   28.2321  -21.4108  -10.5775 C   0  0  2  0  0  0  0  0  0  0  0  0
   29.1468  -22.3231  -11.1868 N   0  0  0  0  0  0  0  0  0  0  0  0
   27.3096  -20.6938  -11.4436 C   0  0  0  0  0  0  0  0  0  0  0  0
   26.4590  -19.9130  -10.8827 O   0  0  0  0  0  0  0  0  0  0  0  0
   27.2300  -20.7588  -12.8741 N   0  0  0  0  0  0  0  0  0  0  0  0
   26.2796  -19.9096  -13.5598 C   0  0  1  0  0  0  0  0  0  0  0  0
   26.7493  -19.2875  -14.8230 C   0  0  0  0  0  0  0  0  0  0  0  0
   25.8608  -18.4602  -15.6351 C   0  0  0  0  0  0  0  0  0  0  0  0
   26.3101  -17.9501  -16.9554 C   0  0  0  0  0  0  0  0  0  0  0  0
   25.2190  -16.9929  -17.5245 C   0  0  0  0  0  0  0  0  0  0  0  0
   25.5927  -16.5785  -18.8636 N   0  0  0  0  0  0  0  0  0  0  0  0
   25.0219  -20.7136  -13.8172 C   0  0  0  0  0  0  0  0  0  0  0  0
   25.1367  -21.8620  -14.2753 O   0  0  0  0  0  0  0  0  0  0  0  0
   22.4196  -21.3176  -11.2045 C   0  0  0  0  0  0  0  0  0  0  0  0
   21.6981  -20.5540  -12.3106 C   0  0  1  0  0  0  0  0  0  0  0  0
   21.8570  -19.1903  -11.9334 O   0  0  0  0  0  0  0  0  0  0  0  0
   22.4703  -20.7208  -13.6227 C   0  0  2  0  0  0  0  0  0  0  0  0
   23.7930  -20.1553  -13.5369 N   0  0  0  0  0  0  0  0  0  0  0  0
   21.7464  -20.0544  -14.6926 C   0  0  0  0  0  0  0  0  0  0  0  0
   20.4727  -20.4408  -15.0460 O   0  0  0  0  0  0  0  0  0  0  0  0
   22.2612  -19.1088  -15.3348 O   0  0  0  0  0  0  0  0  0  0  0  0
  1  2  1  0
  2  3  2  0
  4  5  1  0
  4  2  1  0
  5  6  1  0
  6  7  1  6
  8  9  2  0
  8  6  1  0
 10  8  1  0
 11 10  1  0
 11 12  1  6
 12 13  1  0
 13 14  1  0
 14 15  1  0
 15 16  1  0
 17 11  1  0
 18 17  2  0
 20 19  1  1
 20 22  1  0
 20 21  1  0
 22 23  1  1
 23 17  1  0
 24 25  1  0
 24 22  1  0
 26 24  2  0
M  END
$$$$
