QKT.pdb
     RDKit          3D

 26 25  0  0  1  0  0  0  0  0999 V2000
   18.3412  -16.3453  -16.7478 N   0  0  0  0  0  0  0  0  0  0  0  0
   18.5510  -16.6005  -18.1566 C   0  0  0  0  0  0  0  0  0  0  0  0
   18.5866  -17.7922  -18.4993 O   0  0  0  0  0  0  0  0  0  0  0  0
   18.7101  -15.4516  -19.0624 C   0  0  0  0  0  0  0  0  0  0  0  0
   18.5654  -14.1048  -18.4709 C   0  0  0  0  0  0  0  0  0  0  0  0
   19.5432  -13.0625  -18.9105 C   0  0  2  0  0  0  0  0  0  0  0  0
   20.3015  -13.5904  -19.9997 N   0  0  0  0  0  0  0  0  0  0  0  0
   20.2562  -12.3190  -17.8837 C   0  0  0  0  0  0  0  0  0  0  0  0
   19.5817  -11.9228  -16.8660 O   0  0  0  0  0  0  0  0  0  0  0  0
   21.6456  -11.9637  -17.8731 N   0  0  0  0  0  0  0  0  0  0  0  0
   22.2173  -11.4175  -16.6609 C   0  0  1  0  0  0  0  0  0  0  0  0
   23.5578  -11.9291  -16.2806 C   0  0  0  0  0  0  0  0  0  0  0  0
   23.8075  -13.3606  -16.1328 C   0  0  0  0  0  0  0  0  0  0  0  0
   25.1674  -13.8537  -15.7970 C   0  0  0  0  0  0  0  0  0  0  0  0
   25.1540  -15.4127  -15.8004 C   0  0  0  0  0  0  0  0  0  0  0  0
   26.4671  -15.9066  -15.4310 N   0  0  0  0  0  0  0  0  0  0  0  0
   22.2587   -9.9090  -16.7917 C   0  0  0  0  0  0  0  0  0  0  0  0
   22.9047   -9.4136  -17.7293 O   0  0  0  0  0  0  0  0  0  0  0  0
   20.0818   -7.5860  -17.8370 C   0  0  0  0  0  0  0  0  0  0  0  0
   20.1522   -7.1913  -16.3652 C   0  0  1  0  0  0  0  0  0  0  0  0
   19.1244   -7.9697  -15.7611 O   0  0  0  0  0  0  0  0  0  0  0  0
   21.4694   -7.6991  -15.7711 C   0  0  2  0  0  0  0  0  0  0  0  0
   21.5825   -9.1319  -15.8756 N   0  0  0  0  0  0  0  0  0  0  0  0
   21.5369   -7.3268  -14.3676 C   0  0  0  0  0  0  0  0  0  0  0  0
   21.5512   -6.0067  -13.9756 O   0  0  0  0  0  0  0  0  0  0  0  0
   21.5917   -8.1965  -13.4666 O   0  0  0  0  0  0  0  0  0  0  0  0
  1  2  1  0
  2  3  2  0
  4  5  1  0
  4  2  1  0
  5  6  1  0
  6  7  1  6
  8  9  2  0
  8  6  1  0
 10  8  1  0
 11 10  1  0
 11 12  1  6
 12 13  1  0
 13 14  1  0
 14 15  1  0
 15 16  1  0
 17 11  1  0
 18 17  2  0
 20 19  1  6
 20 22  1  0
 20 21  1  0
 22 23  1  1
 23 17  1  0
 24 25  1  0
 24 22  1  0
 26 24  2  0
M  END
$$$$
