QKT.pdb
     RDKit          3D

 26 25  0  0  1  0  0  0  0  0999 V2000
   14.8444  -10.5820  -13.4091 N   0  0  0  0  0  0  0  0  0  0  0  0
   14.8363  -11.5247  -14.5069 C   0  0  0  0  0  0  0  0  0  0  0  0
   13.8304  -12.2439  -14.6057 O   0  0  0  0  0  0  0  0  0  0  0  0
   16.0010  -11.5662  -15.4056 C   0  0  0  0  0  0  0  0  0  0  0  0
   17.1417  -10.6890  -15.0677 C   0  0  0  0  0  0  0  0  0  0  0  0
   18.3228  -10.7295  -15.9837 C   0  0  2  0  0  0  0  0  0  0  0  0
   19.0864  -11.8974  -15.6789 N   0  0  0  0  0  0  0  0  0  0  0  0
   19.0442   -9.4895  -16.2227 C   0  0  0  0  0  0  0  0  0  0  0  0
   20.2438   -9.4084  -15.7733 O   0  0  0  0  0  0  0  0  0  0  0  0
   18.5671   -8.3231  -16.9073 N   0  0  0  0  0  0  0  0  0  0  0  0
   19.4689   -7.2072  -17.0972 C   0  0  1  0  0  0  0  0  0  0  0  0
   19.2537   -6.3916  -18.3186 C   0  0  0  0  0  0  0  0  0  0  0  0
   20.0801   -5.2210  -18.6022 C   0  0  0  0  0  0  0  0  0  0  0  0
   21.3198   -5.3562  -19.4084 C   0  0  0  0  0  0  0  0  0  0  0  0
   21.9541   -3.9449  -19.5992 C   0  0  0  0  0  0  0  0  0  0  0  0
   23.1080   -4.0492  -20.4722 N   0  0  0  0  0  0  0  0  0  0  0  0
   19.3994   -6.3243  -15.8684 C   0  0  0  0  0  0  0  0  0  0  0  0
   18.2870   -6.0952  -15.3662 O   0  0  0  0  0  0  0  0  0  0  0  0
   20.8094   -6.8394  -12.6072 C   0  0  0  0  0  0  0  0  0  0  0  0
   21.5791   -5.6220  -13.1098 C   0  0  1  0  0  0  0  0  0  0  0  0
   22.7150   -6.1882  -13.7550 O   0  0  0  0  0  0  0  0  0  0  0  0
   20.7679   -4.9344  -14.2120 C   0  0  2  0  0  0  0  0  0  0  0  0
   20.5627   -5.8040  -15.3425 N   0  0  0  0  0  0  0  0  0  0  0  0
   21.4775   -3.7473  -14.6592 C   0  0  0  0  0  0  0  0  0  0  0  0
   21.6963   -2.6816  -13.8148 O   0  0  0  0  0  0  0  0  0  0  0  0
   21.9083   -3.6512  -15.8325 O   0  0  0  0  0  0  0  0  0  0  0  0
  1  2  1  0
  2  3  2  0
  4  5  1  0
  4  2  1  0
  5  6  1  0
  6  7  1  1
  8  9  2  0
  8  6  1  0
 10  8  1  0
 11 10  1  0
 11 12  1  6
 12 13  1  0
 13 14  1  0
 14 15  1  0
 15 16  1  0
 17 11  1  0
 18 17  2  0
 20 19  1  6
 20 22  1  0
 20 21  1  0
 22 23  1  6
 23 17  1  0
 24 25  1  0
 24 22  1  0
 26 24  2  0
M  END
$$$$
