QKT.pdb
     RDKit          3D

 26 25  0  0  1  0  0  0  0  0999 V2000
   21.3898  -19.0537   -9.7026 N   0  0  0  0  0  0  0  0  0  0  0  0
   20.3914  -20.0932   -9.8316 C   0  0  0  0  0  0  0  0  0  0  0  0
   19.5417  -20.1534   -8.9297 O   0  0  0  0  0  0  0  0  0  0  0  0
   20.4577  -20.9900  -10.9965 C   0  0  0  0  0  0  0  0  0  0  0  0
   21.5827  -20.7909  -11.9344 C   0  0  0  0  0  0  0  0  0  0  0  0
   21.2358  -20.4134  -13.3389 C   0  0  2  0  0  0  0  0  0  0  0  0
   20.6725  -21.5564  -13.9841 N   0  0  0  0  0  0  0  0  0  0  0  0
   22.1929  -19.6139  -14.0872 C   0  0  0  0  0  0  0  0  0  0  0  0
   22.6712  -18.5721  -13.5098 O   0  0  0  0  0  0  0  0  0  0  0  0
   22.6716  -19.8498  -15.4184 N   0  0  0  0  0  0  0  0  0  0  0  0
   23.7269  -19.0080  -15.9403 C   0  0  1  0  0  0  0  0  0  0  0  0
   24.9827  -19.6973  -16.3293 C   0  0  0  0  0  0  0  0  0  0  0  0
   26.1329  -18.9488  -16.8296 C   0  0  0  0  0  0  0  0  0  0  0  0
   27.3845  -19.6570  -17.2001 C   0  0  0  0  0  0  0  0  0  0  0  0
   28.4594  -18.6032  -17.6058 C   0  0  0  0  0  0  0  0  0  0  0  0
   29.6983  -19.2815  -17.9367 N   0  0  0  0  0  0  0  0  0  0  0  0
   23.1777  -18.2319  -17.1195 C   0  0  0  0  0  0  0  0  0  0  0  0
   22.5392  -18.8481  -17.9881 O   0  0  0  0  0  0  0  0  0  0  0  0
   23.6067  -13.9454  -16.7850 C   0  0  0  0  0  0  0  0  0  0  0  0
   22.4450  -14.6257  -17.5025 C   0  0  1  0  0  0  0  0  0  0  0  0
   22.1366  -13.7283  -18.5640 O   0  0  0  0  0  0  0  0  0  0  0  0
   22.9484  -15.9094  -18.1691 C   0  0  2  0  0  0  0  0  0  0  0  0
   23.3972  -16.8731  -17.1962 N   0  0  0  0  0  0  0  0  0  0  0  0
   24.0567  -15.5875  -19.0527 C   0  0  0  0  0  0  0  0  0  0  0  0
   23.8666  -15.4033  -20.4041 O   0  0  0  0  0  0  0  0  0  0  0  0
   25.2255  -15.4736  -18.6140 O   0  0  0  0  0  0  0  0  0  0  0  0
  1  2  1  0
  2  3  2  0
  4  5  1  0
  4  2  1  0
  5  6  1  0
  6  7  1  6
  8  9  2  0
  8  6  1  0
 10  8  1  0
 11 10  1  0
 11 12  1  6
 12 13  1  0
 13 14  1  0
 14 15  1  0
 15 16  1  0
 17 11  1  0
 18 17  2  0
 20 19  1  1
 20 22  1  0
 20 21  1  0
 22 23  1  1
 23 17  1  0
 24 25  1  0
 24 22  1  0
 26 24  2  0
M  END
$$$$
