QKT.pdb
     RDKit          3D

 26 25  0  0  1  0  0  0  0  0999 V2000
   16.8176  -22.9761  -10.8412 N   0  0  0  0  0  0  0  0  0  0  0  0
   16.2376  -21.7114  -11.2385 C   0  0  0  0  0  0  0  0  0  0  0  0
   15.4398  -21.1980  -10.4391 O   0  0  0  0  0  0  0  0  0  0  0  0
   16.6230  -21.1393  -12.5384 C   0  0  0  0  0  0  0  0  0  0  0  0
   17.7178  -20.1461  -12.5371 C   0  0  0  0  0  0  0  0  0  0  0  0
   19.0563  -20.6131  -12.0618 C   0  0  2  0  0  0  0  0  0  0  0  0
   19.0510  -20.6097  -10.6335 N   0  0  0  0  0  0  0  0  0  0  0  0
   20.2377  -20.1008  -12.7379 C   0  0  0  0  0  0  0  0  0  0  0  0
   20.9266  -19.2068  -12.1265 O   0  0  0  0  0  0  0  0  0  0  0  0
   20.7322  -20.4764  -14.0306 N   0  0  0  0  0  0  0  0  0  0  0  0
   21.9654  -19.8859  -14.5050 C   0  0  1  0  0  0  0  0  0  0  0  0
   23.0840  -20.8262  -14.7660 C   0  0  0  0  0  0  0  0  0  0  0  0
   24.3821  -20.3467  -15.2335 C   0  0  0  0  0  0  0  0  0  0  0  0
   25.4304  -21.3109  -15.6536 C   0  0  0  0  0  0  0  0  0  0  0  0
   26.7395  -20.5261  -15.9717 C   0  0  0  0  0  0  0  0  0  0  0  0
   27.7420  -21.4456  -16.4756 N   0  0  0  0  0  0  0  0  0  0  0  0
   21.6606  -19.0869  -15.7553 C   0  0  0  0  0  0  0  0  0  0  0  0
   20.9809  -19.6198  -16.6474 O   0  0  0  0  0  0  0  0  0  0  0  0
   20.0450  -15.6453  -15.9250 C   0  0  0  0  0  0  0  0  0  0  0  0
   21.4845  -15.4899  -16.4054 C   0  0  1  0  0  0  0  0  0  0  0  0
   22.2115  -15.2412  -15.2068 O   0  0  0  0  0  0  0  0  0  0  0  0
   21.9873  -16.8377  -16.9311 C   0  0  2  0  0  0  0  0  0  0  0  0
   22.1399  -17.7994  -15.8688 N   0  0  0  0  0  0  0  0  0  0  0  0
   23.2750  -16.6491  -17.5785 C   0  0  0  0  0  0  0  0  0  0  0  0
   23.4011  -15.8812  -18.7147 O   0  0  0  0  0  0  0  0  0  0  0  0
   24.3140  -17.1860  -17.1271 O   0  0  0  0  0  0  0  0  0  0  0  0
  1  2  1  0
  2  3  2  0
  4  5  1  0
  4  2  1  0
  5  6  1  0
  6  7  1  1
  8  9  2  0
  8  6  1  0
 10  8  1  0
 11 10  1  0
 11 12  1  6
 12 13  1  0
 13 14  1  0
 14 15  1  0
 15 16  1  0
 17 11  1  0
 18 17  2  0
 20 19  1  1
 20 22  1  0
 20 21  1  0
 22 23  1  1
 23 17  1  0
 24 25  1  0
 24 22  1  0
 26 24  2  0
M  END
$$$$
