QKT.pdb
     RDKit          3D

 26 25  0  0  1  0  0  0  0  0999 V2000
   21.5671  -13.2885  -19.5275 N   0  0  0  0  0  0  0  0  0  0  0  0
   20.9560  -14.2524  -18.6379 C   0  0  0  0  0  0  0  0  0  0  0  0
   21.1801  -15.4472  -18.8855 O   0  0  0  0  0  0  0  0  0  0  0  0
   20.1245  -13.7566  -17.5296 C   0  0  0  0  0  0  0  0  0  0  0  0
   20.0165  -12.2906  -17.3745 C   0  0  0  0  0  0  0  0  0  0  0  0
   19.0799  -11.7872  -16.3233 C   0  0  2  0  0  0  0  0  0  0  0  0
   17.8247  -12.4488  -16.4874 N   0  0  0  0  0  0  0  0  0  0  0  0
   19.0642  -10.3587  -16.0504 C   0  0  0  0  0  0  0  0  0  0  0  0
   19.1680   -9.5648  -17.0537 O   0  0  0  0  0  0  0  0  0  0  0  0
   18.9502   -9.7181  -14.7724 N   0  0  0  0  0  0  0  0  0  0  0  0
   18.8416   -8.2758  -14.7215 C   0  0  1  0  0  0  0  0  0  0  0  0
   17.6497   -7.7329  -14.0229 C   0  0  0  0  0  0  0  0  0  0  0  0
   16.4100   -7.4573  -14.7444 C   0  0  0  0  0  0  0  0  0  0  0  0
   15.1475   -8.1327  -14.3506 C   0  0  0  0  0  0  0  0  0  0  0  0
   14.0272   -7.7364  -15.3599 C   0  0  0  0  0  0  0  0  0  0  0  0
   12.8062   -8.4458  -15.0274 N   0  0  0  0  0  0  0  0  0  0  0  0
   20.1043   -7.7251  -14.0916 C   0  0  0  0  0  0  0  0  0  0  0  0
   20.5867   -8.3205  -13.1145 O   0  0  0  0  0  0  0  0  0  0  0  0
   22.1776   -4.8522  -16.4957 C   0  0  0  0  0  0  0  0  0  0  0  0
   22.8375   -5.7593  -15.4618 C   0  0  1  0  0  0  0  0  0  0  0  0
   23.9450   -4.9915  -15.0023 O   0  0  0  0  0  0  0  0  0  0  0  0
   21.9029   -5.9125  -14.2581 C   0  0  2  0  0  0  0  0  0  0  0  0
   20.6814   -6.5882  -14.6158 N   0  0  0  0  0  0  0  0  0  0  0  0
   21.5727   -4.5961  -13.7374 C   0  0  0  0  0  0  0  0  0  0  0  0
   22.5217   -3.8081  -13.1253 O   0  0  0  0  0  0  0  0  0  0  0  0
   20.4094   -4.1369  -13.8222 O   0  0  0  0  0  0  0  0  0  0  0  0
  1  2  1  0
  2  3  2  0
  4  5  1  0
  4  2  1  0
  5  6  1  0
  6  7  1  6
  8  9  2  0
  8  6  1  0
 10  8  1  0
 11 10  1  0
 11 12  1  1
 12 13  1  0
 13 14  1  0
 14 15  1  0
 15 16  1  0
 17 11  1  0
 18 17  2  0
 20 19  1  6
 20 22  1  0
 20 21  1  0
 22 23  1  6
 23 17  1  0
 24 25  1  0
 24 22  1  0
 26 24  2  0
M  END
$$$$
