QKT.pdb
     RDKit          3D

 26 25  0  0  1  0  0  0  0  0999 V2000
   21.0435  -16.1611  -15.7651 N   0  0  0  0  0  0  0  0  0  0  0  0
   20.9312  -16.0680  -17.2047 C   0  0  0  0  0  0  0  0  0  0  0  0
   20.0961  -16.8132  -17.7396 O   0  0  0  0  0  0  0  0  0  0  0  0
   21.8023  -15.1197  -17.9173 C   0  0  0  0  0  0  0  0  0  0  0  0
   21.4661  -13.6846  -17.8057 C   0  0  0  0  0  0  0  0  0  0  0  0
   20.2071  -13.2295  -18.4717 C   0  0  2  0  0  0  0  0  0  0  0  0
   20.2823  -13.5744  -19.8557 N   0  0  0  0  0  0  0  0  0  0  0  0
   19.6888  -11.9152  -18.1263 C   0  0  0  0  0  0  0  0  0  0  0  0
   20.1781  -10.9053  -18.7494 O   0  0  0  0  0  0  0  0  0  0  0  0
   18.6829  -11.6048  -17.1524 N   0  0  0  0  0  0  0  0  0  0  0  0
   18.3005  -10.2223  -16.9599 C   0  0  1  0  0  0  0  0  0  0  0  0
   16.8760   -9.9777  -16.6217 C   0  0  0  0  0  0  0  0  0  0  0  0
   16.3657   -8.6225  -16.4303 C   0  0  0  0  0  0  0  0  0  0  0  0
   14.9266   -8.3972  -16.1418 C   0  0  0  0  0  0  0  0  0  0  0  0
   14.6844   -6.8696  -15.9455 C   0  0  0  0  0  0  0  0  0  0  0  0
   13.2593   -6.6165  -15.8466 N   0  0  0  0  0  0  0  0  0  0  0  0
   19.1941   -9.6254  -15.8923 C   0  0  0  0  0  0  0  0  0  0  0  0
   19.2981  -10.2196  -14.8070 O   0  0  0  0  0  0  0  0  0  0  0  0
   22.7587   -9.1406  -15.8260 C   0  0  0  0  0  0  0  0  0  0  0  0
   22.2029   -7.7227  -15.9148 C   0  0  1  0  0  0  0  0  0  0  0  0
   22.0556   -7.5088  -17.3147 O   0  0  0  0  0  0  0  0  0  0  0  0
   20.7859   -7.7011  -15.3341 C   0  0  2  0  0  0  0  0  0  0  0  0
   19.8646   -8.4491  -16.1516 N   0  0  0  0  0  0  0  0  0  0  0  0
   20.3239   -6.3255  -15.2495 C   0  0  0  0  0  0  0  0  0  0  0  0
   20.9123   -5.4226  -14.3923 O   0  0  0  0  0  0  0  0  0  0  0  0
   19.3681   -5.9168  -15.9502 O   0  0  0  0  0  0  0  0  0  0  0  0
  1  2  1  0
  2  3  2  0
  4  5  1  0
  4  2  1  0
  5  6  1  0
  6  7  1  6
  8  9  2  0
  8  6  1  0
 10  8  1  0
 11 10  1  0
 11 12  1  1
 12 13  1  0
 13 14  1  0
 14 15  1  0
 15 16  1  0
 17 11  1  0
 18 17  2  0
 20 19  1  6
 20 22  1  0
 20 21  1  0
 22 23  1  6
 23 17  1  0
 24 25  1  0
 24 22  1  0
 26 24  2  0
M  END
$$$$
