QKT.pdb
     RDKit          3D

 26 25  0  0  1  0  0  0  0  0999 V2000
   27.3159  -22.2384  -19.3021 N   0  0  0  0  0  0  0  0  0  0  0  0
   28.5408  -21.5042  -19.0689 C   0  0  0  0  0  0  0  0  0  0  0  0
   29.3489  -21.4713  -20.0095 O   0  0  0  0  0  0  0  0  0  0  0  0
   28.7389  -20.8672  -17.7571 C   0  0  0  0  0  0  0  0  0  0  0  0
   27.5932  -20.8825  -16.8232 C   0  0  0  0  0  0  0  0  0  0  0  0
   27.5588  -21.9819  -15.8104 C   0  0  2  0  0  0  0  0  0  0  0  0
   27.6094  -23.2304  -16.5023 N   0  0  0  0  0  0  0  0  0  0  0  0
   26.6280  -21.8580  -14.6997 C   0  0  0  0  0  0  0  0  0  0  0  0
   25.4898  -22.4400  -14.8157 O   0  0  0  0  0  0  0  0  0  0  0  0
   26.8292  -21.1469  -13.4707 N   0  0  0  0  0  0  0  0  0  0  0  0
   25.7227  -21.0236  -12.5461 C   0  0  1  0  0  0  0  0  0  0  0  0
   26.0639  -20.5789  -11.1716 C   0  0  0  0  0  0  0  0  0  0  0  0
   25.0301  -20.4024  -10.1549 C   0  0  0  0  0  0  0  0  0  0  0  0
   23.9208  -21.3824  -10.0358 C   0  0  0  0  0  0  0  0  0  0  0  0
   22.9052  -20.8680   -8.9707 C   0  0  0  0  0  0  0  0  0  0  0  0
   21.7652  -21.7637   -8.9198 N   0  0  0  0  0  0  0  0  0  0  0  0
   24.6981  -20.0867  -13.1520 C   0  0  0  0  0  0  0  0  0  0  0  0
   25.0244  -18.9067  -13.3592 O   0  0  0  0  0  0  0  0  0  0  0  0
   23.3520  -19.4775  -16.1496 C   0  0  0  0  0  0  0  0  0  0  0  0
   22.1103  -20.0272  -15.4546 C   0  0  1  0  0  0  0  0  0  0  0  0
   22.1731  -21.4255  -15.7151 O   0  0  0  0  0  0  0  0  0  0  0  0
   22.2727  -19.8734  -13.9394 C   0  0  2  0  0  0  0  0  0  0  0  0
   23.4415  -20.5645  -13.4570 N   0  0  0  0  0  0  0  0  0  0  0  0
   21.1007  -20.4182  -13.2743 C   0  0  0  0  0  0  0  0  0  0  0  0
   19.8558  -19.8520  -13.4363 O   0  0  0  0  0  0  0  0  0  0  0  0
   21.1857  -21.4190  -12.5242 O   0  0  0  0  0  0  0  0  0  0  0  0
  1  2  1  0
  2  3  2  0
  4  5  1  0
  4  2  1  0
  5  6  1  0
  6  7  1  6
  8  9  2  0
  8  6  1  0
 10  8  1  0
 11 10  1  0
 11 12  1  1
 12 13  1  0
 13 14  1  0
 14 15  1  0
 15 16  1  0
 17 11  1  0
 18 17  2  0
 20 19  1  6
 20 22  1  0
 20 21  1  0
 22 23  1  1
 23 17  1  0
 24 25  1  0
 24 22  1  0
 26 24  2  0
M  END
$$$$
