QKT.pdb
     RDKit          3D

 26 25  0  0  1  0  0  0  0  0999 V2000
   18.4885  -25.0412   -9.9696 N   0  0  0  0  0  0  0  0  0  0  0  0
   17.9684  -23.7285   -9.6528 C   0  0  0  0  0  0  0  0  0  0  0  0
   16.8538  -23.6961   -9.1090 O   0  0  0  0  0  0  0  0  0  0  0  0
   18.7795  -22.5498   -9.9969 C   0  0  0  0  0  0  0  0  0  0  0  0
   20.0743  -22.7975  -10.6657 C   0  0  0  0  0  0  0  0  0  0  0  0
   20.0270  -23.2202  -12.0991 C   0  0  2  0  0  0  0  0  0  0  0  0
   19.9692  -24.6466  -12.1441 N   0  0  0  0  0  0  0  0  0  0  0  0
   20.9088  -22.5462  -13.0391 C   0  0  0  0  0  0  0  0  0  0  0  0
   21.9252  -23.2017  -13.4691 O   0  0  0  0  0  0  0  0  0  0  0  0
   20.7810  -21.2118  -13.5487 N   0  0  0  0  0  0  0  0  0  0  0  0
   21.6653  -20.7824  -14.6109 C   0  0  1  0  0  0  0  0  0  0  0  0
   21.0844  -19.8517  -15.6108 C   0  0  0  0  0  0  0  0  0  0  0  0
   21.8772  -19.3551  -16.7325 C   0  0  0  0  0  0  0  0  0  0  0  0
   21.2593  -18.4732  -17.7550 C   0  0  0  0  0  0  0  0  0  0  0  0
   22.3237  -18.1409  -18.8446 C   0  0  0  0  0  0  0  0  0  0  0  0
   21.7395  -17.2565  -19.8350 N   0  0  0  0  0  0  0  0  0  0  0  0
   22.8970  -20.1627  -13.9837 C   0  0  0  0  0  0  0  0  0  0  0  0
   22.7431  -19.3094  -13.0949 O   0  0  0  0  0  0  0  0  0  0  0  0
   25.7054  -21.5983  -12.1013 C   0  0  0  0  0  0  0  0  0  0  0  0
   26.3183  -21.1711  -13.4313 C   0  0  1  0  0  0  0  0  0  0  0  0
   26.1495  -22.3165  -14.2600 O   0  0  0  0  0  0  0  0  0  0  0  0
   25.4534  -20.0705  -14.0528 C   0  0  2  0  0  0  0  0  0  0  0  0
   24.1461  -20.5599  -14.4108 N   0  0  0  0  0  0  0  0  0  0  0  0
   26.1066  -19.5663  -15.2495 C   0  0  0  0  0  0  0  0  0  0  0  0
   27.3606  -18.9994  -15.1974 O   0  0  0  0  0  0  0  0  0  0  0  0
   25.5462  -19.6245  -16.3693 O   0  0  0  0  0  0  0  0  0  0  0  0
  1  2  1  0
  2  3  2  0
  4  5  1  0
  4  2  1  0
  5  6  1  0
  6  7  1  1
  8  9  2  0
  8  6  1  0
 10  8  1  0
 11 10  1  0
 11 12  1  6
 12 13  1  0
 13 14  1  0
 14 15  1  0
 15 16  1  0
 17 11  1  0
 18 17  2  0
 20 19  1  1
 20 22  1  0
 20 21  1  0
 22 23  1  6
 23 17  1  0
 24 25  1  0
 24 22  1  0
 26 24  2  0
M  END
$$$$
