QKT.pdb
     RDKit          3D

 26 25  0  0  1  0  0  0  0  0999 V2000
   22.0878  -17.4539  -14.9041 N   0  0  0  0  0  0  0  0  0  0  0  0
   20.6708  -17.7179  -15.0320 C   0  0  0  0  0  0  0  0  0  0  0  0
   20.2482  -18.7355  -14.4621 O   0  0  0  0  0  0  0  0  0  0  0  0
   19.8503  -16.7827  -15.8180 C   0  0  0  0  0  0  0  0  0  0  0  0
   20.5063  -15.5435  -16.2859 C   0  0  0  0  0  0  0  0  0  0  0  0
   19.7016  -14.6407  -17.1652 C   0  0  2  0  0  0  0  0  0  0  0  0
   19.3824  -15.3499  -18.3633 N   0  0  0  0  0  0  0  0  0  0  0  0
   20.1230  -13.2542  -17.2883 C   0  0  0  0  0  0  0  0  0  0  0  0
   21.2942  -12.9528  -16.8582 O   0  0  0  0  0  0  0  0  0  0  0  0
   19.3729  -12.1620  -17.8371 N   0  0  0  0  0  0  0  0  0  0  0  0
   19.9983  -10.8599  -17.9252 C   0  0  1  0  0  0  0  0  0  0  0  0
   19.5471   -9.9906  -19.0407 C   0  0  0  0  0  0  0  0  0  0  0  0
   19.6034  -10.4479  -20.4268 C   0  0  0  0  0  0  0  0  0  0  0  0
   18.4754  -10.1739  -21.3529 C   0  0  0  0  0  0  0  0  0  0  0  0
   18.8440  -10.7102  -22.7697 C   0  0  0  0  0  0  0  0  0  0  0  0
   17.7025  -10.5629  -23.6526 N   0  0  0  0  0  0  0  0  0  0  0  0
   19.8018  -10.1468  -16.6034 C   0  0  0  0  0  0  0  0  0  0  0  0
   18.7148  -10.2757  -16.0171 O   0  0  0  0  0  0  0  0  0  0  0  0
   21.5278  -10.6679  -13.5869 C   0  0  0  0  0  0  0  0  0  0  0  0
   21.9169   -9.2242  -13.8894 C   0  0  1  0  0  0  0  0  0  0  0  0
   23.1326   -9.3520  -14.6195 O   0  0  0  0  0  0  0  0  0  0  0  0
   20.9007   -8.6237  -14.8653 C   0  0  2  0  0  0  0  0  0  0  0  0
   20.8264   -9.3814  -16.0889 N   0  0  0  0  0  0  0  0  0  0  0  0
   21.2906   -7.2601  -15.1839 C   0  0  0  0  0  0  0  0  0  0  0  0
   21.2785   -6.2687  -14.2282 O   0  0  0  0  0  0  0  0  0  0  0  0
   21.6444   -6.9394  -16.3430 O   0  0  0  0  0  0  0  0  0  0  0  0
  1  2  1  0
  2  3  2  0
  4  5  1  0
  4  2  1  0
  5  6  1  0
  6  7  1  6
  8  9  2  0
  8  6  1  0
 10  8  1  0
 11 10  1  0
 11 12  1  6
 12 13  1  0
 13 14  1  0
 14 15  1  0
 15 16  1  0
 17 11  1  0
 18 17  2  0
 20 19  1  6
 20 22  1  0
 20 21  1  0
 22 23  1  6
 23 17  1  0
 24 25  1  0
 24 22  1  0
 26 24  2  0
M  END
$$$$
