QKT.pdb
     RDKit          3D

 26 25  0  0  1  0  0  0  0  0999 V2000
   26.7710  -22.2399  -18.7791 N   0  0  0  0  0  0  0  0  0  0  0  0
   28.2055  -22.4296  -18.7749 C   0  0  0  0  0  0  0  0  0  0  0  0
   28.7803  -22.2950  -19.8660 O   0  0  0  0  0  0  0  0  0  0  0  0
   28.8656  -22.7678  -17.5039 C   0  0  0  0  0  0  0  0  0  0  0  0
   27.9994  -22.9124  -16.3148 C   0  0  0  0  0  0  0  0  0  0  0  0
   27.3054  -21.6807  -15.8278 C   0  0  2  0  0  0  0  0  0  0  0  0
   28.2044  -20.5785  -15.9584 N   0  0  0  0  0  0  0  0  0  0  0  0
   26.5213  -21.7766  -14.6067 C   0  0  0  0  0  0  0  0  0  0  0  0
   25.4746  -22.5192  -14.6340 O   0  0  0  0  0  0  0  0  0  0  0  0
   26.7773  -21.1259  -13.3546 N   0  0  0  0  0  0  0  0  0  0  0  0
   25.7099  -21.0404  -12.3810 C   0  0  1  0  0  0  0  0  0  0  0  0
   26.0493  -20.3860  -11.0926 C   0  0  0  0  0  0  0  0  0  0  0  0
   25.0647  -20.2710  -10.0199 C   0  0  0  0  0  0  0  0  0  0  0  0
   24.3676  -21.4789   -9.5095 C   0  0  0  0  0  0  0  0  0  0  0  0
   23.3458  -21.0468   -8.4141 C   0  0  0  0  0  0  0  0  0  0  0  0
   22.6736  -22.2215   -7.8920 N   0  0  0  0  0  0  0  0  0  0  0  0
   24.5342  -20.3343  -13.0243 C   0  0  0  0  0  0  0  0  0  0  0  0
   24.6840  -19.1621  -13.4056 O   0  0  0  0  0  0  0  0  0  0  0  0
   22.9732  -20.8179  -16.0421 C   0  0  0  0  0  0  0  0  0  0  0  0
   21.8295  -21.1903  -15.1037 C   0  0  1  0  0  0  0  0  0  0  0  0
   21.9827  -22.5954  -14.9319 O   0  0  0  0  0  0  0  0  0  0  0  0
   22.0850  -20.5675  -13.7280 C   0  0  2  0  0  0  0  0  0  0  0  0
   23.3393  -21.0060  -13.1703 N   0  0  0  0  0  0  0  0  0  0  0  0
   21.0132  -20.9487  -12.8231 C   0  0  0  0  0  0  0  0  0  0  0  0
   19.7127  -20.5536  -13.0447 O   0  0  0  0  0  0  0  0  0  0  0  0
   21.2389  -21.6451  -11.8055 O   0  0  0  0  0  0  0  0  0  0  0  0
  1  2  1  0
  2  3  2  0
  4  5  1  0
  4  2  1  0
  5  6  1  0
  6  7  1  1
  8  9  2  0
  8  6  1  0
 10  8  1  0
 11 10  1  0
 11 12  1  1
 12 13  1  0
 13 14  1  0
 14 15  1  0
 15 16  1  0
 17 11  1  0
 18 17  2  0
 20 19  1  6
 20 22  1  0
 20 21  1  0
 22 23  1  1
 23 17  1  0
 24 25  1  0
 24 22  1  0
 26 24  2  0
M  END
$$$$
