QKT.pdb
     RDKit          3D

 26 25  0  0  1  0  0  0  0  0999 V2000
   18.1669  -17.0917  -17.0006 N   0  0  0  0  0  0  0  0  0  0  0  0
   18.6955  -17.0511  -15.6541 C   0  0  0  0  0  0  0  0  0  0  0  0
   18.6859  -18.1220  -15.0280 O   0  0  0  0  0  0  0  0  0  0  0  0
   19.1908  -15.7673  -15.1325 C   0  0  0  0  0  0  0  0  0  0  0  0
   19.2061  -14.6230  -16.0682 C   0  0  0  0  0  0  0  0  0  0  0  0
   17.9254  -13.8709  -16.2404 C   0  0  2  0  0  0  0  0  0  0  0  0
   17.1968  -14.4664  -17.3149 N   0  0  0  0  0  0  0  0  0  0  0  0
   17.9723  -12.4187  -16.1742 C   0  0  0  0  0  0  0  0  0  0  0  0
   18.5028  -11.7994  -17.1654 O   0  0  0  0  0  0  0  0  0  0  0  0
   17.4939  -11.5800  -15.1138 N   0  0  0  0  0  0  0  0  0  0  0  0
   17.5182  -10.1442  -15.2942 C   0  0  1  0  0  0  0  0  0  0  0  0
   16.2720   -9.4186  -14.9422 C   0  0  0  0  0  0  0  0  0  0  0  0
   14.9659   -9.8984  -15.3863 C   0  0  0  0  0  0  0  0  0  0  0  0
   13.7361   -9.1309  -15.0642 C   0  0  0  0  0  0  0  0  0  0  0  0
   12.4947   -9.9409  -15.5474 C   0  0  0  0  0  0  0  0  0  0  0  0
   11.2856   -9.2051  -15.2290 N   0  0  0  0  0  0  0  0  0  0  0  0
   18.6823   -9.5845  -14.5029 C   0  0  0  0  0  0  0  0  0  0  0  0
   18.7317   -9.8102  -13.2828 O   0  0  0  0  0  0  0  0  0  0  0  0
   22.3079  -10.1571  -15.3140 C   0  0  0  0  0  0  0  0  0  0  0  0
   22.0810   -8.6568  -15.4718 C   0  0  1  0  0  0  0  0  0  0  0  0
   21.6993   -8.5185  -16.8365 O   0  0  0  0  0  0  0  0  0  0  0  0
   20.8573   -8.2442  -14.6484 C   0  0  2  0  0  0  0  0  0  0  0  0
   19.6493   -8.8471  -15.1522 N   0  0  0  0  0  0  0  0  0  0  0  0
   20.7126   -6.7986  -14.6968 C   0  0  0  0  0  0  0  0  0  0  0  0
   21.6616   -5.9640  -14.1497 O   0  0  0  0  0  0  0  0  0  0  0  0
   19.7139   -6.2632  -15.2328 O   0  0  0  0  0  0  0  0  0  0  0  0
  1  2  1  0
  2  3  2  0
  4  5  1  0
  4  2  1  0
  5  6  1  0
  6  7  1  6
  8  9  2  0
  8  6  1  0
 10  8  1  0
 11 10  1  0
 11 12  1  1
 12 13  1  0
 13 14  1  0
 14 15  1  0
 15 16  1  0
 17 11  1  0
 18 17  2  0
 20 19  1  6
 20 22  1  0
 20 21  1  0
 22 23  1  6
 23 17  1  0
 24 25  1  0
 24 22  1  0
 26 24  2  0
M  END
$$$$
