PKE.pdb
     RDKit          3D

 26 26  0  0  1  0  0  0  0  0999 V2000
    7.3666  -15.0601   19.5633 N   0  0  0  0  0  0  0  0  0  0  0  0
    7.0388  -14.7048   18.1767 C   0  0  0  0  0  0  0  0  0  0  0  0
    7.5302  -13.2850   18.0029 C   0  0  0  0  0  0  0  0  0  0  0  0
    8.3433  -13.0154   19.2351 C   0  0  0  0  0  0  0  0  0  0  0  0
    8.6497  -14.4393   19.7158 C   0  0  1  0  0  0  0  0  0  0  0  0
    9.0632  -14.3268   21.1396 C   0  0  0  0  0  0  0  0  0  0  0  0
   10.2407  -13.9696   21.4186 O   0  0  0  0  0  0  0  0  0  0  0  0
    8.1860  -14.6051   22.2121 N   0  0  0  0  0  0  0  0  0  0  0  0
    8.4366  -14.2663   23.5776 C   0  0  1  0  0  0  0  0  0  0  0  0
    7.1822  -13.7573   24.2732 C   0  0  0  0  0  0  0  0  0  0  0  0
    7.4037  -13.3807   25.7025 C   0  0  0  0  0  0  0  0  0  0  0  0
    6.1076  -12.7655   26.2004 C   0  0  0  0  0  0  0  0  0  0  0  0
    6.2467  -12.3633   27.6573 C   0  0  0  0  0  0  0  0  0  0  0  0
    5.0566  -11.6886   28.1167 N   0  0  0  0  0  0  0  0  0  0  0  0
    8.8172  -15.5449   24.2979 C   0  0  0  0  0  0  0  0  0  0  0  0
    7.9775  -16.4641   24.4366 O   0  0  0  0  0  0  0  0  0  0  0  0
   10.1154  -15.7159   24.8196 N   0  0  0  0  0  0  0  0  0  0  0  0
   10.6099  -16.8460   25.5411 C   0  0  1  0  0  0  0  0  0  0  0  0
   12.0687  -17.1798   25.2897 C   0  0  0  0  0  0  0  0  0  0  0  0
   12.3054  -17.2747   23.8096 C   0  0  0  0  0  0  0  0  0  0  0  0
   13.6362  -16.6744   23.4326 C   0  0  0  0  0  0  0  0  0  0  0  0
   14.4037  -16.1437   24.2705 O   0  0  0  0  0  0  0  0  0  0  0  0
   10.2267  -16.8610   26.9616 C   0  0  0  0  0  0  0  0  0  0  0  0
   10.5067  -17.9325   27.8044 O   0  0  0  0  0  0  0  0  0  0  0  0
   14.0004  -16.7244   22.0995 O   0  0  0  0  0  0  0  0  0  0  0  0
    9.6195  -15.8890   27.4822 O   0  0  0  0  0  0  0  0  0  0  0  0
  1  5  1  0
  1  2  1  0
  2  3  1  0
  4  3  1  0
  5  4  1  0
  6  7  2  0
  5  6  1  1
  8  6  1  0
  9 10  1  1
  9  8  1  0
 11 10  1  0
 11 12  1  0
 13 14  1  0
 13 12  1  0
 15  9  1  0
 16 15  2  0
 17 15  1  0
 18 17  1  0
 19 20  1  0
 18 19  1  1
 21 25  1  0
 21 20  1  0
 22 21  2  0
 23 24  1  0
 23 18  1  0
 26 23  2  0
M  END
$$$$
