PKE.pdb
     RDKit          3D

 26 26  0  0  1  0  0  0  0  0999 V2000
    8.0269  -14.8584   18.9005 N   0  0  0  0  0  0  0  0  0  0  0  0
    7.0720  -14.2475   17.9670 C   0  0  0  0  0  0  0  0  0  0  0  0
    7.1266  -12.7640   18.2560 C   0  0  0  0  0  0  0  0  0  0  0  0
    8.3087  -12.6018   19.1663 C   0  0  0  0  0  0  0  0  0  0  0  0
    9.0871  -13.8937   18.8882 C   0  0  1  0  0  0  0  0  0  0  0  0
   10.0331  -14.0715   20.0215 C   0  0  0  0  0  0  0  0  0  0  0  0
   11.0978  -13.3953   20.0543 O   0  0  0  0  0  0  0  0  0  0  0  0
    9.7923  -14.9759   21.0804 N   0  0  0  0  0  0  0  0  0  0  0  0
   10.6223  -15.1168   22.2351 C   0  0  1  0  0  0  0  0  0  0  0  0
   10.0245  -16.0845   23.2464 C   0  0  0  0  0  0  0  0  0  0  0  0
   10.8672  -16.2680   24.4669 C   0  0  0  0  0  0  0  0  0  0  0  0
   10.1288  -17.2422   25.3680 C   0  0  0  0  0  0  0  0  0  0  0  0
   10.8996  -17.4454   26.6597 C   0  0  0  0  0  0  0  0  0  0  0  0
   10.1853  -18.3319   27.5465 N   0  0  0  0  0  0  0  0  0  0  0  0
   11.9243  -15.7471   21.7815 C   0  0  0  0  0  0  0  0  0  0  0  0
   11.9171  -16.8479   21.1837 O   0  0  0  0  0  0  0  0  0  0  0  0
   13.1557  -15.1061   22.0257 N   0  0  0  0  0  0  0  0  0  0  0  0
   14.4604  -15.6104   21.7325 C   0  0  1  0  0  0  0  0  0  0  0  0
   15.2828  -14.7526   20.7887 C   0  0  0  0  0  0  0  0  0  0  0  0
   14.5225  -14.5592   19.5080 C   0  0  0  0  0  0  0  0  0  0  0  0
   15.3818  -13.8973   18.4606 C   0  0  0  0  0  0  0  0  0  0  0  0
   16.5187  -13.4306   18.7106 O   0  0  0  0  0  0  0  0  0  0  0  0
   15.1987  -16.0786   22.9158 C   0  0  0  0  0  0  0  0  0  0  0  0
   16.4162  -16.7468   22.8264 O   0  0  0  0  0  0  0  0  0  0  0  0
   14.8695  -13.8145   17.1789 O   0  0  0  0  0  0  0  0  0  0  0  0
   14.7523  -15.8912   24.0777 O   0  0  0  0  0  0  0  0  0  0  0  0
  1  5  1  0
  1  2  1  0
  2  3  1  0
  4  3  1  0
  5  4  1  0
  6  7  2  0
  5  6  1  1
  8  6  1  0
  9 10  1  1
  9  8  1  0
 11 10  1  0
 11 12  1  0
 13 14  1  0
 13 12  1  0
 15  9  1  0
 16 15  2  0
 17 15  1  0
 18 17  1  0
 19 20  1  0
 18 19  1  1
 21 25  1  0
 21 20  1  0
 22 21  2  0
 23 24  1  0
 23 18  1  0
 26 23  2  0
M  END
$$$$
