PKE.pdb
     RDKit          3D

 26 26  0  0  1  0  0  0  0  0999 V2000
    8.1894  -14.8981   19.4963 N   0  0  0  0  0  0  0  0  0  0  0  0
    8.1162  -13.8467   18.4738 C   0  0  0  0  0  0  0  0  0  0  0  0
    7.4294  -12.6811   19.1500 C   0  0  0  0  0  0  0  0  0  0  0  0
    7.3889  -13.0597   20.6016 C   0  0  0  0  0  0  0  0  0  0  0  0
    8.4867  -14.1286   20.6687 C   0  0  1  0  0  0  0  0  0  0  0  0
    8.2598  -14.8919   21.9244 C   0  0  0  0  0  0  0  0  0  0  0  0
    8.4443  -14.3267   23.0372 O   0  0  0  0  0  0  0  0  0  0  0  0
    7.8405  -16.2414   21.9307 N   0  0  0  0  0  0  0  0  0  0  0  0
    7.5157  -16.9875   23.1055 C   0  0  1  0  0  0  0  0  0  0  0  0
    6.8627  -18.3198   22.7667 C   0  0  0  0  0  0  0  0  0  0  0  0
    6.6493  -19.1993   23.9560 C   0  0  0  0  0  0  0  0  0  0  0  0
    5.9580  -20.4552   23.4551 C   0  0  0  0  0  0  0  0  0  0  0  0
    5.5621  -21.3356   24.6264 C   0  0  0  0  0  0  0  0  0  0  0  0
    4.7826  -22.4637   24.1768 N   0  0  0  0  0  0  0  0  0  0  0  0
    8.8202  -17.3319   23.7969 C   0  0  0  0  0  0  0  0  0  0  0  0
    9.8037  -17.7246   23.1279 O   0  0  0  0  0  0  0  0  0  0  0  0
    8.9434  -17.2161   25.1963 N   0  0  0  0  0  0  0  0  0  0  0  0
   10.0896  -17.5363   25.9877 C   0  0  1  0  0  0  0  0  0  0  0  0
   10.4076  -16.5414   27.0886 C   0  0  0  0  0  0  0  0  0  0  0  0
   10.1276  -15.1513   26.5938 C   0  0  0  0  0  0  0  0  0  0  0  0
   10.3349  -14.1335   27.6868 C   0  0  0  0  0  0  0  0  0  0  0  0
    9.3967  -13.6973   28.3956 O   0  0  0  0  0  0  0  0  0  0  0  0
   10.1452  -18.9430   26.4152 C   0  0  0  0  0  0  0  0  0  0  0  0
   11.2936  -19.5225   26.9462 O   0  0  0  0  0  0  0  0  0  0  0  0
   11.6242  -13.6787   27.8943 O   0  0  0  0  0  0  0  0  0  0  0  0
    9.1393  -19.6934   26.3167 O   0  0  0  0  0  0  0  0  0  0  0  0
  1  5  1  0
  1  2  1  0
  2  3  1  0
  4  3  1  0
  5  4  1  0
  6  7  2  0
  5  6  1  1
  8  6  1  0
  9 10  1  6
  9  8  1  0
 11 10  1  0
 11 12  1  0
 13 14  1  0
 13 12  1  0
 15  9  1  0
 16 15  2  0
 17 15  1  0
 18 17  1  0
 19 20  1  0
 18 19  1  1
 21 25  1  0
 21 20  1  0
 22 21  2  0
 23 24  1  0
 23 18  1  0
 26 23  2  0
M  END
$$$$
