PKE.pdb
     RDKit          3D

 26 26  0  0  1  0  0  0  0  0999 V2000
    7.8448  -15.0315   19.0107 N   0  0  0  0  0  0  0  0  0  0  0  0
    7.3505  -14.3186   17.8258 C   0  0  0  0  0  0  0  0  0  0  0  0
    7.4873  -12.8498   18.1592 C   0  0  0  0  0  0  0  0  0  0  0  0
    8.2975  -12.8251   19.4223 C   0  0  0  0  0  0  0  0  0  0  0  0
    8.9567  -14.2095   19.3886 C   0  0  1  0  0  0  0  0  0  0  0  0
    9.4285  -14.4887   20.7708 C   0  0  0  0  0  0  0  0  0  0  0  0
   10.4673  -13.9160   21.2006 O   0  0  0  0  0  0  0  0  0  0  0  0
    8.7576  -15.3787   21.6397 N   0  0  0  0  0  0  0  0  0  0  0  0
    9.1780  -15.6897   22.9697 C   0  0  1  0  0  0  0  0  0  0  0  0
    8.1172  -16.4732   23.7293 C   0  0  0  0  0  0  0  0  0  0  0  0
    8.5708  -16.9432   25.0735 C   0  0  0  0  0  0  0  0  0  0  0  0
    7.4422  -17.7798   25.6501 C   0  0  0  0  0  0  0  0  0  0  0  0
    7.8567  -18.3642   26.9883 C   0  0  0  0  0  0  0  0  0  0  0  0
    6.7938  -19.1642   27.5474 N   0  0  0  0  0  0  0  0  0  0  0  0
   10.3743  -16.6145   22.8608 C   0  0  0  0  0  0  0  0  0  0  0  0
   10.2959  -17.6704   22.1913 O   0  0  0  0  0  0  0  0  0  0  0  0
   11.5859  -16.3006   23.5092 N   0  0  0  0  0  0  0  0  0  0  0  0
   12.7460  -17.1289   23.6112 C   0  0  1  0  0  0  0  0  0  0  0  0
   14.0510  -16.4554   23.2288 C   0  0  0  0  0  0  0  0  0  0  0  0
   13.9062  -15.8344   21.8690 C   0  0  0  0  0  0  0  0  0  0  0  0
   15.2262  -15.3017   21.3716 C   0  0  0  0  0  0  0  0  0  0  0  0
   15.9495  -15.9282   20.5609 O   0  0  0  0  0  0  0  0  0  0  0  0
   12.8150  -17.9079   24.8574 C   0  0  0  0  0  0  0  0  0  0  0  0
   13.5873  -19.0588   24.9826 O   0  0  0  0  0  0  0  0  0  0  0  0
   15.6322  -14.0679   21.8463 O   0  0  0  0  0  0  0  0  0  0  0  0
   12.1674  -17.5599   25.8791 O   0  0  0  0  0  0  0  0  0  0  0  0
  1  5  1  0
  1  2  1  0
  2  3  1  0
  4  3  1  0
  5  4  1  0
  6  7  2  0
  5  6  1  1
  8  6  1  0
  9 10  1  1
  9  8  1  0
 11 10  1  0
 11 12  1  0
 13 14  1  0
 13 12  1  0
 15  9  1  0
 16 15  2  0
 17 15  1  0
 18 17  1  0
 19 20  1  0
 18 19  1  1
 21 25  1  0
 21 20  1  0
 22 21  2  0
 23 24  1  0
 23 18  1  0
 26 23  2  0
M  END
$$$$
