PKE.pdb
     RDKit          3D

 26 26  0  0  1  0  0  0  0  0999 V2000
    7.6229  -15.0412   19.0742 N   0  0  0  0  0  0  0  0  0  0  0  0
    7.3409  -14.2273   17.8850 C   0  0  0  0  0  0  0  0  0  0  0  0
    7.3161  -12.7976   18.3779 C   0  0  0  0  0  0  0  0  0  0  0  0
    7.8455  -12.8745   19.7801 C   0  0  0  0  0  0  0  0  0  0  0  0
    8.5808  -14.2202   19.7550 C   0  0  1  0  0  0  0  0  0  0  0  0
    8.7736  -14.6250   21.1727 C   0  0  0  0  0  0  0  0  0  0  0  0
    9.6721  -14.0681   21.8614 O   0  0  0  0  0  0  0  0  0  0  0  0
    7.9856  -15.6194   21.7951 N   0  0  0  0  0  0  0  0  0  0  0  0
    8.1671  -16.0812   23.1353 C   0  0  1  0  0  0  0  0  0  0  0  0
    7.0772  -17.0598   23.5486 C   0  0  0  0  0  0  0  0  0  0  0  0
    7.2671  -17.6196   24.9212 C   0  0  0  0  0  0  0  0  0  0  0  0
    6.6092  -18.9883   24.9322 C   0  0  0  0  0  0  0  0  0  0  0  0
    6.6748  -19.5878   26.3251 C   0  0  0  0  0  0  0  0  0  0  0  0
    5.9895  -20.8571   26.3675 N   0  0  0  0  0  0  0  0  0  0  0  0
    9.4624  -16.8682   23.1705 C   0  0  0  0  0  0  0  0  0  0  0  0
    9.6412  -17.8237   22.3803 O   0  0  0  0  0  0  0  0  0  0  0  0
   10.4788  -16.5373   24.0893 N   0  0  0  0  0  0  0  0  0  0  0  0
   11.7938  -17.0933   24.1536 C   0  0  1  0  0  0  0  0  0  0  0  0
   12.8603  -16.3059   23.4151 C   0  0  0  0  0  0  0  0  0  0  0  0
   14.1788  -17.0119   23.5521 C   0  0  0  0  0  0  0  0  0  0  0  0
   15.2538  -16.3140   22.7578 C   0  0  0  0  0  0  0  0  0  0  0  0
   15.0507  -15.2468   22.1312 O   0  0  0  0  0  0  0  0  0  0  0  0
   12.1929  -17.5266   25.5019 C   0  0  0  0  0  0  0  0  0  0  0  0
   13.1597  -18.5030   25.7222 O   0  0  0  0  0  0  0  0  0  0  0  0
   16.5072  -16.8978   22.7363 O   0  0  0  0  0  0  0  0  0  0  0  0
   11.6676  -17.0235   26.5292 O   0  0  0  0  0  0  0  0  0  0  0  0
  1  5  1  0
  1  2  1  0
  2  3  1  0
  4  3  1  0
  5  4  1  0
  6  7  2  0
  5  6  1  1
  8  6  1  0
  9 10  1  6
  9  8  1  0
 11 10  1  0
 11 12  1  0
 13 14  1  0
 13 12  1  0
 15  9  1  0
 16 15  2  0
 17 15  1  0
 18 17  1  0
 19 20  1  0
 18 19  1  1
 21 25  1  0
 21 20  1  0
 22 21  2  0
 23 24  1  0
 23 18  1  0
 26 23  2  0
M  END
$$$$
