PKE.pdb
     RDKit          3D

 26 26  0  0  1  0  0  0  0  0999 V2000
    8.4454  -14.8101   18.9431 N   0  0  0  0  0  0  0  0  0  0  0  0
    8.4656  -13.7530   17.9240 C   0  0  0  0  0  0  0  0  0  0  0  0
    7.8319  -12.5498   18.5861 C   0  0  0  0  0  0  0  0  0  0  0  0
    7.7270  -12.9298   20.0342 C   0  0  0  0  0  0  0  0  0  0  0  0
    8.7553  -14.0638   20.1271 C   0  0  1  0  0  0  0  0  0  0  0  0
    8.4466  -14.8157   21.3723 C   0  0  0  0  0  0  0  0  0  0  0  0
    8.6935  -14.2908   22.4927 O   0  0  0  0  0  0  0  0  0  0  0  0
    7.8806  -16.1105   21.3600 N   0  0  0  0  0  0  0  0  0  0  0  0
    7.6547  -16.9112   22.5220 C   0  0  1  0  0  0  0  0  0  0  0  0
    6.6926  -18.0565   22.2411 C   0  0  0  0  0  0  0  0  0  0  0  0
    6.5352  -18.9990   23.3902 C   0  0  0  0  0  0  0  0  0  0  0  0
    5.6012  -20.1035   22.9275 C   0  0  0  0  0  0  0  0  0  0  0  0
    5.4758  -21.1660   24.0042 C   0  0  0  0  0  0  0  0  0  0  0  0
    4.8271  -22.3457   23.4843 N   0  0  0  0  0  0  0  0  0  0  0  0
    8.9748  -17.5618   22.8860 C   0  0  0  0  0  0  0  0  0  0  0  0
    9.7340  -17.9928   21.9876 O   0  0  0  0  0  0  0  0  0  0  0  0
    9.3639  -17.6907   24.2346 N   0  0  0  0  0  0  0  0  0  0  0  0
   10.6943  -17.6394   24.7540 C   0  0  1  0  0  0  0  0  0  0  0  0
   11.5769  -16.5612   24.1528 C   0  0  0  0  0  0  0  0  0  0  0  0
   12.5841  -17.1999   23.2399 C   0  0  0  0  0  0  0  0  0  0  0  0
   13.5049  -16.1676   22.6398 C   0  0  0  0  0  0  0  0  0  0  0  0
   13.3159  -15.6659   21.5061 O   0  0  0  0  0  0  0  0  0  0  0  0
   10.7656  -17.7247   26.2211 C   0  0  0  0  0  0  0  0  0  0  0  0
    9.6321  -17.7625   27.0278 O   0  0  0  0  0  0  0  0  0  0  0  0
   14.5964  -15.7761   23.3932 O   0  0  0  0  0  0  0  0  0  0  0  0
   11.8732  -17.7676   26.8176 O   0  0  0  0  0  0  0  0  0  0  0  0
  1  5  1  0
  1  2  1  0
  2  3  1  0
  4  3  1  0
  5  4  1  0
  6  7  2  0
  5  6  1  1
  8  6  1  0
  9 10  1  6
  9  8  1  0
 11 10  1  0
 11 12  1  0
 13 14  1  0
 13 12  1  0
 15  9  1  0
 16 15  2  0
 17 15  1  0
 18 17  1  0
 19 20  1  0
 18 19  1  1
 21 25  1  0
 21 20  1  0
 22 21  2  0
 23 24  1  0
 23 18  1  0
 26 23  2  0
M  END
$$$$
