PKE.pdb
     RDKit          3D

 26 26  0  0  1  0  0  0  0  0999 V2000
    7.8398  -14.8656   18.6326 N   0  0  0  0  0  0  0  0  0  0  0  0
    7.7312  -13.7560   17.6770 C   0  0  0  0  0  0  0  0  0  0  0  0
    7.2034  -12.5887   18.4809 C   0  0  0  0  0  0  0  0  0  0  0  0
    7.2919  -13.0447   19.9079 C   0  0  0  0  0  0  0  0  0  0  0  0
    8.3134  -14.1837   19.8012 C   0  0  1  0  0  0  0  0  0  0  0  0
    8.1693  -15.0001   21.0356 C   0  0  0  0  0  0  0  0  0  0  0  0
    8.5045  -14.5089   22.1483 O   0  0  0  0  0  0  0  0  0  0  0  0
    7.6666  -16.3208   21.0213 N   0  0  0  0  0  0  0  0  0  0  0  0
    7.4363  -17.1167   22.1856 C   0  0  1  0  0  0  0  0  0  0  0  0
    6.4553  -18.2478   21.9123 C   0  0  0  0  0  0  0  0  0  0  0  0
    5.0783  -17.7749   21.5749 C   0  0  0  0  0  0  0  0  0  0  0  0
    4.3095  -18.9843   21.0723 C   0  0  0  0  0  0  0  0  0  0  0  0
    2.8855  -18.5900   20.7249 C   0  0  0  0  0  0  0  0  0  0  0  0
    2.1391  -19.7328   20.2566 N   0  0  0  0  0  0  0  0  0  0  0  0
    8.7488  -17.7867   22.5418 C   0  0  0  0  0  0  0  0  0  0  0  0
    9.4101  -18.3852   21.6622 O   0  0  0  0  0  0  0  0  0  0  0  0
    9.2406  -17.7459   23.8621 N   0  0  0  0  0  0  0  0  0  0  0  0
   10.4396  -18.3501   24.3518 C   0  0  1  0  0  0  0  0  0  0  0  0
   11.6594  -18.1633   23.4685 C   0  0  0  0  0  0  0  0  0  0  0  0
   12.1326  -16.7419   23.5743 C   0  0  0  0  0  0  0  0  0  0  0  0
   13.3732  -16.5192   22.7468 C   0  0  0  0  0  0  0  0  0  0  0  0
   13.3937  -16.6637   21.5012 O   0  0  0  0  0  0  0  0  0  0  0  0
   10.6901  -18.1057   25.7809 C   0  0  0  0  0  0  0  0  0  0  0  0
    9.9149  -17.2358   26.5418 O   0  0  0  0  0  0  0  0  0  0  0  0
   14.5229  -16.1408   23.4156 O   0  0  0  0  0  0  0  0  0  0  0  0
   11.6318  -18.6829   26.3846 O   0  0  0  0  0  0  0  0  0  0  0  0
  1  5  1  0
  1  2  1  0
  2  3  1  0
  4  3  1  0
  5  4  1  0
  6  7  2  0
  5  6  1  1
  8  6  1  0
  9 10  1  6
  9  8  1  0
 11 10  1  0
 11 12  1  0
 13 14  1  0
 13 12  1  0
 15  9  1  0
 16 15  2  0
 17 15  1  0
 18 17  1  0
 19 20  1  0
 18 19  1  6
 21 25  1  0
 21 20  1  0
 22 21  2  0
 23 24  1  0
 23 18  1  0
 26 23  2  0
M  END
$$$$
