PKE.pdb
     RDKit          3D

 26 26  0  0  1  0  0  0  0  0999 V2000
    8.1332  -14.9310   19.2251 N   0  0  0  0  0  0  0  0  0  0  0  0
    8.0285  -13.9740   18.1162 C   0  0  0  0  0  0  0  0  0  0  0  0
    7.3584  -12.7532   18.7060 C   0  0  0  0  0  0  0  0  0  0  0  0
    7.3600  -13.0020   20.1860 C   0  0  0  0  0  0  0  0  0  0  0  0
    8.4618  -14.0609   20.3159 C   0  0  1  0  0  0  0  0  0  0  0  0
    8.2724  -14.7102   21.6402 C   0  0  0  0  0  0  0  0  0  0  0  0
    8.5741  -14.0795   22.6904 O   0  0  0  0  0  0  0  0  0  0  0  0
    7.7622  -16.0206   21.7803 N   0  0  0  0  0  0  0  0  0  0  0  0
    7.5585  -16.6856   23.0287 C   0  0  1  0  0  0  0  0  0  0  0  0
    6.9835  -18.0818   22.8384 C   0  0  0  0  0  0  0  0  0  0  0  0
    6.9465  -18.8885   24.0960 C   0  0  0  0  0  0  0  0  0  0  0  0
    6.2920  -20.2140   23.7484 C   0  0  0  0  0  0  0  0  0  0  0  0
    6.0985  -21.0454   25.0035 C   0  0  0  0  0  0  0  0  0  0  0  0
    5.3941  -22.2684   24.7022 N   0  0  0  0  0  0  0  0  0  0  0  0
    8.9213  -16.8840   23.6626 C   0  0  0  0  0  0  0  0  0  0  0  0
    9.8748  -17.3268   22.9815 O   0  0  0  0  0  0  0  0  0  0  0  0
    9.1329  -16.5749   25.0215 N   0  0  0  0  0  0  0  0  0  0  0  0
   10.3752  -16.6082   25.7272 C   0  0  1  0  0  0  0  0  0  0  0  0
   10.6321  -15.4164   26.6308 C   0  0  0  0  0  0  0  0  0  0  0  0
   10.0135  -15.6736   27.9750 C   0  0  0  0  0  0  0  0  0  0  0  0
   10.2237  -14.5036   28.9027 C   0  0  0  0  0  0  0  0  0  0  0  0
    9.4349  -14.2280   29.8379 O   0  0  0  0  0  0  0  0  0  0  0  0
   10.6736  -17.9080   26.3485 C   0  0  0  0  0  0  0  0  0  0  0  0
   11.9681  -18.3122   26.6613 O   0  0  0  0  0  0  0  0  0  0  0  0
   11.3415  -13.7178   28.6900 O   0  0  0  0  0  0  0  0  0  0  0  0
    9.7551  -18.7222   26.6275 O   0  0  0  0  0  0  0  0  0  0  0  0
  1  5  1  0
  1  2  1  0
  2  3  1  0
  4  3  1  0
  5  4  1  0
  6  7  2  0
  5  6  1  1
  8  6  1  0
  9 10  1  6
  9  8  1  0
 11 10  1  0
 11 12  1  0
 13 14  1  0
 13 12  1  0
 15  9  1  0
 16 15  2  0
 17 15  1  0
 18 17  1  0
 19 20  1  0
 18 19  1  1
 21 25  1  0
 21 20  1  0
 22 21  2  0
 23 24  1  0
 23 18  1  0
 26 23  2  0
M  END
$$$$
