PKE.pdb
     RDKit          3D

 26 26  0  0  1  0  0  0  0  0999 V2000
    7.9454  -14.9486   18.4675 N   0  0  0  0  0  0  0  0  0  0  0  0
    7.5236  -14.2878   17.2258 C   0  0  0  0  0  0  0  0  0  0  0  0
    7.6012  -12.8058   17.5174 C   0  0  0  0  0  0  0  0  0  0  0  0
    8.3152  -12.7190   18.8346 C   0  0  0  0  0  0  0  0  0  0  0  0
    9.0071  -14.0864   18.8970 C   0  0  1  0  0  0  0  0  0  0  0  0
    9.3819  -14.3079   20.3187 C   0  0  0  0  0  0  0  0  0  0  0  0
   10.3998  -13.7307   20.7904 O   0  0  0  0  0  0  0  0  0  0  0  0
    8.6401  -15.1473   21.1804 N   0  0  0  0  0  0  0  0  0  0  0  0
    8.8932  -15.3070   22.5778 C   0  0  1  0  0  0  0  0  0  0  0  0
    7.6960  -15.9024   23.3048 C   0  0  0  0  0  0  0  0  0  0  0  0
    7.2472  -17.2122   22.7421 C   0  0  0  0  0  0  0  0  0  0  0  0
    5.9794  -17.5976   23.4841 C   0  0  0  0  0  0  0  0  0  0  0  0
    5.5065  -18.9674   23.0326 C   0  0  0  0  0  0  0  0  0  0  0  0
    4.9629  -18.9055   21.6972 N   0  0  0  0  0  0  0  0  0  0  0  0
   10.0095  -16.3227   22.7215 C   0  0  0  0  0  0  0  0  0  0  0  0
   10.0160  -17.3565   22.0142 O   0  0  0  0  0  0  0  0  0  0  0  0
   11.0506  -16.1187   23.6496 N   0  0  0  0  0  0  0  0  0  0  0  0
   12.1096  -17.0247   23.9662 C   0  0  1  0  0  0  0  0  0  0  0  0
   13.5060  -16.4384   23.8703 C   0  0  0  0  0  0  0  0  0  0  0  0
   13.6883  -15.8165   22.5154 C   0  0  0  0  0  0  0  0  0  0  0  0
   15.0914  -15.2923   22.3425 C   0  0  0  0  0  0  0  0  0  0  0  0
   15.5446  -14.9166   21.2351 O   0  0  0  0  0  0  0  0  0  0  0  0
   11.8731  -17.8164   25.1836 C   0  0  0  0  0  0  0  0  0  0  0  0
   12.6863  -18.8823   25.5568 O   0  0  0  0  0  0  0  0  0  0  0  0
   15.8908  -15.2348   23.4694 O   0  0  0  0  0  0  0  0  0  0  0  0
   10.9093  -17.5581   25.9510 O   0  0  0  0  0  0  0  0  0  0  0  0
  1  5  1  0
  1  2  1  0
  2  3  1  0
  4  3  1  0
  5  4  1  0
  6  7  2  0
  5  6  1  1
  8  6  1  0
  9 10  1  1
  9  8  1  0
 11 10  1  0
 11 12  1  0
 13 14  1  0
 13 12  1  0
 15  9  1  0
 16 15  2  0
 17 15  1  0
 18 17  1  0
 19 20  1  0
 18 19  1  1
 21 25  1  0
 21 20  1  0
 22 21  2  0
 23 24  1  0
 23 18  1  0
 26 23  2  0
M  END
$$$$
