PKE.pdb
     RDKit          3D

 26 26  0  0  1  0  0  0  0  0999 V2000
    8.4247  -14.9857   19.2754 N   0  0  0  0  0  0  0  0  0  0  0  0
    8.4966  -14.0112   18.1793 C   0  0  0  0  0  0  0  0  0  0  0  0
    7.7159  -12.8096   18.6631 C   0  0  0  0  0  0  0  0  0  0  0  0
    7.4675  -13.0838   20.1175 C   0  0  0  0  0  0  0  0  0  0  0  0
    8.5474  -14.1303   20.4192 C   0  0  1  0  0  0  0  0  0  0  0  0
    8.1440  -14.8047   21.6815 C   0  0  0  0  0  0  0  0  0  0  0  0
    8.1684  -14.1601   22.7659 O   0  0  0  0  0  0  0  0  0  0  0  0
    7.7276  -16.1545   21.7250 N   0  0  0  0  0  0  0  0  0  0  0  0
    7.4244  -16.8747   22.9214 C   0  0  1  0  0  0  0  0  0  0  0  0
    6.8825  -18.2651   22.6224 C   0  0  0  0  0  0  0  0  0  0  0  0
    6.7025  -19.1103   23.8418 C   0  0  0  0  0  0  0  0  0  0  0  0
    6.1279  -20.4366   23.3759 C   0  0  0  0  0  0  0  0  0  0  0  0
    5.8857  -21.3473   24.5658 C   0  0  0  0  0  0  0  0  0  0  0  0
    5.4782  -22.6609   24.1288 N   0  0  0  0  0  0  0  0  0  0  0  0
    8.7298  -17.0915   23.6613 C   0  0  0  0  0  0  0  0  0  0  0  0
    9.7211  -17.5702   23.0636 O   0  0  0  0  0  0  0  0  0  0  0  0
    8.8451  -16.7594   25.0263 N   0  0  0  0  0  0  0  0  0  0  0  0
   10.0062  -16.8940   25.8486 C   0  0  1  0  0  0  0  0  0  0  0  0
   10.5218  -15.5986   26.4478 C   0  0  0  0  0  0  0  0  0  0  0  0
    9.4216  -14.9466   27.2353 C   0  0  0  0  0  0  0  0  0  0  0  0
    9.8722  -13.6266   27.8081 C   0  0  0  0  0  0  0  0  0  0  0  0
   11.0128  -13.4535   28.2999 O   0  0  0  0  0  0  0  0  0  0  0  0
    9.9345  -18.0107   26.8038 C   0  0  0  0  0  0  0  0  0  0  0  0
   11.0435  -18.4700   27.5080 O   0  0  0  0  0  0  0  0  0  0  0  0
    8.9691  -12.5799   27.7772 O   0  0  0  0  0  0  0  0  0  0  0  0
    8.8488  -18.6071   27.0275 O   0  0  0  0  0  0  0  0  0  0  0  0
  1  5  1  0
  1  2  1  0
  2  3  1  0
  4  3  1  0
  5  4  1  0
  6  7  2  0
  5  6  1  1
  8  6  1  0
  9 10  1  6
  9  8  1  0
 11 10  1  0
 11 12  1  0
 13 14  1  0
 13 12  1  0
 15  9  1  0
 16 15  2  0
 17 15  1  0
 18 17  1  0
 19 20  1  0
 18 19  1  1
 21 25  1  0
 21 20  1  0
 22 21  2  0
 23 24  1  0
 23 18  1  0
 26 23  2  0
M  END
$$$$
