QWI.pdb
     RDKit          3D

 32 33  0  0  1  0  0  0  0  0999 V2000
   28.7039  -17.1673  -16.1258 N   0  0  0  0  0  0  0  0  0  0  0  0
   28.0487  -18.1103  -16.9571 C   0  0  0  0  0  0  0  0  0  0  0  0
   28.1253  -17.9947  -18.1958 O   0  0  0  0  0  0  0  0  0  0  0  0
   27.2876  -19.2150  -16.3554 C   0  0  0  0  0  0  0  0  0  0  0  0
   27.3413  -19.1614  -14.8650 C   0  0  0  0  0  0  0  0  0  0  0  0
   27.6677  -20.4758  -14.2367 C   0  0  2  0  0  0  0  0  0  0  0  0
   27.9030  -21.4209  -15.3161 N   0  0  0  0  0  0  0  0  0  0  0  0
   26.4870  -20.9334  -13.4103 C   0  0  0  0  0  0  0  0  0  0  0  0
   25.7304  -21.8217  -13.8424 O   0  0  0  0  0  0  0  0  0  0  0  0
   26.2687  -20.3370  -12.1572 N   0  0  0  0  0  0  0  0  0  0  0  0
   25.1947  -20.7411  -11.2640 C   0  0  1  0  0  0  0  0  0  0  0  0
   25.3835  -20.2248   -9.8765 C   0  0  0  0  0  0  0  0  0  0  0  0
   26.7456  -20.5731   -9.4134 C   0  0  0  0  0  0  0  0  0  0  0  0
   27.6088  -21.4218  -10.0780 C   0  0  0  0  0  0  0  0  0  0  0  0
   28.7195  -21.4836   -9.3505 N   0  0  0  0  0  0  0  0  0  0  0  0
   28.6242  -20.7255   -8.2563 C   0  0  0  0  0  0  0  0  0  0  0  0
   29.4689  -20.4538   -7.2125 C   0  0  0  0  0  0  0  0  0  0  0  0
   29.1310  -19.6156   -6.1735 C   0  0  0  0  0  0  0  0  0  0  0  0
   27.8722  -19.0452   -6.2286 C   0  0  0  0  0  0  0  0  0  0  0  0
   27.0066  -19.3004   -7.2624 C   0  0  0  0  0  0  0  0  0  0  0  0
   27.3869  -20.1410   -8.2739 C   0  0  0  0  0  0  0  0  0  0  0  0
   23.8847  -20.3664  -11.8315 C   0  0  0  0  0  0  0  0  0  0  0  0
   23.6529  -19.1757  -12.1497 O   0  0  0  0  0  0  0  0  0  0  0  0
   20.0334  -22.3123  -15.8961 C   0  0  0  0  0  0  0  0  0  0  0  0
   20.0915  -21.5258  -14.6058 C   0  0  0  0  0  0  0  0  0  0  0  0
   21.3880  -21.8433  -13.9329 C   0  0  2  0  0  0  0  0  0  0  0  0
   21.3760  -23.2848  -13.4863 C   0  0  0  0  0  0  0  0  0  0  0  0
   21.5950  -20.9887  -12.6852 C   0  0  2  0  0  0  0  0  0  0  0  0
   22.8489  -21.3173  -12.0387 N   0  0  0  0  0  0  0  0  0  0  0  0
   20.4950  -21.3135  -11.7461 C   0  0  0  0  0  0  0  0  0  0  0  0
   19.1828  -20.9297  -11.9803 O   0  0  0  0  0  0  0  0  0  0  0  0
   20.7196  -21.9499  -10.7032 O   0  0  0  0  0  0  0  0  0  0  0  0
  2  3  2  0
  2  1  1  0
  4  2  1  0
  5  4  1  0
  6  5  1  0
  6  7  1  6
  8  6  1  0
  8  9  2  0
 10  8  1  0
 11 10  1  0
 11 12  1  1
 13 12  1  0
 13 14  2  0
 15 14  1  0
 16 15  1  0
 17 16  2  0
 18 17  1  0
 19 18  2  0
 19 20  1  0
 20 21  2  0
 21 16  1  0
 21 13  1  0
 22 11  1  0
 23 22  2  0
 25 24  1  0
 26 27  1  1
 26 28  1  0
 26 25  1  0
 28 29  1  1
 29 22  1  0
 30 28  1  0
 30 31  1  0
 32 30  2  0
M  END
$$$$
