QWI.pdb
     RDKit          3D

 32 33  0  0  1  0  0  0  0  0999 V2000
   28.6208  -18.8029  -14.7258 N   0  0  0  0  0  0  0  0  0  0  0  0
   28.4498  -19.2991  -16.0427 C   0  0  0  0  0  0  0  0  0  0  0  0
   29.2823  -19.0050  -16.9226 O   0  0  0  0  0  0  0  0  0  0  0  0
   27.2976  -20.1553  -16.3604 C   0  0  0  0  0  0  0  0  0  0  0  0
   26.5107  -20.4817  -15.1351 C   0  0  0  0  0  0  0  0  0  0  0  0
   27.1348  -21.5483  -14.2974 C   0  0  2  0  0  0  0  0  0  0  0  0
   26.9496  -22.8083  -14.9988 N   0  0  0  0  0  0  0  0  0  0  0  0
   26.4278  -21.6026  -12.9619 C   0  0  0  0  0  0  0  0  0  0  0  0
   25.2922  -22.1040  -12.8776 O   0  0  0  0  0  0  0  0  0  0  0  0
   27.0782  -21.0785  -11.8323 N   0  0  0  0  0  0  0  0  0  0  0  0
   26.4070  -20.8644  -10.5602 C   0  0  1  0  0  0  0  0  0  0  0  0
   27.2888  -20.1999   -9.5561 C   0  0  0  0  0  0  0  0  0  0  0  0
   26.7046  -20.3787   -8.2078 C   0  0  0  0  0  0  0  0  0  0  0  0
   25.4465  -20.8905   -7.9578 C   0  0  0  0  0  0  0  0  0  0  0  0
   25.2882  -20.8874   -6.6380 N   0  0  0  0  0  0  0  0  0  0  0  0
   26.3688  -20.4040   -6.0220 C   0  0  0  0  0  0  0  0  0  0  0  0
   26.7005  -20.1964   -4.7090 C   0  0  0  0  0  0  0  0  0  0  0  0
   27.9107  -19.6700   -4.3158 C   0  0  0  0  0  0  0  0  0  0  0  0
   28.7997  -19.3516   -5.3264 C   0  0  0  0  0  0  0  0  0  0  0  0
   28.4929  -19.5495   -6.6493 C   0  0  0  0  0  0  0  0  0  0  0  0
   27.2765  -20.0759   -6.9922 C   0  0  0  0  0  0  0  0  0  0  0  0
   25.1378  -20.1390  -10.7635 C   0  0  0  0  0  0  0  0  0  0  0  0
   25.1468  -18.9604  -11.1918 O   0  0  0  0  0  0  0  0  0  0  0  0
   22.4206  -19.2473  -14.6680 C   0  0  0  0  0  0  0  0  0  0  0  0
   22.5087  -19.0045  -13.1780 C   0  0  0  0  0  0  0  0  0  0  0  0
   22.5290  -20.3349  -12.4968 C   0  0  2  0  0  0  0  0  0  0  0  0
   21.2398  -21.0627  -12.7896 C   0  0  0  0  0  0  0  0  0  0  0  0
   22.6259  -20.1859  -10.9807 C   0  0  2  0  0  0  0  0  0  0  0  0
   23.8748  -20.7305  -10.4889 N   0  0  0  0  0  0  0  0  0  0  0  0
   21.5174  -20.9755  -10.3928 C   0  0  0  0  0  0  0  0  0  0  0  0
   20.1899  -20.5912  -10.5107 O   0  0  0  0  0  0  0  0  0  0  0  0
   21.7486  -22.0226   -9.7659 O   0  0  0  0  0  0  0  0  0  0  0  0
  2  3  2  0
  2  1  1  0
  4  2  1  0
  5  4  1  0
  6  5  1  0
  6  7  1  6
  8  6  1  0
  8  9  2  0
 10  8  1  0
 11 10  1  0
 11 12  1  1
 13 12  1  0
 13 14  2  0
 15 14  1  0
 16 15  1  0
 17 16  2  0
 18 17  1  0
 19 18  2  0
 19 20  1  0
 20 21  2  0
 21 16  1  0
 21 13  1  0
 22 11  1  0
 23 22  2  0
 25 24  1  0
 26 27  1  1
 26 28  1  0
 26 25  1  0
 28 29  1  1
 29 22  1  0
 30 28  1  0
 30 31  1  0
 32 30  2  0
M  END
$$$$
