QWI.pdb
     RDKit          3D

 32 33  0  0  1  0  0  0  0  0999 V2000
   27.0658  -21.6574  -16.6153 N   0  0  0  0  0  0  0  0  0  0  0  0
   28.4771  -21.5519  -16.6984 C   0  0  0  0  0  0  0  0  0  0  0  0
   29.0061  -21.2293  -17.7799 O   0  0  0  0  0  0  0  0  0  0  0  0
   29.3041  -21.8210  -15.5130 C   0  0  0  0  0  0  0  0  0  0  0  0
   28.4599  -22.0511  -14.3041 C   0  0  0  0  0  0  0  0  0  0  0  0
   27.5102  -20.9337  -14.0238 C   0  0  2  0  0  0  0  0  0  0  0  0
   28.3069  -19.7783  -13.6443 N   0  0  0  0  0  0  0  0  0  0  0  0
   26.6101  -21.3288  -12.8749 C   0  0  0  0  0  0  0  0  0  0  0  0
   26.0324  -22.4308  -12.8859 O   0  0  0  0  0  0  0  0  0  0  0  0
   26.4447  -20.4304  -11.8075 N   0  0  0  0  0  0  0  0  0  0  0  0
   25.4276  -20.5979  -10.7819 C   0  0  1  0  0  0  0  0  0  0  0  0
   25.7609  -19.8659   -9.5247 C   0  0  0  0  0  0  0  0  0  0  0  0
   26.9992  -20.4364   -8.9482 C   0  0  0  0  0  0  0  0  0  0  0  0
   27.8245  -21.3364   -9.5932 C   0  0  0  0  0  0  0  0  0  0  0  0
   28.8185  -21.6120   -8.7549 N   0  0  0  0  0  0  0  0  0  0  0  0
   28.6836  -20.9435   -7.6078 C   0  0  0  0  0  0  0  0  0  0  0  0
   29.4186  -20.8800   -6.4534 C   0  0  0  0  0  0  0  0  0  0  0  0
   29.0621  -20.0944   -5.3801 C   0  0  0  0  0  0  0  0  0  0  0  0
   27.9025  -19.3536   -5.5192 C   0  0  0  0  0  0  0  0  0  0  0  0
   27.1478  -19.3986   -6.6645 C   0  0  0  0  0  0  0  0  0  0  0  0
   27.5423  -20.1948   -7.7060 C   0  0  0  0  0  0  0  0  0  0  0  0
   24.0984  -20.2339  -11.3105 C   0  0  0  0  0  0  0  0  0  0  0  0
   23.8413  -19.0420  -11.6034 O   0  0  0  0  0  0  0  0  0  0  0  0
   21.3694  -23.7980  -14.4842 C   0  0  0  0  0  0  0  0  0  0  0  0
   21.6275  -23.1173  -13.1587 C   0  0  0  0  0  0  0  0  0  0  0  0
   21.5564  -21.6407  -13.3798 C   0  0  2  0  0  0  0  0  0  0  0  0
   22.6472  -21.2286  -14.3378 C   0  0  0  0  0  0  0  0  0  0  0  0
   21.7834  -20.8690  -12.0825 C   0  0  2  0  0  0  0  0  0  0  0  0
   23.0718  -21.1969  -11.5074 N   0  0  0  0  0  0  0  0  0  0  0  0
   20.7322  -21.2984  -11.1294 C   0  0  0  0  0  0  0  0  0  0  0  0
   19.3933  -20.9857  -11.3123 O   0  0  0  0  0  0  0  0  0  0  0  0
   21.0244  -21.9624  -10.1210 O   0  0  0  0  0  0  0  0  0  0  0  0
  2  3  2  0
  2  1  1  0
  4  2  1  0
  5  4  1  0
  6  5  1  0
  6  7  1  1
  8  6  1  0
  8  9  2  0
 10  8  1  0
 11 10  1  0
 11 12  1  1
 13 12  1  0
 13 14  2  0
 15 14  1  0
 16 15  1  0
 17 16  2  0
 18 17  1  0
 19 18  2  0
 19 20  1  0
 20 21  2  0
 21 16  1  0
 21 13  1  0
 22 11  1  0
 23 22  2  0
 25 24  1  0
 26 27  1  6
 26 28  1  0
 26 25  1  0
 28 29  1  1
 29 22  1  0
 30 28  1  0
 30 31  1  0
 32 30  2  0
M  END
$$$$
