QWI.pdb
     RDKit          3D

 32 33  0  0  1  0  0  0  0  0999 V2000
   27.9411  -17.0382  -14.5853 N   0  0  0  0  0  0  0  0  0  0  0  0
   28.3410  -17.5667  -15.8385 C   0  0  0  0  0  0  0  0  0  0  0  0
   29.0987  -16.9019  -16.5717 O   0  0  0  0  0  0  0  0  0  0  0  0
   27.8628  -18.8907  -16.2628 C   0  0  0  0  0  0  0  0  0  0  0  0
   27.0790  -19.5560  -15.1812 C   0  0  0  0  0  0  0  0  0  0  0  0
   27.7676  -20.7447  -14.5965 C   0  0  2  0  0  0  0  0  0  0  0  0
   27.6169  -21.8371  -15.5440 N   0  0  0  0  0  0  0  0  0  0  0  0
   27.0975  -21.1094  -13.2910 C   0  0  0  0  0  0  0  0  0  0  0  0
   26.0902  -21.8398  -13.2900 O   0  0  0  0  0  0  0  0  0  0  0  0
   27.6349  -20.6084  -12.0936 N   0  0  0  0  0  0  0  0  0  0  0  0
   27.0252  -20.8398  -10.7939 C   0  0  1  0  0  0  0  0  0  0  0  0
   27.9395  -20.4934   -9.6663 C   0  0  0  0  0  0  0  0  0  0  0  0
   27.1924  -20.5908   -8.3922 C   0  0  0  0  0  0  0  0  0  0  0  0
   25.9254  -21.1247   -8.2627 C   0  0  0  0  0  0  0  0  0  0  0  0
   25.5998  -21.0286   -6.9775 N   0  0  0  0  0  0  0  0  0  0  0  0
   26.5811  -20.4645   -6.2705 C   0  0  0  0  0  0  0  0  0  0  0  0
   26.7374  -20.1486   -4.9466 C   0  0  0  0  0  0  0  0  0  0  0  0
   27.8746  -19.5539   -4.4471 C   0  0  0  0  0  0  0  0  0  0  0  0
   28.8773  -19.2819   -5.3599 C   0  0  0  0  0  0  0  0  0  0  0  0
   28.7467  -19.5880   -6.6913 C   0  0  0  0  0  0  0  0  0  0  0  0
   27.5971  -20.1792   -7.1419 C   0  0  0  0  0  0  0  0  0  0  0  0
   25.7277  -20.1421  -10.7023 C   0  0  0  0  0  0  0  0  0  0  0  0
   25.6878  -18.8900  -10.6472 O   0  0  0  0  0  0  0  0  0  0  0  0
   22.1746  -18.3340  -13.8659 C   0  0  0  0  0  0  0  0  0  0  0  0
   21.8713  -19.5915  -13.0827 C   0  0  0  0  0  0  0  0  0  0  0  0
   23.1706  -20.1704  -12.6233 C   0  0  2  0  0  0  0  0  0  0  0  0
   23.3003  -21.5792  -13.1485 C   0  0  0  0  0  0  0  0  0  0  0  0
   23.2401  -20.2511  -11.1006 C   0  0  2  0  0  0  0  0  0  0  0  0
   24.4913  -20.8426  -10.6731 N   0  0  0  0  0  0  0  0  0  0  0  0
   22.1379  -21.1391  -10.6596 C   0  0  0  0  0  0  0  0  0  0  0  0
   20.9101  -20.6459  -10.2435 O   0  0  0  0  0  0  0  0  0  0  0  0
   22.2839  -22.3726  -10.6493 O   0  0  0  0  0  0  0  0  0  0  0  0
  2  3  2  0
  2  1  1  0
  4  2  1  0
  5  4  1  0
  6  5  1  0
  6  7  1  6
  8  6  1  0
  8  9  2  0
 10  8  1  0
 11 10  1  0
 11 12  1  1
 13 12  1  0
 13 14  2  0
 15 14  1  0
 16 15  1  0
 17 16  2  0
 18 17  1  0
 19 18  2  0
 19 20  1  0
 20 21  2  0
 21 16  1  0
 21 13  1  0
 22 11  1  0
 23 22  2  0
 25 24  1  0
 26 27  1  6
 26 28  1  0
 26 25  1  0
 28 29  1  6
 29 22  1  0
 30 28  1  0
 30 31  1  0
 32 30  2  0
M  END
$$$$
