QWI.pdb
     RDKit          3D

 32 33  0  0  1  0  0  0  0  0999 V2000
   27.2784  -22.3331  -18.0019 N   0  0  0  0  0  0  0  0  0  0  0  0
   28.6952  -22.3420  -17.9529 C   0  0  0  0  0  0  0  0  0  0  0  0
   29.3470  -22.1291  -18.9938 O   0  0  0  0  0  0  0  0  0  0  0  0
   29.3837  -22.5994  -16.6796 C   0  0  0  0  0  0  0  0  0  0  0  0
   28.4104  -22.7564  -15.5593 C   0  0  0  0  0  0  0  0  0  0  0  0
   27.6931  -21.4926  -15.2167 C   0  0  2  0  0  0  0  0  0  0  0  0
   28.6970  -20.4474  -15.1001 N   0  0  0  0  0  0  0  0  0  0  0  0
   26.9890  -21.6699  -13.8904 C   0  0  0  0  0  0  0  0  0  0  0  0
   26.0472  -22.4766  -13.7874 O   0  0  0  0  0  0  0  0  0  0  0  0
   27.4202  -20.9095  -12.7905 N   0  0  0  0  0  0  0  0  0  0  0  0
   26.7686  -20.9559  -11.4914 C   0  0  1  0  0  0  0  0  0  0  0  0
   27.6156  -20.3750  -10.4086 C   0  0  0  0  0  0  0  0  0  0  0  0
   26.8868  -20.4682   -9.1236 C   0  0  0  0  0  0  0  0  0  0  0  0
   25.5742  -20.8766   -8.9922 C   0  0  0  0  0  0  0  0  0  0  0  0
   25.2847  -20.8211   -7.6961 N   0  0  0  0  0  0  0  0  0  0  0  0
   26.3321  -20.4012   -6.9837 C   0  0  0  0  0  0  0  0  0  0  0  0
   26.5452  -20.1787   -5.6488 C   0  0  0  0  0  0  0  0  0  0  0  0
   27.7469  -19.7323   -5.1458 C   0  0  0  0  0  0  0  0  0  0  0  0
   28.7549  -19.5125   -6.0669 C   0  0  0  0  0  0  0  0  0  0  0  0
   28.5682  -19.7274   -7.4093 C   0  0  0  0  0  0  0  0  0  0  0  0
   27.3554  -20.1717   -7.8630 C   0  0  0  0  0  0  0  0  0  0  0  0
   25.4347  -20.3281  -11.5617 C   0  0  0  0  0  0  0  0  0  0  0  0
   25.3266  -19.0790  -11.5909 O   0  0  0  0  0  0  0  0  0  0  0  0
   23.2021  -19.3627  -14.6271 C   0  0  0  0  0  0  0  0  0  0  0  0
   23.2611  -20.8617  -14.4363 C   0  0  0  0  0  0  0  0  0  0  0  0
   22.4272  -21.2055  -13.2443 C   0  0  2  0  0  0  0  0  0  0  0  0
   21.0214  -20.7002  -13.4590 C   0  0  0  0  0  0  0  0  0  0  0  0
   22.9564  -20.5357  -11.9789 C   0  0  2  0  0  0  0  0  0  0  0  0
   24.2379  -21.0939  -11.5987 N   0  0  0  0  0  0  0  0  0  0  0  0
   21.9888  -20.8260  -10.8939 C   0  0  0  0  0  0  0  0  0  0  0  0
   21.3195  -19.8223  -10.2095 O   0  0  0  0  0  0  0  0  0  0  0  0
   21.7447  -21.9972  -10.5594 O   0  0  0  0  0  0  0  0  0  0  0  0
  2  3  2  0
  2  1  1  0
  4  2  1  0
  5  4  1  0
  6  5  1  0
  6  7  1  1
  8  6  1  0
  8  9  2  0
 10  8  1  0
 11 10  1  0
 11 12  1  1
 13 12  1  0
 13 14  2  0
 15 14  1  0
 16 15  1  0
 17 16  2  0
 18 17  1  0
 19 18  2  0
 19 20  1  0
 20 21  2  0
 21 16  1  0
 21 13  1  0
 22 11  1  0
 23 22  2  0
 25 24  1  0
 26 27  1  6
 26 28  1  0
 26 25  1  0
 28 29  1  1
 29 22  1  0
 30 28  1  0
 30 31  1  0
 32 30  2  0
M  END
$$$$
