QWI.pdb
     RDKit          3D

 32 33  0  0  1  0  0  0  0  0999 V2000
   17.7011  -15.5768  -17.9113 N   0  0  0  0  0  0  0  0  0  0  0  0
   19.0489  -15.3729  -18.3005 C   0  0  0  0  0  0  0  0  0  0  0  0
   19.7226  -16.3385  -18.7096 O   0  0  0  0  0  0  0  0  0  0  0  0
   19.6405  -14.0293  -18.2211 C   0  0  0  0  0  0  0  0  0  0  0  0
   18.7090  -13.0650  -17.5657 C   0  0  0  0  0  0  0  0  0  0  0  0
   18.6426  -11.7432  -18.2567 C   0  0  2  0  0  0  0  0  0  0  0  0
   19.6650  -11.7474  -19.2904 N   0  0  0  0  0  0  0  0  0  0  0  0
   18.9376  -10.6488  -17.2559 C   0  0  0  0  0  0  0  0  0  0  0  0
   18.2648  -10.5598  -16.2130 O   0  0  0  0  0  0  0  0  0  0  0  0
   19.9783   -9.7459  -17.5305 N   0  0  0  0  0  0  0  0  0  0  0  0
   20.2677   -8.5927  -16.6934 C   0  0  1  0  0  0  0  0  0  0  0  0
   21.7288   -8.4269  -16.4381 C   0  0  0  0  0  0  0  0  0  0  0  0
   22.1367   -9.3483  -15.3538 C   0  0  0  0  0  0  0  0  0  0  0  0
   22.8877  -10.4928  -15.5359 C   0  0  0  0  0  0  0  0  0  0  0  0
   23.0382  -11.0458  -14.3366 N   0  0  0  0  0  0  0  0  0  0  0  0
   22.4291  -10.3264  -13.3919 C   0  0  0  0  0  0  0  0  0  0  0  0
   22.2906  -10.4624  -12.0357 C   0  0  0  0  0  0  0  0  0  0  0  0
   21.5948   -9.5626  -11.2594 C   0  0  0  0  0  0  0  0  0  0  0  0
   21.0275   -8.4893  -11.9218 C   0  0  0  0  0  0  0  0  0  0  0  0
   21.1510   -8.3291  -13.2792 C   0  0  0  0  0  0  0  0  0  0  0  0
   21.8526   -9.2499  -14.0100 C   0  0  0  0  0  0  0  0  0  0  0  0
   19.6532   -7.3769  -17.2614 C   0  0  0  0  0  0  0  0  0  0  0  0
   19.9365   -7.0133  -18.4276 O   0  0  0  0  0  0  0  0  0  0  0  0
   14.7938   -6.1927  -18.5644 C   0  0  0  0  0  0  0  0  0  0  0  0
   16.2979   -6.0413  -18.5258 C   0  0  0  0  0  0  0  0  0  0  0  0
   16.6658   -5.4513  -17.2025 C   0  0  2  0  0  0  0  0  0  0  0  0
   16.1080   -4.0521  -17.1100 C   0  0  0  0  0  0  0  0  0  0  0  0
   18.1796   -5.3427  -17.0395 C   0  0  2  0  0  0  0  0  0  0  0  0
   18.7323   -6.5802  -16.5283 N   0  0  0  0  0  0  0  0  0  0  0  0
   18.4358   -4.2779  -16.0403 C   0  0  0  0  0  0  0  0  0  0  0  0
   18.8246   -4.5605  -14.7392 O   0  0  0  0  0  0  0  0  0  0  0  0
   18.3074   -3.0803  -16.3438 O   0  0  0  0  0  0  0  0  0  0  0  0
  2  3  2  0
  2  1  1  0
  4  2  1  0
  5  4  1  0
  6  5  1  0
  6  7  1  6
  8  6  1  0
  8  9  2  0
 10  8  1  0
 11 10  1  0
 11 12  1  6
 13 12  1  0
 13 14  2  0
 15 14  1  0
 16 15  1  0
 17 16  2  0
 18 17  1  0
 19 18  2  0
 19 20  1  0
 20 21  2  0
 21 16  1  0
 21 13  1  0
 22 11  1  0
 23 22  2  0
 25 24  1  0
 26 27  1  6
 26 28  1  0
 26 25  1  0
 28 29  1  1
 29 22  1  0
 30 28  1  0
 30 31  1  0
 32 30  2  0
M  END
$$$$
