QWI.pdb
     RDKit          3D

 32 33  0  0  1  0  0  0  0  0999 V2000
   27.1807  -22.2677  -18.7932 N   0  0  0  0  0  0  0  0  0  0  0  0
   28.3335  -21.4436  -18.8352 C   0  0  0  0  0  0  0  0  0  0  0  0
   28.8902  -21.2217  -19.9280 O   0  0  0  0  0  0  0  0  0  0  0  0
   28.8617  -20.8571  -17.5948 C   0  0  0  0  0  0  0  0  0  0  0  0
   27.9819  -21.1688  -16.4304 C   0  0  0  0  0  0  0  0  0  0  0  0
   28.6618  -21.9754  -15.3738 C   0  0  2  0  0  0  0  0  0  0  0  0
   28.8387  -23.3170  -15.9053 N   0  0  0  0  0  0  0  0  0  0  0  0
   27.7773  -22.0276  -14.1485 C   0  0  0  0  0  0  0  0  0  0  0  0
   26.6899  -22.6311  -14.1899 O   0  0  0  0  0  0  0  0  0  0  0  0
   28.2094  -21.3850  -12.9764 N   0  0  0  0  0  0  0  0  0  0  0  0
   27.4284  -21.3654  -11.7500 C   0  0  1  0  0  0  0  0  0  0  0  0
   28.2476  -20.9933  -10.5592 C   0  0  0  0  0  0  0  0  0  0  0  0
   27.3521  -20.8155   -9.3941 C   0  0  0  0  0  0  0  0  0  0  0  0
   25.9780  -20.9485   -9.4312 C   0  0  0  0  0  0  0  0  0  0  0  0
   25.5376  -20.7091   -8.2002 N   0  0  0  0  0  0  0  0  0  0  0  0
   26.5455  -20.4296   -7.3713 C   0  0  0  0  0  0  0  0  0  0  0  0
   26.6216  -20.1201   -6.0389 C   0  0  0  0  0  0  0  0  0  0  0  0
   27.8121  -19.8654   -5.3954 C   0  0  0  0  0  0  0  0  0  0  0  0
   28.9563  -19.9368   -6.1690 C   0  0  0  0  0  0  0  0  0  0  0  0
   28.9083  -20.2448   -7.5055 C   0  0  0  0  0  0  0  0  0  0  0  0
   27.7009  -20.4904   -8.1022 C   0  0  0  0  0  0  0  0  0  0  0  0
   26.2412  -20.5031  -11.9093 C   0  0  0  0  0  0  0  0  0  0  0  0
   26.3693  -19.2565  -11.9568 O   0  0  0  0  0  0  0  0  0  0  0  0
   21.5312  -22.1234  -14.0943 C   0  0  0  0  0  0  0  0  0  0  0  0
   23.0250  -21.9210  -13.9755 C   0  0  0  0  0  0  0  0  0  0  0  0
   23.2729  -20.4677  -13.7288 C   0  0  2  0  0  0  0  0  0  0  0  0
   24.3519  -19.9817  -14.6653 C   0  0  0  0  0  0  0  0  0  0  0  0
   23.7673  -20.2178  -12.3064 C   0  0  2  0  0  0  0  0  0  0  0  0
   24.9272  -21.0348  -12.0138 N   0  0  0  0  0  0  0  0  0  0  0  0
   22.6767  -20.6227  -11.3876 C   0  0  0  0  0  0  0  0  0  0  0  0
   21.5153  -19.8784  -11.2423 O   0  0  0  0  0  0  0  0  0  0  0  0
   22.7722  -21.6585  -10.7086 O   0  0  0  0  0  0  0  0  0  0  0  0
  2  3  2  0
  2  1  1  0
  4  2  1  0
  5  4  1  0
  6  5  1  0
  6  7  1  6
  8  6  1  0
  8  9  2  0
 10  8  1  0
 11 10  1  0
 11 12  1  1
 13 12  1  0
 13 14  2  0
 15 14  1  0
 16 15  1  0
 17 16  2  0
 18 17  1  0
 19 18  2  0
 19 20  1  0
 20 21  2  0
 21 16  1  0
 21 13  1  0
 22 11  1  0
 23 22  2  0
 25 24  1  0
 26 27  1  6
 26 28  1  0
 26 25  1  0
 28 29  1  1
 29 22  1  0
 30 28  1  0
 30 31  1  0
 32 30  2  0
M  END
$$$$
