QWI.pdb
     RDKit          3D

 32 33  0  0  1  0  0  0  0  0999 V2000
   27.3292  -21.5545  -18.0573 N   0  0  0  0  0  0  0  0  0  0  0  0
   27.7956  -20.2457  -17.7763 C   0  0  0  0  0  0  0  0  0  0  0  0
   28.4562  -19.6313  -18.6364 O   0  0  0  0  0  0  0  0  0  0  0  0
   27.4970  -19.6233  -16.4782 C   0  0  0  0  0  0  0  0  0  0  0  0
   26.7020  -20.5388  -15.6083 C   0  0  0  0  0  0  0  0  0  0  0  0
   27.5409  -21.3369  -14.6659 C   0  0  2  0  0  0  0  0  0  0  0  0
   27.6744  -22.6690  -15.2329 N   0  0  0  0  0  0  0  0  0  0  0  0
   26.8364  -21.4222  -13.3307 C   0  0  0  0  0  0  0  0  0  0  0  0
   25.7064  -21.9373  -13.2538 O   0  0  0  0  0  0  0  0  0  0  0  0
   27.4827  -20.9110  -12.1928 N   0  0  0  0  0  0  0  0  0  0  0  0
   26.8977  -20.9566  -10.8623 C   0  0  1  0  0  0  0  0  0  0  0  0
   27.8657  -20.5522   -9.8007 C   0  0  0  0  0  0  0  0  0  0  0  0
   27.1759  -20.5588   -8.4911 C   0  0  0  0  0  0  0  0  0  0  0  0
   25.8817  -20.9952   -8.2865 C   0  0  0  0  0  0  0  0  0  0  0  0
   25.6262  -20.8392   -6.9914 N   0  0  0  0  0  0  0  0  0  0  0  0
   26.6782  -20.3283   -6.3486 C   0  0  0  0  0  0  0  0  0  0  0  0
   26.9203  -19.9872   -5.0439 C   0  0  0  0  0  0  0  0  0  0  0  0
   28.1198  -19.4629   -4.6165 C   0  0  0  0  0  0  0  0  0  0  0  0
   29.0943  -19.2907   -5.5827 C   0  0  0  0  0  0  0  0  0  0  0  0
   28.8781  -19.6241   -6.8963 C   0  0  0  0  0  0  0  0  0  0  0  0
   27.6688  -20.1425   -7.2744 C   0  0  0  0  0  0  0  0  0  0  0  0
   25.6521  -20.1660  -10.8202 C   0  0  0  0  0  0  0  0  0  0  0  0
   25.6970  -18.9147  -10.8886 O   0  0  0  0  0  0  0  0  0  0  0  0
   21.7091  -18.7368  -14.2476 C   0  0  0  0  0  0  0  0  0  0  0  0
   21.7126  -19.0847  -12.7759 C   0  0  0  0  0  0  0  0  0  0  0  0
   23.0254  -19.7254  -12.4591 C   0  0  2  0  0  0  0  0  0  0  0  0
   23.1438  -21.0206  -13.2246 C   0  0  0  0  0  0  0  0  0  0  0  0
   23.1371  -20.0689  -10.9760 C   0  0  2  0  0  0  0  0  0  0  0  0
   24.3726  -20.7739  -10.7027 N   0  0  0  0  0  0  0  0  0  0  0  0
   22.0097  -20.9754  -10.6517 C   0  0  0  0  0  0  0  0  0  0  0  0
   22.1984  -22.3189  -10.3632 O   0  0  0  0  0  0  0  0  0  0  0  0
   20.8424  -20.5514  -10.6287 O   0  0  0  0  0  0  0  0  0  0  0  0
  2  3  2  0
  2  1  1  0
  4  2  1  0
  5  4  1  0
  6  5  1  0
  6  7  1  6
  8  6  1  0
  8  9  2  0
 10  8  1  0
 11 10  1  0
 11 12  1  1
 13 12  1  0
 13 14  2  0
 15 14  1  0
 16 15  1  0
 17 16  2  0
 18 17  1  0
 19 18  2  0
 19 20  1  0
 20 21  2  0
 21 16  1  0
 21 13  1  0
 22 11  1  0
 23 22  2  0
 25 24  1  0
 26 27  1  6
 26 28  1  0
 26 25  1  0
 28 29  1  6
 29 22  1  0
 30 28  1  0
 30 31  1  0
 32 30  2  0
M  END
$$$$
