QWI.pdb
     RDKit          3D

 32 33  0  0  1  0  0  0  0  0999 V2000
   28.2026  -18.2627  -16.8846 N   0  0  0  0  0  0  0  0  0  0  0  0
   28.4357  -19.1192  -17.9900 C   0  0  0  0  0  0  0  0  0  0  0  0
   29.2346  -18.7691  -18.8803 O   0  0  0  0  0  0  0  0  0  0  0  0
   27.7379  -20.4104  -18.0777 C   0  0  0  0  0  0  0  0  0  0  0  0
   26.9401  -20.6800  -16.8457 C   0  0  0  0  0  0  0  0  0  0  0  0
   27.7712  -21.1233  -15.6874 C   0  0  2  0  0  0  0  0  0  0  0  0
   28.4174  -22.3670  -16.0737 N   0  0  0  0  0  0  0  0  0  0  0  0
   26.8690  -21.3682  -14.4989 C   0  0  0  0  0  0  0  0  0  0  0  0
   26.0815  -22.3315  -14.5021 O   0  0  0  0  0  0  0  0  0  0  0  0
   26.9419  -20.4907  -13.4042 N   0  0  0  0  0  0  0  0  0  0  0  0
   25.9874  -20.5117  -12.3075 C   0  0  1  0  0  0  0  0  0  0  0  0
   26.4032  -19.6344  -11.1740 C   0  0  0  0  0  0  0  0  0  0  0  0
   27.4929  -20.2988  -10.4243 C   0  0  0  0  0  0  0  0  0  0  0  0
   28.5839  -20.9154  -11.0045 C   0  0  0  0  0  0  0  0  0  0  0  0
   29.3266  -21.3923  -10.0107 N   0  0  0  0  0  0  0  0  0  0  0  0
   28.7798  -21.1202   -8.8241 C   0  0  0  0  0  0  0  0  0  0  0  0
   29.1399  -21.3853   -7.5291 C   0  0  0  0  0  0  0  0  0  0  0  0
   28.3875  -20.9891   -6.4459 C   0  0  0  0  0  0  0  0  0  0  0  0
   27.2244  -20.2952   -6.7263 C   0  0  0  0  0  0  0  0  0  0  0  0
   26.8406  -20.0164   -8.0141 C   0  0  0  0  0  0  0  0  0  0  0  0
   27.6213  -20.4307   -9.0595 C   0  0  0  0  0  0  0  0  0  0  0  0
   24.6321  -20.1943  -12.7983 C   0  0  0  0  0  0  0  0  0  0  0  0
   24.4225  -19.1294  -13.4266 O   0  0  0  0  0  0  0  0  0  0  0  0
   20.5008  -21.8991  -16.3108 C   0  0  0  0  0  0  0  0  0  0  0  0
   20.5780  -21.2909  -14.9285 C   0  0  0  0  0  0  0  0  0  0  0  0
   21.9373  -21.5773  -14.3765 C   0  0  2  0  0  0  0  0  0  0  0  0
   22.0311  -23.0412  -14.0217 C   0  0  0  0  0  0  0  0  0  0  0  0
   22.1995  -20.7877  -13.0967 C   0  0  2  0  0  0  0  0  0  0  0  0
   23.5268  -21.0622  -12.5856 N   0  0  0  0  0  0  0  0  0  0  0  0
   21.2148  -21.2495  -12.0893 C   0  0  0  0  0  0  0  0  0  0  0  0
   21.5872  -21.9739  -10.9666 O   0  0  0  0  0  0  0  0  0  0  0  0
   20.0059  -20.9973  -12.2232 O   0  0  0  0  0  0  0  0  0  0  0  0
  2  3  2  0
  2  1  1  0
  4  2  1  0
  5  4  1  0
  6  5  1  0
  6  7  1  6
  8  6  1  0
  8  9  2  0
 10  8  1  0
 11 10  1  0
 11 12  1  1
 13 12  1  0
 13 14  2  0
 15 14  1  0
 16 15  1  0
 17 16  2  0
 18 17  1  0
 19 18  2  0
 19 20  1  0
 20 21  2  0
 21 16  1  0
 21 13  1  0
 22 11  1  0
 23 22  2  0
 25 24  1  0
 26 27  1  1
 26 28  1  0
 26 25  1  0
 28 29  1  1
 29 22  1  0
 30 28  1  0
 30 31  1  0
 32 30  2  0
M  END
$$$$
