QWI.pdb
     RDKit          3D

 32 33  0  0  1  0  0  0  0  0999 V2000
   27.2845  -17.9073  -17.2044 N   0  0  0  0  0  0  0  0  0  0  0  0
   28.4596  -17.4117  -16.5854 C   0  0  0  0  0  0  0  0  0  0  0  0
   29.1621  -16.5738  -17.1836 O   0  0  0  0  0  0  0  0  0  0  0  0
   28.8396  -17.8861  -15.2466 C   0  0  0  0  0  0  0  0  0  0  0  0
   27.7997  -18.7926  -14.6775 C   0  0  0  0  0  0  0  0  0  0  0  0
   28.3512  -20.0881  -14.1811 C   0  0  2  0  0  0  0  0  0  0  0  0
   28.9392  -20.7699  -15.3227 N   0  0  0  0  0  0  0  0  0  0  0  0
   27.2214  -20.9214  -13.6193 C   0  0  0  0  0  0  0  0  0  0  0  0
   26.5360  -21.6332  -14.3755 O   0  0  0  0  0  0  0  0  0  0  0  0
   26.9683  -20.8718  -12.2383 N   0  0  0  0  0  0  0  0  0  0  0  0
   25.8973  -21.6218  -11.6020 C   0  0  1  0  0  0  0  0  0  0  0  0
   26.2578  -22.0727  -10.2257 C   0  0  0  0  0  0  0  0  0  0  0  0
   26.4092  -20.8864   -9.3536 C   0  0  0  0  0  0  0  0  0  0  0  0
   25.6176  -19.7566   -9.4188 C   0  0  0  0  0  0  0  0  0  0  0  0
   26.0656  -18.9218   -8.4866 N   0  0  0  0  0  0  0  0  0  0  0  0
   27.0989  -19.4456   -7.8239 C   0  0  0  0  0  0  0  0  0  0  0  0
   27.8940  -19.0021   -6.8002 C   0  0  0  0  0  0  0  0  0  0  0  0
   28.9256  -19.7482   -6.2752 C   0  0  0  0  0  0  0  0  0  0  0  0
   29.1308  -20.9947   -6.8380 C   0  0  0  0  0  0  0  0  0  0  0  0
   28.3491  -21.4632   -7.8641 C   0  0  0  0  0  0  0  0  0  0  0  0
   27.3345  -20.6853   -8.3536 C   0  0  0  0  0  0  0  0  0  0  0  0
   24.6401  -20.8492  -11.6308 C   0  0  0  0  0  0  0  0  0  0  0  0
   24.6544  -19.6137  -11.4162 O   0  0  0  0  0  0  0  0  0  0  0  0
   21.2699  -19.8060  -15.8634 C   0  0  0  0  0  0  0  0  0  0  0  0
   20.8912  -20.3456  -14.5024 C   0  0  0  0  0  0  0  0  0  0  0  0
   22.0885  -21.0362  -13.9333 C   0  0  2  0  0  0  0  0  0  0  0  0
   21.9087  -22.5291  -14.0616 C   0  0  0  0  0  0  0  0  0  0  0  0
   22.2572  -20.7307  -12.4473 C   0  0  2  0  0  0  0  0  0  0  0  0
   23.3832  -21.4571  -11.8972 N   0  0  0  0  0  0  0  0  0  0  0  0
   21.0289  -21.2004  -11.7629 C   0  0  0  0  0  0  0  0  0  0  0  0
   20.2051  -20.3435  -11.0479 O   0  0  0  0  0  0  0  0  0  0  0  0
   20.6954  -22.3960  -11.8099 O   0  0  0  0  0  0  0  0  0  0  0  0
  2  3  2  0
  2  1  1  0
  4  2  1  0
  5  4  1  0
  6  5  1  0
  6  7  1  6
  8  6  1  0
  8  9  2  0
 10  8  1  0
 11 10  1  0
 11 12  1  1
 13 12  1  0
 13 14  2  0
 15 14  1  0
 16 15  1  0
 17 16  2  0
 18 17  1  0
 19 18  2  0
 19 20  1  0
 20 21  2  0
 21 16  1  0
 21 13  1  0
 22 11  1  0
 23 22  2  0
 25 24  1  0
 26 27  1  1
 26 28  1  0
 26 25  1  0
 28 29  1  1
 29 22  1  0
 30 28  1  0
 30 31  1  0
 32 30  2  0
M  END
$$$$
