QWI.pdb
     RDKit          3D

 32 33  0  0  1  0  0  0  0  0999 V2000
   25.8702  -23.3544  -18.6598 N   0  0  0  0  0  0  0  0  0  0  0  0
   24.8540  -22.3689  -18.5824 C   0  0  0  0  0  0  0  0  0  0  0  0
   23.7449  -22.6673  -18.0982 O   0  0  0  0  0  0  0  0  0  0  0  0
   25.1144  -21.0065  -19.0700 C   0  0  0  0  0  0  0  0  0  0  0  0
   26.2388  -20.3695  -18.3238 C   0  0  0  0  0  0  0  0  0  0  0  0
   25.7860  -19.3762  -17.3053 C   0  0  2  0  0  0  0  0  0  0  0  0
   26.8090  -18.3461  -17.2259 N   0  0  0  0  0  0  0  0  0  0  0  0
   25.6568  -20.0672  -15.9667 C   0  0  0  0  0  0  0  0  0  0  0  0
   24.9022  -21.0486  -15.8419 O   0  0  0  0  0  0  0  0  0  0  0  0
   26.4018  -19.5786  -14.8804 N   0  0  0  0  0  0  0  0  0  0  0  0
   26.2978  -20.1275  -13.5379 C   0  0  1  0  0  0  0  0  0  0  0  0
   27.4540  -19.7449  -12.6752 C   0  0  0  0  0  0  0  0  0  0  0  0
   27.3885  -20.5136  -11.4119 C   0  0  0  0  0  0  0  0  0  0  0  0
   27.6338  -21.8682  -11.3024 C   0  0  0  0  0  0  0  0  0  0  0  0
   27.4712  -22.1836  -10.0214 N   0  0  0  0  0  0  0  0  0  0  0  0
   27.1355  -21.1133   -9.2983 C   0  0  0  0  0  0  0  0  0  0  0  0
   26.8634  -20.9111   -7.9708 C   0  0  0  0  0  0  0  0  0  0  0  0
   26.5314  -19.6791   -7.4530 C   0  0  0  0  0  0  0  0  0  0  0  0
   26.4828  -18.6281   -8.3506 C   0  0  0  0  0  0  0  0  0  0  0  0
   26.7510  -18.8030   -9.6851 C   0  0  0  0  0  0  0  0  0  0  0  0
   27.0769  -20.0471  -10.1542 C   0  0  0  0  0  0  0  0  0  0  0  0
   25.0002  -19.7676  -12.9336 C   0  0  0  0  0  0  0  0  0  0  0  0
   24.6815  -18.5626  -12.7959 O   0  0  0  0  0  0  0  0  0  0  0  0
   19.2346  -21.1057  -13.0138 C   0  0  0  0  0  0  0  0  0  0  0  0
   20.3252  -20.6596  -12.0660 C   0  0  0  0  0  0  0  0  0  0  0  0
   21.6414  -20.9364  -12.7183 C   0  0  2  0  0  0  0  0  0  0  0  0
   21.8256  -22.4283  -12.8519 C   0  0  0  0  0  0  0  0  0  0  0  0
   22.8035  -20.4143  -11.8775 C   0  0  2  0  0  0  0  0  0  0  0  0
   24.0729  -20.7491  -12.4898 N   0  0  0  0  0  0  0  0  0  0  0  0
   22.7331  -21.0972  -10.5635 C   0  0  0  0  0  0  0  0  0  0  0  0
   21.8209  -20.7299   -9.5853 O   0  0  0  0  0  0  0  0  0  0  0  0
   23.5025  -22.0347  -10.2948 O   0  0  0  0  0  0  0  0  0  0  0  0
  2  3  2  0
  2  1  1  0
  4  2  1  0
  5  4  1  0
  6  5  1  0
  6  7  1  1
  8  6  1  0
  8  9  2  0
 10  8  1  0
 11 10  1  0
 11 12  1  1
 13 12  1  0
 13 14  2  0
 15 14  1  0
 16 15  1  0
 17 16  2  0
 18 17  1  0
 19 18  2  0
 19 20  1  0
 20 21  2  0
 21 16  1  0
 21 13  1  0
 22 11  1  0
 23 22  2  0
 25 24  1  0
 26 27  1  1
 26 28  1  0
 26 25  1  0
 28 29  1  6
 29 22  1  0
 30 28  1  0
 30 31  1  0
 32 30  2  0
M  END
$$$$
