QWI.pdb
     RDKit          3D

 32 33  0  0  1  0  0  0  0  0999 V2000
   24.8977  -20.7223  -18.4268 N   0  0  0  0  0  0  0  0  0  0  0  0
   25.9636  -20.0983  -17.7311 C   0  0  0  0  0  0  0  0  0  0  0  0
   26.1150  -18.8642  -17.8188 O   0  0  0  0  0  0  0  0  0  0  0  0
   26.8787  -20.9071  -16.9125 C   0  0  0  0  0  0  0  0  0  0  0  0
   26.3471  -21.0955  -15.5309 C   0  0  0  0  0  0  0  0  0  0  0  0
   27.4167  -21.2577  -14.5020 C   0  0  2  0  0  0  0  0  0  0  0  0
   28.1659  -22.4550  -14.8467 N   0  0  0  0  0  0  0  0  0  0  0  0
   26.7724  -21.4354  -13.1456 C   0  0  0  0  0  0  0  0  0  0  0  0
   25.6545  -21.9737  -13.0521 O   0  0  0  0  0  0  0  0  0  0  0  0
   27.4602  -20.9826  -12.0074 N   0  0  0  0  0  0  0  0  0  0  0  0
   26.8639  -20.9527  -10.6815 C   0  0  1  0  0  0  0  0  0  0  0  0
   27.8248  -20.4947   -9.6353 C   0  0  0  0  0  0  0  0  0  0  0  0
   27.1553  -20.5327   -8.3156 C   0  0  0  0  0  0  0  0  0  0  0  0
   25.8710  -20.9917   -8.0986 C   0  0  0  0  0  0  0  0  0  0  0  0
   25.6331  -20.8604   -6.7975 N   0  0  0  0  0  0  0  0  0  0  0  0
   26.6872  -20.3441   -6.1624 C   0  0  0  0  0  0  0  0  0  0  0  0
   26.9442  -20.0204   -4.8562 C   0  0  0  0  0  0  0  0  0  0  0  0
   28.1422  -19.4850   -4.4385 C   0  0  0  0  0  0  0  0  0  0  0  0
   29.0991  -19.2827   -5.4163 C   0  0  0  0  0  0  0  0  0  0  0  0
   28.8677  -19.5982   -6.7317 C   0  0  0  0  0  0  0  0  0  0  0  0
   27.6606  -20.1286   -7.1000 C   0  0  0  0  0  0  0  0  0  0  0  0
   25.6216  -20.1558  -10.6935 C   0  0  0  0  0  0  0  0  0  0  0  0
   25.6721  -18.9117  -10.8425 O   0  0  0  0  0  0  0  0  0  0  0  0
   22.1360  -18.2121  -13.9246 C   0  0  0  0  0  0  0  0  0  0  0  0
   21.7736  -19.1633  -12.8063 C   0  0  0  0  0  0  0  0  0  0  0  0
   23.0108  -19.9066  -12.4173 C   0  0  2  0  0  0  0  0  0  0  0  0
   22.9674  -21.2913  -13.0157 C   0  0  0  0  0  0  0  0  0  0  0  0
   23.1100  -20.0749  -10.9034 C   0  0  2  0  0  0  0  0  0  0  0  0
   24.3393  -20.7494  -10.5400 N   0  0  0  0  0  0  0  0  0  0  0  0
   21.9749  -20.9313  -10.4841 C   0  0  0  0  0  0  0  0  0  0  0  0
   22.1263  -22.2838  -10.2163 O   0  0  0  0  0  0  0  0  0  0  0  0
   20.8346  -20.4549  -10.3582 O   0  0  0  0  0  0  0  0  0  0  0  0
  2  3  2  0
  2  1  1  0
  4  2  1  0
  5  4  1  0
  6  5  1  0
  6  7  1  6
  8  6  1  0
  8  9  2  0
 10  8  1  0
 11 10  1  0
 11 12  1  1
 13 12  1  0
 13 14  2  0
 15 14  1  0
 16 15  1  0
 17 16  2  0
 18 17  1  0
 19 18  2  0
 19 20  1  0
 20 21  2  0
 21 16  1  0
 21 13  1  0
 22 11  1  0
 23 22  2  0
 25 24  1  0
 26 27  1  6
 26 28  1  0
 26 25  1  0
 28 29  1  6
 29 22  1  0
 30 28  1  0
 30 31  1  0
 32 30  2  0
M  END
$$$$
