QWI.pdb
     RDKit          3D

 32 33  0  0  1  0  0  0  0  0999 V2000
   24.1988  -18.0946  -14.0364 N   0  0  0  0  0  0  0  0  0  0  0  0
   24.7402  -19.1638  -14.7936 C   0  0  0  0  0  0  0  0  0  0  0  0
   24.9841  -18.9969  -16.0045 O   0  0  0  0  0  0  0  0  0  0  0  0
   25.0111  -20.4567  -14.1481 C   0  0  0  0  0  0  0  0  0  0  0  0
   24.6838  -20.4149  -12.6927 C   0  0  0  0  0  0  0  0  0  0  0  0
   25.8667  -20.6510  -11.8129 C   0  0  2  0  0  0  0  0  0  0  0  0
   26.7015  -21.6417  -12.4727 N   0  0  0  0  0  0  0  0  0  0  0  0
   25.3915  -21.1924  -10.4835 C   0  0  0  0  0  0  0  0  0  0  0  0
   25.2416  -22.4177  -10.3270 O   0  0  0  0  0  0  0  0  0  0  0  0
   25.1266  -20.2874   -9.4421 N   0  0  0  0  0  0  0  0  0  0  0  0
   24.5102  -20.6837   -8.1861 C   0  0  1  0  0  0  0  0  0  0  0  0
   24.8017  -19.7238   -7.0811 C   0  0  0  0  0  0  0  0  0  0  0  0
   26.2680  -19.6202   -6.9064 C   0  0  0  0  0  0  0  0  0  0  0  0
   27.1204  -18.9768   -7.7819 C   0  0  0  0  0  0  0  0  0  0  0  0
   28.3466  -19.1057   -7.2855 N   0  0  0  0  0  0  0  0  0  0  0  0
   28.3360  -19.7939   -6.1421 C   0  0  0  0  0  0  0  0  0  0  0  0
   29.3089  -20.1886   -5.2620 C   0  0  0  0  0  0  0  0  0  0  0  0
   29.0393  -20.9116   -4.1214 C   0  0  0  0  0  0  0  0  0  0  0  0
   27.7127  -21.2308   -3.8955 C   0  0  0  0  0  0  0  0  0  0  0  0
   26.7187  -20.8479   -4.7607 C   0  0  0  0  0  0  0  0  0  0  0  0
   27.0350  -20.1297   -5.8824 C   0  0  0  0  0  0  0  0  0  0  0  0
   23.0632  -20.9080   -8.3709 C   0  0  0  0  0  0  0  0  0  0  0  0
   22.4191  -20.2195   -9.1977 O   0  0  0  0  0  0  0  0  0  0  0  0
   19.0471  -25.3597   -8.5730 C   0  0  0  0  0  0  0  0  0  0  0  0
   19.2063  -23.9020   -8.2032 C   0  0  0  0  0  0  0  0  0  0  0  0
   20.6670  -23.6250   -8.0480 C   0  0  2  0  0  0  0  0  0  0  0  0
   21.1866  -24.3620   -6.8379 C   0  0  0  0  0  0  0  0  0  0  0  0
   20.9335  -22.1398   -7.8175 C   0  0  2  0  0  0  0  0  0  0  0  0
   22.3493  -21.8932   -7.6360 N   0  0  0  0  0  0  0  0  0  0  0  0
   20.2369  -21.7604   -6.5651 C   0  0  0  0  0  0  0  0  0  0  0  0
   18.8701  -21.5291   -6.5181 O   0  0  0  0  0  0  0  0  0  0  0  0
   20.8676  -21.6360   -5.5022 O   0  0  0  0  0  0  0  0  0  0  0  0
  2  3  2  0
  2  1  1  0
  4  2  1  0
  5  4  1  0
  6  5  1  0
  6  7  1  6
  8  6  1  0
  8  9  2  0
 10  8  1  0
 11 10  1  0
 11 12  1  1
 13 12  1  0
 13 14  2  0
 15 14  1  0
 16 15  1  0
 17 16  2  0
 18 17  1  0
 19 18  2  0
 19 20  1  0
 20 21  2  0
 21 16  1  0
 21 13  1  0
 22 11  1  0
 23 22  2  0
 25 24  1  0
 26 27  1  1
 26 28  1  0
 26 25  1  0
 28 29  1  1
 29 22  1  0
 30 28  1  0
 30 31  1  0
 32 30  2  0
M  END
$$$$
