VYN.pdb
     RDKit          3D

 28 28  0  0  1  0  0  0  0  0999 V2000
   10.7949  -18.8856   20.9681 C   0  0  0  0  0  0  0  0  0  0  0  0
    9.4792  -18.5489   20.3493 C   0  0  2  0  0  0  0  0  0  0  0  0
    9.1644  -19.4625   19.1878 C   0  0  0  0  0  0  0  0  0  0  0  0
    9.4229  -17.0929   19.9617 C   0  0  2  0  0  0  0  0  0  0  0  0
   10.5360  -16.8456   19.0643 N   0  0  0  0  0  0  0  0  0  0  0  0
    9.5798  -16.1933   21.1293 C   0  0  0  0  0  0  0  0  0  0  0  0
   10.7271  -15.7231   21.4324 O   0  0  0  0  0  0  0  0  0  0  0  0
    6.0885  -11.0300   27.7159 O   0  0  0  0  0  0  0  0  0  0  0  0
    6.3825  -11.8243   26.6018 C   0  0  0  0  0  0  0  0  0  0  0  0
    6.9912  -11.3111   25.4803 C   0  0  0  0  0  0  0  0  0  0  0  0
    7.2706  -12.1276   24.3877 C   0  0  0  0  0  0  0  0  0  0  0  0
    6.9577  -13.4653   24.3757 C   0  0  0  0  0  0  0  0  0  0  0  0
    7.2659  -14.3010   23.2355 C   0  0  0  0  0  0  0  0  0  0  0  0
    8.6270  -14.8285   23.0517 C   0  0  2  0  0  0  0  0  0  0  0  0
    8.5065  -15.8202   21.9416 N   0  0  0  0  0  0  0  0  0  0  0  0
    9.2317  -15.5516   24.1739 C   0  0  0  0  0  0  0  0  0  0  0  0
    9.6276  -14.9529   25.2363 O   0  0  0  0  0  0  0  0  0  0  0  0
    6.3404  -13.9696   25.5215 C   0  0  0  0  0  0  0  0  0  0  0  0
    6.0638  -13.1606   26.6031 C   0  0  0  0  0  0  0  0  0  0  0  0
    9.4631  -20.7428   27.2206 N   0  0  0  0  0  0  0  0  0  0  0  0
   10.2412  -19.8094   26.4888 C   0  0  0  0  0  0  0  0  0  0  0  0
   11.4395  -19.6569   26.8179 O   0  0  0  0  0  0  0  0  0  0  0  0
    9.5957  -19.0714   25.3824 C   0  0  0  0  0  0  0  0  0  0  0  0
   10.0446  -17.6170   25.2984 C   0  0  2  0  0  0  0  0  0  0  0  0
    9.4126  -16.9573   24.1630 N   0  0  0  0  0  0  0  0  0  0  0  0
   11.5068  -17.5911   25.1884 C   0  0  0  0  0  0  0  0  0  0  0  0
   12.1637  -17.1478   26.1884 O   0  0  0  0  0  0  0  0  0  0  0  0
   12.1391  -18.0291   24.0511 O   0  0  0  0  0  0  0  0  0  0  0  0
  2  1  1  6
  2  3  1  0
  4  2  1  0
  4  5  1  6
  6  4  1  0
  6  7  2  0
  8  9  1  0
  9 10  2  0
 10 11  1  0
 12 13  1  0
 12 11  2  0
 14 13  1  1
 14 15  1  0
 15  6  1  0
 16 14  1  0
 17 16  2  0
 18 12  1  0
 19 18  2  0
 19  9  1  0
 20 21  1  0
 21 22  2  0
 21 23  1  0
 24 23  1  6
 24 25  1  0
 24 26  1  0
 25 16  1  0
 26 28  1  0
 27 26  2  0
M  END
$$$$
