VYN.pdb
     RDKit          3D

 28 28  0  0  1  0  0  0  0  0999 V2000
    8.0695  -16.7827   17.9228 C   0  0  0  0  0  0  0  0  0  0  0  0
    9.2028  -17.6554   17.4972 C   0  0  2  0  0  0  0  0  0  0  0  0
    8.7958  -18.5824   16.3756 C   0  0  0  0  0  0  0  0  0  0  0  0
    9.7795  -18.4016   18.6736 C   0  0  2  0  0  0  0  0  0  0  0  0
    8.7482  -19.3004   19.1575 N   0  0  0  0  0  0  0  0  0  0  0  0
   10.1456  -17.4969   19.7891 C   0  0  0  0  0  0  0  0  0  0  0  0
   11.1026  -16.6627   19.6562 O   0  0  0  0  0  0  0  0  0  0  0  0
    6.9200  -12.0504   18.5784 O   0  0  0  0  0  0  0  0  0  0  0  0
    7.3405  -12.9857   19.5307 C   0  0  0  0  0  0  0  0  0  0  0  0
    6.5714  -14.0729   19.8744 C   0  0  0  0  0  0  0  0  0  0  0  0
    7.0178  -14.9860   20.8260 C   0  0  0  0  0  0  0  0  0  0  0  0
    8.2296  -14.8490   21.4587 C   0  0  0  0  0  0  0  0  0  0  0  0
    8.6822  -15.8142   22.4370 C   0  0  0  0  0  0  0  0  0  0  0  0
    9.8700  -16.6392   22.1671 C   0  0  2  0  0  0  0  0  0  0  0  0
    9.4794  -17.5078   21.0167 N   0  0  0  0  0  0  0  0  0  0  0  0
   10.3188  -17.5491   23.2246 C   0  0  0  0  0  0  0  0  0  0  0  0
   10.0137  -18.7945   23.2268 O   0  0  0  0  0  0  0  0  0  0  0  0
    8.9972  -13.7402   21.0983 C   0  0  0  0  0  0  0  0  0  0  0  0
    8.5545  -12.8362   20.1561 C   0  0  0  0  0  0  0  0  0  0  0  0
   15.6554  -18.6112   23.9464 N   0  0  0  0  0  0  0  0  0  0  0  0
   14.3243  -19.0931   24.0380 C   0  0  0  0  0  0  0  0  0  0  0  0
   14.1498  -20.2638   24.4461 O   0  0  0  0  0  0  0  0  0  0  0  0
   13.2217  -18.1890   23.6479 C   0  0  0  0  0  0  0  0  0  0  0  0
   12.2230  -17.9512   24.7749 C   0  0  2  0  0  0  0  0  0  0  0  0
   11.1231  -17.1167   24.3085 N   0  0  0  0  0  0  0  0  0  0  0  0
   12.9326  -17.3267   25.8961 C   0  0  0  0  0  0  0  0  0  0  0  0
   13.5569  -16.2385   25.6637 O   0  0  0  0  0  0  0  0  0  0  0  0
   12.9215  -17.8952   27.1458 O   0  0  0  0  0  0  0  0  0  0  0  0
  2  1  1  1
  2  3  1  0
  4  2  1  0
  4  5  1  1
  6  4  1  0
  6  7  2  0
  8  9  1  0
  9 10  2  0
 10 11  1  0
 12 13  1  0
 12 11  2  0
 14 13  1  1
 14 15  1  0
 15  6  1  0
 16 14  1  0
 17 16  2  0
 18 12  1  0
 19 18  2  0
 19  9  1  0
 20 21  1  0
 21 22  2  0
 21 23  1  0
 24 23  1  6
 24 25  1  0
 24 26  1  0
 25 16  1  0
 26 28  1  0
 27 26  2  0
M  END
$$$$
