VYN.pdb
     RDKit          3D

 28 28  0  0  1  0  0  0  0  0999 V2000
    9.0785  -15.5982   18.1988 C   0  0  0  0  0  0  0  0  0  0  0  0
    7.6585  -15.1472   18.1142 C   0  0  2  0  0  0  0  0  0  0  0  0
    7.1567  -15.1650   16.6891 C   0  0  0  0  0  0  0  0  0  0  0  0
    7.4818  -13.7985   18.7647 C   0  0  2  0  0  0  0  0  0  0  0  0
    8.2029  -12.8347   17.9543 N   0  0  0  0  0  0  0  0  0  0  0  0
    8.0545  -13.7535   20.1311 C   0  0  0  0  0  0  0  0  0  0  0  0
    9.2898  -13.4830   20.3046 O   0  0  0  0  0  0  0  0  0  0  0  0
    7.6425  -13.2584   29.1269 O   0  0  0  0  0  0  0  0  0  0  0  0
    7.4519  -13.2875   27.7407 C   0  0  0  0  0  0  0  0  0  0  0  0
    7.8939  -12.2743   26.9223 C   0  0  0  0  0  0  0  0  0  0  0  0
    7.6889  -12.3327   25.5464 C   0  0  0  0  0  0  0  0  0  0  0  0
    7.0457  -13.3884   24.9472 C   0  0  0  0  0  0  0  0  0  0  0  0
    6.8516  -13.4374   23.5142 C   0  0  0  0  0  0  0  0  0  0  0  0
    7.8731  -14.0494   22.6501 C   0  0  2  0  0  0  0  0  0  0  0  0
    7.2919  -13.9985   21.2753 N   0  0  0  0  0  0  0  0  0  0  0  0
    8.2130  -15.4543   22.8918 C   0  0  0  0  0  0  0  0  0  0  0  0
    7.7539  -16.4021   22.1604 O   0  0  0  0  0  0  0  0  0  0  0  0
    6.6035  -14.4077   25.7922 C   0  0  0  0  0  0  0  0  0  0  0  0
    6.8066  -14.3493   27.1546 C   0  0  0  0  0  0  0  0  0  0  0  0
   11.6625  -18.8048   21.5750 N   0  0  0  0  0  0  0  0  0  0  0  0
   11.9807  -17.6655   22.3580 C   0  0  0  0  0  0  0  0  0  0  0  0
   13.1332  -17.5872   22.8409 O   0  0  0  0  0  0  0  0  0  0  0  0
   10.9371  -16.6379   22.5591 C   0  0  0  0  0  0  0  0  0  0  0  0
   10.0143  -16.9516   23.7313 C   0  0  2  0  0  0  0  0  0  0  0  0
    9.0747  -15.8578   23.9423 N   0  0  0  0  0  0  0  0  0  0  0  0
   10.8411  -17.1857   24.9196 C   0  0  0  0  0  0  0  0  0  0  0  0
   11.1045  -16.1804   25.6599 O   0  0  0  0  0  0  0  0  0  0  0  0
   11.3105  -18.4407   25.2196 O   0  0  0  0  0  0  0  0  0  0  0  0
  2  1  1  6
  2  3  1  0
  4  2  1  0
  4  5  1  6
  6  4  1  0
  6  7  2  0
  8  9  1  0
  9 10  2  0
 10 11  1  0
 12 13  1  0
 12 11  2  0
 14 13  1  1
 14 15  1  0
 15  6  1  0
 16 14  1  0
 17 16  2  0
 18 12  1  0
 19 18  2  0
 19  9  1  0
 20 21  1  0
 21 22  2  0
 21 23  1  0
 24 23  1  6
 24 25  1  0
 24 26  1  0
 25 16  1  0
 26 28  1  0
 27 26  2  0
M  END
$$$$
