VYN.pdb
     RDKit          3D

 28 28  0  0  1  0  0  0  0  0999 V2000
    7.7778  -15.5662   16.6616 C   0  0  0  0  0  0  0  0  0  0  0  0
    8.3096  -15.3653   18.0414 C   0  0  2  0  0  0  0  0  0  0  0  0
    8.0848  -16.5855   18.9037 C   0  0  0  0  0  0  0  0  0  0  0  0
    7.7395  -14.1150   18.6620 C   0  0  2  0  0  0  0  0  0  0  0  0
    8.1652  -12.9972   17.8404 N   0  0  0  0  0  0  0  0  0  0  0  0
    8.2512  -13.8839   20.0337 C   0  0  0  0  0  0  0  0  0  0  0  0
    9.4700  -13.5537   20.2209 O   0  0  0  0  0  0  0  0  0  0  0  0
    7.1707  -12.8716   28.9626 O   0  0  0  0  0  0  0  0  0  0  0  0
    7.1060  -12.9450   27.5665 C   0  0  0  0  0  0  0  0  0  0  0  0
    7.7429  -12.0326   26.7579 C   0  0  0  0  0  0  0  0  0  0  0  0
    7.6594  -12.1327   25.3717 C   0  0  0  0  0  0  0  0  0  0  0  0
    6.9485  -13.1320   24.7523 C   0  0  0  0  0  0  0  0  0  0  0  0
    6.8822  -13.2268   23.3101 C   0  0  0  0  0  0  0  0  0  0  0  0
    7.9697  -13.8755   22.5609 C   0  0  2  0  0  0  0  0  0  0  0  0
    7.4471  -14.0117   21.1686 N   0  0  0  0  0  0  0  0  0  0  0  0
    8.3688  -15.2235   22.9749 C   0  0  0  0  0  0  0  0  0  0  0  0
    7.6124  -16.2433   22.7960 O   0  0  0  0  0  0  0  0  0  0  0  0
    6.3084  -14.0490   25.5876 C   0  0  0  0  0  0  0  0  0  0  0  0
    6.3912  -13.9493   26.9602 C   0  0  0  0  0  0  0  0  0  0  0  0
   10.1021  -17.4085   21.4048 N   0  0  0  0  0  0  0  0  0  0  0  0
   11.2980  -17.5878   22.1464 C   0  0  0  0  0  0  0  0  0  0  0  0
   12.3131  -17.9933   21.5359 O   0  0  0  0  0  0  0  0  0  0  0  0
   11.2786  -17.2869   23.5937 C   0  0  0  0  0  0  0  0  0  0  0  0
    9.9101  -16.8301   24.0860 C   0  0  2  0  0  0  0  0  0  0  0  0
    9.6162  -15.4908   23.5924 N   0  0  0  0  0  0  0  0  0  0  0  0
    9.9087  -16.8742   25.5518 C   0  0  0  0  0  0  0  0  0  0  0  0
   10.0380  -18.0164   26.1056 O   0  0  0  0  0  0  0  0  0  0  0  0
    9.7738  -15.7274   26.2946 O   0  0  0  0  0  0  0  0  0  0  0  0
  2  1  1  6
  2  3  1  0
  4  2  1  0
  4  5  1  6
  6  4  1  0
  6  7  2  0
  8  9  1  0
  9 10  2  0
 10 11  1  0
 12 13  1  0
 12 11  2  0
 14 13  1  1
 14 15  1  0
 15  6  1  0
 16 14  1  0
 17 16  2  0
 18 12  1  0
 19 18  2  0
 19  9  1  0
 20 21  1  0
 21 22  2  0
 21 23  1  0
 24 23  1  1
 24 25  1  0
 24 26  1  0
 25 16  1  0
 26 28  1  0
 27 26  2  0
M  END
$$$$
