VYN.pdb
     RDKit          3D

 28 28  0  0  1  0  0  0  0  0999 V2000
   10.3049  -17.7291   20.2920 C   0  0  0  0  0  0  0  0  0  0  0  0
    8.8159  -17.7380   20.3912 C   0  0  2  0  0  0  0  0  0  0  0  0
    8.1849  -18.3844   19.1800 C   0  0  0  0  0  0  0  0  0  0  0  0
    8.2840  -16.3491   20.6391 C   0  0  2  0  0  0  0  0  0  0  0  0
    8.6969  -15.5262   19.5175 N   0  0  0  0  0  0  0  0  0  0  0  0
    8.8446  -15.7433   21.8702 C   0  0  0  0  0  0  0  0  0  0  0  0
    9.7695  -14.8668   21.7948 O   0  0  0  0  0  0  0  0  0  0  0  0
    5.9156  -10.1786   26.7193 O   0  0  0  0  0  0  0  0  0  0  0  0
    6.3657  -11.4580   26.3743 C   0  0  0  0  0  0  0  0  0  0  0  0
    5.6182  -12.5856   26.6226 C   0  0  0  0  0  0  0  0  0  0  0  0
    6.0939  -13.8450   26.2672 C   0  0  0  0  0  0  0  0  0  0  0  0
    7.3137  -14.0213   25.6603 C   0  0  0  0  0  0  0  0  0  0  0  0
    7.7868  -15.3370   25.2878 C   0  0  0  0  0  0  0  0  0  0  0  0
    8.9492  -15.4801   24.3972 C   0  0  2  0  0  0  0  0  0  0  0  0
    8.4020  -16.0902   23.1488 N   0  0  0  0  0  0  0  0  0  0  0  0
   10.0345  -16.3625   24.8345 C   0  0  0  0  0  0  0  0  0  0  0  0
   10.6192  -16.2144   25.9660 O   0  0  0  0  0  0  0  0  0  0  0  0
    8.0592  -12.8667   25.4159 C   0  0  0  0  0  0  0  0  0  0  0  0
    7.5878  -11.6200   25.7682 C   0  0  0  0  0  0  0  0  0  0  0  0
    8.9562  -20.8546   23.9477 N   0  0  0  0  0  0  0  0  0  0  0  0
    9.9380  -20.2791   24.7946 C   0  0  0  0  0  0  0  0  0  0  0  0
    9.6939  -20.2187   26.0211 O   0  0  0  0  0  0  0  0  0  0  0  0
   11.1900  -19.7846   24.1835 C   0  0  0  0  0  0  0  0  0  0  0  0
   11.5129  -18.3469   24.5741 C   0  0  2  0  0  0  0  0  0  0  0  0
   10.5043  -17.4395   24.0420 N   0  0  0  0  0  0  0  0  0  0  0  0
   12.8497  -18.0202   24.0674 C   0  0  0  0  0  0  0  0  0  0  0  0
   12.9501  -17.0292   23.2700 O   0  0  0  0  0  0  0  0  0  0  0  0
   13.9476  -18.7554   24.4408 O   0  0  0  0  0  0  0  0  0  0  0  0
  2  1  1  6
  2  3  1  0
  4  2  1  0
  4  5  1  6
  6  4  1  0
  6  7  2  0
  8  9  1  0
  9 10  2  0
 10 11  1  0
 12 13  1  0
 12 11  2  0
 14 13  1  1
 14 15  1  0
 15  6  1  0
 16 14  1  0
 17 16  2  0
 18 12  1  0
 19 18  2  0
 19  9  1  0
 20 21  1  0
 21 22  2  0
 21 23  1  0
 24 23  1  6
 24 25  1  0
 24 26  1  0
 25 16  1  0
 26 28  1  0
 27 26  2  0
M  END
$$$$
