VYN.pdb
     RDKit          3D

 28 28  0  0  1  0  0  0  0  0999 V2000
    7.4869  -13.3496   19.2521 C   0  0  0  0  0  0  0  0  0  0  0  0
    8.5779  -14.1918   18.6797 C   0  0  2  0  0  0  0  0  0  0  0  0
    8.2009  -14.7370   17.3219 C   0  0  0  0  0  0  0  0  0  0  0  0
    8.9781  -15.2819   19.6414 C   0  0  2  0  0  0  0  0  0  0  0  0
    7.8881  -16.2389   19.6812 N   0  0  0  0  0  0  0  0  0  0  0  0
    9.1775  -14.7718   21.0188 C   0  0  0  0  0  0  0  0  0  0  0  0
   10.2150  -14.0874   21.3098 O   0  0  0  0  0  0  0  0  0  0  0  0
    6.1840  -11.0933   28.5834 O   0  0  0  0  0  0  0  0  0  0  0  0
    6.4113  -11.7499   27.3686 C   0  0  0  0  0  0  0  0  0  0  0  0
    7.1972  -11.2044   26.3805 C   0  0  0  0  0  0  0  0  0  0  0  0
    7.4042  -11.8828   25.1824 C   0  0  0  0  0  0  0  0  0  0  0  0
    6.8430  -13.1115   24.9316 C   0  0  0  0  0  0  0  0  0  0  0  0
    7.0785  -13.8070   23.6849 C   0  0  0  0  0  0  0  0  0  0  0  0
    8.3931  -14.4077   23.4101 C   0  0  2  0  0  0  0  0  0  0  0  0
    8.2631  -15.0066   22.0482 N   0  0  0  0  0  0  0  0  0  0  0  0
    8.8394  -15.4940   24.2868 C   0  0  0  0  0  0  0  0  0  0  0  0
    9.0440  -15.3176   25.5402 O   0  0  0  0  0  0  0  0  0  0  0  0
    6.0483  -13.6504   25.9447 C   0  0  0  0  0  0  0  0  0  0  0  0
    5.8435  -12.9781   27.1308 C   0  0  0  0  0  0  0  0  0  0  0  0
    7.0040  -18.1289   26.0990 N   0  0  0  0  0  0  0  0  0  0  0  0
    7.2734  -19.1486   25.1504 C   0  0  0  0  0  0  0  0  0  0  0  0
    6.3972  -20.0228   24.9622 O   0  0  0  0  0  0  0  0  0  0  0  0
    8.5694  -19.1218   24.4395 C   0  0  0  0  0  0  0  0  0  0  0  0
    9.3905  -17.8757   24.7506 C   0  0  2  0  0  0  0  0  0  0  0  0
    9.0674  -16.8095   23.8111 N   0  0  0  0  0  0  0  0  0  0  0  0
   10.8116  -18.2324   24.6895 C   0  0  0  0  0  0  0  0  0  0  0  0
   11.5404  -17.6027   23.8526 O   0  0  0  0  0  0  0  0  0  0  0  0
   11.3327  -19.2069   25.5045 O   0  0  0  0  0  0  0  0  0  0  0  0
  2  1  1  1
  2  3  1  0
  4  2  1  0
  4  5  1  1
  6  4  1  0
  6  7  2  0
  8  9  1  0
  9 10  2  0
 10 11  1  0
 12 13  1  0
 12 11  2  0
 14 13  1  1
 14 15  1  0
 15  6  1  0
 16 14  1  0
 17 16  2  0
 18 12  1  0
 19 18  2  0
 19  9  1  0
 20 21  1  0
 21 22  2  0
 21 23  1  0
 24 23  1  6
 24 25  1  0
 24 26  1  0
 25 16  1  0
 26 28  1  0
 27 26  2  0
M  END
$$$$
