VYN.pdb
     RDKit          3D

 28 28  0  0  1  0  0  0  0  0999 V2000
    7.0754  -14.0300   18.7347 C   0  0  0  0  0  0  0  0  0  0  0  0
    7.6887  -13.7382   20.0637 C   0  0  2  0  0  0  0  0  0  0  0  0
    8.3412  -12.3756   20.0843 C   0  0  0  0  0  0  0  0  0  0  0  0
    8.6418  -14.8337   20.4695 C   0  0  2  0  0  0  0  0  0  0  0  0
    7.8855  -16.0719   20.4933 N   0  0  0  0  0  0  0  0  0  0  0  0
    9.1978  -14.6216   21.8270 C   0  0  0  0  0  0  0  0  0  0  0  0
   10.0641  -13.7073   22.0341 O   0  0  0  0  0  0  0  0  0  0  0  0
    5.7590  -10.8252   27.3859 O   0  0  0  0  0  0  0  0  0  0  0  0
    6.3753  -11.9642   26.8555 C   0  0  0  0  0  0  0  0  0  0  0  0
    5.6903  -13.1412   26.6628 C   0  0  0  0  0  0  0  0  0  0  0  0
    6.3320  -14.2575   26.1329 C   0  0  0  0  0  0  0  0  0  0  0  0
    7.6600  -14.2390   25.7813 C   0  0  0  0  0  0  0  0  0  0  0  0
    8.3074  -15.4056   25.2213 C   0  0  0  0  0  0  0  0  0  0  0  0
    9.4277  -15.2493   24.2804 C   0  0  2  0  0  0  0  0  0  0  0  0
    8.8132  -15.3921   22.9268 N   0  0  0  0  0  0  0  0  0  0  0  0
   10.5065  -16.2394   24.3394 C   0  0  0  0  0  0  0  0  0  0  0  0
   11.1374  -16.4959   25.4258 O   0  0  0  0  0  0  0  0  0  0  0  0
    8.3400  -13.0369   25.9837 C   0  0  0  0  0  0  0  0  0  0  0  0
    7.7041  -11.9320   26.5086 C   0  0  0  0  0  0  0  0  0  0  0  0
   11.2593  -21.0874   24.9743 N   0  0  0  0  0  0  0  0  0  0  0  0
   10.5425  -20.6857   23.8179 C   0  0  0  0  0  0  0  0  0  0  0  0
   10.2626  -21.5600   22.9666 O   0  0  0  0  0  0  0  0  0  0  0  0
   10.1675  -19.2620   23.6834 C   0  0  0  0  0  0  0  0  0  0  0  0
   11.3564  -18.3637   23.3615 C   0  0  2  0  0  0  0  0  0  0  0  0
   10.9189  -16.9824   23.2051 N   0  0  0  0  0  0  0  0  0  0  0  0
   11.9967  -18.8653   22.1413 C   0  0  0  0  0  0  0  0  0  0  0  0
   11.3227  -18.8120   21.0592 O   0  0  0  0  0  0  0  0  0  0  0  0
   13.2728  -19.3712   22.1679 O   0  0  0  0  0  0  0  0  0  0  0  0
  2  1  1  6
  2  3  1  0
  4  2  1  0
  4  5  1  1
  6  4  1  0
  6  7  2  0
  8  9  1  0
  9 10  2  0
 10 11  1  0
 12 13  1  0
 12 11  2  0
 14 13  1  1
 14 15  1  0
 15  6  1  0
 16 14  1  0
 17 16  2  0
 18 12  1  0
 19 18  2  0
 19  9  1  0
 20 21  1  0
 21 22  2  0
 21 23  1  0
 24 23  1  6
 24 25  1  0
 24 26  1  0
 25 16  1  0
 26 28  1  0
 27 26  2  0
M  END
$$$$
