VYN.pdb
     RDKit          3D

 28 28  0  0  1  0  0  0  0  0999 V2000
    8.5419  -19.0951   18.3599 C   0  0  0  0  0  0  0  0  0  0  0  0
    8.9283  -18.2743   19.5449 C   0  0  2  0  0  0  0  0  0  0  0  0
    8.3956  -18.8696   20.8274 C   0  0  0  0  0  0  0  0  0  0  0  0
    8.5086  -16.8373   19.3651 C   0  0  2  0  0  0  0  0  0  0  0  0
    9.1806  -16.3405   18.1789 N   0  0  0  0  0  0  0  0  0  0  0  0
    8.9208  -15.9838   20.5047 C   0  0  0  0  0  0  0  0  0  0  0  0
   10.0714  -15.4313   20.5142 O   0  0  0  0  0  0  0  0  0  0  0  0
    7.0009  -11.2028   27.9714 O   0  0  0  0  0  0  0  0  0  0  0  0
    7.0359  -11.9987   26.8209 C   0  0  0  0  0  0  0  0  0  0  0  0
    6.4505  -13.2425   26.7763 C   0  0  0  0  0  0  0  0  0  0  0  0
    6.5026  -14.0104   25.6161 C   0  0  0  0  0  0  0  0  0  0  0  0
    7.1309  -13.5710   24.4761 C   0  0  0  0  0  0  0  0  0  0  0  0
    7.1652  -14.3783   23.2758 C   0  0  0  0  0  0  0  0  0  0  0  0
    8.4536  -14.8091   22.7110 C   0  0  2  0  0  0  0  0  0  0  0  0
    8.0926  -15.7437   21.6035 N   0  0  0  0  0  0  0  0  0  0  0  0
    9.3630  -15.5540   23.5862 C   0  0  0  0  0  0  0  0  0  0  0  0
    9.9371  -15.0089   24.5948 O   0  0  0  0  0  0  0  0  0  0  0  0
    7.7198  -12.3070   24.5387 C   0  0  0  0  0  0  0  0  0  0  0  0
    7.6681  -11.5471   25.6879 C   0  0  0  0  0  0  0  0  0  0  0  0
   13.6825  -18.8047   24.3969 N   0  0  0  0  0  0  0  0  0  0  0  0
   13.0636  -17.6155   24.8604 C   0  0  0  0  0  0  0  0  0  0  0  0
   13.4286  -17.1553   25.9661 O   0  0  0  0  0  0  0  0  0  0  0  0
   12.0257  -16.9883   24.0148 C   0  0  0  0  0  0  0  0  0  0  0  0
   10.6414  -17.5886   24.2322 C   0  0  2  0  0  0  0  0  0  0  0  0
    9.6626  -16.9241   23.3813 N   0  0  0  0  0  0  0  0  0  0  0  0
   10.2979  -17.4541   25.6515 C   0  0  0  0  0  0  0  0  0  0  0  0
   10.2781  -16.2766   26.1426 O   0  0  0  0  0  0  0  0  0  0  0  0
   10.0089  -18.5564   26.4176 O   0  0  0  0  0  0  0  0  0  0  0  0
  2  1  1  6
  2  3  1  0
  4  2  1  0
  4  5  1  6
  6  4  1  0
  6  7  2  0
  8  9  1  0
  9 10  2  0
 10 11  1  0
 12 13  1  0
 12 11  2  0
 14 13  1  1
 14 15  1  0
 15  6  1  0
 16 14  1  0
 17 16  2  0
 18 12  1  0
 19 18  2  0
 19  9  1  0
 20 21  1  0
 21 22  2  0
 21 23  1  0
 24 23  1  1
 24 25  1  0
 24 26  1  0
 25 16  1  0
 26 28  1  0
 27 26  2  0
M  END
$$$$
