VYN.pdb
     RDKit          3D

 28 28  0  0  1  0  0  0  0  0999 V2000
    7.5717  -12.8560   18.9784 C   0  0  0  0  0  0  0  0  0  0  0  0
    8.4342  -13.8137   18.2259 C   0  0  2  0  0  0  0  0  0  0  0  0
    7.8317  -14.1646   16.8855 C   0  0  0  0  0  0  0  0  0  0  0  0
    8.7322  -15.0369   19.0556 C   0  0  2  0  0  0  0  0  0  0  0  0
    7.5243  -15.8406   19.0823 N   0  0  0  0  0  0  0  0  0  0  0  0
    9.0754  -14.6964   20.4568 C   0  0  0  0  0  0  0  0  0  0  0  0
   10.1722  -14.1017   20.7265 O   0  0  0  0  0  0  0  0  0  0  0  0
    6.7551  -12.2717   28.7881 O   0  0  0  0  0  0  0  0  0  0  0  0
    6.8790  -12.6783   27.4548 C   0  0  0  0  0  0  0  0  0  0  0  0
    7.3184  -11.8248   26.4698 C   0  0  0  0  0  0  0  0  0  0  0  0
    7.4309  -12.2596   25.1519 C   0  0  0  0  0  0  0  0  0  0  0  0
    7.1141  -13.5424   24.7757 C   0  0  0  0  0  0  0  0  0  0  0  0
    7.2481  -13.9799   23.4031 C   0  0  0  0  0  0  0  0  0  0  0  0
    8.5141  -14.5642   22.9334 C   0  0  2  0  0  0  0  0  0  0  0  0
    8.2376  -15.0006   21.5322 N   0  0  0  0  0  0  0  0  0  0  0  0
    9.0149  -15.7504   23.6333 C   0  0  0  0  0  0  0  0  0  0  0  0
    8.5116  -16.9148   23.4467 O   0  0  0  0  0  0  0  0  0  0  0  0
    6.6698  -14.3952   25.7875 C   0  0  0  0  0  0  0  0  0  0  0  0
    6.5584  -13.9640   27.0923 C   0  0  0  0  0  0  0  0  0  0  0  0
   13.2003  -16.1786   23.1392 N   0  0  0  0  0  0  0  0  0  0  0  0
   12.4762  -17.2393   23.7417 C   0  0  0  0  0  0  0  0  0  0  0  0
   12.2570  -18.2646   23.0574 O   0  0  0  0  0  0  0  0  0  0  0  0
   12.0225  -17.0750   25.1391 C   0  0  0  0  0  0  0  0  0  0  0  0
   10.5129  -16.8975   25.2553 C   0  0  2  0  0  0  0  0  0  0  0  0
   10.0899  -15.6916   24.5550 N   0  0  0  0  0  0  0  0  0  0  0  0
   10.1631  -16.8424   26.6784 C   0  0  0  0  0  0  0  0  0  0  0  0
    9.6051  -15.7775   27.1058 O   0  0  0  0  0  0  0  0  0  0  0  0
   10.4274  -17.8994   27.5140 O   0  0  0  0  0  0  0  0  0  0  0  0
  2  1  1  1
  2  3  1  0
  4  2  1  0
  4  5  1  1
  6  4  1  0
  6  7  2  0
  8  9  1  0
  9 10  2  0
 10 11  1  0
 12 13  1  0
 12 11  2  0
 14 13  1  1
 14 15  1  0
 15  6  1  0
 16 14  1  0
 17 16  2  0
 18 12  1  0
 19 18  2  0
 19  9  1  0
 20 21  1  0
 21 22  2  0
 21 23  1  0
 24 23  1  1
 24 25  1  0
 24 26  1  0
 25 16  1  0
 26 28  1  0
 27 26  2  0
M  END
$$$$
