VYN.pdb
     RDKit          3D

 28 28  0  0  1  0  0  0  0  0999 V2000
    8.0524  -15.4399   16.6401 C   0  0  0  0  0  0  0  0  0  0  0  0
    8.5128  -15.2234   18.0431 C   0  0  2  0  0  0  0  0  0  0  0  0
    8.4681  -16.5040   18.8436 C   0  0  0  0  0  0  0  0  0  0  0  0
    7.7342  -14.1120   18.7003 C   0  0  2  0  0  0  0  0  0  0  0  0
    7.9679  -12.9086   17.9238 N   0  0  0  0  0  0  0  0  0  0  0  0
    8.1909  -13.8477   20.0854 C   0  0  0  0  0  0  0  0  0  0  0  0
    9.3153  -13.2817   20.2974 O   0  0  0  0  0  0  0  0  0  0  0  0
    6.9221  -12.7720   28.9503 O   0  0  0  0  0  0  0  0  0  0  0  0
    6.8727  -12.9325   27.5609 C   0  0  0  0  0  0  0  0  0  0  0  0
    7.1866  -11.9095   26.6969 C   0  0  0  0  0  0  0  0  0  0  0  0
    7.1277  -12.1008   25.3190 C   0  0  0  0  0  0  0  0  0  0  0  0
    6.7596  -13.3018   24.7627 C   0  0  0  0  0  0  0  0  0  0  0  0
    6.7150  -13.4856   23.3282 C   0  0  0  0  0  0  0  0  0  0  0  0
    7.9007  -13.9760   22.6084 C   0  0  2  0  0  0  0  0  0  0  0  0
    7.4341  -14.1951   21.2068 N   0  0  0  0  0  0  0  0  0  0  0  0
    8.4802  -15.2497   23.0437 C   0  0  0  0  0  0  0  0  0  0  0  0
    7.9255  -16.3756   22.7815 O   0  0  0  0  0  0  0  0  0  0  0  0
    6.4442  -14.3290   25.6537 C   0  0  0  0  0  0  0  0  0  0  0  0
    6.5024  -14.1389   27.0180 C   0  0  0  0  0  0  0  0  0  0  0  0
   12.7264  -15.7820   21.8380 N   0  0  0  0  0  0  0  0  0  0  0  0
   11.8941  -16.7847   22.3985 C   0  0  0  0  0  0  0  0  0  0  0  0
   11.3951  -17.6340   21.6258 O   0  0  0  0  0  0  0  0  0  0  0  0
   11.6635  -16.7706   23.8587 C   0  0  0  0  0  0  0  0  0  0  0  0
   10.1918  -16.6158   24.2250 C   0  0  2  0  0  0  0  0  0  0  0  0
    9.6920  -15.3229   23.7751 N   0  0  0  0  0  0  0  0  0  0  0  0
   10.0596  -16.7664   25.6777 C   0  0  0  0  0  0  0  0  0  0  0  0
    9.5931  -15.7750   26.3315 O   0  0  0  0  0  0  0  0  0  0  0  0
   10.4246  -17.9321   26.3048 O   0  0  0  0  0  0  0  0  0  0  0  0
  2  1  1  6
  2  3  1  0
  4  2  1  0
  4  5  1  6
  6  4  1  0
  6  7  2  0
  8  9  1  0
  9 10  2  0
 10 11  1  0
 12 13  1  0
 12 11  2  0
 14 13  1  1
 14 15  1  0
 15  6  1  0
 16 14  1  0
 17 16  2  0
 18 12  1  0
 19 18  2  0
 19  9  1  0
 20 21  1  0
 21 22  2  0
 21 23  1  0
 24 23  1  1
 24 25  1  0
 24 26  1  0
 25 16  1  0
 26 28  1  0
 27 26  2  0
M  END
$$$$
