VYN.pdb
     RDKit          3D

 28 28  0  0  1  0  0  0  0  0999 V2000
    7.0451  -12.9265   20.8376 C   0  0  0  0  0  0  0  0  0  0  0  0
    7.7797  -13.6654   19.7692 C   0  0  2  0  0  0  0  0  0  0  0  0
    6.9076  -13.8968   18.5572 C   0  0  0  0  0  0  0  0  0  0  0  0
    8.3641  -14.9478   20.3052 C   0  0  2  0  0  0  0  0  0  0  0  0
    7.2521  -15.7962   20.6914 N   0  0  0  0  0  0  0  0  0  0  0  0
    9.1983  -14.7256   21.5100 C   0  0  0  0  0  0  0  0  0  0  0  0
   10.2921  -14.0729   21.4264 O   0  0  0  0  0  0  0  0  0  0  0  0
   10.6526  -15.1673   30.4560 O   0  0  0  0  0  0  0  0  0  0  0  0
   10.1831  -15.1587   29.1377 C   0  0  0  0  0  0  0  0  0  0  0  0
    9.7861  -16.3093   28.4973 C   0  0  0  0  0  0  0  0  0  0  0  0
    9.3235  -16.2678   27.1847 C   0  0  0  0  0  0  0  0  0  0  0  0
    9.2415  -15.0941   26.4753 C   0  0  0  0  0  0  0  0  0  0  0  0
    8.7474  -15.0686   25.1155 C   0  0  0  0  0  0  0  0  0  0  0  0
    9.6902  -15.0239   23.9870 C   0  0  2  0  0  0  0  0  0  0  0  0
    8.8415  -15.2068   22.7718 N   0  0  0  0  0  0  0  0  0  0  0  0
   10.7188  -16.0657   23.9203 C   0  0  0  0  0  0  0  0  0  0  0  0
   11.7982  -16.0026   24.6094 O   0  0  0  0  0  0  0  0  0  0  0  0
    9.6485  -13.9362   27.1400 C   0  0  0  0  0  0  0  0  0  0  0  0
   10.1067  -13.9779   28.4396 C   0  0  0  0  0  0  0  0  0  0  0  0
   14.5749  -18.9302   21.3988 N   0  0  0  0  0  0  0  0  0  0  0  0
   14.1193  -18.4610   22.6576 C   0  0  0  0  0  0  0  0  0  0  0  0
   14.7071  -18.8691   23.6849 O   0  0  0  0  0  0  0  0  0  0  0  0
   12.9797  -17.5197   22.6857 C   0  0  0  0  0  0  0  0  0  0  0  0
   11.6613  -18.1955   23.0447 C   0  0  2  0  0  0  0  0  0  0  0  0
   10.5869  -17.2124   23.0978 N   0  0  0  0  0  0  0  0  0  0  0  0
   11.8282  -18.8782   24.3319 C   0  0  0  0  0  0  0  0  0  0  0  0
   11.1084  -18.4789   25.3068 O   0  0  0  0  0  0  0  0  0  0  0  0
   12.7256  -19.9072   24.4764 O   0  0  0  0  0  0  0  0  0  0  0  0
  2  1  1  1
  2  3  1  0
  4  2  1  0
  4  5  1  1
  6  4  1  0
  6  7  2  0
  8  9  1  0
  9 10  2  0
 10 11  1  0
 12 13  1  0
 12 11  2  0
 14 13  1  1
 14 15  1  0
 15  6  1  0
 16 14  1  0
 17 16  2  0
 18 12  1  0
 19 18  2  0
 19  9  1  0
 20 21  1  0
 21 22  2  0
 21 23  1  0
 24 23  1  1
 24 25  1  0
 24 26  1  0
 25 16  1  0
 26 28  1  0
 27 26  2  0
M  END
$$$$
