VYN.pdb
     RDKit          3D

 28 28  0  0  1  0  0  0  0  0999 V2000
    7.5503  -18.4211   17.7987 C   0  0  0  0  0  0  0  0  0  0  0  0
    7.8739  -17.9502   19.1774 C   0  0  2  0  0  0  0  0  0  0  0  0
    6.7412  -18.2301   20.1374 C   0  0  0  0  0  0  0  0  0  0  0  0
    8.2702  -16.4955   19.1709 C   0  0  2  0  0  0  0  0  0  0  0  0
    9.4160  -16.3681   18.2897 N   0  0  0  0  0  0  0  0  0  0  0  0
    8.6810  -16.0181   20.5127 C   0  0  0  0  0  0  0  0  0  0  0  0
    9.8195  -16.3402   20.9917 O   0  0  0  0  0  0  0  0  0  0  0  0
    6.9624  -11.7228   28.3280 O   0  0  0  0  0  0  0  0  0  0  0  0
    7.0245  -12.2170   27.0201 C   0  0  0  0  0  0  0  0  0  0  0  0
    5.9230  -12.2420   26.1969 C   0  0  0  0  0  0  0  0  0  0  0  0
    6.0171  -12.7401   24.9001 C   0  0  0  0  0  0  0  0  0  0  0  0
    7.1960  -13.2233   24.3863 C   0  0  0  0  0  0  0  0  0  0  0  0
    7.2776  -13.7267   23.0322 C   0  0  0  0  0  0  0  0  0  0  0  0
    8.2180  -14.8086   22.7010 C   0  0  2  0  0  0  0  0  0  0  0  0
    7.8644  -15.2095   21.3065 N   0  0  0  0  0  0  0  0  0  0  0  0
    8.1514  -16.0344   23.5015 C   0  0  0  0  0  0  0  0  0  0  0  0
    7.3299  -16.9810   23.2312 O   0  0  0  0  0  0  0  0  0  0  0  0
    8.3037  -13.1908   25.2351 C   0  0  0  0  0  0  0  0  0  0  0  0
    8.2099  -12.6976   26.5191 C   0  0  0  0  0  0  0  0  0  0  0  0
   12.1460  -19.6741   23.3774 N   0  0  0  0  0  0  0  0  0  0  0  0
   10.8022  -19.4595   23.7781 C   0  0  0  0  0  0  0  0  0  0  0  0
   10.1724  -20.4260   24.2648 O   0  0  0  0  0  0  0  0  0  0  0  0
   10.2227  -18.1113   23.5992 C   0  0  0  0  0  0  0  0  0  0  0  0
    9.5451  -17.5852   24.8593 C   0  0  2  0  0  0  0  0  0  0  0  0
    8.9925  -16.2581   24.6201 N   0  0  0  0  0  0  0  0  0  0  0  0
   10.5341  -17.5677   25.9419 C   0  0  0  0  0  0  0  0  0  0  0  0
   11.0403  -18.6848   26.2940 O   0  0  0  0  0  0  0  0  0  0  0  0
   10.8983  -16.3913   26.5493 O   0  0  0  0  0  0  0  0  0  0  0  0
  2  1  1  6
  2  3  1  0
  4  2  1  0
  4  5  1  6
  6  4  1  0
  6  7  2  0
  8  9  1  0
  9 10  2  0
 10 11  1  0
 12 13  1  0
 12 11  2  0
 14 13  1  1
 14 15  1  0
 15  6  1  0
 16 14  1  0
 17 16  2  0
 18 12  1  0
 19 18  2  0
 19  9  1  0
 20 21  1  0
 21 22  2  0
 21 23  1  0
 24 23  1  6
 24 25  1  0
 24 26  1  0
 25 16  1  0
 26 28  1  0
 27 26  2  0
M  END
$$$$
