VYN.pdb
     RDKit          3D

 28 28  0  0  1  0  0  0  0  0999 V2000
    6.5477  -14.6817   18.1992 C   0  0  0  0  0  0  0  0  0  0  0  0
    7.4538  -14.8418   19.3743 C   0  0  2  0  0  0  0  0  0  0  0  0
    7.2963  -16.2021   20.0127 C   0  0  0  0  0  0  0  0  0  0  0  0
    7.2569  -13.7208   20.3632 C   0  0  2  0  0  0  0  0  0  0  0  0
    7.5145  -12.4786   19.6588 N   0  0  0  0  0  0  0  0  0  0  0  0
    8.2071  -13.7982   21.4981 C   0  0  0  0  0  0  0  0  0  0  0  0
    9.4179  -13.4209   21.3532 O   0  0  0  0  0  0  0  0  0  0  0  0
   10.2506  -15.0888   30.2175 O   0  0  0  0  0  0  0  0  0  0  0  0
    9.7084  -14.8252   28.9546 C   0  0  0  0  0  0  0  0  0  0  0  0
    9.7407  -13.5693   28.3947 C   0  0  0  0  0  0  0  0  0  0  0  0
    9.1923  -13.3391   27.1357 C   0  0  0  0  0  0  0  0  0  0  0  0
    8.6016  -14.3388   26.4016 C   0  0  0  0  0  0  0  0  0  0  0  0
    8.0470  -14.0833   25.0899 C   0  0  0  0  0  0  0  0  0  0  0  0
    8.8049  -14.4482   23.8828 C   0  0  2  0  0  0  0  0  0  0  0  0
    7.8381  -14.2767   22.7575 N   0  0  0  0  0  0  0  0  0  0  0  0
    9.2999  -15.8239   23.7823 C   0  0  0  0  0  0  0  0  0  0  0  0
    8.5137  -16.8188   23.5921 O   0  0  0  0  0  0  0  0  0  0  0  0
    8.5773  -15.6069   26.9847 C   0  0  0  0  0  0  0  0  0  0  0  0
    9.1202  -15.8342   28.2314 C   0  0  0  0  0  0  0  0  0  0  0  0
   12.9955  -16.0310   21.3966 N   0  0  0  0  0  0  0  0  0  0  0  0
   13.0635  -16.8553   22.5492 C   0  0  0  0  0  0  0  0  0  0  0  0
   14.0210  -16.6853   23.3377 O   0  0  0  0  0  0  0  0  0  0  0  0
   12.0036  -17.8653   22.7538 C   0  0  0  0  0  0  0  0  0  0  0  0
   11.0949  -17.5403   23.9340 C   0  0  2  0  0  0  0  0  0  0  0  0
   10.6767  -16.1453   23.8812 N   0  0  0  0  0  0  0  0  0  0  0  0
   11.8231  -17.8359   25.1721 C   0  0  0  0  0  0  0  0  0  0  0  0
   12.0280  -16.8688   25.9788 O   0  0  0  0  0  0  0  0  0  0  0  0
   12.2644  -19.1065   25.4477 O   0  0  0  0  0  0  0  0  0  0  0  0
  2  1  1  6
  2  3  1  0
  4  2  1  0
  4  5  1  6
  6  4  1  0
  6  7  2  0
  8  9  1  0
  9 10  2  0
 10 11  1  0
 12 13  1  0
 12 11  2  0
 14 13  1  1
 14 15  1  0
 15  6  1  0
 16 14  1  0
 17 16  2  0
 18 12  1  0
 19 18  2  0
 19  9  1  0
 20 21  1  0
 21 22  2  0
 21 23  1  0
 24 23  1  6
 24 25  1  0
 24 26  1  0
 25 16  1  0
 26 28  1  0
 27 26  2  0
M  END
$$$$
