VCN.pdb
     RDKit          3D

 22 21  0  0  1  0  0  0  0  0999 V2000
   26.3560  -19.6369   -9.7405 C   0  0  0  0  0  0  0  0  0  0  0  0
   24.9968  -20.2633   -9.9708 C   0  0  2  0  0  0  0  0  0  0  0  0
   24.8537  -21.3840   -8.9642 C   0  0  0  0  0  0  0  0  0  0  0  0
   24.9455  -20.8765  -11.3490 C   0  0  2  0  0  0  0  0  0  0  0  0
   26.0243  -21.8496  -11.4177 N   0  0  0  0  0  0  0  0  0  0  0  0
   25.1961  -19.8755  -12.4191 C   0  0  0  0  0  0  0  0  0  0  0  0
   24.4287  -18.8879  -12.6234 O   0  0  0  0  0  0  0  0  0  0  0  0
   26.3255  -19.9545  -13.2989 N   0  0  0  0  0  0  0  0  0  0  0  0
   26.5244  -19.0878  -14.4129 C   0  0  1  0  0  0  0  0  0  0  0  0
   28.0056  -19.1718  -14.8013 C   0  0  0  0  0  0  0  0  0  0  0  0
   28.3504  -18.1858  -16.2689 S   0  0  0  0  0  0  0  0  0  0  0  0
   25.6621  -19.4369  -15.5770 C   0  0  0  0  0  0  0  0  0  0  0  0
   25.5215  -20.6538  -15.8488 O   0  0  0  0  0  0  0  0  0  0  0  0
   22.1610  -19.2444  -19.4850 N   0  0  0  0  0  0  0  0  0  0  0  0
   21.7540  -18.7159  -18.2407 C   0  0  0  0  0  0  0  0  0  0  0  0
   20.5547  -18.4336  -18.0832 O   0  0  0  0  0  0  0  0  0  0  0  0
   22.7401  -18.5177  -17.1856 C   0  0  0  0  0  0  0  0  0  0  0  0
   24.1627  -18.8132  -17.5340 C   0  0  2  0  0  0  0  0  0  0  0  0
   25.0099  -18.4845  -16.3714 N   0  0  0  0  0  0  0  0  0  0  0  0
   24.6684  -18.0778  -18.7227 C   0  0  0  0  0  0  0  0  0  0  0  0
   25.0838  -16.9220  -18.7098 O   0  0  0  0  0  0  0  0  0  0  0  0
   24.6863  -18.7250  -19.9782 O   0  0  0  0  0  0  0  0  0  0  0  0
  2  4  1  0
  2  1  1  1
  3  2  1  0
  4  6  1  0
  4  5  1  1
  6  8  1  0
  6  7  2  0
  8  9  1  0
  9 12  1  0
  9 10  1  6
 11 10  1  0
 12 19  1  0
 13 12  2  0
 15 14  1  0
 16 15  2  0
 17 15  1  0
 18 17  1  1
 19 18  1  0
 20 18  1  0
 20 22  1  0
 21 20  2  0
M  END
$$$$
