VCN.pdb
     RDKit          3D

 22 21  0  0  1  0  0  0  0  0999 V2000
   21.0030  -16.2307  -16.1938 C   0  0  0  0  0  0  0  0  0  0  0  0
   19.9898  -15.5950  -17.1224 C   0  0  2  0  0  0  0  0  0  0  0  0
   19.7622  -16.5699  -18.2571 C   0  0  0  0  0  0  0  0  0  0  0  0
   20.5638  -14.3304  -17.7135 C   0  0  2  0  0  0  0  0  0  0  0  0
   21.7085  -14.7239  -18.5198 N   0  0  0  0  0  0  0  0  0  0  0  0
   21.0685  -13.4007  -16.6691 C   0  0  0  0  0  0  0  0  0  0  0  0
   20.3375  -12.9694  -15.7281 O   0  0  0  0  0  0  0  0  0  0  0  0
   22.4206  -12.9239  -16.6503 N   0  0  0  0  0  0  0  0  0  0  0  0
   22.9243  -12.0074  -15.6817 C   0  0  1  0  0  0  0  0  0  0  0  0
   24.3878  -12.3797  -15.4147 C   0  0  0  0  0  0  0  0  0  0  0  0
   24.5134  -13.9792  -14.5958 S   0  0  0  0  0  0  0  0  0  0  0  0
   22.8222  -10.5876  -16.1225 C   0  0  0  0  0  0  0  0  0  0  0  0
   23.2337  -10.3082  -17.2746 O   0  0  0  0  0  0  0  0  0  0  0  0
   19.4632   -6.6647  -17.8085 N   0  0  0  0  0  0  0  0  0  0  0  0
   20.8282   -6.9747  -17.6243 C   0  0  0  0  0  0  0  0  0  0  0  0
   21.6764   -6.1418  -17.9842 O   0  0  0  0  0  0  0  0  0  0  0  0
   21.2021   -8.2492  -17.0234 C   0  0  0  0  0  0  0  0  0  0  0  0
   22.0486   -8.1875  -15.7938 C   0  0  2  0  0  0  0  0  0  0  0  0
   22.2959   -9.5640  -15.3233 N   0  0  0  0  0  0  0  0  0  0  0  0
   21.4588   -7.3963  -14.6822 C   0  0  0  0  0  0  0  0  0  0  0  0
   20.8723   -7.8733  -13.7141 O   0  0  0  0  0  0  0  0  0  0  0  0
   21.5605   -5.9876  -14.7084 O   0  0  0  0  0  0  0  0  0  0  0  0
  2  4  1  0
  2  1  1  1
  3  2  1  0
  4  6  1  0
  4  5  1  6
  6  8  1  0
  6  7  2  0
  8  9  1  0
  9 12  1  0
  9 10  1  6
 11 10  1  0
 12 19  1  0
 13 12  2  0
 15 14  1  0
 16 15  2  0
 17 15  1  0
 18 17  1  6
 19 18  1  0
 20 18  1  0
 20 22  1  0
 21 20  2  0
M  END
$$$$
