VCN.pdb
     RDKit          3D

 22 21  0  0  1  0  0  0  0  0999 V2000
   22.8233  -14.4589  -17.1853 C   0  0  0  0  0  0  0  0  0  0  0  0
   21.3583  -14.1770  -17.4441 C   0  0  2  0  0  0  0  0  0  0  0  0
   20.9709  -14.9642  -18.6770 C   0  0  0  0  0  0  0  0  0  0  0  0
   21.1690  -12.7128  -17.7577 C   0  0  2  0  0  0  0  0  0  0  0  0
   21.8203  -12.4677  -19.0348 N   0  0  0  0  0  0  0  0  0  0  0  0
   21.8310  -11.8339  -16.7581 C   0  0  0  0  0  0  0  0  0  0  0  0
   21.4211  -11.7290  -15.5635 O   0  0  0  0  0  0  0  0  0  0  0  0
   22.9829  -11.0401  -17.0729 N   0  0  0  0  0  0  0  0  0  0  0  0
   23.5579  -10.0890  -16.1804 C   0  0  1  0  0  0  0  0  0  0  0  0
   25.0729  -10.0932  -16.4185 C   0  0  0  0  0  0  0  0  0  0  0  0
   25.8810  -11.3754  -15.4451 S   0  0  0  0  0  0  0  0  0  0  0  0
   23.0073   -8.7168  -16.3661 C   0  0  0  0  0  0  0  0  0  0  0  0
   22.6697   -8.3808  -17.5271 O   0  0  0  0  0  0  0  0  0  0  0  0
   20.4857   -4.2430  -15.6880 N   0  0  0  0  0  0  0  0  0  0  0  0
   19.9487   -5.5077  -16.0128 C   0  0  0  0  0  0  0  0  0  0  0  0
   18.7594   -5.5712  -16.3652 O   0  0  0  0  0  0  0  0  0  0  0  0
   20.7943   -6.6921  -15.9273 C   0  0  0  0  0  0  0  0  0  0  0  0
   22.1991   -6.4805  -15.4644 C   0  0  2  0  0  0  0  0  0  0  0  0
   22.8504   -7.7968  -15.3209 N   0  0  0  0  0  0  0  0  0  0  0  0
   22.3169   -5.7413  -14.1803 C   0  0  0  0  0  0  0  0  0  0  0  0
   22.4062   -6.2657  -13.0732 O   0  0  0  0  0  0  0  0  0  0  0  0
   22.3292   -4.3289  -14.1959 O   0  0  0  0  0  0  0  0  0  0  0  0
  2  4  1  0
  2  1  1  6
  3  2  1  0
  4  6  1  0
  4  5  1  6
  6  8  1  0
  6  7  2  0
  8  9  1  0
  9 12  1  0
  9 10  1  6
 11 10  1  0
 12 19  1  0
 13 12  2  0
 15 14  1  0
 16 15  2  0
 17 15  1  0
 18 17  1  1
 19 18  1  0
 20 18  1  0
 20 22  1  0
 21 20  2  0
M  END
$$$$
