VCN.pdb
     RDKit          3D

 22 21  0  0  1  0  0  0  0  0999 V2000
   21.7646  -16.6783  -14.8567 C   0  0  0  0  0  0  0  0  0  0  0  0
   20.2515  -16.6458  -14.8118 C   0  0  2  0  0  0  0  0  0  0  0  0
   19.7651  -17.9107  -15.4852 C   0  0  0  0  0  0  0  0  0  0  0  0
   19.7429  -15.4744  -15.6163 C   0  0  2  0  0  0  0  0  0  0  0  0
   20.2713  -15.6267  -16.9627 N   0  0  0  0  0  0  0  0  0  0  0  0
   20.2467  -14.1756  -15.0975 C   0  0  0  0  0  0  0  0  0  0  0  0
   19.9288  -13.7269  -13.9557 O   0  0  0  0  0  0  0  0  0  0  0  0
   21.1299  -13.3349  -15.8519 N   0  0  0  0  0  0  0  0  0  0  0  0
   21.6564  -12.1019  -15.3678 C   0  0  1  0  0  0  0  0  0  0  0  0
   23.1255  -12.0280  -15.8016 C   0  0  0  0  0  0  0  0  0  0  0  0
   24.1679  -13.0499  -14.7463 S   0  0  0  0  0  0  0  0  0  0  0  0
   20.9064  -10.9168  -15.8712 C   0  0  0  0  0  0  0  0  0  0  0  0
   20.3210  -11.0285  -16.9755 O   0  0  0  0  0  0  0  0  0  0  0  0
   16.1966   -8.3457  -15.5653 N   0  0  0  0  0  0  0  0  0  0  0  0
   17.5149   -8.1240  -16.0193 C   0  0  0  0  0  0  0  0  0  0  0  0
   17.7513   -7.0882  -16.6627 O   0  0  0  0  0  0  0  0  0  0  0  0
   18.5522   -9.1049  -15.7245 C   0  0  0  0  0  0  0  0  0  0  0  0
   19.9433   -8.5827  -15.5684 C   0  0  2  0  0  0  0  0  0  0  0  0
   20.8247   -9.7006  -15.1800 N   0  0  0  0  0  0  0  0  0  0  0  0
   20.0800   -7.4909  -14.5690 C   0  0  0  0  0  0  0  0  0  0  0  0
   19.4910   -6.4143  -14.6194 O   0  0  0  0  0  0  0  0  0  0  0  0
   20.9443   -7.6695  -13.4660 O   0  0  0  0  0  0  0  0  0  0  0  0
  2  4  1  0
  2  1  1  6
  3  2  1  0
  4  6  1  0
  4  5  1  6
  6  8  1  0
  6  7  2  0
  8  9  1  0
  9 12  1  0
  9 10  1  6
 11 10  1  0
 12 19  1  0
 13 12  2  0
 15 14  1  0
 16 15  2  0
 17 15  1  0
 18 17  1  1
 19 18  1  0
 20 18  1  0
 20 22  1  0
 21 20  2  0
M  END
$$$$
