VCN.pdb
     RDKit          3D

 22 21  0  0  1  0  0  0  0  0999 V2000
   19.0855  -13.2750  -16.7540 C   0  0  0  0  0  0  0  0  0  0  0  0
   17.7197  -12.6214  -16.7538 C   0  0  2  0  0  0  0  0  0  0  0  0
   16.9528  -13.2068  -17.9196 C   0  0  0  0  0  0  0  0  0  0  0  0
   17.8642  -11.1392  -16.9990 C   0  0  2  0  0  0  0  0  0  0  0  0
   18.4196  -10.9851  -18.3343 N   0  0  0  0  0  0  0  0  0  0  0  0
   18.8218  -10.5044  -16.0556 C   0  0  0  0  0  0  0  0  0  0  0  0
   18.5617  -10.3404  -14.8262 O   0  0  0  0  0  0  0  0  0  0  0  0
   20.1108  -10.0312  -16.4683 N   0  0  0  0  0  0  0  0  0  0  0  0
   21.0844   -9.5005  -15.5725 C   0  0  1  0  0  0  0  0  0  0  0  0
   22.4085  -10.2211  -15.8540 C   0  0  0  0  0  0  0  0  0  0  0  0
   23.6545   -9.7965  -14.6244 S   0  0  0  0  0  0  0  0  0  0  0  0
   21.2555   -8.0269  -15.7130 C   0  0  0  0  0  0  0  0  0  0  0  0
   21.1401   -7.5378  -16.8629 O   0  0  0  0  0  0  0  0  0  0  0  0
   21.2105   -2.9167  -15.0313 N   0  0  0  0  0  0  0  0  0  0  0  0
   20.1253   -3.7601  -15.3545 C   0  0  0  0  0  0  0  0  0  0  0  0
   19.0631   -3.2374  -15.7303 O   0  0  0  0  0  0  0  0  0  0  0  0
   20.2781   -5.2053  -15.2402 C   0  0  0  0  0  0  0  0  0  0  0  0
   21.5951   -5.7023  -14.7392 C   0  0  2  0  0  0  0  0  0  0  0  0
   21.5351   -7.1732  -14.6376 N   0  0  0  0  0  0  0  0  0  0  0  0
   22.0009   -5.1439  -13.4228 C   0  0  0  0  0  0  0  0  0  0  0  0
   22.1057   -3.9467  -13.1694 O   0  0  0  0  0  0  0  0  0  0  0  0
   22.2970   -6.0268  -12.3606 O   0  0  0  0  0  0  0  0  0  0  0  0
  2  4  1  0
  2  1  1  6
  3  2  1  0
  4  6  1  0
  4  5  1  6
  6  8  1  0
  6  7  2  0
  8  9  1  0
  9 12  1  0
  9 10  1  6
 11 10  1  0
 12 19  1  0
 13 12  2  0
 15 14  1  0
 16 15  2  0
 17 15  1  0
 18 17  1  1
 19 18  1  0
 20 18  1  0
 20 22  1  0
 21 20  2  0
M  END
$$$$
