VCN.pdb
     RDKit          3D

 22 21  0  0  1  0  0  0  0  0999 V2000
   19.9051  -13.4204  -16.4573 C   0  0  0  0  0  0  0  0  0  0  0  0
   19.6479  -12.8434  -17.8334 C   0  0  2  0  0  0  0  0  0  0  0  0
   20.1528  -13.8580  -18.8361 C   0  0  0  0  0  0  0  0  0  0  0  0
   20.4538  -11.5802  -18.0149 C   0  0  2  0  0  0  0  0  0  0  0  0
   21.8532  -11.9487  -17.8695 N   0  0  0  0  0  0  0  0  0  0  0  0
   20.1602  -10.5706  -16.9640 C   0  0  0  0  0  0  0  0  0  0  0  0
   18.9945  -10.1177  -16.7591 O   0  0  0  0  0  0  0  0  0  0  0  0
   21.1755  -10.0352  -16.1047 N   0  0  0  0  0  0  0  0  0  0  0  0
   20.9341   -9.0298  -15.1236 C   0  0  1  0  0  0  0  0  0  0  0  0
   21.6459   -9.4639  -13.8364 C   0  0  0  0  0  0  0  0  0  0  0  0
   23.3767   -9.8526  -14.1493 S   0  0  0  0  0  0  0  0  0  0  0  0
   21.4076   -7.6825  -15.5492 C   0  0  0  0  0  0  0  0  0  0  0  0
   22.3707   -7.6345  -16.3522 O   0  0  0  0  0  0  0  0  0  0  0  0
   19.9429   -2.3793  -17.3661 N   0  0  0  0  0  0  0  0  0  0  0  0
   20.3199   -2.8983  -16.1084 C   0  0  0  0  0  0  0  0  0  0  0  0
   20.8484   -2.1306  -15.2874 O   0  0  0  0  0  0  0  0  0  0  0  0
   20.0818   -4.3051  -15.8096 C   0  0  0  0  0  0  0  0  0  0  0  0
   21.2857   -5.1425  -15.5233 C   0  0  2  0  0  0  0  0  0  0  0  0
   20.8368   -6.4835  -15.1020 N   0  0  0  0  0  0  0  0  0  0  0  0
   22.1863   -4.5854  -14.4803 C   0  0  0  0  0  0  0  0  0  0  0  0
   22.9678   -3.6534  -14.6513 O   0  0  0  0  0  0  0  0  0  0  0  0
   22.1699   -5.1458  -13.1837 O   0  0  0  0  0  0  0  0  0  0  0  0
  2  4  1  0
  2  1  1  1
  3  2  1  0
  4  6  1  0
  4  5  1  1
  6  8  1  0
  6  7  2  0
  8  9  1  0
  9 12  1  0
  9 10  1  1
 11 10  1  0
 12 19  1  0
 13 12  2  0
 15 14  1  0
 16 15  2  0
 17 15  1  0
 18 17  1  1
 19 18  1  0
 20 18  1  0
 20 22  1  0
 21 20  2  0
M  END
$$$$
