VCN.pdb
     RDKit          3D

 22 21  0  0  1  0  0  0  0  0999 V2000
   19.2279  -15.6739  -16.9813 C   0  0  0  0  0  0  0  0  0  0  0  0
   18.7623  -14.2651  -17.2831 C   0  0  2  0  0  0  0  0  0  0  0  0
   19.9941  -13.3862  -17.2832 C   0  0  0  0  0  0  0  0  0  0  0  0
   17.8547  -13.7810  -16.1786 C   0  0  2  0  0  0  0  0  0  0  0  0
   16.6334  -14.5663  -16.2620 N   0  0  0  0  0  0  0  0  0  0  0  0
   17.4667  -12.3567  -16.3539 C   0  0  0  0  0  0  0  0  0  0  0  0
   16.5307  -11.9943  -17.1276 O   0  0  0  0  0  0  0  0  0  0  0  0
   18.1239  -11.2880  -15.6596 N   0  0  0  0  0  0  0  0  0  0  0  0
   17.7859   -9.9126  -15.8202 C   0  0  1  0  0  0  0  0  0  0  0  0
   16.3178   -9.7493  -15.4081 C   0  0  0  0  0  0  0  0  0  0  0  0
   16.0526  -10.2992  -13.7135 S   0  0  0  0  0  0  0  0  0  0  0  0
   18.6544   -9.0072  -15.0161 C   0  0  0  0  0  0  0  0  0  0  0  0
   19.4708   -9.5396  -14.2257 O   0  0  0  0  0  0  0  0  0  0  0  0
   21.9948   -5.2168  -14.0242 N   0  0  0  0  0  0  0  0  0  0  0  0
   22.1301   -6.3163  -14.8995 C   0  0  0  0  0  0  0  0  0  0  0  0
   23.2495   -6.5508  -15.3840 O   0  0  0  0  0  0  0  0  0  0  0  0
   20.9662   -7.1380  -15.2081 C   0  0  0  0  0  0  0  0  0  0  0  0
   19.6659   -6.7096  -14.6098 C   0  0  2  0  0  0  0  0  0  0  0  0
   18.6037   -7.6093  -15.0992 N   0  0  0  0  0  0  0  0  0  0  0  0
   19.2852   -5.3048  -14.9115 C   0  0  0  0  0  0  0  0  0  0  0  0
   18.7011   -4.9377  -15.9277 O   0  0  0  0  0  0  0  0  0  0  0  0
   19.6041   -4.2890  -13.9831 O   0  0  0  0  0  0  0  0  0  0  0  0
  2  4  1  0
  2  1  1  1
  3  2  1  0
  4  6  1  0
  4  5  1  6
  6  8  1  0
  6  7  2  0
  8  9  1  0
  9 12  1  0
  9 10  1  1
 11 10  1  0
 12 19  1  0
 13 12  2  0
 15 14  1  0
 16 15  2  0
 17 15  1  0
 18 17  1  6
 19 18  1  0
 20 18  1  0
 20 22  1  0
 21 20  2  0
M  END
$$$$
