VCN.pdb
     RDKit          3D

 22 21  0  0  1  0  0  0  0  0999 V2000
   14.7833  -12.8772  -13.2678 C   0  0  0  0  0  0  0  0  0  0  0  0
   15.1775  -12.7949  -14.7274 C   0  0  2  0  0  0  0  0  0  0  0  0
   15.6555  -14.1726  -15.1314 C   0  0  0  0  0  0  0  0  0  0  0  0
   16.3371  -11.8424  -14.8889 C   0  0  2  0  0  0  0  0  0  0  0  0
   17.4454  -12.3945  -14.1260 N   0  0  0  0  0  0  0  0  0  0  0  0
   16.0454  -10.5004  -14.3198 C   0  0  0  0  0  0  0  0  0  0  0  0
   15.1356   -9.7472  -14.7790 O   0  0  0  0  0  0  0  0  0  0  0  0
   16.7728   -9.9599  -13.2087 N   0  0  0  0  0  0  0  0  0  0  0  0
   16.5963   -8.6344  -12.7152 C   0  0  1  0  0  0  0  0  0  0  0  0
   16.0186   -8.7447  -11.2989 C   0  0  0  0  0  0  0  0  0  0  0  0
   17.2489   -9.3695  -10.1411 S   0  0  0  0  0  0  0  0  0  0  0  0
   17.8638   -7.8510  -12.6990 C   0  0  0  0  0  0  0  0  0  0  0  0
   18.8859   -8.4132  -12.2366 O   0  0  0  0  0  0  0  0  0  0  0  0
   22.4354   -5.6577  -12.9735 N   0  0  0  0  0  0  0  0  0  0  0  0
   21.5683   -5.9232  -14.0555 C   0  0  0  0  0  0  0  0  0  0  0  0
   21.9252   -5.5823  -15.1953 O   0  0  0  0  0  0  0  0  0  0  0  0
   20.2918   -6.5828  -13.8098 C   0  0  0  0  0  0  0  0  0  0  0  0
   19.2194   -5.7540  -13.1810 C   0  0  2  0  0  0  0  0  0  0  0  0
   17.9674   -6.5349  -13.1689 N   0  0  0  0  0  0  0  0  0  0  0  0
   18.9711   -4.4549  -13.8593 C   0  0  0  0  0  0  0  0  0  0  0  0
   18.1100   -4.2614  -14.7135 O   0  0  0  0  0  0  0  0  0  0  0  0
   19.7669   -3.3375  -13.5222 O   0  0  0  0  0  0  0  0  0  0  0  0
  2  4  1  0
  2  1  1  1
  3  2  1  0
  4  6  1  0
  4  5  1  1
  6  8  1  0
  6  7  2  0
  8  9  1  0
  9 12  1  0
  9 10  1  1
 11 10  1  0
 12 19  1  0
 13 12  2  0
 15 14  1  0
 16 15  2  0
 17 15  1  0
 18 17  1  6
 19 18  1  0
 20 18  1  0
 20 22  1  0
 21 20  2  0
M  END
$$$$
