VCN.pdb
     RDKit          3D

 22 21  0  0  1  0  0  0  0  0999 V2000
   16.8235  -12.2889  -16.1976 C   0  0  0  0  0  0  0  0  0  0  0  0
   15.9370  -11.0952  -16.4835 C   0  0  2  0  0  0  0  0  0  0  0  0
   15.0486  -11.4770  -17.6475 C   0  0  0  0  0  0  0  0  0  0  0  0
   16.7841   -9.9243  -16.9190 C   0  0  2  0  0  0  0  0  0  0  0  0
   17.4273  -10.3099  -18.1651 N   0  0  0  0  0  0  0  0  0  0  0  0
   17.8678   -9.6227  -15.9472 C   0  0  0  0  0  0  0  0  0  0  0  0
   17.6348   -9.2617  -14.7550 O   0  0  0  0  0  0  0  0  0  0  0  0
   19.2572   -9.7184  -16.2884 N   0  0  0  0  0  0  0  0  0  0  0  0
   20.3179   -9.4428  -15.3769 C   0  0  1  0  0  0  0  0  0  0  0  0
   21.4659  -10.4057  -15.7033 C   0  0  0  0  0  0  0  0  0  0  0  0
   22.9069  -10.0727  -14.6750 S   0  0  0  0  0  0  0  0  0  0  0  0
   20.7886   -8.0307  -15.4490 C   0  0  0  0  0  0  0  0  0  0  0  0
   21.0909   -7.5785  -16.5799 O   0  0  0  0  0  0  0  0  0  0  0  0
   21.8315   -3.0138  -14.5579 N   0  0  0  0  0  0  0  0  0  0  0  0
   20.5155   -3.4803  -14.7667 C   0  0  0  0  0  0  0  0  0  0  0  0
   19.6184   -2.6454  -14.9692 O   0  0  0  0  0  0  0  0  0  0  0  0
   20.2469   -4.9129  -14.7398 C   0  0  0  0  0  0  0  0  0  0  0  0
   21.3926   -5.8028  -14.3820 C   0  0  2  0  0  0  0  0  0  0  0  0
   20.9081   -7.1956  -14.3302 N   0  0  0  0  0  0  0  0  0  0  0  0
   22.0465   -5.4710  -13.0891 C   0  0  0  0  0  0  0  0  0  0  0  0
   22.4931   -4.3665  -12.7905 O   0  0  0  0  0  0  0  0  0  0  0  0
   22.1827   -6.4769  -12.1067 O   0  0  0  0  0  0  0  0  0  0  0  0
  2  4  1  0
  2  1  1  6
  3  2  1  0
  4  6  1  0
  4  5  1  6
  6  8  1  0
  6  7  2  0
  8  9  1  0
  9 12  1  0
  9 10  1  6
 11 10  1  0
 12 19  1  0
 13 12  2  0
 15 14  1  0
 16 15  2  0
 17 15  1  0
 18 17  1  1
 19 18  1  0
 20 18  1  0
 20 22  1  0
 21 20  2  0
M  END
$$$$
