VCN.pdb
     RDKit          3D

 22 21  0  0  1  0  0  0  0  0999 V2000
   16.1116  -12.3841  -16.7026 C   0  0  0  0  0  0  0  0  0  0  0  0
   16.7360  -13.2882  -15.6607 C   0  0  2  0  0  0  0  0  0  0  0  0
   15.7681  -14.4287  -15.4323 C   0  0  0  0  0  0  0  0  0  0  0  0
   16.8785  -12.5407  -14.3572 C   0  0  2  0  0  0  0  0  0  0  0  0
   15.5488  -12.0826  -13.9866 N   0  0  0  0  0  0  0  0  0  0  0  0
   17.7312  -11.3307  -14.4938 C   0  0  0  0  0  0  0  0  0  0  0  0
   18.9482  -11.3889  -14.8423 O   0  0  0  0  0  0  0  0  0  0  0  0
   17.2382  -10.0082  -14.2409 N   0  0  0  0  0  0  0  0  0  0  0  0
   18.0261   -8.8285  -14.3808 C   0  0  1  0  0  0  0  0  0  0  0  0
   18.4984   -8.7619  -15.8383 C   0  0  0  0  0  0  0  0  0  0  0  0
   19.3753   -7.2235  -16.1685 S   0  0  0  0  0  0  0  0  0  0  0  0
   17.2801   -7.5900  -14.0200 C   0  0  0  0  0  0  0  0  0  0  0  0
   16.1528   -7.4199  -14.5444 O   0  0  0  0  0  0  0  0  0  0  0  0
   15.6205   -3.2823  -11.5170 N   0  0  0  0  0  0  0  0  0  0  0  0
   15.9242   -4.4063  -10.7185 C   0  0  0  0  0  0  0  0  0  0  0  0
   15.5828   -4.3917   -9.5244 O   0  0  0  0  0  0  0  0  0  0  0  0
   16.6222   -5.5415  -11.3094 C   0  0  0  0  0  0  0  0  0  0  0  0
   17.0295   -5.4065  -12.7406 C   0  0  2  0  0  0  0  0  0  0  0  0
   17.7703   -6.6201  -13.1354 N   0  0  0  0  0  0  0  0  0  0  0  0
   17.8681   -4.2139  -13.0297 C   0  0  0  0  0  0  0  0  0  0  0  0
   19.0398   -4.2508  -13.3964 O   0  0  0  0  0  0  0  0  0  0  0  0
   17.3092   -2.9251  -12.8813 O   0  0  0  0  0  0  0  0  0  0  0  0
  2  4  1  0
  2  1  1  6
  3  2  1  0
  4  6  1  0
  4  5  1  6
  6  8  1  0
  6  7  2  0
  8  9  1  0
  9 12  1  0
  9 10  1  6
 11 10  1  0
 12 19  1  0
 13 12  2  0
 15 14  1  0
 16 15  2  0
 17 15  1  0
 18 17  1  1
 19 18  1  0
 20 18  1  0
 20 22  1  0
 21 20  2  0
M  END
$$$$
