VCN.pdb
     RDKit          3D

 22 21  0  0  1  0  0  0  0  0999 V2000
   24.2650  -14.1582  -16.6352 C   0  0  0  0  0  0  0  0  0  0  0  0
   25.2769  -13.6963  -17.6626 C   0  0  2  0  0  0  0  0  0  0  0  0
   26.6104  -14.2894  -17.2628 C   0  0  0  0  0  0  0  0  0  0  0  0
   25.4091  -12.1938  -17.6076 C   0  0  2  0  0  0  0  0  0  0  0  0
   25.8184  -11.8561  -16.2534 N   0  0  0  0  0  0  0  0  0  0  0  0
   24.1141  -11.5065  -17.8529 C   0  0  0  0  0  0  0  0  0  0  0  0
   23.4888  -11.6001  -18.9512 O   0  0  0  0  0  0  0  0  0  0  0  0
   23.4773  -10.6867  -16.8637 N   0  0  0  0  0  0  0  0  0  0  0  0
   22.2494   -9.9953  -17.0783 C   0  0  1  0  0  0  0  0  0  0  0  0
   21.1679  -11.0506  -17.3403 C   0  0  0  0  0  0  0  0  0  0  0  0
   19.5450  -10.2892  -17.5166 S   0  0  0  0  0  0  0  0  0  0  0  0
   21.8640   -9.1323  -15.9263 C   0  0  0  0  0  0  0  0  0  0  0  0
   22.3230   -9.4340  -14.7980 O   0  0  0  0  0  0  0  0  0  0  0  0
   21.5780   -4.5365  -13.5989 N   0  0  0  0  0  0  0  0  0  0  0  0
   22.6548   -5.0920  -14.3235 C   0  0  0  0  0  0  0  0  0  0  0  0
   23.7668   -4.5449  -14.2406 O   0  0  0  0  0  0  0  0  0  0  0  0
   22.4362   -6.2795  -15.1403 C   0  0  0  0  0  0  0  0  0  0  0  0
   21.0578   -6.8559  -15.1291 C   0  0  2  0  0  0  0  0  0  0  0  0
   21.0254   -8.0156  -16.0410 N   0  0  0  0  0  0  0  0  0  0  0  0
   19.9902   -5.9006  -15.5254 C   0  0  0  0  0  0  0  0  0  0  0  0
   19.7291   -5.5785  -16.6816 O   0  0  0  0  0  0  0  0  0  0  0  0
   19.1974   -5.2977  -14.5237 O   0  0  0  0  0  0  0  0  0  0  0  0
  2  4  1  0
  2  1  1  1
  3  2  1  0
  4  6  1  0
  4  5  1  1
  6  8  1  0
  6  7  2  0
  8  9  1  0
  9 12  1  0
  9 10  1  1
 11 10  1  0
 12 19  1  0
 13 12  2  0
 15 14  1  0
 16 15  2  0
 17 15  1  0
 18 17  1  6
 19 18  1  0
 20 18  1  0
 20 22  1  0
 21 20  2  0
M  END
$$$$
