VCN.pdb
     RDKit          3D

 22 21  0  0  1  0  0  0  0  0999 V2000
   19.0121  -13.3498  -17.2416 C   0  0  0  0  0  0  0  0  0  0  0  0
   18.4352  -12.2591  -18.1194 C   0  0  2  0  0  0  0  0  0  0  0  0
   18.1065  -12.8961  -19.4521 C   0  0  0  0  0  0  0  0  0  0  0  0
   19.4793  -11.1971  -18.3647 C   0  0  2  0  0  0  0  0  0  0  0  0
   20.5578  -11.8301  -19.1073 N   0  0  0  0  0  0  0  0  0  0  0  0
   20.0672  -10.6844  -17.0993 C   0  0  0  0  0  0  0  0  0  0  0  0
   19.3680  -10.1423  -16.1920 O   0  0  0  0  0  0  0  0  0  0  0  0
   21.4698  -10.7661  -16.8127 N   0  0  0  0  0  0  0  0  0  0  0  0
   22.0670  -10.2538  -15.6241 C   0  0  1  0  0  0  0  0  0  0  0  0
   23.3163  -11.0959  -15.3380 C   0  0  0  0  0  0  0  0  0  0  0  0
   22.8997  -12.5851  -14.4142 S   0  0  0  0  0  0  0  0  0  0  0  0
   22.4271   -8.8120  -15.7342 C   0  0  0  0  0  0  0  0  0  0  0  0
   22.9686   -8.4305  -16.8000 O   0  0  0  0  0  0  0  0  0  0  0  0
   22.3308   -3.6464  -15.3954 N   0  0  0  0  0  0  0  0  0  0  0  0
   21.5376   -4.4846  -16.2087 C   0  0  0  0  0  0  0  0  0  0  0  0
   20.8593   -3.9633  -17.1091 O   0  0  0  0  0  0  0  0  0  0  0  0
   21.5356   -5.9233  -15.9733 C   0  0  0  0  0  0  0  0  0  0  0  0
   22.4050   -6.4221  -14.8652 C   0  0  2  0  0  0  0  0  0  0  0  0
   22.1932   -7.8751  -14.7189 N   0  0  0  0  0  0  0  0  0  0  0  0
   22.1646   -5.7650  -13.5538 C   0  0  0  0  0  0  0  0  0  0  0  0
   21.6170   -6.2965  -12.5914 O   0  0  0  0  0  0  0  0  0  0  0  0
   22.5829   -4.4291  -13.3646 O   0  0  0  0  0  0  0  0  0  0  0  0
  2  4  1  0
  2  1  1  1
  3  2  1  0
  4  6  1  0
  4  5  1  6
  6  8  1  0
  6  7  2  0
  8  9  1  0
  9 12  1  0
  9 10  1  6
 11 10  1  0
 12 19  1  0
 13 12  2  0
 15 14  1  0
 16 15  2  0
 17 15  1  0
 18 17  1  6
 19 18  1  0
 20 18  1  0
 20 22  1  0
 21 20  2  0
M  END
$$$$
