VCN.pdb
     RDKit          3D

 22 21  0  0  1  0  0  0  0  0999 V2000
   21.0832  -13.9691  -17.5297 C   0  0  0  0  0  0  0  0  0  0  0  0
   20.6494  -12.5184  -17.5374 C   0  0  2  0  0  0  0  0  0  0  0  0
   21.8694  -11.6935  -17.1898 C   0  0  0  0  0  0  0  0  0  0  0  0
   19.6191  -12.2891  -16.4585 C   0  0  2  0  0  0  0  0  0  0  0  0
   18.5324  -13.2230  -16.7082 N   0  0  0  0  0  0  0  0  0  0  0  0
   19.0378  -10.9222  -16.5182 C   0  0  0  0  0  0  0  0  0  0  0  0
   18.9874  -10.2479  -17.5900 O   0  0  0  0  0  0  0  0  0  0  0  0
   18.4913  -10.2664  -15.3662 N   0  0  0  0  0  0  0  0  0  0  0  0
   17.9439   -8.9505  -15.3886 C   0  0  1  0  0  0  0  0  0  0  0  0
   16.5110   -9.0398  -14.8493 C   0  0  0  0  0  0  0  0  0  0  0  0
   15.4645  -10.0177  -15.9416 S   0  0  0  0  0  0  0  0  0  0  0  0
   18.7407   -7.9801  -14.5860 C   0  0  0  0  0  0  0  0  0  0  0  0
   19.3754   -8.4277  -13.6003 O   0  0  0  0  0  0  0  0  0  0  0  0
   23.1351   -4.7850  -14.4223 N   0  0  0  0  0  0  0  0  0  0  0  0
   22.0863   -5.2618  -13.6062 C   0  0  0  0  0  0  0  0  0  0  0  0
   22.0593   -4.9113  -12.4150 O   0  0  0  0  0  0  0  0  0  0  0  0
   21.0743   -6.1426  -14.1763 C   0  0  0  0  0  0  0  0  0  0  0  0
   19.6633   -5.6521  -14.1427 C   0  0  2  0  0  0  0  0  0  0  0  0
   18.8143   -6.6111  -14.8755 N   0  0  0  0  0  0  0  0  0  0  0  0
   19.4712   -4.2969  -14.7221 C   0  0  0  0  0  0  0  0  0  0  0  0
   19.1160   -4.0696  -15.8757 O   0  0  0  0  0  0  0  0  0  0  0  0
   19.7067   -3.1618  -13.9149 O   0  0  0  0  0  0  0  0  0  0  0  0
  2  4  1  0
  2  1  1  1
  3  2  1  0
  4  6  1  0
  4  5  1  6
  6  8  1  0
  6  7  2  0
  8  9  1  0
  9 12  1  0
  9 10  1  1
 11 10  1  0
 12 19  1  0
 13 12  2  0
 15 14  1  0
 16 15  2  0
 17 15  1  0
 18 17  1  6
 19 18  1  0
 20 18  1  0
 20 22  1  0
 21 20  2  0
M  END
$$$$
