DPR.pdb
     RDKit          3D

 27 27  0  0  1  0  0  0  0  0999 V2000
    9.1954  -15.9744   16.4042 N   0  0  0  0  0  0  0  0  0  0  0  0
   10.1244  -16.2644   17.4465 C   0  0  1  0  0  0  0  0  0  0  0  0
   11.5276  -15.9796   16.9494 C   0  0  0  0  0  0  0  0  0  0  0  0
   12.2214  -17.1644   16.4437 C   0  0  0  0  0  0  0  0  0  0  0  0
   11.5916  -18.0625   15.8632 O   0  0  0  0  0  0  0  0  0  0  0  0
    9.8574  -15.6442   18.7456 C   0  0  0  0  0  0  0  0  0  0  0  0
   10.5934  -15.9562   19.7062 O   0  0  0  0  0  0  0  0  0  0  0  0
   13.5901  -17.3391   16.5850 O   0  0  0  0  0  0  0  0  0  0  0  0
    8.7977  -14.6995   18.9791 N   0  0  0  0  0  0  0  0  0  0  0  0
    7.9911  -14.1978   17.9153 C   0  0  0  0  0  0  0  0  0  0  0  0
    7.0680  -13.1937   18.5505 C   0  0  0  0  0  0  0  0  0  0  0  0
    7.0265  -13.5580   20.0009 C   0  0  0  0  0  0  0  0  0  0  0  0
    8.4078  -14.1138   20.2167 C   0  0  1  0  0  0  0  0  0  0  0  0
    8.3110  -15.0833   21.3506 C   0  0  0  0  0  0  0  0  0  0  0  0
    7.8986  -16.2339   21.0988 O   0  0  0  0  0  0  0  0  0  0  0  0
   11.1829  -14.5251   29.9394 N   0  0  0  0  0  0  0  0  0  0  0  0
   10.3373  -15.6432   29.7846 C   0  0  0  0  0  0  0  0  0  0  0  0
    9.9611  -16.3308   30.8309 N   0  0  0  0  0  0  0  0  0  0  0  0
    9.8768  -16.0497   28.5035 N   0  0  0  0  0  0  0  0  0  0  0  0
    9.8547  -15.1278   27.3867 C   0  0  0  0  0  0  0  0  0  0  0  0
    9.2174  -15.8054   26.2203 C   0  0  0  0  0  0  0  0  0  0  0  0
    9.2539  -15.0260   24.9470 C   0  0  0  0  0  0  0  0  0  0  0  0
    8.5069  -15.6529   23.8071 C   0  0  2  0  0  0  0  0  0  0  0  0
    8.6590  -14.7625   22.6693 N   0  0  0  0  0  0  0  0  0  0  0  0
    7.0598  -15.8176   24.0703 C   0  0  0  0  0  0  0  0  0  0  0  0
    6.7193  -16.8593   24.7216 O   0  0  0  0  0  0  0  0  0  0  0  0
    6.0889  -14.9171   23.6528 O   0  0  0  0  0  0  0  0  0  0  0  0
  2  1  1  6
  2  3  1  0
  3  4  1  0
  4  8  1  0
  5  4  2  0
  6  2  1  0
  7  6  2  0
  9 13  1  0
  9  6  1  0
 10  9  1  0
 11 10  1  0
 11 12  1  0
 12 13  1  0
 14 15  2  0
 13 14  1  1
 16 17  1  0
 17 18  2  0
 19 17  1  0
 19 20  1  0
 21 20  1  0
 21 22  1  0
 23 22  1  1
 23 24  1  0
 23 25  1  0
 24 14  1  0
 25 27  1  0
 26 25  2  0
M  END
$$$$
