DPR.pdb
     RDKit          3D

 27 27  0  0  1  0  0  0  0  0999 V2000
    8.4184  -14.5927   21.4447 N   0  0  0  0  0  0  0  0  0  0  0  0
    7.5796  -14.6364   22.5971 C   0  0  1  0  0  0  0  0  0  0  0  0
    6.9066  -15.9927   22.6656 C   0  0  0  0  0  0  0  0  0  0  0  0
    6.3123  -16.4162   21.3975 C   0  0  0  0  0  0  0  0  0  0  0  0
    5.2050  -15.9803   21.0448 O   0  0  0  0  0  0  0  0  0  0  0  0
    8.2014  -14.2587   23.8677 C   0  0  0  0  0  0  0  0  0  0  0  0
    9.3005  -14.7771   24.1591 O   0  0  0  0  0  0  0  0  0  0  0  0
    6.9442  -17.3079   20.5434 O   0  0  0  0  0  0  0  0  0  0  0  0
    7.6197  -13.3283   24.7983 N   0  0  0  0  0  0  0  0  0  0  0  0
    6.5879  -12.4236   24.4098 C   0  0  0  0  0  0  0  0  0  0  0  0
    6.3125  -11.5822   25.6263 C   0  0  0  0  0  0  0  0  0  0  0  0
    6.8097  -12.3883   26.7844 C   0  0  0  0  0  0  0  0  0  0  0  0
    7.9612  -13.1340   26.1667 C   0  0  1  0  0  0  0  0  0  0  0  0
    8.1226  -14.4006   26.9443 C   0  0  0  0  0  0  0  0  0  0  0  0
    7.2750  -15.3003   26.7734 O   0  0  0  0  0  0  0  0  0  0  0  0
    7.5204  -18.8806   23.9659 N   0  0  0  0  0  0  0  0  0  0  0  0
    7.9596  -19.9732   24.7421 C   0  0  0  0  0  0  0  0  0  0  0  0
    7.2589  -21.0762   24.7776 N   0  0  0  0  0  0  0  0  0  0  0  0
    9.1602  -19.9068   25.4989 N   0  0  0  0  0  0  0  0  0  0  0  0
    9.8942  -18.6656   25.6343 C   0  0  0  0  0  0  0  0  0  0  0  0
    9.4114  -17.9558   26.8545 C   0  0  0  0  0  0  0  0  0  0  0  0
   10.1230  -16.6785   27.1583 C   0  0  0  0  0  0  0  0  0  0  0  0
    9.5824  -15.9253   28.3376 C   0  0  2  0  0  0  0  0  0  0  0  0
    9.1715  -14.6213   27.8466 N   0  0  0  0  0  0  0  0  0  0  0  0
   10.5793  -15.7176   29.4117 C   0  0  0  0  0  0  0  0  0  0  0  0
   11.4664  -14.8280   29.1945 O   0  0  0  0  0  0  0  0  0  0  0  0
   10.5905  -16.4256   30.6060 O   0  0  0  0  0  0  0  0  0  0  0  0
  2  1  1  6
  2  3  1  0
  3  4  1  0
  4  8  1  0
  5  4  2  0
  6  2  1  0
  7  6  2  0
  9 13  1  0
  9  6  1  0
 10  9  1  0
 11 10  1  0
 11 12  1  0
 12 13  1  0
 14 15  2  0
 13 14  1  1
 16 17  1  0
 17 18  2  0
 19 17  1  0
 19 20  1  0
 21 20  1  0
 21 22  1  0
 23 22  1  6
 23 24  1  0
 23 25  1  0
 24 14  1  0
 25 27  1  0
 26 25  2  0
M  END
$$$$
