DPR.pdb
     RDKit          3D

 27 27  0  0  1  0  0  0  0  0999 V2000
   12.3919  -18.5590   16.3426 N   0  0  0  0  0  0  0  0  0  0  0  0
   12.9477  -18.9977   17.5804 C   0  0  1  0  0  0  0  0  0  0  0  0
   14.3274  -18.3918   17.7433 C   0  0  0  0  0  0  0  0  0  0  0  0
   15.2363  -18.6997   16.6389 C   0  0  0  0  0  0  0  0  0  0  0  0
   15.0287  -19.6811   15.9080 O   0  0  0  0  0  0  0  0  0  0  0  0
   12.1138  -18.8112   18.7693 C   0  0  0  0  0  0  0  0  0  0  0  0
   11.6319  -17.6766   18.9748 O   0  0  0  0  0  0  0  0  0  0  0  0
   16.3528  -17.9256   16.3594 O   0  0  0  0  0  0  0  0  0  0  0  0
   11.8196  -19.8566   19.7129 N   0  0  0  0  0  0  0  0  0  0  0  0
   12.2137  -21.2079   19.4835 C   0  0  0  0  0  0  0  0  0  0  0  0
   11.6596  -21.9902   20.6431 C   0  0  0  0  0  0  0  0  0  0  0  0
   11.4445  -20.9852   21.7303 C   0  0  0  0  0  0  0  0  0  0  0  0
   11.1096  -19.7483   20.9421 C   0  0  1  0  0  0  0  0  0  0  0  0
   11.5120  -18.5787   21.7818 C   0  0  0  0  0  0  0  0  0  0  0  0
   12.7144  -18.2450   21.7767 O   0  0  0  0  0  0  0  0  0  0  0  0
    6.8513  -12.4341   20.1336 N   0  0  0  0  0  0  0  0  0  0  0  0
    7.8860  -13.0144   19.3708 C   0  0  0  0  0  0  0  0  0  0  0  0
    7.9552  -12.7935   18.0842 N   0  0  0  0  0  0  0  0  0  0  0  0
    8.8695  -13.8458   19.9708 N   0  0  0  0  0  0  0  0  0  0  0  0
    8.8165  -14.1732   21.3807 C   0  0  0  0  0  0  0  0  0  0  0  0
    9.9135  -15.1361   21.6891 C   0  0  0  0  0  0  0  0  0  0  0  0
    9.9255  -15.6422   23.0940 C   0  0  0  0  0  0  0  0  0  0  0  0
   10.9603  -16.6917   23.3731 C   0  0  2  0  0  0  0  0  0  0  0  0
   10.6099  -17.8476   22.5659 N   0  0  0  0  0  0  0  0  0  0  0  0
   11.0011  -17.1173   24.7901 C   0  0  0  0  0  0  0  0  0  0  0  0
   10.3128  -18.1476   25.0903 O   0  0  0  0  0  0  0  0  0  0  0  0
   11.7318  -16.4652   25.7743 O   0  0  0  0  0  0  0  0  0  0  0  0
  2  1  1  6
  2  3  1  0
  3  4  1  0
  4  8  1  0
  5  4  2  0
  6  2  1  0
  7  6  2  0
  9 13  1  0
  9  6  1  0
 10  9  1  0
 11 10  1  0
 11 12  1  0
 12 13  1  0
 14 15  2  0
 13 14  1  1
 16 17  1  0
 17 18  2  0
 19 17  1  0
 19 20  1  0
 21 20  1  0
 21 22  1  0
 23 22  1  1
 23 24  1  0
 23 25  1  0
 24 14  1  0
 25 27  1  0
 26 25  2  0
M  END
$$$$
