DPR.pdb
     RDKit          3D

 27 27  0  0  1  0  0  0  0  0999 V2000
   10.0134  -16.6191   14.5394 N   0  0  0  0  0  0  0  0  0  0  0  0
   10.4582  -17.6669   15.3983 C   0  0  1  0  0  0  0  0  0  0  0  0
   11.9498  -17.8592   15.2095 C   0  0  0  0  0  0  0  0  0  0  0  0
   12.3402  -18.0781   13.8165 C   0  0  0  0  0  0  0  0  0  0  0  0
   13.3856  -17.5796   13.3703 O   0  0  0  0  0  0  0  0  0  0  0  0
   10.0860  -17.5520   16.8096 C   0  0  0  0  0  0  0  0  0  0  0  0
   10.4124  -16.5109   17.4188 O   0  0  0  0  0  0  0  0  0  0  0  0
   11.5769  -18.8384   12.9430 O   0  0  0  0  0  0  0  0  0  0  0  0
    9.3690  -18.5678   17.5337 N   0  0  0  0  0  0  0  0  0  0  0  0
    8.8280  -19.7147   16.8811 C   0  0  0  0  0  0  0  0  0  0  0  0
    8.0990  -20.4795   17.9523 C   0  0  0  0  0  0  0  0  0  0  0  0
    8.7021  -20.0230   19.2430 C   0  0  0  0  0  0  0  0  0  0  0  0
    9.0655  -18.5983   18.9243 C   0  0  1  0  0  0  0  0  0  0  0  0
   10.2137  -18.2366   19.8107 C   0  0  0  0  0  0  0  0  0  0  0  0
   11.3581  -18.5788   19.4494 O   0  0  0  0  0  0  0  0  0  0  0  0
    6.2041  -13.5860   19.5837 N   0  0  0  0  0  0  0  0  0  0  0  0
    7.4037  -13.0585   20.1051 C   0  0  0  0  0  0  0  0  0  0  0  0
    7.8672  -11.9198   19.6606 N   0  0  0  0  0  0  0  0  0  0  0  0
    8.1340  -13.7412   21.1147 N   0  0  0  0  0  0  0  0  0  0  0  0
    9.4912  -14.1913   20.8845 C   0  0  0  0  0  0  0  0  0  0  0  0
    9.9416  -14.9768   22.0702 C   0  0  0  0  0  0  0  0  0  0  0  0
   11.2462  -15.6822   21.8950 C   0  0  0  0  0  0  0  0  0  0  0  0
   11.1554  -17.1795   21.9067 C   0  0  2  0  0  0  0  0  0  0  0  0
   10.0651  -17.5379   21.0161 N   0  0  0  0  0  0  0  0  0  0  0  0
   10.8592  -17.7416   23.2435 C   0  0  0  0  0  0  0  0  0  0  0  0
    9.6596  -18.1250   23.4417 O   0  0  0  0  0  0  0  0  0  0  0  0
   11.7994  -17.8655   24.2576 O   0  0  0  0  0  0  0  0  0  0  0  0
  2  1  1  6
  2  3  1  0
  3  4  1  0
  4  8  1  0
  5  4  2  0
  6  2  1  0
  7  6  2  0
  9 13  1  0
  9  6  1  0
 10  9  1  0
 11 10  1  0
 11 12  1  0
 12 13  1  0
 14 15  2  0
 13 14  1  1
 16 17  1  0
 17 18  2  0
 19 17  1  0
 19 20  1  0
 21 20  1  0
 21 22  1  0
 23 22  1  1
 23 24  1  0
 23 25  1  0
 24 14  1  0
 25 27  1  0
 26 25  2  0
M  END
$$$$
