DPR.pdb
     RDKit          3D

 27 27  0  0  1  0  0  0  0  0999 V2000
    9.9087  -17.2948   17.6797 N   0  0  0  0  0  0  0  0  0  0  0  0
    8.7384  -17.1969   18.4885 C   0  0  1  0  0  0  0  0  0  0  0  0
    8.2227  -18.5920   18.7801 C   0  0  0  0  0  0  0  0  0  0  0  0
    7.0597  -18.6128   19.6676 C   0  0  0  0  0  0  0  0  0  0  0  0
    7.1971  -18.8416   20.8797 O   0  0  0  0  0  0  0  0  0  0  0  0
    8.8518  -16.3810   19.6989 C   0  0  0  0  0  0  0  0  0  0  0  0
    9.4524  -16.8689   20.6802 O   0  0  0  0  0  0  0  0  0  0  0  0
    5.7716  -18.3822   19.2077 O   0  0  0  0  0  0  0  0  0  0  0  0
    8.3109  -15.0536   19.8233 N   0  0  0  0  0  0  0  0  0  0  0  0
    7.6794  -14.3944   18.7275 C   0  0  0  0  0  0  0  0  0  0  0  0
    7.3286  -13.0215   19.2331 C   0  0  0  0  0  0  0  0  0  0  0  0
    7.2909  -13.1473   20.7233 C   0  0  0  0  0  0  0  0  0  0  0  0
    8.3308  -14.2068   20.9675 C   0  0  1  0  0  0  0  0  0  0  0  0
    7.9589  -14.8912   22.2435 C   0  0  0  0  0  0  0  0  0  0  0  0
    6.9044  -15.5584   22.2601 O   0  0  0  0  0  0  0  0  0  0  0  0
    5.7561  -21.1640   25.4807 N   0  0  0  0  0  0  0  0  0  0  0  0
    6.5576  -20.7901   26.5795 C   0  0  0  0  0  0  0  0  0  0  0  0
    6.2074  -21.1299   27.7923 N   0  0  0  0  0  0  0  0  0  0  0  0
    7.7525  -20.0423   26.4020 N   0  0  0  0  0  0  0  0  0  0  0  0
    8.0045  -19.3098   25.1783 C   0  0  0  0  0  0  0  0  0  0  0  0
    8.0895  -17.8556   25.5008 C   0  0  0  0  0  0  0  0  0  0  0  0
    8.3889  -16.9723   24.3345 C   0  0  0  0  0  0  0  0  0  0  0  0
    8.4262  -15.5066   24.6519 C   0  0  2  0  0  0  0  0  0  0  0  0
    8.7324  -14.8188   23.4095 N   0  0  0  0  0  0  0  0  0  0  0  0
    9.4630  -15.1446   25.6441 C   0  0  0  0  0  0  0  0  0  0  0  0
    9.1387  -15.2690   26.8708 O   0  0  0  0  0  0  0  0  0  0  0  0
   10.7315  -14.6903   25.3087 O   0  0  0  0  0  0  0  0  0  0  0  0
  2  1  1  1
  2  3  1  0
  3  4  1  0
  4  8  1  0
  5  4  2  0
  6  2  1  0
  7  6  2  0
  9 13  1  0
  9  6  1  0
 10  9  1  0
 11 10  1  0
 11 12  1  0
 12 13  1  0
 14 15  2  0
 13 14  1  1
 16 17  1  0
 17 18  2  0
 19 17  1  0
 19 20  1  0
 21 20  1  0
 21 22  1  0
 23 22  1  6
 23 24  1  0
 23 25  1  0
 24 14  1  0
 25 27  1  0
 26 25  2  0
M  END
$$$$
