DPR.pdb
     RDKit          3D

 27 27  0  0  1  0  0  0  0  0999 V2000
   10.5235  -15.1218   15.2655 N   0  0  0  0  0  0  0  0  0  0  0  0
    9.3781  -15.0122   16.1078 C   0  0  1  0  0  0  0  0  0  0  0  0
    8.5213  -16.2509   15.9381 C   0  0  0  0  0  0  0  0  0  0  0  0
    9.2211  -17.3633   15.2952 C   0  0  0  0  0  0  0  0  0  0  0  0
    8.7650  -18.5158   15.3608 O   0  0  0  0  0  0  0  0  0  0  0  0
    9.6344  -14.7011   17.5154 C   0  0  0  0  0  0  0  0  0  0  0  0
   10.7284  -15.0559   18.0041 O   0  0  0  0  0  0  0  0  0  0  0  0
   10.4052  -17.1888   14.5943 O   0  0  0  0  0  0  0  0  0  0  0  0
    8.7000  -14.0134   18.3662 N   0  0  0  0  0  0  0  0  0  0  0  0
    7.5687  -13.3248   17.8370 C   0  0  0  0  0  0  0  0  0  0  0  0
    6.8988  -12.6833   19.0217 C   0  0  0  0  0  0  0  0  0  0  0  0
    7.3626  -13.4663   20.2092 C   0  0  0  0  0  0  0  0  0  0  0  0
    8.7451  -13.8791   19.7828 C   0  0  1  0  0  0  0  0  0  0  0  0
    9.0606  -15.1470   20.5093 C   0  0  0  0  0  0  0  0  0  0  0  0
    8.3837  -16.1588   20.2349 O   0  0  0  0  0  0  0  0  0  0  0  0
   13.9568  -14.4242   18.1582 N   0  0  0  0  0  0  0  0  0  0  0  0
   15.0165  -14.9818   18.9035 C   0  0  0  0  0  0  0  0  0  0  0  0
   16.1745  -15.1974   18.3366 N   0  0  0  0  0  0  0  0  0  0  0  0
   14.8574  -15.3218   20.2737 N   0  0  0  0  0  0  0  0  0  0  0  0
   14.1012  -16.4905   20.6739 C   0  0  0  0  0  0  0  0  0  0  0  0
   12.9000  -16.0437   21.4377 C   0  0  0  0  0  0  0  0  0  0  0  0
   11.7167  -16.9482   21.3285 C   0  0  0  0  0  0  0  0  0  0  0  0
   10.5071  -16.4920   22.0893 C   0  0  2  0  0  0  0  0  0  0  0  0
   10.0715  -15.2502   21.4739 N   0  0  0  0  0  0  0  0  0  0  0  0
   10.7765  -16.2250   23.5199 C   0  0  0  0  0  0  0  0  0  0  0  0
   11.0941  -17.2334   24.2325 O   0  0  0  0  0  0  0  0  0  0  0  0
   10.7010  -14.9662   24.1008 O   0  0  0  0  0  0  0  0  0  0  0  0
  2  1  1  6
  2  3  1  0
  3  4  1  0
  4  8  1  0
  5  4  2  0
  6  2  1  0
  7  6  2  0
  9 13  1  0
  9  6  1  0
 10  9  1  0
 11 10  1  0
 11 12  1  0
 12 13  1  0
 14 15  2  0
 13 14  1  1
 16 17  1  0
 17 18  2  0
 19 17  1  0
 19 20  1  0
 21 20  1  0
 21 22  1  0
 23 22  1  6
 23 24  1  0
 23 25  1  0
 24 14  1  0
 25 27  1  0
 26 25  2  0
M  END
$$$$
