DPR.pdb
     RDKit          3D

 27 27  0  0  1  0  0  0  0  0999 V2000
   11.4626  -15.4554   16.8287 N   0  0  0  0  0  0  0  0  0  0  0  0
   10.1178  -15.5920   17.2829 C   0  0  1  0  0  0  0  0  0  0  0  0
    9.5998  -16.9597   16.8849 C   0  0  0  0  0  0  0  0  0  0  0  0
    9.5731  -17.1775   15.4383 C   0  0  0  0  0  0  0  0  0  0  0  0
    8.5158  -17.0466   14.8016 O   0  0  0  0  0  0  0  0  0  0  0  0
    9.8761  -15.2948   18.6960 C   0  0  0  0  0  0  0  0  0  0  0  0
   10.5935  -15.8649   19.5457 O   0  0  0  0  0  0  0  0  0  0  0  0
   10.7054  -17.5339   14.7209 O   0  0  0  0  0  0  0  0  0  0  0  0
    8.8611  -14.3873   19.1610 N   0  0  0  0  0  0  0  0  0  0  0  0
    8.1283  -13.5563   18.2629 C   0  0  0  0  0  0  0  0  0  0  0  0
    7.2362  -12.7134   19.1332 C   0  0  0  0  0  0  0  0  0  0  0  0
    7.1143  -13.4666   20.4201 C   0  0  0  0  0  0  0  0  0  0  0  0
    8.4528  -14.1485   20.5037 C   0  0  1  0  0  0  0  0  0  0  0  0
    8.2558  -15.3889   21.3146 C   0  0  0  0  0  0  0  0  0  0  0  0
    7.8573  -16.4132   20.7237 O   0  0  0  0  0  0  0  0  0  0  0  0
   10.3960  -13.7570   27.9861 N   0  0  0  0  0  0  0  0  0  0  0  0
   10.1863  -14.9558   28.6988 C   0  0  0  0  0  0  0  0  0  0  0  0
   10.0157  -14.9271   29.9946 N   0  0  0  0  0  0  0  0  0  0  0  0
   10.1560  -16.2130   28.0377 N   0  0  0  0  0  0  0  0  0  0  0  0
   10.5382  -16.3385   26.6463 C   0  0  0  0  0  0  0  0  0  0  0  0
    9.3075  -16.5503   25.8301 C   0  0  0  0  0  0  0  0  0  0  0  0
    9.5514  -16.7513   24.3705 C   0  0  0  0  0  0  0  0  0  0  0  0
    8.3274  -16.6428   23.5100 C   0  0  2  0  0  0  0  0  0  0  0  0
    8.4960  -15.4532   22.6935 N   0  0  0  0  0  0  0  0  0  0  0  0
    7.0743  -16.4943   24.2836 C   0  0  0  0  0  0  0  0  0  0  0  0
    6.6291  -15.3069   24.4147 O   0  0  0  0  0  0  0  0  0  0  0  0
    6.3852  -17.5562   24.8538 O   0  0  0  0  0  0  0  0  0  0  0  0
  2  1  1  1
  2  3  1  0
  3  4  1  0
  4  8  1  0
  5  4  2  0
  6  2  1  0
  7  6  2  0
  9 13  1  0
  9  6  1  0
 10  9  1  0
 11 10  1  0
 11 12  1  0
 12 13  1  0
 14 15  2  0
 13 14  1  1
 16 17  1  0
 17 18  2  0
 19 17  1  0
 19 20  1  0
 21 20  1  0
 21 22  1  0
 23 22  1  1
 23 24  1  0
 23 25  1  0
 24 14  1  0
 25 27  1  0
 26 25  2  0
M  END
$$$$
