DPR.pdb
     RDKit          3D

 27 27  0  0  1  0  0  0  0  0999 V2000
    7.1049  -20.8643   25.6625 N   0  0  0  0  0  0  0  0  0  0  0  0
    8.0745  -19.8804   26.0165 C   0  0  1  0  0  0  0  0  0  0  0  0
    9.3600  -20.5769   26.4163 C   0  0  0  0  0  0  0  0  0  0  0  0
    9.2605  -21.3104   27.6784 C   0  0  0  0  0  0  0  0  0  0  0  0
    8.1958  -21.3240   28.3160 O   0  0  0  0  0  0  0  0  0  0  0  0
    8.3005  -18.8112   25.0421 C   0  0  0  0  0  0  0  0  0  0  0  0
    8.3363  -19.1195   23.8316 O   0  0  0  0  0  0  0  0  0  0  0  0
   10.3297  -22.0129   28.2142 O   0  0  0  0  0  0  0  0  0  0  0  0
    8.4849  -17.4295   25.3982 N   0  0  0  0  0  0  0  0  0  0  0  0
    8.1526  -16.9375   26.6950 C   0  0  0  0  0  0  0  0  0  0  0  0
    8.4124  -15.4564   26.6412 C   0  0  0  0  0  0  0  0  0  0  0  0
    9.3718  -15.2649   25.5093 C   0  0  0  0  0  0  0  0  0  0  0  0
    8.9687  -16.3733   24.5753 C   0  0  1  0  0  0  0  0  0  0  0  0
   10.1809  -16.7258   23.7746 C   0  0  0  0  0  0  0  0  0  0  0  0
   10.9439  -17.6024   24.2292 O   0  0  0  0  0  0  0  0  0  0  0  0
    8.7608  -12.9328   16.8322 N   0  0  0  0  0  0  0  0  0  0  0  0
    8.3442  -14.2758   16.9415 C   0  0  0  0  0  0  0  0  0  0  0  0
    7.4208  -14.7431   16.1428 N   0  0  0  0  0  0  0  0  0  0  0  0
    8.9080  -15.1478   17.9112 N   0  0  0  0  0  0  0  0  0  0  0  0
   10.0985  -14.7798   18.6493 C   0  0  0  0  0  0  0  0  0  0  0  0
   10.3980  -15.8547   19.6396 C   0  0  0  0  0  0  0  0  0  0  0  0
   11.5806  -15.5900   20.5122 C   0  0  0  0  0  0  0  0  0  0  0  0
   11.6579  -16.4482   21.7401 C   0  0  2  0  0  0  0  0  0  0  0  0
   10.4960  -16.1234   22.5495 N   0  0  0  0  0  0  0  0  0  0  0  0
   12.8682  -16.2025   22.5559 C   0  0  0  0  0  0  0  0  0  0  0  0
   13.9516  -16.7219   22.1295 O   0  0  0  0  0  0  0  0  0  0  0  0
   12.8752  -15.4559   23.7265 O   0  0  0  0  0  0  0  0  0  0  0  0
  2  1  1  6
  2  3  1  0
  3  4  1  0
  4  8  1  0
  5  4  2  0
  6  2  1  0
  7  6  2  0
  9 13  1  0
  9  6  1  0
 10  9  1  0
 11 10  1  0
 11 12  1  0
 12 13  1  0
 14 15  2  0
 13 14  1  1
 16 17  1  0
 17 18  2  0
 19 17  1  0
 19 20  1  0
 21 20  1  0
 21 22  1  0
 23 22  1  6
 23 24  1  0
 23 25  1  0
 24 14  1  0
 25 27  1  0
 26 25  2  0
M  END
$$$$
