DPR.pdb
     RDKit          3D

 27 27  0  0  1  0  0  0  0  0999 V2000
   10.4110  -15.6915   15.5579 N   0  0  0  0  0  0  0  0  0  0  0  0
    9.2992  -15.5905   16.4451 C   0  0  1  0  0  0  0  0  0  0  0  0
    8.4665  -16.8524   16.3373 C   0  0  0  0  0  0  0  0  0  0  0  0
    8.0557  -17.1678   14.9689 C   0  0  0  0  0  0  0  0  0  0  0  0
    8.4254  -16.4568   14.0212 O   0  0  0  0  0  0  0  0  0  0  0  0
    9.6058  -15.2429   17.8339 C   0  0  0  0  0  0  0  0  0  0  0  0
   10.5817  -15.8039   18.3765 O   0  0  0  0  0  0  0  0  0  0  0  0
    7.2490  -18.2555   14.6688 O   0  0  0  0  0  0  0  0  0  0  0  0
    8.8485  -14.2957   18.6080 N   0  0  0  0  0  0  0  0  0  0  0  0
    7.9414  -13.3806   17.9965 C   0  0  0  0  0  0  0  0  0  0  0  0
    7.4187  -12.5239   19.1175 C   0  0  0  0  0  0  0  0  0  0  0  0
    7.6368  -13.3256   20.3616 C   0  0  0  0  0  0  0  0  0  0  0  0
    8.8841  -14.0930   20.0167 C   0  0  1  0  0  0  0  0  0  0  0  0
    8.8511  -15.3542   20.8188 C   0  0  0  0  0  0  0  0  0  0  0  0
    8.7485  -16.4338   20.2015 O   0  0  0  0  0  0  0  0  0  0  0  0
   15.1488  -19.5212   21.8121 N   0  0  0  0  0  0  0  0  0  0  0  0
   14.5107  -19.8120   23.0358 C   0  0  0  0  0  0  0  0  0  0  0  0
   14.6326  -20.9973   23.5735 N   0  0  0  0  0  0  0  0  0  0  0  0
   13.7262  -18.8380   23.7099 N   0  0  0  0  0  0  0  0  0  0  0  0
   13.1406  -17.7216   22.9969 C   0  0  0  0  0  0  0  0  0  0  0  0
   11.6887  -17.6493   23.3321 C   0  0  0  0  0  0  0  0  0  0  0  0
   10.9378  -16.5650   22.6315 C   0  0  0  0  0  0  0  0  0  0  0  0
    9.4862  -16.4708   22.9976 C   0  0  2  0  0  0  0  0  0  0  0  0
    8.9296  -15.3790   22.2174 N   0  0  0  0  0  0  0  0  0  0  0  0
    9.2574  -16.1744   24.4295 C   0  0  0  0  0  0  0  0  0  0  0  0
    9.5126  -14.9839   24.8075 O   0  0  0  0  0  0  0  0  0  0  0  0
    8.7925  -17.1053   25.3488 O   0  0  0  0  0  0  0  0  0  0  0  0
  2  1  1  6
  2  3  1  0
  3  4  1  0
  4  8  1  0
  5  4  2  0
  6  2  1  0
  7  6  2  0
  9 13  1  0
  9  6  1  0
 10  9  1  0
 11 10  1  0
 11 12  1  0
 12 13  1  0
 14 15  2  0
 13 14  1  1
 16 17  1  0
 17 18  2  0
 19 17  1  0
 19 20  1  0
 21 20  1  0
 21 22  1  0
 23 22  1  1
 23 24  1  0
 23 25  1  0
 24 14  1  0
 25 27  1  0
 26 25  2  0
M  END
$$$$
