DPR.pdb
     RDKit          3D

 27 27  0  0  1  0  0  0  0  0999 V2000
   10.0100  -16.2025   15.7892 N   0  0  0  0  0  0  0  0  0  0  0  0
    8.9596  -16.0185   16.7358 C   0  0  1  0  0  0  0  0  0  0  0  0
    8.1753  -17.3097   16.8587 C   0  0  0  0  0  0  0  0  0  0  0  0
    7.7528  -17.8630   15.5718 C   0  0  0  0  0  0  0  0  0  0  0  0
    7.7096  -19.0912   15.3986 O   0  0  0  0  0  0  0  0  0  0  0  0
    9.3475  -15.4766   18.0394 C   0  0  0  0  0  0  0  0  0  0  0  0
   10.3972  -15.9065   18.5639 O   0  0  0  0  0  0  0  0  0  0  0  0
    7.3867  -17.0585   14.5029 O   0  0  0  0  0  0  0  0  0  0  0  0
    8.5900  -14.4810   18.7501 N   0  0  0  0  0  0  0  0  0  0  0  0
    7.5543  -13.7321   18.1172 C   0  0  0  0  0  0  0  0  0  0  0  0
    7.0704  -12.7582   19.1569 C   0  0  0  0  0  0  0  0  0  0  0  0
    7.4737  -13.3501   20.4703 C   0  0  0  0  0  0  0  0  0  0  0  0
    8.7428  -14.0706   20.1047 C   0  0  1  0  0  0  0  0  0  0  0  0
    8.8938  -15.1987   21.0740 C   0  0  0  0  0  0  0  0  0  0  0  0
    8.1430  -16.1863   20.9390 O   0  0  0  0  0  0  0  0  0  0  0  0
   16.6572  -17.4347   21.9208 N   0  0  0  0  0  0  0  0  0  0  0  0
   16.0435  -16.1981   22.2094 C   0  0  0  0  0  0  0  0  0  0  0  0
   16.6849  -15.2934   22.9016 N   0  0  0  0  0  0  0  0  0  0  0  0
   14.7271  -15.9043   21.7630 N   0  0  0  0  0  0  0  0  0  0  0  0
   13.6537  -16.8660   21.9074 C   0  0  0  0  0  0  0  0  0  0  0  0
   12.4782  -16.1814   22.5200 C   0  0  0  0  0  0  0  0  0  0  0  0
   11.2498  -17.0237   22.6283 C   0  0  0  0  0  0  0  0  0  0  0  0
   10.0191  -16.2839   23.0623 C   0  0  2  0  0  0  0  0  0  0  0  0
    9.8303  -15.1978   22.1161 N   0  0  0  0  0  0  0  0  0  0  0  0
   10.1305  -15.6979   24.4168 C   0  0  0  0  0  0  0  0  0  0  0  0
   10.2542  -16.5232   25.3807 O   0  0  0  0  0  0  0  0  0  0  0  0
   10.1070  -14.3340   24.6753 O   0  0  0  0  0  0  0  0  0  0  0  0
  2  1  1  6
  2  3  1  0
  3  4  1  0
  4  8  1  0
  5  4  2  0
  6  2  1  0
  7  6  2  0
  9 13  1  0
  9  6  1  0
 10  9  1  0
 11 10  1  0
 11 12  1  0
 12 13  1  0
 14 15  2  0
 13 14  1  1
 16 17  1  0
 17 18  2  0
 19 17  1  0
 19 20  1  0
 21 20  1  0
 21 22  1  0
 23 22  1  6
 23 24  1  0
 23 25  1  0
 24 14  1  0
 25 27  1  0
 26 25  2  0
M  END
$$$$
