DPR.pdb
     RDKit          3D

 27 27  0  0  1  0  0  0  0  0999 V2000
   10.3833  -14.8126   15.2825 N   0  0  0  0  0  0  0  0  0  0  0  0
    9.3453  -15.0869   16.2208 C   0  0  1  0  0  0  0  0  0  0  0  0
    8.9718  -16.5529   16.1280 C   0  0  0  0  0  0  0  0  0  0  0  0
    8.5834  -16.9741   14.7817 C   0  0  0  0  0  0  0  0  0  0  0  0
    8.6342  -16.1752   13.8333 O   0  0  0  0  0  0  0  0  0  0  0  0
    9.5874  -14.6604   17.6004 C   0  0  0  0  0  0  0  0  0  0  0  0
   10.7448  -14.7800   18.0561 O   0  0  0  0  0  0  0  0  0  0  0  0
    8.1479  -18.2614   14.5040 O   0  0  0  0  0  0  0  0  0  0  0  0
    8.5707  -14.1145   18.4597 N   0  0  0  0  0  0  0  0  0  0  0  0
    7.3315  -13.6321   17.9443 C   0  0  0  0  0  0  0  0  0  0  0  0
    6.5902  -13.0809   19.1319 C   0  0  0  0  0  0  0  0  0  0  0  0
    7.1999  -13.7497   20.3231 C   0  0  0  0  0  0  0  0  0  0  0  0
    8.6223  -13.9415   19.8719 C   0  0  1  0  0  0  0  0  0  0  0  0
    9.1558  -15.1236   20.6155 C   0  0  0  0  0  0  0  0  0  0  0  0
    8.7067  -16.2493   20.3180 O   0  0  0  0  0  0  0  0  0  0  0  0
   15.7490  -14.1227   19.6249 N   0  0  0  0  0  0  0  0  0  0  0  0
   15.3065  -15.2438   18.8924 C   0  0  0  0  0  0  0  0  0  0  0  0
   15.6148  -15.3642   17.6277 N   0  0  0  0  0  0  0  0  0  0  0  0
   14.5221  -16.2609   19.4999 N   0  0  0  0  0  0  0  0  0  0  0  0
   14.1326  -16.1770   20.8924 C   0  0  0  0  0  0  0  0  0  0  0  0
   12.6430  -16.1515   20.9710 C   0  0  0  0  0  0  0  0  0  0  0  0
   12.0897  -16.1288   22.3579 C   0  0  0  0  0  0  0  0  0  0  0  0
   10.5917  -16.1359   22.4351 C   0  0  2  0  0  0  0  0  0  0  0  0
   10.1271  -15.0263   21.6206 N   0  0  0  0  0  0  0  0  0  0  0  0
   10.0712  -15.9467   23.8076 C   0  0  0  0  0  0  0  0  0  0  0  0
    9.5637  -14.8062   24.0669 O   0  0  0  0  0  0  0  0  0  0  0  0
   10.1101  -16.9243   24.7927 O   0  0  0  0  0  0  0  0  0  0  0  0
  2  1  1  6
  2  3  1  0
  3  4  1  0
  4  8  1  0
  5  4  2  0
  6  2  1  0
  7  6  2  0
  9 13  1  0
  9  6  1  0
 10  9  1  0
 11 10  1  0
 11 12  1  0
 12 13  1  0
 14 15  2  0
 13 14  1  1
 16 17  1  0
 17 18  2  0
 19 17  1  0
 19 20  1  0
 21 20  1  0
 21 22  1  0
 23 22  1  1
 23 24  1  0
 23 25  1  0
 24 14  1  0
 25 27  1  0
 26 25  2  0
M  END
$$$$
