DPR.pdb
     RDKit          3D

 27 27  0  0  1  0  0  0  0  0999 V2000
    9.4083  -14.7364   14.7314 N   0  0  0  0  0  0  0  0  0  0  0  0
    8.5937  -15.0077   15.8699 C   0  0  1  0  0  0  0  0  0  0  0  0
    8.1029  -16.4397   15.7946 C   0  0  0  0  0  0  0  0  0  0  0  0
    9.1733  -17.4155   15.5878 C   0  0  0  0  0  0  0  0  0  0  0  0
   10.3444  -17.0392   15.4220 O   0  0  0  0  0  0  0  0  0  0  0  0
    9.1737  -14.6858   17.1751 C   0  0  0  0  0  0  0  0  0  0  0  0
   10.3895  -14.9166   17.3490 O   0  0  0  0  0  0  0  0  0  0  0  0
    8.9374  -18.7821   15.5671 O   0  0  0  0  0  0  0  0  0  0  0  0
    8.4252  -14.1221   18.2668 N   0  0  0  0  0  0  0  0  0  0  0  0
    7.0874  -13.6571   18.0989 C   0  0  0  0  0  0  0  0  0  0  0  0
    6.6932  -13.0788   19.4308 C   0  0  0  0  0  0  0  0  0  0  0  0
    7.6121  -13.7154   20.4250 C   0  0  0  0  0  0  0  0  0  0  0  0
    8.8589  -13.9135   19.6066 C   0  0  1  0  0  0  0  0  0  0  0  0
    9.5874  -15.0747   20.2032 C   0  0  0  0  0  0  0  0  0  0  0  0
    9.3224  -16.2138   19.7679 O   0  0  0  0  0  0  0  0  0  0  0  0
   17.6968  -15.6363   23.8612 N   0  0  0  0  0  0  0  0  0  0  0  0
   17.0682  -16.8892   24.0173 C   0  0  0  0  0  0  0  0  0  0  0  0
   17.7135  -17.8822   24.5710 N   0  0  0  0  0  0  0  0  0  0  0  0
   15.7332  -17.1056   23.5819 N   0  0  0  0  0  0  0  0  0  0  0  0
   14.9762  -16.0553   22.9327 C   0  0  0  0  0  0  0  0  0  0  0  0
   13.5809  -16.5367   22.7153 C   0  0  0  0  0  0  0  0  0  0  0  0
   12.6854  -15.5660   22.0180 C   0  0  0  0  0  0  0  0  0  0  0  0
   11.2795  -16.0469   21.8122 C   0  0  2  0  0  0  0  0  0  0  0  0
   10.5444  -14.9437   21.2181 N   0  0  0  0  0  0  0  0  0  0  0  0
   10.5972  -16.4287   23.0689 C   0  0  0  0  0  0  0  0  0  0  0  0
    9.8580  -15.5380   23.6033 O   0  0  0  0  0  0  0  0  0  0  0  0
   10.7227  -17.6733   23.6714 O   0  0  0  0  0  0  0  0  0  0  0  0
  2  1  1  6
  2  3  1  0
  3  4  1  0
  4  8  1  0
  5  4  2  0
  6  2  1  0
  7  6  2  0
  9 13  1  0
  9  6  1  0
 10  9  1  0
 11 10  1  0
 11 12  1  0
 12 13  1  0
 14 15  2  0
 13 14  1  1
 16 17  1  0
 17 18  2  0
 19 17  1  0
 19 20  1  0
 21 20  1  0
 21 22  1  0
 23 22  1  1
 23 24  1  0
 23 25  1  0
 24 14  1  0
 25 27  1  0
 26 25  2  0
M  END
$$$$
