IPS.pdb
     RDKit          3D

 22 22  0  0  1  0  0  0  0  0999 V2000
    6.1951  -11.5382   27.5240 C   0  0  0  0  0  0  0  0  0  0  0  0
    5.7936  -12.7337   26.7488 C   0  0  0  0  0  0  0  0  0  0  0  0
    6.8771  -13.4772   26.0351 C   0  0  2  0  0  0  0  0  0  0  0  0
    7.4479  -12.4579   25.0220 C   0  0  0  0  0  0  0  0  0  0  0  0
    6.4689  -14.6940   25.2924 C   0  0  2  0  0  0  0  0  0  0  0  0
    5.8802  -15.6132   26.2823 N   0  0  0  0  0  0  0  0  0  0  0  0
    7.5122  -15.3902   24.5192 C   0  0  0  0  0  0  0  0  0  0  0  0
    8.2612  -16.2271   25.1364 O   0  0  0  0  0  0  0  0  0  0  0  0
    7.7177  -15.1797   23.1315 N   0  0  0  0  0  0  0  0  0  0  0  0
    6.9507  -14.2330   22.3172 C   0  0  0  0  0  0  0  0  0  0  0  0
    7.1267  -14.7749   20.8930 C   0  0  0  0  0  0  0  0  0  0  0  0
    8.6331  -15.0770   20.9630 C   0  0  0  0  0  0  0  0  0  0  0  0
    8.6629  -15.8089   22.2871 C   0  0  1  0  0  0  0  0  0  0  0  0
   10.0491  -15.8831   22.7754 C   0  0  0  0  0  0  0  0  0  0  0  0
   10.7432  -14.8958   23.1149 O   0  0  0  0  0  0  0  0  0  0  0  0
   11.2468  -19.2337   24.3915 O   0  0  0  0  0  0  0  0  0  0  0  0
   12.0906  -18.1423   24.5848 C   0  0  0  0  0  0  0  0  0  0  0  0
   12.0952  -17.2466   23.3367 C   0  0  2  0  0  0  0  0  0  0  0  0
   10.7349  -17.1446   22.9035 N   0  0  0  0  0  0  0  0  0  0  0  0
   12.9744  -17.8220   22.2953 C   0  0  0  0  0  0  0  0  0  0  0  0
   14.2023  -17.9213   22.5087 O   0  0  0  0  0  0  0  0  0  0  0  0
   12.4532  -18.2440   21.1056 O   0  0  0  0  0  0  0  0  0  0  0  0
  2  1  1  0
  2  3  1  0
  3  4  1  6
  5  3  1  0
  5  7  1  0
  5  6  1  1
  7  8  2  0
  9  7  1  0
  9 13  1  0
 10 11  1  0
 10  9  1  0
 11 12  1  0
 12 13  1  0
 13 14  1  1
 14 15  2  0
 16 17  1  0
 18 17  1  1
 18 20  1  0
 19 18  1  0
 19 14  1  0
 20 21  2  0
 20 22  1  0
M  END
$$$$
