IPS.pdb
     RDKit          3D

 22 22  0  0  1  0  0  0  0  0999 V2000
    8.6795  -13.4808   28.8664 C   0  0  0  0  0  0  0  0  0  0  0  0
    7.7377  -14.2658   28.0370 C   0  0  0  0  0  0  0  0  0  0  0  0
    8.2798  -14.8750   26.7835 C   0  0  2  0  0  0  0  0  0  0  0  0
    8.8326  -13.6780   25.9754 C   0  0  0  0  0  0  0  0  0  0  0  0
    7.3137  -15.6075   25.9298 C   0  0  2  0  0  0  0  0  0  0  0  0
    6.7504  -16.6854   26.7618 N   0  0  0  0  0  0  0  0  0  0  0  0
    7.8236  -16.1644   24.6646 C   0  0  0  0  0  0  0  0  0  0  0  0
    8.3232  -17.3443   24.6843 O   0  0  0  0  0  0  0  0  0  0  0  0
    7.7804  -15.4585   23.4349 N   0  0  0  0  0  0  0  0  0  0  0  0
    7.1705  -14.1373   23.2618 C   0  0  0  0  0  0  0  0  0  0  0  0
    6.8706  -14.0853   21.7584 C   0  0  0  0  0  0  0  0  0  0  0  0
    8.1999  -14.6717   21.2540 C   0  0  0  0  0  0  0  0  0  0  0  0
    8.2953  -15.8641   22.1807 C   0  0  1  0  0  0  0  0  0  0  0  0
    9.6691  -16.3912   22.1621 C   0  0  0  0  0  0  0  0  0  0  0  0
   10.6374  -15.8905   22.7815 O   0  0  0  0  0  0  0  0  0  0  0  0
   10.3121  -19.8158   20.0286 O   0  0  0  0  0  0  0  0  0  0  0  0
   11.2233  -19.5856   21.0569 C   0  0  0  0  0  0  0  0  0  0  0  0
   11.3480  -18.0788   21.3289 C   0  0  2  0  0  0  0  0  0  0  0  0
   10.0136  -17.5661   21.4012 N   0  0  0  0  0  0  0  0  0  0  0  0
   12.1422  -17.4289   20.2634 C   0  0  0  0  0  0  0  0  0  0  0  0
   11.5744  -16.6808   19.4381 O   0  0  0  0  0  0  0  0  0  0  0  0
   13.4885  -17.6414   20.1768 O   0  0  0  0  0  0  0  0  0  0  0  0
  2  1  1  0
  2  3  1  0
  3  4  1  6
  5  3  1  0
  5  7  1  0
  5  6  1  1
  7  8  2  0
  9  7  1  0
  9 13  1  0
 10 11  1  0
 10  9  1  0
 11 12  1  0
 12 13  1  0
 13 14  1  1
 14 15  2  0
 16 17  1  0
 18 17  1  6
 18 20  1  0
 19 18  1  0
 19 14  1  0
 20 21  2  0
 20 22  1  0
M  END
$$$$
