IPS.pdb
     RDKit          3D

 22 22  0  0  1  0  0  0  0  0999 V2000
    7.0256  -11.5420   27.5793 C   0  0  0  0  0  0  0  0  0  0  0  0
    6.3904  -12.6419   26.8190 C   0  0  0  0  0  0  0  0  0  0  0  0
    7.3001  -13.5861   26.1001 C   0  0  2  0  0  0  0  0  0  0  0  0
    8.0997  -12.6912   25.1248 C   0  0  0  0  0  0  0  0  0  0  0  0
    6.6518  -14.6657   25.3171 C   0  0  2  0  0  0  0  0  0  0  0  0
    5.9059  -15.4942   26.2808 N   0  0  0  0  0  0  0  0  0  0  0  0
    7.5286  -15.5183   24.4953 C   0  0  0  0  0  0  0  0  0  0  0  0
    8.1444  -16.4822   25.0731 O   0  0  0  0  0  0  0  0  0  0  0  0
    7.7142  -15.3229   23.1026 N   0  0  0  0  0  0  0  0  0  0  0  0
    6.9145  -14.4085   22.2829 C   0  0  0  0  0  0  0  0  0  0  0  0
    7.0899  -14.9664   20.8650 C   0  0  0  0  0  0  0  0  0  0  0  0
    8.6043  -15.2282   20.9232 C   0  0  0  0  0  0  0  0  0  0  0  0
    8.6669  -15.9396   22.2572 C   0  0  1  0  0  0  0  0  0  0  0  0
   10.0595  -15.9706   22.7318 C   0  0  0  0  0  0  0  0  0  0  0  0
   10.7125  -14.9670   23.1035 O   0  0  0  0  0  0  0  0  0  0  0  0
   11.5669  -19.5651   23.4902 O   0  0  0  0  0  0  0  0  0  0  0  0
   12.3488  -18.5419   24.0216 C   0  0  0  0  0  0  0  0  0  0  0  0
   12.1779  -17.2585   23.1945 C   0  0  2  0  0  0  0  0  0  0  0  0
   10.8014  -17.2043   22.8063 N   0  0  0  0  0  0  0  0  0  0  0  0
   13.0897  -17.2735   22.0296 C   0  0  0  0  0  0  0  0  0  0  0  0
   14.3191  -17.1288   22.2050 O   0  0  0  0  0  0  0  0  0  0  0  0
   12.5968  -17.4439   20.7674 O   0  0  0  0  0  0  0  0  0  0  0  0
  2  1  1  0
  2  3  1  0
  3  4  1  6
  5  3  1  0
  5  7  1  0
  5  6  1  1
  7  8  2  0
  9  7  1  0
  9 13  1  0
 10 11  1  0
 10  9  1  0
 11 12  1  0
 12 13  1  0
 13 14  1  1
 14 15  2  0
 16 17  1  0
 18 17  1  6
 18 20  1  0
 19 18  1  0
 19 14  1  0
 20 21  2  0
 20 22  1  0
M  END
$$$$
