IPS.pdb
     RDKit          3D

 22 22  0  0  1  0  0  0  0  0999 V2000
    7.8942  -12.2322   27.9031 C   0  0  0  0  0  0  0  0  0  0  0  0
    7.2538  -13.4707   27.4058 C   0  0  0  0  0  0  0  0  0  0  0  0
    6.9281  -13.5300   25.9475 C   0  0  2  0  0  0  0  0  0  0  0  0
    5.7911  -12.4990   25.7594 C   0  0  0  0  0  0  0  0  0  0  0  0
    6.4635  -14.8372   25.4238 C   0  0  2  0  0  0  0  0  0  0  0  0
    6.1509  -15.6729   26.5966 N   0  0  0  0  0  0  0  0  0  0  0  0
    7.3751  -15.5608   24.5204 C   0  0  0  0  0  0  0  0  0  0  0  0
    7.9469  -16.6188   24.9632 O   0  0  0  0  0  0  0  0  0  0  0  0
    7.6404  -15.1433   23.1909 N   0  0  0  0  0  0  0  0  0  0  0  0
    6.9612  -14.0291   22.5240 C   0  0  0  0  0  0  0  0  0  0  0  0
    7.1520  -14.3445   21.0351 C   0  0  0  0  0  0  0  0  0  0  0  0
    8.6337  -14.7529   21.0905 C   0  0  0  0  0  0  0  0  0  0  0  0
    8.5734  -15.6891   22.2777 C   0  0  1  0  0  0  0  0  0  0  0  0
    9.9350  -15.9326   22.7801 C   0  0  0  0  0  0  0  0  0  0  0  0
   10.5609  -15.1693   23.5530 O   0  0  0  0  0  0  0  0  0  0  0  0
   11.3930  -19.1609   24.2017 O   0  0  0  0  0  0  0  0  0  0  0  0
   12.1744  -18.8238   23.0987 C   0  0  0  0  0  0  0  0  0  0  0  0
   12.0375  -17.3254   22.7888 C   0  0  2  0  0  0  0  0  0  0  0  0
   10.6753  -17.1113   22.4053 N   0  0  0  0  0  0  0  0  0  0  0  0
   12.9885  -16.9322   21.7259 C   0  0  0  0  0  0  0  0  0  0  0  0
   12.5692  -16.7277   20.5659 O   0  0  0  0  0  0  0  0  0  0  0  0
   14.3181  -16.7919   22.0045 O   0  0  0  0  0  0  0  0  0  0  0  0
  2  1  1  0
  2  3  1  0
  3  4  1  1
  5  3  1  0
  5  7  1  0
  5  6  1  1
  7  8  2  0
  9  7  1  0
  9 13  1  0
 10 11  1  0
 10  9  1  0
 11 12  1  0
 12 13  1  0
 13 14  1  1
 14 15  2  0
 16 17  1  0
 18 17  1  6
 18 20  1  0
 19 18  1  0
 19 14  1  0
 20 21  2  0
 20 22  1  0
M  END
$$$$
