IPS.pdb
     RDKit          3D

 22 22  0  0  1  0  0  0  0  0999 V2000
    8.7275  -12.0538   27.6358 C   0  0  0  0  0  0  0  0  0  0  0  0
    7.8932  -13.2067   27.2284 C   0  0  0  0  0  0  0  0  0  0  0  0
    7.0675  -13.0459   25.9922 C   0  0  2  0  0  0  0  0  0  0  0  0
    5.9738  -12.0250   26.3833 C   0  0  0  0  0  0  0  0  0  0  0  0
    6.4024  -14.2662   25.4748 C   0  0  2  0  0  0  0  0  0  0  0  0
    5.9016  -15.0021   26.6491 N   0  0  0  0  0  0  0  0  0  0  0  0
    7.2087  -15.1621   24.6274 C   0  0  0  0  0  0  0  0  0  0  0  0
    7.6028  -16.2729   25.1302 O   0  0  0  0  0  0  0  0  0  0  0  0
    7.5596  -14.8528   23.2882 N   0  0  0  0  0  0  0  0  0  0  0  0
    7.0599  -13.6889   22.5511 C   0  0  0  0  0  0  0  0  0  0  0  0
    7.2369  -14.1019   21.0845 C   0  0  0  0  0  0  0  0  0  0  0  0
    8.6443  -14.7110   21.2014 C   0  0  0  0  0  0  0  0  0  0  0  0
    8.4258  -15.5690   22.4285 C   0  0  1  0  0  0  0  0  0  0  0  0
    9.7278  -15.9759   22.9807 C   0  0  0  0  0  0  0  0  0  0  0  0
   10.4077  -15.2982   23.7871 O   0  0  0  0  0  0  0  0  0  0  0  0
   11.4805  -19.2778   21.3657 O   0  0  0  0  0  0  0  0  0  0  0  0
   11.7839  -19.1184   22.7160 C   0  0  0  0  0  0  0  0  0  0  0  0
   11.6088  -17.6493   23.1299 C   0  0  2  0  0  0  0  0  0  0  0  0
   10.3384  -17.2310   22.6203 N   0  0  0  0  0  0  0  0  0  0  0  0
   12.7226  -16.8311   22.6021 C   0  0  0  0  0  0  0  0  0  0  0  0
   13.8013  -16.7756   23.2318 O   0  0  0  0  0  0  0  0  0  0  0  0
   12.5789  -16.1382   21.4341 O   0  0  0  0  0  0  0  0  0  0  0  0
  2  1  1  0
  2  3  1  0
  3  4  1  1
  5  3  1  0
  5  7  1  0
  5  6  1  1
  7  8  2  0
  9  7  1  0
  9 13  1  0
 10 11  1  0
 10  9  1  0
 11 12  1  0
 12 13  1  0
 13 14  1  1
 14 15  2  0
 16 17  1  0
 18 17  1  6
 18 20  1  0
 19 18  1  0
 19 14  1  0
 20 21  2  0
 20 22  1  0
M  END
$$$$
