IPS.pdb
     RDKit          3D

 22 22  0  0  1  0  0  0  0  0999 V2000
    8.6784  -12.4911   27.4724 C   0  0  0  0  0  0  0  0  0  0  0  0
    7.9867  -13.7275   27.0432 C   0  0  0  0  0  0  0  0  0  0  0  0
    7.0560  -13.6169   25.8781 C   0  0  2  0  0  0  0  0  0  0  0  0
    5.8985  -12.7263   26.3863 C   0  0  0  0  0  0  0  0  0  0  0  0
    6.4793  -14.8838   25.3666 C   0  0  2  0  0  0  0  0  0  0  0  0
    6.2063  -15.7269   26.5439 N   0  0  0  0  0  0  0  0  0  0  0  0
    7.2787  -15.6368   24.3843 C   0  0  0  0  0  0  0  0  0  0  0  0
    7.7849  -16.7555   24.7511 O   0  0  0  0  0  0  0  0  0  0  0  0
    7.5052  -15.1831   23.0595 N   0  0  0  0  0  0  0  0  0  0  0  0
    6.8197  -14.0407   22.4491 C   0  0  0  0  0  0  0  0  0  0  0  0
    6.9564  -14.3138   20.9459 C   0  0  0  0  0  0  0  0  0  0  0  0
    8.4334  -14.7428   20.9392 C   0  0  0  0  0  0  0  0  0  0  0  0
    8.3996  -15.7133   22.0997 C   0  0  1  0  0  0  0  0  0  0  0  0
    9.7737  -15.9892   22.5484 C   0  0  0  0  0  0  0  0  0  0  0  0
   10.4343  -15.2594   23.3248 O   0  0  0  0  0  0  0  0  0  0  0  0
   11.1369  -19.6469   21.9042 O   0  0  0  0  0  0  0  0  0  0  0  0
   11.9449  -18.9212   22.7768 C   0  0  0  0  0  0  0  0  0  0  0  0
   11.8490  -17.4199   22.4652 C   0  0  2  0  0  0  0  0  0  0  0  0
   10.4861  -17.1635   22.1109 N   0  0  0  0  0  0  0  0  0  0  0  0
   12.7884  -17.0599   21.3806 C   0  0  0  0  0  0  0  0  0  0  0  0
   12.3421  -16.7339   20.2590 O   0  0  0  0  0  0  0  0  0  0  0  0
   14.1366  -17.0817   21.5974 O   0  0  0  0  0  0  0  0  0  0  0  0
  2  1  1  0
  2  3  1  0
  3  4  1  1
  5  3  1  0
  5  7  1  0
  5  6  1  1
  7  8  2  0
  9  7  1  0
  9 13  1  0
 10 11  1  0
 10  9  1  0
 11 12  1  0
 12 13  1  0
 13 14  1  1
 14 15  2  0
 16 17  1  0
 18 17  1  6
 18 20  1  0
 19 18  1  0
 19 14  1  0
 20 21  2  0
 20 22  1  0
M  END
$$$$
