IPS.pdb
     RDKit          3D

 22 22  0  0  1  0  0  0  0  0999 V2000
    5.6439  -11.6237   26.5890 C   0  0  0  0  0  0  0  0  0  0  0  0
    6.3048  -12.6974   27.3647 C   0  0  0  0  0  0  0  0  0  0  0  0
    7.2125  -13.6189   26.6143 C   0  0  2  0  0  0  0  0  0  0  0  0
    8.1517  -12.6809   25.8209 C   0  0  0  0  0  0  0  0  0  0  0  0
    6.5686  -14.5515   25.6580 C   0  0  2  0  0  0  0  0  0  0  0  0
    5.7007  -15.4372   26.4541 N   0  0  0  0  0  0  0  0  0  0  0  0
    7.4584  -15.3567   24.8031 C   0  0  0  0  0  0  0  0  0  0  0  0
    8.0272  -16.3809   25.3224 O   0  0  0  0  0  0  0  0  0  0  0  0
    7.7059  -15.0525   23.4399 N   0  0  0  0  0  0  0  0  0  0  0  0
    7.0157  -13.9995   22.6900 C   0  0  0  0  0  0  0  0  0  0  0  0
    7.1886  -14.4392   21.2307 C   0  0  0  0  0  0  0  0  0  0  0  0
    8.6719  -14.8395   21.3015 C   0  0  0  0  0  0  0  0  0  0  0  0
    8.6287  -15.6722   22.5642 C   0  0  1  0  0  0  0  0  0  0  0  0
    9.9971  -15.8706   23.0679 C   0  0  0  0  0  0  0  0  0  0  0  0
   10.6185  -15.0586   23.7934 O   0  0  0  0  0  0  0  0  0  0  0  0
   13.4739  -18.9608   24.1735 O   0  0  0  0  0  0  0  0  0  0  0  0
   12.1812  -18.6857   23.7335 C   0  0  0  0  0  0  0  0  0  0  0  0
   12.1020  -17.2554   23.1784 C   0  0  2  0  0  0  0  0  0  0  0  0
   10.7502  -17.0582   22.7514 N   0  0  0  0  0  0  0  0  0  0  0  0
   13.0710  -17.0789   22.0746 C   0  0  0  0  0  0  0  0  0  0  0  0
   12.6832  -17.1767   20.8900 O   0  0  0  0  0  0  0  0  0  0  0  0
   14.3831  -16.8105   22.3420 O   0  0  0  0  0  0  0  0  0  0  0  0
  2  1  1  0
  2  3  1  0
  3  4  1  6
  5  3  1  0
  5  7  1  0
  5  6  1  1
  7  8  2  0
  9  7  1  0
  9 13  1  0
 10 11  1  0
 10  9  1  0
 11 12  1  0
 12 13  1  0
 13 14  1  1
 14 15  2  0
 16 17  1  0
 18 17  1  6
 18 20  1  0
 19 18  1  0
 19 14  1  0
 20 21  2  0
 20 22  1  0
M  END
$$$$
