IPS.pdb
     RDKit          3D

 22 22  0  0  1  0  0  0  0  0999 V2000
    8.8575  -12.4900   27.1603 C   0  0  0  0  0  0  0  0  0  0  0  0
    8.1432  -13.7187   26.7462 C   0  0  0  0  0  0  0  0  0  0  0  0
    7.0977  -13.5735   25.6869 C   0  0  2  0  0  0  0  0  0  0  0  0
    5.9517  -12.7949   26.3737 C   0  0  0  0  0  0  0  0  0  0  0  0
    6.5394  -14.8289   25.1289 C   0  0  2  0  0  0  0  0  0  0  0  0
    6.2938  -15.7248   26.2729 N   0  0  0  0  0  0  0  0  0  0  0  0
    7.3426  -15.5258   24.1091 C   0  0  0  0  0  0  0  0  0  0  0  0
    7.7935  -16.6916   24.3912 O   0  0  0  0  0  0  0  0  0  0  0  0
    7.6308  -14.9685   22.8368 N   0  0  0  0  0  0  0  0  0  0  0  0
    7.0220  -13.7418   22.3151 C   0  0  0  0  0  0  0  0  0  0  0  0
    7.1893  -13.8869   20.7974 C   0  0  0  0  0  0  0  0  0  0  0  0
    8.6424  -14.3908   20.7889 C   0  0  0  0  0  0  0  0  0  0  0  0
    8.5256  -15.4575   21.8556 C   0  0  1  0  0  0  0  0  0  0  0  0
    9.8701  -15.8443   22.3119 C   0  0  0  0  0  0  0  0  0  0  0  0
   10.7814  -16.2795   21.5690 O   0  0  0  0  0  0  0  0  0  0  0  0
   10.7956  -16.9562   26.1856 O   0  0  0  0  0  0  0  0  0  0  0  0
   11.5513  -15.8983   25.6853 C   0  0  0  0  0  0  0  0  0  0  0  0
   11.5928  -15.9542   24.1506 C   0  0  2  0  0  0  0  0  0  0  0  0
   10.2506  -15.7470   23.6988 N   0  0  0  0  0  0  0  0  0  0  0  0
   12.1434  -17.2509   23.6990 C   0  0  0  0  0  0  0  0  0  0  0  0
   13.3614  -17.4909   23.8478 O   0  0  0  0  0  0  0  0  0  0  0  0
   11.3304  -18.1844   23.1220 O   0  0  0  0  0  0  0  0  0  0  0  0
  2  1  1  0
  2  3  1  0
  3  4  1  1
  5  3  1  0
  5  7  1  0
  5  6  1  1
  7  8  2  0
  9  7  1  0
  9 13  1  0
 10 11  1  0
 10  9  1  0
 11 12  1  0
 12 13  1  0
 13 14  1  1
 14 15  2  0
 16 17  1  0
 18 17  1  1
 18 20  1  0
 19 18  1  0
 19 14  1  0
 20 21  2  0
 20 22  1  0
M  END
$$$$
