IPS.pdb
     RDKit          3D

 22 22  0  0  1  0  0  0  0  0999 V2000
    6.5570  -11.5051   27.4209 C   0  0  0  0  0  0  0  0  0  0  0  0
    6.0190  -12.6602   26.6676 C   0  0  0  0  0  0  0  0  0  0  0  0
    7.0097  -13.5477   25.9841 C   0  0  2  0  0  0  0  0  0  0  0  0
    7.7642  -12.6132   25.0102 C   0  0  0  0  0  0  0  0  0  0  0  0
    6.4577  -14.6836   25.2068 C   0  0  2  0  0  0  0  0  0  0  0  0
    5.7465  -15.5447   26.1681 N   0  0  0  0  0  0  0  0  0  0  0  0
    7.4120  -15.4874   24.4232 C   0  0  0  0  0  0  0  0  0  0  0  0
    8.0361  -16.4332   25.0217 O   0  0  0  0  0  0  0  0  0  0  0  0
    7.6631  -15.2648   23.0450 N   0  0  0  0  0  0  0  0  0  0  0  0
    6.9505  -14.2824   22.2236 C   0  0  0  0  0  0  0  0  0  0  0  0
    7.1487  -14.8101   20.7971 C   0  0  0  0  0  0  0  0  0  0  0  0
    8.6420  -15.1624   20.9043 C   0  0  0  0  0  0  0  0  0  0  0  0
    8.6109  -15.9129   22.2178 C   0  0  1  0  0  0  0  0  0  0  0  0
    9.9796  -16.0393   22.7432 C   0  0  0  0  0  0  0  0  0  0  0  0
   10.6593  -15.0935   23.2073 O   0  0  0  0  0  0  0  0  0  0  0  0
   11.2941  -19.7384   23.3527 O   0  0  0  0  0  0  0  0  0  0  0  0
   12.0925  -18.7781   23.9700 C   0  0  0  0  0  0  0  0  0  0  0  0
   12.0191  -17.4511   23.1995 C   0  0  2  0  0  0  0  0  0  0  0  0
   10.6636  -17.3080   22.7627 N   0  0  0  0  0  0  0  0  0  0  0  0
   12.9750  -17.4596   22.0705 C   0  0  0  0  0  0  0  0  0  0  0  0
   12.5450  -17.4678   20.8965 O   0  0  0  0  0  0  0  0  0  0  0  0
   14.3207  -17.4585   22.3033 O   0  0  0  0  0  0  0  0  0  0  0  0
  2  1  1  0
  2  3  1  0
  3  4  1  6
  5  3  1  0
  5  7  1  0
  5  6  1  1
  7  8  2  0
  9  7  1  0
  9 13  1  0
 10 11  1  0
 10  9  1  0
 11 12  1  0
 12 13  1  0
 13 14  1  1
 14 15  2  0
 16 17  1  0
 18 17  1  6
 18 20  1  0
 19 18  1  0
 19 14  1  0
 20 21  2  0
 20 22  1  0
M  END
$$$$
