IPS.pdb
     RDKit          3D

 22 22  0  0  1  0  0  0  0  0999 V2000
    6.3164  -11.6495   27.6945 C   0  0  0  0  0  0  0  0  0  0  0  0
    5.8505  -12.7681   26.8441 C   0  0  0  0  0  0  0  0  0  0  0  0
    6.8970  -13.5554   26.1222 C   0  0  2  0  0  0  0  0  0  0  0  0
    7.5820  -12.5304   25.1887 C   0  0  0  0  0  0  0  0  0  0  0  0
    6.4211  -14.6920   25.2972 C   0  0  2  0  0  0  0  0  0  0  0  0
    5.6845  -15.5902   26.2038 N   0  0  0  0  0  0  0  0  0  0  0  0
    7.4393  -15.4543   24.5534 C   0  0  0  0  0  0  0  0  0  0  0  0
    8.1243  -16.3276   25.1939 O   0  0  0  0  0  0  0  0  0  0  0  0
    7.6877  -15.2683   23.1692 N   0  0  0  0  0  0  0  0  0  0  0  0
    6.9440  -14.3393   22.3140 C   0  0  0  0  0  0  0  0  0  0  0  0
    7.1662  -14.9063   20.9063 C   0  0  0  0  0  0  0  0  0  0  0  0
    8.6706  -15.2020   21.0290 C   0  0  0  0  0  0  0  0  0  0  0  0
    8.6608  -15.9095   22.3665 C   0  0  1  0  0  0  0  0  0  0  0  0
   10.0312  -15.9700   22.8994 C   0  0  0  0  0  0  0  0  0  0  0  0
   10.6500  -15.0000   23.3973 O   0  0  0  0  0  0  0  0  0  0  0  0
   11.6115  -18.7382   25.0903 O   0  0  0  0  0  0  0  0  0  0  0  0
   12.3716  -18.6363   23.9273 C   0  0  0  0  0  0  0  0  0  0  0  0
   12.1653  -17.2601   23.2766 C   0  0  2  0  0  0  0  0  0  0  0  0
   10.7896  -17.1958   22.8867 N   0  0  0  0  0  0  0  0  0  0  0  0
   13.0828  -17.0926   22.1282 C   0  0  0  0  0  0  0  0  0  0  0  0
   12.6681  -17.3098   20.9689 O   0  0  0  0  0  0  0  0  0  0  0  0
   14.3765  -16.7030   22.3274 O   0  0  0  0  0  0  0  0  0  0  0  0
  2  1  1  0
  2  3  1  0
  3  4  1  6
  5  3  1  0
  5  7  1  0
  5  6  1  1
  7  8  2  0
  9  7  1  0
  9 13  1  0
 10 11  1  0
 10  9  1  0
 11 12  1  0
 12 13  1  0
 13 14  1  1
 14 15  2  0
 16 17  1  0
 18 17  1  6
 18 20  1  0
 19 18  1  0
 19 14  1  0
 20 21  2  0
 20 22  1  0
M  END
$$$$
