IPS.pdb
     RDKit          3D

 22 22  0  0  1  0  0  0  0  0999 V2000
    6.3784  -11.3580   27.3474 C   0  0  0  0  0  0  0  0  0  0  0  0
    5.8943  -12.5397   26.5986 C   0  0  0  0  0  0  0  0  0  0  0  0
    6.9290  -13.4193   25.9728 C   0  0  2  0  0  0  0  0  0  0  0  0
    7.6878  -12.4935   24.9937 C   0  0  0  0  0  0  0  0  0  0  0  0
    6.4321  -14.5927   25.2143 C   0  0  2  0  0  0  0  0  0  0  0  0
    5.6943  -15.4323   26.1747 N   0  0  0  0  0  0  0  0  0  0  0  0
    7.4340  -15.4057   24.5030 C   0  0  0  0  0  0  0  0  0  0  0  0
    8.0654  -16.3005   25.1684 O   0  0  0  0  0  0  0  0  0  0  0  0
    7.7232  -15.2454   23.1235 N   0  0  0  0  0  0  0  0  0  0  0  0
    7.0207  -14.3157   22.2349 C   0  0  0  0  0  0  0  0  0  0  0  0
    7.2700  -14.9081   20.8421 C   0  0  0  0  0  0  0  0  0  0  0  0
    8.7645  -15.2300   21.0101 C   0  0  0  0  0  0  0  0  0  0  0  0
    8.7052  -15.9168   22.3571 C   0  0  1  0  0  0  0  0  0  0  0  0
   10.0592  -15.9949   22.9280 C   0  0  0  0  0  0  0  0  0  0  0  0
   10.6750  -15.0337   23.4465 O   0  0  0  0  0  0  0  0  0  0  0  0
   11.5157  -18.9900   24.9805 O   0  0  0  0  0  0  0  0  0  0  0  0
   12.3599  -18.7470   23.8993 C   0  0  0  0  0  0  0  0  0  0  0  0
   12.1601  -17.3148   23.3807 C   0  0  2  0  0  0  0  0  0  0  0  0
   10.8036  -17.2294   22.9322 N   0  0  0  0  0  0  0  0  0  0  0  0
   13.1280  -17.0201   22.3013 C   0  0  0  0  0  0  0  0  0  0  0  0
   12.7438  -17.0127   21.1116 O   0  0  0  0  0  0  0  0  0  0  0  0
   14.4351  -16.7570   22.5970 O   0  0  0  0  0  0  0  0  0  0  0  0
  2  1  1  0
  2  3  1  0
  3  4  1  6
  5  3  1  0
  5  7  1  0
  5  6  1  1
  7  8  2  0
  9  7  1  0
  9 13  1  0
 10 11  1  0
 10  9  1  0
 11 12  1  0
 12 13  1  0
 13 14  1  1
 14 15  2  0
 16 17  1  0
 18 17  1  6
 18 20  1  0
 19 18  1  0
 19 14  1  0
 20 21  2  0
 20 22  1  0
M  END
$$$$
