IPS.pdb
     RDKit          3D

 22 22  0  0  1  0  0  0  0  0999 V2000
    6.8536  -11.8779   27.8908 C   0  0  0  0  0  0  0  0  0  0  0  0
    6.2596  -12.9033   27.0036 C   0  0  0  0  0  0  0  0  0  0  0  0
    7.2056  -13.7488   26.2123 C   0  0  2  0  0  0  0  0  0  0  0  0
    7.9675  -12.7464   25.3145 C   0  0  0  0  0  0  0  0  0  0  0  0
    6.6001  -14.7863   25.3428 C   0  0  2  0  0  0  0  0  0  0  0  0
    5.8661  -15.7040   26.2320 N   0  0  0  0  0  0  0  0  0  0  0  0
    7.5126  -15.5511   24.4749 C   0  0  0  0  0  0  0  0  0  0  0  0
    8.1609  -16.5268   24.9945 O   0  0  0  0  0  0  0  0  0  0  0  0
    7.6984  -15.2596   23.0992 N   0  0  0  0  0  0  0  0  0  0  0  0
    6.8894  -14.3011   22.3413 C   0  0  0  0  0  0  0  0  0  0  0  0
    7.0739  -14.7595   20.8892 C   0  0  0  0  0  0  0  0  0  0  0  0
    8.5912  -15.0071   20.9334 C   0  0  0  0  0  0  0  0  0  0  0  0
    8.6597  -15.8065   22.2164 C   0  0  1  0  0  0  0  0  0  0  0  0
   10.0517  -15.8534   22.6913 C   0  0  0  0  0  0  0  0  0  0  0  0
   10.6783  -14.8796   23.1718 O   0  0  0  0  0  0  0  0  0  0  0  0
   11.5948  -19.4054   23.4874 O   0  0  0  0  0  0  0  0  0  0  0  0
   12.3476  -18.3318   23.9578 C   0  0  0  0  0  0  0  0  0  0  0  0
   12.2039  -17.1282   23.0139 C   0  0  2  0  0  0  0  0  0  0  0  0
   10.8246  -17.0690   22.6362 N   0  0  0  0  0  0  0  0  0  0  0  0
   13.0996  -17.2817   21.8465 C   0  0  0  0  0  0  0  0  0  0  0  0
   14.3388  -17.2701   22.0124 O   0  0  0  0  0  0  0  0  0  0  0  0
   12.5814  -17.4354   20.5923 O   0  0  0  0  0  0  0  0  0  0  0  0
  2  1  1  0
  2  3  1  0
  3  4  1  6
  5  3  1  0
  5  7  1  0
  5  6  1  1
  7  8  2  0
  9  7  1  0
  9 13  1  0
 10 11  1  0
 10  9  1  0
 11 12  1  0
 12 13  1  0
 13 14  1  1
 14 15  2  0
 16 17  1  0
 18 17  1  1
 18 20  1  0
 19 18  1  0
 19 14  1  0
 20 21  2  0
 20 22  1  0
M  END
$$$$
