WHH.pdb
     RDKit          3D

 35 38  0  0  1  0  0  0  0  0999 V2000
    7.4825  -17.1238   23.1562 N   0  0  0  0  0  0  0  0  0  0  0  0
    8.5541  -16.2906   23.6210 C   0  0  1  0  0  0  0  0  0  0  0  0
    8.4277  -16.0827   25.1040 C   0  0  0  0  0  0  0  0  0  0  0  0
    7.3266  -15.1419   25.4016 C   0  0  0  0  0  0  0  0  0  0  0  0
    6.0797  -15.5299   25.9125 C   0  0  0  0  0  0  0  0  0  0  0  0
    5.3223  -14.4393   26.0992 N   0  0  0  0  0  0  0  0  0  0  0  0
    6.0417  -13.3681   25.7247 C   0  0  0  0  0  0  0  0  0  0  0  0
    5.7067  -12.0164   25.7183 C   0  0  0  0  0  0  0  0  0  0  0  0
    6.6445  -11.0980   25.2660 C   0  0  0  0  0  0  0  0  0  0  0  0
    7.8772  -11.4789   24.8301 C   0  0  0  0  0  0  0  0  0  0  0  0
    8.1799  -12.8288   24.8490 C   0  0  0  0  0  0  0  0  0  0  0  0
    7.2851  -13.7725   25.2884 C   0  0  0  0  0  0  0  0  0  0  0  0
    9.8822  -16.9360   23.3549 C   0  0  0  0  0  0  0  0  0  0  0  0
    9.9979  -18.1714   23.1499 O   0  0  0  0  0  0  0  0  0  0  0  0
   11.0721  -16.1568   23.3260 N   0  0  0  0  0  0  0  0  0  0  0  0
   12.3715  -16.7540   23.3355 C   0  0  1  0  0  0  0  0  0  0  0  0
   13.3787  -15.6797   22.9147 C   0  0  0  0  0  0  0  0  0  0  0  0
   13.2029  -15.3013   21.4816 C   0  0  0  0  0  0  0  0  0  0  0  0
   12.3305  -15.8646   20.5840 C   0  0  0  0  0  0  0  0  0  0  0  0
   12.5036  -15.2246   19.4173 N   0  0  0  0  0  0  0  0  0  0  0  0
   13.4477  -14.2829   19.5432 C   0  0  0  0  0  0  0  0  0  0  0  0
   13.8715  -14.3378   20.8153 N   0  0  0  0  0  0  0  0  0  0  0  0
   12.7758  -17.2920   24.6557 C   0  0  0  0  0  0  0  0  0  0  0  0
   13.9776  -17.6597   24.8636 O   0  0  0  0  0  0  0  0  0  0  0  0
   11.8824  -17.4286   25.7452 N   0  0  0  0  0  0  0  0  0  0  0  0
   12.2958  -17.9378   27.0639 C   0  0  1  0  0  0  0  0  0  0  0  0
   11.2897  -17.5026   28.1045 C   0  0  0  0  0  0  0  0  0  0  0  0
   10.8928  -16.1114   27.8811 C   0  0  0  0  0  0  0  0  0  0  0  0
   11.4904  -15.0282   28.5461 C   0  0  0  0  0  0  0  0  0  0  0  0
   10.9188  -13.8920   28.1338 N   0  0  0  0  0  0  0  0  0  0  0  0
    9.9881  -14.1941   27.2408 C   0  0  0  0  0  0  0  0  0  0  0  0
    9.9820  -15.5280   27.0977 N   0  0  0  0  0  0  0  0  0  0  0  0
   12.2356  -19.4031   26.9454 C   0  0  0  0  0  0  0  0  0  0  0  0
   12.5275  -20.1494   27.8920 O   0  0  0  0  0  0  0  0  0  0  0  0
   11.8471  -19.9995   25.7634 O   0  0  0  0  0  0  0  0  0  0  0  0
  2  1  1  1
  3  2  1  0
  4  3  1  0
  5  4  2  0
  6  7  1  0
  6  5  1  0
  7 12  2  0
  8  7  1  0
  8  9  2  0
  9 10  1  0
 10 11  2  0
 12  4  1  0
 12 11  1  0
 13  2  1  0
 13 14  2  0
 15 13  1  0
 16 17  1  1
 16 15  1  0
 18 22  1  0
 18 17  1  0
 19 18  2  0
 20 19  1  0
 20 21  1  0
 21 22  2  0
 23 16  1  0
 24 23  2  0
 25 23  1  0
 26 27  1  1
 26 25  1  0
 27 28  1  0
 28 29  2  0
 29 30  1  0
 31 30  1  0
 32 28  1  0
 32 31  2  0
 33 35  1  0
 33 26  1  0
 34 33  2  0
M  END
$$$$
