WHH.pdb
     RDKit          3D

 35 38  0  0  1  0  0  0  0  0999 V2000
    6.4835  -16.5136   22.8270 N   0  0  0  0  0  0  0  0  0  0  0  0
    7.8241  -16.0386   23.0156 C   0  0  1  0  0  0  0  0  0  0  0  0
    8.0797  -15.8106   24.4789 C   0  0  0  0  0  0  0  0  0  0  0  0
    7.1011  -14.8493   25.0305 C   0  0  0  0  0  0  0  0  0  0  0  0
    5.8724  -15.2183   25.5964 C   0  0  0  0  0  0  0  0  0  0  0  0
    5.2389  -14.1181   26.0282 N   0  0  0  0  0  0  0  0  0  0  0  0
    6.0202  -13.0591   25.7573 C   0  0  0  0  0  0  0  0  0  0  0  0
    5.8134  -11.7031   25.9982 C   0  0  0  0  0  0  0  0  0  0  0  0
    6.7902  -10.7984   25.6048 C   0  0  0  0  0  0  0  0  0  0  0  0
    7.9397  -11.1965   24.9925 C   0  0  0  0  0  0  0  0  0  0  0  0
    8.1156  -12.5502   24.7674 C   0  0  0  0  0  0  0  0  0  0  0  0
    7.1780  -13.4811   25.1398 C   0  0  0  0  0  0  0  0  0  0  0  0
    8.8192  -17.0476   22.5229 C   0  0  0  0  0  0  0  0  0  0  0  0
    8.6134  -17.7464   21.4976 O   0  0  0  0  0  0  0  0  0  0  0  0
   10.0473  -17.2485   23.2122 N   0  0  0  0  0  0  0  0  0  0  0  0
   11.2490  -17.6186   22.5309 C   0  0  1  0  0  0  0  0  0  0  0  0
   11.5681  -16.5134   21.5197 C   0  0  0  0  0  0  0  0  0  0  0  0
   10.8054  -16.7012   20.2505 C   0  0  0  0  0  0  0  0  0  0  0  0
   10.5870  -17.8848   19.5905 C   0  0  0  0  0  0  0  0  0  0  0  0
    9.8584  -17.5956   18.5013 N   0  0  0  0  0  0  0  0  0  0  0  0
    9.6095  -16.2805   18.4485 C   0  0  0  0  0  0  0  0  0  0  0  0
   10.1955  -15.7395   19.5277 N   0  0  0  0  0  0  0  0  0  0  0  0
   12.4171  -17.7944   23.4256 C   0  0  0  0  0  0  0  0  0  0  0  0
   13.2732  -16.8610   23.5623 O   0  0  0  0  0  0  0  0  0  0  0  0
   12.6545  -18.9750   24.1697 N   0  0  0  0  0  0  0  0  0  0  0  0
   12.5920  -19.0236   25.6404 C   0  0  1  0  0  0  0  0  0  0  0  0
   11.3239  -19.7292   26.0629 C   0  0  0  0  0  0  0  0  0  0  0  0
   11.3374  -19.9848   27.5043 C   0  0  0  0  0  0  0  0  0  0  0  0
   12.0966  -19.2255   28.4096 C   0  0  0  0  0  0  0  0  0  0  0  0
   11.9023  -19.6959   29.6461 N   0  0  0  0  0  0  0  0  0  0  0  0
   11.0591  -20.7151   29.5764 C   0  0  0  0  0  0  0  0  0  0  0  0
   10.7273  -20.8788   28.2867 N   0  0  0  0  0  0  0  0  0  0  0  0
   13.7395  -19.8503   26.0460 C   0  0  0  0  0  0  0  0  0  0  0  0
   14.1115  -20.8272   25.3787 O   0  0  0  0  0  0  0  0  0  0  0  0
   14.4463  -19.5602   27.1950 O   0  0  0  0  0  0  0  0  0  0  0  0
  2  1  1  1
  3  2  1  0
  4  3  1  0
  5  4  2  0
  6  7  1  0
  6  5  1  0
  7 12  2  0
  8  7  1  0
  8  9  2  0
  9 10  1  0
 10 11  2  0
 12  4  1  0
 12 11  1  0
 13  2  1  0
 13 14  2  0
 15 13  1  0
 16 17  1  6
 16 15  1  0
 18 22  1  0
 18 17  1  0
 19 18  2  0
 20 19  1  0
 20 21  1  0
 21 22  2  0
 23 16  1  0
 24 23  2  0
 25 23  1  0
 26 27  1  6
 26 25  1  0
 27 28  1  0
 28 29  2  0
 29 30  1  0
 31 30  1  0
 32 28  1  0
 32 31  2  0
 33 35  1  0
 33 26  1  0
 34 33  2  0
M  END
$$$$
