WHH.pdb
     RDKit          3D

 35 38  0  0  1  0  0  0  0  0999 V2000
    6.1991  -17.4796   23.7698 N   0  0  0  0  0  0  0  0  0  0  0  0
    7.3631  -16.6437   23.8380 C   0  0  1  0  0  0  0  0  0  0  0  0
    7.6228  -16.2521   25.2656 C   0  0  0  0  0  0  0  0  0  0  0  0
    6.7931  -15.0872   25.6406 C   0  0  0  0  0  0  0  0  0  0  0  0
    5.6007  -15.1767   26.3730 C   0  0  0  0  0  0  0  0  0  0  0  0
    5.1130  -13.9435   26.5717 N   0  0  0  0  0  0  0  0  0  0  0  0
    5.9523  -13.0694   25.9911 C   0  0  0  0  0  0  0  0  0  0  0  0
    5.8904  -11.6805   25.9098 C   0  0  0  0  0  0  0  0  0  0  0  0
    6.8975  -11.0056   25.2332 C   0  0  0  0  0  0  0  0  0  0  0  0
    7.9396  -11.6594   24.6491 C   0  0  0  0  0  0  0  0  0  0  0  0
    7.9727  -13.0391   24.7475 C   0  0  0  0  0  0  0  0  0  0  0  0
    7.0000  -13.7484   25.4071 C   0  0  0  0  0  0  0  0  0  0  0  0
    8.5717  -17.3737   23.3304 C   0  0  0  0  0  0  0  0  0  0  0  0
    8.6434  -18.6293   23.3261 O   0  0  0  0  0  0  0  0  0  0  0  0
    9.6931  -16.6556   22.8299 N   0  0  0  0  0  0  0  0  0  0  0  0
   10.9079  -17.3099   22.4539 C   0  0  1  0  0  0  0  0  0  0  0  0
   11.6731  -16.3668   21.5209 C   0  0  0  0  0  0  0  0  0  0  0  0
   12.8199  -17.0624   20.8661 C   0  0  0  0  0  0  0  0  0  0  0  0
   12.7640  -18.2078   20.1118 C   0  0  0  0  0  0  0  0  0  0  0  0
   14.0189  -18.4797   19.7214 N   0  0  0  0  0  0  0  0  0  0  0  0
   14.8613  -17.5539   20.1982 C   0  0  0  0  0  0  0  0  0  0  0  0
   14.1151  -16.6873   20.9004 N   0  0  0  0  0  0  0  0  0  0  0  0
   11.7825  -17.6573   23.5985 C   0  0  0  0  0  0  0  0  0  0  0  0
   12.8925  -18.2522   23.4070 O   0  0  0  0  0  0  0  0  0  0  0  0
   11.4562  -17.3593   24.9434 N   0  0  0  0  0  0  0  0  0  0  0  0
   12.2782  -17.7957   26.0848 C   0  0  1  0  0  0  0  0  0  0  0  0
   11.5575  -17.4688   27.3726 C   0  0  0  0  0  0  0  0  0  0  0  0
   11.2515  -16.0387   27.4379 C   0  0  0  0  0  0  0  0  0  0  0  0
   11.7157  -15.1121   26.4900 C   0  0  0  0  0  0  0  0  0  0  0  0
   11.2731  -13.8933   26.8162 N   0  0  0  0  0  0  0  0  0  0  0  0
   10.5513  -13.9943   27.9222 C   0  0  0  0  0  0  0  0  0  0  0  0
   10.5455  -15.2858   28.2855 N   0  0  0  0  0  0  0  0  0  0  0  0
   12.3624  -19.2593   25.9596 C   0  0  0  0  0  0  0  0  0  0  0  0
   13.0768  -19.9410   26.7099 O   0  0  0  0  0  0  0  0  0  0  0  0
   11.6395  -19.9269   24.9924 O   0  0  0  0  0  0  0  0  0  0  0  0
  2  1  1  1
  3  2  1  0
  4  3  1  0
  5  4  2  0
  6  7  1  0
  6  5  1  0
  7 12  2  0
  8  7  1  0
  8  9  2  0
  9 10  1  0
 10 11  2  0
 12  4  1  0
 12 11  1  0
 13  2  1  0
 13 14  2  0
 15 13  1  0
 16 17  1  6
 16 15  1  0
 18 22  1  0
 18 17  1  0
 19 18  2  0
 20 19  1  0
 20 21  1  0
 21 22  2  0
 23 16  1  0
 24 23  2  0
 25 23  1  0
 26 27  1  1
 26 25  1  0
 27 28  1  0
 28 29  2  0
 29 30  1  0
 31 30  1  0
 32 28  1  0
 32 31  2  0
 33 35  1  0
 33 26  1  0
 34 33  2  0
M  END
$$$$
