WHH.pdb
     RDKit          3D

 35 38  0  0  1  0  0  0  0  0999 V2000
    6.6304  -17.0061   23.5507 N   0  0  0  0  0  0  0  0  0  0  0  0
    7.9237  -16.3928   23.6480 C   0  0  1  0  0  0  0  0  0  0  0  0
    8.1732  -15.9581   25.0648 C   0  0  0  0  0  0  0  0  0  0  0  0
    7.2557  -14.8601   25.4372 C   0  0  0  0  0  0  0  0  0  0  0  0
    6.0316  -15.0495   26.0945 C   0  0  0  0  0  0  0  0  0  0  0  0
    5.4609  -13.8561   26.3137 N   0  0  0  0  0  0  0  0  0  0  0  0
    6.2776  -12.9109   25.8188 C   0  0  0  0  0  0  0  0  0  0  0  0
    6.1375  -11.5256   25.7898 C   0  0  0  0  0  0  0  0  0  0  0  0
    7.1388  -10.7653   25.2009 C   0  0  0  0  0  0  0  0  0  0  0  0
    8.2491  -11.3323   24.6528 C   0  0  0  0  0  0  0  0  0  0  0  0
    8.3590  -12.7107   24.6975 C   0  0  0  0  0  0  0  0  0  0  0  0
    7.3951  -13.5027   25.2701 C   0  0  0  0  0  0  0  0  0  0  0  0
    9.0018  -17.3632   23.2642 C   0  0  0  0  0  0  0  0  0  0  0  0
    8.9806  -18.5669   23.6283 O   0  0  0  0  0  0  0  0  0  0  0  0
   10.1001  -16.9444   22.4630 N   0  0  0  0  0  0  0  0  0  0  0  0
   11.2602  -17.7601   22.2781 C   0  0  1  0  0  0  0  0  0  0  0  0
   12.1133  -17.1120   21.1837 C   0  0  0  0  0  0  0  0  0  0  0  0
   11.4914  -17.2823   19.8375 C   0  0  0  0  0  0  0  0  0  0  0  0
   10.5502  -18.2149   19.4791 C   0  0  0  0  0  0  0  0  0  0  0  0
   10.2727  -18.0109   18.1821 N   0  0  0  0  0  0  0  0  0  0  0  0
   10.9994  -16.9897   17.7098 C   0  0  0  0  0  0  0  0  0  0  0  0
   11.7453  -16.5485   18.7346 N   0  0  0  0  0  0  0  0  0  0  0  0
   12.0884  -17.9119   23.4975 C   0  0  0  0  0  0  0  0  0  0  0  0
   12.6703  -16.9031   24.0136 O   0  0  0  0  0  0  0  0  0  0  0  0
   12.2829  -19.1505   24.1548 N   0  0  0  0  0  0  0  0  0  0  0  0
   13.0260  -19.2804   25.4197 C   0  0  1  0  0  0  0  0  0  0  0  0
   12.5408  -20.5057   26.1598 C   0  0  0  0  0  0  0  0  0  0  0  0
   11.2019  -20.2761   26.7056 C   0  0  0  0  0  0  0  0  0  0  0  0
   10.6698  -18.9933   26.9148 C   0  0  0  0  0  0  0  0  0  0  0  0
    9.4367  -19.1077   27.4189 N   0  0  0  0  0  0  0  0  0  0  0  0
    9.1549  -20.3962   27.5420 C   0  0  0  0  0  0  0  0  0  0  0  0
   10.2212  -21.0869   27.1110 N   0  0  0  0  0  0  0  0  0  0  0  0
   14.4248  -19.5031   25.0217 C   0  0  0  0  0  0  0  0  0  0  0  0
   15.3375  -19.5912   25.8568 O   0  0  0  0  0  0  0  0  0  0  0  0
   14.7686  -19.6231   23.6909 O   0  0  0  0  0  0  0  0  0  0  0  0
  2  1  1  1
  3  2  1  0
  4  3  1  0
  5  4  2  0
  6  7  1  0
  6  5  1  0
  7 12  2  0
  8  7  1  0
  8  9  2  0
  9 10  1  0
 10 11  2  0
 12  4  1  0
 12 11  1  0
 13  2  1  0
 13 14  2  0
 15 13  1  0
 16 17  1  6
 16 15  1  0
 18 22  1  0
 18 17  1  0
 19 18  2  0
 20 19  1  0
 20 21  1  0
 21 22  2  0
 23 16  1  0
 24 23  2  0
 25 23  1  0
 26 27  1  6
 26 25  1  0
 27 28  1  0
 28 29  2  0
 29 30  1  0
 31 30  1  0
 32 28  1  0
 32 31  2  0
 33 35  1  0
 33 26  1  0
 34 33  2  0
M  END
$$$$
