WHH.pdb
     RDKit          3D

 35 38  0  0  1  0  0  0  0  0999 V2000
    7.0144  -16.6431   23.0053 N   0  0  0  0  0  0  0  0  0  0  0  0
    8.1925  -15.9318   23.4111 C   0  0  1  0  0  0  0  0  0  0  0  0
    8.1735  -15.7276   24.8999 C   0  0  0  0  0  0  0  0  0  0  0  0
    7.0577  -14.8372   25.2848 C   0  0  0  0  0  0  0  0  0  0  0  0
    5.7973  -15.2924   25.6975 C   0  0  0  0  0  0  0  0  0  0  0  0
    5.0276  -14.2381   26.0041 N   0  0  0  0  0  0  0  0  0  0  0  0
    5.7524  -13.1251   25.8011 C   0  0  0  0  0  0  0  0  0  0  0  0
    5.4096  -11.7853   25.9654 C   0  0  0  0  0  0  0  0  0  0  0  0
    6.3560  -10.8130   25.6719 C   0  0  0  0  0  0  0  0  0  0  0  0
    7.6045  -11.1297   25.2297 C   0  0  0  0  0  0  0  0  0  0  0  0
    7.9146  -12.4694   25.0768 C   0  0  0  0  0  0  0  0  0  0  0  0
    7.0117  -13.4651   25.3555 C   0  0  0  0  0  0  0  0  0  0  0  0
    9.4279  -16.7099   23.0656 C   0  0  0  0  0  0  0  0  0  0  0  0
    9.6150  -17.1972   21.9213 O   0  0  0  0  0  0  0  0  0  0  0  0
   10.4434  -16.9241   24.0386 N   0  0  0  0  0  0  0  0  0  0  0  0
   11.7130  -17.4885   23.6999 C   0  0  1  0  0  0  0  0  0  0  0  0
   12.3592  -16.5800   22.6498 C   0  0  0  0  0  0  0  0  0  0  0  0
   11.7577  -16.7953   21.3008 C   0  0  0  0  0  0  0  0  0  0  0  0
   10.9385  -17.8294   20.9218 C   0  0  0  0  0  0  0  0  0  0  0  0
   10.6324  -17.6316   19.6303 N   0  0  0  0  0  0  0  0  0  0  0  0
   11.2244  -16.5171   19.1812 C   0  0  0  0  0  0  0  0  0  0  0  0
   11.9137  -16.0103   20.2151 N   0  0  0  0  0  0  0  0  0  0  0  0
   12.6390  -17.6178   24.8496 C   0  0  0  0  0  0  0  0  0  0  0  0
   13.5431  -16.7437   25.0531 O   0  0  0  0  0  0  0  0  0  0  0  0
   12.5837  -18.6878   25.7747 N   0  0  0  0  0  0  0  0  0  0  0  0
   12.2288  -18.5060   27.1925 C   0  0  1  0  0  0  0  0  0  0  0  0
   10.8077  -18.0007   27.2904 C   0  0  0  0  0  0  0  0  0  0  0  0
   10.7945  -16.5688   27.5947 C   0  0  0  0  0  0  0  0  0  0  0  0
   11.9648  -15.8094   27.7567 C   0  0  0  0  0  0  0  0  0  0  0  0
   11.6311  -14.5427   28.0250 N   0  0  0  0  0  0  0  0  0  0  0  0
   10.3095  -14.4549   28.0426 C   0  0  0  0  0  0  0  0  0  0  0  0
    9.8189  -15.6763   27.7831 N   0  0  0  0  0  0  0  0  0  0  0  0
   12.2822  -19.8551   27.7773 C   0  0  0  0  0  0  0  0  0  0  0  0
   12.4027  -20.8696   27.0742 O   0  0  0  0  0  0  0  0  0  0  0  0
   12.1996  -20.0354   29.1427 O   0  0  0  0  0  0  0  0  0  0  0  0
  2  1  1  1
  3  2  1  0
  4  3  1  0
  5  4  2  0
  6  7  1  0
  6  5  1  0
  7 12  2  0
  8  7  1  0
  8  9  2  0
  9 10  1  0
 10 11  2  0
 12  4  1  0
 12 11  1  0
 13  2  1  0
 13 14  2  0
 15 13  1  0
 16 17  1  6
 16 15  1  0
 18 22  1  0
 18 17  1  0
 19 18  2  0
 20 19  1  0
 20 21  1  0
 21 22  2  0
 23 16  1  0
 24 23  2  0
 25 23  1  0
 26 27  1  6
 26 25  1  0
 27 28  1  0
 28 29  2  0
 29 30  1  0
 31 30  1  0
 32 28  1  0
 32 31  2  0
 33 35  1  0
 33 26  1  0
 34 33  2  0
M  END
$$$$
