WHH.pdb
     RDKit          3D

 35 38  0  0  1  0  0  0  0  0999 V2000
    8.3931  -15.8811   24.6783 N   0  0  0  0  0  0  0  0  0  0  0  0
    7.5299  -16.2123   23.5813 C   0  0  1  0  0  0  0  0  0  0  0  0
    6.5682  -15.0841   23.3346 C   0  0  0  0  0  0  0  0  0  0  0  0
    6.1913  -14.4386   24.6103 C   0  0  0  0  0  0  0  0  0  0  0  0
    5.3657  -15.0321   25.5759 C   0  0  0  0  0  0  0  0  0  0  0  0
    5.2469  -14.2026   26.6228 N   0  0  0  0  0  0  0  0  0  0  0  0
    5.9675  -13.0996   26.3592 C   0  0  0  0  0  0  0  0  0  0  0  0
    6.1615  -11.9485   27.1187 C   0  0  0  0  0  0  0  0  0  0  0  0
    6.9582  -10.9349   26.6035 C   0  0  0  0  0  0  0  0  0  0  0  0
    7.5528  -11.0330   25.3822 C   0  0  0  0  0  0  0  0  0  0  0  0
    7.3409  -12.1890   24.6521 C   0  0  0  0  0  0  0  0  0  0  0  0
    6.5622  -13.2174   25.1212 C   0  0  0  0  0  0  0  0  0  0  0  0
    8.3242  -16.4270   22.3266 C   0  0  0  0  0  0  0  0  0  0  0  0
    7.8256  -16.9554   21.3000 O   0  0  0  0  0  0  0  0  0  0  0  0
    9.6893  -16.0328   22.2586 N   0  0  0  0  0  0  0  0  0  0  0  0
   10.5265  -16.3818   21.1529 C   0  0  1  0  0  0  0  0  0  0  0  0
   10.8181  -15.0990   20.3688 C   0  0  0  0  0  0  0  0  0  0  0  0
    9.5641  -14.4940   19.8307 C   0  0  0  0  0  0  0  0  0  0  0  0
    8.7705  -15.0001   18.8316 C   0  0  0  0  0  0  0  0  0  0  0  0
    7.7530  -14.1406   18.6682 N   0  0  0  0  0  0  0  0  0  0  0  0
    7.8733  -13.1155   19.5219 C   0  0  0  0  0  0  0  0  0  0  0  0
    8.9893  -13.3417   20.2320 N   0  0  0  0  0  0  0  0  0  0  0  0
   11.8144  -17.0003   21.5462 C   0  0  0  0  0  0  0  0  0  0  0  0
   12.9193  -16.4651   21.2062 O   0  0  0  0  0  0  0  0  0  0  0  0
   11.9038  -18.1914   22.3059 N   0  0  0  0  0  0  0  0  0  0  0  0
   13.0296  -18.4854   23.2089 C   0  0  1  0  0  0  0  0  0  0  0  0
   13.0432  -17.4766   24.3343 C   0  0  0  0  0  0  0  0  0  0  0  0
   12.1076  -17.8739   25.3879 C   0  0  0  0  0  0  0  0  0  0  0  0
   10.8676  -18.4778   25.1231 C   0  0  0  0  0  0  0  0  0  0  0  0
   10.2438  -18.7223   26.2803 N   0  0  0  0  0  0  0  0  0  0  0  0
   11.0211  -18.3058   27.2686 C   0  0  0  0  0  0  0  0  0  0  0  0
   12.1361  -17.7990   26.7210 N   0  0  0  0  0  0  0  0  0  0  0  0
   12.7302  -19.8092   23.7769 C   0  0  0  0  0  0  0  0  0  0  0  0
   11.6444  -20.3757   23.5812 O   0  0  0  0  0  0  0  0  0  0  0  0
   13.6597  -20.4698   24.5536 O   0  0  0  0  0  0  0  0  0  0  0  0
  2  1  1  1
  3  2  1  0
  4  3  1  0
  5  4  2  0
  6  7  1  0
  6  5  1  0
  7 12  2  0
  8  7  1  0
  8  9  2  0
  9 10  1  0
 10 11  2  0
 12  4  1  0
 12 11  1  0
 13  2  1  0
 13 14  2  0
 15 13  1  0
 16 17  1  1
 16 15  1  0
 18 22  1  0
 18 17  1  0
 19 18  2  0
 20 19  1  0
 20 21  1  0
 21 22  2  0
 23 16  1  0
 24 23  2  0
 25 23  1  0
 26 27  1  1
 26 25  1  0
 27 28  1  0
 28 29  2  0
 29 30  1  0
 31 30  1  0
 32 28  1  0
 32 31  2  0
 33 35  1  0
 33 26  1  0
 34 33  2  0
M  END
$$$$
