WHH.pdb
     RDKit          3D

 35 38  0  0  1  0  0  0  0  0999 V2000
   24.2219  -45.1396  -13.2616 N   0  0  0  0  0  0  0  0  0  0  0  0
   24.3782  -46.5579  -13.1125 C   0  0  1  0  0  0  0  0  0  0  0  0
   24.9793  -46.8631  -11.7693 C   0  0  0  0  0  0  0  0  0  0  0  0
   26.4552  -46.8818  -11.8563 C   0  0  0  0  0  0  0  0  0  0  0  0
   27.2858  -47.5579  -10.9512 C   0  0  0  0  0  0  0  0  0  0  0  0
   28.5636  -47.4041  -11.3275 N   0  0  0  0  0  0  0  0  0  0  0  0
   28.5781  -46.6526  -12.4413 C   0  0  0  0  0  0  0  0  0  0  0  0
   29.6487  -46.2070  -13.2125 C   0  0  0  0  0  0  0  0  0  0  0  0
   29.3875  -45.4228  -14.3279 C   0  0  0  0  0  0  0  0  0  0  0  0
   28.1203  -45.0779  -14.6883 C   0  0  0  0  0  0  0  0  0  0  0  0
   27.0782  -45.5362  -13.9020 C   0  0  0  0  0  0  0  0  0  0  0  0
   27.2883  -46.3147  -12.7911 C   0  0  0  0  0  0  0  0  0  0  0  0
   23.0495  -47.2500  -13.1937 C   0  0  0  0  0  0  0  0  0  0  0  0
   22.9330  -48.4950  -13.0587 O   0  0  0  0  0  0  0  0  0  0  0  0
   21.8599  -46.5064  -13.4299 N   0  0  0  0  0  0  0  0  0  0  0  0
   21.3314  -45.5923  -12.4654 C   0  0  1  0  0  0  0  0  0  0  0  0
   20.6554  -46.4172  -11.3663 C   0  0  0  0  0  0  0  0  0  0  0  0
   19.5211  -47.2209  -11.9098 C   0  0  0  0  0  0  0  0  0  0  0  0
   18.8435  -46.9976  -13.0824 C   0  0  0  0  0  0  0  0  0  0  0  0
   17.9064  -47.9534  -13.1797 N   0  0  0  0  0  0  0  0  0  0  0  0
   17.9662  -48.7680  -12.1181 C   0  0  0  0  0  0  0  0  0  0  0  0
   18.9615  -48.3096  -11.3434 N   0  0  0  0  0  0  0  0  0  0  0  0
   22.3536  -44.7190  -11.8421 C   0  0  0  0  0  0  0  0  0  0  0  0
   22.4994  -44.6955  -10.5769 O   0  0  0  0  0  0  0  0  0  0  0  0
   23.2144  -43.8775  -12.5869 N   0  0  0  0  0  0  0  0  0  0  0  0
   23.8045  -44.2722  -13.8772 C   0  0  1  0  0  0  0  0  0  0  0  0
   25.2879  -44.5007  -13.6984 C   0  0  0  0  0  0  0  0  0  0  0  0
   25.8556  -45.1295  -14.8924 C   0  0  0  0  0  0  0  0  0  0  0  0
   25.0993  -45.4142  -16.0410 C   0  0  0  0  0  0  0  0  0  0  0  0
   25.8907  -45.9832  -16.9564 N   0  0  0  0  0  0  0  0  0  0  0  0
   27.1117  -46.0760  -16.4514 C   0  0  0  0  0  0  0  0  0  0  0  0
   27.0782  -45.5607  -15.2131 N   0  0  0  0  0  0  0  0  0  0  0  0
   23.1742  -45.5594  -14.2096 C   0  0  0  0  0  0  0  0  0  0  0  0
   22.9102  -45.8769  -15.3791 O   0  0  0  0  0  0  0  0  0  0  0  0
   22.8542  -46.4645  -13.2186 O   0  0  0  0  0  0  0  0  0  0  0  0
  2  1  1  1
  3  2  1  0
  4  3  1  0
  5  4  2  0
  6  7  1  0
  6  5  1  0
  7 12  2  0
  8  7  1  0
  8  9  2  0
  9 10  1  0
 10 11  2  0
 12  4  1  0
 12 11  1  0
 13  2  1  0
 13 14  2  0
 15 13  1  0
 16 17  1  1
 16 15  1  0
 18 22  1  0
 18 17  1  0
 19 18  2  0
 20 19  1  0
 20 21  1  0
 21 22  2  0
 23 16  1  0
 24 23  2  0
 25 23  1  0
 26 27  1  1
 26 25  1  0
 27 28  1  0
 28 29  2  0
 29 30  1  0
 31 30  1  0
 32 28  1  0
 32 31  2  0
 33 35  1  0
 33 26  1  0
 34 33  2  0
M  END
$$$$
