WHH.pdb
     RDKit          3D

 35 38  0  0  1  0  0  0  0  0999 V2000
    6.1926  -16.9427   23.3750 N   0  0  0  0  0  0  0  0  0  0  0  0
    7.3331  -16.1040   23.1417 C   0  0  1  0  0  0  0  0  0  0  0  0
    8.1762  -16.0379   24.3841 C   0  0  0  0  0  0  0  0  0  0  0  0
    7.5094  -15.2174   25.4176 C   0  0  0  0  0  0  0  0  0  0  0  0
    6.7234  -15.7453   26.4519 C   0  0  0  0  0  0  0  0  0  0  0  0
    6.2935  -14.7435   27.2327 N   0  0  0  0  0  0  0  0  0  0  0  0
    6.7771  -13.5939   26.7328 C   0  0  0  0  0  0  0  0  0  0  0  0
    6.6138  -12.2824   27.1717 C   0  0  0  0  0  0  0  0  0  0  0  0
    7.2221  -11.2586   26.4580 C   0  0  0  0  0  0  0  0  0  0  0  0
    7.9706  -11.4985   25.3459 C   0  0  0  0  0  0  0  0  0  0  0  0
    8.1142  -12.8120   24.9354 C   0  0  0  0  0  0  0  0  0  0  0  0
    7.5322  -13.8564   25.6098 C   0  0  0  0  0  0  0  0  0  0  0  0
    8.1814  -16.6572   22.0347 C   0  0  0  0  0  0  0  0  0  0  0  0
    8.2244  -17.8867   21.7737 O   0  0  0  0  0  0  0  0  0  0  0  0
    8.9772  -15.7929   21.2324 N   0  0  0  0  0  0  0  0  0  0  0  0
    9.7711  -16.2807   20.1475 C   0  0  1  0  0  0  0  0  0  0  0  0
    9.9724  -15.1244   19.1636 C   0  0  0  0  0  0  0  0  0  0  0  0
    8.6765  -14.6882   18.5650 C   0  0  0  0  0  0  0  0  0  0  0  0
    7.4367  -15.2241   18.8095 C   0  0  0  0  0  0  0  0  0  0  0  0
    6.5592  -14.5333   18.0654 N   0  0  0  0  0  0  0  0  0  0  0  0
    7.1947  -13.5859   17.3634 C   0  0  0  0  0  0  0  0  0  0  0  0
    8.4955  -13.6891   17.6772 N   0  0  0  0  0  0  0  0  0  0  0  0
   11.1004  -16.7912   20.5578 C   0  0  0  0  0  0  0  0  0  0  0  0
   11.8277  -17.4359   19.7343 O   0  0  0  0  0  0  0  0  0  0  0  0
   11.6389  -16.6018   21.8531 N   0  0  0  0  0  0  0  0  0  0  0  0
   12.9351  -17.1604   22.2736 C   0  0  1  0  0  0  0  0  0  0  0  0
   13.8503  -16.0341   22.6961 C   0  0  0  0  0  0  0  0  0  0  0  0
   14.3740  -15.3336   21.5221 C   0  0  0  0  0  0  0  0  0  0  0  0
   14.1178  -15.7488   20.2051 C   0  0  0  0  0  0  0  0  0  0  0  0
   14.7264  -14.9136   19.3566 N   0  0  0  0  0  0  0  0  0  0  0  0
   15.3571  -13.9879   20.0637 C   0  0  0  0  0  0  0  0  0  0  0  0
   15.1383  -14.2503   21.3611 N   0  0  0  0  0  0  0  0  0  0  0  0
   12.6335  -17.9811   23.4569 C   0  0  0  0  0  0  0  0  0  0  0  0
   11.4796  -18.0983   23.8961 O   0  0  0  0  0  0  0  0  0  0  0  0
   13.6372  -18.6545   24.1223 O   0  0  0  0  0  0  0  0  0  0  0  0
  2  1  1  1
  3  2  1  0
  4  3  1  0
  5  4  2  0
  6  7  1  0
  6  5  1  0
  7 12  2  0
  8  7  1  0
  8  9  2  0
  9 10  1  0
 10 11  2  0
 12  4  1  0
 12 11  1  0
 13  2  1  0
 13 14  2  0
 15 13  1  0
 16 17  1  6
 16 15  1  0
 18 22  1  0
 18 17  1  0
 19 18  2  0
 20 19  1  0
 20 21  1  0
 21 22  2  0
 23 16  1  0
 24 23  2  0
 25 23  1  0
 26 27  1  1
 26 25  1  0
 27 28  1  0
 28 29  2  0
 29 30  1  0
 31 30  1  0
 32 28  1  0
 32 31  2  0
 33 35  1  0
 33 26  1  0
 34 33  2  0
M  END
$$$$
