HVT.pdb
     RDKit          3D

 25 25  0  0  1  0  0  0  0  0999 V2000
    9.7128  -13.3446   20.8360 N   0  0  0  0  0  0  0  0  0  0  0  0
    8.4690  -13.6351   21.5347 C   0  0  1  0  0  0  0  0  0  0  0  0
    7.8323  -14.8403   20.8231 C   0  0  0  0  0  0  0  0  0  0  0  0
    7.5125  -14.5195   19.4126 C   0  0  0  0  0  0  0  0  0  0  0  0
    7.7695  -13.2931   18.7941 C   0  0  0  0  0  0  0  0  0  0  0  0
    7.3412  -13.3880   17.5409 N   0  0  0  0  0  0  0  0  0  0  0  0
    6.8281  -14.6181   17.3499 C   0  0  0  0  0  0  0  0  0  0  0  0
    6.9352  -15.3033   18.4975 N   0  0  0  0  0  0  0  0  0  0  0  0
    8.7048  -13.9408   22.9513 C   0  0  0  0  0  0  0  0  0  0  0  0
    9.8316  -14.4615   23.2988 O   0  0  0  0  0  0  0  0  0  0  0  0
    7.3612  -11.6666   25.9469 C   0  0  0  0  0  0  0  0  0  0  0  0
    7.2531  -13.1169   26.2995 C   0  0  1  0  0  0  0  0  0  0  0  0
    5.8175  -13.5435   25.9569 C   0  0  0  0  0  0  0  0  0  0  0  0
    8.1327  -13.9644   25.3972 C   0  0  2  0  0  0  0  0  0  0  0  0
    7.7966  -13.7172   24.0104 N   0  0  0  0  0  0  0  0  0  0  0  0
    8.0256  -15.3962   25.7488 C   0  0  0  0  0  0  0  0  0  0  0  0
    6.9420  -16.0387   25.6719 O   0  0  0  0  0  0  0  0  0  0  0  0
    9.6228  -18.3905   24.1628 C   0  0  0  0  0  0  0  0  0  0  0  0
   10.0250  -18.3608   25.5927 C   0  0  1  0  0  0  0  0  0  0  0  0
   11.3053  -17.8419   25.7331 O   0  0  0  0  0  0  0  0  0  0  0  0
    9.1053  -17.5678   26.4967 C   0  0  2  0  0  0  0  0  0  0  0  0
    9.1398  -16.1547   26.1988 N   0  0  0  0  0  0  0  0  0  0  0  0
    9.4554  -17.7736   27.9079 C   0  0  0  0  0  0  0  0  0  0  0  0
    9.3907  -19.0363   28.4887 O   0  0  0  0  0  0  0  0  0  0  0  0
    9.8215  -16.8166   28.6195 O   0  0  0  0  0  0  0  0  0  0  0  0
  2  3  1  0
  2  1  1  6
  4  3  1  0
  4  8  1  0
  5  6  1  0
  5  4  2  0
  6  7  1  0
  7  8  2  0
  9  2  1  0
 10  9  2  0
 12 11  1  6
 12 14  1  0
 13 12  1  0
 14 16  1  0
 14 15  1  6
 15  9  1  0
 16 22  1  0
 17 16  2  0
 19 20  1  0
 19 18  1  6
 21 19  1  0
 21 23  1  0
 21 22  1  6
 23 25  2  0
 23 24  1  0
M  END
$$$$
