HVT.pdb
     RDKit          3D

 25 25  0  0  1  0  0  0  0  0999 V2000
    9.2346  -15.0523   20.8361 N   0  0  0  0  0  0  0  0  0  0  0  0
    8.2179  -15.3137   21.8449 C   0  0  1  0  0  0  0  0  0  0  0  0
    7.8942  -16.8150   21.7688 C   0  0  0  0  0  0  0  0  0  0  0  0
    7.2312  -17.1538   20.4879 C   0  0  0  0  0  0  0  0  0  0  0  0
    6.3340  -16.3250   19.8090 C   0  0  0  0  0  0  0  0  0  0  0  0
    5.9541  -16.9719   18.7134 N   0  0  0  0  0  0  0  0  0  0  0  0
    6.5735  -18.1669   18.6786 C   0  0  0  0  0  0  0  0  0  0  0  0
    7.3512  -18.2715   19.7660 N   0  0  0  0  0  0  0  0  0  0  0  0
    8.6879  -14.9572   23.1894 C   0  0  0  0  0  0  0  0  0  0  0  0
    9.8884  -15.2737   23.5359 O   0  0  0  0  0  0  0  0  0  0  0  0
    7.0426  -12.0248   25.1251 C   0  0  0  0  0  0  0  0  0  0  0  0
    7.6653  -12.9069   26.1612 C   0  0  1  0  0  0  0  0  0  0  0  0
    6.5079  -13.5934   26.9025 C   0  0  0  0  0  0  0  0  0  0  0  0
    8.4381  -14.0440   25.5162 C   0  0  2  0  0  0  0  0  0  0  0  0
    7.9382  -14.2807   24.1778 N   0  0  0  0  0  0  0  0  0  0  0  0
    8.3842  -15.2609   26.3535 C   0  0  0  0  0  0  0  0  0  0  0  0
    7.3035  -15.8502   26.6325 O   0  0  0  0  0  0  0  0  0  0  0  0
    9.5326  -18.5720   25.5785 C   0  0  0  0  0  0  0  0  0  0  0  0
   10.2229  -18.2157   26.8448 C   0  0  1  0  0  0  0  0  0  0  0  0
   11.5379  -17.8423   26.6002 O   0  0  0  0  0  0  0  0  0  0  0  0
    9.5682  -17.1033   27.6359 C   0  0  2  0  0  0  0  0  0  0  0  0
    9.5501  -15.8574   26.9051 N   0  0  0  0  0  0  0  0  0  0  0  0
   10.2535  -16.9018   28.9190 C   0  0  0  0  0  0  0  0  0  0  0  0
   10.2626  -17.8946   29.8938 O   0  0  0  0  0  0  0  0  0  0  0  0
   10.8464  -15.8318   29.1634 O   0  0  0  0  0  0  0  0  0  0  0  0
  2  3  1  0
  2  1  1  6
  4  3  1  0
  4  8  1  0
  5  6  1  0
  5  4  2  0
  6  7  1  0
  7  8  2  0
  9  2  1  0
 10  9  2  0
 12 11  1  6
 12 14  1  0
 13 12  1  0
 14 16  1  0
 14 15  1  6
 15  9  1  0
 16 22  1  0
 17 16  2  0
 19 20  1  0
 19 18  1  6
 21 19  1  0
 21 23  1  0
 21 22  1  6
 23 25  2  0
 23 24  1  0
M  END
$$$$
