HVT.pdb
     RDKit          3D

 25 25  0  0  1  0  0  0  0  0999 V2000
    9.1025  -14.9909   20.6278 N   0  0  0  0  0  0  0  0  0  0  0  0
    8.1115  -15.3215   21.6418 C   0  0  1  0  0  0  0  0  0  0  0  0
    7.9176  -16.8460   21.5912 C   0  0  0  0  0  0  0  0  0  0  0  0
    7.3961  -17.2742   20.2723 C   0  0  0  0  0  0  0  0  0  0  0  0
    6.1770  -16.8662   19.7245 C   0  0  0  0  0  0  0  0  0  0  0  0
    6.0593  -17.4601   18.5427 N   0  0  0  0  0  0  0  0  0  0  0  0
    7.1497  -18.2205   18.3289 C   0  0  0  0  0  0  0  0  0  0  0  0
    7.9614  -18.1028   19.3898 N   0  0  0  0  0  0  0  0  0  0  0  0
    8.5486  -14.9035   22.9797 C   0  0  0  0  0  0  0  0  0  0  0  0
    9.7442  -15.1929   23.3651 O   0  0  0  0  0  0  0  0  0  0  0  0
    6.0095  -13.3052   26.1338 C   0  0  0  0  0  0  0  0  0  0  0  0
    7.3755  -12.7660   25.8461 C   0  0  1  0  0  0  0  0  0  0  0  0
    8.0175  -12.4552   27.2068 C   0  0  0  0  0  0  0  0  0  0  0  0
    8.2656  -13.8339   25.2350 C   0  0  2  0  0  0  0  0  0  0  0  0
    7.7713  -14.1934   23.9221 N   0  0  0  0  0  0  0  0  0  0  0  0
    8.3737  -15.0063   26.1289 C   0  0  0  0  0  0  0  0  0  0  0  0
    7.3729  -15.6882   26.4843 O   0  0  0  0  0  0  0  0  0  0  0  0
    9.8980  -18.2881   25.5870 C   0  0  0  0  0  0  0  0  0  0  0  0
   10.5685  -17.7094   26.7798 C   0  0  1  0  0  0  0  0  0  0  0  0
   11.8097  -17.1867   26.4414 O   0  0  0  0  0  0  0  0  0  0  0  0
    9.7871  -16.6207   27.4841 C   0  0  2  0  0  0  0  0  0  0  0  0
    9.6173  -15.4517   26.6526 N   0  0  0  0  0  0  0  0  0  0  0  0
   10.4469  -16.2317   28.7370 C   0  0  0  0  0  0  0  0  0  0  0  0
   10.5920  -17.1356   29.7848 O   0  0  0  0  0  0  0  0  0  0  0  0
   10.8948  -15.0774   28.8894 O   0  0  0  0  0  0  0  0  0  0  0  0
  2  3  1  0
  2  1  1  6
  4  3  1  0
  4  8  1  0
  5  6  1  0
  5  4  2  0
  6  7  1  0
  7  8  2  0
  9  2  1  0
 10  9  2  0
 12 11  1  1
 12 14  1  0
 13 12  1  0
 14 16  1  0
 14 15  1  6
 15  9  1  0
 16 22  1  0
 17 16  2  0
 19 20  1  0
 19 18  1  6
 21 19  1  0
 21 23  1  0
 21 22  1  6
 23 25  2  0
 23 24  1  0
M  END
$$$$
