HVT.pdb
     RDKit          3D

 25 25  0  0  1  0  0  0  0  0999 V2000
    8.7106  -15.3439   20.8146 N   0  0  0  0  0  0  0  0  0  0  0  0
    7.7928  -15.5757   21.9208 C   0  0  1  0  0  0  0  0  0  0  0  0
    7.5638  -17.0944   21.9954 C   0  0  0  0  0  0  0  0  0  0  0  0
    6.9625  -17.6057   20.7416 C   0  0  0  0  0  0  0  0  0  0  0  0
    5.8924  -17.0107   20.0681 C   0  0  0  0  0  0  0  0  0  0  0  0
    5.6383  -17.7560   18.9990 N   0  0  0  0  0  0  0  0  0  0  0  0
    6.5012  -18.7893   18.9756 C   0  0  0  0  0  0  0  0  0  0  0  0
    7.3064  -18.6916   20.0434 N   0  0  0  0  0  0  0  0  0  0  0  0
    8.3389  -15.0758   23.1887 C   0  0  0  0  0  0  0  0  0  0  0  0
    9.5465  -15.3873   23.5147 O   0  0  0  0  0  0  0  0  0  0  0  0
    6.0694  -13.2898   26.4338 C   0  0  0  0  0  0  0  0  0  0  0  0
    7.3998  -12.7537   26.0070 C   0  0  1  0  0  0  0  0  0  0  0  0
    8.1490  -12.3715   27.2927 C   0  0  0  0  0  0  0  0  0  0  0  0
    8.2492  -13.8426   25.3753 C   0  0  2  0  0  0  0  0  0  0  0  0
    7.6581  -14.2616   24.1214 N   0  0  0  0  0  0  0  0  0  0  0  0
    8.4361  -14.9743   26.3078 C   0  0  0  0  0  0  0  0  0  0  0  0
    7.4709  -15.6381   26.7776 O   0  0  0  0  0  0  0  0  0  0  0  0
   10.3961  -18.2211   25.7476 C   0  0  0  0  0  0  0  0  0  0  0  0
   10.9235  -17.5261   26.9500 C   0  0  1  0  0  0  0  0  0  0  0  0
   12.0934  -16.8411   26.6490 O   0  0  0  0  0  0  0  0  0  0  0  0
    9.9658  -16.5427   27.5887 C   0  0  2  0  0  0  0  0  0  0  0  0
    9.7210  -15.3980   26.7423 N   0  0  0  0  0  0  0  0  0  0  0  0
   10.4767  -16.0844   28.8869 C   0  0  0  0  0  0  0  0  0  0  0  0
   10.6792  -16.9757   29.9360 O   0  0  0  0  0  0  0  0  0  0  0  0
   10.7429  -14.8807   29.0777 O   0  0  0  0  0  0  0  0  0  0  0  0
  2  3  1  0
  2  1  1  6
  4  3  1  0
  4  8  1  0
  5  6  1  0
  5  4  2  0
  6  7  1  0
  7  8  2  0
  9  2  1  0
 10  9  2  0
 12 11  1  1
 12 14  1  0
 13 12  1  0
 14 16  1  0
 14 15  1  6
 15  9  1  0
 16 22  1  0
 17 16  2  0
 19 20  1  0
 19 18  1  6
 21 19  1  0
 21 23  1  0
 21 22  1  6
 23 25  2  0
 23 24  1  0
M  END
$$$$
