HVT.pdb
     RDKit          3D

 25 25  0  0  1  0  0  0  0  0999 V2000
    9.9138  -13.9704   21.2184 N   0  0  0  0  0  0  0  0  0  0  0  0
    8.5908  -13.8803   21.8197 C   0  0  1  0  0  0  0  0  0  0  0  0
    7.6775  -14.8280   21.0246 C   0  0  0  0  0  0  0  0  0  0  0  0
    7.5235  -14.3704   19.6240 C   0  0  0  0  0  0  0  0  0  0  0  0
    8.1499  -13.2474   19.0769 C   0  0  0  0  0  0  0  0  0  0  0  0
    7.7653  -13.1622   17.8088 N   0  0  0  0  0  0  0  0  0  0  0  0
    6.9269  -14.1810   17.5405 C   0  0  0  0  0  0  0  0  0  0  0  0
    6.7832  -14.9143   18.6539 N   0  0  0  0  0  0  0  0  0  0  0  0
    8.6158  -14.2606   23.2376 C   0  0  0  0  0  0  0  0  0  0  0  0
    9.5053  -15.1006   23.6435 O   0  0  0  0  0  0  0  0  0  0  0  0
    7.4923  -11.7882   26.4135 C   0  0  0  0  0  0  0  0  0  0  0  0
    7.0215  -13.2069   26.4850 C   0  0  1  0  0  0  0  0  0  0  0  0
    5.6464  -13.2452   25.8008 C   0  0  0  0  0  0  0  0  0  0  0  0
    7.8976  -14.1154   25.6404 C   0  0  2  0  0  0  0  0  0  0  0  0
    7.7382  -13.7874   24.2388 N   0  0  0  0  0  0  0  0  0  0  0  0
    7.6036  -15.5377   25.9158 C   0  0  0  0  0  0  0  0  0  0  0  0
    6.4473  -16.0303   25.8009 O   0  0  0  0  0  0  0  0  0  0  0  0
    8.1809  -18.7216   24.3140 C   0  0  0  0  0  0  0  0  0  0  0  0
    8.8873  -18.7868   25.6193 C   0  0  1  0  0  0  0  0  0  0  0  0
   10.2429  -18.5326   25.4584 O   0  0  0  0  0  0  0  0  0  0  0  0
    8.3631  -17.8370   26.6753 C   0  0  2  0  0  0  0  0  0  0  0  0
    8.6062  -16.4556   26.3297 N   0  0  0  0  0  0  0  0  0  0  0  0
    8.9693  -18.1229   27.9819 C   0  0  0  0  0  0  0  0  0  0  0  0
    8.7319  -19.3269   28.6375 O   0  0  0  0  0  0  0  0  0  0  0  0
    9.7150  -17.2891   28.5343 O   0  0  0  0  0  0  0  0  0  0  0  0
  2  3  1  0
  2  1  1  6
  4  3  1  0
  4  8  1  0
  5  6  1  0
  5  4  2  0
  6  7  1  0
  7  8  2  0
  9  2  1  0
 10  9  2  0
 12 11  1  6
 12 14  1  0
 13 12  1  0
 14 16  1  0
 14 15  1  6
 15  9  1  0
 16 22  1  0
 17 16  2  0
 19 20  1  0
 19 18  1  6
 21 19  1  0
 21 23  1  0
 21 22  1  6
 23 25  2  0
 23 24  1  0
M  END
$$$$
