HVT.pdb
     RDKit          3D

 25 25  0  0  1  0  0  0  0  0999 V2000
    9.1153  -15.3866   20.8390 N   0  0  0  0  0  0  0  0  0  0  0  0
    8.1138  -15.6264   21.8682 C   0  0  1  0  0  0  0  0  0  0  0  0
    7.9787  -17.1517   22.0079 C   0  0  0  0  0  0  0  0  0  0  0  0
    7.4323  -17.7547   20.7699 C   0  0  0  0  0  0  0  0  0  0  0  0
    6.0852  -17.7347   20.3986 C   0  0  0  0  0  0  0  0  0  0  0  0
    5.9880  -18.3750   19.2394 N   0  0  0  0  0  0  0  0  0  0  0  0
    7.2135  -18.7940   18.8712 C   0  0  0  0  0  0  0  0  0  0  0  0
    8.0905  -18.4124   19.8111 N   0  0  0  0  0  0  0  0  0  0  0  0
    8.5031  -15.0258   23.1501 C   0  0  0  0  0  0  0  0  0  0  0  0
    9.7000  -15.2139   23.5903 O   0  0  0  0  0  0  0  0  0  0  0  0
    5.7727  -13.2629   25.9601 C   0  0  0  0  0  0  0  0  0  0  0  0
    7.1353  -12.6768   25.7617 C   0  0  1  0  0  0  0  0  0  0  0  0
    7.6520  -12.2919   27.1565 C   0  0  0  0  0  0  0  0  0  0  0  0
    8.1134  -13.7267   25.2646 C   0  0  2  0  0  0  0  0  0  0  0  0
    7.6769  -14.2363   23.9812 N   0  0  0  0  0  0  0  0  0  0  0  0
    8.2838  -14.8042   26.2622 C   0  0  0  0  0  0  0  0  0  0  0  0
    7.3439  -15.5752   26.6013 O   0  0  0  0  0  0  0  0  0  0  0  0
   10.4282  -17.8896   26.1627 C   0  0  0  0  0  0  0  0  0  0  0  0
   10.8207  -17.0861   27.3491 C   0  0  1  0  0  0  0  0  0  0  0  0
   11.9684  -16.3497   27.0868 O   0  0  0  0  0  0  0  0  0  0  0  0
    9.7614  -16.1258   27.8467 C   0  0  2  0  0  0  0  0  0  0  0  0
    9.5233  -15.0505   26.9119 N   0  0  0  0  0  0  0  0  0  0  0  0
   10.1390  -15.5607   29.1484 C   0  0  0  0  0  0  0  0  0  0  0  0
   10.3194  -16.3755   30.2617 O   0  0  0  0  0  0  0  0  0  0  0  0
   10.3083  -14.3323   29.2846 O   0  0  0  0  0  0  0  0  0  0  0  0
  2  3  1  0
  2  1  1  6
  4  3  1  0
  4  8  1  0
  5  6  1  0
  5  4  2  0
  6  7  1  0
  7  8  2  0
  9  2  1  0
 10  9  2  0
 12 11  1  1
 12 14  1  0
 13 12  1  0
 14 16  1  0
 14 15  1  6
 15  9  1  0
 16 22  1  0
 17 16  2  0
 19 20  1  0
 19 18  1  6
 21 19  1  0
 21 23  1  0
 21 22  1  6
 23 25  2  0
 23 24  1  0
M  END
$$$$
