HVT.pdb
     RDKit          3D

 25 25  0  0  1  0  0  0  0  0999 V2000
    9.3504  -14.9513   20.3875 N   0  0  0  0  0  0  0  0  0  0  0  0
    8.2380  -15.3392   21.2430 C   0  0  1  0  0  0  0  0  0  0  0  0
    7.8937  -16.7953   20.8889 C   0  0  0  0  0  0  0  0  0  0  0  0
    7.5580  -16.9301   19.4522 C   0  0  0  0  0  0  0  0  0  0  0  0
    6.3887  -16.4500   18.8565 C   0  0  0  0  0  0  0  0  0  0  0  0
    6.4474  -16.7635   17.5676 N   0  0  0  0  0  0  0  0  0  0  0  0
    7.6003  -17.4181   17.3326 C   0  0  0  0  0  0  0  0  0  0  0  0
    8.2731  -17.5170   18.4883 N   0  0  0  0  0  0  0  0  0  0  0  0
    8.5858  -15.2249   22.6649 C   0  0  0  0  0  0  0  0  0  0  0  0
    9.7919  -15.4878   23.0361 O   0  0  0  0  0  0  0  0  0  0  0  0
    7.4631  -12.3124   24.9158 C   0  0  0  0  0  0  0  0  0  0  0  0
    7.3819  -13.5593   25.7394 C   0  0  1  0  0  0  0  0  0  0  0  0
    5.9113  -14.0033   25.7150 C   0  0  0  0  0  0  0  0  0  0  0  0
    8.1394  -14.6985   25.0802 C   0  0  2  0  0  0  0  0  0  0  0  0
    7.7087  -14.8442   23.7052 N   0  0  0  0  0  0  0  0  0  0  0  0
    7.9819  -15.9516   25.8483 C   0  0  0  0  0  0  0  0  0  0  0  0
    6.8540  -16.4185   26.1688 O   0  0  0  0  0  0  0  0  0  0  0  0
    8.8049  -19.4368   24.8902 C   0  0  0  0  0  0  0  0  0  0  0  0
    9.5657  -19.1262   26.1278 C   0  0  1  0  0  0  0  0  0  0  0  0
   10.8837  -18.8076   25.8283 O   0  0  0  0  0  0  0  0  0  0  0  0
    8.9964  -17.9958   26.9586 C   0  0  2  0  0  0  0  0  0  0  0  0
    9.0936  -16.7237   26.2810 N   0  0  0  0  0  0  0  0  0  0  0  0
    9.6786  -17.9064   28.2559 C   0  0  0  0  0  0  0  0  0  0  0  0
    9.6159  -18.9488   29.1754 O   0  0  0  0  0  0  0  0  0  0  0  0
   10.3333  -16.8898   28.5627 O   0  0  0  0  0  0  0  0  0  0  0  0
  2  3  1  0
  2  1  1  6
  4  3  1  0
  4  8  1  0
  5  6  1  0
  5  4  2  0
  6  7  1  0
  7  8  2  0
  9  2  1  0
 10  9  2  0
 12 11  1  6
 12 14  1  0
 13 12  1  0
 14 16  1  0
 14 15  1  6
 15  9  1  0
 16 22  1  0
 17 16  2  0
 19 20  1  0
 19 18  1  6
 21 19  1  0
 21 23  1  0
 21 22  1  6
 23 25  2  0
 23 24  1  0
M  END
$$$$
