HVT.pdb
     RDKit          3D

 25 25  0  0  1  0  0  0  0  0999 V2000
    8.4766  -14.7458   20.6865 N   0  0  0  0  0  0  0  0  0  0  0  0
    7.7695  -15.4509   21.7460 C   0  0  1  0  0  0  0  0  0  0  0  0
    8.0215  -16.9515   21.5242 C   0  0  0  0  0  0  0  0  0  0  0  0
    7.4546  -17.4025   20.2319 C   0  0  0  0  0  0  0  0  0  0  0  0
    6.1010  -17.6600   19.9996 C   0  0  0  0  0  0  0  0  0  0  0  0
    5.9860  -18.0446   18.7339 N   0  0  0  0  0  0  0  0  0  0  0  0
    7.2070  -18.0391   18.1664 C   0  0  0  0  0  0  0  0  0  0  0  0
    8.0992  -17.6468   19.0874 N   0  0  0  0  0  0  0  0  0  0  0  0
    8.2417  -15.0418   23.0747 C   0  0  0  0  0  0  0  0  0  0  0  0
    9.4960  -15.1482   23.3520 O   0  0  0  0  0  0  0  0  0  0  0  0
    7.6001  -12.8064   27.4502 C   0  0  0  0  0  0  0  0  0  0  0  0
    7.0299  -13.2414   26.1367 C   0  0  1  0  0  0  0  0  0  0  0  0
    6.9960  -11.9936   25.2411 C   0  0  0  0  0  0  0  0  0  0  0  0
    7.9684  -14.2006   25.4258 C   0  0  2  0  0  0  0  0  0  0  0  0
    7.4397  -14.5260   24.1174 N   0  0  0  0  0  0  0  0  0  0  0  0
    8.2092  -15.4077   26.2444 C   0  0  0  0  0  0  0  0  0  0  0  0
    7.2751  -16.1460   26.6632 O   0  0  0  0  0  0  0  0  0  0  0  0
   10.1211  -18.5162   25.3335 C   0  0  0  0  0  0  0  0  0  0  0  0
   10.7154  -17.9644   26.5783 C   0  0  1  0  0  0  0  0  0  0  0  0
   11.8910  -17.2794   26.3006 O   0  0  0  0  0  0  0  0  0  0  0  0
    9.8118  -17.0314   27.3562 C   0  0  2  0  0  0  0  0  0  0  0  0
    9.5149  -15.8254   26.6185 N   0  0  0  0  0  0  0  0  0  0  0  0
   10.4167  -16.6735   28.6456 C   0  0  0  0  0  0  0  0  0  0  0  0
   10.6358  -17.6332   29.6289 O   0  0  0  0  0  0  0  0  0  0  0  0
   10.7500  -15.4960   28.8879 O   0  0  0  0  0  0  0  0  0  0  0  0
  2  3  1  0
  2  1  1  6
  4  3  1  0
  4  8  1  0
  5  6  1  0
  5  4  2  0
  6  7  1  0
  7  8  2  0
  9  2  1  0
 10  9  2  0
 12 11  1  1
 12 14  1  0
 13 12  1  0
 14 16  1  0
 14 15  1  6
 15  9  1  0
 16 22  1  0
 17 16  2  0
 19 20  1  0
 19 18  1  6
 21 19  1  0
 21 23  1  0
 21 22  1  6
 23 25  2  0
 23 24  1  0
M  END
$$$$
