HVT.pdb
     RDKit          3D

 25 25  0  0  1  0  0  0  0  0999 V2000
    8.8619  -14.5765   20.8580 N   0  0  0  0  0  0  0  0  0  0  0  0
    7.9911  -15.0727   21.9142 C   0  0  1  0  0  0  0  0  0  0  0  0
    7.9159  -16.5992   21.7455 C   0  0  0  0  0  0  0  0  0  0  0  0
    7.2968  -16.9631   20.4496 C   0  0  0  0  0  0  0  0  0  0  0  0
    5.9433  -17.2578   20.2656 C   0  0  0  0  0  0  0  0  0  0  0  0
    5.7740  -17.5384   18.9789 N   0  0  0  0  0  0  0  0  0  0  0  0
    6.9610  -17.4325   18.3521 C   0  0  0  0  0  0  0  0  0  0  0  0
    7.8866  -17.0817   19.2567 N   0  0  0  0  0  0  0  0  0  0  0  0
    8.5068  -14.7279   23.2449 C   0  0  0  0  0  0  0  0  0  0  0  0
    9.7599  -14.8999   23.4932 O   0  0  0  0  0  0  0  0  0  0  0  0
    7.3665  -11.7219   25.6840 C   0  0  0  0  0  0  0  0  0  0  0  0
    7.4548  -13.0234   26.4173 C   0  0  1  0  0  0  0  0  0  0  0  0
    6.0392  -13.6205   26.4184 C   0  0  0  0  0  0  0  0  0  0  0  0
    8.2957  -14.0269   25.6479 C   0  0  2  0  0  0  0  0  0  0  0  0
    7.7493  -14.2097   24.3192 N   0  0  0  0  0  0  0  0  0  0  0  0
    8.4019  -15.3032   26.3861 C   0  0  0  0  0  0  0  0  0  0  0  0
    7.4004  -16.0249   26.6492 O   0  0  0  0  0  0  0  0  0  0  0  0
   10.0868  -18.4244   25.3622 C   0  0  0  0  0  0  0  0  0  0  0  0
   10.6738  -18.0302   26.6688 C   0  0  1  0  0  0  0  0  0  0  0  0
   11.9108  -17.4250   26.4900 O   0  0  0  0  0  0  0  0  0  0  0  0
    9.8182  -17.0935   27.4949 C   0  0  2  0  0  0  0  0  0  0  0  0
    9.6441  -15.8113   26.8528 N   0  0  0  0  0  0  0  0  0  0  0  0
   10.4013  -16.8923   28.8275 C   0  0  0  0  0  0  0  0  0  0  0  0
   10.5762  -17.9579   29.7050 O   0  0  0  0  0  0  0  0  0  0  0  0
   10.7554  -15.7566   29.2031 O   0  0  0  0  0  0  0  0  0  0  0  0
  2  3  1  0
  2  1  1  6
  4  3  1  0
  4  8  1  0
  5  6  1  0
  5  4  2  0
  6  7  1  0
  7  8  2  0
  9  2  1  0
 10  9  2  0
 12 11  1  6
 12 14  1  0
 13 12  1  0
 14 16  1  0
 14 15  1  6
 15  9  1  0
 16 22  1  0
 17 16  2  0
 19 20  1  0
 19 18  1  6
 21 19  1  0
 21 23  1  0
 21 22  1  6
 23 25  2  0
 23 24  1  0
M  END
$$$$
