HVT.pdb
     RDKit          3D

 25 25  0  0  1  0  0  0  0  0999 V2000
   11.3047  -15.7213   19.0846 N   0  0  0  0  0  0  0  0  0  0  0  0
   11.0973  -16.5761   20.2449 C   0  0  1  0  0  0  0  0  0  0  0  0
   12.4564  -17.2168   20.5716 C   0  0  0  0  0  0  0  0  0  0  0  0
   12.8503  -18.1935   19.5297 C   0  0  0  0  0  0  0  0  0  0  0  0
   12.1256  -19.3404   19.1948 C   0  0  0  0  0  0  0  0  0  0  0  0
   12.7939  -19.9588   18.2283 N   0  0  0  0  0  0  0  0  0  0  0  0
   13.9030  -19.2497   17.9456 C   0  0  0  0  0  0  0  0  0  0  0  0
   13.9314  -18.1733   18.7449 N   0  0  0  0  0  0  0  0  0  0  0  0
   10.5998  -15.8121   21.3957 C   0  0  0  0  0  0  0  0  0  0  0  0
   11.2216  -14.7399   21.7497 O   0  0  0  0  0  0  0  0  0  0  0  0
    7.0990  -14.5642   21.9411 C   0  0  0  0  0  0  0  0  0  0  0  0
    7.5277  -15.1509   23.2493 C   0  0  1  0  0  0  0  0  0  0  0  0
    6.9665  -16.5805   23.2912 C   0  0  0  0  0  0  0  0  0  0  0  0
    9.0352  -15.3270   23.3001 C   0  0  2  0  0  0  0  0  0  0  0  0
    9.4730  -16.1384   22.1833 N   0  0  0  0  0  0  0  0  0  0  0  0
    9.4572  -15.8936   24.5986 C   0  0  0  0  0  0  0  0  0  0  0  0
    9.8365  -17.0901   24.7302 O   0  0  0  0  0  0  0  0  0  0  0  0
   10.9205  -13.3864   27.7587 C   0  0  0  0  0  0  0  0  0  0  0  0
   10.0056  -14.5041   28.1063 C   0  0  1  0  0  0  0  0  0  0  0  0
    8.7152  -14.0364   28.3169 O   0  0  0  0  0  0  0  0  0  0  0  0
    9.9316  -15.6105   27.0756 C   0  0  2  0  0  0  0  0  0  0  0  0
    9.4673  -15.1279   25.7956 N   0  0  0  0  0  0  0  0  0  0  0  0
    9.0506  -16.6925   27.5334 C   0  0  0  0  0  0  0  0  0  0  0  0
    9.3991  -17.4954   28.6150 O   0  0  0  0  0  0  0  0  0  0  0  0
    7.9650  -16.9154   26.9608 O   0  0  0  0  0  0  0  0  0  0  0  0
  2  3  1  0
  2  1  1  6
  4  3  1  0
  4  8  1  0
  5  6  1  0
  5  4  2  0
  6  7  1  0
  7  8  2  0
  9  2  1  0
 10  9  2  0
 12 11  1  6
 12 14  1  0
 13 12  1  0
 14 16  1  0
 14 15  1  6
 15  9  1  0
 16 22  1  0
 17 16  2  0
 19 20  1  0
 19 18  1  6
 21 19  1  0
 21 23  1  0
 21 22  1  6
 23 25  2  0
 23 24  1  0
M  END
$$$$
