HVT.pdb
     RDKit          3D

 25 25  0  0  1  0  0  0  0  0999 V2000
    9.7608  -17.4734   16.8393 N   0  0  0  0  0  0  0  0  0  0  0  0
    8.6779  -17.4313   17.8117 C   0  0  1  0  0  0  0  0  0  0  0  0
    8.4270  -18.8811   18.2581 C   0  0  0  0  0  0  0  0  0  0  0  0
    7.7842  -19.6679   17.1798 C   0  0  0  0  0  0  0  0  0  0  0  0
    6.4047  -19.7896   16.9932 C   0  0  0  0  0  0  0  0  0  0  0  0
    6.2190  -20.5716   15.9363 N   0  0  0  0  0  0  0  0  0  0  0  0
    7.4204  -20.9436   15.4556 C   0  0  0  0  0  0  0  0  0  0  0  0
    8.3717  -20.3887   16.2205 N   0  0  0  0  0  0  0  0  0  0  0  0
    9.0214  -16.5908   18.9655 C   0  0  0  0  0  0  0  0  0  0  0  0
   10.1906  -16.7056   19.4960 O   0  0  0  0  0  0  0  0  0  0  0  0
    7.9878  -12.9295   22.1723 C   0  0  0  0  0  0  0  0  0  0  0  0
    7.5926  -13.7432   20.9801 C   0  0  1  0  0  0  0  0  0  0  0  0
    7.7698  -12.8349   19.7537 C   0  0  0  0  0  0  0  0  0  0  0  0
    8.5643  -14.8884   20.7552 C   0  0  2  0  0  0  0  0  0  0  0  0
    8.1776  -15.6367   19.5771 N   0  0  0  0  0  0  0  0  0  0  0  0
    8.6550  -15.7473   21.9548 C   0  0  0  0  0  0  0  0  0  0  0  0
    7.6418  -16.2616   22.5043 O   0  0  0  0  0  0  0  0  0  0  0  0
   10.2284  -19.0963   22.3215 C   0  0  0  0  0  0  0  0  0  0  0  0
   10.8741  -18.1864   23.3025 C   0  0  1  0  0  0  0  0  0  0  0  0
   12.0970  -17.7349   22.8239 O   0  0  0  0  0  0  0  0  0  0  0  0
   10.0523  -16.9732   23.6827 C   0  0  2  0  0  0  0  0  0  0  0  0
    9.8945  -16.0578   22.5764 N   0  0  0  0  0  0  0  0  0  0  0  0
   10.6616  -16.2638   24.8149 C   0  0  0  0  0  0  0  0  0  0  0  0
   10.7025  -16.8337   26.0835 O   0  0  0  0  0  0  0  0  0  0  0  0
   11.1593  -15.1300   24.6628 O   0  0  0  0  0  0  0  0  0  0  0  0
  2  3  1  0
  2  1  1  6
  4  3  1  0
  4  8  1  0
  5  6  1  0
  5  4  2  0
  6  7  1  0
  7  8  2  0
  9  2  1  0
 10  9  2  0
 12 11  1  1
 12 14  1  0
 13 12  1  0
 14 16  1  0
 14 15  1  6
 15  9  1  0
 16 22  1  0
 17 16  2  0
 19 20  1  0
 19 18  1  6
 21 19  1  0
 21 23  1  0
 21 22  1  6
 23 25  2  0
 23 24  1  0
M  END
$$$$
