HVT.pdb
     RDKit          3D

 25 25  0  0  1  0  0  0  0  0999 V2000
   11.1047  -16.0311   15.3045 N   0  0  0  0  0  0  0  0  0  0  0  0
    9.8002  -15.9462   15.9455 C   0  0  1  0  0  0  0  0  0  0  0  0
    9.1989  -17.3611   15.9152 C   0  0  0  0  0  0  0  0  0  0  0  0
    8.1828  -17.4863   14.8444 C   0  0  0  0  0  0  0  0  0  0  0  0
    8.2721  -16.8888   13.5844 C   0  0  0  0  0  0  0  0  0  0  0  0
    7.1780  -17.2259   12.9116 N   0  0  0  0  0  0  0  0  0  0  0  0
    6.4102  -18.0063   13.6954 C   0  0  0  0  0  0  0  0  0  0  0  0
    7.0296  -18.1604   14.8747 N   0  0  0  0  0  0  0  0  0  0  0  0
    9.9089  -15.4638   17.3279 C   0  0  0  0  0  0  0  0  0  0  0  0
   10.8727  -15.8963   18.0666 O   0  0  0  0  0  0  0  0  0  0  0  0
    6.7936  -13.6695   19.6922 C   0  0  0  0  0  0  0  0  0  0  0  0
    8.1647  -13.0699   19.6760 C   0  0  1  0  0  0  0  0  0  0  0  0
    8.4819  -12.6670   21.1242 C   0  0  0  0  0  0  0  0  0  0  0  0
    9.2119  -14.1133   19.3281 C   0  0  2  0  0  0  0  0  0  0  0  0
    9.0394  -14.5442   17.9563 N   0  0  0  0  0  0  0  0  0  0  0  0
    9.1647  -15.2457   20.2770 C   0  0  0  0  0  0  0  0  0  0  0  0
    8.2060  -16.0656   20.3142 O   0  0  0  0  0  0  0  0  0  0  0  0
   12.7454  -16.8688   21.9047 C   0  0  0  0  0  0  0  0  0  0  0  0
   11.4170  -17.5307   21.8412 C   0  0  1  0  0  0  0  0  0  0  0  0
   11.3524  -18.5912   22.7353 O   0  0  0  0  0  0  0  0  0  0  0  0
   10.2386  -16.6218   22.1193 C   0  0  2  0  0  0  0  0  0  0  0  0
   10.2004  -15.4937   21.2179 N   0  0  0  0  0  0  0  0  0  0  0  0
   10.2707  -16.1341   23.5040 C   0  0  0  0  0  0  0  0  0  0  0  0
   10.2343  -17.0167   24.5790 O   0  0  0  0  0  0  0  0  0  0  0  0
   10.3331  -14.9122   23.7477 O   0  0  0  0  0  0  0  0  0  0  0  0
  2  3  1  0
  2  1  1  1
  4  3  1  0
  4  8  1  0
  5  6  1  0
  5  4  2  0
  6  7  1  0
  7  8  2  0
  9  2  1  0
 10  9  2  0
 12 11  1  1
 12 14  1  0
 13 12  1  0
 14 16  1  0
 14 15  1  6
 15  9  1  0
 16 22  1  0
 17 16  2  0
 19 20  1  0
 19 18  1  1
 21 19  1  0
 21 23  1  0
 21 22  1  6
 23 25  2  0
 23 24  1  0
M  END
$$$$
