WWA.pdb
     RDKit          3D

 34 37  0  0  1  0  0  0  0  0999 V2000
   29.0649  -20.9661  -14.6220 N   0  0  0  0  0  0  0  0  0  0  0  0
   28.2042  -20.2217  -13.7576 C   0  0  1  0  0  0  0  0  0  0  0  0
   27.2172  -19.3502  -14.4360 C   0  0  0  0  0  0  0  0  0  0  0  0
   27.7888  -18.3342  -15.3111 C   0  0  0  0  0  0  0  0  0  0  0  0
   28.6717  -18.4866  -16.3541 C   0  0  0  0  0  0  0  0  0  0  0  0
   28.9525  -17.2816  -16.8946 N   0  0  0  0  0  0  0  0  0  0  0  0
   28.2738  -16.3534  -16.2275 C   0  0  0  0  0  0  0  0  0  0  0  0
   28.2343  -14.9867  -16.4021 C   0  0  0  0  0  0  0  0  0  0  0  0
   27.4412  -14.2227  -15.5649 C   0  0  0  0  0  0  0  0  0  0  0  0
   26.6926  -14.8085  -14.5625 C   0  0  0  0  0  0  0  0  0  0  0  0
   26.7606  -16.1837  -14.4211 C   0  0  0  0  0  0  0  0  0  0  0  0
   27.5400  -16.9786  -15.2359 C   0  0  0  0  0  0  0  0  0  0  0  0
   27.5537  -21.1611  -12.8118 C   0  0  0  0  0  0  0  0  0  0  0  0
   27.2012  -22.3141  -13.2053 O   0  0  0  0  0  0  0  0  0  0  0  0
   27.2852  -20.8591  -11.4557 N   0  0  0  0  0  0  0  0  0  0  0  0
   26.2789  -21.5510  -10.7035 C   0  0  1  0  0  0  0  0  0  0  0  0
   26.6514  -21.8447   -9.2950 C   0  0  0  0  0  0  0  0  0  0  0  0
   26.8839  -20.6803   -8.4256 C   0  0  0  0  0  0  0  0  0  0  0  0
   26.4462  -19.3769   -8.6874 C   0  0  0  0  0  0  0  0  0  0  0  0
   26.8508  -18.5673   -7.6935 N   0  0  0  0  0  0  0  0  0  0  0  0
   27.5432  -19.2856   -6.7766 C   0  0  0  0  0  0  0  0  0  0  0  0
   28.1595  -18.9870   -5.5927 C   0  0  0  0  0  0  0  0  0  0  0  0
   28.7835  -19.9756   -4.8744 C   0  0  0  0  0  0  0  0  0  0  0  0
   28.8139  -21.2676   -5.3025 C   0  0  0  0  0  0  0  0  0  0  0  0
   28.2011  -21.5720   -6.4838 C   0  0  0  0  0  0  0  0  0  0  0  0
   27.5605  -20.5849   -7.2319 C   0  0  0  0  0  0  0  0  0  0  0  0
   24.9512  -20.8610  -10.8077 C   0  0  0  0  0  0  0  0  0  0  0  0
   24.8342  -19.6222  -10.6203 O   0  0  0  0  0  0  0  0  0  0  0  0
   21.9310  -21.1059  -12.6440 C   0  0  0  0  0  0  0  0  0  0  0  0
   22.4841  -20.9355  -11.2325 C   0  0  2  0  0  0  0  0  0  0  0  0
   23.7667  -21.5845  -11.1253 N   0  0  0  0  0  0  0  0  0  0  0  0
   21.5117  -21.4089  -10.2456 C   0  0  0  0  0  0  0  0  0  0  0  0
   21.7501  -22.4278   -9.5525 O   0  0  0  0  0  0  0  0  0  0  0  0
   20.3056  -20.7598  -10.0389 O   0  0  0  0  0  0  0  0  0  0  0  0
  2  3  1  0
  2  1  1  6
  3  4  1  0
  4  5  2  0
  6  5  1  0
  7  6  1  0
  8  7  2  0
  9  8  1  0
 10  9  2  0
 10 11  1  0
 11 12  2  0
 12  7  1  0
 12  4  1  0
 13 15  1  0
 13  2  1  0
 14 13  2  0
 16 17  1  1
 16 15  1  0
 17 18  1  0
 18 19  2  0
 19 20  1  0
 21 20  1  0
 22 21  2  0
 23 22  1  0
 24 25  1  0
 24 23  2  0
 25 26  2  0
 26 18  1  0
 26 21  1  0
 27 16  1  0
 28 27  2  0
 30 29  1  6
 30 31  1  0
 31 27  1  0
 32 30  1  0
 32 34  1  0
 33 32  2  0
M  END
$$$$
