WWA.pdb
     RDKit          3D

 34 37  0  0  1  0  0  0  0  0999 V2000
   23.8953  -18.0544  -15.9024 N   0  0  0  0  0  0  0  0  0  0  0  0
   23.4334  -19.3377  -16.3292 C   0  0  1  0  0  0  0  0  0  0  0  0
   23.2232  -19.4876  -17.7876 C   0  0  0  0  0  0  0  0  0  0  0  0
   22.3033  -18.5252  -18.3813 C   0  0  0  0  0  0  0  0  0  0  0  0
   22.5627  -17.5247  -19.2880 C   0  0  0  0  0  0  0  0  0  0  0  0
   21.4240  -16.8557  -19.5683 N   0  0  0  0  0  0  0  0  0  0  0  0
   20.4343  -17.3981  -18.8657 C   0  0  0  0  0  0  0  0  0  0  0  0
   19.0982  -17.0632  -18.8112 C   0  0  0  0  0  0  0  0  0  0  0  0
   18.2547  -17.7875  -17.9881 C   0  0  0  0  0  0  0  0  0  0  0  0
   18.7314  -18.8358  -17.2250 C   0  0  0  0  0  0  0  0  0  0  0  0
   20.0792  -19.1391  -17.3088 C   0  0  0  0  0  0  0  0  0  0  0  0
   20.9512  -18.4400  -18.1174 C   0  0  0  0  0  0  0  0  0  0  0  0
   24.3497  -20.3740  -15.7936 C   0  0  0  0  0  0  0  0  0  0  0  0
   25.5867  -20.1234  -15.6694 O   0  0  0  0  0  0  0  0  0  0  0  0
   23.9356  -21.6677  -15.3973 N   0  0  0  0  0  0  0  0  0  0  0  0
   24.8585  -22.6464  -14.8997 C   0  0  1  0  0  0  0  0  0  0  0  0
   24.4926  -23.2286  -13.5820 C   0  0  0  0  0  0  0  0  0  0  0  0
   24.4826  -22.3012  -12.4394 C   0  0  0  0  0  0  0  0  0  0  0  0
   25.6203  -21.7876  -11.8062 C   0  0  0  0  0  0  0  0  0  0  0  0
   25.2397  -20.9904  -10.7930 N   0  0  0  0  0  0  0  0  0  0  0  0
   23.8867  -20.9535  -10.7283 C   0  0  0  0  0  0  0  0  0  0  0  0
   22.9835  -20.3153   -9.9238 C   0  0  0  0  0  0  0  0  0  0  0  0
   21.6379  -20.4832  -10.1333 C   0  0  0  0  0  0  0  0  0  0  0  0
   21.1572  -21.2758  -11.1303 C   0  0  0  0  0  0  0  0  0  0  0  0
   22.0537  -21.9162  -11.9364 C   0  0  0  0  0  0  0  0  0  0  0  0
   23.4261  -21.7617  -11.7434 C   0  0  0  0  0  0  0  0  0  0  0  0
   25.1400  -23.7013  -15.9281 C   0  0  0  0  0  0  0  0  0  0  0  0
   24.2344  -24.1523  -16.6765 O   0  0  0  0  0  0  0  0  0  0  0  0
   28.1741  -25.7622  -16.8709 C   0  0  0  0  0  0  0  0  0  0  0  0
   26.7076  -25.3534  -16.9700 C   0  0  2  0  0  0  0  0  0  0  0  0
   26.4491  -24.2346  -16.0988 N   0  0  0  0  0  0  0  0  0  0  0  0
   25.8410  -26.5039  -16.7071 C   0  0  0  0  0  0  0  0  0  0  0  0
   25.4296  -27.2219  -17.6508 O   0  0  0  0  0  0  0  0  0  0  0  0
   25.4458  -26.8425  -15.4234 O   0  0  0  0  0  0  0  0  0  0  0  0
  2  3  1  0
  2  1  1  6
  3  4  1  0
  4  5  2  0
  6  5  1  0
  7  6  1  0
  8  7  2  0
  9  8  1  0
 10  9  2  0
 10 11  1  0
 11 12  2  0
 12  7  1  0
 12  4  1  0
 13 15  1  0
 13  2  1  0
 14 13  2  0
 16 17  1  1
 16 15  1  0
 17 18  1  0
 18 19  2  0
 19 20  1  0
 21 20  1  0
 22 21  2  0
 23 22  1  0
 24 25  1  0
 24 23  2  0
 25 26  2  0
 26 18  1  0
 26 21  1  0
 27 16  1  0
 28 27  2  0
 30 29  1  1
 30 31  1  0
 31 27  1  0
 32 30  1  0
 32 34  1  0
 33 32  2  0
M  END
$$$$
