WWA.pdb
     RDKit          3D

 34 37  0  0  1  0  0  0  0  0999 V2000
   28.9550  -20.6962  -15.3957 N   0  0  0  0  0  0  0  0  0  0  0  0
   27.8647  -20.0747  -14.7121 C   0  0  1  0  0  0  0  0  0  0  0  0
   26.9351  -19.2994  -15.5655 C   0  0  0  0  0  0  0  0  0  0  0  0
   27.5286  -18.1530  -16.2425 C   0  0  0  0  0  0  0  0  0  0  0  0
   28.0261  -18.0642  -17.5212 C   0  0  0  0  0  0  0  0  0  0  0  0
   28.4937  -16.8173  -17.7439 N   0  0  0  0  0  0  0  0  0  0  0  0
   28.3114  -16.0971  -16.6415 C   0  0  0  0  0  0  0  0  0  0  0  0
   28.6261  -14.7808  -16.3800 C   0  0  0  0  0  0  0  0  0  0  0  0
   28.3351  -14.2526  -15.1351 C   0  0  0  0  0  0  0  0  0  0  0  0
   27.7365  -15.0226  -14.1568 C   0  0  0  0  0  0  0  0  0  0  0  0
   27.4370  -16.3394  -14.4602 C   0  0  0  0  0  0  0  0  0  0  0  0
   27.7122  -16.9017  -15.6895 C   0  0  0  0  0  0  0  0  0  0  0  0
   27.1546  -21.1054  -13.9160 C   0  0  0  0  0  0  0  0  0  0  0  0
   26.8561  -22.2195  -14.4434 O   0  0  0  0  0  0  0  0  0  0  0  0
   26.7693  -20.9351  -12.5651 N   0  0  0  0  0  0  0  0  0  0  0  0
   25.8034  -21.7863  -11.9329 C   0  0  1  0  0  0  0  0  0  0  0  0
   26.1193  -22.1421  -10.5249 C   0  0  0  0  0  0  0  0  0  0  0  0
   26.1587  -21.0282   -9.5639 C   0  0  0  0  0  0  0  0  0  0  0  0
   25.1742  -20.0424   -9.4296 C   0  0  0  0  0  0  0  0  0  0  0  0
   25.5451  -19.1756   -8.4715 N   0  0  0  0  0  0  0  0  0  0  0  0
   26.7435  -19.5491   -7.9610 C   0  0  0  0  0  0  0  0  0  0  0  0
   27.5653  -19.0543   -6.9862 C   0  0  0  0  0  0  0  0  0  0  0  0
   28.7435  -19.6928   -6.6913 C   0  0  0  0  0  0  0  0  0  0  0  0
   29.1341  -20.8218   -7.3440 C   0  0  0  0  0  0  0  0  0  0  0  0
   28.3185  -21.3204   -8.3186 C   0  0  0  0  0  0  0  0  0  0  0  0
   27.1163  -20.6894   -8.6365 C   0  0  0  0  0  0  0  0  0  0  0  0
   24.4151  -21.2386  -12.0823 C   0  0  0  0  0  0  0  0  0  0  0  0
   24.1666  -20.0158  -11.9200 O   0  0  0  0  0  0  0  0  0  0  0  0
   21.3592  -22.1993  -13.8473 C   0  0  0  0  0  0  0  0  0  0  0  0
   21.9889  -21.5671  -12.6098 C   0  0  2  0  0  0  0  0  0  0  0  0
   23.3200  -22.0851  -12.4164 N   0  0  0  0  0  0  0  0  0  0  0  0
   21.1202  -21.7543  -11.4463 C   0  0  0  0  0  0  0  0  0  0  0  0
   21.5007  -22.4456  -10.4702 O   0  0  0  0  0  0  0  0  0  0  0  0
   19.8602  -21.1831  -11.3759 O   0  0  0  0  0  0  0  0  0  0  0  0
  2  3  1  0
  2  1  1  6
  3  4  1  0
  4  5  2  0
  6  5  1  0
  7  6  1  0
  8  7  2  0
  9  8  1  0
 10  9  2  0
 10 11  1  0
 11 12  2  0
 12  7  1  0
 12  4  1  0
 13 15  1  0
 13  2  1  0
 14 13  2  0
 16 17  1  1
 16 15  1  0
 17 18  1  0
 18 19  2  0
 19 20  1  0
 21 20  1  0
 22 21  2  0
 23 22  1  0
 24 25  1  0
 24 23  2  0
 25 26  2  0
 26 18  1  0
 26 21  1  0
 27 16  1  0
 28 27  2  0
 30 29  1  6
 30 31  1  0
 31 27  1  0
 32 30  1  0
 32 34  1  0
 33 32  2  0
M  END
$$$$
