WWA.pdb
     RDKit          3D

 34 37  0  0  1  0  0  0  0  0999 V2000
   26.6975  -21.2032  -13.3135 N   0  0  0  0  0  0  0  0  0  0  0  0
   25.6694  -20.8755  -12.3766 C   0  0  1  0  0  0  0  0  0  0  0  0
   24.4130  -21.6481  -12.5117 C   0  0  0  0  0  0  0  0  0  0  0  0
   23.7407  -21.5143  -13.7982 C   0  0  0  0  0  0  0  0  0  0  0  0
   23.7175  -22.3893  -14.8586 C   0  0  0  0  0  0  0  0  0  0  0  0
   22.9810  -21.8695  -15.8637 N   0  0  0  0  0  0  0  0  0  0  0  0
   22.5274  -20.6801  -15.4806 C   0  0  0  0  0  0  0  0  0  0  0  0
   21.7407  -19.7715  -16.1556 C   0  0  0  0  0  0  0  0  0  0  0  0
   21.3997  -18.5830  -15.5352 C   0  0  0  0  0  0  0  0  0  0  0  0
   21.8347  -18.2971  -14.2556 C   0  0  0  0  0  0  0  0  0  0  0  0
   22.6226  -19.2362  -13.6131 C   0  0  0  0  0  0  0  0  0  0  0  0
   22.9837  -20.4319  -14.1988 C   0  0  0  0  0  0  0  0  0  0  0  0
   26.2296  -20.9669  -11.0062 C   0  0  0  0  0  0  0  0  0  0  0  0
   26.8993  -21.9874  -10.6619 O   0  0  0  0  0  0  0  0  0  0  0  0
   26.0678  -19.9680  -10.0171 N   0  0  0  0  0  0  0  0  0  0  0  0
   26.5920  -20.1146   -8.6901 C   0  0  1  0  0  0  0  0  0  0  0  0
   27.2258  -18.8898   -8.1360 C   0  0  0  0  0  0  0  0  0  0  0  0
   27.7566  -18.9924   -6.7673 C   0  0  0  0  0  0  0  0  0  0  0  0
   27.2737  -18.2871   -5.6589 C   0  0  0  0  0  0  0  0  0  0  0  0
   28.0038  -18.6103   -4.5775 N   0  0  0  0  0  0  0  0  0  0  0  0
   28.9576  -19.5077   -4.9257 C   0  0  0  0  0  0  0  0  0  0  0  0
   29.9445  -20.1680   -4.2473 C   0  0  0  0  0  0  0  0  0  0  0  0
   30.7627  -21.0484   -4.9092 C   0  0  0  0  0  0  0  0  0  0  0  0
   30.6278  -21.2953   -6.2412 C   0  0  0  0  0  0  0  0  0  0  0  0
   29.6448  -20.6389   -6.9243 C   0  0  0  0  0  0  0  0  0  0  0  0
   28.8009  -19.7392   -6.2739 C   0  0  0  0  0  0  0  0  0  0  0  0
   25.5665  -20.6932   -7.7610 C   0  0  0  0  0  0  0  0  0  0  0  0
   24.4044  -20.2172   -7.6810 O   0  0  0  0  0  0  0  0  0  0  0  0
   25.4320  -23.6575   -5.4145 C   0  0  0  0  0  0  0  0  0  0  0  0
   24.9092  -22.3500   -6.0015 C   0  0  2  0  0  0  0  0  0  0  0  0
   25.8696  -21.8096   -6.9306 N   0  0  0  0  0  0  0  0  0  0  0  0
   24.5536  -21.4185   -4.9294 C   0  0  0  0  0  0  0  0  0  0  0  0
   25.3282  -20.4828   -4.6137 O   0  0  0  0  0  0  0  0  0  0  0  0
   23.3633  -21.5302   -4.2296 O   0  0  0  0  0  0  0  0  0  0  0  0
  2  3  1  0
  2  1  1  6
  3  4  1  0
  4  5  2  0
  6  5  1  0
  7  6  1  0
  8  7  2  0
  9  8  1  0
 10  9  2  0
 10 11  1  0
 11 12  2  0
 12  7  1  0
 12  4  1  0
 13 15  1  0
 13  2  1  0
 14 13  2  0
 16 17  1  1
 16 15  1  0
 17 18  1  0
 18 19  2  0
 19 20  1  0
 21 20  1  0
 22 21  2  0
 23 22  1  0
 24 25  1  0
 24 23  2  0
 25 26  2  0
 26 18  1  0
 26 21  1  0
 27 16  1  0
 28 27  2  0
 30 29  1  1
 30 31  1  0
 31 27  1  0
 32 30  1  0
 32 34  1  0
 33 32  2  0
M  END
$$$$
