WWA.pdb
     RDKit          3D

 34 37  0  0  1  0  0  0  0  0999 V2000
   25.0403  -19.2185  -10.3350 N   0  0  0  0  0  0  0  0  0  0  0  0
   26.2263  -19.9811  -10.5678 C   0  0  1  0  0  0  0  0  0  0  0  0
   26.3764  -21.1973   -9.7359 C   0  0  0  0  0  0  0  0  0  0  0  0
   26.4436  -20.9588   -8.2994 C   0  0  0  0  0  0  0  0  0  0  0  0
   25.4168  -20.8107   -7.3970 C   0  0  0  0  0  0  0  0  0  0  0  0
   25.9207  -20.5948   -6.1632 N   0  0  0  0  0  0  0  0  0  0  0  0
   27.2476  -20.5993   -6.2445 C   0  0  0  0  0  0  0  0  0  0  0  0
   28.1969  -20.4200   -5.2613 C   0  0  0  0  0  0  0  0  0  0  0  0
   29.5369  -20.4661   -5.6016 C   0  0  0  0  0  0  0  0  0  0  0  0
   29.9333  -20.6885   -6.9061 C   0  0  0  0  0  0  0  0  0  0  0  0
   28.9484  -20.8635   -7.8627 C   0  0  0  0  0  0  0  0  0  0  0  0
   27.6026  -20.8239   -7.5621 C   0  0  0  0  0  0  0  0  0  0  0  0
   26.3165  -20.2879  -12.0163 C   0  0  0  0  0  0  0  0  0  0  0  0
   25.2590  -20.4670  -12.6933 O   0  0  0  0  0  0  0  0  0  0  0  0
   27.5349  -20.4014  -12.7266 N   0  0  0  0  0  0  0  0  0  0  0  0
   27.5973  -20.3088  -14.1565 C   0  0  1  0  0  0  0  0  0  0  0  0
   28.3600  -19.1404  -14.6686 C   0  0  0  0  0  0  0  0  0  0  0  0
   27.5846  -17.9152  -14.9206 C   0  0  0  0  0  0  0  0  0  0  0  0
   26.7468  -17.2848  -13.9934 C   0  0  0  0  0  0  0  0  0  0  0  0
   26.1853  -16.2066  -14.5674 N   0  0  0  0  0  0  0  0  0  0  0  0
   26.6199  -16.0953  -15.8460 C   0  0  0  0  0  0  0  0  0  0  0  0
   26.3900  -15.2089  -16.8618 C   0  0  0  0  0  0  0  0  0  0  0  0
   27.0136  -15.3747  -18.0727 C   0  0  0  0  0  0  0  0  0  0  0  0
   27.8692  -16.4074  -18.3072 C   0  0  0  0  0  0  0  0  0  0  0  0
   28.1025  -17.2959  -17.2974 C   0  0  0  0  0  0  0  0  0  0  0  0
   27.4805  -17.1489  -16.0580 C   0  0  0  0  0  0  0  0  0  0  0  0
   28.0591  -21.5994  -14.7656 C   0  0  0  0  0  0  0  0  0  0  0  0
   29.1543  -22.1278  -14.4418 O   0  0  0  0  0  0  0  0  0  0  0  0
   26.5803  -24.2382  -16.9993 C   0  0  0  0  0  0  0  0  0  0  0  0
   27.7541  -23.4532  -16.4217 C   0  0  2  0  0  0  0  0  0  0  0  0
   27.2717  -22.2800  -15.7372 N   0  0  0  0  0  0  0  0  0  0  0  0
   28.7285  -23.1510  -17.4718 C   0  0  0  0  0  0  0  0  0  0  0  0
   28.6517  -22.0823  -18.1255 O   0  0  0  0  0  0  0  0  0  0  0  0
   29.7616  -24.0202  -17.7819 O   0  0  0  0  0  0  0  0  0  0  0  0
  2  3  1  0
  2  1  1  6
  3  4  1  0
  4  5  2  0
  6  5  1  0
  7  6  1  0
  8  7  2  0
  9  8  1  0
 10  9  2  0
 10 11  1  0
 11 12  2  0
 12  7  1  0
 12  4  1  0
 13 15  1  0
 13  2  1  0
 14 13  2  0
 16 17  1  1
 16 15  1  0
 17 18  1  0
 18 19  2  0
 19 20  1  0
 21 20  1  0
 22 21  2  0
 23 22  1  0
 24 25  1  0
 24 23  2  0
 25 26  2  0
 26 18  1  0
 26 21  1  0
 27 16  1  0
 28 27  2  0
 30 29  1  6
 30 31  1  0
 31 27  1  0
 32 30  1  0
 32 34  1  0
 33 32  2  0
M  END
$$$$
