WWA.pdb
     RDKit          3D

 34 37  0  0  1  0  0  0  0  0999 V2000
   27.0998  -20.6287  -14.9550 N   0  0  0  0  0  0  0  0  0  0  0  0
   27.3154  -19.9271  -13.7288 C   0  0  1  0  0  0  0  0  0  0  0  0
   26.5053  -18.7011  -13.5442 C   0  0  0  0  0  0  0  0  0  0  0  0
   26.8011  -17.6191  -14.4752 C   0  0  0  0  0  0  0  0  0  0  0  0
   26.0973  -16.4614  -14.7097 C   0  0  0  0  0  0  0  0  0  0  0  0
   26.7177  -15.7351  -15.6639 N   0  0  0  0  0  0  0  0  0  0  0  0
   27.8050  -16.3937  -16.0529 C   0  0  0  0  0  0  0  0  0  0  0  0
   28.7521  -16.0620  -16.9979 C   0  0  0  0  0  0  0  0  0  0  0  0
   29.8064  -16.9274  -17.2283 C   0  0  0  0  0  0  0  0  0  0  0  0
   29.9216  -18.1122  -16.5275 C   0  0  0  0  0  0  0  0  0  0  0  0
   28.9494  -18.4074  -15.5876 C   0  0  0  0  0  0  0  0  0  0  0  0
   27.8836  -17.5702  -15.3303 C   0  0  0  0  0  0  0  0  0  0  0  0
   27.1447  -20.8770  -12.6024 C   0  0  0  0  0  0  0  0  0  0  0  0
   26.6732  -22.0350  -12.8155 O   0  0  0  0  0  0  0  0  0  0  0  0
   27.4781  -20.5801  -11.2597 N   0  0  0  0  0  0  0  0  0  0  0  0
   27.2226  -21.4983  -10.1879 C   0  0  1  0  0  0  0  0  0  0  0  0
   28.1837  -21.4131   -9.0574 C   0  0  0  0  0  0  0  0  0  0  0  0
   27.7868  -20.5583   -7.9271 C   0  0  0  0  0  0  0  0  0  0  0  0
   26.9297  -19.4550   -8.0110 C   0  0  0  0  0  0  0  0  0  0  0  0
   26.8045  -18.8994   -6.7934 N   0  0  0  0  0  0  0  0  0  0  0  0
   27.5483  -19.5944   -5.8990 C   0  0  0  0  0  0  0  0  0  0  0  0
   27.7800  -19.4847   -4.5556 C   0  0  0  0  0  0  0  0  0  0  0  0
   28.6024  -20.3837   -3.9245 C   0  0  0  0  0  0  0  0  0  0  0  0
   29.2087  -21.4006   -4.5965 C   0  0  0  0  0  0  0  0  0  0  0  0
   28.9819  -21.5151   -5.9379 C   0  0  0  0  0  0  0  0  0  0  0  0
   28.1504  -20.6138   -6.6017 C   0  0  0  0  0  0  0  0  0  0  0  0
   25.7971  -21.4157   -9.7287 C   0  0  0  0  0  0  0  0  0  0  0  0
   25.3745  -22.0992   -8.7604 O   0  0  0  0  0  0  0  0  0  0  0  0
   22.9598  -19.0630  -10.1400 C   0  0  0  0  0  0  0  0  0  0  0  0
   23.4838  -20.4845   -9.9611 C   0  0  2  0  0  0  0  0  0  0  0  0
   24.8632  -20.5556  -10.3732 N   0  0  0  0  0  0  0  0  0  0  0  0
   22.6203  -21.4360  -10.6629 C   0  0  0  0  0  0  0  0  0  0  0  0
   23.0427  -22.0624  -11.6652 O   0  0  0  0  0  0  0  0  0  0  0  0
   21.3195  -21.6810  -10.2543 O   0  0  0  0  0  0  0  0  0  0  0  0
  2  3  1  0
  2  1  1  6
  3  4  1  0
  4  5  2  0
  6  5  1  0
  7  6  1  0
  8  7  2  0
  9  8  1  0
 10  9  2  0
 10 11  1  0
 11 12  2  0
 12  7  1  0
 12  4  1  0
 13 15  1  0
 13  2  1  0
 14 13  2  0
 16 17  1  1
 16 15  1  0
 17 18  1  0
 18 19  2  0
 19 20  1  0
 21 20  1  0
 22 21  2  0
 23 22  1  0
 24 25  1  0
 24 23  2  0
 25 26  2  0
 26 18  1  0
 26 21  1  0
 27 16  1  0
 28 27  2  0
 30 29  1  6
 30 31  1  0
 31 27  1  0
 32 30  1  0
 32 34  1  0
 33 32  2  0
M  END
$$$$
