WWA.pdb
     RDKit          3D

 34 37  0  0  1  0  0  0  0  0999 V2000
   29.1891  -20.9879  -13.7370 N   0  0  0  0  0  0  0  0  0  0  0  0
   28.1505  -20.2517  -13.0877 C   0  0  1  0  0  0  0  0  0  0  0  0
   27.1586  -19.6190  -13.9874 C   0  0  0  0  0  0  0  0  0  0  0  0
   27.7056  -18.6416  -14.9203 C   0  0  0  0  0  0  0  0  0  0  0  0
   28.3089  -18.8498  -16.1382 C   0  0  0  0  0  0  0  0  0  0  0  0
   28.6801  -17.6667  -16.6723 N   0  0  0  0  0  0  0  0  0  0  0  0
   28.3325  -16.6982  -15.8306 C   0  0  0  0  0  0  0  0  0  0  0  0
   28.5012  -15.3338  -15.9303 C   0  0  0  0  0  0  0  0  0  0  0  0
   28.0500  -14.5220  -14.9051 C   0  0  0  0  0  0  0  0  0  0  0  0
   27.4359  -15.0581  -13.7898 C   0  0  0  0  0  0  0  0  0  0  0  0
   27.2862  -16.4327  -13.7291 C   0  0  0  0  0  0  0  0  0  0  0  0
   27.7234  -17.2745  -14.7308 C   0  0  0  0  0  0  0  0  0  0  0  0
   27.5036  -21.1298  -12.0824 C   0  0  0  0  0  0  0  0  0  0  0  0
   27.5698  -22.3904  -12.2056 O   0  0  0  0  0  0  0  0  0  0  0  0
   26.7916  -20.6528  -10.9565 N   0  0  0  0  0  0  0  0  0  0  0  0
   25.7378  -21.4078  -10.3427 C   0  0  1  0  0  0  0  0  0  0  0  0
   25.8044  -21.4707   -8.8593 C   0  0  0  0  0  0  0  0  0  0  0  0
   26.3921  -20.3034   -8.1828 C   0  0  0  0  0  0  0  0  0  0  0  0
   26.2448  -18.9734   -8.5931 C   0  0  0  0  0  0  0  0  0  0  0  0
   26.9294  -18.1747   -7.7562 N   0  0  0  0  0  0  0  0  0  0  0  0
   27.5285  -18.9259   -6.8007 C   0  0  0  0  0  0  0  0  0  0  0  0
   28.3189  -18.6480   -5.7197 C   0  0  0  0  0  0  0  0  0  0  0  0
   28.7680  -19.6661   -4.9170 C   0  0  0  0  0  0  0  0  0  0  0  0
   28.4514  -20.9678   -5.1592 C   0  0  0  0  0  0  0  0  0  0  0  0
   27.6632  -21.2519   -6.2371 C   0  0  0  0  0  0  0  0  0  0  0  0
   27.1946  -20.2346   -7.0678 C   0  0  0  0  0  0  0  0  0  0  0  0
   24.3922  -20.9613  -10.8323 C   0  0  0  0  0  0  0  0  0  0  0  0
   23.9158  -19.8386  -10.5221 O   0  0  0  0  0  0  0  0  0  0  0  0
   21.6817  -22.4887  -12.9935 C   0  0  0  0  0  0  0  0  0  0  0  0
   22.2737  -21.4112  -12.0901 C   0  0  2  0  0  0  0  0  0  0  0  0
   23.5990  -21.7939  -11.6719 N   0  0  0  0  0  0  0  0  0  0  0  0
   21.3710  -21.1345  -10.9712 C   0  0  0  0  0  0  0  0  0  0  0  0
   20.6042  -20.1413  -11.0002 O   0  0  0  0  0  0  0  0  0  0  0  0
   21.3266  -21.9471   -9.8502 O   0  0  0  0  0  0  0  0  0  0  0  0
  2  3  1  0
  2  1  1  6
  3  4  1  0
  4  5  2  0
  6  5  1  0
  7  6  1  0
  8  7  2  0
  9  8  1  0
 10  9  2  0
 10 11  1  0
 11 12  2  0
 12  7  1  0
 12  4  1  0
 13 15  1  0
 13  2  1  0
 14 13  2  0
 16 17  1  1
 16 15  1  0
 17 18  1  0
 18 19  2  0
 19 20  1  0
 21 20  1  0
 22 21  2  0
 23 22  1  0
 24 25  1  0
 24 23  2  0
 25 26  2  0
 26 18  1  0
 26 21  1  0
 27 16  1  0
 28 27  2  0
 30 29  1  1
 30 31  1  0
 31 27  1  0
 32 30  1  0
 32 34  1  0
 33 32  2  0
M  END
$$$$
