WWA.pdb
     RDKit          3D

 34 37  0  0  1  0  0  0  0  0999 V2000
   24.1070  -21.8208  -16.9155 N   0  0  0  0  0  0  0  0  0  0  0  0
   24.4591  -21.9108  -15.5334 C   0  0  1  0  0  0  0  0  0  0  0  0
   25.8838  -21.6547  -15.2200 C   0  0  0  0  0  0  0  0  0  0  0  0
   26.8385  -22.4010  -16.0303 C   0  0  0  0  0  0  0  0  0  0  0  0
   27.8583  -21.9285  -16.8223 C   0  0  0  0  0  0  0  0  0  0  0  0
   28.4977  -22.9628  -17.4090 N   0  0  0  0  0  0  0  0  0  0  0  0
   27.9171  -24.0927  -17.0169 C   0  0  0  0  0  0  0  0  0  0  0  0
   28.2080  -25.3995  -17.3449 C   0  0  0  0  0  0  0  0  0  0  0  0
   27.4448  -26.4170  -16.8011 C   0  0  0  0  0  0  0  0  0  0  0  0
   26.4015  -26.1418  -15.9385 C   0  0  0  0  0  0  0  0  0  0  0  0
   26.1427  -24.8164  -15.6352 C   0  0  0  0  0  0  0  0  0  0  0  0
   26.8810  -23.7748  -16.1577 C   0  0  0  0  0  0  0  0  0  0  0  0
   23.5551  -21.0291  -14.7551 C   0  0  0  0  0  0  0  0  0  0  0  0
   23.7434  -20.8674  -13.5114 O   0  0  0  0  0  0  0  0  0  0  0  0
   22.4584  -20.3303  -15.3128 N   0  0  0  0  0  0  0  0  0  0  0  0
   21.6520  -19.4312  -14.5392 C   0  0  1  0  0  0  0  0  0  0  0  0
   21.7917  -17.9989  -14.9104 C   0  0  0  0  0  0  0  0  0  0  0  0
   21.7675  -17.6929  -16.3497 C   0  0  0  0  0  0  0  0  0  0  0  0
   20.6161  -17.4247  -17.0991 C   0  0  0  0  0  0  0  0  0  0  0  0
   20.9631  -17.2078  -18.3795 N   0  0  0  0  0  0  0  0  0  0  0  0
   22.3070  -17.3215  -18.5108 C   0  0  0  0  0  0  0  0  0  0  0  0
   23.1811  -17.1967  -19.5552 C   0  0  0  0  0  0  0  0  0  0  0  0
   24.5268  -17.3675  -19.3491 C   0  0  0  0  0  0  0  0  0  0  0  0
   25.0361  -17.6622  -18.1214 C   0  0  0  0  0  0  0  0  0  0  0  0
   24.1687  -17.7887  -17.0748 C   0  0  0  0  0  0  0  0  0  0  0  0
   22.7968  -17.6199  -17.2591 C   0  0  0  0  0  0  0  0  0  0  0  0
   20.2190  -19.8732  -14.5107 C   0  0  0  0  0  0  0  0  0  0  0  0
   19.3577  -19.2770  -13.8133 O   0  0  0  0  0  0  0  0  0  0  0  0
   18.0001  -21.9004  -16.6624 C   0  0  0  0  0  0  0  0  0  0  0  0
   18.3991  -21.4164  -15.2718 C   0  0  2  0  0  0  0  0  0  0  0  0
   19.7756  -20.9889  -15.2762 N   0  0  0  0  0  0  0  0  0  0  0  0
   18.1173  -22.4502  -14.2741 C   0  0  0  0  0  0  0  0  0  0  0  0
   18.9445  -23.3684  -14.0551 O   0  0  0  0  0  0  0  0  0  0  0  0
   16.9422  -22.4566  -13.5406 O   0  0  0  0  0  0  0  0  0  0  0  0
  2  3  1  0
  2  1  1  6
  3  4  1  0
  4  5  2  0
  6  5  1  0
  7  6  1  0
  8  7  2  0
  9  8  1  0
 10  9  2  0
 10 11  1  0
 11 12  2  0
 12  7  1  0
 12  4  1  0
 13 15  1  0
 13  2  1  0
 14 13  2  0
 16 17  1  6
 16 15  1  0
 17 18  1  0
 18 19  2  0
 19 20  1  0
 21 20  1  0
 22 21  2  0
 23 22  1  0
 24 25  1  0
 24 23  2  0
 25 26  2  0
 26 18  1  0
 26 21  1  0
 27 16  1  0
 28 27  2  0
 30 29  1  6
 30 31  1  0
 31 27  1  0
 32 30  1  0
 32 34  1  0
 33 32  2  0
M  END
$$$$
