WWA.pdb
     RDKit          3D

 34 37  0  0  1  0  0  0  0  0999 V2000
   25.6896  -19.1451  -15.3951 N   0  0  0  0  0  0  0  0  0  0  0  0
   26.8782  -19.6431  -14.7775 C   0  0  1  0  0  0  0  0  0  0  0  0
   27.7784  -18.6156  -14.2051 C   0  0  0  0  0  0  0  0  0  0  0  0
   27.8512  -17.3695  -14.9580 C   0  0  0  0  0  0  0  0  0  0  0  0
   27.3057  -16.1434  -14.6585 C   0  0  0  0  0  0  0  0  0  0  0  0
   27.6067  -15.2592  -15.6334 N   0  0  0  0  0  0  0  0  0  0  0  0
   28.3330  -15.8822  -16.5562 C   0  0  0  0  0  0  0  0  0  0  0  0
   28.8706  -15.4054  -17.7325 C   0  0  0  0  0  0  0  0  0  0  0  0
   29.5967  -16.2637  -18.5385 C   0  0  0  0  0  0  0  0  0  0  0  0
   29.7889  -17.5844  -18.1816 C   0  0  0  0  0  0  0  0  0  0  0  0
   29.2323  -18.0228  -16.9927 C   0  0  0  0  0  0  0  0  0  0  0  0
   28.5019  -17.1973  -16.1630 C   0  0  0  0  0  0  0  0  0  0  0  0
   26.4981  -20.6661  -13.7730 C   0  0  0  0  0  0  0  0  0  0  0  0
   27.3954  -21.2560  -13.0981 O   0  0  0  0  0  0  0  0  0  0  0  0
   25.1637  -21.0497  -13.5003 N   0  0  0  0  0  0  0  0  0  0  0  0
   24.6743  -21.2148  -12.1623 C   0  0  1  0  0  0  0  0  0  0  0  0
   25.2871  -20.3022  -11.1620 C   0  0  0  0  0  0  0  0  0  0  0  0
   26.5429  -20.7591  -10.5455 C   0  0  0  0  0  0  0  0  0  0  0  0
   27.5364  -21.5028  -11.1928 C   0  0  0  0  0  0  0  0  0  0  0  0
   28.5308  -21.7601  -10.3257 N   0  0  0  0  0  0  0  0  0  0  0  0
   28.2357  -21.2131   -9.1216 C   0  0  0  0  0  0  0  0  0  0  0  0
   28.8733  -21.1572   -7.9130 C   0  0  0  0  0  0  0  0  0  0  0  0
   28.2940  -20.4945   -6.8604 C   0  0  0  0  0  0  0  0  0  0  0  0
   27.0854  -19.8783   -6.9743 C   0  0  0  0  0  0  0  0  0  0  0  0
   26.4434  -19.9311   -8.1780 C   0  0  0  0  0  0  0  0  0  0  0  0
   27.0117  -20.5985   -9.2625 C   0  0  0  0  0  0  0  0  0  0  0  0
   23.1754  -21.1764  -12.1226 C   0  0  0  0  0  0  0  0  0  0  0  0
   22.5463  -20.0980  -11.9656 O   0  0  0  0  0  0  0  0  0  0  0  0
   20.4016  -23.6947  -12.6228 C   0  0  0  0  0  0  0  0  0  0  0  0
   20.9651  -22.3535  -12.1635 C   0  0  2  0  0  0  0  0  0  0  0  0
   22.4030  -22.3643  -12.2631 N   0  0  0  0  0  0  0  0  0  0  0  0
   20.4804  -22.0326  -10.8198 C   0  0  0  0  0  0  0  0  0  0  0  0
   21.2431  -22.1244   -9.8272 O   0  0  0  0  0  0  0  0  0  0  0  0
   19.1779  -21.6194  -10.5923 O   0  0  0  0  0  0  0  0  0  0  0  0
  2  3  1  0
  2  1  1  1
  3  4  1  0
  4  5  2  0
  6  5  1  0
  7  6  1  0
  8  7  2  0
  9  8  1  0
 10  9  2  0
 10 11  1  0
 11 12  2  0
 12  7  1  0
 12  4  1  0
 13 15  1  0
 13  2  1  0
 14 13  2  0
 16 17  1  1
 16 15  1  0
 17 18  1  0
 18 19  2  0
 19 20  1  0
 21 20  1  0
 22 21  2  0
 23 22  1  0
 24 25  1  0
 24 23  2  0
 25 26  2  0
 26 18  1  0
 26 21  1  0
 27 16  1  0
 28 27  2  0
 30 29  1  1
 30 31  1  0
 31 27  1  0
 32 30  1  0
 32 34  1  0
 33 32  2  0
M  END
$$$$
