CVE.pdb
     RDKit          3D

 23 22  0  0  1  0  0  0  0  0999 V2000
    7.5145  -13.6746   20.0135 N   0  0  0  0  0  0  0  0  0  0  0  0
    6.8979  -14.2827   21.1521 C   0  0  1  0  0  0  0  0  0  0  0  0
    6.5876  -15.7261   20.8122 C   0  0  0  0  0  0  0  0  0  0  0  0
    5.8889  -16.6080   22.2236 S   0  0  0  0  0  0  0  0  0  0  0  0
    7.8335  -14.3232   22.3313 C   0  0  0  0  0  0  0  0  0  0  0  0
    9.0416  -14.6273   22.1616 O   0  0  0  0  0  0  0  0  0  0  0  0
    7.3690  -11.8514   25.5354 C   0  0  0  0  0  0  0  0  0  0  0  0
    7.6130  -13.2777   25.8926 C   0  0  1  0  0  0  0  0  0  0  0  0
    6.2976  -13.9267   26.2700 C   0  0  0  0  0  0  0  0  0  0  0  0
    8.2589  -14.0841   24.8079 C   0  0  2  0  0  0  0  0  0  0  0  0
    7.4005  -14.0284   23.6408 N   0  0  0  0  0  0  0  0  0  0  0  0
    8.4416  -15.4977   25.2409 C   0  0  0  0  0  0  0  0  0  0  0  0
    7.5069  -16.3363   25.2265 O   0  0  0  0  0  0  0  0  0  0  0  0
    9.7035  -15.9591   25.6948 N   0  0  0  0  0  0  0  0  0  0  0  0
    9.9013  -17.3657   25.9837 C   0  0  1  0  0  0  0  0  0  0  0  0
   10.9088  -17.9958   25.0497 C   0  0  0  0  0  0  0  0  0  0  0  0
   12.2741  -17.3355   25.2071 C   0  0  0  0  0  0  0  0  0  0  0  0
   13.2204  -17.8190   24.1741 C   0  0  0  0  0  0  0  0  0  0  0  0
   14.2762  -17.1886   23.9919 O   0  0  0  0  0  0  0  0  0  0  0  0
   10.2953  -17.4924   27.3976 C   0  0  0  0  0  0  0  0  0  0  0  0
   10.4913  -16.3739   28.2218 O   0  0  0  0  0  0  0  0  0  0  0  0
   12.9754  -18.9445   23.4038 O   0  0  0  0  0  0  0  0  0  0  0  0
   10.4756  -18.6116   27.9366 O   0  0  0  0  0  0  0  0  0  0  0  0
  2  1  1  6
  3  2  1  0
  4  3  1  0
  5  2  1  0
  6  5  2  0
  8  9  1  6
  8  7  1  0
 10  8  1  0
 10 11  1  6
 11  5  1  0
 12 10  1  0
 13 12  2  0
 14 12  1  0
 15 14  1  0
 15 16  1  6
 17 16  1  0
 18 17  1  0
 19 18  2  0
 20 15  1  0
 20 21  1  0
 22 18  1  0
 23 20  2  0
M  END
$$$$
