CVE.pdb
     RDKit          3D

 23 22  0  0  1  0  0  0  0  0999 V2000
    5.4527  -13.7782   26.9726 N   0  0  0  0  0  0  0  0  0  0  0  0
    6.5241  -13.2045   26.2181 C   0  0  1  0  0  0  0  0  0  0  0  0
    7.5468  -12.6494   27.1884 C   0  0  0  0  0  0  0  0  0  0  0  0
    6.9996  -11.0897   27.9138 S   0  0  0  0  0  0  0  0  0  0  0  0
    7.2445  -14.2453   25.4023 C   0  0  0  0  0  0  0  0  0  0  0  0
    7.4465  -15.3888   25.8841 O   0  0  0  0  0  0  0  0  0  0  0  0
    8.7468  -15.4225   20.7987 C   0  0  0  0  0  0  0  0  0  0  0  0
    8.2659  -14.4587   21.8289 C   0  0  1  0  0  0  0  0  0  0  0  0
    6.8506  -14.0376   21.4921 C   0  0  0  0  0  0  0  0  0  0  0  0
    8.2950  -14.9872   23.2302 C   0  0  2  0  0  0  0  0  0  0  0  0
    7.7093  -13.9831   24.0967 N   0  0  0  0  0  0  0  0  0  0  0  0
    9.6935  -15.2757   23.6549 C   0  0  0  0  0  0  0  0  0  0  0  0
   10.5243  -14.3691   23.9096 O   0  0  0  0  0  0  0  0  0  0  0  0
   10.1483  -16.6121   23.7905 N   0  0  0  0  0  0  0  0  0  0  0  0
   11.5157  -16.8764   24.1923 C   0  0  1  0  0  0  0  0  0  0  0  0
   11.6163  -18.0975   25.0773 C   0  0  0  0  0  0  0  0  0  0  0  0
   10.8246  -17.8951   26.3645 C   0  0  0  0  0  0  0  0  0  0  0  0
   11.2229  -18.8837   27.3943 C   0  0  0  0  0  0  0  0  0  0  0  0
   12.0143  -19.7882   27.0768 O   0  0  0  0  0  0  0  0  0  0  0  0
   12.3357  -17.0004   22.9746 C   0  0  0  0  0  0  0  0  0  0  0  0
   13.6900  -16.6352   22.9454 O   0  0  0  0  0  0  0  0  0  0  0  0
   10.7488  -18.8400   28.6957 O   0  0  0  0  0  0  0  0  0  0  0  0
   11.8610  -17.4406   21.8992 O   0  0  0  0  0  0  0  0  0  0  0  0
  2  1  1  1
  3  2  1  0
  4  3  1  0
  5  2  1  0
  6  5  2  0
  8  9  1  6
  8  7  1  0
 10  8  1  0
 10 11  1  1
 11  5  1  0
 12 10  1  0
 13 12  2  0
 14 12  1  0
 15 14  1  0
 15 16  1  6
 17 16  1  0
 18 17  1  0
 19 18  2  0
 20 15  1  0
 20 21  1  0
 22 18  1  0
 23 20  2  0
M  END
$$$$
