CVE.pdb
     RDKit          3D

 23 22  0  0  1  0  0  0  0  0999 V2000
    5.1592  -12.8748   26.6950 N   0  0  0  0  0  0  0  0  0  0  0  0
    6.3020  -12.4642   25.9389 C   0  0  1  0  0  0  0  0  0  0  0  0
    7.4157  -12.1203   26.9069 C   0  0  0  0  0  0  0  0  0  0  0  0
    7.8838  -10.3807   26.7936 S   0  0  0  0  0  0  0  0  0  0  0  0
    6.8269  -13.5836   25.0792 C   0  0  0  0  0  0  0  0  0  0  0  0
    6.9433  -14.7398   25.5592 O   0  0  0  0  0  0  0  0  0  0  0  0
    8.5847  -12.7575   21.2444 C   0  0  0  0  0  0  0  0  0  0  0  0
    7.6551  -13.9036   21.4534 C   0  0  1  0  0  0  0  0  0  0  0  0
    8.0220  -15.0207   20.4987 C   0  0  0  0  0  0  0  0  0  0  0  0
    7.6443  -14.4429   22.8509 C   0  0  2  0  0  0  0  0  0  0  0  0
    7.1993  -13.3824   23.7338 N   0  0  0  0  0  0  0  0  0  0  0  0
    9.0048  -14.9016   23.2485 C   0  0  0  0  0  0  0  0  0  0  0  0
    9.9018  -14.1095   23.6296 O   0  0  0  0  0  0  0  0  0  0  0  0
    9.3451  -16.2778   23.2109 N   0  0  0  0  0  0  0  0  0  0  0  0
   10.6280  -16.7227   23.7182 C   0  0  1  0  0  0  0  0  0  0  0  0
   10.5063  -18.0040   24.5106 C   0  0  0  0  0  0  0  0  0  0  0  0
   11.8818  -18.5044   24.9378 C   0  0  0  0  0  0  0  0  0  0  0  0
   11.7677  -19.7223   25.7746 C   0  0  0  0  0  0  0  0  0  0  0  0
   10.9510  -20.5986   25.4425 O   0  0  0  0  0  0  0  0  0  0  0  0
   11.5506  -16.8572   22.5775 C   0  0  0  0  0  0  0  0  0  0  0  0
   12.9282  -16.6201   22.6987 O   0  0  0  0  0  0  0  0  0  0  0  0
   12.5343  -19.9228   26.9114 O   0  0  0  0  0  0  0  0  0  0  0  0
   11.1480  -17.1918   21.4367 O   0  0  0  0  0  0  0  0  0  0  0  0
  2  1  1  1
  3  2  1  0
  4  3  1  0
  5  2  1  0
  6  5  2  0
  8  9  1  6
  8  7  1  0
 10  8  1  0
 10 11  1  1
 11  5  1  0
 12 10  1  0
 13 12  2  0
 14 12  1  0
 15 14  1  0
 15 16  1  6
 17 16  1  0
 18 17  1  0
 19 18  2  0
 20 15  1  0
 20 21  1  0
 22 18  1  0
 23 20  2  0
M  END
$$$$
