CVE.pdb
     RDKit          3D

 23 22  0  0  1  0  0  0  0  0999 V2000
    5.5039  -15.8591   20.8852 N   0  0  0  0  0  0  0  0  0  0  0  0
    5.6009  -16.1745   22.2771 C   0  0  1  0  0  0  0  0  0  0  0  0
    5.9699  -17.6379   22.4098 C   0  0  0  0  0  0  0  0  0  0  0  0
    4.5062  -18.6836   22.5590 S   0  0  0  0  0  0  0  0  0  0  0  0
    6.7093  -15.4023   22.9426 C   0  0  0  0  0  0  0  0  0  0  0  0
    7.8177  -15.2733   22.3634 O   0  0  0  0  0  0  0  0  0  0  0  0
    5.9855  -13.7590   26.7993 C   0  0  0  0  0  0  0  0  0  0  0  0
    6.9502  -13.1284   25.8543 C   0  0  1  0  0  0  0  0  0  0  0  0
    8.0269  -12.4160   26.6463 C   0  0  0  0  0  0  0  0  0  0  0  0
    7.6002  -14.0871   24.9044 C   0  0  2  0  0  0  0  0  0  0  0  0
    6.5501  -14.8080   24.2117 N   0  0  0  0  0  0  0  0  0  0  0  0
    8.4772  -15.0420   25.6381 C   0  0  0  0  0  0  0  0  0  0  0  0
    8.0233  -16.0184   26.2844 O   0  0  0  0  0  0  0  0  0  0  0  0
    9.8862  -14.8811   25.6342 N   0  0  0  0  0  0  0  0  0  0  0  0
   10.7485  -16.0278   25.8401 C   0  0  1  0  0  0  0  0  0  0  0  0
   12.1165  -15.8198   25.2320 C   0  0  0  0  0  0  0  0  0  0  0  0
   13.0142  -17.0219   25.5043 C   0  0  0  0  0  0  0  0  0  0  0  0
   14.3646  -16.8177   24.9289 C   0  0  0  0  0  0  0  0  0  0  0  0
   14.7388  -15.6576   24.6853 O   0  0  0  0  0  0  0  0  0  0  0  0
   10.8158  -16.2970   27.2870 C   0  0  0  0  0  0  0  0  0  0  0  0
   11.1807  -17.5520   27.7973 O   0  0  0  0  0  0  0  0  0  0  0  0
   15.2259  -17.8673   24.6521 O   0  0  0  0  0  0  0  0  0  0  0  0
   10.5490  -15.4134   28.1376 O   0  0  0  0  0  0  0  0  0  0  0  0
  2  1  1  6
  3  2  1  0
  4  3  1  0
  5  2  1  0
  6  5  2  0
  8  9  1  1
  8  7  1  0
 10  8  1  0
 10 11  1  1
 11  5  1  0
 12 10  1  0
 13 12  2  0
 14 12  1  0
 15 14  1  0
 15 16  1  1
 17 16  1  0
 18 17  1  0
 19 18  2  0
 20 15  1  0
 20 21  1  0
 22 18  1  0
 23 20  2  0
M  END
$$$$
