CVE.pdb
     RDKit          3D

 23 22  0  0  1  0  0  0  0  0999 V2000
    5.8474  -16.1402   20.4402 N   0  0  0  0  0  0  0  0  0  0  0  0
    5.8492  -16.4174   21.8435 C   0  0  1  0  0  0  0  0  0  0  0  0
    6.0108  -17.9117   22.0342 C   0  0  0  0  0  0  0  0  0  0  0  0
    4.8426  -18.5590   23.2485 S   0  0  0  0  0  0  0  0  0  0  0  0
    7.0268  -15.7788   22.5313 C   0  0  0  0  0  0  0  0  0  0  0  0
    8.1466  -15.7526   21.9601 O   0  0  0  0  0  0  0  0  0  0  0  0
    6.8458  -12.3612   24.5842 C   0  0  0  0  0  0  0  0  0  0  0  0
    7.4734  -13.4703   25.3571 C   0  0  1  0  0  0  0  0  0  0  0  0
    6.4513  -14.0490   26.3134 C   0  0  0  0  0  0  0  0  0  0  0  0
    8.0279  -14.5755   24.5116 C   0  0  2  0  0  0  0  0  0  0  0  0
    6.9213  -15.1993   23.8127 N   0  0  0  0  0  0  0  0  0  0  0  0
    8.7313  -15.5815   25.3557 C   0  0  0  0  0  0  0  0  0  0  0  0
    8.1412  -16.5608   25.8751 O   0  0  0  0  0  0  0  0  0  0  0  0
   10.1221  -15.4689   25.6095 N   0  0  0  0  0  0  0  0  0  0  0  0
   10.8947  -16.6457   25.9547 C   0  0  1  0  0  0  0  0  0  0  0  0
   12.3020  -16.5754   25.4078 C   0  0  0  0  0  0  0  0  0  0  0  0
   13.0854  -17.8305   25.7767 C   0  0  0  0  0  0  0  0  0  0  0  0
   14.4563  -17.7853   25.2156 C   0  0  0  0  0  0  0  0  0  0  0  0
   15.0568  -18.8567   25.0238 O   0  0  0  0  0  0  0  0  0  0  0  0
   10.8721  -16.7956   27.4201 C   0  0  0  0  0  0  0  0  0  0  0  0
   11.2986  -17.9703   28.0578 O   0  0  0  0  0  0  0  0  0  0  0  0
   15.0947  -16.5975   24.8964 O   0  0  0  0  0  0  0  0  0  0  0  0
   10.4684  -15.8760   28.1732 O   0  0  0  0  0  0  0  0  0  0  0  0
  2  1  1  6
  3  2  1  0
  4  3  1  0
  5  2  1  0
  6  5  2  0
  8  9  1  1
  8  7  1  0
 10  8  1  0
 10 11  1  1
 11  5  1  0
 12 10  1  0
 13 12  2  0
 14 12  1  0
 15 14  1  0
 15 16  1  1
 17 16  1  0
 18 17  1  0
 19 18  2  0
 20 15  1  0
 20 21  1  0
 22 18  1  0
 23 20  2  0
M  END
$$$$
