CVE.pdb
     RDKit          3D

 23 22  0  0  1  0  0  0  0  0999 V2000
    8.0129  -14.9082   20.5235 N   0  0  0  0  0  0  0  0  0  0  0  0
    7.2574  -15.1249   21.7187 C   0  0  1  0  0  0  0  0  0  0  0  0
    7.0567  -16.6166   21.8920 C   0  0  0  0  0  0  0  0  0  0  0  0
    6.1587  -17.3345   20.5004 S   0  0  0  0  0  0  0  0  0  0  0  0
    8.0080  -14.6600   22.9386 C   0  0  0  0  0  0  0  0  0  0  0  0
    9.2517  -14.8293   23.0106 O   0  0  0  0  0  0  0  0  0  0  0  0
    5.8213  -13.3158   26.3747 C   0  0  0  0  0  0  0  0  0  0  0  0
    7.1102  -12.6848   25.9722 C   0  0  1  0  0  0  0  0  0  0  0  0
    7.8170  -12.1684   27.2081 C   0  0  0  0  0  0  0  0  0  0  0  0
    8.0373  -13.5954   25.2272 C   0  0  2  0  0  0  0  0  0  0  0  0
    7.3595  -14.0316   24.0220 N   0  0  0  0  0  0  0  0  0  0  0  0
    8.4022  -14.7734   26.0629 C   0  0  0  0  0  0  0  0  0  0  0  0
    7.6785  -15.7966   26.1434 O   0  0  0  0  0  0  0  0  0  0  0  0
    9.6049  -14.7839   26.8143 N   0  0  0  0  0  0  0  0  0  0  0  0
   10.1146  -16.0300   27.3514 C   0  0  1  0  0  0  0  0  0  0  0  0
   11.3030  -16.5368   26.5671 C   0  0  0  0  0  0  0  0  0  0  0  0
   11.8762  -17.7939   27.2120 C   0  0  0  0  0  0  0  0  0  0  0  0
   13.0213  -18.3173   26.4302 C   0  0  0  0  0  0  0  0  0  0  0  0
   12.8977  -18.4343   25.1988 O   0  0  0  0  0  0  0  0  0  0  0  0
   10.4334  -15.8197   28.7743 C   0  0  0  0  0  0  0  0  0  0  0  0
   10.6770  -16.8875   29.6513 O   0  0  0  0  0  0  0  0  0  0  0  0
   14.2230  -18.6811   27.0165 O   0  0  0  0  0  0  0  0  0  0  0  0
   10.5031  -14.6703   29.2740 O   0  0  0  0  0  0  0  0  0  0  0  0
  2  1  1  6
  3  2  1  0
  4  3  1  0
  5  2  1  0
  6  5  2  0
  8  9  1  1
  8  7  1  0
 10  8  1  0
 10 11  1  6
 11  5  1  0
 12 10  1  0
 13 12  2  0
 14 12  1  0
 15 14  1  0
 15 16  1  6
 17 16  1  0
 18 17  1  0
 19 18  2  0
 20 15  1  0
 20 21  1  0
 22 18  1  0
 23 20  2  0
M  END
$$$$
