CVE.pdb
     RDKit          3D

 23 22  0  0  1  0  0  0  0  0999 V2000
    9.0260  -15.1290   20.4464 N   0  0  0  0  0  0  0  0  0  0  0  0
    8.1006  -15.3030   21.5232 C   0  0  1  0  0  0  0  0  0  0  0  0
    7.7990  -16.7815   21.6585 C   0  0  0  0  0  0  0  0  0  0  0  0
    7.0251  -17.4432   20.1681 S   0  0  0  0  0  0  0  0  0  0  0  0
    8.6968  -14.8763   22.8385 C   0  0  0  0  0  0  0  0  0  0  0  0
    9.9201  -15.0627   23.0611 O   0  0  0  0  0  0  0  0  0  0  0  0
    6.1921  -13.2851   26.0551 C   0  0  0  0  0  0  0  0  0  0  0  0
    7.5380  -12.7758   25.6674 C   0  0  1  0  0  0  0  0  0  0  0  0
    8.1897  -12.1291   26.8720 C   0  0  0  0  0  0  0  0  0  0  0  0
    8.4598  -13.8218   25.1197 C   0  0  2  0  0  0  0  0  0  0  0  0
    7.9238  -14.2654   23.8477 N   0  0  0  0  0  0  0  0  0  0  0  0
    8.5663  -14.9734   26.0588 C   0  0  0  0  0  0  0  0  0  0  0  0
    8.0535  -16.0940   25.8167 O   0  0  0  0  0  0  0  0  0  0  0  0
    9.2648  -14.8451   27.2863 N   0  0  0  0  0  0  0  0  0  0  0  0
   10.2201  -15.8587   27.6875 C   0  0  1  0  0  0  0  0  0  0  0  0
   11.3823  -15.9492   26.7254 C   0  0  0  0  0  0  0  0  0  0  0  0
   11.1621  -17.0749   25.7208 C   0  0  0  0  0  0  0  0  0  0  0  0
   12.0240  -18.2399   26.0311 C   0  0  0  0  0  0  0  0  0  0  0  0
   12.0053  -19.2162   25.2618 O   0  0  0  0  0  0  0  0  0  0  0  0
   10.6558  -15.5595   29.0626 C   0  0  0  0  0  0  0  0  0  0  0  0
   10.3903  -14.3274   29.6792 O   0  0  0  0  0  0  0  0  0  0  0  0
   12.8490  -18.2844   27.1435 O   0  0  0  0  0  0  0  0  0  0  0  0
   11.2885  -16.3954   29.7530 O   0  0  0  0  0  0  0  0  0  0  0  0
  2  1  1  6
  3  2  1  0
  4  3  1  0
  5  2  1  0
  6  5  2  0
  8  9  1  1
  8  7  1  0
 10  8  1  0
 10 11  1  6
 11  5  1  0
 12 10  1  0
 13 12  2  0
 14 12  1  0
 15 14  1  0
 15 16  1  6
 17 16  1  0
 18 17  1  0
 19 18  2  0
 20 15  1  0
 20 21  1  0
 22 18  1  0
 23 20  2  0
M  END
$$$$
