CVE.pdb
     RDKit          3D

 23 22  0  0  1  0  0  0  0  0999 V2000
    5.1568  -13.3930   26.1259 N   0  0  0  0  0  0  0  0  0  0  0  0
    6.4206  -13.0906   25.5277 C   0  0  1  0  0  0  0  0  0  0  0  0
    7.3811  -12.6794   26.6248 C   0  0  0  0  0  0  0  0  0  0  0  0
    7.0469  -11.0050   27.2104 S   0  0  0  0  0  0  0  0  0  0  0  0
    7.0273  -14.3044   24.8748 C   0  0  0  0  0  0  0  0  0  0  0  0
    6.9127  -15.4315   25.4200 O   0  0  0  0  0  0  0  0  0  0  0  0
    6.8185  -14.8016   20.9781 C   0  0  0  0  0  0  0  0  0  0  0  0
    8.1909  -15.0902   21.4827 C   0  0  1  0  0  0  0  0  0  0  0  0
    9.0927  -13.9149   21.1677 C   0  0  0  0  0  0  0  0  0  0  0  0
    8.2613  -15.3765   22.9513 C   0  0  2  0  0  0  0  0  0  0  0  0
    7.7309  -14.2251   23.6551 N   0  0  0  0  0  0  0  0  0  0  0  0
    9.6681  -15.6287   23.3715 C   0  0  0  0  0  0  0  0  0  0  0  0
   10.4920  -14.7018   23.5695 O   0  0  0  0  0  0  0  0  0  0  0  0
   10.1394  -16.9518   23.5678 N   0  0  0  0  0  0  0  0  0  0  0  0
   11.5195  -17.1823   23.9461 C   0  0  1  0  0  0  0  0  0  0  0  0
   11.6453  -18.2855   24.9716 C   0  0  0  0  0  0  0  0  0  0  0  0
   10.8214  -17.9619   26.2131 C   0  0  0  0  0  0  0  0  0  0  0  0
   11.0235  -18.9847   27.2663 C   0  0  0  0  0  0  0  0  0  0  0  0
   10.3598  -20.0344   27.2121 O   0  0  0  0  0  0  0  0  0  0  0  0
   12.2890  -17.4670   22.7225 C   0  0  0  0  0  0  0  0  0  0  0  0
   13.6920  -17.4689   22.7056 O   0  0  0  0  0  0  0  0  0  0  0  0
   11.9218  -18.8178   28.3081 O   0  0  0  0  0  0  0  0  0  0  0  0
   11.7252  -17.7230   21.6307 O   0  0  0  0  0  0  0  0  0  0  0  0
  2  1  1  1
  3  2  1  0
  4  3  1  0
  5  2  1  0
  6  5  2  0
  8  9  1  1
  8  7  1  0
 10  8  1  0
 10 11  1  1
 11  5  1  0
 12 10  1  0
 13 12  2  0
 14 12  1  0
 15 14  1  0
 15 16  1  1
 17 16  1  0
 18 17  1  0
 19 18  2  0
 20 15  1  0
 20 21  1  0
 22 18  1  0
 23 20  2  0
M  END
$$$$
