CVE.pdb
     RDKit          3D

 23 22  0  0  1  0  0  0  0  0999 V2000
    5.0112  -13.0358   26.3120 N   0  0  0  0  0  0  0  0  0  0  0  0
    6.3442  -12.8172   25.8412 C   0  0  1  0  0  0  0  0  0  0  0  0
    7.2531  -12.6532   27.0422 C   0  0  0  0  0  0  0  0  0  0  0  0
    8.9905  -12.5801   26.5582 S   0  0  0  0  0  0  0  0  0  0  0  0
    6.8649  -14.0097   25.0832 C   0  0  0  0  0  0  0  0  0  0  0  0
    6.7286  -15.1642   25.5622 O   0  0  0  0  0  0  0  0  0  0  0  0
    6.4471  -14.2542   21.1606 C   0  0  0  0  0  0  0  0  0  0  0  0
    7.8292  -14.6103   21.5900 C   0  0  1  0  0  0  0  0  0  0  0  0
    8.7487  -13.4362   21.3257 C   0  0  0  0  0  0  0  0  0  0  0  0
    7.9460  -15.0042   23.0304 C   0  0  2  0  0  0  0  0  0  0  0  0
    7.5104  -13.8801   23.8360 N   0  0  0  0  0  0  0  0  0  0  0  0
    9.3534  -15.3587   23.3666 C   0  0  0  0  0  0  0  0  0  0  0  0
   10.2234  -14.4941   23.6363 O   0  0  0  0  0  0  0  0  0  0  0  0
    9.7722  -16.7133   23.3953 N   0  0  0  0  0  0  0  0  0  0  0  0
   11.1609  -17.0387   23.6534 C   0  0  1  0  0  0  0  0  0  0  0  0
   11.2988  -18.1708   24.6452 C   0  0  0  0  0  0  0  0  0  0  0  0
   10.5104  -17.8717   25.9155 C   0  0  0  0  0  0  0  0  0  0  0  0
   10.6968  -18.9440   26.9214 C   0  0  0  0  0  0  0  0  0  0  0  0
   11.8026  -19.0519   27.4788 O   0  0  0  0  0  0  0  0  0  0  0  0
   11.8077  -17.3430   22.3652 C   0  0  0  0  0  0  0  0  0  0  0  0
   13.2023  -17.4112   22.2269 O   0  0  0  0  0  0  0  0  0  0  0  0
    9.6884  -19.8303   27.2648 O   0  0  0  0  0  0  0  0  0  0  0  0
   11.1403  -17.5572   21.3239 O   0  0  0  0  0  0  0  0  0  0  0  0
  2  1  1  1
  3  2  1  0
  4  3  1  0
  5  2  1  0
  6  5  2  0
  8  9  1  1
  8  7  1  0
 10  8  1  0
 10 11  1  1
 11  5  1  0
 12 10  1  0
 13 12  2  0
 14 12  1  0
 15 14  1  0
 15 16  1  1
 17 16  1  0
 18 17  1  0
 19 18  2  0
 20 15  1  0
 20 21  1  0
 22 18  1  0
 23 20  2  0
M  END
$$$$
