CVE.pdb
     RDKit          3D

 23 22  0  0  1  0  0  0  0  0999 V2000
    7.6446  -13.5396   19.9398 N   0  0  0  0  0  0  0  0  0  0  0  0
    6.8255  -13.7455   21.0943 C   0  0  1  0  0  0  0  0  0  0  0  0
    6.2328  -15.1376   21.0163 C   0  0  0  0  0  0  0  0  0  0  0  0
    7.5100  -16.4110   21.0913 S   0  0  0  0  0  0  0  0  0  0  0  0
    7.6377  -13.7078   22.3618 C   0  0  0  0  0  0  0  0  0  0  0  0
    8.8843  -13.8631   22.3112 O   0  0  0  0  0  0  0  0  0  0  0  0
    7.5063  -12.8947   27.2928 C   0  0  0  0  0  0  0  0  0  0  0  0
    6.8941  -12.9342   25.9345 C   0  0  1  0  0  0  0  0  0  0  0  0
    6.4966  -11.5303   25.5284 C   0  0  0  0  0  0  0  0  0  0  0  0
    7.7798  -13.5139   24.8746 C   0  0  2  0  0  0  0  0  0  0  0  0
    7.0449  -13.5016   23.6248 N   0  0  0  0  0  0  0  0  0  0  0  0
    8.1733  -14.9081   25.2222 C   0  0  0  0  0  0  0  0  0  0  0  0
    7.3757  -15.8752   25.1474 O   0  0  0  0  0  0  0  0  0  0  0  0
    9.4900  -15.2015   25.6595 N   0  0  0  0  0  0  0  0  0  0  0  0
    9.8994  -16.5777   25.8583 C   0  0  1  0  0  0  0  0  0  0  0  0
   11.1655  -16.9035   25.0999 C   0  0  0  0  0  0  0  0  0  0  0  0
   11.6012  -18.3390   25.3728 C   0  0  0  0  0  0  0  0  0  0  0  0
   12.8629  -18.6554   24.6626 C   0  0  0  0  0  0  0  0  0  0  0  0
   12.8653  -19.5865   23.8391 O   0  0  0  0  0  0  0  0  0  0  0  0
   10.0407  -16.8094   27.3063 C   0  0  0  0  0  0  0  0  0  0  0  0
   10.0541  -18.0990   27.8589 O   0  0  0  0  0  0  0  0  0  0  0  0
   14.0389  -17.9553   24.8798 O   0  0  0  0  0  0  0  0  0  0  0  0
   10.1565  -15.8608   28.1201 O   0  0  0  0  0  0  0  0  0  0  0  0
  2  1  1  6
  3  2  1  0
  4  3  1  0
  5  2  1  0
  6  5  2  0
  8  9  1  6
  8  7  1  0
 10  8  1  0
 10 11  1  6
 11  5  1  0
 12 10  1  0
 13 12  2  0
 14 12  1  0
 15 14  1  0
 15 16  1  6
 17 16  1  0
 18 17  1  0
 19 18  2  0
 20 15  1  0
 20 21  1  0
 22 18  1  0
 23 20  2  0
M  END
$$$$
