CVE.pdb
     RDKit          3D

 23 22  0  0  1  0  0  0  0  0999 V2000
    9.3631  -17.5976   16.5165 N   0  0  0  0  0  0  0  0  0  0  0  0
    8.3798  -17.3390   17.5227 C   0  0  1  0  0  0  0  0  0  0  0  0
    7.9592  -18.6620   18.1296 C   0  0  0  0  0  0  0  0  0  0  0  0
    6.5984  -19.4136   17.2123 S   0  0  0  0  0  0  0  0  0  0  0  0
    8.9478  -16.5227   18.6534 C   0  0  0  0  0  0  0  0  0  0  0  0
   10.1772  -16.5796   18.9106 O   0  0  0  0  0  0  0  0  0  0  0  0
    7.9121  -12.9937   22.0412 C   0  0  0  0  0  0  0  0  0  0  0  0
    7.6132  -13.8181   20.8361 C   0  0  1  0  0  0  0  0  0  0  0  0
    7.4501  -12.9053   19.6385 C   0  0  0  0  0  0  0  0  0  0  0  0
    8.6513  -14.8511   20.5216 C   0  0  2  0  0  0  0  0  0  0  0  0
    8.1412  -15.6824   19.4487 N   0  0  0  0  0  0  0  0  0  0  0  0
    8.9430  -15.6861   21.7204 C   0  0  0  0  0  0  0  0  0  0  0  0
    8.1794  -16.6050   22.1074 O   0  0  0  0  0  0  0  0  0  0  0  0
   10.1176  -15.4703   22.4851 N   0  0  0  0  0  0  0  0  0  0  0  0
   10.4219  -16.3348   23.6081 C   0  0  1  0  0  0  0  0  0  0  0  0
   11.9088  -16.4223   23.8645 C   0  0  0  0  0  0  0  0  0  0  0  0
   12.6514  -16.8150   22.5920 C   0  0  0  0  0  0  0  0  0  0  0  0
   14.1181  -16.7887   22.8032 C   0  0  0  0  0  0  0  0  0  0  0  0
   14.6388  -15.7459   23.2353 O   0  0  0  0  0  0  0  0  0  0  0  0
    9.6813  -15.8398   24.7816 C   0  0  0  0  0  0  0  0  0  0  0  0
    9.5369  -16.6026   25.9503 O   0  0  0  0  0  0  0  0  0  0  0  0
   14.9313  -17.8790   22.5385 O   0  0  0  0  0  0  0  0  0  0  0  0
    9.1409  -14.7069   24.7935 O   0  0  0  0  0  0  0  0  0  0  0  0
  2  1  1  6
  3  2  1  0
  4  3  1  0
  5  2  1  0
  6  5  2  0
  8  9  1  6
  8  7  1  0
 10  8  1  0
 10 11  1  6
 11  5  1  0
 12 10  1  0
 13 12  2  0
 14 12  1  0
 15 14  1  0
 15 16  1  1
 17 16  1  0
 18 17  1  0
 19 18  2  0
 20 15  1  0
 20 21  1  0
 22 18  1  0
 23 20  2  0
M  END
$$$$
