CVE.pdb
     RDKit          3D

 23 22  0  0  1  0  0  0  0  0999 V2000
    7.3724  -17.5405   16.4397 N   0  0  0  0  0  0  0  0  0  0  0  0
    7.0446  -17.3642   17.8209 C   0  0  1  0  0  0  0  0  0  0  0  0
    7.0244  -18.7264   18.4838 C   0  0  0  0  0  0  0  0  0  0  0  0
    5.8043  -19.8190   17.7249 S   0  0  0  0  0  0  0  0  0  0  0  0
    8.0983  -16.5650   18.5411 C   0  0  0  0  0  0  0  0  0  0  0  0
    9.2658  -16.5074   18.0781 O   0  0  0  0  0  0  0  0  0  0  0  0
    7.4858  -12.9450   19.8146 C   0  0  0  0  0  0  0  0  0  0  0  0
    8.0483  -13.7993   20.8987 C   0  0  1  0  0  0  0  0  0  0  0  0
    6.9270  -14.2367   21.8180 C   0  0  0  0  0  0  0  0  0  0  0  0
    8.7789  -15.0131   20.4121 C   0  0  2  0  0  0  0  0  0  0  0  0
    7.8222  -15.8666   19.7350 N   0  0  0  0  0  0  0  0  0  0  0  0
    9.4003  -15.7451   21.5510 C   0  0  0  0  0  0  0  0  0  0  0  0
    8.8575  -16.7391   22.0938 O   0  0  0  0  0  0  0  0  0  0  0  0
   10.6536  -15.3390   22.0758 N   0  0  0  0  0  0  0  0  0  0  0  0
   11.3405  -16.1724   23.0426 C   0  0  1  0  0  0  0  0  0  0  0  0
   12.8104  -15.8331   23.1347 C   0  0  0  0  0  0  0  0  0  0  0  0
   13.6494  -17.1019   23.2402 C   0  0  0  0  0  0  0  0  0  0  0  0
   15.0962  -16.7817   23.2636 C   0  0  0  0  0  0  0  0  0  0  0  0
   15.7450  -16.8803   22.2079 O   0  0  0  0  0  0  0  0  0  0  0  0
   10.6532  -16.0333   24.3382 C   0  0  0  0  0  0  0  0  0  0  0  0
   10.8807  -16.9176   25.4035 O   0  0  0  0  0  0  0  0  0  0  0  0
   15.7540  -16.3772   24.4142 O   0  0  0  0  0  0  0  0  0  0  0  0
    9.8270  -15.1132   24.5537 O   0  0  0  0  0  0  0  0  0  0  0  0
  2  1  1  6
  3  2  1  0
  4  3  1  0
  5  2  1  0
  6  5  2  0
  8  9  1  1
  8  7  1  0
 10  8  1  0
 10 11  1  1
 11  5  1  0
 12 10  1  0
 13 12  2  0
 14 12  1  0
 15 14  1  0
 15 16  1  1
 17 16  1  0
 18 17  1  0
 19 18  2  0
 20 15  1  0
 20 21  1  0
 22 18  1  0
 23 20  2  0
M  END
$$$$
