CVE.pdb
     RDKit          3D

 23 22  0  0  1  0  0  0  0  0999 V2000
    7.9956  -17.1831   16.2063 N   0  0  0  0  0  0  0  0  0  0  0  0
    7.5238  -17.2902   17.5525 C   0  0  1  0  0  0  0  0  0  0  0  0
    7.4739  -18.7579   17.9249 C   0  0  0  0  0  0  0  0  0  0  0  0
    6.9574  -18.9938   19.6383 S   0  0  0  0  0  0  0  0  0  0  0  0
    8.4759  -16.6449   18.5245 C   0  0  0  0  0  0  0  0  0  0  0  0
    9.7111  -16.8570   18.4253 O   0  0  0  0  0  0  0  0  0  0  0  0
    7.7888  -12.9229   19.7891 C   0  0  0  0  0  0  0  0  0  0  0  0
    8.1984  -13.8322   20.8967 C   0  0  1  0  0  0  0  0  0  0  0  0
    6.9712  -14.2345   21.6879 C   0  0  0  0  0  0  0  0  0  0  0  0
    8.9137  -15.0693   20.4475 C   0  0  2  0  0  0  0  0  0  0  0  0
    8.0286  -15.7975   19.5594 N   0  0  0  0  0  0  0  0  0  0  0  0
    9.2787  -15.9195   21.6150 C   0  0  0  0  0  0  0  0  0  0  0  0
    8.5354  -16.8368   22.0432 O   0  0  0  0  0  0  0  0  0  0  0  0
   10.5040  -15.7210   22.3009 N   0  0  0  0  0  0  0  0  0  0  0  0
   10.9228  -16.6573   23.3250 C   0  0  1  0  0  0  0  0  0  0  0  0
   12.4276  -16.7142   23.4543 C   0  0  0  0  0  0  0  0  0  0  0  0
   13.0529  -17.3108   22.1982 C   0  0  0  0  0  0  0  0  0  0  0  0
   14.5315  -17.3284   22.2976 C   0  0  0  0  0  0  0  0  0  0  0  0
   15.1999  -17.1306   21.2684 O   0  0  0  0  0  0  0  0  0  0  0  0
   10.2678  -16.2778   24.5889 C   0  0  0  0  0  0  0  0  0  0  0  0
   10.2581  -17.1232   25.7086 O   0  0  0  0  0  0  0  0  0  0  0  0
   15.1979  -17.5563   23.4910 O   0  0  0  0  0  0  0  0  0  0  0  0
    9.6841  -15.1752   24.7266 O   0  0  0  0  0  0  0  0  0  0  0  0
  2  1  1  6
  3  2  1  0
  4  3  1  0
  5  2  1  0
  6  5  2  0
  8  9  1  6
  8  7  1  0
 10  8  1  0
 10 11  1  6
 11  5  1  0
 12 10  1  0
 13 12  2  0
 14 12  1  0
 15 14  1  0
 15 16  1  1
 17 16  1  0
 18 17  1  0
 19 18  2  0
 20 15  1  0
 20 21  1  0
 22 18  1  0
 23 20  2  0
M  END
$$$$
