ETR.pdb
     RDKit          3D

 28 27  0  0  1  0  0  0  0  0999 V2000
   23.0785  -13.6391  -18.1953 N   0  0  0  0  0  0  0  0  0  0  0  0
   22.6778  -12.2269  -18.3229 C   0  0  1  0  0  0  0  0  0  0  0  0
   21.2363  -12.1628  -18.8125 C   0  0  0  0  0  0  0  0  0  0  0  0
   20.4771  -13.3646  -18.2678 C   0  0  0  0  0  0  0  0  0  0  0  0
   19.1312  -13.3436  -18.8734 C   0  0  0  0  0  0  0  0  0  0  0  0
   18.7905  -12.4631  -19.7055 O   0  0  0  0  0  0  0  0  0  0  0  0
   22.7037  -11.6515  -16.9586 C   0  0  0  0  0  0  0  0  0  0  0  0
   22.3573  -12.3435  -15.9436 O   0  0  0  0  0  0  0  0  0  0  0  0
   18.1969  -14.3054  -18.5362 O   0  0  0  0  0  0  0  0  0  0  0  0
   25.4723  -10.5992  -15.1188 C   0  0  0  0  0  0  0  0  0  0  0  0
   24.6925   -9.2990  -15.2096 C   0  0  1  0  0  0  0  0  0  0  0  0
   25.0760   -8.5416  -16.3027 O   0  0  0  0  0  0  0  0  0  0  0  0
   23.2398   -9.7310  -15.4693 C   0  0  2  0  0  0  0  0  0  0  0  0
   23.1251  -10.3021  -16.7973 N   0  0  0  0  0  0  0  0  0  0  0  0
   22.4369   -8.4830  -15.4209 C   0  0  0  0  0  0  0  0  0  0  0  0
   22.1987   -7.8195  -16.4913 O   0  0  0  0  0  0  0  0  0  0  0  0
   15.3060   -7.1366  -11.3097 N   0  0  0  0  0  0  0  0  0  0  0  0
   16.6070   -6.9648  -10.7486 C   0  0  0  0  0  0  0  0  0  0  0  0
   16.7654   -7.1425   -9.4826 N   0  0  0  0  0  0  0  0  0  0  0  0
   17.7078   -6.6052  -11.5540 N   0  0  0  0  0  0  0  0  0  0  0  0
   17.4978   -6.2301  -12.9506 C   0  0  0  0  0  0  0  0  0  0  0  0
   18.8146   -5.8477  -13.5499 C   0  0  0  0  0  0  0  0  0  0  0  0
   19.7158   -7.0251  -13.6706 C   0  0  0  0  0  0  0  0  0  0  0  0
   21.0463   -6.7509  -14.3116 C   0  0  2  0  0  0  0  0  0  0  0  0
   21.8930   -7.9511  -14.2348 N   0  0  0  0  0  0  0  0  0  0  0  0
   21.8001   -5.6653  -13.6586 C   0  0  0  0  0  0  0  0  0  0  0  0
   21.6713   -4.3274  -13.9993 O   0  0  0  0  0  0  0  0  0  0  0  0
   22.6086   -5.9294  -12.7443 O   0  0  0  0  0  0  0  0  0  0  0  0
  2  1  1  1
  3  2  1  0
  4  3  1  0
  5  4  1  0
  5  6  2  0
  7  8  2  0
  7  2  1  0
  9  5  1  0
 11 10  1  6
 12 11  1  0
 13 11  1  0
 13 14  1  6
 14  7  1  0
 15 13  1  0
 16 15  2  0
 18 17  1  0
 18 19  2  0
 20 18  1  0
 21 20  1  0
 21 22  1  0
 24 23  1  1
 23 22  1  0
 24 25  1  0
 25 15  1  0
 26 27  1  0
 26 24  1  0
 28 26  2  0
M  END
$$$$
