ETR.pdb
     RDKit          3D

 28 27  0  0  1  0  0  0  0  0999 V2000
   21.1793   -3.1717  -18.2463 N   0  0  0  0  0  0  0  0  0  0  0  0
   21.5988   -3.9613  -17.0751 C   0  0  1  0  0  0  0  0  0  0  0  0
   20.3691   -4.3086  -16.2450 C   0  0  0  0  0  0  0  0  0  0  0  0
   19.1212   -3.9394  -17.0348 C   0  0  0  0  0  0  0  0  0  0  0  0
   17.9555   -4.2730  -16.1930 C   0  0  0  0  0  0  0  0  0  0  0  0
   16.9767   -4.9245  -16.6414 O   0  0  0  0  0  0  0  0  0  0  0  0
   22.1511   -5.2335  -17.5942 C   0  0  0  0  0  0  0  0  0  0  0  0
   21.7572   -5.7187  -18.7071 O   0  0  0  0  0  0  0  0  0  0  0  0
   17.9091   -3.8714  -14.8708 O   0  0  0  0  0  0  0  0  0  0  0  0
   25.5666   -8.7095  -17.1692 C   0  0  0  0  0  0  0  0  0  0  0  0
   25.1103   -7.3490  -16.6716 C   0  0  1  0  0  0  0  0  0  0  0  0
   25.9256   -6.3300  -17.1327 O   0  0  0  0  0  0  0  0  0  0  0  0
   23.7353   -7.1339  -17.3252 C   0  0  2  0  0  0  0  0  0  0  0  0
   23.1371   -5.9115  -16.8245 N   0  0  0  0  0  0  0  0  0  0  0  0
   22.9009   -8.2816  -16.8879 C   0  0  0  0  0  0  0  0  0  0  0  0
   21.9892   -8.1238  -16.0010 O   0  0  0  0  0  0  0  0  0  0  0  0
   16.7273  -10.5282  -13.8677 N   0  0  0  0  0  0  0  0  0  0  0  0
   16.6596  -11.5727  -14.8378 C   0  0  0  0  0  0  0  0  0  0  0  0
   15.6590  -12.3835  -14.8082 N   0  0  0  0  0  0  0  0  0  0  0  0
   17.6644  -11.7271  -15.8157 N   0  0  0  0  0  0  0  0  0  0  0  0
   18.6750  -10.6867  -15.9933 C   0  0  0  0  0  0  0  0  0  0  0  0
   19.5615  -11.0665  -17.1376 C   0  0  0  0  0  0  0  0  0  0  0  0
   20.6619  -10.0822  -17.3186 C   0  0  0  0  0  0  0  0  0  0  0  0
   22.0424  -10.6062  -17.0425 C   0  0  2  0  0  0  0  0  0  0  0  0
   23.0421   -9.5875  -17.3979 N   0  0  0  0  0  0  0  0  0  0  0  0
   22.3794  -11.8118  -17.8210 C   0  0  0  0  0  0  0  0  0  0  0  0
   22.2776  -13.1017  -17.3226 O   0  0  0  0  0  0  0  0  0  0  0  0
   22.7827  -11.7022  -18.9977 O   0  0  0  0  0  0  0  0  0  0  0  0
  2  1  1  6
  3  2  1  0
  4  3  1  0
  5  4  1  0
  5  6  2  0
  7  8  2  0
  7  2  1  0
  9  5  1  0
 11 10  1  6
 12 11  1  0
 13 11  1  0
 13 14  1  1
 14  7  1  0
 15 13  1  0
 16 15  2  0
 18 17  1  0
 18 19  2  0
 20 18  1  0
 21 20  1  0
 21 22  1  0
 24 23  1  6
 23 22  1  0
 24 25  1  0
 25 15  1  0
 26 27  1  0
 26 24  1  0
 28 26  2  0
M  END
$$$$
