ETR.pdb
     RDKit          3D

 28 27  0  0  1  0  0  0  0  0999 V2000
   24.9229  -18.5934  -16.1061 N   0  0  0  0  0  0  0  0  0  0  0  0
   23.9580  -19.7059  -16.1562 C   0  0  1  0  0  0  0  0  0  0  0  0
   24.7168  -21.0245  -16.0705 C   0  0  0  0  0  0  0  0  0  0  0  0
   26.2111  -20.7341  -16.0723 C   0  0  0  0  0  0  0  0  0  0  0  0
   26.9095  -22.0324  -16.1449 C   0  0  0  0  0  0  0  0  0  0  0  0
   27.2950  -22.5194  -17.2394 O   0  0  0  0  0  0  0  0  0  0  0  0
   23.1225  -19.6007  -14.9381 C   0  0  0  0  0  0  0  0  0  0  0  0
   23.6196  -19.2138  -13.8280 O   0  0  0  0  0  0  0  0  0  0  0  0
   27.1611  -22.7572  -14.9946 O   0  0  0  0  0  0  0  0  0  0  0  0
   20.2544  -17.5203  -14.3275 C   0  0  0  0  0  0  0  0  0  0  0  0
   19.6796  -18.9206  -14.2023 C   0  0  1  0  0  0  0  0  0  0  0  0
   19.1782  -19.3829  -15.4067 O   0  0  0  0  0  0  0  0  0  0  0  0
   20.8870  -19.8107  -13.8647 C   0  0  2  0  0  0  0  0  0  0  0  0
   21.7439  -19.9412  -15.0272 N   0  0  0  0  0  0  0  0  0  0  0  0
   20.3219  -21.1454  -13.5422 C   0  0  0  0  0  0  0  0  0  0  0  0
   20.4050  -22.1087  -14.3836 O   0  0  0  0  0  0  0  0  0  0  0  0
   16.6820  -26.8916   -9.7476 N   0  0  0  0  0  0  0  0  0  0  0  0
   17.9698  -27.0986   -9.1684 C   0  0  0  0  0  0  0  0  0  0  0  0
   18.4338  -28.2984   -9.0994 N   0  0  0  0  0  0  0  0  0  0  0  0
   18.7307  -26.0182   -8.6749 N   0  0  0  0  0  0  0  0  0  0  0  0
   18.2805  -24.6464   -8.9001 C   0  0  0  0  0  0  0  0  0  0  0  0
   18.2721  -24.3778  -10.3723 C   0  0  0  0  0  0  0  0  0  0  0  0
   18.9366  -23.0853  -10.6897 C   0  0  0  0  0  0  0  0  0  0  0  0
   19.0579  -22.7694  -12.1532 C   0  0  2  0  0  0  0  0  0  0  0  0
   19.6739  -21.4452  -12.3274 N   0  0  0  0  0  0  0  0  0  0  0  0
   17.7614  -22.7224  -12.8532 C   0  0  0  0  0  0  0  0  0  0  0  0
   17.2052  -23.8071  -13.5139 O   0  0  0  0  0  0  0  0  0  0  0  0
   17.1008  -21.6630  -12.8727 O   0  0  0  0  0  0  0  0  0  0  0  0
  2  1  1  1
  3  2  1  0
  4  3  1  0
  5  4  1  0
  5  6  2  0
  7  8  2  0
  7  2  1  0
  9  5  1  0
 11 10  1  6
 12 11  1  0
 13 11  1  0
 13 14  1  6
 14  7  1  0
 15 13  1  0
 16 15  2  0
 18 17  1  0
 18 19  2  0
 20 18  1  0
 21 20  1  0
 21 22  1  0
 24 23  1  1
 23 22  1  0
 24 25  1  0
 25 15  1  0
 26 27  1  0
 26 24  1  0
 28 26  2  0
M  END
$$$$
