ETR.pdb
     RDKit          3D

 28 27  0  0  1  0  0  0  0  0999 V2000
   22.1806  -21.2243  -15.1660 N   0  0  0  0  0  0  0  0  0  0  0  0
   22.8188  -20.2690  -14.2433 C   0  0  1  0  0  0  0  0  0  0  0  0
   22.8835  -18.9015  -14.9122 C   0  0  0  0  0  0  0  0  0  0  0  0
   22.7255  -19.0803  -16.4156 C   0  0  0  0  0  0  0  0  0  0  0  0
   23.8942  -18.4471  -17.0573 C   0  0  0  0  0  0  0  0  0  0  0  0
   25.0326  -18.9833  -17.0420 O   0  0  0  0  0  0  0  0  0  0  0  0
   21.9211  -20.1425  -13.0724 C   0  0  0  0  0  0  0  0  0  0  0  0
   22.1654  -19.3051  -12.1407 O   0  0  0  0  0  0  0  0  0  0  0  0
   23.7655  -17.2300  -17.7007 O   0  0  0  0  0  0  0  0  0  0  0  0
   18.9784  -18.6417  -12.2700 C   0  0  0  0  0  0  0  0  0  0  0  0
   18.5899  -20.1092  -12.3171 C   0  0  1  0  0  0  0  0  0  0  0  0
   18.3078  -20.5280  -13.6058 O   0  0  0  0  0  0  0  0  0  0  0  0
   19.8573  -20.8640  -11.8833 C   0  0  2  0  0  0  0  0  0  0  0  0
   20.7712  -20.9777  -13.0034 N   0  0  0  0  0  0  0  0  0  0  0  0
   19.4019  -22.2257  -11.5051 C   0  0  0  0  0  0  0  0  0  0  0  0
   19.6483  -23.2292  -12.2635 O   0  0  0  0  0  0  0  0  0  0  0  0
   16.3689  -25.9356   -4.0112 N   0  0  0  0  0  0  0  0  0  0  0  0
   17.6248  -26.2945   -4.5864 C   0  0  0  0  0  0  0  0  0  0  0  0
   18.5181  -26.8400   -3.8354 N   0  0  0  0  0  0  0  0  0  0  0  0
   17.8969  -26.0601   -5.9505 N   0  0  0  0  0  0  0  0  0  0  0  0
   16.9085  -25.3800   -6.7846 C   0  0  0  0  0  0  0  0  0  0  0  0
   17.3948  -25.3743   -8.1999 C   0  0  0  0  0  0  0  0  0  0  0  0
   17.8331  -24.0149   -8.6153 C   0  0  0  0  0  0  0  0  0  0  0  0
   18.3021  -23.8994  -10.0377 C   0  0  2  0  0  0  0  0  0  0  0  0
   18.6891  -22.5095  -10.3233 N   0  0  0  0  0  0  0  0  0  0  0  0
   17.2698  -24.2574  -11.0273 C   0  0  0  0  0  0  0  0  0  0  0  0
   16.3103  -23.3707  -11.4917 O   0  0  0  0  0  0  0  0  0  0  0  0
   17.2275  -25.4148  -11.4940 O   0  0  0  0  0  0  0  0  0  0  0  0
  2  1  1  6
  3  2  1  0
  4  3  1  0
  5  4  1  0
  5  6  2  0
  7  8  2  0
  7  2  1  0
  9  5  1  0
 11 10  1  6
 12 11  1  0
 13 11  1  0
 13 14  1  6
 14  7  1  0
 15 13  1  0
 16 15  2  0
 18 17  1  0
 18 19  2  0
 20 18  1  0
 21 20  1  0
 21 22  1  0
 24 23  1  1
 23 22  1  0
 24 25  1  0
 25 15  1  0
 26 27  1  0
 26 24  1  0
 28 26  2  0
M  END
$$$$
