ETR.pdb
     RDKit          3D

 28 27  0  0  1  0  0  0  0  0999 V2000
   27.2290  -25.6310  -16.8715 N   0  0  0  0  0  0  0  0  0  0  0  0
   26.0637  -24.7933  -17.2058 C   0  0  1  0  0  0  0  0  0  0  0  0
   24.8405  -25.6874  -17.3676 C   0  0  0  0  0  0  0  0  0  0  0  0
   24.9220  -26.3951  -18.7128 C   0  0  0  0  0  0  0  0  0  0  0  0
   23.7488  -27.2853  -18.8112 C   0  0  0  0  0  0  0  0  0  0  0  0
   23.5040  -27.9497  -19.8515 O   0  0  0  0  0  0  0  0  0  0  0  0
   25.8168  -23.9198  -16.0358 C   0  0  0  0  0  0  0  0  0  0  0  0
   26.2804  -24.2133  -14.8833 O   0  0  0  0  0  0  0  0  0  0  0  0
   22.8759  -27.4130  -17.7465 O   0  0  0  0  0  0  0  0  0  0  0  0
   26.7735  -20.4481  -15.5962 C   0  0  0  0  0  0  0  0  0  0  0  0
   25.2572  -20.4022  -15.5222 C   0  0  1  0  0  0  0  0  0  0  0  0
   24.6861  -20.1708  -16.7616 O   0  0  0  0  0  0  0  0  0  0  0  0
   24.8420  -21.8246  -15.1119 C   0  0  2  0  0  0  0  0  0  0  0  0
   25.0474  -22.7372  -16.2199 N   0  0  0  0  0  0  0  0  0  0  0  0
   23.3870  -21.7493  -14.8254 C   0  0  0  0  0  0  0  0  0  0  0  0
   22.5283  -21.9991  -15.7436 O   0  0  0  0  0  0  0  0  0  0  0  0
   18.4417  -24.0793   -8.4073 N   0  0  0  0  0  0  0  0  0  0  0  0
   18.6034  -24.4887   -9.7649 C   0  0  0  0  0  0  0  0  0  0  0  0
   18.4372  -25.7309  -10.0627 N   0  0  0  0  0  0  0  0  0  0  0  0
   18.9408  -23.5605  -10.7721 N   0  0  0  0  0  0  0  0  0  0  0  0
   19.2229  -22.1711  -10.4184 C   0  0  0  0  0  0  0  0  0  0  0  0
   19.5743  -21.4188  -11.6634 C   0  0  0  0  0  0  0  0  0  0  0  0
   21.0267  -21.5243  -11.9667 C   0  0  0  0  0  0  0  0  0  0  0  0
   21.3982  -21.3082  -13.4061 C   0  0  2  0  0  0  0  0  0  0  0  0
   22.8569  -21.4101  -13.5647 N   0  0  0  0  0  0  0  0  0  0  0  0
   21.0140  -19.9805  -13.9187 C   0  0  0  0  0  0  0  0  0  0  0  0
   19.7846  -19.7071  -14.4988 O   0  0  0  0  0  0  0  0  0  0  0  0
   21.8159  -19.0264  -13.8431 O   0  0  0  0  0  0  0  0  0  0  0  0
  2  1  1  1
  3  2  1  0
  4  3  1  0
  5  4  1  0
  5  6  2  0
  7  8  2  0
  7  2  1  0
  9  5  1  0
 11 10  1  6
 12 11  1  0
 13 11  1  0
 13 14  1  6
 14  7  1  0
 15 13  1  0
 16 15  2  0
 18 17  1  0
 18 19  2  0
 20 18  1  0
 21 20  1  0
 21 22  1  0
 24 23  1  1
 23 22  1  0
 24 25  1  0
 25 15  1  0
 26 27  1  0
 26 24  1  0
 28 26  2  0
M  END
$$$$
