ETR.pdb
     RDKit          3D

 28 27  0  0  1  0  0  0  0  0999 V2000
   28.5943  -21.3205  -15.1640 N   0  0  0  0  0  0  0  0  0  0  0  0
   27.8391  -20.2924  -14.4265 C   0  0  1  0  0  0  0  0  0  0  0  0
   27.2495  -19.3008  -15.4218 C   0  0  0  0  0  0  0  0  0  0  0  0
   28.3868  -18.5709  -16.1226 C   0  0  0  0  0  0  0  0  0  0  0  0
   27.7774  -17.6215  -17.0743 C   0  0  0  0  0  0  0  0  0  0  0  0
   27.4395  -16.4594  -16.7293 O   0  0  0  0  0  0  0  0  0  0  0  0
   26.7047  -20.9840  -13.7723 C   0  0  0  0  0  0  0  0  0  0  0  0
   26.2035  -22.0468  -14.2706 O   0  0  0  0  0  0  0  0  0  0  0  0
   27.5590  -17.9911  -18.3886 O   0  0  0  0  0  0  0  0  0  0  0  0
   26.6098  -21.8646  -10.1547 C   0  0  0  0  0  0  0  0  0  0  0  0
   25.3302  -21.0735  -10.3633 C   0  0  1  0  0  0  0  0  0  0  0  0
   25.4853  -19.7408  -10.0232 O   0  0  0  0  0  0  0  0  0  0  0  0
   25.0911  -21.1088  -11.8817 C   0  0  2  0  0  0  0  0  0  0  0  0
   26.1787  -20.4388  -12.5679 N   0  0  0  0  0  0  0  0  0  0  0  0
   23.8430  -20.3369  -12.1079 C   0  0  0  0  0  0  0  0  0  0  0  0
   23.8518  -19.2832  -12.8377 O   0  0  0  0  0  0  0  0  0  0  0  0
   18.2634  -23.7043  -16.8443 N   0  0  0  0  0  0  0  0  0  0  0  0
   18.3746  -22.3382  -17.2421 C   0  0  0  0  0  0  0  0  0  0  0  0
   17.5651  -21.8839  -18.1354 N   0  0  0  0  0  0  0  0  0  0  0  0
   19.3499  -21.4902  -16.6769 N   0  0  0  0  0  0  0  0  0  0  0  0
   20.2484  -21.9998  -15.6433 C   0  0  0  0  0  0  0  0  0  0  0  0
   20.1823  -21.0906  -14.4565 C   0  0  0  0  0  0  0  0  0  0  0  0
   21.3886  -21.2339  -13.5981 C   0  0  0  0  0  0  0  0  0  0  0  0
   21.3718  -20.4295  -12.3296 C   0  0  2  0  0  0  0  0  0  0  0  0
   22.5956  -20.6920  -11.5571 N   0  0  0  0  0  0  0  0  0  0  0  0
   20.2402  -20.7550  -11.4427 C   0  0  0  0  0  0  0  0  0  0  0  0
   19.1420  -19.9277  -11.2631 O   0  0  0  0  0  0  0  0  0  0  0  0
   20.2377  -21.8268  -10.8021 O   0  0  0  0  0  0  0  0  0  0  0  0
  2  1  1  6
  3  2  1  0
  4  3  1  0
  5  4  1  0
  5  6  2  0
  7  8  2  0
  7  2  1  0
  9  5  1  0
 11 10  1  6
 12 11  1  0
 13 11  1  0
 13 14  1  6
 14  7  1  0
 15 13  1  0
 16 15  2  0
 18 17  1  0
 18 19  2  0
 20 18  1  0
 21 20  1  0
 21 22  1  0
 24 23  1  6
 23 22  1  0
 24 25  1  0
 25 15  1  0
 26 27  1  0
 26 24  1  0
 28 26  2  0
M  END
$$$$
