ETR.pdb
     RDKit          3D

 28 27  0  0  1  0  0  0  0  0999 V2000
   27.7425  -18.5752  -18.5710 N   0  0  0  0  0  0  0  0  0  0  0  0
   26.6517  -18.1512  -17.6756 C   0  0  1  0  0  0  0  0  0  0  0  0
   25.4079  -17.8683  -18.5090 C   0  0  0  0  0  0  0  0  0  0  0  0
   25.4804  -18.6812  -19.7940 C   0  0  0  0  0  0  0  0  0  0  0  0
   25.5741  -17.7236  -20.9134 C   0  0  0  0  0  0  0  0  0  0  0  0
   26.5553  -17.7163  -21.7014 O   0  0  0  0  0  0  0  0  0  0  0  0
   26.3419  -19.3074  -16.8039 C   0  0  0  0  0  0  0  0  0  0  0  0
   25.8418  -20.3798  -17.2825 O   0  0  0  0  0  0  0  0  0  0  0  0
   24.5710  -16.7963  -21.1270 O   0  0  0  0  0  0  0  0  0  0  0  0
   28.6138  -21.3141  -15.1302 C   0  0  0  0  0  0  0  0  0  0  0  0
   27.8290  -20.7497  -13.9587 C   0  0  1  0  0  0  0  0  0  0  0  0
   28.3919  -19.5817  -13.4743 O   0  0  0  0  0  0  0  0  0  0  0  0
   26.4651  -20.3604  -14.5523 C   0  0  2  0  0  0  0  0  0  0  0  0
   26.6138  -19.2017  -15.4112 N   0  0  0  0  0  0  0  0  0  0  0  0
   25.6176  -19.9834  -13.3929 C   0  0  0  0  0  0  0  0  0  0  0  0
   25.4822  -18.7538  -13.0572 O   0  0  0  0  0  0  0  0  0  0  0  0
   20.6493  -22.4907   -7.8669 N   0  0  0  0  0  0  0  0  0  0  0  0
   19.7928  -21.3668   -8.0675 C   0  0  0  0  0  0  0  0  0  0  0  0
   19.0669  -20.9565   -7.0856 N   0  0  0  0  0  0  0  0  0  0  0  0
   19.7311  -20.7091   -9.3139 N   0  0  0  0  0  0  0  0  0  0  0  0
   20.5474  -21.1828  -10.4294 C   0  0  0  0  0  0  0  0  0  0  0  0
   21.9219  -20.6055  -10.2997 C   0  0  0  0  0  0  0  0  0  0  0  0
   22.7568  -20.9251  -11.4887 C   0  0  0  0  0  0  0  0  0  0  0  0
   24.1775  -20.4417  -11.4230 C   0  0  2  0  0  0  0  0  0  0  0  0
   24.9201  -20.9166  -12.6003 N   0  0  0  0  0  0  0  0  0  0  0  0
   24.9103  -20.9314  -10.2413 C   0  0  0  0  0  0  0  0  0  0  0  0
   24.9284  -20.2731   -9.0211 O   0  0  0  0  0  0  0  0  0  0  0  0
   25.5620  -21.9944  -10.3076 O   0  0  0  0  0  0  0  0  0  0  0  0
  2  1  1  6
  3  2  1  0
  4  3  1  0
  5  4  1  0
  5  6  2  0
  7  8  2  0
  7  2  1  0
  9  5  1  0
 11 10  1  6
 12 11  1  0
 13 11  1  0
 13 14  1  6
 14  7  1  0
 15 13  1  0
 16 15  2  0
 18 17  1  0
 18 19  2  0
 20 18  1  0
 21 20  1  0
 21 22  1  0
 24 23  1  6
 23 22  1  0
 24 25  1  0
 25 15  1  0
 26 27  1  0
 26 24  1  0
 28 26  2  0
M  END
$$$$
