ETR.pdb
     RDKit          3D

 28 27  0  0  1  0  0  0  0  0999 V2000
   25.1000  -18.1816  -16.5660 N   0  0  0  0  0  0  0  0  0  0  0  0
   24.0911  -19.2532  -16.6374 C   0  0  1  0  0  0  0  0  0  0  0  0
   24.7928  -20.6021  -16.5387 C   0  0  0  0  0  0  0  0  0  0  0  0
   25.3456  -20.9713  -17.9081 C   0  0  0  0  0  0  0  0  0  0  0  0
   24.3043  -21.7513  -18.6051 C   0  0  0  0  0  0  0  0  0  0  0  0
   23.3759  -22.3274  -17.9807 O   0  0  0  0  0  0  0  0  0  0  0  0
   23.2363  -19.1146  -15.4361 C   0  0  0  0  0  0  0  0  0  0  0  0
   23.4805  -18.2282  -14.5507 O   0  0  0  0  0  0  0  0  0  0  0  0
   24.3234  -21.8706  -19.9824 O   0  0  0  0  0  0  0  0  0  0  0  0
   19.5838  -18.9547  -16.0540 C   0  0  0  0  0  0  0  0  0  0  0  0
   20.2681  -18.4873  -14.7812 C   0  0  1  0  0  0  0  0  0  0  0  0
   19.3580  -18.2215  -13.7728 O   0  0  0  0  0  0  0  0  0  0  0  0
   21.0932  -19.6973  -14.3131 C   0  0  2  0  0  0  0  0  0  0  0  0
   22.1280  -19.9940  -15.2845 N   0  0  0  0  0  0  0  0  0  0  0  0
   20.1428  -20.8375  -14.2722 C   0  0  0  0  0  0  0  0  0  0  0  0
   19.6375  -21.3036  -15.3540 O   0  0  0  0  0  0  0  0  0  0  0  0
   18.4145  -28.2081  -11.4022 N   0  0  0  0  0  0  0  0  0  0  0  0
   19.6875  -27.6481  -11.0818 C   0  0  0  0  0  0  0  0  0  0  0  0
   20.7354  -28.3905  -11.1833 N   0  0  0  0  0  0  0  0  0  0  0  0
   19.8101  -26.3081  -10.6586 N   0  0  0  0  0  0  0  0  0  0  0  0
   18.6165  -25.4786  -10.5091 C   0  0  0  0  0  0  0  0  0  0  0  0
   18.3596  -24.7670  -11.8002 C   0  0  0  0  0  0  0  0  0  0  0  0
   19.0798  -23.4665  -11.8531 C   0  0  0  0  0  0  0  0  0  0  0  0
   18.9928  -22.7385  -13.1641 C   0  0  2  0  0  0  0  0  0  0  0  0
   19.7382  -21.4732  -13.0816 N   0  0  0  0  0  0  0  0  0  0  0  0
   17.6142  -22.3868  -13.5501 C   0  0  0  0  0  0  0  0  0  0  0  0
   16.9399  -21.2766  -13.0650 O   0  0  0  0  0  0  0  0  0  0  0  0
   16.9890  -23.1069  -14.3562 O   0  0  0  0  0  0  0  0  0  0  0  0
  2  1  1  1
  3  2  1  0
  4  3  1  0
  5  4  1  0
  5  6  2  0
  7  8  2  0
  7  2  1  0
  9  5  1  0
 11 10  1  6
 12 11  1  0
 13 11  1  0
 13 14  1  6
 14  7  1  0
 15 13  1  0
 16 15  2  0
 18 17  1  0
 18 19  2  0
 20 18  1  0
 21 20  1  0
 21 22  1  0
 24 23  1  1
 23 22  1  0
 24 25  1  0
 25 15  1  0
 26 27  1  0
 26 24  1  0
 28 26  2  0
M  END
$$$$
