ETR.pdb
     RDKit          3D

 28 27  0  0  1  0  0  0  0  0999 V2000
   32.3838  -13.0675  -18.5961 N   0  0  0  0  0  0  0  0  0  0  0  0
   31.1745  -12.5762  -19.2799 C   0  0  1  0  0  0  0  0  0  0  0  0
   30.1298  -13.6852  -19.2975 C   0  0  0  0  0  0  0  0  0  0  0  0
   30.5787  -14.7698  -20.2667 C   0  0  0  0  0  0  0  0  0  0  0  0
   29.5197  -15.7976  -20.2950 C   0  0  0  0  0  0  0  0  0  0  0  0
   28.7307  -15.9122  -21.2687 O   0  0  0  0  0  0  0  0  0  0  0  0
   30.6325  -11.4761  -18.4499 C   0  0  0  0  0  0  0  0  0  0  0  0
   30.6964  -11.5174  -17.1758 O   0  0  0  0  0  0  0  0  0  0  0  0
   29.3656  -16.6732  -19.2361 O   0  0  0  0  0  0  0  0  0  0  0  0
   29.4249   -6.8814  -17.9429 C   0  0  0  0  0  0  0  0  0  0  0  0
   30.2035   -7.9598  -18.6761 C   0  0  1  0  0  0  0  0  0  0  0  0
   31.4962   -8.0807  -18.1962 O   0  0  0  0  0  0  0  0  0  0  0  0
   29.4846   -9.2718  -18.3211 C   0  0  2  0  0  0  0  0  0  0  0  0
   30.0342  -10.3624  -19.1027 N   0  0  0  0  0  0  0  0  0  0  0  0
   28.0683   -9.0719  -18.7196 C   0  0  0  0  0  0  0  0  0  0  0  0
   27.7210   -9.1477  -19.9511 O   0  0  0  0  0  0  0  0  0  0  0  0
   20.7617  -13.1140  -17.5778 N   0  0  0  0  0  0  0  0  0  0  0  0
   20.4377  -12.0173  -18.4317 C   0  0  0  0  0  0  0  0  0  0  0  0
   19.3085  -12.0260  -19.0516 N   0  0  0  0  0  0  0  0  0  0  0  0
   21.3293  -10.9380  -18.6042 N   0  0  0  0  0  0  0  0  0  0  0  0
   22.6777  -11.0098  -18.0457 C   0  0  0  0  0  0  0  0  0  0  0  0
   23.4083   -9.7493  -18.3873 C   0  0  0  0  0  0  0  0  0  0  0  0
   24.8403   -9.8308  -17.9929 C   0  0  0  0  0  0  0  0  0  0  0  0
   25.6626   -8.6143  -18.3098 C   0  0  2  0  0  0  0  0  0  0  0  0
   27.0326   -8.7941  -17.8055 N   0  0  0  0  0  0  0  0  0  0  0  0
   25.1480   -7.3798  -17.6900 C   0  0  0  0  0  0  0  0  0  0  0  0
   25.6579   -6.8368  -16.5204 O   0  0  0  0  0  0  0  0  0  0  0  0
   24.2005   -6.7633  -18.2205 O   0  0  0  0  0  0  0  0  0  0  0  0
  2  1  1  1
  3  2  1  0
  4  3  1  0
  5  4  1  0
  5  6  2  0
  7  8  2  0
  7  2  1  0
  9  5  1  0
 11 10  1  1
 12 11  1  0
 13 11  1  0
 13 14  1  6
 14  7  1  0
 15 13  1  0
 16 15  2  0
 18 17  1  0
 18 19  2  0
 20 18  1  0
 21 20  1  0
 21 22  1  0
 24 23  1  1
 23 22  1  0
 24 25  1  0
 25 15  1  0
 26 27  1  0
 26 24  1  0
 28 26  2  0
M  END
$$$$
