ETR.pdb
     RDKit          3D

 28 27  0  0  1  0  0  0  0  0999 V2000
   29.4350   -9.5137  -18.6157 N   0  0  0  0  0  0  0  0  0  0  0  0
   28.4684  -10.1089  -19.5551 C   0  0  1  0  0  0  0  0  0  0  0  0
   29.0918  -11.3456  -20.1906 C   0  0  0  0  0  0  0  0  0  0  0  0
   30.4735  -10.9851  -20.7181 C   0  0  0  0  0  0  0  0  0  0  0  0
   31.0002  -12.1747  -21.4153 C   0  0  0  0  0  0  0  0  0  0  0  0
   30.3662  -13.2613  -21.4473 O   0  0  0  0  0  0  0  0  0  0  0  0
   27.3144  -10.5655  -18.7472 C   0  0  0  0  0  0  0  0  0  0  0  0
   26.6258  -11.5823  -19.0952 O   0  0  0  0  0  0  0  0  0  0  0  0
   32.2222  -12.1241  -22.0603 O   0  0  0  0  0  0  0  0  0  0  0  0
   27.0854  -11.8927  -15.4450 C   0  0  0  0  0  0  0  0  0  0  0  0
   26.3371  -10.5767  -15.3229 C   0  0  1  0  0  0  0  0  0  0  0  0
   27.1748   -9.5382  -14.9547 O   0  0  0  0  0  0  0  0  0  0  0  0
   25.8597  -10.2637  -16.7506 C   0  0  2  0  0  0  0  0  0  0  0  0
   26.9835   -9.8450  -17.5657 N   0  0  0  0  0  0  0  0  0  0  0  0
   24.9214   -9.1208  -16.6168 C   0  0  0  0  0  0  0  0  0  0  0  0
   25.2899   -7.9347  -16.9336 O   0  0  0  0  0  0  0  0  0  0  0  0
   18.1736   -7.2169  -20.6455 N   0  0  0  0  0  0  0  0  0  0  0  0
   19.4414   -6.5627  -20.6054 C   0  0  0  0  0  0  0  0  0  0  0  0
   19.8929   -6.0177  -21.6817 N   0  0  0  0  0  0  0  0  0  0  0  0
   20.1976   -6.5082  -19.4159 N   0  0  0  0  0  0  0  0  0  0  0  0
   19.6950   -7.1485  -18.2024 C   0  0  0  0  0  0  0  0  0  0  0  0
   20.7130   -6.9901  -17.1171 C   0  0  0  0  0  0  0  0  0  0  0  0
   21.7384   -8.0662  -17.1767 C   0  0  0  0  0  0  0  0  0  0  0  0
   22.7501   -8.0497  -16.0665 C   0  0  2  0  0  0  0  0  0  0  0  0
   23.5987   -9.2483  -16.1481 N   0  0  0  0  0  0  0  0  0  0  0  0
   22.1463   -8.0562  -14.7217 C   0  0  0  0  0  0  0  0  0  0  0  0
   21.5756   -6.9394  -14.1302 O   0  0  0  0  0  0  0  0  0  0  0  0
   22.1309   -9.1085  -14.0496 O   0  0  0  0  0  0  0  0  0  0  0  0
  2  1  1  1
  3  2  1  0
  4  3  1  0
  5  4  1  0
  5  6  2  0
  7  8  2  0
  7  2  1  0
  9  5  1  0
 11 10  1  6
 12 11  1  0
 13 11  1  0
 13 14  1  6
 14  7  1  0
 15 13  1  0
 16 15  2  0
 18 17  1  0
 18 19  2  0
 20 18  1  0
 21 20  1  0
 21 22  1  0
 24 23  1  6
 23 22  1  0
 24 25  1  0
 25 15  1  0
 26 27  1  0
 26 24  1  0
 28 26  2  0
M  END
$$$$
