ETR.pdb
     RDKit          3D

 28 27  0  0  1  0  0  0  0  0999 V2000
   27.6081  -16.2652  -16.8431 N   0  0  0  0  0  0  0  0  0  0  0  0
   26.5757  -16.2481  -15.7918 C   0  0  1  0  0  0  0  0  0  0  0  0
   25.4391  -15.3318  -16.2280 C   0  0  0  0  0  0  0  0  0  0  0  0
   25.7725  -13.9040  -15.8189 C   0  0  0  0  0  0  0  0  0  0  0  0
   26.4133  -13.2542  -16.9790 C   0  0  0  0  0  0  0  0  0  0  0  0
   26.3125  -13.7227  -18.1426 O   0  0  0  0  0  0  0  0  0  0  0  0
   26.0262  -17.6208  -15.7115 C   0  0  0  0  0  0  0  0  0  0  0  0
   25.5862  -18.2176  -16.7505 O   0  0  0  0  0  0  0  0  0  0  0  0
   27.1519  -12.0971  -16.8135 O   0  0  0  0  0  0  0  0  0  0  0  0
   27.3056  -20.4876  -15.6933 C   0  0  0  0  0  0  0  0  0  0  0  0
   26.6718  -20.6168  -14.3191 C   0  0  1  0  0  0  0  0  0  0  0  0
   27.5253  -20.1944  -13.3146 O   0  0  0  0  0  0  0  0  0  0  0  0
   25.4965  -19.6255  -14.3352 C   0  0  2  0  0  0  0  0  0  0  0  0
   25.9970  -18.2690  -14.4452 N   0  0  0  0  0  0  0  0  0  0  0  0
   24.8278  -19.7770  -13.0181 C   0  0  0  0  0  0  0  0  0  0  0  0
   24.9528  -18.8747  -12.1164 O   0  0  0  0  0  0  0  0  0  0  0  0
   20.9923  -23.6924   -8.3560 N   0  0  0  0  0  0  0  0  0  0  0  0
   19.7003  -23.1034   -8.2119 C   0  0  0  0  0  0  0  0  0  0  0  0
   19.0459  -23.3021   -7.1202 N   0  0  0  0  0  0  0  0  0  0  0  0
   19.1374  -22.3173   -9.2390 N   0  0  0  0  0  0  0  0  0  0  0  0
   19.8361  -22.1755  -10.5146 C   0  0  0  0  0  0  0  0  0  0  0  0
   21.2004  -21.6172  -10.2570 C   0  0  0  0  0  0  0  0  0  0  0  0
   21.9557  -21.4293  -11.5247 C   0  0  0  0  0  0  0  0  0  0  0  0
   23.3519  -20.8984  -11.3663 C   0  0  2  0  0  0  0  0  0  0  0  0
   24.0311  -20.8860  -12.6709 N   0  0  0  0  0  0  0  0  0  0  0  0
   24.1906  -21.7109  -10.4664 C   0  0  0  0  0  0  0  0  0  0  0  0
   24.3172  -21.4688   -9.1070 O   0  0  0  0  0  0  0  0  0  0  0  0
   24.8369  -22.6782  -10.9200 O   0  0  0  0  0  0  0  0  0  0  0  0
  2  1  1  6
  3  2  1  0
  4  3  1  0
  5  4  1  0
  5  6  2  0
  7  8  2  0
  7  2  1  0
  9  5  1  0
 11 10  1  6
 12 11  1  0
 13 11  1  0
 13 14  1  1
 14  7  1  0
 15 13  1  0
 16 15  2  0
 18 17  1  0
 18 19  2  0
 20 18  1  0
 21 20  1  0
 21 22  1  0
 24 23  1  6
 23 22  1  0
 24 25  1  0
 25 15  1  0
 26 27  1  0
 26 24  1  0
 28 26  2  0
M  END
$$$$
