ETR.pdb
     RDKit          3D

 28 27  0  0  1  0  0  0  0  0999 V2000
   25.5485  -21.6045  -10.0439 N   0  0  0  0  0  0  0  0  0  0  0  0
   24.3299  -21.2849  -10.8081 C   0  0  1  0  0  0  0  0  0  0  0  0
   23.5104  -20.2628  -10.0300 C   0  0  0  0  0  0  0  0  0  0  0  0
   22.0312  -20.5452  -10.2521 C   0  0  0  0  0  0  0  0  0  0  0  0
   21.5924  -21.4546   -9.1754 C   0  0  0  0  0  0  0  0  0  0  0  0
   22.3818  -21.8552   -8.2811 O   0  0  0  0  0  0  0  0  0  0  0  0
   24.7717  -20.6307  -12.0610 C   0  0  0  0  0  0  0  0  0  0  0  0
   26.0073  -20.4045  -12.2874 O   0  0  0  0  0  0  0  0  0  0  0  0
   20.2832  -21.8959   -9.1222 O   0  0  0  0  0  0  0  0  0  0  0  0
   26.2142  -21.0041  -14.3098 C   0  0  0  0  0  0  0  0  0  0  0  0
   24.9565  -20.7227  -15.1134 C   0  0  1  0  0  0  0  0  0  0  0  0
   24.1372  -21.8352  -15.1976 O   0  0  0  0  0  0  0  0  0  0  0  0
   24.1879  -19.6796  -14.2855 C   0  0  2  0  0  0  0  0  0  0  0  0
   23.7866  -20.2555  -13.0167 N   0  0  0  0  0  0  0  0  0  0  0  0
   22.9666  -19.3676  -15.0700 C   0  0  0  0  0  0  0  0  0  0  0  0
   21.8202  -19.7957  -14.6888 O   0  0  0  0  0  0  0  0  0  0  0  0
   19.0849  -12.8457  -16.0699 N   0  0  0  0  0  0  0  0  0  0  0  0
   17.9282  -13.6793  -16.0076 C   0  0  0  0  0  0  0  0  0  0  0  0
   16.7866  -13.1826  -16.3385 N   0  0  0  0  0  0  0  0  0  0  0  0
   18.0188  -15.0240  -15.5913 N   0  0  0  0  0  0  0  0  0  0  0  0
   19.3015  -15.5648  -15.1469 C   0  0  0  0  0  0  0  0  0  0  0  0
   19.8404  -16.4650  -16.2140 C   0  0  0  0  0  0  0  0  0  0  0  0
   21.1051  -17.1182  -15.7821 C   0  0  0  0  0  0  0  0  0  0  0  0
   21.7023  -18.0766  -16.7728 C   0  0  2  0  0  0  0  0  0  0  0  0
   22.9739  -18.6022  -16.2531 N   0  0  0  0  0  0  0  0  0  0  0  0
   22.0070  -17.4595  -18.0764 C   0  0  0  0  0  0  0  0  0  0  0  0
   21.0562  -17.2311  -19.0595 O   0  0  0  0  0  0  0  0  0  0  0  0
   23.1759  -17.1113  -18.3440 O   0  0  0  0  0  0  0  0  0  0  0  0
  2  1  1  1
  3  2  1  0
  4  3  1  0
  5  4  1  0
  5  6  2  0
  7  8  2  0
  7  2  1  0
  9  5  1  0
 11 10  1  1
 12 11  1  0
 13 11  1  0
 13 14  1  1
 14  7  1  0
 15 13  1  0
 16 15  2  0
 18 17  1  0
 18 19  2  0
 20 18  1  0
 21 20  1  0
 21 22  1  0
 24 23  1  1
 23 22  1  0
 24 25  1  0
 25 15  1  0
 26 27  1  0
 26 24  1  0
 28 26  2  0
M  END
$$$$
