DWC.pdb
     RDKit          3D

 29 30  0  0  1  0  0  0  0  0999 V2000
   10.1686  -18.0458   20.8306 N   0  0  0  0  0  0  0  0  0  0  0  0
   11.0215  -16.8975   21.0229 C   0  0  1  0  0  0  0  0  0  0  0  0
   11.0126  -16.1257   19.7316 C   0  0  0  0  0  0  0  0  0  0  0  0
   11.8022  -16.7304   18.6554 C   0  0  0  0  0  0  0  0  0  0  0  0
   12.4675  -17.7712   18.8939 O   0  0  0  0  0  0  0  0  0  0  0  0
   10.5770  -16.1068   22.1900 C   0  0  0  0  0  0  0  0  0  0  0  0
   11.0131  -14.9727   22.4889 O   0  0  0  0  0  0  0  0  0  0  0  0
   11.8644  -16.2255   17.3798 O   0  0  0  0  0  0  0  0  0  0  0  0
    9.5876  -16.6638   23.0357 N   0  0  0  0  0  0  0  0  0  0  0  0
    9.1770  -15.9647   24.2658 C   0  0  1  0  0  0  0  0  0  0  0  0
    7.9281  -16.5467   24.8090 C   0  0  0  0  0  0  0  0  0  0  0  0
    6.9630  -15.5313   25.2460 C   0  0  0  0  0  0  0  0  0  0  0  0
    5.6250  -15.7125   25.6222 C   0  0  0  0  0  0  0  0  0  0  0  0
    5.0930  -14.5158   25.9148 N   0  0  0  0  0  0  0  0  0  0  0  0
    5.9897  -13.5354   25.7596 C   0  0  0  0  0  0  0  0  0  0  0  0
    5.9570  -12.1523   25.9231 C   0  0  0  0  0  0  0  0  0  0  0  0
    7.0958  -11.3993   25.6687 C   0  0  0  0  0  0  0  0  0  0  0  0
    8.2564  -12.0028   25.2567 C   0  0  0  0  0  0  0  0  0  0  0  0
    8.2611  -13.3810   25.1019 C   0  0  0  0  0  0  0  0  0  0  0  0
    7.1459  -14.1462   25.3480 C   0  0  0  0  0  0  0  0  0  0  0  0
   10.2745  -16.1695   25.2245 C   0  0  0  0  0  0  0  0  0  0  0  0
   11.0853  -17.1340   24.9848 O   0  0  0  0  0  0  0  0  0  0  0  0
   10.5395  -15.4152   26.3814 N   0  0  0  0  0  0  0  0  0  0  0  0
   11.4997  -15.8314   27.3759 C   0  0  1  0  0  0  0  0  0  0  0  0
   11.5090  -14.8712   28.5597 C   0  0  0  0  0  0  0  0  0  0  0  0
    9.8169  -14.2901   28.8576 S   0  0  0  0  0  0  0  0  0  0  0  0
   11.3158  -17.1736   27.9104 C   0  0  0  0  0  0  0  0  0  0  0  0
   10.2123  -17.7599   27.6283 O   0  0  0  0  0  0  0  0  0  0  0  0
   12.1872  -17.9018   28.6889 O   0  0  0  0  0  0  0  0  0  0  0  0
  2  1  1  6
  2  6  1  0
  3  2  1  0
  3  4  1  0
  4  8  1  0
  5  4  2  0
  6  9  1  0
  7  6  2  0
  9 10  1  0
 10 11  1  1
 12 11  1  0
 13 12  2  0
 14 13  1  0
 15 14  1  0
 15 20  2  0
 16 15  1  0
 17 16  2  0
 17 18  1  0
 18 19  2  0
 19 20  1  0
 20 12  1  0
 21 22  2  0
 21 10  1  0
 23 21  1  0
 24 23  1  0
 24 27  1  0
 24 25  1  1
 26 25  1  0
 27 29  1  0
 28 27  2  0
M  END
$$$$
