DWC.pdb
     RDKit          3D

 29 30  0  0  1  0  0  0  0  0999 V2000
   10.7956  -18.1815   21.4154 N   0  0  0  0  0  0  0  0  0  0  0  0
   11.8169  -17.2267   21.7733 C   0  0  1  0  0  0  0  0  0  0  0  0
   12.0910  -16.4000   20.5466 C   0  0  0  0  0  0  0  0  0  0  0  0
   13.0522  -16.9947   19.6140 C   0  0  0  0  0  0  0  0  0  0  0  0
   13.4873  -18.1536   19.8384 O   0  0  0  0  0  0  0  0  0  0  0  0
   11.3981  -16.4289   22.9451 C   0  0  0  0  0  0  0  0  0  0  0  0
   11.9882  -15.4050   23.3565 O   0  0  0  0  0  0  0  0  0  0  0  0
   13.5175  -16.3575   18.4900 O   0  0  0  0  0  0  0  0  0  0  0  0
   10.2487  -16.8449   23.6593 N   0  0  0  0  0  0  0  0  0  0  0  0
    9.7595  -16.0626   24.8078 C   0  0  1  0  0  0  0  0  0  0  0  0
    8.2969  -16.2284   24.9718 C   0  0  0  0  0  0  0  0  0  0  0  0
    7.5345  -15.0422   24.5655 C   0  0  0  0  0  0  0  0  0  0  0  0
    6.9544  -14.7699   23.3190 C   0  0  0  0  0  0  0  0  0  0  0  0
    6.3820  -13.5570   23.3649 N   0  0  0  0  0  0  0  0  0  0  0  0
    6.5394  -12.9917   24.5670 C   0  0  0  0  0  0  0  0  0  0  0  0
    6.1536  -11.7766   25.1286 C   0  0  0  0  0  0  0  0  0  0  0  0
    6.4878  -11.4867   26.4450 C   0  0  0  0  0  0  0  0  0  0  0  0
    7.1957  -12.3852   27.2016 C   0  0  0  0  0  0  0  0  0  0  0  0
    7.5672  -13.5871   26.6176 C   0  0  0  0  0  0  0  0  0  0  0  0
    7.2473  -13.8952   25.3166 C   0  0  0  0  0  0  0  0  0  0  0  0
   10.4530  -16.6089   25.9851 C   0  0  0  0  0  0  0  0  0  0  0  0
   10.9767  -17.7734   25.8646 O   0  0  0  0  0  0  0  0  0  0  0  0
   10.6123  -15.9885   27.2370 N   0  0  0  0  0  0  0  0  0  0  0  0
   11.3671  -16.5900   28.3106 C   0  0  1  0  0  0  0  0  0  0  0  0
   11.3914  -15.6823   29.5349 C   0  0  0  0  0  0  0  0  0  0  0  0
   10.8344  -14.0260   29.0488 S   0  0  0  0  0  0  0  0  0  0  0  0
   10.9056  -17.8986   28.7528 C   0  0  0  0  0  0  0  0  0  0  0  0
   11.5766  -18.4602   29.6886 O   0  0  0  0  0  0  0  0  0  0  0  0
    9.8272  -18.6176   28.2885 O   0  0  0  0  0  0  0  0  0  0  0  0
  2  1  1  6
  2  6  1  0
  3  2  1  0
  3  4  1  0
  4  8  1  0
  5  4  2  0
  6  9  1  0
  7  6  2  0
  9 10  1  0
 10 11  1  1
 12 11  1  0
 13 12  2  0
 14 13  1  0
 15 14  1  0
 15 20  2  0
 16 15  1  0
 17 16  2  0
 17 18  1  0
 18 19  2  0
 19 20  1  0
 20 12  1  0
 21 22  2  0
 21 10  1  0
 23 21  1  0
 24 23  1  0
 24 27  1  0
 24 25  1  1
 26 25  1  0
 27 29  1  0
 28 27  2  0
M  END
$$$$
