DWC.pdb
     RDKit          3D

 29 30  0  0  1  0  0  0  0  0999 V2000
    8.0321  -17.1246   21.0529 N   0  0  0  0  0  0  0  0  0  0  0  0
    9.2765  -16.4414   20.7927 C   0  0  1  0  0  0  0  0  0  0  0  0
    8.9736  -15.3402   19.8135 C   0  0  0  0  0  0  0  0  0  0  0  0
    8.5072  -15.8018   18.5033 C   0  0  0  0  0  0  0  0  0  0  0  0
    8.3096  -17.0309   18.3212 O   0  0  0  0  0  0  0  0  0  0  0  0
    9.8835  -15.9643   22.0533 C   0  0  0  0  0  0  0  0  0  0  0  0
   10.7844  -15.0990   22.1263 O   0  0  0  0  0  0  0  0  0  0  0  0
    8.2674  -14.9645   17.4414 O   0  0  0  0  0  0  0  0  0  0  0  0
    9.4190  -16.5200   23.2697 N   0  0  0  0  0  0  0  0  0  0  0  0
    9.9863  -16.0800   24.5563 C   0  0  1  0  0  0  0  0  0  0  0  0
    9.0742  -16.4141   25.6743 C   0  0  0  0  0  0  0  0  0  0  0  0
    7.8350  -15.6282   25.6601 C   0  0  0  0  0  0  0  0  0  0  0  0
    6.5323  -16.0691   25.3895 C   0  0  0  0  0  0  0  0  0  0  0  0
    5.7003  -15.0177   25.4462 N   0  0  0  0  0  0  0  0  0  0  0  0
    6.3607  -13.8918   25.7388 C   0  0  0  0  0  0  0  0  0  0  0  0
    5.9864  -12.5609   25.9100 C   0  0  0  0  0  0  0  0  0  0  0  0
    6.9477  -11.6066   26.2161 C   0  0  0  0  0  0  0  0  0  0  0  0
    8.2659  -11.9597   26.3525 C   0  0  0  0  0  0  0  0  0  0  0  0
    8.6109  -13.2914   26.1766 C   0  0  0  0  0  0  0  0  0  0  0  0
    7.6763  -14.2529   25.8732 C   0  0  0  0  0  0  0  0  0  0  0  0
   11.2472  -16.8229   24.7094 C   0  0  0  0  0  0  0  0  0  0  0  0
   11.2496  -18.0501   24.3367 O   0  0  0  0  0  0  0  0  0  0  0  0
   12.4627  -16.3313   25.2179 N   0  0  0  0  0  0  0  0  0  0  0  0
   13.6131  -17.1770   25.4312 C   0  0  1  0  0  0  0  0  0  0  0  0
   14.9073  -16.3903   25.2586 C   0  0  0  0  0  0  0  0  0  0  0  0
   14.8176  -15.4444   23.7136 S   0  0  0  0  0  0  0  0  0  0  0  0
   13.6803  -17.8393   26.7265 C   0  0  0  0  0  0  0  0  0  0  0  0
   12.7319  -17.5900   27.5509 O   0  0  0  0  0  0  0  0  0  0  0  0
   14.6441  -18.7099   27.1835 O   0  0  0  0  0  0  0  0  0  0  0  0
  2  1  1  1
  2  6  1  0
  3  2  1  0
  3  4  1  0
  4  8  1  0
  5  4  2  0
  6  9  1  0
  7  6  2  0
  9 10  1  0
 10 11  1  1
 12 11  1  0
 13 12  2  0
 14 13  1  0
 15 14  1  0
 15 20  2  0
 16 15  1  0
 17 16  2  0
 17 18  1  0
 18 19  2  0
 19 20  1  0
 20 12  1  0
 21 22  2  0
 21 10  1  0
 23 21  1  0
 24 23  1  0
 24 27  1  0
 24 25  1  1
 26 25  1  0
 27 29  1  0
 28 27  2  0
M  END
$$$$
