DWC.pdb
     RDKit          3D

 29 30  0  0  1  0  0  0  0  0999 V2000
   10.3581  -17.9988   20.7940 N   0  0  0  0  0  0  0  0  0  0  0  0
   11.2653  -16.9139   21.0822 C   0  0  1  0  0  0  0  0  0  0  0  0
   11.3411  -16.0667   19.8413 C   0  0  0  0  0  0  0  0  0  0  0  0
   12.1168  -16.6572   18.7473 C   0  0  0  0  0  0  0  0  0  0  0  0
   13.1520  -17.3192   19.0178 O   0  0  0  0  0  0  0  0  0  0  0  0
   10.8260  -16.1709   22.2822 C   0  0  0  0  0  0  0  0  0  0  0  0
   11.3223  -15.0900   22.6710 O   0  0  0  0  0  0  0  0  0  0  0  0
   11.7812  -16.5328   17.4215 O   0  0  0  0  0  0  0  0  0  0  0  0
    9.7692  -16.7128   23.0528 N   0  0  0  0  0  0  0  0  0  0  0  0
    9.3149  -16.0338   24.2788 C   0  0  1  0  0  0  0  0  0  0  0  0
    8.0447  -16.6207   24.7644 C   0  0  0  0  0  0  0  0  0  0  0  0
    7.1029  -15.6153   25.2701 C   0  0  0  0  0  0  0  0  0  0  0  0
    5.7704  -15.7972   25.6647 C   0  0  0  0  0  0  0  0  0  0  0  0
    5.2613  -14.6093   26.0260 N   0  0  0  0  0  0  0  0  0  0  0  0
    6.1684  -13.6343   25.8999 C   0  0  0  0  0  0  0  0  0  0  0  0
    6.1584  -12.2605   26.1310 C   0  0  0  0  0  0  0  0  0  0  0  0
    7.3023  -11.5109   25.8898 C   0  0  0  0  0  0  0  0  0  0  0  0
    8.4458  -12.1087   25.4250 C   0  0  0  0  0  0  0  0  0  0  0  0
    8.4280  -13.4777   25.2035 C   0  0  0  0  0  0  0  0  0  0  0  0
    7.3073  -14.2394   25.4353 C   0  0  0  0  0  0  0  0  0  0  0  0
   10.3750  -16.2594   25.2742 C   0  0  0  0  0  0  0  0  0  0  0  0
   11.0716  -17.3293   25.1514 O   0  0  0  0  0  0  0  0  0  0  0  0
   10.7166  -15.4223   26.3513 N   0  0  0  0  0  0  0  0  0  0  0  0
   11.5153  -15.8773   27.4645 C   0  0  1  0  0  0  0  0  0  0  0  0
   11.5762  -14.8192   28.5599 C   0  0  0  0  0  0  0  0  0  0  0  0
   10.1597  -13.7014   28.3759 S   0  0  0  0  0  0  0  0  0  0  0  0
   11.0817  -17.1198   28.0885 C   0  0  0  0  0  0  0  0  0  0  0  0
   11.8785  -17.6434   28.9441 O   0  0  0  0  0  0  0  0  0  0  0  0
    9.9107  -17.8114   27.8740 O   0  0  0  0  0  0  0  0  0  0  0  0
  2  1  1  6
  2  6  1  0
  3  2  1  0
  3  4  1  0
  4  8  1  0
  5  4  2  0
  6  9  1  0
  7  6  2  0
  9 10  1  0
 10 11  1  1
 12 11  1  0
 13 12  2  0
 14 13  1  0
 15 14  1  0
 15 20  2  0
 16 15  1  0
 17 16  2  0
 17 18  1  0
 18 19  2  0
 19 20  1  0
 20 12  1  0
 21 22  2  0
 21 10  1  0
 23 21  1  0
 24 23  1  0
 24 27  1  0
 24 25  1  1
 26 25  1  0
 27 29  1  0
 28 27  2  0
M  END
$$$$
