DWC.pdb
     RDKit          3D

 29 30  0  0  1  0  0  0  0  0999 V2000
    9.7148  -17.4620   21.1597 N   0  0  0  0  0  0  0  0  0  0  0  0
   10.8746  -16.6777   21.5100 C   0  0  1  0  0  0  0  0  0  0  0  0
   11.0353  -15.6334   20.4391 C   0  0  0  0  0  0  0  0  0  0  0  0
   11.3967  -16.1630   19.1216 C   0  0  0  0  0  0  0  0  0  0  0  0
   11.4271  -17.4089   18.9491 O   0  0  0  0  0  0  0  0  0  0  0  0
   10.7336  -16.1163   22.8702 C   0  0  0  0  0  0  0  0  0  0  0  0
   11.3888  -15.1455   23.3106 O   0  0  0  0  0  0  0  0  0  0  0  0
   11.7104  -15.3733   18.0427 O   0  0  0  0  0  0  0  0  0  0  0  0
    9.7926  -16.7125   23.7439 N   0  0  0  0  0  0  0  0  0  0  0  0
    9.5208  -16.1201   25.0652 C   0  0  1  0  0  0  0  0  0  0  0  0
    8.2412  -16.6248   25.6140 C   0  0  0  0  0  0  0  0  0  0  0  0
    7.1607  -15.6333   25.5586 C   0  0  0  0  0  0  0  0  0  0  0  0
    5.7912  -15.8543   25.3588 C   0  0  0  0  0  0  0  0  0  0  0  0
    5.1609  -14.6697   25.3409 N   0  0  0  0  0  0  0  0  0  0  0  0
    6.0207  -13.6602   25.5164 C   0  0  0  0  0  0  0  0  0  0  0  0
    5.8944  -12.2741   25.5770 C   0  0  0  0  0  0  0  0  0  0  0  0
    7.0204  -11.4856   25.7744 C   0  0  0  0  0  0  0  0  0  0  0  0
    8.2597  -12.0568   25.9110 C   0  0  0  0  0  0  0  0  0  0  0  0
    8.3569  -13.4388   25.8466 C   0  0  0  0  0  0  0  0  0  0  0  0
    7.2561  -14.2389   25.6519 C   0  0  0  0  0  0  0  0  0  0  0  0
   10.6318  -16.5494   25.9294 C   0  0  0  0  0  0  0  0  0  0  0  0
   11.3573  -17.5193   25.5073 O   0  0  0  0  0  0  0  0  0  0  0  0
   10.9939  -16.0062   27.1749 N   0  0  0  0  0  0  0  0  0  0  0  0
   12.0093  -16.5975   28.0136 C   0  0  1  0  0  0  0  0  0  0  0  0
   12.3286  -15.6961   29.2005 C   0  0  0  0  0  0  0  0  0  0  0  0
   10.7743  -15.0912   29.9132 S   0  0  0  0  0  0  0  0  0  0  0  0
   11.7011  -17.9179   28.5452 C   0  0  0  0  0  0  0  0  0  0  0  0
   10.4968  -18.3303   28.4010 O   0  0  0  0  0  0  0  0  0  0  0  0
   12.5490  -18.7902   29.1900 O   0  0  0  0  0  0  0  0  0  0  0  0
  2  1  1  6
  2  6  1  0
  3  2  1  0
  3  4  1  0
  4  8  1  0
  5  4  2  0
  6  9  1  0
  7  6  2  0
  9 10  1  0
 10 11  1  1
 12 11  1  0
 13 12  2  0
 14 13  1  0
 15 14  1  0
 15 20  2  0
 16 15  1  0
 17 16  2  0
 17 18  1  0
 18 19  2  0
 19 20  1  0
 20 12  1  0
 21 22  2  0
 21 10  1  0
 23 21  1  0
 24 23  1  0
 24 27  1  0
 24 25  1  1
 26 25  1  0
 27 29  1  0
 28 27  2  0
M  END
$$$$
