DWC.pdb
     RDKit          3D

 29 30  0  0  1  0  0  0  0  0999 V2000
    9.2033  -17.4814   21.4376 N   0  0  0  0  0  0  0  0  0  0  0  0
   10.5413  -16.9769   21.6331 C   0  0  1  0  0  0  0  0  0  0  0  0
   10.7798  -15.9458   20.5639 C   0  0  0  0  0  0  0  0  0  0  0  0
   11.0243  -16.4984   19.2290 C   0  0  0  0  0  0  0  0  0  0  0  0
   10.9871  -17.7453   19.0655 O   0  0  0  0  0  0  0  0  0  0  0  0
   10.7075  -16.4568   23.0068 C   0  0  0  0  0  0  0  0  0  0  0  0
   11.6646  -15.7464   23.3876 O   0  0  0  0  0  0  0  0  0  0  0  0
   11.2965  -15.7295   18.1241 O   0  0  0  0  0  0  0  0  0  0  0  0
    9.7185  -16.7800   23.9669 N   0  0  0  0  0  0  0  0  0  0  0  0
    9.8847  -16.3778   25.3744 C   0  0  1  0  0  0  0  0  0  0  0  0
    8.5943  -16.4508   26.0976 C   0  0  0  0  0  0  0  0  0  0  0  0
    7.6013  -15.4914   25.6005 C   0  0  0  0  0  0  0  0  0  0  0  0
    6.5734  -15.7102   24.6733 C   0  0  0  0  0  0  0  0  0  0  0  0
    5.9198  -14.5554   24.4729 N   0  0  0  0  0  0  0  0  0  0  0  0
    6.4430  -13.5681   25.2083 C   0  0  0  0  0  0  0  0  0  0  0  0
    6.1519  -12.2152   25.3686 C   0  0  0  0  0  0  0  0  0  0  0  0
    6.9129  -11.4427   26.2363 C   0  0  0  0  0  0  0  0  0  0  0  0
    7.9512  -11.9975   26.9398 C   0  0  0  0  0  0  0  0  0  0  0  0
    8.2193  -13.3465   26.7612 C   0  0  0  0  0  0  0  0  0  0  0  0
    7.4794  -14.1302   25.9078 C   0  0  0  0  0  0  0  0  0  0  0  0
   10.8308  -17.3439   25.9548 C   0  0  0  0  0  0  0  0  0  0  0  0
   11.8948  -17.5930   25.2832 O   0  0  0  0  0  0  0  0  0  0  0  0
   10.7004  -18.0263   27.1774 N   0  0  0  0  0  0  0  0  0  0  0  0
   11.8406  -18.4514   27.9542 C   0  0  1  0  0  0  0  0  0  0  0  0
   12.7049  -17.2599   28.3502 C   0  0  0  0  0  0  0  0  0  0  0  0
   13.9970  -17.0301   27.0982 S   0  0  0  0  0  0  0  0  0  0  0  0
   11.5368  -19.1881   29.1733 C   0  0  0  0  0  0  0  0  0  0  0  0
   10.3017  -19.2722   29.5029 O   0  0  0  0  0  0  0  0  0  0  0  0
   12.4179  -19.8135   30.0265 O   0  0  0  0  0  0  0  0  0  0  0  0
  2  1  1  1
  2  6  1  0
  3  2  1  0
  3  4  1  0
  4  8  1  0
  5  4  2  0
  6  9  1  0
  7  6  2  0
  9 10  1  0
 10 11  1  1
 12 11  1  0
 13 12  2  0
 14 13  1  0
 15 14  1  0
 15 20  2  0
 16 15  1  0
 17 16  2  0
 17 18  1  0
 18 19  2  0
 19 20  1  0
 20 12  1  0
 21 22  2  0
 21 10  1  0
 23 21  1  0
 24 23  1  0
 24 27  1  0
 24 25  1  1
 26 25  1  0
 27 29  1  0
 28 27  2  0
M  END
$$$$
