DWC.pdb
     RDKit          3D

 29 30  0  0  1  0  0  0  0  0999 V2000
   10.4339  -16.3894   20.4306 N   0  0  0  0  0  0  0  0  0  0  0  0
   10.8756  -17.0900   21.6126 C   0  0  1  0  0  0  0  0  0  0  0  0
   12.3529  -17.3262   21.4537 C   0  0  0  0  0  0  0  0  0  0  0  0
   12.7144  -18.1804   20.3194 C   0  0  0  0  0  0  0  0  0  0  0  0
   13.3812  -17.6908   19.3715 O   0  0  0  0  0  0  0  0  0  0  0  0
   10.5236  -16.3312   22.8313 C   0  0  0  0  0  0  0  0  0  0  0  0
   10.6735  -15.0966   22.9688 O   0  0  0  0  0  0  0  0  0  0  0  0
   12.3663  -19.5053   20.2218 O   0  0  0  0  0  0  0  0  0  0  0  0
    9.9773  -17.0433   23.9262 N   0  0  0  0  0  0  0  0  0  0  0  0
    9.5749  -16.3332   25.1527 C   0  0  1  0  0  0  0  0  0  0  0  0
    8.2559  -16.8109   25.6277 C   0  0  0  0  0  0  0  0  0  0  0  0
    7.1881  -15.8197   25.4526 C   0  0  0  0  0  0  0  0  0  0  0  0
    5.9216  -16.0022   24.8805 C   0  0  0  0  0  0  0  0  0  0  0  0
    5.2727  -14.8276   24.8851 N   0  0  0  0  0  0  0  0  0  0  0  0
    6.0229  -13.8611   25.4257 C   0  0  0  0  0  0  0  0  0  0  0  0
    5.8343  -12.5015   25.6639 C   0  0  0  0  0  0  0  0  0  0  0  0
    6.8447  -11.7575   26.2590 C   0  0  0  0  0  0  0  0  0  0  0  0
    8.0304  -12.3470   26.6163 C   0  0  0  0  0  0  0  0  0  0  0  0
    8.1916  -13.7019   26.3676 C   0  0  0  0  0  0  0  0  0  0  0  0
    7.2053  -14.4578   25.7797 C   0  0  0  0  0  0  0  0  0  0  0  0
   10.6052  -16.6533   26.1534 C   0  0  0  0  0  0  0  0  0  0  0  0
   11.4025  -17.6201   25.8803 O   0  0  0  0  0  0  0  0  0  0  0  0
   10.8190  -16.0077   27.3843 N   0  0  0  0  0  0  0  0  0  0  0  0
   11.7259  -16.5220   28.3829 C   0  0  1  0  0  0  0  0  0  0  0  0
   11.7461  -15.6242   29.6146 C   0  0  0  0  0  0  0  0  0  0  0  0
   11.3807  -13.9219   29.1064 S   0  0  0  0  0  0  0  0  0  0  0  0
   11.4589  -17.8781   28.8418 C   0  0  0  0  0  0  0  0  0  0  0  0
   10.3898  -18.4337   28.4064 O   0  0  0  0  0  0  0  0  0  0  0  0
   12.2181  -18.6487   29.6935 O   0  0  0  0  0  0  0  0  0  0  0  0
  2  1  1  6
  2  6  1  0
  3  2  1  0
  3  4  1  0
  4  8  1  0
  5  4  2  0
  6  9  1  0
  7  6  2  0
  9 10  1  0
 10 11  1  1
 12 11  1  0
 13 12  2  0
 14 13  1  0
 15 14  1  0
 15 20  2  0
 16 15  1  0
 17 16  2  0
 17 18  1  0
 18 19  2  0
 19 20  1  0
 20 12  1  0
 21 22  2  0
 21 10  1  0
 23 21  1  0
 24 23  1  0
 24 27  1  0
 24 25  1  1
 26 25  1  0
 27 29  1  0
 28 27  2  0
M  END
$$$$
