DWC.pdb
     RDKit          3D

 29 30  0  0  1  0  0  0  0  0999 V2000
   10.2809  -17.1386   20.3746 N   0  0  0  0  0  0  0  0  0  0  0  0
   11.3599  -16.9849   21.3208 C   0  0  1  0  0  0  0  0  0  0  0  0
   12.5221  -16.3990   20.5663 C   0  0  0  0  0  0  0  0  0  0  0  0
   13.6031  -17.3465   20.2817 C   0  0  0  0  0  0  0  0  0  0  0  0
   13.4711  -18.5489   20.6278 O   0  0  0  0  0  0  0  0  0  0  0  0
   10.9294  -16.1683   22.4753 C   0  0  0  0  0  0  0  0  0  0  0  0
   10.9595  -14.9179   22.5130 O   0  0  0  0  0  0  0  0  0  0  0  0
   14.7725  -17.0011   19.6499 O   0  0  0  0  0  0  0  0  0  0  0  0
   10.4473  -16.8396   23.6247 N   0  0  0  0  0  0  0  0  0  0  0  0
    9.8439  -16.0810   24.7342 C   0  0  1  0  0  0  0  0  0  0  0  0
    8.4096  -16.4187   24.8828 C   0  0  0  0  0  0  0  0  0  0  0  0
    7.5183  -15.3006   24.5528 C   0  0  0  0  0  0  0  0  0  0  0  0
    6.7530  -15.1155   23.3933 C   0  0  0  0  0  0  0  0  0  0  0  0
    6.1106  -13.9407   23.4831 N   0  0  0  0  0  0  0  0  0  0  0  0
    6.3946  -13.3194   24.6331 C   0  0  0  0  0  0  0  0  0  0  0  0
    6.0080  -12.1101   25.2067 C   0  0  0  0  0  0  0  0  0  0  0  0
    6.5015  -11.7475   26.4532 C   0  0  0  0  0  0  0  0  0  0  0  0
    7.3679  -12.5684   27.1288 C   0  0  0  0  0  0  0  0  0  0  0  0
    7.7362  -13.7663   26.5347 C   0  0  0  0  0  0  0  0  0  0  0  0
    7.2603  -14.1454   25.3020 C   0  0  0  0  0  0  0  0  0  0  0  0
   10.5757  -16.4940   25.9422 C   0  0  0  0  0  0  0  0  0  0  0  0
   11.5359  -17.3297   25.7848 O   0  0  0  0  0  0  0  0  0  0  0  0
   10.3417  -16.0663   27.2613 N   0  0  0  0  0  0  0  0  0  0  0  0
   11.1155  -16.5464   28.3815 C   0  0  1  0  0  0  0  0  0  0  0  0
   11.0350  -15.5768   29.5548 C   0  0  0  0  0  0  0  0  0  0  0  0
   11.3880  -13.9011   28.9571 S   0  0  0  0  0  0  0  0  0  0  0  0
   10.7509  -17.8636   28.8844 C   0  0  0  0  0  0  0  0  0  0  0  0
    9.7470  -18.4344   28.3299 O   0  0  0  0  0  0  0  0  0  0  0  0
   11.3549  -18.5825   29.8914 O   0  0  0  0  0  0  0  0  0  0  0  0
  2  1  1  6
  2  6  1  0
  3  2  1  0
  3  4  1  0
  4  8  1  0
  5  4  2  0
  6  9  1  0
  7  6  2  0
  9 10  1  0
 10 11  1  1
 12 11  1  0
 13 12  2  0
 14 13  1  0
 15 14  1  0
 15 20  2  0
 16 15  1  0
 17 16  2  0
 17 18  1  0
 18 19  2  0
 19 20  1  0
 20 12  1  0
 21 22  2  0
 21 10  1  0
 23 21  1  0
 24 23  1  0
 24 27  1  0
 24 25  1  1
 26 25  1  0
 27 29  1  0
 28 27  2  0
M  END
$$$$
