DWC.pdb
     RDKit          3D

 29 30  0  0  1  0  0  0  0  0999 V2000
   10.5415  -18.0574   20.6195 N   0  0  0  0  0  0  0  0  0  0  0  0
   11.3883  -16.9252   20.9093 C   0  0  1  0  0  0  0  0  0  0  0  0
   11.4907  -16.1208   19.6422 C   0  0  0  0  0  0  0  0  0  0  0  0
   12.0822  -16.8398   18.5106 C   0  0  0  0  0  0  0  0  0  0  0  0
   11.4515  -16.8968   17.4235 O   0  0  0  0  0  0  0  0  0  0  0  0
   10.8602  -16.1588   22.0577 C   0  0  0  0  0  0  0  0  0  0  0  0
   11.2168  -14.9991   22.3636 O   0  0  0  0  0  0  0  0  0  0  0  0
   13.3028  -17.4672   18.5605 O   0  0  0  0  0  0  0  0  0  0  0  0
    9.8808  -16.7722   22.8756 N   0  0  0  0  0  0  0  0  0  0  0  0
    9.3041  -16.0473   24.0211 C   0  0  1  0  0  0  0  0  0  0  0  0
    8.0097  -16.6444   24.4231 C   0  0  0  0  0  0  0  0  0  0  0  0
    7.1831  -15.7374   25.2278 C   0  0  0  0  0  0  0  0  0  0  0  0
    6.0319  -16.0408   25.9675 C   0  0  0  0  0  0  0  0  0  0  0  0
    5.5661  -14.9118   26.5235 N   0  0  0  0  0  0  0  0  0  0  0  0
    6.3321  -13.8624   26.2050 C   0  0  0  0  0  0  0  0  0  0  0  0
    6.2945  -12.5031   26.5074 C   0  0  0  0  0  0  0  0  0  0  0  0
    7.2699  -11.6549   25.9996 C   0  0  0  0  0  0  0  0  0  0  0  0
    8.2734  -12.1410   25.2011 C   0  0  0  0  0  0  0  0  0  0  0  0
    8.2869  -13.4982   24.9158 C   0  0  0  0  0  0  0  0  0  0  0  0
    7.3318  -14.3562   25.4074 C   0  0  0  0  0  0  0  0  0  0  0  0
   10.2766  -16.1951   25.1155 C   0  0  0  0  0  0  0  0  0  0  0  0
   11.0058  -17.2503   25.1085 O   0  0  0  0  0  0  0  0  0  0  0  0
   10.5021  -15.2977   26.1744 N   0  0  0  0  0  0  0  0  0  0  0  0
   11.3463  -15.6219   27.2998 C   0  0  1  0  0  0  0  0  0  0  0  0
   11.4752  -14.4328   28.2447 C   0  0  0  0  0  0  0  0  0  0  0  0
    9.8512  -13.6447   28.4214 S   0  0  0  0  0  0  0  0  0  0  0  0
   10.9248  -16.7643   28.0987 C   0  0  0  0  0  0  0  0  0  0  0  0
    9.7327  -17.1925   27.9076 O   0  0  0  0  0  0  0  0  0  0  0  0
   11.6528  -17.4512   29.0441 O   0  0  0  0  0  0  0  0  0  0  0  0
  2  1  1  6
  2  6  1  0
  3  2  1  0
  3  4  1  0
  4  8  1  0
  5  4  2  0
  6  9  1  0
  7  6  2  0
  9 10  1  0
 10 11  1  1
 12 11  1  0
 13 12  2  0
 14 13  1  0
 15 14  1  0
 15 20  2  0
 16 15  1  0
 17 16  2  0
 17 18  1  0
 18 19  2  0
 19 20  1  0
 20 12  1  0
 21 22  2  0
 21 10  1  0
 23 21  1  0
 24 23  1  0
 24 27  1  0
 24 25  1  1
 26 25  1  0
 27 29  1  0
 28 27  2  0
M  END
$$$$
