DWC.pdb
     RDKit          3D

 29 30  0  0  1  0  0  0  0  0999 V2000
   10.8545  -18.1822   21.3336 N   0  0  0  0  0  0  0  0  0  0  0  0
   11.8598  -17.2069   21.6817 C   0  0  1  0  0  0  0  0  0  0  0  0
   12.0990  -16.3695   20.4550 C   0  0  0  0  0  0  0  0  0  0  0  0
   13.1189  -16.8989   19.5457 C   0  0  0  0  0  0  0  0  0  0  0  0
   13.0773  -18.1130   19.2183 O   0  0  0  0  0  0  0  0  0  0  0  0
   11.4400  -16.4232   22.8627 C   0  0  0  0  0  0  0  0  0  0  0  0
   12.0584  -15.4349   23.3172 O   0  0  0  0  0  0  0  0  0  0  0  0
   14.1360  -16.1421   19.0178 O   0  0  0  0  0  0  0  0  0  0  0  0
   10.2553  -16.8107   23.5339 N   0  0  0  0  0  0  0  0  0  0  0  0
    9.7622  -16.0357   24.6857 C   0  0  1  0  0  0  0  0  0  0  0  0
    8.3025  -16.2195   24.8564 C   0  0  0  0  0  0  0  0  0  0  0  0
    7.5237  -15.0427   24.4537 C   0  0  0  0  0  0  0  0  0  0  0  0
    6.8907  -14.8008   23.2269 C   0  0  0  0  0  0  0  0  0  0  0  0
    6.3213  -13.5863   23.2670 N   0  0  0  0  0  0  0  0  0  0  0  0
    6.5304  -12.9914   24.4467 C   0  0  0  0  0  0  0  0  0  0  0  0
    6.1695  -11.7621   24.9938 C   0  0  0  0  0  0  0  0  0  0  0  0
    6.5601  -11.4398   26.2869 C   0  0  0  0  0  0  0  0  0  0  0  0
    7.2996  -12.3202   27.0346 C   0  0  0  0  0  0  0  0  0  0  0  0
    7.6452  -13.5368   26.4655 C   0  0  0  0  0  0  0  0  0  0  0  0
    7.2696  -13.8769   25.1875 C   0  0  0  0  0  0  0  0  0  0  0  0
   10.4679  -16.5749   25.8590 C   0  0  0  0  0  0  0  0  0  0  0  0
   10.9478  -17.7599   25.7567 O   0  0  0  0  0  0  0  0  0  0  0  0
   10.6820  -15.9278   27.0891 N   0  0  0  0  0  0  0  0  0  0  0  0
   11.3397  -16.5726   28.2008 C   0  0  1  0  0  0  0  0  0  0  0  0
   11.4041  -15.6448   29.4084 C   0  0  0  0  0  0  0  0  0  0  0  0
   11.1986  -13.9329   28.8452 S   0  0  0  0  0  0  0  0  0  0  0  0
   10.7443  -17.8238   28.6492 C   0  0  0  0  0  0  0  0  0  0  0  0
   11.3825  -18.4756   29.5487 O   0  0  0  0  0  0  0  0  0  0  0  0
    9.5690  -18.4021   28.2253 O   0  0  0  0  0  0  0  0  0  0  0  0
  2  1  1  6
  2  6  1  0
  3  2  1  0
  3  4  1  0
  4  8  1  0
  5  4  2  0
  6  9  1  0
  7  6  2  0
  9 10  1  0
 10 11  1  1
 12 11  1  0
 13 12  2  0
 14 13  1  0
 15 14  1  0
 15 20  2  0
 16 15  1  0
 17 16  2  0
 17 18  1  0
 18 19  2  0
 19 20  1  0
 20 12  1  0
 21 22  2  0
 21 10  1  0
 23 21  1  0
 24 23  1  0
 24 27  1  0
 24 25  1  1
 26 25  1  0
 27 29  1  0
 28 27  2  0
M  END
$$$$
