DWC.pdb
     RDKit          3D

 29 30  0  0  1  0  0  0  0  0999 V2000
   10.4273  -17.6003   21.2367 N   0  0  0  0  0  0  0  0  0  0  0  0
   11.5832  -16.8506   21.6663 C   0  0  1  0  0  0  0  0  0  0  0  0
   11.8791  -15.8468   20.5855 C   0  0  0  0  0  0  0  0  0  0  0  0
   12.3875  -16.4261   19.3392 C   0  0  0  0  0  0  0  0  0  0  0  0
   11.6246  -16.4991   18.3414 O   0  0  0  0  0  0  0  0  0  0  0  0
   11.3474  -16.2423   22.9928 C   0  0  0  0  0  0  0  0  0  0  0  0
   12.1335  -15.4539   23.5638 O   0  0  0  0  0  0  0  0  0  0  0  0
   13.6661  -16.9034   19.1866 O   0  0  0  0  0  0  0  0  0  0  0  0
   10.1496  -16.5688   23.6732 N   0  0  0  0  0  0  0  0  0  0  0  0
    9.9278  -16.1112   25.0559 C   0  0  1  0  0  0  0  0  0  0  0  0
    8.5399  -16.3960   25.4873 C   0  0  0  0  0  0  0  0  0  0  0  0
    7.5782  -15.3834   25.0364 C   0  0  0  0  0  0  0  0  0  0  0  0
    6.6915  -15.4521   23.9531 C   0  0  0  0  0  0  0  0  0  0  0  0
    6.0182  -14.2941   23.8724 N   0  0  0  0  0  0  0  0  0  0  0  0
    6.3952  -13.4457   24.8353 C   0  0  0  0  0  0  0  0  0  0  0  0
    6.0246  -12.1507   25.1908 C   0  0  0  0  0  0  0  0  0  0  0  0
    6.6296  -11.5325   26.2773 C   0  0  0  0  0  0  0  0  0  0  0  0
    7.5909  -12.1836   27.0072 C   0  0  0  0  0  0  0  0  0  0  0  0
    7.9409  -13.4720   26.6314 C   0  0  0  0  0  0  0  0  0  0  0  0
    7.3554  -14.1033   25.5598 C   0  0  0  0  0  0  0  0  0  0  0  0
   10.8697  -16.8799   25.8849 C   0  0  0  0  0  0  0  0  0  0  0  0
   12.0992  -16.8826   25.5198 O   0  0  0  0  0  0  0  0  0  0  0  0
   10.5706  -17.6135   27.0467 N   0  0  0  0  0  0  0  0  0  0  0  0
   11.1622  -17.3118   28.3286 C   0  0  1  0  0  0  0  0  0  0  0  0
   10.7765  -15.9114   28.7907 C   0  0  0  0  0  0  0  0  0  0  0  0
   11.5338  -15.5977   30.4087 S   0  0  0  0  0  0  0  0  0  0  0  0
   10.8313  -18.2294   29.4100 C   0  0  0  0  0  0  0  0  0  0  0  0
    9.6011  -18.5691   29.5212 O   0  0  0  0  0  0  0  0  0  0  0  0
   11.6820  -18.7855   30.3388 O   0  0  0  0  0  0  0  0  0  0  0  0
  2  1  1  6
  2  6  1  0
  3  2  1  0
  3  4  1  0
  4  8  1  0
  5  4  2  0
  6  9  1  0
  7  6  2  0
  9 10  1  0
 10 11  1  1
 12 11  1  0
 13 12  2  0
 14 13  1  0
 15 14  1  0
 15 20  2  0
 16 15  1  0
 17 16  2  0
 17 18  1  0
 18 19  2  0
 19 20  1  0
 20 12  1  0
 21 22  2  0
 21 10  1  0
 23 21  1  0
 24 23  1  0
 24 27  1  0
 24 25  1  1
 26 25  1  0
 27 29  1  0
 28 27  2  0
M  END
$$$$
