DWC.pdb
     RDKit          3D

 29 30  0  0  1  0  0  0  0  0999 V2000
   10.8605  -17.9680   21.4933 N   0  0  0  0  0  0  0  0  0  0  0  0
   11.8419  -17.0133   21.9499 C   0  0  1  0  0  0  0  0  0  0  0  0
   12.1322  -16.0978   20.7919 C   0  0  0  0  0  0  0  0  0  0  0  0
   12.8269  -16.7360   19.6706 C   0  0  0  0  0  0  0  0  0  0  0  0
   12.2532  -16.8038   18.5529 O   0  0  0  0  0  0  0  0  0  0  0  0
   11.3622  -16.3087   23.1576 C   0  0  0  0  0  0  0  0  0  0  0  0
   11.9160  -15.3076   23.6643 O   0  0  0  0  0  0  0  0  0  0  0  0
   14.0868  -17.2748   19.7619 O   0  0  0  0  0  0  0  0  0  0  0  0
   10.1938  -16.7937   23.7932 N   0  0  0  0  0  0  0  0  0  0  0  0
    9.6797  -16.1407   25.0096 C   0  0  1  0  0  0  0  0  0  0  0  0
    8.2059  -16.2635   25.0891 C   0  0  0  0  0  0  0  0  0  0  0  0
    7.5016  -15.0913   24.5568 C   0  0  0  0  0  0  0  0  0  0  0  0
    7.0253  -14.8838   23.2551 C   0  0  0  0  0  0  0  0  0  0  0  0
    6.4760  -13.6613   23.1862 N   0  0  0  0  0  0  0  0  0  0  0  0
    6.5516  -13.0287   24.3624 C   0  0  0  0  0  0  0  0  0  0  0  0
    6.1485  -11.7766   24.8213 C   0  0  0  0  0  0  0  0  0  0  0  0
    6.3859  -11.4150   26.1409 C   0  0  0  0  0  0  0  0  0  0  0  0
    7.0147  -12.2785   27.0010 C   0  0  0  0  0  0  0  0  0  0  0  0
    7.4055  -13.5185   26.5180 C   0  0  0  0  0  0  0  0  0  0  0  0
    7.1809  -13.8976   25.2158 C   0  0  0  0  0  0  0  0  0  0  0  0
   10.2961  -16.8584   26.1368 C   0  0  0  0  0  0  0  0  0  0  0  0
   10.8423  -17.9898   25.8785 O   0  0  0  0  0  0  0  0  0  0  0  0
   10.3590  -16.4356   27.4765 N   0  0  0  0  0  0  0  0  0  0  0  0
   11.0835  -17.1679   28.4879 C   0  0  1  0  0  0  0  0  0  0  0  0
   11.2004  -16.3539   29.7713 C   0  0  0  0  0  0  0  0  0  0  0  0
   11.4892  -14.6160   29.3400 S   0  0  0  0  0  0  0  0  0  0  0  0
   10.5291  -18.4654   28.8489 C   0  0  0  0  0  0  0  0  0  0  0  0
    9.4288  -18.7991   28.2841 O   0  0  0  0  0  0  0  0  0  0  0  0
   11.0430  -19.3904   29.7298 O   0  0  0  0  0  0  0  0  0  0  0  0
  2  1  1  6
  2  6  1  0
  3  2  1  0
  3  4  1  0
  4  8  1  0
  5  4  2  0
  6  9  1  0
  7  6  2  0
  9 10  1  0
 10 11  1  1
 12 11  1  0
 13 12  2  0
 14 13  1  0
 15 14  1  0
 15 20  2  0
 16 15  1  0
 17 16  2  0
 17 18  1  0
 18 19  2  0
 19 20  1  0
 20 12  1  0
 21 22  2  0
 21 10  1  0
 23 21  1  0
 24 23  1  0
 24 27  1  0
 24 25  1  1
 26 25  1  0
 27 29  1  0
 28 27  2  0
M  END
$$$$
