DWC.pdb
     RDKit          3D

 29 30  0  0  1  0  0  0  0  0999 V2000
   10.4110  -17.1086   20.8035 N   0  0  0  0  0  0  0  0  0  0  0  0
   11.5311  -16.9815   21.7047 C   0  0  1  0  0  0  0  0  0  0  0  0
   12.6376  -16.3136   20.9346 C   0  0  0  0  0  0  0  0  0  0  0  0
   13.2887  -17.1690   19.9388 C   0  0  0  0  0  0  0  0  0  0  0  0
   12.8726  -18.3450   19.7751 O   0  0  0  0  0  0  0  0  0  0  0  0
   11.1362  -16.2528   22.9286 C   0  0  0  0  0  0  0  0  0  0  0  0
   11.5418  -15.1104   23.2386 O   0  0  0  0  0  0  0  0  0  0  0  0
   14.3430  -16.7630   19.1581 O   0  0  0  0  0  0  0  0  0  0  0  0
   10.2353  -16.8841   23.8197 N   0  0  0  0  0  0  0  0  0  0  0  0
    9.7523  -16.1771   25.0186 C   0  0  1  0  0  0  0  0  0  0  0  0
    8.3472  -16.5412   25.3128 C   0  0  0  0  0  0  0  0  0  0  0  0
    7.3931  -15.4834   24.9604 C   0  0  0  0  0  0  0  0  0  0  0  0
    6.4420  -15.4820   23.9309 C   0  0  0  0  0  0  0  0  0  0  0  0
    5.8022  -14.3024   23.9358 N   0  0  0  0  0  0  0  0  0  0  0  0
    6.2624  -13.5052   24.9063 C   0  0  0  0  0  0  0  0  0  0  0  0
    5.9548  -12.2153   25.3334 C   0  0  0  0  0  0  0  0  0  0  0  0
    6.6424  -11.6596   26.4044 C   0  0  0  0  0  0  0  0  0  0  0  0
    7.6241  -12.3677   27.0491 C   0  0  0  0  0  0  0  0  0  0  0  0
    7.9102  -13.6496   26.6033 C   0  0  0  0  0  0  0  0  0  0  0  0
    7.2425  -14.2195   25.5454 C   0  0  0  0  0  0  0  0  0  0  0  0
   10.6190  -16.6248   26.1203 C   0  0  0  0  0  0  0  0  0  0  0  0
   11.2827  -17.7069   25.9368 O   0  0  0  0  0  0  0  0  0  0  0  0
   10.8072  -15.9898   27.3608 N   0  0  0  0  0  0  0  0  0  0  0  0
   11.4852  -16.6279   28.4641 C   0  0  1  0  0  0  0  0  0  0  0  0
   11.4659  -15.7396   29.7027 C   0  0  0  0  0  0  0  0  0  0  0  0
   11.1343  -14.0304   29.1942 S   0  0  0  0  0  0  0  0  0  0  0  0
   10.9652  -17.9298   28.8588 C   0  0  0  0  0  0  0  0  0  0  0  0
   11.6474  -18.5849   29.7228 O   0  0  0  0  0  0  0  0  0  0  0  0
    9.8201  -18.5536   28.4170 O   0  0  0  0  0  0  0  0  0  0  0  0
  2  1  1  6
  2  6  1  0
  3  2  1  0
  3  4  1  0
  4  8  1  0
  5  4  2  0
  6  9  1  0
  7  6  2  0
  9 10  1  0
 10 11  1  1
 12 11  1  0
 13 12  2  0
 14 13  1  0
 15 14  1  0
 15 20  2  0
 16 15  1  0
 17 16  2  0
 17 18  1  0
 18 19  2  0
 19 20  1  0
 20 12  1  0
 21 22  2  0
 21 10  1  0
 23 21  1  0
 24 23  1  0
 24 27  1  0
 24 25  1  1
 26 25  1  0
 27 29  1  0
 28 27  2  0
M  END
$$$$
