YVK.pdb
     RDKit          3D

 29 29  0  0  1  0  0  0  0  0999 V2000
    6.8431  -10.5975   26.5967 O   0  0  0  0  0  0  0  0  0  0  0  0
    6.8227  -11.9999   26.5372 C   0  0  0  0  0  0  0  0  0  0  0  0
    7.9937  -12.7226   26.3725 C   0  0  0  0  0  0  0  0  0  0  0  0
    7.9672  -14.1064   26.3144 C   0  0  0  0  0  0  0  0  0  0  0  0
    6.7746  -14.7884   26.4196 C   0  0  0  0  0  0  0  0  0  0  0  0
    6.7525  -16.2528   26.3595 C   0  0  0  0  0  0  0  0  0  0  0  0
    6.4194  -16.7627   24.9804 C   0  0  2  0  0  0  0  0  0  0  0  0
    6.0678  -18.1593   25.1329 N   0  0  0  0  0  0  0  0  0  0  0  0
    7.4755  -16.6180   23.9876 C   0  0  0  0  0  0  0  0  0  0  0  0
    8.4190  -17.4688   23.9640 O   0  0  0  0  0  0  0  0  0  0  0  0
    5.6170  -14.0862   26.5819 C   0  0  0  0  0  0  0  0  0  0  0  0
    5.6421  -12.6992   26.6402 C   0  0  0  0  0  0  0  0  0  0  0  0
    6.6851  -14.5972   20.6019 C   0  0  0  0  0  0  0  0  0  0  0  0
    8.1111  -14.4871   21.0142 C   0  0  1  0  0  0  0  0  0  0  0  0
    8.2686  -13.1485   21.7472 C   0  0  0  0  0  0  0  0  0  0  0  0
    8.5866  -15.5493   21.9704 C   0  0  2  0  0  0  0  0  0  0  0  0
    7.5567  -15.5973   23.0192 N   0  0  0  0  0  0  0  0  0  0  0  0
    9.8933  -15.2910   22.5725 C   0  0  0  0  0  0  0  0  0  0  0  0
    9.9045  -14.6224   23.6617 O   0  0  0  0  0  0  0  0  0  0  0  0
   11.1301  -15.7025   22.0771 N   0  0  0  0  0  0  0  0  0  0  0  0
   12.1389  -16.2428   22.9781 C   0  0  1  0  0  0  0  0  0  0  0  0
   11.6517  -17.4477   23.6998 C   0  0  0  0  0  0  0  0  0  0  0  0
   11.8856  -17.3497   25.1657 C   0  0  0  0  0  0  0  0  0  0  0  0
   11.3876  -18.5962   25.9066 C   0  0  0  0  0  0  0  0  0  0  0  0
   11.6318  -18.4998   27.3882 C   0  0  0  0  0  0  0  0  0  0  0  0
   11.0239  -19.6217   28.0982 N   0  0  0  0  0  0  0  0  0  0  0  0
   13.3910  -16.5341   22.2466 C   0  0  0  0  0  0  0  0  0  0  0  0
   14.5995  -16.2783   22.9329 O   0  0  0  0  0  0  0  0  0  0  0  0
   13.5163  -16.9753   21.1046 O   0  0  0  0  0  0  0  0  0  0  0  0
  2  3  2  0
  2  1  1  0
  4  3  1  0
  5  4  2  0
  6  5  1  0
  7  6  1  0
  7  8  1  1
  9  7  1  0
  9 10  2  0
 11  5  1  0
 11 12  2  0
 12  2  1  0
 14 13  1  1
 14 16  1  0
 15 14  1  0
 16 17  1  1
 17  9  1  0
 18 16  1  0
 19 18  2  0
 20 18  1  0
 21 20  1  0
 21 27  1  0
 21 22  1  6
 23 22  1  0
 24 23  1  0
 25 24  1  0
 26 25  1  0
 27 28  1  0
 29 27  2  0
M  END
$$$$
