YVK.pdb
     RDKit          3D

 29 29  0  0  1  0  0  0  0  0999 V2000
    5.2388  -10.2373   28.2785 O   0  0  0  0  0  0  0  0  0  0  0  0
    5.8492  -11.2969   27.5890 C   0  0  0  0  0  0  0  0  0  0  0  0
    7.0141  -11.8781   28.0639 C   0  0  0  0  0  0  0  0  0  0  0  0
    7.6118  -12.9235   27.3790 C   0  0  0  0  0  0  0  0  0  0  0  0
    7.0573  -13.4034   26.2125 C   0  0  0  0  0  0  0  0  0  0  0  0
    7.6928  -14.5110   25.4929 C   0  0  0  0  0  0  0  0  0  0  0  0
    6.7464  -15.1858   24.5326 C   0  0  2  0  0  0  0  0  0  0  0  0
    6.0713  -16.2242   25.2831 N   0  0  0  0  0  0  0  0  0  0  0  0
    7.3625  -15.7504   23.3395 C   0  0  0  0  0  0  0  0  0  0  0  0
    7.5696  -17.0031   23.2878 O   0  0  0  0  0  0  0  0  0  0  0  0
    5.9112  -12.8380   25.7371 C   0  0  0  0  0  0  0  0  0  0  0  0
    5.3111  -11.7902   26.4226 C   0  0  0  0  0  0  0  0  0  0  0  0
    6.8131  -14.0852   19.7520 C   0  0  0  0  0  0  0  0  0  0  0  0
    8.1943  -14.6147   19.9187 C   0  0  1  0  0  0  0  0  0  0  0  0
    9.0896  -13.4304   20.3055 C   0  0  0  0  0  0  0  0  0  0  0  0
    8.3608  -15.6418   21.0077 C   0  0  2  0  0  0  0  0  0  0  0  0
    7.7626  -15.0234   22.2005 N   0  0  0  0  0  0  0  0  0  0  0  0
    9.7450  -16.0185   21.2880 C   0  0  0  0  0  0  0  0  0  0  0  0
   10.3946  -15.2697   22.0949 O   0  0  0  0  0  0  0  0  0  0  0  0
   10.4282  -17.1150   20.7631 N   0  0  0  0  0  0  0  0  0  0  0  0
   11.6945  -17.5382   21.3452 C   0  0  1  0  0  0  0  0  0  0  0  0
   11.6047  -18.8955   21.9449 C   0  0  0  0  0  0  0  0  0  0  0  0
   12.9254  -19.3758   22.4328 C   0  0  0  0  0  0  0  0  0  0  0  0
   12.8209  -20.7545   23.0954 C   0  0  0  0  0  0  0  0  0  0  0  0
   14.0310  -21.0638   23.9345 C   0  0  0  0  0  0  0  0  0  0  0  0
   13.9055  -22.3660   24.5832 N   0  0  0  0  0  0  0  0  0  0  0  0
   12.7788  -17.4738   20.3412 C   0  0  0  0  0  0  0  0  0  0  0  0
   14.0934  -17.6858   20.8145 O   0  0  0  0  0  0  0  0  0  0  0  0
   12.6816  -17.2569   19.1337 O   0  0  0  0  0  0  0  0  0  0  0  0
  2  3  2  0
  2  1  1  0
  4  3  1  0
  5  4  2  0
  6  5  1  0
  7  6  1  0
  7  8  1  1
  9  7  1  0
  9 10  2  0
 11  5  1  0
 11 12  2  0
 12  2  1  0
 14 13  1  1
 14 16  1  0
 15 14  1  0
 16 17  1  1
 17  9  1  0
 18 16  1  0
 19 18  2  0
 20 18  1  0
 21 20  1  0
 21 27  1  0
 21 22  1  6
 23 22  1  0
 24 23  1  0
 25 24  1  0
 26 25  1  0
 27 28  1  0
 29 27  2  0
M  END
$$$$
