YVK.pdb
     RDKit          3D

 29 29  0  0  1  0  0  0  0  0999 V2000
    7.9691  -11.5569   18.3658 O   0  0  0  0  0  0  0  0  0  0  0  0
    8.1134  -12.5931   19.3020 C   0  0  0  0  0  0  0  0  0  0  0  0
    7.0759  -12.9298   20.1568 C   0  0  0  0  0  0  0  0  0  0  0  0
    7.2243  -13.9533   21.0785 C   0  0  0  0  0  0  0  0  0  0  0  0
    8.4075  -14.6545   21.1608 C   0  0  0  0  0  0  0  0  0  0  0  0
    8.5585  -15.7379   22.1366 C   0  0  0  0  0  0  0  0  0  0  0  0
    8.7906  -17.0731   21.4760 C   0  0  2  0  0  0  0  0  0  0  0  0
    7.5186  -17.4809   20.9163 N   0  0  0  0  0  0  0  0  0  0  0  0
    9.3135  -18.1189   22.3449 C   0  0  0  0  0  0  0  0  0  0  0  0
    8.5136  -18.7356   23.1160 O   0  0  0  0  0  0  0  0  0  0  0  0
    9.4342  -14.3307   20.3239 C   0  0  0  0  0  0  0  0  0  0  0  0
    9.2868  -13.3051   19.3997 C   0  0  0  0  0  0  0  0  0  0  0  0
   12.8884  -19.8538   21.4268 C   0  0  0  0  0  0  0  0  0  0  0  0
   11.8699  -20.5467   22.2623 C   0  0  1  0  0  0  0  0  0  0  0  0
   12.6128  -21.5837   23.1147 C   0  0  0  0  0  0  0  0  0  0  0  0
   11.1239  -19.6641   23.2282 C   0  0  2  0  0  0  0  0  0  0  0  0
   10.6599  -18.5288   22.4166 N   0  0  0  0  0  0  0  0  0  0  0  0
   11.9207  -19.1751   24.3519 C   0  0  0  0  0  0  0  0  0  0  0  0
   12.6664  -18.1606   24.1321 O   0  0  0  0  0  0  0  0  0  0  0  0
   11.9479  -19.7050   25.6415 N   0  0  0  0  0  0  0  0  0  0  0  0
   12.7925  -19.1039   26.6645 C   0  0  1  0  0  0  0  0  0  0  0  0
   12.1645  -19.1651   28.0106 C   0  0  0  0  0  0  0  0  0  0  0  0
   11.9580  -20.5668   28.4641 C   0  0  0  0  0  0  0  0  0  0  0  0
   11.7202  -20.6470   29.9767 C   0  0  0  0  0  0  0  0  0  0  0  0
   11.3884  -22.0472   30.4162 C   0  0  0  0  0  0  0  0  0  0  0  0
   11.0963  -22.0972   31.8460 N   0  0  0  0  0  0  0  0  0  0  0  0
   14.1301  -19.7351   26.6752 C   0  0  0  0  0  0  0  0  0  0  0  0
   14.2301  -21.0173   26.0895 O   0  0  0  0  0  0  0  0  0  0  0  0
   15.1783  -19.2817   27.1339 O   0  0  0  0  0  0  0  0  0  0  0  0
  2  3  2  0
  2  1  1  0
  4  3  1  0
  5  4  2  0
  6  5  1  0
  7  6  1  0
  7  8  1  1
  9  7  1  0
  9 10  2  0
 11  5  1  0
 11 12  2  0
 12  2  1  0
 14 13  1  1
 14 16  1  0
 15 14  1  0
 16 17  1  6
 17  9  1  0
 18 16  1  0
 19 18  2  0
 20 18  1  0
 21 20  1  0
 21 27  1  0
 21 22  1  1
 23 22  1  0
 24 23  1  0
 25 24  1  0
 26 25  1  0
 27 28  1  0
 29 27  2  0
M  END
$$$$
