YVK.pdb
     RDKit          3D

 29 29  0  0  1  0  0  0  0  0999 V2000
    5.2721  -10.2663   27.2065 O   0  0  0  0  0  0  0  0  0  0  0  0
    5.7575  -11.5547   26.9326 C   0  0  0  0  0  0  0  0  0  0  0  0
    6.8441  -11.7426   26.0933 C   0  0  0  0  0  0  0  0  0  0  0  0
    7.3186  -13.0165   25.8268 C   0  0  0  0  0  0  0  0  0  0  0  0
    6.7173  -14.1196   26.3925 C   0  0  0  0  0  0  0  0  0  0  0  0
    7.2246  -15.4652   26.1088 C   0  0  0  0  0  0  0  0  0  0  0  0
    6.5866  -16.0694   24.8836 C   0  0  2  0  0  0  0  0  0  0  0  0
    6.0825  -17.3675   25.2811 N   0  0  0  0  0  0  0  0  0  0  0  0
    7.4598  -16.2047   23.7255 C   0  0  0  0  0  0  0  0  0  0  0  0
    7.9800  -17.3368   23.4756 O   0  0  0  0  0  0  0  0  0  0  0  0
    5.6475  -13.9451   27.2198 C   0  0  0  0  0  0  0  0  0  0  0  0
    5.1709  -12.6688   27.4877 C   0  0  0  0  0  0  0  0  0  0  0  0
    9.2516  -13.9906   19.5934 C   0  0  0  0  0  0  0  0  0  0  0  0
    8.4536  -14.0718   20.8474 C   0  0  1  0  0  0  0  0  0  0  0  0
    6.9832  -13.8623   20.4629 C   0  0  0  0  0  0  0  0  0  0  0  0
    8.5171  -15.3952   21.5639 C   0  0  2  0  0  0  0  0  0  0  0  0
    7.7943  -15.1733   22.8253 N   0  0  0  0  0  0  0  0  0  0  0  0
    9.8687  -15.8745   21.8466 C   0  0  0  0  0  0  0  0  0  0  0  0
   10.5334  -15.2366   22.7325 O   0  0  0  0  0  0  0  0  0  0  0  0
   10.5058  -16.9600   21.2464 N   0  0  0  0  0  0  0  0  0  0  0  0
   11.8238  -17.3811   21.7013 C   0  0  1  0  0  0  0  0  0  0  0  0
   12.0397  -18.8390   21.5065 C   0  0  0  0  0  0  0  0  0  0  0  0
   13.3862  -19.2681   21.9711 C   0  0  0  0  0  0  0  0  0  0  0  0
   13.6041  -20.7729   21.7735 C   0  0  0  0  0  0  0  0  0  0  0  0
   14.8911  -21.2375   22.3995 C   0  0  0  0  0  0  0  0  0  0  0  0
   15.1246  -22.6550   22.1378 N   0  0  0  0  0  0  0  0  0  0  0  0
   12.8834  -16.5950   21.0326 C   0  0  0  0  0  0  0  0  0  0  0  0
   13.9759  -16.1942   21.8343 O   0  0  0  0  0  0  0  0  0  0  0  0
   12.9359  -16.2416   19.8549 O   0  0  0  0  0  0  0  0  0  0  0  0
  2  3  2  0
  2  1  1  0
  4  3  1  0
  5  4  2  0
  6  5  1  0
  7  6  1  0
  7  8  1  1
  9  7  1  0
  9 10  2  0
 11  5  1  0
 11 12  2  0
 12  2  1  0
 14 13  1  6
 14 16  1  0
 15 14  1  0
 16 17  1  1
 17  9  1  0
 18 16  1  0
 19 18  2  0
 20 18  1  0
 21 20  1  0
 21 27  1  0
 21 22  1  6
 23 22  1  0
 24 23  1  0
 25 24  1  0
 26 25  1  0
 27 28  1  0
 29 27  2  0
M  END
$$$$
