YVK.pdb
     RDKit          3D

 29 29  0  0  1  0  0  0  0  0999 V2000
    6.8278  -13.7247   15.9718 O   0  0  0  0  0  0  0  0  0  0  0  0
    6.9594  -14.0357   17.3344 C   0  0  0  0  0  0  0  0  0  0  0  0
    7.0948  -15.3492   17.7550 C   0  0  0  0  0  0  0  0  0  0  0  0
    7.2242  -15.6498   19.1012 C   0  0  0  0  0  0  0  0  0  0  0  0
    7.2204  -14.6465   20.0455 C   0  0  0  0  0  0  0  0  0  0  0  0
    7.3597  -14.9700   21.4684 C   0  0  0  0  0  0  0  0  0  0  0  0
    8.6070  -14.3741   22.0701 C   0  0  2  0  0  0  0  0  0  0  0  0
    9.7214  -14.8988   21.3083 N   0  0  0  0  0  0  0  0  0  0  0  0
    8.8038  -14.6356   23.4895 C   0  0  0  0  0  0  0  0  0  0  0  0
    9.6966  -15.4674   23.8443 O   0  0  0  0  0  0  0  0  0  0  0  0
    7.0877  -13.3510   19.6416 C   0  0  0  0  0  0  0  0  0  0  0  0
    6.9579  -13.0482   18.2927 C   0  0  0  0  0  0  0  0  0  0  0  0
    7.4864  -11.8677   26.2941 C   0  0  0  0  0  0  0  0  0  0  0  0
    7.4632  -13.3011   26.6946 C   0  0  1  0  0  0  0  0  0  0  0  0
    6.0633  -13.8391   26.3712 C   0  0  0  0  0  0  0  0  0  0  0  0
    8.4349  -14.1881   25.9612 C   0  0  2  0  0  0  0  0  0  0  0  0
    8.0812  -14.0382   24.5416 N   0  0  0  0  0  0  0  0  0  0  0  0
    8.3802  -15.5995   26.3376 C   0  0  0  0  0  0  0  0  0  0  0  0
    7.4419  -16.2979   25.8225 O   0  0  0  0  0  0  0  0  0  0  0  0
    9.2510  -16.2610   27.2029 N   0  0  0  0  0  0  0  0  0  0  0  0
    9.1226  -17.6957   27.4182 C   0  0  1  0  0  0  0  0  0  0  0  0
    9.8558  -18.4801   26.3901 C   0  0  0  0  0  0  0  0  0  0  0  0
    9.7931  -19.9422   26.6574 C   0  0  0  0  0  0  0  0  0  0  0  0
   10.5429  -20.7490   25.5909 C   0  0  0  0  0  0  0  0  0  0  0  0
   10.4736  -22.2281   25.8585 C   0  0  0  0  0  0  0  0  0  0  0  0
   11.1714  -22.9857   24.8234 N   0  0  0  0  0  0  0  0  0  0  0  0
    9.5679  -18.0618   28.7804 C   0  0  0  0  0  0  0  0  0  0  0  0
    9.3119  -19.3883   29.1952 O   0  0  0  0  0  0  0  0  0  0  0  0
   10.1386  -17.3515   29.6076 O   0  0  0  0  0  0  0  0  0  0  0  0
  2  3  2  0
  2  1  1  0
  4  3  1  0
  5  4  2  0
  6  5  1  0
  7  6  1  0
  7  8  1  6
  9  7  1  0
  9 10  2  0
 11  5  1  0
 11 12  2  0
 12  2  1  0
 14 13  1  6
 14 16  1  0
 15 14  1  0
 16 17  1  6
 17  9  1  0
 18 16  1  0
 19 18  2  0
 20 18  1  0
 21 20  1  0
 21 27  1  0
 21 22  1  6
 23 22  1  0
 24 23  1  0
 25 24  1  0
 26 25  1  0
 27 28  1  0
 29 27  2  0
M  END
$$$$
