YVK.pdb
     RDKit          3D

 29 29  0  0  1  0  0  0  0  0999 V2000
    9.9095  -14.0871   31.2144 O   0  0  0  0  0  0  0  0  0  0  0  0
    9.7899  -14.4295   29.8582 C   0  0  0  0  0  0  0  0  0  0  0  0
   10.0211  -15.7266   29.4283 C   0  0  0  0  0  0  0  0  0  0  0  0
    9.9015  -16.0584   28.0887 C   0  0  0  0  0  0  0  0  0  0  0  0
    9.5502  -15.1031   27.1600 C   0  0  0  0  0  0  0  0  0  0  0  0
    9.4231  -15.4600   25.7440 C   0  0  0  0  0  0  0  0  0  0  0  0
    7.9843  -15.5260   25.2987 C   0  0  2  0  0  0  0  0  0  0  0  0
    7.3681  -16.5942   26.0580 N   0  0  0  0  0  0  0  0  0  0  0  0
    7.7797  -15.7430   23.8728 C   0  0  0  0  0  0  0  0  0  0  0  0
    7.3851  -16.8831   23.4740 O   0  0  0  0  0  0  0  0  0  0  0  0
    9.3207  -13.8240   27.5731 C   0  0  0  0  0  0  0  0  0  0  0  0
    9.4402  -13.4901   28.9156 C   0  0  0  0  0  0  0  0  0  0  0  0
    8.7096  -12.7548   20.9605 C   0  0  0  0  0  0  0  0  0  0  0  0
    7.5573  -13.6862   20.8164 C   0  0  1  0  0  0  0  0  0  0  0  0
    7.3489  -13.9197   19.3145 C   0  0  0  0  0  0  0  0  0  0  0  0
    7.7516  -15.0474   21.4313 C   0  0  2  0  0  0  0  0  0  0  0  0
    7.9805  -14.7839   22.8600 N   0  0  0  0  0  0  0  0  0  0  0  0
    8.8708  -15.8124   20.8845 C   0  0  0  0  0  0  0  0  0  0  0  0
    9.9770  -15.7519   21.5219 O   0  0  0  0  0  0  0  0  0  0  0  0
    8.8518  -16.6033   19.7362 N   0  0  0  0  0  0  0  0  0  0  0  0
    9.9880  -17.4550   19.4125 C   0  0  1  0  0  0  0  0  0  0  0  0
    9.7076  -18.3381   18.2500 C   0  0  0  0  0  0  0  0  0  0  0  0
   10.8399  -19.2607   17.9672 C   0  0  0  0  0  0  0  0  0  0  0  0
   10.5548  -20.1584   16.7576 C   0  0  0  0  0  0  0  0  0  0  0  0
   11.6539  -21.1618   16.5357 C   0  0  0  0  0  0  0  0  0  0  0  0
   11.3804  -21.9960   15.3688 N   0  0  0  0  0  0  0  0  0  0  0  0
   11.2012  -16.6418   19.1791 C   0  0  0  0  0  0  0  0  0  0  0  0
   12.3809  -17.0619   19.8340 O   0  0  0  0  0  0  0  0  0  0  0  0
   11.3160  -15.6354   18.4801 O   0  0  0  0  0  0  0  0  0  0  0  0
  2  3  2  0
  2  1  1  0
  4  3  1  0
  5  4  2  0
  6  5  1  0
  7  6  1  0
  7  8  1  1
  9  7  1  0
  9 10  2  0
 11  5  1  0
 11 12  2  0
 12  2  1  0
 14 13  1  6
 14 16  1  0
 15 14  1  0
 16 17  1  1
 17  9  1  0
 18 16  1  0
 19 18  2  0
 20 18  1  0
 21 20  1  0
 21 27  1  0
 21 22  1  6
 23 22  1  0
 24 23  1  0
 25 24  1  0
 26 25  1  0
 27 28  1  0
 29 27  2  0
M  END
$$$$
