YVK.pdb
     RDKit          3D

 29 29  0  0  1  0  0  0  0  0999 V2000
    5.9547  -10.4374   27.0156 O   0  0  0  0  0  0  0  0  0  0  0  0
    6.4118  -11.7254   26.6947 C   0  0  0  0  0  0  0  0  0  0  0  0
    7.6601  -11.9161   26.1238 C   0  0  0  0  0  0  0  0  0  0  0  0
    8.1057  -13.1895   25.8092 C   0  0  0  0  0  0  0  0  0  0  0  0
    7.3141  -14.2893   26.0592 C   0  0  0  0  0  0  0  0  0  0  0  0
    7.7913  -15.6347   25.7263 C   0  0  0  0  0  0  0  0  0  0  0  0
    7.6376  -15.9484   24.2596 C   0  0  2  0  0  0  0  0  0  0  0  0
    6.2705  -16.3891   24.0751 N   0  0  0  0  0  0  0  0  0  0  0  0
    8.5603  -16.9450   23.7327 C   0  0  0  0  0  0  0  0  0  0  0  0
    8.2104  -18.1665   23.7287 O   0  0  0  0  0  0  0  0  0  0  0  0
    6.0843  -14.1119   26.6207 C   0  0  0  0  0  0  0  0  0  0  0  0
    5.6365  -12.8361   26.9364 C   0  0  0  0  0  0  0  0  0  0  0  0
   10.6143  -16.7675   20.4282 C   0  0  0  0  0  0  0  0  0  0  0  0
   11.4858  -17.1292   21.5794 C   0  0  1  0  0  0  0  0  0  0  0  0
   12.1333  -15.8324   22.0824 C   0  0  0  0  0  0  0  0  0  0  0  0
   10.7711  -17.7292   22.7618 C   0  0  2  0  0  0  0  0  0  0  0  0
    9.8417  -16.6808   23.2091 N   0  0  0  0  0  0  0  0  0  0  0  0
   11.6412  -18.1230   23.8683 C   0  0  0  0  0  0  0  0  0  0  0  0
   12.2885  -17.1892   24.4537 O   0  0  0  0  0  0  0  0  0  0  0  0
   11.8353  -19.4171   24.3501 N   0  0  0  0  0  0  0  0  0  0  0  0
   12.6651  -19.6463   25.5249 C   0  0  1  0  0  0  0  0  0  0  0  0
   12.1306  -20.7398   26.3785 C   0  0  0  0  0  0  0  0  0  0  0  0
   10.6543  -20.6491   26.5378 C   0  0  0  0  0  0  0  0  0  0  0  0
   10.0880  -21.8554   27.2960 C   0  0  0  0  0  0  0  0  0  0  0  0
    8.5878  -21.7972   27.3970 C   0  0  0  0  0  0  0  0  0  0  0  0
    8.0448  -23.0458   27.9245 N   0  0  0  0  0  0  0  0  0  0  0  0
   14.0648  -19.9181   25.1313 C   0  0  0  0  0  0  0  0  0  0  0  0
   14.3123  -20.0902   23.7506 O   0  0  0  0  0  0  0  0  0  0  0  0
   15.0518  -20.0146   25.8600 O   0  0  0  0  0  0  0  0  0  0  0  0
  2  3  2  0
  2  1  1  0
  4  3  1  0
  5  4  2  0
  6  5  1  0
  7  6  1  0
  7  8  1  1
  9  7  1  0
  9 10  2  0
 11  5  1  0
 11 12  2  0
 12  2  1  0
 14 13  1  6
 14 16  1  0
 15 14  1  0
 16 17  1  1
 17  9  1  0
 18 16  1  0
 19 18  2  0
 20 18  1  0
 21 20  1  0
 21 27  1  0
 21 22  1  6
 23 22  1  0
 24 23  1  0
 25 24  1  0
 26 25  1  0
 27 28  1  0
 29 27  2  0
M  END
$$$$
