YVK.pdb
     RDKit          3D

 29 29  0  0  1  0  0  0  0  0999 V2000
   10.2174  -13.7669   30.4615 O   0  0  0  0  0  0  0  0  0  0  0  0
    9.5854  -13.8995   29.2150 C   0  0  0  0  0  0  0  0  0  0  0  0
    8.4168  -13.2103   28.9324 C   0  0  0  0  0  0  0  0  0  0  0  0
    7.7976  -13.3452   27.7005 C   0  0  0  0  0  0  0  0  0  0  0  0
    8.3342  -14.1680   26.7343 C   0  0  0  0  0  0  0  0  0  0  0  0
    7.6761  -14.3055   25.4317 C   0  0  0  0  0  0  0  0  0  0  0  0
    8.2175  -15.4676   24.6383 C   0  0  2  0  0  0  0  0  0  0  0  0
    9.6611  -15.3791   24.7138 N   0  0  0  0  0  0  0  0  0  0  0  0
    7.7918  -15.5276   23.2465 C   0  0  0  0  0  0  0  0  0  0  0  0
    6.8114  -16.2733   22.9343 O   0  0  0  0  0  0  0  0  0  0  0  0
    9.4838  -14.8503   27.0027 C   0  0  0  0  0  0  0  0  0  0  0  0
   10.1054  -14.7160   28.2371 C   0  0  0  0  0  0  0  0  0  0  0  0
    9.0669  -12.7604   20.3463 C   0  0  0  0  0  0  0  0  0  0  0  0
    7.8643  -13.6267   20.2088 C   0  0  1  0  0  0  0  0  0  0  0  0
    7.5962  -13.7943   18.7076 C   0  0  0  0  0  0  0  0  0  0  0  0
    8.0078  -15.0175   20.7688 C   0  0  2  0  0  0  0  0  0  0  0  0
    8.3761  -14.8176   22.1786 N   0  0  0  0  0  0  0  0  0  0  0  0
    9.0162  -15.8433   20.1071 C   0  0  0  0  0  0  0  0  0  0  0  0
   10.2378  -15.6068   20.3993 O   0  0  0  0  0  0  0  0  0  0  0  0
    8.7783  -16.8650   19.1884 N   0  0  0  0  0  0  0  0  0  0  0  0
    9.8751  -17.7005   18.7193 C   0  0  1  0  0  0  0  0  0  0  0  0
    9.6556  -19.1361   19.0368 C   0  0  0  0  0  0  0  0  0  0  0  0
    9.9397  -19.4389   20.4653 C   0  0  0  0  0  0  0  0  0  0  0  0
    9.6431  -20.9039   20.8070 C   0  0  0  0  0  0  0  0  0  0  0  0
    9.9894  -21.2250   22.2357 C   0  0  0  0  0  0  0  0  0  0  0  0
    9.5908  -22.5861   22.5830 N   0  0  0  0  0  0  0  0  0  0  0  0
   10.0969  -17.5069   17.2698 C   0  0  0  0  0  0  0  0  0  0  0  0
    9.0255  -16.9523   16.5338 O   0  0  0  0  0  0  0  0  0  0  0  0
   11.1057  -17.7697   16.6157 O   0  0  0  0  0  0  0  0  0  0  0  0
  2  3  2  0
  2  1  1  0
  4  3  1  0
  5  4  2  0
  6  5  1  0
  7  6  1  0
  7  8  1  6
  9  7  1  0
  9 10  2  0
 11  5  1  0
 11 12  2  0
 12  2  1  0
 14 13  1  6
 14 16  1  0
 15 14  1  0
 16 17  1  1
 17  9  1  0
 18 16  1  0
 19 18  2  0
 20 18  1  0
 21 20  1  0
 21 27  1  0
 21 22  1  6
 23 22  1  0
 24 23  1  0
 25 24  1  0
 26 25  1  0
 27 28  1  0
 29 27  2  0
M  END
$$$$
