YVK.pdb
     RDKit          3D

 29 29  0  0  1  0  0  0  0  0999 V2000
    5.3023  -10.3651   28.6224 O   0  0  0  0  0  0  0  0  0  0  0  0
    5.9876  -11.3022   27.8333 C   0  0  0  0  0  0  0  0  0  0  0  0
    6.9398  -12.1411   28.3900 C   0  0  0  0  0  0  0  0  0  0  0  0
    7.6129  -13.0639   27.6061 C   0  0  0  0  0  0  0  0  0  0  0  0
    7.3464  -13.1632   26.2579 C   0  0  0  0  0  0  0  0  0  0  0  0
    8.0600  -14.1428   25.4334 C   0  0  0  0  0  0  0  0  0  0  0  0
    7.1202  -15.0075   24.6322 C   0  0  2  0  0  0  0  0  0  0  0  0
    6.6424  -16.0373   25.5314 N   0  0  0  0  0  0  0  0  0  0  0  0
    7.6920  -15.6127   23.4368 C   0  0  0  0  0  0  0  0  0  0  0  0
    8.0199  -16.8400   23.4649 O   0  0  0  0  0  0  0  0  0  0  0  0
    6.4110  -12.3422   25.7008 C   0  0  0  0  0  0  0  0  0  0  0  0
    5.7357  -11.4168   26.4854 C   0  0  0  0  0  0  0  0  0  0  0  0
    6.6641  -14.2916   19.8102 C   0  0  0  0  0  0  0  0  0  0  0  0
    8.0942  -14.6992   19.8754 C   0  0  1  0  0  0  0  0  0  0  0  0
    8.9197  -13.4231   20.0850 C   0  0  0  0  0  0  0  0  0  0  0  0
    8.4476  -15.6209   21.0131 C   0  0  2  0  0  0  0  0  0  0  0  0
    7.9235  -14.9523   22.2136 N   0  0  0  0  0  0  0  0  0  0  0  0
    9.8781  -15.8750   21.1739 C   0  0  0  0  0  0  0  0  0  0  0  0
   10.5323  -15.0513   21.9000 O   0  0  0  0  0  0  0  0  0  0  0  0
   10.6010  -16.9280   20.6142 N   0  0  0  0  0  0  0  0  0  0  0  0
   11.7542  -17.4795   21.3123 C   0  0  1  0  0  0  0  0  0  0  0  0
   11.4383  -18.7740   21.9715 C   0  0  0  0  0  0  0  0  0  0  0  0
   12.6226  -19.3477   22.6653 C   0  0  0  0  0  0  0  0  0  0  0  0
   12.2659  -20.6193   23.4441 C   0  0  0  0  0  0  0  0  0  0  0  0
   13.4639  -21.1978   24.1471 C   0  0  0  0  0  0  0  0  0  0  0  0
   13.1150  -22.4190   24.8678 N   0  0  0  0  0  0  0  0  0  0  0  0
   12.9038  -17.6205   20.3924 C   0  0  0  0  0  0  0  0  0  0  0  0
   12.6059  -17.6929   19.0129 O   0  0  0  0  0  0  0  0  0  0  0  0
   14.0993  -17.6837   20.6776 O   0  0  0  0  0  0  0  0  0  0  0  0
  2  3  2  0
  2  1  1  0
  4  3  1  0
  5  4  2  0
  6  5  1  0
  7  6  1  0
  7  8  1  1
  9  7  1  0
  9 10  2  0
 11  5  1  0
 11 12  2  0
 12  2  1  0
 14 13  1  1
 14 16  1  0
 15 14  1  0
 16 17  1  1
 17  9  1  0
 18 16  1  0
 19 18  2  0
 20 18  1  0
 21 20  1  0
 21 27  1  0
 21 22  1  6
 23 22  1  0
 24 23  1  0
 25 24  1  0
 26 25  1  0
 27 28  1  0
 29 27  2  0
M  END
$$$$
