YVK.pdb
     RDKit          3D

 29 29  0  0  1  0  0  0  0  0999 V2000
    7.5721  -14.4577   15.4924 O   0  0  0  0  0  0  0  0  0  0  0  0
    7.8541  -14.2367   16.8497 C   0  0  0  0  0  0  0  0  0  0  0  0
    7.2837  -13.1736   17.5315 C   0  0  0  0  0  0  0  0  0  0  0  0
    7.5660  -12.9606   18.8709 C   0  0  0  0  0  0  0  0  0  0  0  0
    8.4197  -13.8035   19.5486 C   0  0  0  0  0  0  0  0  0  0  0  0
    8.7133  -13.5748   20.9664 C   0  0  0  0  0  0  0  0  0  0  0  0
    8.3386  -14.7562   21.8249 C   0  0  2  0  0  0  0  0  0  0  0  0
    6.9147  -14.9548   21.6511 N   0  0  0  0  0  0  0  0  0  0  0  0
    8.6570  -14.6271   23.2405 C   0  0  0  0  0  0  0  0  0  0  0  0
    9.8733  -14.6770   23.6049 O   0  0  0  0  0  0  0  0  0  0  0  0
    8.9858  -14.8525   18.8865 C   0  0  0  0  0  0  0  0  0  0  0  0
    8.7038  -15.0670   17.5439 C   0  0  0  0  0  0  0  0  0  0  0  0
    7.1926  -13.0241   27.6918 C   0  0  0  0  0  0  0  0  0  0  0  0
    6.9620  -13.4953   26.2987 C   0  0  1  0  0  0  0  0  0  0  0  0
    6.7882  -12.2485   25.4218 C   0  0  0  0  0  0  0  0  0  0  0  0
    8.0936  -14.2826   25.6919 C   0  0  2  0  0  0  0  0  0  0  0  0
    7.7213  -14.4450   24.2785 N   0  0  0  0  0  0  0  0  0  0  0  0
    8.3211  -15.5937   26.2968 C   0  0  0  0  0  0  0  0  0  0  0  0
    7.2910  -16.3234   26.4967 O   0  0  0  0  0  0  0  0  0  0  0  0
    9.5513  -16.1290   26.6771 N   0  0  0  0  0  0  0  0  0  0  0  0
    9.6160  -17.4299   27.3288 C   0  0  1  0  0  0  0  0  0  0  0  0
   10.4572  -18.3914   26.5686 C   0  0  0  0  0  0  0  0  0  0  0  0
    9.9283  -18.6301   25.1988 C   0  0  0  0  0  0  0  0  0  0  0  0
   10.8194  -19.5916   24.4037 C   0  0  0  0  0  0  0  0  0  0  0  0
   10.2915  -19.8214   23.0135 C   0  0  0  0  0  0  0  0  0  0  0  0
   11.2705  -20.5197   22.1851 N   0  0  0  0  0  0  0  0  0  0  0  0
   10.0948  -17.2937   28.7216 C   0  0  0  0  0  0  0  0  0  0  0  0
   10.6405  -16.0414   29.0840 O   0  0  0  0  0  0  0  0  0  0  0  0
   10.0788  -18.1402   29.6146 O   0  0  0  0  0  0  0  0  0  0  0  0
  2  3  2  0
  2  1  1  0
  4  3  1  0
  5  4  2  0
  6  5  1  0
  7  6  1  0
  7  8  1  1
  9  7  1  0
  9 10  2  0
 11  5  1  0
 11 12  2  0
 12  2  1  0
 14 13  1  1
 14 16  1  0
 15 14  1  0
 16 17  1  6
 17  9  1  0
 18 16  1  0
 19 18  2  0
 20 18  1  0
 21 20  1  0
 21 27  1  0
 21 22  1  6
 23 22  1  0
 24 23  1  0
 25 24  1  0
 26 25  1  0
 27 28  1  0
 29 27  2  0
M  END
$$$$
