YVK.pdb
     RDKit          3D

 29 29  0  0  1  0  0  0  0  0999 V2000
    9.8331  -14.2695   30.4009 O   0  0  0  0  0  0  0  0  0  0  0  0
    9.7581  -14.5239   29.0224 C   0  0  0  0  0  0  0  0  0  0  0  0
   10.1986  -15.7276   28.4955 C   0  0  0  0  0  0  0  0  0  0  0  0
   10.1220  -15.9728   27.1342 C   0  0  0  0  0  0  0  0  0  0  0  0
    9.6058  -15.0226   26.2802 C   0  0  0  0  0  0  0  0  0  0  0  0
    9.5252  -15.2880   24.8409 C   0  0  0  0  0  0  0  0  0  0  0  0
    8.1032  -15.2920   24.3397 C   0  0  2  0  0  0  0  0  0  0  0  0
    7.4124  -16.3323   25.0732 N   0  0  0  0  0  0  0  0  0  0  0  0
    7.9453  -15.5007   22.9067 C   0  0  0  0  0  0  0  0  0  0  0  0
    7.5188  -16.6234   22.4914 O   0  0  0  0  0  0  0  0  0  0  0  0
    9.1697  -13.8352   26.7891 C   0  0  0  0  0  0  0  0  0  0  0  0
    9.2459  -13.5881   28.1533 C   0  0  0  0  0  0  0  0  0  0  0  0
    7.0448  -12.3821   20.7170 C   0  0  0  0  0  0  0  0  0  0  0  0
    7.8268  -13.3578   19.9094 C   0  0  1  0  0  0  0  0  0  0  0  0
    9.2693  -12.8394   19.8451 C   0  0  0  0  0  0  0  0  0  0  0  0
    7.9044  -14.7487   20.4822 C   0  0  2  0  0  0  0  0  0  0  0  0
    8.2253  -14.5512   21.9037 N   0  0  0  0  0  0  0  0  0  0  0  0
    8.9100  -15.6106   19.8637 C   0  0  0  0  0  0  0  0  0  0  0  0
    8.6555  -16.0422   18.6879 O   0  0  0  0  0  0  0  0  0  0  0  0
   10.1211  -16.0088   20.4288 N   0  0  0  0  0  0  0  0  0  0  0  0
   10.9555  -16.9954   19.7568 C   0  0  1  0  0  0  0  0  0  0  0  0
   11.9472  -16.3598   18.8499 C   0  0  0  0  0  0  0  0  0  0  0  0
   13.0016  -15.6297   19.6038 C   0  0  0  0  0  0  0  0  0  0  0  0
   14.0381  -14.9984   18.6669 C   0  0  0  0  0  0  0  0  0  0  0  0
   15.0456  -14.1751   19.4228 C   0  0  0  0  0  0  0  0  0  0  0  0
   16.0367  -13.5944   18.5213 N   0  0  0  0  0  0  0  0  0  0  0  0
   11.6250  -17.8721   20.7422 C   0  0  0  0  0  0  0  0  0  0  0  0
   12.4227  -18.9162   20.2218 O   0  0  0  0  0  0  0  0  0  0  0  0
   11.5758  -17.8080   21.9701 O   0  0  0  0  0  0  0  0  0  0  0  0
  2  3  2  0
  2  1  1  0
  4  3  1  0
  5  4  2  0
  6  5  1  0
  7  6  1  0
  7  8  1  1
  9  7  1  0
  9 10  2  0
 11  5  1  0
 11 12  2  0
 12  2  1  0
 14 13  1  1
 14 16  1  0
 15 14  1  0
 16 17  1  1
 17  9  1  0
 18 16  1  0
 19 18  2  0
 20 18  1  0
 21 20  1  0
 21 27  1  0
 21 22  1  1
 23 22  1  0
 24 23  1  0
 25 24  1  0
 26 25  1  0
 27 28  1  0
 29 27  2  0
M  END
$$$$
