YVK.pdb
     RDKit          3D

 29 29  0  0  1  0  0  0  0  0999 V2000
   10.2404  -13.5102   30.4456 O   0  0  0  0  0  0  0  0  0  0  0  0
    9.8708  -14.2501   29.3113 C   0  0  0  0  0  0  0  0  0  0  0  0
   10.3472  -15.5365   29.1141 C   0  0  0  0  0  0  0  0  0  0  0  0
    9.9789  -16.2617   27.9927 C   0  0  0  0  0  0  0  0  0  0  0  0
    9.1317  -15.7155   27.0534 C   0  0  0  0  0  0  0  0  0  0  0  0
    8.7436  -16.4880   25.8697 C   0  0  0  0  0  0  0  0  0  0  0  0
    7.5274  -15.9150   25.1874 C   0  0  2  0  0  0  0  0  0  0  0  0
    6.3862  -16.6414   25.7044 N   0  0  0  0  0  0  0  0  0  0  0  0
    7.5405  -15.9736   23.7319 C   0  0  0  0  0  0  0  0  0  0  0  0
    6.9563  -16.9401   23.1495 O   0  0  0  0  0  0  0  0  0  0  0  0
    8.6576  -14.4504   27.2385 C   0  0  0  0  0  0  0  0  0  0  0  0
    9.0260  -13.7224   28.3620 C   0  0  0  0  0  0  0  0  0  0  0  0
    8.1851  -13.5393   19.4501 C   0  0  0  0  0  0  0  0  0  0  0  0
    8.1910  -13.7091   20.9290 C   0  0  1  0  0  0  0  0  0  0  0  0
    6.9268  -13.0272   21.4680 C   0  0  0  0  0  0  0  0  0  0  0  0
    8.1386  -15.1349   21.4115 C   0  0  2  0  0  0  0  0  0  0  0  0
    8.1542  -15.0348   22.8786 N   0  0  0  0  0  0  0  0  0  0  0  0
    9.2472  -15.9749   20.9618 C   0  0  0  0  0  0  0  0  0  0  0  0
   10.3436  -15.8796   21.6117 O   0  0  0  0  0  0  0  0  0  0  0  0
    9.2279  -16.8714   19.8939 N   0  0  0  0  0  0  0  0  0  0  0  0
   10.3936  -17.6957   19.6062 C   0  0  1  0  0  0  0  0  0  0  0  0
   10.0984  -18.7415   18.5917 C   0  0  0  0  0  0  0  0  0  0  0  0
   11.2649  -19.6350   18.3592 C   0  0  0  0  0  0  0  0  0  0  0  0
   10.9737  -20.6821   17.2778 C   0  0  0  0  0  0  0  0  0  0  0  0
   12.1066  -21.6612   17.1293 C   0  0  0  0  0  0  0  0  0  0  0  0
   11.8465  -22.6109   16.0511 N   0  0  0  0  0  0  0  0  0  0  0  0
   11.5361  -16.8565   19.1843 C   0  0  0  0  0  0  0  0  0  0  0  0
   12.7677  -17.0887   19.8374 O   0  0  0  0  0  0  0  0  0  0  0  0
   11.5517  -15.9724   18.3283 O   0  0  0  0  0  0  0  0  0  0  0  0
  2  3  2  0
  2  1  1  0
  4  3  1  0
  5  4  2  0
  6  5  1  0
  7  6  1  0
  7  8  1  1
  9  7  1  0
  9 10  2  0
 11  5  1  0
 11 12  2  0
 12  2  1  0
 14 13  1  6
 14 16  1  0
 15 14  1  0
 16 17  1  1
 17  9  1  0
 18 16  1  0
 19 18  2  0
 20 18  1  0
 21 20  1  0
 21 27  1  0
 21 22  1  6
 23 22  1  0
 24 23  1  0
 25 24  1  0
 26 25  1  0
 27 28  1  0
 29 27  2  0
M  END
$$$$
