YVK.pdb
     RDKit          3D

 29 29  0  0  1  0  0  0  0  0999 V2000
    7.8591  -14.4210   15.6757 O   0  0  0  0  0  0  0  0  0  0  0  0
    7.8015  -14.1012   17.0414 C   0  0  0  0  0  0  0  0  0  0  0  0
    7.2700  -12.8946   17.4682 C   0  0  0  0  0  0  0  0  0  0  0  0
    7.2160  -12.5846   18.8173 C   0  0  0  0  0  0  0  0  0  0  0  0
    7.6904  -13.4720   19.7586 C   0  0  0  0  0  0  0  0  0  0  0  0
    7.6290  -13.1398   21.1850 C   0  0  0  0  0  0  0  0  0  0  0  0
    7.8635  -14.3434   22.0621 C   0  0  2  0  0  0  0  0  0  0  0  0
    6.6524  -15.1354   22.0049 N   0  0  0  0  0  0  0  0  0  0  0  0
    8.2054  -14.0510   23.4476 C   0  0  0  0  0  0  0  0  0  0  0  0
    8.2284  -12.8406   23.8337 O   0  0  0  0  0  0  0  0  0  0  0  0
    8.2153  -14.6618   19.3485 C   0  0  0  0  0  0  0  0  0  0  0  0
    8.2701  -14.9737   17.9966 C   0  0  0  0  0  0  0  0  0  0  0  0
    6.6521  -14.2122   26.4662 C   0  0  0  0  0  0  0  0  0  0  0  0
    8.0382  -13.6875   26.3275 C   0  0  1  0  0  0  0  0  0  0  0  0
    8.5302  -13.3301   27.7360 C   0  0  0  0  0  0  0  0  0  0  0  0
    9.0401  -14.6621   25.7661 C   0  0  2  0  0  0  0  0  0  0  0  0
    8.5215  -15.0068   24.4338 N   0  0  0  0  0  0  0  0  0  0  0  0
    9.2203  -15.8786   26.5562 C   0  0  0  0  0  0  0  0  0  0  0  0
    8.1681  -16.5520   26.8266 O   0  0  0  0  0  0  0  0  0  0  0  0
   10.4270  -16.3791   27.0442 N   0  0  0  0  0  0  0  0  0  0  0  0
   10.4679  -17.6702   27.7168 C   0  0  1  0  0  0  0  0  0  0  0  0
   11.5447  -18.5432   27.1796 C   0  0  0  0  0  0  0  0  0  0  0  0
   11.5059  -18.6234   25.6946 C   0  0  0  0  0  0  0  0  0  0  0  0
   12.6239  -19.5158   25.1429 C   0  0  0  0  0  0  0  0  0  0  0  0
   12.7294  -19.4169   23.6452 C   0  0  0  0  0  0  0  0  0  0  0  0
   13.7608  -20.3117   23.1278 N   0  0  0  0  0  0  0  0  0  0  0  0
   10.6092  -17.4939   29.1785 C   0  0  0  0  0  0  0  0  0  0  0  0
   10.8367  -16.1772   29.6385 O   0  0  0  0  0  0  0  0  0  0  0  0
   10.5535  -18.3563   30.0547 O   0  0  0  0  0  0  0  0  0  0  0  0
  2  3  2  0
  2  1  1  0
  4  3  1  0
  5  4  2  0
  6  5  1  0
  7  6  1  0
  7  8  1  1
  9  7  1  0
  9 10  2  0
 11  5  1  0
 11 12  2  0
 12  2  1  0
 14 13  1  1
 14 16  1  0
 15 14  1  0
 16 17  1  6
 17  9  1  0
 18 16  1  0
 19 18  2  0
 20 18  1  0
 21 20  1  0
 21 27  1  0
 21 22  1  6
 23 22  1  0
 24 23  1  0
 25 24  1  0
 26 25  1  0
 27 28  1  0
 29 27  2  0
M  END
$$$$
