YVK.pdb
     RDKit          3D

 29 29  0  0  1  0  0  0  0  0999 V2000
    3.6075  -20.2860   13.6253 O   0  0  0  0  0  0  0  0  0  0  0  0
    4.5765  -19.7935   14.5137 C   0  0  0  0  0  0  0  0  0  0  0  0
    4.2139  -19.0225   15.6067 C   0  0  0  0  0  0  0  0  0  0  0  0
    5.1747  -18.5394   16.4799 C   0  0  0  0  0  0  0  0  0  0  0  0
    6.5087  -18.8177   16.2760 C   0  0  0  0  0  0  0  0  0  0  0  0
    7.5210  -18.3056   17.2042 C   0  0  0  0  0  0  0  0  0  0  0  0
    7.9071  -16.8806   16.8987 C   0  0  2  0  0  0  0  0  0  0  0  0
    8.6125  -16.9085   15.6342 N   0  0  0  0  0  0  0  0  0  0  0  0
    8.7210  -16.2219   17.9114 C   0  0  0  0  0  0  0  0  0  0  0  0
    9.9799  -16.3941   17.8972 O   0  0  0  0  0  0  0  0  0  0  0  0
    6.8754  -19.5756   15.2034 C   0  0  0  0  0  0  0  0  0  0  0  0
    5.9134  -20.0604   14.3274 C   0  0  0  0  0  0  0  0  0  0  0  0
    7.9551  -12.5945   19.1973 C   0  0  0  0  0  0  0  0  0  0  0  0
    8.3508  -13.4824   20.3247 C   0  0  1  0  0  0  0  0  0  0  0  0
    7.0588  -13.9569   21.0024 C   0  0  0  0  0  0  0  0  0  0  0  0
    9.1003  -14.7274   19.9284 C   0  0  2  0  0  0  0  0  0  0  0  0
    8.2363  -15.3850   18.9365 N   0  0  0  0  0  0  0  0  0  0  0  0
    9.3811  -15.6492   21.0275 C   0  0  0  0  0  0  0  0  0  0  0  0
    8.4292  -16.4209   21.3907 O   0  0  0  0  0  0  0  0  0  0  0  0
   10.5855  -15.7716   21.7196 N   0  0  0  0  0  0  0  0  0  0  0  0
   10.7557  -16.8187   22.7174 C   0  0  1  0  0  0  0  0  0  0  0  0
   12.0441  -17.5413   22.5510 C   0  0  0  0  0  0  0  0  0  0  0  0
   12.2089  -18.0727   21.1713 C   0  0  0  0  0  0  0  0  0  0  0  0
   13.5963  -18.6902   20.9606 C   0  0  0  0  0  0  0  0  0  0  0  0
   13.7345  -19.2986   19.5913 C   0  0  0  0  0  0  0  0  0  0  0  0
   15.1170  -19.6832   19.3209 N   0  0  0  0  0  0  0  0  0  0  0  0
   10.6323  -16.2644   24.0832 C   0  0  0  0  0  0  0  0  0  0  0  0
   10.6690  -17.1919   25.1488 O   0  0  0  0  0  0  0  0  0  0  0  0
   10.5002  -15.0864   24.4138 O   0  0  0  0  0  0  0  0  0  0  0  0
  2  3  2  0
  2  1  1  0
  4  3  1  0
  5  4  2  0
  6  5  1  0
  7  6  1  0
  7  8  1  6
  9  7  1  0
  9 10  2  0
 11  5  1  0
 11 12  2  0
 12  2  1  0
 14 13  1  6
 14 16  1  0
 15 14  1  0
 16 17  1  6
 17  9  1  0
 18 16  1  0
 19 18  2  0
 20 18  1  0
 21 20  1  0
 21 27  1  0
 21 22  1  1
 23 22  1  0
 24 23  1  0
 25 24  1  0
 26 25  1  0
 27 28  1  0
 29 27  2  0
M  END
$$$$
