NNS.pdb
     RDKit          3D

 23 22  0  0  1  0  0  0  0  0999 V2000
   28.7620  -18.2598  -16.3734 N   0  0  0  0  0  0  0  0  0  0  0  0
   27.6261  -17.5036  -16.7232 C   0  0  0  0  0  0  0  0  0  0  0  0
   27.7547  -16.3428  -17.1491 O   0  0  0  0  0  0  0  0  0  0  0  0
   26.2828  -18.0952  -16.5825 C   0  0  0  0  0  0  0  0  0  0  0  0
   26.4401  -19.4892  -16.0957 C   0  0  2  0  0  0  0  0  0  0  0  0
   26.9823  -20.3243  -17.1187 N   0  0  0  0  0  0  0  0  0  0  0  0
   25.2372  -20.0995  -15.5064 C   0  0  0  0  0  0  0  0  0  0  0  0
   24.4176  -20.6413  -16.2918 O   0  0  0  0  0  0  0  0  0  0  0  0
   25.8751  -21.2062  -10.5864 N   0  0  0  0  0  0  0  0  0  0  0  0
   25.5165  -21.6543  -11.8841 C   0  0  0  0  0  0  0  0  0  0  0  0
   26.4521  -22.0476  -12.6211 O   0  0  0  0  0  0  0  0  0  0  0  0
   24.1317  -21.6762  -12.3876 C   0  0  0  0  0  0  0  0  0  0  0  0
   23.8298  -20.7904  -13.5246 C   0  0  2  0  0  0  0  0  0  0  0  0
   24.9577  -20.1095  -14.1194 N   0  0  0  0  0  0  0  0  0  0  0  0
   22.6102  -20.0016  -13.5344 C   0  0  0  0  0  0  0  0  0  0  0  0
   22.5890  -18.9932  -12.7162 O   0  0  0  0  0  0  0  0  0  0  0  0
   20.0744  -19.7488  -16.6085 O   0  0  0  0  0  0  0  0  0  0  0  0
   20.1087  -18.6693  -15.7072 C   0  0  0  0  0  0  0  0  0  0  0  0
   20.3690  -19.1829  -14.3192 C   0  0  2  0  0  0  0  0  0  0  0  0
   21.4493  -20.1784  -14.3008 N   0  0  0  0  0  0  0  0  0  0  0  0
   19.1607  -19.7645  -13.7145 C   0  0  0  0  0  0  0  0  0  0  0  0
   18.0293  -19.0077  -13.4710 O   0  0  0  0  0  0  0  0  0  0  0  0
   19.1156  -20.9942  -13.3935 O   0  0  0  0  0  0  0  0  0  0  0  0
  1  2  1  0
  2  4  1  0
  3  2  2  0
  4  5  1  0
  5  6  1  6
  7  5  1  0
  8  7  2  0
 10  9  1  0
 11 10  2  0
 12 10  1  0
 13 12  1  1
 13 15  1  0
 13 14  1  0
 14  7  1  0
 15 20  1  0
 16 15  2  0
 18 17  1  0
 19 18  1  6
 19 21  1  0
 20 19  1  0
 21 23  2  0
 21 22  1  0
M  END
$$$$
