NNS.pdb
     RDKit          3D

 23 22  0  0  1  0  0  0  0  0999 V2000
   12.2154  -13.3623   -9.4743 N   0  0  0  0  0  0  0  0  0  0  0  0
   13.0974  -13.2159  -10.5628 C   0  0  0  0  0  0  0  0  0  0  0  0
   13.4780  -14.2144  -11.1980 O   0  0  0  0  0  0  0  0  0  0  0  0
   13.5673  -11.8719  -10.9467 C   0  0  0  0  0  0  0  0  0  0  0  0
   13.1033  -10.9081   -9.9169 C   0  0  2  0  0  0  0  0  0  0  0  0
   11.6773  -10.8789   -9.8570 N   0  0  0  0  0  0  0  0  0  0  0  0
   13.6493   -9.5454  -10.0252 C   0  0  0  0  0  0  0  0  0  0  0  0
   13.0942   -8.7610  -10.8369 O   0  0  0  0  0  0  0  0  0  0  0  0
   16.6383   -5.1451   -9.5080 N   0  0  0  0  0  0  0  0  0  0  0  0
   16.1215   -5.6605   -8.2911 C   0  0  0  0  0  0  0  0  0  0  0  0
   16.2180   -4.9215   -7.2822 O   0  0  0  0  0  0  0  0  0  0  0  0
   15.4947   -6.9884   -8.1664 C   0  0  0  0  0  0  0  0  0  0  0  0
   15.3253   -7.7566   -9.4113 C   0  0  2  0  0  0  0  0  0  0  0  0
   14.7521   -9.0765   -9.2730 N   0  0  0  0  0  0  0  0  0  0  0  0
   16.3187   -7.6677  -10.4673 C   0  0  0  0  0  0  0  0  0  0  0  0
   17.5030   -8.1029  -10.1600 O   0  0  0  0  0  0  0  0  0  0  0  0
   16.6510   -9.1302  -13.9093 O   0  0  0  0  0  0  0  0  0  0  0  0
   16.8942   -7.7522  -14.0541 C   0  0  0  0  0  0  0  0  0  0  0  0
   17.2958   -7.1718  -12.7274 C   0  0  2  0  0  0  0  0  0  0  0  0
   16.1796   -7.1734  -11.7722 N   0  0  0  0  0  0  0  0  0  0  0  0
   17.8180   -5.8033  -12.8636 C   0  0  0  0  0  0  0  0  0  0  0  0
   19.0171   -5.5392  -13.4996 O   0  0  0  0  0  0  0  0  0  0  0  0
   17.1778   -4.8083  -12.3974 O   0  0  0  0  0  0  0  0  0  0  0  0
  1  2  1  0
  2  4  1  0
  3  2  2  0
  4  5  1  0
  5  6  1  6
  7  5  1  0
  8  7  2  0
 10  9  1  0
 11 10  2  0
 12 10  1  0
 13 12  1  1
 13 15  1  0
 13 14  1  0
 14  7  1  0
 15 20  1  0
 16 15  2  0
 18 17  1  0
 19 18  1  6
 19 21  1  0
 20 19  1  0
 21 23  2  0
 21 22  1  0
M  END
$$$$
