NNS.pdb
     RDKit          3D

 23 22  0  0  1  0  0  0  0  0999 V2000
   27.7741  -21.0514  -15.4689 N   0  0  0  0  0  0  0  0  0  0  0  0
   26.8080  -20.2883  -16.1536 C   0  0  0  0  0  0  0  0  0  0  0  0
   27.1588  -19.4578  -17.0094 O   0  0  0  0  0  0  0  0  0  0  0  0
   25.3775  -20.4793  -15.8512 C   0  0  0  0  0  0  0  0  0  0  0  0
   25.2673  -21.4373  -14.7221 C   0  0  2  0  0  0  0  0  0  0  0  0
   25.6319  -22.7535  -15.1377 N   0  0  0  0  0  0  0  0  0  0  0  0
   23.9737  -21.4511  -14.0199 C   0  0  0  0  0  0  0  0  0  0  0  0
   23.1130  -22.2831  -14.4061 O   0  0  0  0  0  0  0  0  0  0  0  0
   20.7372  -21.1264   -9.2349 N   0  0  0  0  0  0  0  0  0  0  0  0
   21.0616  -20.1303  -10.1920 C   0  0  0  0  0  0  0  0  0  0  0  0
   20.1812  -19.2679  -10.4256 O   0  0  0  0  0  0  0  0  0  0  0  0
   22.3513  -20.0683  -10.9023 C   0  0  0  0  0  0  0  0  0  0  0  0
   22.3622  -20.5546  -12.2922 C   0  0  2  0  0  0  0  0  0  0  0  0
   23.6512  -20.5885  -12.9457 N   0  0  0  0  0  0  0  0  0  0  0  0
   21.2691  -20.2272  -13.1909 C   0  0  0  0  0  0  0  0  0  0  0  0
   21.4536  -19.1822  -13.9395 O   0  0  0  0  0  0  0  0  0  0  0  0
   18.4092  -22.7019  -14.7064 O   0  0  0  0  0  0  0  0  0  0  0  0
   18.7750  -21.5182  -15.3726 C   0  0  0  0  0  0  0  0  0  0  0  0
   19.0580  -20.4415  -14.3630 C   0  0  2  0  0  0  0  0  0  0  0  0
   20.0393  -20.8791  -13.3611 N   0  0  0  0  0  0  0  0  0  0  0  0
   17.8335  -19.9936  -13.6820 C   0  0  0  0  0  0  0  0  0  0  0  0
   16.7482  -19.4987  -14.3814 O   0  0  0  0  0  0  0  0  0  0  0  0
   17.7309  -20.0480  -12.4155 O   0  0  0  0  0  0  0  0  0  0  0  0
  1  2  1  0
  2  4  1  0
  3  2  2  0
  4  5  1  0
  5  6  1  6
  7  5  1  0
  8  7  2  0
 10  9  1  0
 11 10  2  0
 12 10  1  0
 13 12  1  1
 13 15  1  0
 13 14  1  0
 14  7  1  0
 15 20  1  0
 16 15  2  0
 18 17  1  0
 19 18  1  6
 19 21  1  0
 20 19  1  0
 21 23  2  0
 21 22  1  0
M  END
$$$$
