NNS.pdb
     RDKit          3D

 23 22  0  0  1  0  0  0  0  0999 V2000
   14.6373  -13.4478  -11.6314 N   0  0  0  0  0  0  0  0  0  0  0  0
   14.8758  -12.4006  -10.7199 C   0  0  0  0  0  0  0  0  0  0  0  0
   14.4187  -12.4602   -9.5654 O   0  0  0  0  0  0  0  0  0  0  0  0
   15.6712  -11.2325  -11.1409 C   0  0  0  0  0  0  0  0  0  0  0  0
   14.9375  -10.0050  -10.7413 C   0  0  2  0  0  0  0  0  0  0  0  0
   13.6876   -9.9171  -11.4255 N   0  0  0  0  0  0  0  0  0  0  0  0
   15.6881   -8.7445  -10.8613 C   0  0  0  0  0  0  0  0  0  0  0  0
   15.7553   -8.2157  -12.0006 O   0  0  0  0  0  0  0  0  0  0  0  0
   15.0185   -4.1338   -8.6386 N   0  0  0  0  0  0  0  0  0  0  0  0
   15.4707   -5.4728   -8.5116 C   0  0  0  0  0  0  0  0  0  0  0  0
   14.6207   -6.3206   -8.1484 O   0  0  0  0  0  0  0  0  0  0  0  0
   16.8562   -5.8968   -8.7806 C   0  0  0  0  0  0  0  0  0  0  0  0
   17.0502   -6.8545   -9.8822 C   0  0  2  0  0  0  0  0  0  0  0  0
   16.3300   -8.1034   -9.7755 N   0  0  0  0  0  0  0  0  0  0  0  0
   18.3518   -6.9921  -10.5120 C   0  0  0  0  0  0  0  0  0  0  0  0
   19.0625   -8.0034  -10.1135 O   0  0  0  0  0  0  0  0  0  0  0  0
   21.4100   -7.9597  -13.5784 O   0  0  0  0  0  0  0  0  0  0  0  0
   20.1513   -7.7035  -13.0049 C   0  0  0  0  0  0  0  0  0  0  0  0
   20.2506   -6.5182  -12.0864 C   0  0  2  0  0  0  0  0  0  0  0  0
   18.9515   -6.1831  -11.4878 N   0  0  0  0  0  0  0  0  0  0  0  0
   20.7891   -5.3351  -12.7749 C   0  0  0  0  0  0  0  0  0  0  0  0
   22.1453   -5.0687  -12.8167 O   0  0  0  0  0  0  0  0  0  0  0  0
   20.0183   -4.5106  -13.3609 O   0  0  0  0  0  0  0  0  0  0  0  0
  1  2  1  0
  2  4  1  0
  3  2  2  0
  4  5  1  0
  5  6  1  6
  7  5  1  0
  8  7  2  0
 10  9  1  0
 11 10  2  0
 12 10  1  0
 13 12  1  1
 13 15  1  0
 13 14  1  0
 14  7  1  0
 15 20  1  0
 16 15  2  0
 18 17  1  0
 19 18  1  6
 19 21  1  0
 20 19  1  0
 21 23  2  0
 21 22  1  0
M  END
$$$$
