NNS.pdb
     RDKit          3D

 23 22  0  0  1  0  0  0  0  0999 V2000
   13.4260  -11.1280  -16.0915 N   0  0  0  0  0  0  0  0  0  0  0  0
   13.9324  -11.0894  -14.7775 C   0  0  0  0  0  0  0  0  0  0  0  0
   14.0477  -12.1386  -14.1208 O   0  0  0  0  0  0  0  0  0  0  0  0
   14.3261   -9.7983  -14.1839 C   0  0  0  0  0  0  0  0  0  0  0  0
   15.7794   -9.8511  -13.8841 C   0  0  2  0  0  0  0  0  0  0  0  0
   16.0957  -11.0118  -13.1154 N   0  0  0  0  0  0  0  0  0  0  0  0
   16.3480   -8.6433  -13.2639 C   0  0  0  0  0  0  0  0  0  0  0  0
   16.0377   -7.5326  -13.7661 O   0  0  0  0  0  0  0  0  0  0  0  0
   19.3751   -5.3814  -10.2594 N   0  0  0  0  0  0  0  0  0  0  0  0
   18.4291   -6.1633   -9.5472 C   0  0  0  0  0  0  0  0  0  0  0  0
   18.2604   -5.8770   -8.3378 O   0  0  0  0  0  0  0  0  0  0  0  0
   17.6590   -7.2651  -10.1511 C   0  0  0  0  0  0  0  0  0  0  0  0
   17.8546   -7.4930  -11.5928 C   0  0  2  0  0  0  0  0  0  0  0  0
   17.2145   -8.6653  -12.1456 N   0  0  0  0  0  0  0  0  0  0  0  0
   19.1297   -7.1848  -12.2164 C   0  0  0  0  0  0  0  0  0  0  0  0
   20.0691   -8.0627  -12.0332 O   0  0  0  0  0  0  0  0  0  0  0  0
   20.1869   -6.5803  -15.7961 O   0  0  0  0  0  0  0  0  0  0  0  0
   20.7342   -5.5288  -15.0386 C   0  0  0  0  0  0  0  0  0  0  0  0
   20.8209   -5.9422  -13.5963 C   0  0  2  0  0  0  0  0  0  0  0  0
   19.4909   -6.0693  -12.9856 N   0  0  0  0  0  0  0  0  0  0  0  0
   21.6321   -5.0040  -12.8054 C   0  0  0  0  0  0  0  0  0  0  0  0
   22.9226   -5.3066  -12.4117 O   0  0  0  0  0  0  0  0  0  0  0  0
   21.1696   -3.8724  -12.4547 O   0  0  0  0  0  0  0  0  0  0  0  0
  1  2  1  0
  2  4  1  0
  3  2  2  0
  4  5  1  0
  5  6  1  1
  7  5  1  0
  8  7  2  0
 10  9  1  0
 11 10  2  0
 12 10  1  0
 13 12  1  1
 13 15  1  0
 13 14  1  0
 14  7  1  0
 15 20  1  0
 16 15  2  0
 18 17  1  0
 19 18  1  6
 19 21  1  0
 20 19  1  0
 21 23  2  0
 21 22  1  0
M  END
$$$$
