NNS.pdb
     RDKit          3D

 23 22  0  0  1  0  0  0  0  0999 V2000
   14.2421   -5.8854   -7.4066 N   0  0  0  0  0  0  0  0  0  0  0  0
   14.7074   -6.1966   -8.6993 C   0  0  0  0  0  0  0  0  0  0  0  0
   13.9436   -6.1108   -9.6763 O   0  0  0  0  0  0  0  0  0  0  0  0
   16.1058   -6.6243   -8.8892 C   0  0  0  0  0  0  0  0  0  0  0  0
   16.1331   -7.6552   -9.9575 C   0  0  2  0  0  0  0  0  0  0  0  0
   15.5850   -8.8865   -9.4868 N   0  0  0  0  0  0  0  0  0  0  0  0
   17.4396   -7.8764  -10.5985 C   0  0  0  0  0  0  0  0  0  0  0  0
   18.2977   -8.5332   -9.9547 O   0  0  0  0  0  0  0  0  0  0  0  0
   20.1225   -9.8946  -15.3840 N   0  0  0  0  0  0  0  0  0  0  0  0
   20.1385   -9.4810  -14.0267 C   0  0  0  0  0  0  0  0  0  0  0  0
   21.2570   -9.4589  -13.4595 O   0  0  0  0  0  0  0  0  0  0  0  0
   18.9319   -9.0882  -13.2775 C   0  0  0  0  0  0  0  0  0  0  0  0
   18.9702   -7.7778  -12.6068 C   0  0  2  0  0  0  0  0  0  0  0  0
   17.7770   -7.3955  -11.8857 N   0  0  0  0  0  0  0  0  0  0  0  0
   19.6509   -6.6561  -13.2299 C   0  0  0  0  0  0  0  0  0  0  0  0
   18.9880   -6.0495  -14.1675 O   0  0  0  0  0  0  0  0  0  0  0  0
   22.3223   -4.6774  -16.0440 O   0  0  0  0  0  0  0  0  0  0  0  0
   21.6526   -5.6342  -15.2600 C   0  0  0  0  0  0  0  0  0  0  0  0
   21.5628   -5.1463  -13.8414 C   0  0  2  0  0  0  0  0  0  0  0  0
   20.9266   -6.1380  -12.9639 N   0  0  0  0  0  0  0  0  0  0  0  0
   20.8337   -3.8724  -13.7453 C   0  0  0  0  0  0  0  0  0  0  0  0
   21.4908   -2.6568  -13.6950 O   0  0  0  0  0  0  0  0  0  0  0  0
   19.5628   -3.8462  -13.7058 O   0  0  0  0  0  0  0  0  0  0  0  0
  1  2  1  0
  2  4  1  0
  3  2  2  0
  4  5  1  0
  5  6  1  1
  7  5  1  0
  8  7  2  0
 10  9  1  0
 11 10  2  0
 12 10  1  0
 13 12  1  6
 13 15  1  0
 13 14  1  0
 14  7  1  0
 15 20  1  0
 16 15  2  0
 18 17  1  0
 19 18  1  6
 19 21  1  0
 20 19  1  0
 21 23  2  0
 21 22  1  0
M  END
$$$$
