NNS.pdb
     RDKit          3D

 23 22  0  0  1  0  0  0  0  0999 V2000
   17.6717  -14.6448  -14.3205 N   0  0  0  0  0  0  0  0  0  0  0  0
   16.9986  -13.4188  -14.1521 C   0  0  0  0  0  0  0  0  0  0  0  0
   15.7951  -13.4037  -13.8415 O   0  0  0  0  0  0  0  0  0  0  0  0
   17.7285  -12.1522  -14.3452 C   0  0  0  0  0  0  0  0  0  0  0  0
   16.8061  -11.1796  -14.9840 C   0  0  2  0  0  0  0  0  0  0  0  0
   16.3937  -11.6428  -16.2699 N   0  0  0  0  0  0  0  0  0  0  0  0
   17.2929   -9.7926  -15.0600 C   0  0  0  0  0  0  0  0  0  0  0  0
   17.8577   -9.4337  -16.1251 O   0  0  0  0  0  0  0  0  0  0  0  0
   15.2559   -5.4507  -15.8013 N   0  0  0  0  0  0  0  0  0  0  0  0
   15.4713   -6.4450  -14.8121 C   0  0  0  0  0  0  0  0  0  0  0  0
   14.6238   -7.3676  -14.7492 O   0  0  0  0  0  0  0  0  0  0  0  0
   16.6150   -6.4395  -13.8829 C   0  0  0  0  0  0  0  0  0  0  0  0
   17.6304   -7.4874  -14.0814 C   0  0  2  0  0  0  0  0  0  0  0  0
   17.1601   -8.8525  -14.0110 N   0  0  0  0  0  0  0  0  0  0  0  0
   18.9741   -7.3133  -13.5578 C   0  0  0  0  0  0  0  0  0  0  0  0
   19.0608   -7.1908  -12.2678 O   0  0  0  0  0  0  0  0  0  0  0  0
   22.5698   -7.4578  -15.6321 O   0  0  0  0  0  0  0  0  0  0  0  0
   22.5924   -7.7931  -14.2661 C   0  0  0  0  0  0  0  0  0  0  0  0
   21.4751   -7.0814  -13.5565 C   0  0  2  0  0  0  0  0  0  0  0  0
   20.1919   -7.2546  -14.2506 N   0  0  0  0  0  0  0  0  0  0  0  0
   21.7531   -5.6456  -13.3984 C   0  0  0  0  0  0  0  0  0  0  0  0
   22.7605   -5.1835  -12.5716 O   0  0  0  0  0  0  0  0  0  0  0  0
   21.0704   -4.7733  -14.0234 O   0  0  0  0  0  0  0  0  0  0  0  0
  1  2  1  0
  2  4  1  0
  3  2  2  0
  4  5  1  0
  5  6  1  6
  7  5  1  0
  8  7  2  0
 10  9  1  0
 11 10  2  0
 12 10  1  0
 13 12  1  1
 13 15  1  0
 13 14  1  0
 14  7  1  0
 15 20  1  0
 16 15  2  0
 18 17  1  0
 19 18  1  6
 19 21  1  0
 20 19  1  0
 21 23  2  0
 21 22  1  0
M  END
$$$$
