NNS.pdb
     RDKit          3D

 23 22  0  0  1  0  0  0  0  0999 V2000
   27.2146  -15.8944  -19.5498 N   0  0  0  0  0  0  0  0  0  0  0  0
   27.6036  -16.7088  -18.4683 C   0  0  0  0  0  0  0  0  0  0  0  0
   28.7113  -16.5445  -17.9286 O   0  0  0  0  0  0  0  0  0  0  0  0
   26.6904  -17.7577  -17.9779 C   0  0  0  0  0  0  0  0  0  0  0  0
   27.4157  -18.5662  -16.9655 C   0  0  2  0  0  0  0  0  0  0  0  0
   28.4784  -19.3017  -17.5720 N   0  0  0  0  0  0  0  0  0  0  0  0
   26.5800  -19.4466  -16.1330 C   0  0  0  0  0  0  0  0  0  0  0  0
   25.8332  -20.2673  -16.7252 O   0  0  0  0  0  0  0  0  0  0  0  0
   25.5241  -22.5335  -11.1649 N   0  0  0  0  0  0  0  0  0  0  0  0
   25.2320  -21.2318  -11.6485 C   0  0  0  0  0  0  0  0  0  0  0  0
   24.1303  -20.7396  -11.3062 O   0  0  0  0  0  0  0  0  0  0  0  0
   26.1418  -20.4569  -12.5108 C   0  0  0  0  0  0  0  0  0  0  0  0
   25.6996  -20.2262  -13.8963 C   0  0  2  0  0  0  0  0  0  0  0  0
   26.5729  -19.4192  -14.7183 N   0  0  0  0  0  0  0  0  0  0  0  0
   24.2905  -20.0355  -14.1929 C   0  0  0  0  0  0  0  0  0  0  0  0
   23.8580  -18.8148  -14.0948 O   0  0  0  0  0  0  0  0  0  0  0  0
   20.0971  -20.8344  -16.3272 O   0  0  0  0  0  0  0  0  0  0  0  0
   21.4188  -21.2553  -16.0929 C   0  0  0  0  0  0  0  0  0  0  0  0
   21.9324  -20.6172  -14.8330 C   0  0  2  0  0  0  0  0  0  0  0  0
   23.3294  -20.9857  -14.5665 N   0  0  0  0  0  0  0  0  0  0  0  0
   21.1063  -20.9649  -13.6666 C   0  0  0  0  0  0  0  0  0  0  0  0
   20.0277  -20.1913  -13.2789 O   0  0  0  0  0  0  0  0  0  0  0  0
   21.3582  -21.9986  -12.9700 O   0  0  0  0  0  0  0  0  0  0  0  0
  1  2  1  0
  2  4  1  0
  3  2  2  0
  4  5  1  0
  5  6  1  6
  7  5  1  0
  8  7  2  0
 10  9  1  0
 11 10  2  0
 12 10  1  0
 13 12  1  1
 13 15  1  0
 13 14  1  0
 14  7  1  0
 15 20  1  0
 16 15  2  0
 18 17  1  0
 19 18  1  6
 19 21  1  0
 20 19  1  0
 21 23  2  0
 21 22  1  0
M  END
$$$$
