NNS.pdb
     RDKit          3D

 23 22  0  0  1  0  0  0  0  0999 V2000
   17.3629  -10.8670  -19.3070 N   0  0  0  0  0  0  0  0  0  0  0  0
   17.8459  -11.4154  -18.1027 C   0  0  0  0  0  0  0  0  0  0  0  0
   17.6903  -12.6245  -17.8595 O   0  0  0  0  0  0  0  0  0  0  0  0
   18.5380  -10.5487  -17.1310 C   0  0  0  0  0  0  0  0  0  0  0  0
   19.9775  -10.9130  -17.1296 C   0  0  2  0  0  0  0  0  0  0  0  0
   20.1933  -12.1199  -16.3981 N   0  0  0  0  0  0  0  0  0  0  0  0
   20.9027   -9.8590  -16.6826 C   0  0  0  0  0  0  0  0  0  0  0  0
   20.6368   -9.2744  -15.6011 O   0  0  0  0  0  0  0  0  0  0  0  0
   24.9740   -6.4560  -16.1786 N   0  0  0  0  0  0  0  0  0  0  0  0
   25.3366   -7.5755  -16.9715 C   0  0  0  0  0  0  0  0  0  0  0  0
   26.5362   -7.6440  -17.3312 O   0  0  0  0  0  0  0  0  0  0  0  0
   24.3908   -8.6299  -17.3783 C   0  0  0  0  0  0  0  0  0  0  0  0
   22.9929   -8.4636  -16.9462 C   0  0  2  0  0  0  0  0  0  0  0  0
   22.0620   -9.4738  -17.3964 N   0  0  0  0  0  0  0  0  0  0  0  0
   22.4064   -7.1377  -16.8590 C   0  0  0  0  0  0  0  0  0  0  0  0
   21.8416   -6.7028  -17.9446 O   0  0  0  0  0  0  0  0  0  0  0  0
   19.4658   -3.9956  -15.5926 O   0  0  0  0  0  0  0  0  0  0  0  0
   20.1462   -5.2258  -15.5427 C   0  0  0  0  0  0  0  0  0  0  0  0
   21.6085   -5.0012  -15.8064 C   0  0  2  0  0  0  0  0  0  0  0  0
   22.3679   -6.2582  -15.7674 N   0  0  0  0  0  0  0  0  0  0  0  0
   22.1968   -4.0472  -14.8538 C   0  0  0  0  0  0  0  0  0  0  0  0
   22.3265   -2.7033  -15.1521 O   0  0  0  0  0  0  0  0  0  0  0  0
   22.6088   -4.4300  -13.7131 O   0  0  0  0  0  0  0  0  0  0  0  0
  1  2  1  0
  2  4  1  0
  3  2  2  0
  4  5  1  0
  5  6  1  1
  7  5  1  0
  8  7  2  0
 10  9  1  0
 11 10  2  0
 12 10  1  0
 13 12  1  6
 13 15  1  0
 13 14  1  0
 14  7  1  0
 15 20  1  0
 16 15  2  0
 18 17  1  0
 19 18  1  1
 19 21  1  0
 20 19  1  0
 21 23  2  0
 21 22  1  0
M  END
$$$$
