NNS.pdb
     RDKit          3D

 23 22  0  0  1  0  0  0  0  0999 V2000
   17.1074  -12.9059  -16.4470 N   0  0  0  0  0  0  0  0  0  0  0  0
   18.0662  -13.3631  -15.5218 C   0  0  0  0  0  0  0  0  0  0  0  0
   17.8801  -14.4239  -14.9010 O   0  0  0  0  0  0  0  0  0  0  0  0
   19.2932  -12.5778  -15.2928 C   0  0  0  0  0  0  0  0  0  0  0  0
   19.2262  -11.3584  -16.1375 C   0  0  2  0  0  0  0  0  0  0  0  0
   19.0458  -11.7035  -17.5110 N   0  0  0  0  0  0  0  0  0  0  0  0
   20.3406  -10.4099  -15.9794 C   0  0  0  0  0  0  0  0  0  0  0  0
   20.6106  -10.0213  -14.8139 O   0  0  0  0  0  0  0  0  0  0  0  0
   25.7490   -8.3838  -17.2978 N   0  0  0  0  0  0  0  0  0  0  0  0
   24.4256   -8.1855  -17.7698 C   0  0  0  0  0  0  0  0  0  0  0  0
   24.1524   -7.0444  -18.2130 O   0  0  0  0  0  0  0  0  0  0  0  0
   23.3892   -9.2331  -17.7613 C   0  0  0  0  0  0  0  0  0  0  0  0
   22.2141   -8.9907  -16.9075 C   0  0  2  0  0  0  0  0  0  0  0  0
   21.1155   -9.9184  -17.0564 N   0  0  0  0  0  0  0  0  0  0  0  0
   21.7864   -7.6328  -16.6191 C   0  0  0  0  0  0  0  0  0  0  0  0
   20.9696   -7.1080  -17.4816 O   0  0  0  0  0  0  0  0  0  0  0  0
   22.2034   -5.3257  -13.0852 O   0  0  0  0  0  0  0  0  0  0  0  0
   21.1011   -5.2361  -13.9546 C   0  0  0  0  0  0  0  0  0  0  0  0
   21.5570   -5.4671  -15.3678 C   0  0  2  0  0  0  0  0  0  0  0  0
   22.1353   -6.8064  -15.5412 N   0  0  0  0  0  0  0  0  0  0  0  0
   22.5332   -4.4555  -15.8008 C   0  0  0  0  0  0  0  0  0  0  0  0
   22.1783   -3.1327  -15.9916 O   0  0  0  0  0  0  0  0  0  0  0  0
   23.7476   -4.7664  -16.0153 O   0  0  0  0  0  0  0  0  0  0  0  0
  1  2  1  0
  2  4  1  0
  3  2  2  0
  4  5  1  0
  5  6  1  6
  7  5  1  0
  8  7  2  0
 10  9  1  0
 11 10  2  0
 12 10  1  0
 13 12  1  6
 13 15  1  0
 13 14  1  0
 14  7  1  0
 15 20  1  0
 16 15  2  0
 18 17  1  0
 19 18  1  1
 19 21  1  0
 20 19  1  0
 21 23  2  0
 21 22  1  0
M  END
$$$$
