NNS.pdb
     RDKit          3D

 23 22  0  0  1  0  0  0  0  0999 V2000
   18.8482  -21.5718  -15.5658 N   0  0  0  0  0  0  0  0  0  0  0  0
   18.8994  -20.3054  -14.9510 C   0  0  0  0  0  0  0  0  0  0  0  0
   17.8686  -19.7992  -14.4750 O   0  0  0  0  0  0  0  0  0  0  0  0
   20.1821  -19.5822  -14.8735 C   0  0  0  0  0  0  0  0  0  0  0  0
   21.0361  -20.2616  -13.8666 C   0  0  2  0  0  0  0  0  0  0  0  0
   20.4666  -20.1502  -12.5622 N   0  0  0  0  0  0  0  0  0  0  0  0
   22.4521  -19.8596  -13.8542 C   0  0  0  0  0  0  0  0  0  0  0  0
   22.7562  -18.8276  -13.2027 O   0  0  0  0  0  0  0  0  0  0  0  0
   27.9133  -20.2289  -12.8469 N   0  0  0  0  0  0  0  0  0  0  0  0
   27.2329  -20.8147  -13.9457 C   0  0  0  0  0  0  0  0  0  0  0  0
   27.9132  -21.0305  -14.9772 O   0  0  0  0  0  0  0  0  0  0  0  0
   25.8028  -21.1696  -13.9267 C   0  0  0  0  0  0  0  0  0  0  0  0
   24.8719  -20.1859  -14.5049 C   0  0  2  0  0  0  0  0  0  0  0  0
   23.4771  -20.5649  -14.5279 N   0  0  0  0  0  0  0  0  0  0  0  0
   25.2705  -19.3859  -15.6498 C   0  0  0  0  0  0  0  0  0  0  0  0
   24.6527  -19.6516  -16.7608 O   0  0  0  0  0  0  0  0  0  0  0  0
   26.4853  -15.5339  -15.8633 O   0  0  0  0  0  0  0  0  0  0  0  0
   27.2411  -16.3562  -16.7184 C   0  0  0  0  0  0  0  0  0  0  0  0
   26.4955  -17.6362  -16.9715 C   0  0  2  0  0  0  0  0  0  0  0  0
   26.2327  -18.3686  -15.7253 N   0  0  0  0  0  0  0  0  0  0  0  0
   27.2142  -18.5128  -17.9090 C   0  0  0  0  0  0  0  0  0  0  0  0
   26.8431  -18.6228  -19.2365 O   0  0  0  0  0  0  0  0  0  0  0  0
   28.2106  -19.2044  -17.5266 O   0  0  0  0  0  0  0  0  0  0  0  0
  1  2  1  0
  2  4  1  0
  3  2  2  0
  4  5  1  0
  5  6  1  1
  7  5  1  0
  8  7  2  0
 10  9  1  0
 11 10  2  0
 12 10  1  0
 13 12  1  6
 13 15  1  0
 13 14  1  0
 14  7  1  0
 15 20  1  0
 16 15  2  0
 18 17  1  0
 19 18  1  1
 19 21  1  0
 20 19  1  0
 21 23  2  0
 21 22  1  0
M  END
$$$$
