CQR.pdb
     RDKit          3D

 27 26  0  0  1  0  0  0  0  0999 V2000
    6.0640  -18.7472   24.4227 N   0  0  0  0  0  0  0  0  0  0  0  0
    6.6030  -17.3809   24.4212 C   0  0  1  0  0  0  0  0  0  0  0  0
    7.7011  -17.3250   25.4876 C   0  0  0  0  0  0  0  0  0  0  0  0
    8.0877  -15.6091   25.8415 S   0  0  0  0  0  0  0  0  0  0  0  0
    7.1067  -17.0127   23.0996 C   0  0  0  0  0  0  0  0  0  0  0  0
    7.7052  -17.9295   22.4323 O   0  0  0  0  0  0  0  0  0  0  0  0
    8.1026  -13.6204   17.8807 N   0  0  0  0  0  0  0  0  0  0  0  0
    8.6310  -12.8839   18.9730 C   0  0  0  0  0  0  0  0  0  0  0  0
    9.5057  -12.0075   18.7348 O   0  0  0  0  0  0  0  0  0  0  0  0
    8.1758  -13.1355   20.3522 C   0  0  0  0  0  0  0  0  0  0  0  0
    7.1400  -14.1739   20.5441 C   0  0  0  0  0  0  0  0  0  0  0  0
    7.5427  -15.4458   21.1828 C   0  0  2  0  0  0  0  0  0  0  0  0
    6.9906  -15.7266   22.4854 N   0  0  0  0  0  0  0  0  0  0  0  0
    9.0051  -15.6948   21.1407 C   0  0  0  0  0  0  0  0  0  0  0  0
    9.5555  -15.7228   20.0087 O   0  0  0  0  0  0  0  0  0  0  0  0
   15.8048  -13.9251   18.8468 N   0  0  0  0  0  0  0  0  0  0  0  0
   15.0281  -14.6162   17.8629 C   0  0  0  0  0  0  0  0  0  0  0  0
   15.5635  -15.1204   16.8063 N   0  0  0  0  0  0  0  0  0  0  0  0
   13.6440  -14.7494   18.0548 N   0  0  0  0  0  0  0  0  0  0  0  0
   13.0264  -14.2077   19.2864 C   0  0  0  0  0  0  0  0  0  0  0  0
   12.4906  -15.2977   20.1311 C   0  0  0  0  0  0  0  0  0  0  0  0
   11.8191  -14.9626   21.3949 C   0  0  0  0  0  0  0  0  0  0  0  0
   11.2835  -16.0280   22.2417 C   0  0  2  0  0  0  0  0  0  0  0  0
    9.7961  -15.8978   22.2905 N   0  0  0  0  0  0  0  0  0  0  0  0
   11.7936  -16.3778   23.5463 C   0  0  0  0  0  0  0  0  0  0  0  0
   11.1963  -16.3332   24.6556 O   0  0  0  0  0  0  0  0  0  0  0  0
   13.1413  -16.8466   23.7064 O   0  0  0  0  0  0  0  0  0  0  0  0
  2  1  1  6
  3  2  1  0
  4  3  1  0
  5  2  1  0
  5  6  2  0
  7  8  1  0
  8  9  2  0
  8 10  1  0
 10 11  1  0
 12 11  1  1
 12 13  1  0
 13  5  1  0
 14 12  1  0
 15 14  2  0
 16 17  1  0
 17 19  1  0
 18 17  2  0
 19 20  1  0
 20 21  1  0
 22 21  1  0
 23 22  1  1
 23 24  1  0
 24 14  1  0
 25 23  1  0
 26 25  2  0
 27 25  1  0
M  END
$$$$
