CQR.pdb
     RDKit          3D

 27 26  0  0  1  0  0  0  0  0999 V2000
    8.3210  -14.0794   17.0588 N   0  0  0  0  0  0  0  0  0  0  0  0
    8.6707  -13.7461   18.4459 C   0  0  1  0  0  0  0  0  0  0  0  0
    7.3879  -13.2727   19.1362 C   0  0  0  0  0  0  0  0  0  0  0  0
    7.7543  -12.8799   20.8481 S   0  0  0  0  0  0  0  0  0  0  0  0
    9.2678  -14.8912   19.1302 C   0  0  0  0  0  0  0  0  0  0  0  0
    9.4592  -15.9484   18.4303 O   0  0  0  0  0  0  0  0  0  0  0  0
   14.6573  -13.9038   19.1199 N   0  0  0  0  0  0  0  0  0  0  0  0
   14.5928  -15.2085   19.6750 C   0  0  0  0  0  0  0  0  0  0  0  0
   15.5594  -15.9923   19.4719 O   0  0  0  0  0  0  0  0  0  0  0  0
   13.4270  -15.6427   20.4656 C   0  0  0  0  0  0  0  0  0  0  0  0
   12.1112  -15.0750   20.0989 C   0  0  0  0  0  0  0  0  0  0  0  0
   10.9405  -15.4492   20.9218 C   0  0  2  0  0  0  0  0  0  0  0  0
    9.6581  -14.9375   20.5051 N   0  0  0  0  0  0  0  0  0  0  0  0
   11.1566  -15.2692   22.3790 C   0  0  0  0  0  0  0  0  0  0  0  0
   11.0194  -14.1079   22.8456 O   0  0  0  0  0  0  0  0  0  0  0  0
    4.3758  -17.4708   22.3945 N   0  0  0  0  0  0  0  0  0  0  0  0
    5.6184  -17.3435   21.6954 C   0  0  0  0  0  0  0  0  0  0  0  0
    5.6663  -17.1836   20.4189 N   0  0  0  0  0  0  0  0  0  0  0  0
    6.8190  -17.3936   22.4209 N   0  0  0  0  0  0  0  0  0  0  0  0
    6.7731  -17.5839   23.8883 C   0  0  0  0  0  0  0  0  0  0  0  0
    8.1350  -17.5619   24.4659 C   0  0  0  0  0  0  0  0  0  0  0  0
    9.2218  -16.9144   23.7175 C   0  0  0  0  0  0  0  0  0  0  0  0
   10.5679  -16.8594   24.2866 C   0  0  2  0  0  0  0  0  0  0  0  0
   11.5024  -16.3206   23.2530 N   0  0  0  0  0  0  0  0  0  0  0  0
   11.1994  -17.9356   25.0129 C   0  0  0  0  0  0  0  0  0  0  0  0
   10.8008  -18.5078   26.0633 O   0  0  0  0  0  0  0  0  0  0  0  0
   12.4428  -18.4949   24.5629 O   0  0  0  0  0  0  0  0  0  0  0  0
  2  1  1  6
  3  2  1  0
  4  3  1  0
  5  2  1  0
  5  6  2  0
  7  8  1  0
  8  9  2  0
  8 10  1  0
 10 11  1  0
 12 11  1  6
 12 13  1  0
 13  5  1  0
 14 12  1  0
 15 14  2  0
 16 17  1  0
 17 19  1  0
 18 17  2  0
 19 20  1  0
 20 21  1  0
 22 21  1  0
 23 22  1  6
 23 24  1  0
 24 14  1  0
 25 23  1  0
 26 25  2  0
 27 25  1  0
M  END
$$$$
