CQR.pdb
     RDKit          3D

 27 26  0  0  1  0  0  0  0  0999 V2000
    6.4012  -18.7445   17.9368 N   0  0  0  0  0  0  0  0  0  0  0  0
    6.2029  -18.4100   19.3533 C   0  0  1  0  0  0  0  0  0  0  0  0
    6.1464  -19.7303   20.1278 C   0  0  0  0  0  0  0  0  0  0  0  0
    4.7273  -19.7056   21.2254 S   0  0  0  0  0  0  0  0  0  0  0  0
    7.2659  -17.5351   19.8437 C   0  0  0  0  0  0  0  0  0  0  0  0
    8.4690  -17.8618   19.5438 O   0  0  0  0  0  0  0  0  0  0  0  0
    9.9867  -13.7160   18.7531 N   0  0  0  0  0  0  0  0  0  0  0  0
    8.6252  -13.4495   18.4534 C   0  0  0  0  0  0  0  0  0  0  0  0
    8.3268  -13.1206   17.2733 O   0  0  0  0  0  0  0  0  0  0  0  0
    7.5835  -13.5488   19.4916 C   0  0  0  0  0  0  0  0  0  0  0  0
    7.9995  -14.0424   20.8225 C   0  0  0  0  0  0  0  0  0  0  0  0
    8.1892  -15.4993   20.9938 C   0  0  2  0  0  0  0  0  0  0  0  0
    7.0850  -16.3502   20.6235 N   0  0  0  0  0  0  0  0  0  0  0  0
    8.7525  -15.8739   22.3147 C   0  0  0  0  0  0  0  0  0  0  0  0
    8.1649  -15.4383   23.3394 O   0  0  0  0  0  0  0  0  0  0  0  0
   15.4006  -13.6558   18.9787 N   0  0  0  0  0  0  0  0  0  0  0  0
   14.3915  -14.6608   18.8359 C   0  0  0  0  0  0  0  0  0  0  0  0
   13.6731  -14.7557   17.7718 N   0  0  0  0  0  0  0  0  0  0  0  0
   14.1786  -15.5694   19.8845 N   0  0  0  0  0  0  0  0  0  0  0  0
   13.6925  -15.0699   21.1905 C   0  0  0  0  0  0  0  0  0  0  0  0
   12.6341  -15.9508   21.7313 C   0  0  0  0  0  0  0  0  0  0  0  0
   11.9702  -15.5856   22.9909 C   0  0  0  0  0  0  0  0  0  0  0  0
   10.9193  -16.4435   23.5373 C   0  0  2  0  0  0  0  0  0  0  0  0
    9.8967  -16.6826   22.4748 N   0  0  0  0  0  0  0  0  0  0  0  0
   10.2719  -16.2421   24.8120 C   0  0  0  0  0  0  0  0  0  0  0  0
    9.7885  -15.1769   25.2823 O   0  0  0  0  0  0  0  0  0  0  0  0
   10.1091  -17.3313   25.7332 O   0  0  0  0  0  0  0  0  0  0  0  0
  2  1  1  6
  3  2  1  0
  4  3  1  0
  5  2  1  0
  5  6  2  0
  7  8  1  0
  8  9  2  0
  8 10  1  0
 10 11  1  0
 12 11  1  1
 12 13  1  0
 13  5  1  0
 14 12  1  0
 15 14  2  0
 16 17  1  0
 17 19  1  0
 18 17  2  0
 19 20  1  0
 20 21  1  0
 22 21  1  0
 23 22  1  6
 23 24  1  0
 24 14  1  0
 25 23  1  0
 26 25  2  0
 27 25  1  0
M  END
$$$$
