CQR.pdb
     RDKit          3D

 27 26  0  0  1  0  0  0  0  0999 V2000
    2.9760  -18.3006   21.9992 N   0  0  0  0  0  0  0  0  0  0  0  0
    4.1202  -19.2211   22.0307 C   0  0  1  0  0  0  0  0  0  0  0  0
    4.7229  -19.2444   20.6227 C   0  0  0  0  0  0  0  0  0  0  0  0
    5.4910  -17.6579   20.2876 S   0  0  0  0  0  0  0  0  0  0  0  0
    5.0991  -18.8134   23.0364 C   0  0  0  0  0  0  0  0  0  0  0  0
    5.0120  -17.6117   23.4751 O   0  0  0  0  0  0  0  0  0  0  0  0
    6.4008  -18.8313   28.1620 N   0  0  0  0  0  0  0  0  0  0  0  0
    7.7938  -18.9151   27.9030 C   0  0  0  0  0  0  0  0  0  0  0  0
    8.5845  -18.3351   28.6956 O   0  0  0  0  0  0  0  0  0  0  0  0
    8.3081  -19.6561   26.7371 C   0  0  0  0  0  0  0  0  0  0  0  0
    7.3238  -20.0834   25.7189 C   0  0  0  0  0  0  0  0  0  0  0  0
    7.0362  -19.1584   24.6011 C   0  0  2  0  0  0  0  0  0  0  0  0
    6.1405  -19.6322   23.5746 N   0  0  0  0  0  0  0  0  0  0  0  0
    8.2498  -18.5290   24.0235 C   0  0  0  0  0  0  0  0  0  0  0  0
    8.9262  -19.2130   23.2113 O   0  0  0  0  0  0  0  0  0  0  0  0
    7.5437  -11.6909   20.0401 N   0  0  0  0  0  0  0  0  0  0  0  0
    7.6092  -12.9335   19.3326 C   0  0  0  0  0  0  0  0  0  0  0  0
    7.2569  -13.0318   18.0983 N   0  0  0  0  0  0  0  0  0  0  0  0
    8.0709  -14.0776   20.0021 N   0  0  0  0  0  0  0  0  0  0  0  0
    8.6432  -13.9423   21.3607 C   0  0  0  0  0  0  0  0  0  0  0  0
    9.0420  -15.2615   21.8988 C   0  0  0  0  0  0  0  0  0  0  0  0
    9.6677  -15.3357   23.2268 C   0  0  0  0  0  0  0  0  0  0  0  0
    9.9531  -16.6384   23.8272 C   0  0  2  0  0  0  0  0  0  0  0  0
    8.6748  -17.2210   24.3355 N   0  0  0  0  0  0  0  0  0  0  0  0
   11.0224  -16.8976   24.7621 C   0  0  0  0  0  0  0  0  0  0  0  0
   10.9352  -17.2247   25.9765 O   0  0  0  0  0  0  0  0  0  0  0  0
   12.3953  -16.7960   24.3543 O   0  0  0  0  0  0  0  0  0  0  0  0
  2  1  1  6
  3  2  1  0
  4  3  1  0
  5  2  1  0
  5  6  2  0
  7  8  1  0
  8  9  2  0
  8 10  1  0
 10 11  1  0
 12 11  1  1
 12 13  1  0
 13  5  1  0
 14 12  1  0
 15 14  2  0
 16 17  1  0
 17 19  1  0
 18 17  2  0
 19 20  1  0
 20 21  1  0
 22 21  1  0
 23 22  1  1
 23 24  1  0
 24 14  1  0
 25 23  1  0
 26 25  2  0
 27 25  1  0
M  END
$$$$
