CQR.pdb
     RDKit          3D

 27 26  0  0  1  0  0  0  0  0999 V2000
    8.3243  -13.6024   17.2104 N   0  0  0  0  0  0  0  0  0  0  0  0
    8.8196  -13.4557   18.5854 C   0  0  1  0  0  0  0  0  0  0  0  0
    7.9160  -12.4371   19.2870 C   0  0  0  0  0  0  0  0  0  0  0  0
    8.3628  -12.3550   21.0228 S   0  0  0  0  0  0  0  0  0  0  0  0
    8.8360  -14.7408   19.2813 C   0  0  0  0  0  0  0  0  0  0  0  0
    8.4716  -15.7688   18.6072 O   0  0  0  0  0  0  0  0  0  0  0  0
   12.9211  -17.9360   18.5418 N   0  0  0  0  0  0  0  0  0  0  0  0
   12.5580  -18.5853   19.7506 C   0  0  0  0  0  0  0  0  0  0  0  0
   13.1464  -19.6591   20.0516 O   0  0  0  0  0  0  0  0  0  0  0  0
   11.5181  -18.0258   20.6328 C   0  0  0  0  0  0  0  0  0  0  0  0
   10.9092  -16.7394   20.2298 C   0  0  0  0  0  0  0  0  0  0  0  0
    9.8351  -16.1835   21.0813 C   0  0  2  0  0  0  0  0  0  0  0  0
    9.2225  -14.9540   20.6414 N   0  0  0  0  0  0  0  0  0  0  0  0
   10.1833  -16.1384   22.5233 C   0  0  0  0  0  0  0  0  0  0  0  0
   11.1667  -15.4279   22.8596 O   0  0  0  0  0  0  0  0  0  0  0  0
    7.1091  -12.4085   27.4673 N   0  0  0  0  0  0  0  0  0  0  0  0
    6.3297  -12.3137   26.2704 C   0  0  0  0  0  0  0  0  0  0  0  0
    5.9310  -11.1805   25.8075 N   0  0  0  0  0  0  0  0  0  0  0  0
    5.9906  -13.4884   25.5808 N   0  0  0  0  0  0  0  0  0  0  0  0
    6.5358  -14.7847   26.0433 C   0  0  0  0  0  0  0  0  0  0  0  0
    7.8314  -15.0749   25.3907 C   0  0  0  0  0  0  0  0  0  0  0  0
    8.4998  -16.3561   25.6600 C   0  0  0  0  0  0  0  0  0  0  0  0
    9.7523  -16.6830   24.9793 C   0  0  2  0  0  0  0  0  0  0  0  0
    9.4758  -16.8421   23.5198 N   0  0  0  0  0  0  0  0  0  0  0  0
   10.6900  -17.6890   25.4188 C   0  0  0  0  0  0  0  0  0  0  0  0
   11.0198  -18.7568   24.8352 O   0  0  0  0  0  0  0  0  0  0  0  0
   11.3875  -17.5480   26.6658 O   0  0  0  0  0  0  0  0  0  0  0  0
  2  1  1  6
  3  2  1  0
  4  3  1  0
  5  2  1  0
  5  6  2  0
  7  8  1  0
  8  9  2  0
  8 10  1  0
 10 11  1  0
 12 11  1  6
 12 13  1  0
 13  5  1  0
 14 12  1  0
 15 14  2  0
 16 17  1  0
 17 19  1  0
 18 17  2  0
 19 20  1  0
 20 21  1  0
 22 21  1  0
 23 22  1  1
 23 24  1  0
 24 14  1  0
 25 23  1  0
 26 25  2  0
 27 25  1  0
M  END
$$$$
