CQR.pdb
     RDKit          3D

 27 26  0  0  1  0  0  0  0  0999 V2000
   10.6587  -20.3536   20.3760 N   0  0  0  0  0  0  0  0  0  0  0  0
   11.7922  -21.1111   19.8293 C   0  0  1  0  0  0  0  0  0  0  0  0
   11.3175  -21.7610   18.5260 C   0  0  0  0  0  0  0  0  0  0  0  0
    9.5880  -22.2093   18.6907 S   0  0  0  0  0  0  0  0  0  0  0  0
   12.9521  -20.2476   19.6173 C   0  0  0  0  0  0  0  0  0  0  0  0
   14.0279  -20.8132   19.2089 O   0  0  0  0  0  0  0  0  0  0  0  0
   14.4292  -14.9633   16.4577 N   0  0  0  0  0  0  0  0  0  0  0  0
   15.3457  -15.2392   17.5059 C   0  0  0  0  0  0  0  0  0  0  0  0
   15.9959  -14.2779   17.9989 O   0  0  0  0  0  0  0  0  0  0  0  0
   15.5394  -16.6121   18.0061 C   0  0  0  0  0  0  0  0  0  0  0  0
   14.3247  -17.4154   18.2658 C   0  0  0  0  0  0  0  0  0  0  0  0
   14.1891  -18.0593   19.5905 C   0  0  2  0  0  0  0  0  0  0  0  0
   12.9941  -18.8330   19.8219 N   0  0  0  0  0  0  0  0  0  0  0  0
   14.4834  -17.1501   20.7260 C   0  0  0  0  0  0  0  0  0  0  0  0
   15.3496  -16.2552   20.5419 O   0  0  0  0  0  0  0  0  0  0  0  0
    8.0934  -13.9567   18.3381 N   0  0  0  0  0  0  0  0  0  0  0  0
    8.1337  -13.2186   19.5638 C   0  0  0  0  0  0  0  0  0  0  0  0
    7.3106  -12.2588   19.8060 N   0  0  0  0  0  0  0  0  0  0  0  0
    9.0965  -13.5501   20.5299 N   0  0  0  0  0  0  0  0  0  0  0  0
   10.1795  -14.4970   20.1804 C   0  0  0  0  0  0  0  0  0  0  0  0
   11.0427  -14.7664   21.3514 C   0  0  0  0  0  0  0  0  0  0  0  0
   12.1625  -15.7090   21.2160 C   0  0  0  0  0  0  0  0  0  0  0  0
   12.7566  -16.3124   22.4085 C   0  0  2  0  0  0  0  0  0  0  0  0
   13.8483  -17.2387   21.9821 N   0  0  0  0  0  0  0  0  0  0  0  0
   12.0076  -16.8962   23.4960 C   0  0  0  0  0  0  0  0  0  0  0  0
   11.3802  -17.9895   23.5132 O   0  0  0  0  0  0  0  0  0  0  0  0
   11.9037  -16.2238   24.7604 O   0  0  0  0  0  0  0  0  0  0  0  0
  2  1  1  6
  3  2  1  0
  4  3  1  0
  5  2  1  0
  5  6  2  0
  7  8  1  0
  8  9  2  0
  8 10  1  0
 10 11  1  0
 12 11  1  6
 12 13  1  0
 13  5  1  0
 14 12  1  0
 15 14  2  0
 16 17  1  0
 17 19  1  0
 18 17  2  0
 19 20  1  0
 20 21  1  0
 22 21  1  0
 23 22  1  6
 23 24  1  0
 24 14  1  0
 25 23  1  0
 26 25  2  0
 27 25  1  0
M  END
$$$$
