CQR.pdb
     RDKit          3D

 27 26  0  0  1  0  0  0  0  0999 V2000
   10.1119  -16.7624   16.7839 N   0  0  0  0  0  0  0  0  0  0  0  0
   10.9606  -17.6299   17.6114 C   0  0  1  0  0  0  0  0  0  0  0  0
   12.1734  -18.0220   16.7620 C   0  0  0  0  0  0  0  0  0  0  0  0
   12.0009  -19.7325   16.2484 S   0  0  0  0  0  0  0  0  0  0  0  0
   11.3549  -16.9591   18.8486 C   0  0  0  0  0  0  0  0  0  0  0  0
   11.8291  -15.7730   18.7380 O   0  0  0  0  0  0  0  0  0  0  0  0
   11.2540  -18.5354   25.4155 N   0  0  0  0  0  0  0  0  0  0  0  0
   11.5201  -17.1649   25.1593 C   0  0  0  0  0  0  0  0  0  0  0  0
   11.3244  -16.3349   26.0881 O   0  0  0  0  0  0  0  0  0  0  0  0
   12.0085  -16.7175   23.8425 C   0  0  0  0  0  0  0  0  0  0  0  0
   11.3662  -17.3056   22.6469 C   0  0  0  0  0  0  0  0  0  0  0  0
   11.8105  -16.8331   21.3176 C   0  0  2  0  0  0  0  0  0  0  0  0
   11.2578  -17.5044   20.1668 N   0  0  0  0  0  0  0  0  0  0  0  0
   13.2816  -16.6720   21.2054 C   0  0  0  0  0  0  0  0  0  0  0  0
   13.9684  -17.7158   21.0513 O   0  0  0  0  0  0  0  0  0  0  0  0
   18.2977  -10.8909   17.0643 N   0  0  0  0  0  0  0  0  0  0  0  0
   18.7809  -12.2249   16.8749 C   0  0  0  0  0  0  0  0  0  0  0  0
   19.6737  -12.5048   15.9906 N   0  0  0  0  0  0  0  0  0  0  0  0
   18.2685  -13.2576   17.6758 N   0  0  0  0  0  0  0  0  0  0  0  0
   17.1982  -12.9554   18.6528 C   0  0  0  0  0  0  0  0  0  0  0  0
   16.9206  -14.1285   19.5106 C   0  0  0  0  0  0  0  0  0  0  0  0
   15.7509  -14.1065   20.4004 C   0  0  0  0  0  0  0  0  0  0  0  0
   15.4232  -15.2836   21.2042 C   0  0  2  0  0  0  0  0  0  0  0  0
   13.9370  -15.4245   21.2618 N   0  0  0  0  0  0  0  0  0  0  0  0
   16.0002  -15.5875   22.4923 C   0  0  0  0  0  0  0  0  0  0  0  0
   15.5464  -15.3115   23.6357 O   0  0  0  0  0  0  0  0  0  0  0  0
   17.2482  -16.2908   22.5905 O   0  0  0  0  0  0  0  0  0  0  0  0
  2  1  1  6
  3  2  1  0
  4  3  1  0
  5  2  1  0
  5  6  2  0
  7  8  1  0
  8  9  2  0
  8 10  1  0
 10 11  1  0
 12 11  1  1
 12 13  1  0
 13  5  1  0
 14 12  1  0
 15 14  2  0
 16 17  1  0
 17 19  1  0
 18 17  2  0
 19 20  1  0
 20 21  1  0
 22 21  1  0
 23 22  1  1
 23 24  1  0
 24 14  1  0
 25 23  1  0
 26 25  2  0
 27 25  1  0
M  END
$$$$
