CQR.pdb
     RDKit          3D

 27 26  0  0  1  0  0  0  0  0999 V2000
    7.9929  -13.3643   17.2887 N   0  0  0  0  0  0  0  0  0  0  0  0
    8.5503  -13.2840   18.6453 C   0  0  1  0  0  0  0  0  0  0  0  0
    7.3752  -13.3662   19.6244 C   0  0  0  0  0  0  0  0  0  0  0  0
    8.0129  -13.5566   21.2907 S   0  0  0  0  0  0  0  0  0  0  0  0
    9.5294  -14.3438   18.8781 C   0  0  0  0  0  0  0  0  0  0  0  0
    9.2874  -15.4833   18.3423 O   0  0  0  0  0  0  0  0  0  0  0  0
   14.5143  -13.5547   16.3356 N   0  0  0  0  0  0  0  0  0  0  0  0
   14.6747  -14.2107   17.5840 C   0  0  0  0  0  0  0  0  0  0  0  0
   15.7443  -14.8453   17.7919 O   0  0  0  0  0  0  0  0  0  0  0  0
   13.6201  -14.1585   18.6126 C   0  0  0  0  0  0  0  0  0  0  0  0
   12.7667  -15.3566   18.7682 C   0  0  0  0  0  0  0  0  0  0  0  0
   11.6756  -15.3062   19.7655 C   0  0  2  0  0  0  0  0  0  0  0  0
   10.7299  -14.2238   19.6456 N   0  0  0  0  0  0  0  0  0  0  0  0
   12.1409  -15.4768   21.1644 C   0  0  0  0  0  0  0  0  0  0  0  0
   12.3764  -14.4329   21.8277 O   0  0  0  0  0  0  0  0  0  0  0  0
   13.7489  -20.7239   28.4265 N   0  0  0  0  0  0  0  0  0  0  0  0
   12.3776  -20.5476   28.0557 C   0  0  0  0  0  0  0  0  0  0  0  0
   11.4611  -21.3697   28.4319 N   0  0  0  0  0  0  0  0  0  0  0  0
   12.0208  -19.4474   27.2603 N   0  0  0  0  0  0  0  0  0  0  0  0
   11.9934  -19.5948   25.7876 C   0  0  0  0  0  0  0  0  0  0  0  0
   12.6859  -18.4640   25.1314 C   0  0  0  0  0  0  0  0  0  0  0  0
   12.2505  -18.0335   23.7951 C   0  0  0  0  0  0  0  0  0  0  0  0
   12.8970  -16.8914   23.1497 C   0  0  2  0  0  0  0  0  0  0  0  0
   12.3285  -16.7330   21.7773 N   0  0  0  0  0  0  0  0  0  0  0  0
   14.3213  -16.6564   23.1264 C   0  0  0  0  0  0  0  0  0  0  0  0
   15.1206  -16.8008   22.1621 O   0  0  0  0  0  0  0  0  0  0  0  0
   15.0095  -16.1990   24.3006 O   0  0  0  0  0  0  0  0  0  0  0  0
  2  1  1  6
  3  2  1  0
  4  3  1  0
  5  2  1  0
  5  6  2  0
  7  8  1  0
  8  9  2  0
  8 10  1  0
 10 11  1  0
 12 11  1  6
 12 13  1  0
 13  5  1  0
 14 12  1  0
 15 14  2  0
 16 17  1  0
 17 19  1  0
 18 17  2  0
 19 20  1  0
 20 21  1  0
 22 21  1  0
 23 22  1  6
 23 24  1  0
 24 14  1  0
 25 23  1  0
 26 25  2  0
 27 25  1  0
M  END
$$$$
