CQR.pdb
     RDKit          3D

 27 26  0  0  1  0  0  0  0  0999 V2000
    8.8289  -12.4359   18.7705 N   0  0  0  0  0  0  0  0  0  0  0  0
    7.6747  -12.5351   19.6736 C   0  0  1  0  0  0  0  0  0  0  0  0
    6.5717  -13.2842   18.9198 C   0  0  0  0  0  0  0  0  0  0  0  0
    7.0166  -15.0183   18.8011 S   0  0  0  0  0  0  0  0  0  0  0  0
    8.0356  -13.2060   20.9209 C   0  0  0  0  0  0  0  0  0  0  0  0
    9.2808  -13.4465   21.1094 O   0  0  0  0  0  0  0  0  0  0  0  0
    5.4744  -11.5014   26.4058 N   0  0  0  0  0  0  0  0  0  0  0  0
    6.5794  -12.3204   26.7564 C   0  0  0  0  0  0  0  0  0  0  0  0
    6.9836  -12.2985   27.9505 O   0  0  0  0  0  0  0  0  0  0  0  0
    7.2435  -13.1729   25.7539 C   0  0  0  0  0  0  0  0  0  0  0  0
    6.8922  -12.9479   24.3348 C   0  0  0  0  0  0  0  0  0  0  0  0
    7.5471  -13.7960   23.3152 C   0  0  2  0  0  0  0  0  0  0  0  0
    7.1277  -13.6152   21.9471 N   0  0  0  0  0  0  0  0  0  0  0  0
    7.6070  -15.2318   23.6861 C   0  0  0  0  0  0  0  0  0  0  0  0
    6.5139  -15.8436   23.8116 O   0  0  0  0  0  0  0  0  0  0  0  0
   13.3950  -19.7299   27.5536 N   0  0  0  0  0  0  0  0  0  0  0  0
   12.1323  -20.3996   27.6323 C   0  0  0  0  0  0  0  0  0  0  0  0
   11.5753  -20.6684   28.7614 N   0  0  0  0  0  0  0  0  0  0  0  0
   11.4818  -20.7734   26.4460 N   0  0  0  0  0  0  0  0  0  0  0  0
   11.2447  -19.7565   25.3966 C   0  0  0  0  0  0  0  0  0  0  0  0
   10.6227  -18.5425   25.9696 C   0  0  0  0  0  0  0  0  0  0  0  0
   10.2804  -17.4233   25.0804 C   0  0  0  0  0  0  0  0  0  0  0  0
    8.8872  -17.1936   24.6994 C   0  0  2  0  0  0  0  0  0  0  0  0
    8.8115  -15.9332   23.9010 N   0  0  0  0  0  0  0  0  0  0  0  0
    7.7626  -17.2775   25.6009 C   0  0  0  0  0  0  0  0  0  0  0  0
    7.3084  -16.3857   26.3676 O   0  0  0  0  0  0  0  0  0  0  0  0
    6.9990  -18.4884   25.7116 O   0  0  0  0  0  0  0  0  0  0  0  0
  2  1  1  6
  3  2  1  0
  4  3  1  0
  5  2  1  0
  5  6  2  0
  7  8  1  0
  8  9  2  0
  8 10  1  0
 10 11  1  0
 12 11  1  1
 12 13  1  0
 13  5  1  0
 14 12  1  0
 15 14  2  0
 16 17  1  0
 17 19  1  0
 18 17  2  0
 19 20  1  0
 20 21  1  0
 22 21  1  0
 23 22  1  1
 23 24  1  0
 24 14  1  0
 25 23  1  0
 26 25  2  0
 27 25  1  0
M  END
$$$$
