CQR.pdb
     RDKit          3D

 27 26  0  0  1  0  0  0  0  0999 V2000
    7.4277  -15.1994   17.2587 N   0  0  0  0  0  0  0  0  0  0  0  0
    8.0617  -14.2222   18.1535 C   0  0  1  0  0  0  0  0  0  0  0  0
    6.9827  -13.7252   19.1203 C   0  0  0  0  0  0  0  0  0  0  0  0
    7.7471  -12.6876   20.3686 S   0  0  0  0  0  0  0  0  0  0  0  0
    9.1975  -14.8114   18.8598 C   0  0  0  0  0  0  0  0  0  0  0  0
    9.0326  -15.9883   19.3410 O   0  0  0  0  0  0  0  0  0  0  0  0
   15.6322  -13.8906   18.9655 N   0  0  0  0  0  0  0  0  0  0  0  0
   15.3355  -14.6891   20.1009 C   0  0  0  0  0  0  0  0  0  0  0  0
   16.2962  -15.1870   20.7483 O   0  0  0  0  0  0  0  0  0  0  0  0
   13.9425  -14.9367   20.5145 C   0  0  0  0  0  0  0  0  0  0  0  0
   12.8748  -14.3079   19.7067 C   0  0  0  0  0  0  0  0  0  0  0  0
   11.4888  -14.7892   19.8938 C   0  0  2  0  0  0  0  0  0  0  0  0
   10.4725  -14.1957   19.0599 N   0  0  0  0  0  0  0  0  0  0  0  0
   11.0672  -14.8485   21.3155 C   0  0  0  0  0  0  0  0  0  0  0  0
   10.5649  -13.8075   21.8144 O   0  0  0  0  0  0  0  0  0  0  0  0
    7.3736  -19.1837   26.4179 N   0  0  0  0  0  0  0  0  0  0  0  0
    7.0168  -19.3926   25.0475 C   0  0  0  0  0  0  0  0  0  0  0  0
    6.8436  -20.5728   24.5631 N   0  0  0  0  0  0  0  0  0  0  0  0
    6.8499  -18.2805   24.2075 N   0  0  0  0  0  0  0  0  0  0  0  0
    7.1172  -16.9242   24.7371 C   0  0  0  0  0  0  0  0  0  0  0  0
    8.5703  -16.6480   24.7704 C   0  0  0  0  0  0  0  0  0  0  0  0
    9.2759  -16.3625   23.5129 C   0  0  0  0  0  0  0  0  0  0  0  0
   10.7074  -16.0636   23.5310 C   0  0  2  0  0  0  0  0  0  0  0  0
   11.1998  -15.9978   22.1220 N   0  0  0  0  0  0  0  0  0  0  0  0
   11.6778  -16.7330   24.3644 C   0  0  0  0  0  0  0  0  0  0  0  0
   12.5176  -17.6127   24.0323 O   0  0  0  0  0  0  0  0  0  0  0  0
   11.7785  -16.4285   25.7640 O   0  0  0  0  0  0  0  0  0  0  0  0
  2  1  1  6
  3  2  1  0
  4  3  1  0
  5  2  1  0
  5  6  2  0
  7  8  1  0
  8  9  2  0
  8 10  1  0
 10 11  1  0
 12 11  1  1
 12 13  1  0
 13  5  1  0
 14 12  1  0
 15 14  2  0
 16 17  1  0
 17 19  1  0
 18 17  2  0
 19 20  1  0
 20 21  1  0
 22 21  1  0
 23 22  1  6
 23 24  1  0
 24 14  1  0
 25 23  1  0
 26 25  2  0
 27 25  1  0
M  END
$$$$
