CQR.pdb
     RDKit          3D

 27 26  0  0  1  0  0  0  0  0999 V2000
    8.1576  -14.2686   18.9039 N   0  0  0  0  0  0  0  0  0  0  0  0
    7.5172  -15.0646   19.9592 C   0  0  1  0  0  0  0  0  0  0  0  0
    7.7981  -16.5382   19.6499 C   0  0  0  0  0  0  0  0  0  0  0  0
    6.4579  -17.1938   18.6533 S   0  0  0  0  0  0  0  0  0  0  0  0
    8.0079  -14.6816   21.2816 C   0  0  0  0  0  0  0  0  0  0  0  0
    9.2773  -14.5588   21.4146 O   0  0  0  0  0  0  0  0  0  0  0  0
    5.2768  -12.0939   26.6621 N   0  0  0  0  0  0  0  0  0  0  0  0
    6.5946  -12.4866   27.0139 C   0  0  0  0  0  0  0  0  0  0  0  0
    7.0250  -12.1756   28.1576 O   0  0  0  0  0  0  0  0  0  0  0  0
    7.4438  -13.2349   26.0696 C   0  0  0  0  0  0  0  0  0  0  0  0
    6.9212  -13.4324   24.7000 C   0  0  0  0  0  0  0  0  0  0  0  0
    7.7783  -14.1432   23.7263 C   0  0  2  0  0  0  0  0  0  0  0  0
    7.2020  -14.4306   22.4357 N   0  0  0  0  0  0  0  0  0  0  0  0
    8.4684  -15.3273   24.2957 C   0  0  0  0  0  0  0  0  0  0  0  0
    7.8360  -16.4159   24.3077 O   0  0  0  0  0  0  0  0  0  0  0  0
   13.1852  -20.0095   22.4538 N   0  0  0  0  0  0  0  0  0  0  0  0
   14.2287  -20.1241   23.4269 C   0  0  0  0  0  0  0  0  0  0  0  0
   14.7367  -21.2629   23.7471 N   0  0  0  0  0  0  0  0  0  0  0  0
   14.7132  -18.9631   24.0495 N   0  0  0  0  0  0  0  0  0  0  0  0
   13.9916  -17.6841   23.8625 C   0  0  0  0  0  0  0  0  0  0  0  0
   12.6969  -17.6994   24.5784 C   0  0  0  0  0  0  0  0  0  0  0  0
   11.8077  -16.5332   24.4789 C   0  0  0  0  0  0  0  0  0  0  0  0
   10.5348  -16.5226   25.1989 C   0  0  2  0  0  0  0  0  0  0  0  0
    9.7789  -15.2923   24.8155 N   0  0  0  0  0  0  0  0  0  0  0  0
   10.3864  -16.7751   26.6126 C   0  0  0  0  0  0  0  0  0  0  0  0
   10.0312  -15.9708   27.5162 O   0  0  0  0  0  0  0  0  0  0  0  0
   10.6538  -18.0760   27.1583 O   0  0  0  0  0  0  0  0  0  0  0  0
  2  1  1  6
  3  2  1  0
  4  3  1  0
  5  2  1  0
  5  6  2  0
  7  8  1  0
  8  9  2  0
  8 10  1  0
 10 11  1  0
 12 11  1  1
 12 13  1  0
 13  5  1  0
 14 12  1  0
 15 14  2  0
 16 17  1  0
 17 19  1  0
 18 17  2  0
 19 20  1  0
 20 21  1  0
 22 21  1  0
 23 22  1  1
 23 24  1  0
 24 14  1  0
 25 23  1  0
 26 25  2  0
 27 25  1  0
M  END
$$$$
