CQR.pdb
     RDKit          3D

 27 26  0  0  1  0  0  0  0  0999 V2000
    7.0589  -14.1335   18.2231 N   0  0  0  0  0  0  0  0  0  0  0  0
    8.1601  -13.9965   19.1853 C   0  0  1  0  0  0  0  0  0  0  0  0
    7.8065  -12.8333   20.1171 C   0  0  0  0  0  0  0  0  0  0  0  0
    8.0677  -11.2857   19.2478 S   0  0  0  0  0  0  0  0  0  0  0  0
    8.3758  -15.2399   19.9226 C   0  0  0  0  0  0  0  0  0  0  0  0
    7.5698  -16.2061   19.6760 O   0  0  0  0  0  0  0  0  0  0  0  0
    9.2565  -21.2107   20.0225 N   0  0  0  0  0  0  0  0  0  0  0  0
   10.1311  -20.1948   19.5560 C   0  0  0  0  0  0  0  0  0  0  0  0
   10.5293  -20.2521   18.3610 O   0  0  0  0  0  0  0  0  0  0  0  0
   10.5690  -19.1012   20.4420 C   0  0  0  0  0  0  0  0  0  0  0  0
   10.1012  -17.7366   20.1147 C   0  0  0  0  0  0  0  0  0  0  0  0
    9.8418  -16.8052   21.2341 C   0  0  2  0  0  0  0  0  0  0  0  0
    9.4027  -15.4752   20.8894 N   0  0  0  0  0  0  0  0  0  0  0  0
   10.9239  -16.7804   22.2494 C   0  0  0  0  0  0  0  0  0  0  0  0
   12.0748  -16.4492   21.8612 O   0  0  0  0  0  0  0  0  0  0  0  0
   10.1945  -13.7697   29.5859 N   0  0  0  0  0  0  0  0  0  0  0  0
   10.2851  -15.1890   29.4229 C   0  0  0  0  0  0  0  0  0  0  0  0
   10.7165  -15.9546   30.3637 N   0  0  0  0  0  0  0  0  0  0  0  0
    9.8921  -15.7633   28.2038 N   0  0  0  0  0  0  0  0  0  0  0  0
    9.6514  -14.8891   27.0337 C   0  0  0  0  0  0  0  0  0  0  0  0
   10.1362  -15.5271   25.7900 C   0  0  0  0  0  0  0  0  0  0  0  0
   11.2714  -16.4585   25.8564 C   0  0  0  0  0  0  0  0  0  0  0  0
   11.8177  -17.0319   24.6268 C   0  0  2  0  0  0  0  0  0  0  0  0
   10.7277  -17.1046   23.6078 N   0  0  0  0  0  0  0  0  0  0  0  0
   12.6344  -18.2208   24.5648 C   0  0  0  0  0  0  0  0  0  0  0  0
   12.3690  -19.3222   24.0117 O   0  0  0  0  0  0  0  0  0  0  0  0
   13.9308  -18.2543   25.1811 O   0  0  0  0  0  0  0  0  0  0  0  0
  2  1  1  6
  3  2  1  0
  4  3  1  0
  5  2  1  0
  5  6  2  0
  7  8  1  0
  8  9  2  0
  8 10  1  0
 10 11  1  0
 12 11  1  6
 12 13  1  0
 13  5  1  0
 14 12  1  0
 15 14  2  0
 16 17  1  0
 17 19  1  0
 18 17  2  0
 19 20  1  0
 20 21  1  0
 22 21  1  0
 23 22  1  1
 23 24  1  0
 24 14  1  0
 25 23  1  0
 26 25  2  0
 27 25  1  0
M  END
$$$$
