CQR.pdb
     RDKit          3D

 27 26  0  0  1  0  0  0  0  0999 V2000
    4.9289  -18.8118   18.6880 N   0  0  0  0  0  0  0  0  0  0  0  0
    4.5706  -17.9213   19.7999 C   0  0  1  0  0  0  0  0  0  0  0  0
    3.8340  -18.7694   20.8413 C   0  0  0  0  0  0  0  0  0  0  0  0
    3.2550  -17.7027   22.1626 S   0  0  0  0  0  0  0  0  0  0  0  0
    5.7545  -17.2744   20.3618 C   0  0  0  0  0  0  0  0  0  0  0  0
    6.7397  -18.0358   20.6681 O   0  0  0  0  0  0  0  0  0  0  0  0
    9.7175  -12.5287   19.7064 N   0  0  0  0  0  0  0  0  0  0  0  0
    8.6342  -12.8898   18.8633 C   0  0  0  0  0  0  0  0  0  0  0  0
    8.7093  -12.6014   17.6381 O   0  0  0  0  0  0  0  0  0  0  0  0
    7.4481  -13.5801   19.4012 C   0  0  0  0  0  0  0  0  0  0  0  0
    7.4685  -13.9428   20.8351 C   0  0  0  0  0  0  0  0  0  0  0  0
    7.1015  -15.3269   21.2058 C   0  0  2  0  0  0  0  0  0  0  0  0
    5.9130  -15.8731   20.5979 N   0  0  0  0  0  0  0  0  0  0  0  0
    7.1364  -15.5795   22.6678 C   0  0  0  0  0  0  0  0  0  0  0  0
    6.3222  -14.9414   23.3854 O   0  0  0  0  0  0  0  0  0  0  0  0
    9.4411  -21.8711   27.8082 N   0  0  0  0  0  0  0  0  0  0  0  0
    8.6924  -21.1143   28.7652 C   0  0  0  0  0  0  0  0  0  0  0  0
    8.7912  -21.3316   30.0302 N   0  0  0  0  0  0  0  0  0  0  0  0
    7.8267  -20.1062   28.3129 N   0  0  0  0  0  0  0  0  0  0  0  0
    7.6795  -19.8744   26.8582 C   0  0  0  0  0  0  0  0  0  0  0  0
    7.9306  -18.4556   26.5222 C   0  0  0  0  0  0  0  0  0  0  0  0
    7.8558  -18.0263   25.1184 C   0  0  0  0  0  0  0  0  0  0  0  0
    8.1376  -16.6355   24.7646 C   0  0  2  0  0  0  0  0  0  0  0  0
    8.0241  -16.4867   23.2825 N   0  0  0  0  0  0  0  0  0  0  0  0
    9.2613  -15.8728   25.2547 C   0  0  0  0  0  0  0  0  0  0  0  0
   10.3346  -15.5917   24.6561 O   0  0  0  0  0  0  0  0  0  0  0  0
    9.2524  -15.3214   26.5805 O   0  0  0  0  0  0  0  0  0  0  0  0
  2  1  1  6
  3  2  1  0
  4  3  1  0
  5  2  1  0
  5  6  2  0
  7  8  1  0
  8  9  2  0
  8 10  1  0
 10 11  1  0
 12 11  1  1
 12 13  1  0
 13  5  1  0
 14 12  1  0
 15 14  2  0
 16 17  1  0
 17 19  1  0
 18 17  2  0
 19 20  1  0
 20 21  1  0
 22 21  1  0
 23 22  1  6
 23 24  1  0
 24 14  1  0
 25 23  1  0
 26 25  2  0
 27 25  1  0
M  END
$$$$
