CQR.pdb
     RDKit          3D

 27 26  0  0  1  0  0  0  0  0999 V2000
    7.0189  -20.5023   19.0504 N   0  0  0  0  0  0  0  0  0  0  0  0
    6.2172  -19.4810   19.7371 C   0  0  1  0  0  0  0  0  0  0  0  0
    5.5041  -20.1722   20.9033 C   0  0  0  0  0  0  0  0  0  0  0  0
    4.1579  -21.1685   20.2595 S   0  0  0  0  0  0  0  0  0  0  0  0
    7.0517  -18.3698   20.1896 C   0  0  0  0  0  0  0  0  0  0  0  0
    8.2232  -18.6636   20.6200 O   0  0  0  0  0  0  0  0  0  0  0  0
    6.8919  -11.9351   19.0115 N   0  0  0  0  0  0  0  0  0  0  0  0
    8.0450  -12.1850   19.8006 C   0  0  0  0  0  0  0  0  0  0  0  0
    8.8554  -11.2378   19.9903 O   0  0  0  0  0  0  0  0  0  0  0  0
    8.2957  -13.5161   20.3821 C   0  0  0  0  0  0  0  0  0  0  0  0
    7.3261  -14.5869   20.0643 C   0  0  0  0  0  0  0  0  0  0  0  0
    7.6036  -15.9475   20.5738 C   0  0  2  0  0  0  0  0  0  0  0  0
    6.6808  -16.9888   20.1934 N   0  0  0  0  0  0  0  0  0  0  0  0
    7.9088  -15.9875   22.0256 C   0  0  0  0  0  0  0  0  0  0  0  0
    6.9360  -15.9401   22.8234 O   0  0  0  0  0  0  0  0  0  0  0  0
    7.1508  -21.8370   27.0830 N   0  0  0  0  0  0  0  0  0  0  0  0
    7.1784  -20.6564   27.8919 C   0  0  0  0  0  0  0  0  0  0  0  0
    6.6618  -20.6286   29.0708 N   0  0  0  0  0  0  0  0  0  0  0  0
    7.7861  -19.4961   27.3872 N   0  0  0  0  0  0  0  0  0  0  0  0
    8.2682  -19.4793   25.9876 C   0  0  0  0  0  0  0  0  0  0  0  0
    8.9362  -18.1967   25.6753 C   0  0  0  0  0  0  0  0  0  0  0  0
    8.7510  -17.5956   24.3468 C   0  0  0  0  0  0  0  0  0  0  0  0
    9.5018  -16.3961   23.9775 C   0  0  2  0  0  0  0  0  0  0  0  0
    9.2164  -16.0752   22.5466 N   0  0  0  0  0  0  0  0  0  0  0  0
   10.8999  -16.1788   24.2649 C   0  0  0  0  0  0  0  0  0  0  0  0
   11.5299  -16.4461   25.3237 O   0  0  0  0  0  0  0  0  0  0  0  0
   11.7679  -15.5885   23.2852 O   0  0  0  0  0  0  0  0  0  0  0  0
  2  1  1  1
  3  2  1  0
  4  3  1  0
  5  2  1  0
  5  6  2  0
  7  8  1  0
  8  9  2  0
  8 10  1  0
 10 11  1  0
 12 11  1  1
 12 13  1  0
 13  5  1  0
 14 12  1  0
 15 14  2  0
 16 17  1  0
 17 19  1  0
 18 17  2  0
 19 20  1  0
 20 21  1  0
 22 21  1  0
 23 22  1  6
 23 24  1  0
 24 14  1  0
 25 23  1  0
 26 25  2  0
 27 25  1  0
M  END
$$$$
