CQR.pdb
     RDKit          3D

 27 26  0  0  1  0  0  0  0  0999 V2000
    7.4660  -13.6696   17.8826 N   0  0  0  0  0  0  0  0  0  0  0  0
    8.8223  -13.5037   18.4218 C   0  0  1  0  0  0  0  0  0  0  0  0
    8.7672  -12.3674   19.4474 C   0  0  0  0  0  0  0  0  0  0  0  0
    7.8131  -12.9060   20.8683 S   0  0  0  0  0  0  0  0  0  0  0  0
    9.3124  -14.7478   19.0118 C   0  0  0  0  0  0  0  0  0  0  0  0
    8.4381  -15.6491   19.2712 O   0  0  0  0  0  0  0  0  0  0  0  0
   12.2785  -17.9604   15.5143 N   0  0  0  0  0  0  0  0  0  0  0  0
   12.0561  -18.0981   16.9093 C   0  0  0  0  0  0  0  0  0  0  0  0
   11.7594  -19.2390   17.3568 O   0  0  0  0  0  0  0  0  0  0  0  0
   12.1635  -16.9405   17.8154 C   0  0  0  0  0  0  0  0  0  0  0  0
   11.9498  -17.1880   19.2579 C   0  0  0  0  0  0  0  0  0  0  0  0
   11.0572  -16.2672   19.9949 C   0  0  2  0  0  0  0  0  0  0  0  0
   10.6751  -15.0496   19.3228 N   0  0  0  0  0  0  0  0  0  0  0  0
   11.4897  -16.0112   21.3913 C   0  0  0  0  0  0  0  0  0  0  0  0
   11.9709  -14.8769   21.6498 O   0  0  0  0  0  0  0  0  0  0  0  0
    5.3387  -13.0284   25.1956 N   0  0  0  0  0  0  0  0  0  0  0  0
    6.3692  -13.0092   26.1890 C   0  0  0  0  0  0  0  0  0  0  0  0
    6.3611  -12.1637   27.1597 N   0  0  0  0  0  0  0  0  0  0  0  0
    7.4178  -13.9384   26.1039 N   0  0  0  0  0  0  0  0  0  0  0  0
    7.9181  -14.3485   24.7724 C   0  0  0  0  0  0  0  0  0  0  0  0
    9.0547  -15.2866   24.9020 C   0  0  0  0  0  0  0  0  0  0  0  0
    9.7303  -15.7679   23.6885 C   0  0  0  0  0  0  0  0  0  0  0  0
   10.9123  -16.6218   23.8013 C   0  0  2  0  0  0  0  0  0  0  0  0
   11.3885  -16.9631   22.4270 N   0  0  0  0  0  0  0  0  0  0  0  0
   11.0150  -17.7762   24.6624 C   0  0  0  0  0  0  0  0  0  0  0  0
   11.3087  -17.8123   25.8879 O   0  0  0  0  0  0  0  0  0  0  0  0
   10.7705  -19.0962   24.1531 O   0  0  0  0  0  0  0  0  0  0  0  0
  2  1  1  1
  3  2  1  0
  4  3  1  0
  5  2  1  0
  5  6  2  0
  7  8  1  0
  8  9  2  0
  8 10  1  0
 10 11  1  0
 12 11  1  6
 12 13  1  0
 13  5  1  0
 14 12  1  0
 15 14  2  0
 16 17  1  0
 17 19  1  0
 18 17  2  0
 19 20  1  0
 20 21  1  0
 22 21  1  0
 23 22  1  6
 23 24  1  0
 24 14  1  0
 25 23  1  0
 26 25  2  0
 27 25  1  0
M  END
$$$$
