LWT.pdb
     RDKit          3D

 30 31  0  0  1  0  0  0  0  0999 V2000
   12.7632  -11.7881  -14.9464 C   0  0  0  0  0  0  0  0  0  0  0  0
   14.1931  -11.5901  -15.4044 C   0  0  1  0  0  0  0  0  0  0  0  0
   14.1898  -10.6154  -16.5387 C   0  0  0  0  0  0  0  0  0  0  0  0
   15.0356  -11.1319  -14.2333 C   0  0  0  0  0  0  0  0  0  0  0  0
   16.4597  -10.8459  -14.6412 C   0  0  2  0  0  0  0  0  0  0  0  0
   17.1790  -12.1009  -14.6830 N   0  0  0  0  0  0  0  0  0  0  0  0
   17.0613  -10.0182  -13.5616 C   0  0  0  0  0  0  0  0  0  0  0  0
   17.5323  -10.5678  -12.5130 O   0  0  0  0  0  0  0  0  0  0  0  0
   17.1435   -8.6069  -13.6354 N   0  0  0  0  0  0  0  0  0  0  0  0
   17.7600   -7.8047  -12.5634 C   0  0  1  0  0  0  0  0  0  0  0  0
   18.8772   -7.0240  -13.1756 C   0  0  0  0  0  0  0  0  0  0  0  0
   20.1233   -7.7382  -13.4083 C   0  0  0  0  0  0  0  0  0  0  0  0
   20.7337   -7.9164  -14.6300 C   0  0  0  0  0  0  0  0  0  0  0  0
   21.8603   -8.6509  -14.4092 N   0  0  0  0  0  0  0  0  0  0  0  0
   21.9910   -8.9441  -13.1151 C   0  0  0  0  0  0  0  0  0  0  0  0
   22.9628   -9.6555  -12.4484 C   0  0  0  0  0  0  0  0  0  0  0  0
   22.8636   -9.8209  -11.0624 C   0  0  0  0  0  0  0  0  0  0  0  0
   21.7817   -9.2582  -10.4026 C   0  0  0  0  0  0  0  0  0  0  0  0
   20.8311   -8.5553  -11.0982 C   0  0  0  0  0  0  0  0  0  0  0  0
   20.9098   -8.3784  -12.4774 C   0  0  0  0  0  0  0  0  0  0  0  0
   16.6780   -6.9814  -11.9819 C   0  0  0  0  0  0  0  0  0  0  0  0
   15.7847   -6.4392  -12.7264 O   0  0  0  0  0  0  0  0  0  0  0  0
   14.1698   -7.7266   -9.1257 C   0  0  0  0  0  0  0  0  0  0  0  0
   14.9115   -6.4607   -8.8401 C   0  0  1  0  0  0  0  0  0  0  0  0
   15.9888   -6.7681   -8.0106 O   0  0  0  0  0  0  0  0  0  0  0  0
   15.4975   -5.8391  -10.0916 C   0  0  2  0  0  0  0  0  0  0  0  0
   16.5286   -6.7238  -10.5928 N   0  0  0  0  0  0  0  0  0  0  0  0
   15.9428   -4.4695   -9.8340 C   0  0  0  0  0  0  0  0  0  0  0  0
   17.1610   -4.2074   -9.9953 O   0  0  0  0  0  0  0  0  0  0  0  0
   15.1337   -3.4223   -9.4232 O   0  0  0  0  0  0  0  0  0  0  0  0
  2  1  1  1
  3  2  1  0
  4  2  1  0
  5  4  1  0
  5  6  1  1
  7  9  1  0
  7  5  1  0
  8  7  2  0
 10  9  1  0
 10 11  1  6
 12 13  2  0
 12 11  1  0
 14 13  1  0
 15 20  2  0
 15 14  1  0
 16 15  1  0
 17 18  1  0
 17 16  2  0
 18 19  2  0
 19 20  1  0
 20 12  1  0
 21 10  1  0
 22 21  2  0
 24 23  1  6
 24 25  1  0
 24 26  1  0
 26 27  1  1
 26 28  1  0
 27 21  1  0
 28 30  1  0
 29 28  2  0
M  END
$$$$
