LWT.pdb
     RDKit          3D

 30 31  0  0  1  0  0  0  0  0999 V2000
   28.2876  -19.2874  -15.9863 C   0  0  0  0  0  0  0  0  0  0  0  0
   28.9706  -19.5427  -14.6590 C   0  0  1  0  0  0  0  0  0  0  0  0
   29.5038  -18.2414  -14.1499 C   0  0  0  0  0  0  0  0  0  0  0  0
   27.9893  -20.1925  -13.7071 C   0  0  0  0  0  0  0  0  0  0  0  0
   28.5766  -20.3744  -12.3294 C   0  0  2  0  0  0  0  0  0  0  0  0
   29.6214  -21.3722  -12.4110 N   0  0  0  0  0  0  0  0  0  0  0  0
   27.4962  -20.9236  -11.4671 C   0  0  0  0  0  0  0  0  0  0  0  0
   27.3583  -22.1826  -11.3281 O   0  0  0  0  0  0  0  0  0  0  0  0
   26.5815  -20.0996  -10.7684 N   0  0  0  0  0  0  0  0  0  0  0  0
   25.3886  -20.6505  -10.1006 C   0  0  1  0  0  0  0  0  0  0  0  0
   25.2250  -19.9226   -8.8060 C   0  0  0  0  0  0  0  0  0  0  0  0
   26.4406  -19.6320   -8.0611 C   0  0  0  0  0  0  0  0  0  0  0  0
   27.3284  -18.6148   -8.3331 C   0  0  0  0  0  0  0  0  0  0  0  0
   28.3314  -18.7052   -7.4148 N   0  0  0  0  0  0  0  0  0  0  0  0
   28.1223  -19.7240   -6.5805 C   0  0  0  0  0  0  0  0  0  0  0  0
   28.8651  -20.1803   -5.5152 C   0  0  0  0  0  0  0  0  0  0  0  0
   28.4158  -21.2894   -4.7898 C   0  0  0  0  0  0  0  0  0  0  0  0
   27.2287  -21.8956   -5.1714 C   0  0  0  0  0  0  0  0  0  0  0  0
   26.5133  -21.4147   -6.2384 C   0  0  0  0  0  0  0  0  0  0  0  0
   26.9416  -20.3126   -6.9744 C   0  0  0  0  0  0  0  0  0  0  0  0
   24.2650  -20.4852  -11.0477 C   0  0  0  0  0  0  0  0  0  0  0  0
   24.2452  -19.5177  -11.8901 O   0  0  0  0  0  0  0  0  0  0  0  0
   23.1752  -22.2649  -13.8557 C   0  0  0  0  0  0  0  0  0  0  0  0
   21.9395  -22.1782  -13.0191 C   0  0  1  0  0  0  0  0  0  0  0  0
   21.8105  -23.3729  -12.3126 O   0  0  0  0  0  0  0  0  0  0  0  0
   22.0184  -21.0742  -11.9842 C   0  0  2  0  0  0  0  0  0  0  0  0
   23.1419  -21.3527  -11.1142 N   0  0  0  0  0  0  0  0  0  0  0  0
   20.7385  -20.9148  -11.2936 C   0  0  0  0  0  0  0  0  0  0  0  0
   20.6920  -21.1953  -10.0697 O   0  0  0  0  0  0  0  0  0  0  0  0
   19.5584  -20.4773  -11.8733 O   0  0  0  0  0  0  0  0  0  0  0  0
  2  1  1  6
  3  2  1  0
  4  2  1  0
  5  4  1  0
  5  6  1  6
  7  9  1  0
  7  5  1  0
  8  7  2  0
 10  9  1  0
 10 11  1  1
 12 13  2  0
 12 11  1  0
 14 13  1  0
 15 20  2  0
 15 14  1  0
 16 15  1  0
 17 18  1  0
 17 16  2  0
 18 19  2  0
 19 20  1  0
 20 12  1  0
 21 10  1  0
 22 21  2  0
 24 23  1  1
 24 25  1  0
 24 26  1  0
 26 27  1  1
 26 28  1  0
 27 21  1  0
 28 30  1  0
 29 28  2  0
M  END
$$$$
