LWT.pdb
     RDKit          3D

 30 31  0  0  1  0  0  0  0  0999 V2000
   21.3695  -19.4538  -16.3272 C   0  0  0  0  0  0  0  0  0  0  0  0
   22.7389  -18.9912  -15.8756 C   0  0  1  0  0  0  0  0  0  0  0  0
   22.7048  -17.5031  -15.7289 C   0  0  0  0  0  0  0  0  0  0  0  0
   23.1108  -19.7033  -14.5927 C   0  0  0  0  0  0  0  0  0  0  0  0
   24.3998  -19.1789  -14.0100 C   0  0  2  0  0  0  0  0  0  0  0  0
   25.4720  -19.4900  -14.9306 N   0  0  0  0  0  0  0  0  0  0  0  0
   24.6488  -19.9388  -12.7558 C   0  0  0  0  0  0  0  0  0  0  0  0
   24.1827  -21.1158  -12.6106 O   0  0  0  0  0  0  0  0  0  0  0  0
   25.3995  -19.4113  -11.6779 N   0  0  0  0  0  0  0  0  0  0  0  0
   25.7325  -20.2190  -10.4906 C   0  0  1  0  0  0  0  0  0  0  0  0
   26.8811  -19.5533   -9.8051 C   0  0  0  0  0  0  0  0  0  0  0  0
   27.4916  -20.2769   -8.7002 C   0  0  0  0  0  0  0  0  0  0  0  0
   27.9091  -21.5890   -8.7294 C   0  0  0  0  0  0  0  0  0  0  0  0
   28.4023  -21.8779   -7.4921 N   0  0  0  0  0  0  0  0  0  0  0  0
   28.3174  -20.8185   -6.6869 C   0  0  0  0  0  0  0  0  0  0  0  0
   28.6896  -20.6573   -5.3714 C   0  0  0  0  0  0  0  0  0  0  0  0
   28.4888  -19.4209   -4.7476 C   0  0  0  0  0  0  0  0  0  0  0  0
   27.9175  -18.3923   -5.4812 C   0  0  0  0  0  0  0  0  0  0  0  0
   27.5583  -18.5875   -6.7906 C   0  0  0  0  0  0  0  0  0  0  0  0
   27.7489  -19.8094   -7.4313 C   0  0  0  0  0  0  0  0  0  0  0  0
   24.4970  -20.3043   -9.6825 C   0  0  0  0  0  0  0  0  0  0  0  0
   23.7922  -19.2606   -9.4372 O   0  0  0  0  0  0  0  0  0  0  0  0
   21.8568  -23.4548   -9.4564 C   0  0  0  0  0  0  0  0  0  0  0  0
   21.6546  -22.0452   -9.0022 C   0  0  1  0  0  0  0  0  0  0  0  0
   20.5756  -22.0255   -8.1199 O   0  0  0  0  0  0  0  0  0  0  0  0
   22.8460  -21.5085   -8.2350 C   0  0  2  0  0  0  0  0  0  0  0  0
   23.9896  -21.5076   -9.1232 N   0  0  0  0  0  0  0  0  0  0  0  0
   23.0423  -22.2520   -6.9904 C   0  0  0  0  0  0  0  0  0  0  0  0
   22.0967  -22.2738   -6.1633 O   0  0  0  0  0  0  0  0  0  0  0  0
   24.1902  -22.9425   -6.6360 O   0  0  0  0  0  0  0  0  0  0  0  0
  2  1  1  1
  3  2  1  0
  4  2  1  0
  5  4  1  0
  5  6  1  6
  7  9  1  0
  7  5  1  0
  8  7  2  0
 10  9  1  0
 10 11  1  1
 12 13  2  0
 12 11  1  0
 14 13  1  0
 15 20  2  0
 15 14  1  0
 16 15  1  0
 17 18  1  0
 17 16  2  0
 18 19  2  0
 19 20  1  0
 20 12  1  0
 21 10  1  0
 22 21  2  0
 24 23  1  1
 24 25  1  0
 24 26  1  0
 26 27  1  6
 26 28  1  0
 27 21  1  0
 28 30  1  0
 29 28  2  0
M  END
$$$$
