LWT.pdb
     RDKit          3D

 30 31  0  0  1  0  0  0  0  0999 V2000
   29.8972  -17.5431  -15.5097 C   0  0  0  0  0  0  0  0  0  0  0  0
   28.4083  -17.3341  -15.3282 C   0  0  1  0  0  0  0  0  0  0  0  0
   27.8116  -17.0355  -16.6667 C   0  0  0  0  0  0  0  0  0  0  0  0
   27.8066  -18.5584  -14.6724 C   0  0  0  0  0  0  0  0  0  0  0  0
   26.3054  -18.4576  -14.5603 C   0  0  2  0  0  0  0  0  0  0  0  0
   25.9909  -17.3643  -13.6659 N   0  0  0  0  0  0  0  0  0  0  0  0
   25.8337  -19.7139  -13.9187 C   0  0  0  0  0  0  0  0  0  0  0  0
   26.3532  -20.8340  -14.2333 O   0  0  0  0  0  0  0  0  0  0  0  0
   24.8061  -19.7369  -12.9455 N   0  0  0  0  0  0  0  0  0  0  0  0
   24.2794  -20.9997  -12.3973 C   0  0  1  0  0  0  0  0  0  0  0  0
   24.2991  -20.8830  -10.9078 C   0  0  0  0  0  0  0  0  0  0  0  0
   25.5786  -20.5616  -10.2941 C   0  0  0  0  0  0  0  0  0  0  0  0
   25.7647  -19.7490   -9.1979 C   0  0  0  0  0  0  0  0  0  0  0  0
   27.1061  -19.6987   -8.9622 N   0  0  0  0  0  0  0  0  0  0  0  0
   27.7732  -20.4357   -9.8508 C   0  0  0  0  0  0  0  0  0  0  0  0
   29.1221  -20.6714   -9.9913 C   0  0  0  0  0  0  0  0  0  0  0  0
   29.5704  -21.4991  -11.0268 C   0  0  0  0  0  0  0  0  0  0  0  0
   28.6335  -22.0580  -11.8826 C   0  0  0  0  0  0  0  0  0  0  0  0
   27.2966  -21.8019  -11.7138 C   0  0  0  0  0  0  0  0  0  0  0  0
   26.8283  -20.9814  -10.6904 C   0  0  0  0  0  0  0  0  0  0  0  0
   22.9344  -21.1821  -12.9842 C   0  0  0  0  0  0  0  0  0  0  0  0
   22.1680  -20.1780  -13.2097 O   0  0  0  0  0  0  0  0  0  0  0  0
   19.6971  -24.0473  -15.3991 C   0  0  0  0  0  0  0  0  0  0  0  0
   21.0521  -23.7718  -14.8313 C   0  0  1  0  0  0  0  0  0  0  0  0
   21.9155  -23.4908  -15.8890 O   0  0  0  0  0  0  0  0  0  0  0  0
   21.0649  -22.5526  -13.9316 C   0  0  2  0  0  0  0  0  0  0  0  0
   22.3836  -22.4412  -13.3439 N   0  0  0  0  0  0  0  0  0  0  0  0
   19.9694  -22.6078  -12.9634 C   0  0  0  0  0  0  0  0  0  0  0  0
   20.1924  -23.1540  -11.8541 O   0  0  0  0  0  0  0  0  0  0  0  0
   18.6928  -22.1065  -13.1608 O   0  0  0  0  0  0  0  0  0  0  0  0
  2  1  1  6
  3  2  1  0
  4  2  1  0
  5  4  1  0
  5  6  1  1
  7  9  1  0
  7  5  1  0
  8  7  2  0
 10  9  1  0
 10 11  1  1
 12 13  2  0
 12 11  1  0
 14 13  1  0
 15 20  2  0
 15 14  1  0
 16 15  1  0
 17 18  1  0
 17 16  2  0
 18 19  2  0
 19 20  1  0
 20 12  1  0
 21 10  1  0
 22 21  2  0
 24 23  1  6
 24 25  1  0
 24 26  1  0
 26 27  1  1
 26 28  1  0
 27 21  1  0
 28 30  1  0
 29 28  2  0
M  END
$$$$
