LWT.pdb
     RDKit          3D

 30 31  0  0  1  0  0  0  0  0999 V2000
   27.8611  -18.1091  -16.8873 C   0  0  0  0  0  0  0  0  0  0  0  0
   28.6602  -19.0079  -15.9668 C   0  0  1  0  0  0  0  0  0  0  0  0
   29.7755  -18.2026  -15.3798 C   0  0  0  0  0  0  0  0  0  0  0  0
   27.7406  -19.5966  -14.9186 C   0  0  0  0  0  0  0  0  0  0  0  0
   28.4926  -20.4385  -13.9176 C   0  0  2  0  0  0  0  0  0  0  0  0
   28.9089  -21.6587  -14.5747 N   0  0  0  0  0  0  0  0  0  0  0  0
   27.5253  -20.8095  -12.8503 C   0  0  0  0  0  0  0  0  0  0  0  0
   26.7648  -21.8220  -12.9917 O   0  0  0  0  0  0  0  0  0  0  0  0
   27.3971  -20.0774  -11.6456 N   0  0  0  0  0  0  0  0  0  0  0  0
   26.3386  -20.3719  -10.6630 C   0  0  1  0  0  0  0  0  0  0  0  0
   26.5933  -19.5193   -9.4627 C   0  0  0  0  0  0  0  0  0  0  0  0
   26.1312  -20.0363   -8.1835 C   0  0  0  0  0  0  0  0  0  0  0  0
   24.8839  -20.5624   -7.9305 C   0  0  0  0  0  0  0  0  0  0  0  0
   24.8577  -20.9096   -6.6128 N   0  0  0  0  0  0  0  0  0  0  0  0
   26.0208  -20.6302   -6.0240 C   0  0  0  0  0  0  0  0  0  0  0  0
   26.4361  -20.8098   -4.7239 C   0  0  0  0  0  0  0  0  0  0  0  0
   27.7306  -20.4251   -4.3572 C   0  0  0  0  0  0  0  0  0  0  0  0
   28.5574  -19.8721   -5.3232 C   0  0  0  0  0  0  0  0  0  0  0  0
   28.1111  -19.7073   -6.6097 C   0  0  0  0  0  0  0  0  0  0  0  0
   26.8270  -20.0829   -6.9966 C   0  0  0  0  0  0  0  0  0  0  0  0
   25.0518  -20.1110  -11.3433 C   0  0  0  0  0  0  0  0  0  0  0  0
   24.8153  -18.9811  -11.9033 O   0  0  0  0  0  0  0  0  0  0  0  0
   23.5447  -21.2677  -14.2859 C   0  0  0  0  0  0  0  0  0  0  0  0
   22.4931  -21.5183  -13.2537 C   0  0  1  0  0  0  0  0  0  0  0  0
   22.5754  -22.8553  -12.8679 O   0  0  0  0  0  0  0  0  0  0  0  0
   22.7068  -20.6960  -11.9992 C   0  0  2  0  0  0  0  0  0  0  0  0
   23.9938  -21.0541  -11.4404 N   0  0  0  0  0  0  0  0  0  0  0  0
   21.5799  -20.8472  -11.0784 C   0  0  0  0  0  0  0  0  0  0  0  0
   20.4662  -20.3852  -11.4317 O   0  0  0  0  0  0  0  0  0  0  0  0
   21.6296  -21.4610   -9.8371 O   0  0  0  0  0  0  0  0  0  0  0  0
  2  1  1  6
  3  2  1  0
  4  2  1  0
  5  4  1  0
  5  6  1  6
  7  9  1  0
  7  5  1  0
  8  7  2  0
 10  9  1  0
 10 11  1  1
 12 13  2  0
 12 11  1  0
 14 13  1  0
 15 20  2  0
 15 14  1  0
 16 15  1  0
 17 18  1  0
 17 16  2  0
 18 19  2  0
 19 20  1  0
 20 12  1  0
 21 10  1  0
 22 21  2  0
 24 23  1  6
 24 25  1  0
 24 26  1  0
 26 27  1  1
 26 28  1  0
 27 21  1  0
 28 30  1  0
 29 28  2  0
M  END
$$$$
