LWT.pdb
     RDKit          3D

 30 31  0  0  1  0  0  0  0  0999 V2000
   30.2162  -23.5500  -16.6842 C   0  0  0  0  0  0  0  0  0  0  0  0
   29.6133  -22.2206  -16.2806 C   0  0  1  0  0  0  0  0  0  0  0  0
   29.0807  -21.5564  -17.5102 C   0  0  0  0  0  0  0  0  0  0  0  0
   28.5520  -22.4510  -15.2262 C   0  0  0  0  0  0  0  0  0  0  0  0
   27.8953  -21.1625  -14.7964 C   0  0  2  0  0  0  0  0  0  0  0  0
   28.9354  -20.1980  -14.5104 N   0  0  0  0  0  0  0  0  0  0  0  0
   27.1806  -21.4446  -13.5227 C   0  0  0  0  0  0  0  0  0  0  0  0
   26.2291  -22.2914  -13.4901 O   0  0  0  0  0  0  0  0  0  0  0  0
   27.5084  -20.8045  -12.3035 N   0  0  0  0  0  0  0  0  0  0  0  0
   26.7307  -21.0284  -11.0716 C   0  0  1  0  0  0  0  0  0  0  0  0
   27.5430  -20.5099   -9.9297 C   0  0  0  0  0  0  0  0  0  0  0  0
   26.8789  -20.4307   -8.6376 C   0  0  0  0  0  0  0  0  0  0  0  0
   25.5288  -20.5868   -8.4149 C   0  0  0  0  0  0  0  0  0  0  0  0
   25.3235  -20.4197   -7.0779 N   0  0  0  0  0  0  0  0  0  0  0  0
   26.4714  -20.1671   -6.4483 C   0  0  0  0  0  0  0  0  0  0  0  0
   26.7343  -19.9356   -5.1170 C   0  0  0  0  0  0  0  0  0  0  0  0
   28.0505  -19.6922   -4.7092 C   0  0  0  0  0  0  0  0  0  0  0  0
   29.0530  -19.6924   -5.6672 C   0  0  0  0  0  0  0  0  0  0  0  0
   28.7556  -19.9267   -6.9856 C   0  0  0  0  0  0  0  0  0  0  0  0
   27.4530  -20.1712   -7.4136 C   0  0  0  0  0  0  0  0  0  0  0  0
   25.4333  -20.3459  -11.2659 C   0  0  0  0  0  0  0  0  0  0  0  0
   25.3787  -19.1236  -11.6524 O   0  0  0  0  0  0  0  0  0  0  0  0
   23.8130  -19.7190  -13.6439 C   0  0  0  0  0  0  0  0  0  0  0  0
   22.7128  -20.3655  -12.8656 C   0  0  1  0  0  0  0  0  0  0  0  0
   22.7004  -21.7235  -13.1803 O   0  0  0  0  0  0  0  0  0  0  0  0
   22.9322  -20.2740  -11.3692 C   0  0  2  0  0  0  0  0  0  0  0  0
   24.1689  -20.9577  -11.0532 N   0  0  0  0  0  0  0  0  0  0  0  0
   21.7622  -20.7637  -10.6399 C   0  0  0  0  0  0  0  0  0  0  0  0
   21.8985  -21.7942   -9.9341 O   0  0  0  0  0  0  0  0  0  0  0  0
   20.5021  -20.1877  -10.6569 O   0  0  0  0  0  0  0  0  0  0  0  0
  2  1  1  6
  3  2  1  0
  4  2  1  0
  5  4  1  0
  5  6  1  1
  7  9  1  0
  7  5  1  0
  8  7  2  0
 10  9  1  0
 10 11  1  1
 12 13  2  0
 12 11  1  0
 14 13  1  0
 15 20  2  0
 15 14  1  0
 16 15  1  0
 17 18  1  0
 17 16  2  0
 18 19  2  0
 19 20  1  0
 20 12  1  0
 21 10  1  0
 22 21  2  0
 24 23  1  6
 24 25  1  0
 24 26  1  0
 26 27  1  6
 26 28  1  0
 27 21  1  0
 28 30  1  0
 29 28  2  0
M  END
$$$$
