LWT.pdb
     RDKit          3D

 30 31  0  0  1  0  0  0  0  0999 V2000
   30.0772  -21.9311  -16.8094 C   0  0  0  0  0  0  0  0  0  0  0  0
   29.2842  -20.7749  -16.2369 C   0  0  1  0  0  0  0  0  0  0  0  0
   28.6604  -20.0281  -17.3726 C   0  0  0  0  0  0  0  0  0  0  0  0
   28.2677  -21.3050  -15.2485 C   0  0  0  0  0  0  0  0  0  0  0  0
   27.4473  -20.1974  -14.6350 C   0  0  2  0  0  0  0  0  0  0  0  0
   28.3365  -19.1037  -14.3078 N   0  0  0  0  0  0  0  0  0  0  0  0
   26.8938  -20.7245  -13.3589 C   0  0  0  0  0  0  0  0  0  0  0  0
   26.3317  -21.8674  -13.3221 O   0  0  0  0  0  0  0  0  0  0  0  0
   26.9583  -20.0047  -12.1417 N   0  0  0  0  0  0  0  0  0  0  0  0
   26.3345  -20.5075  -10.9045 C   0  0  1  0  0  0  0  0  0  0  0  0
   26.9637  -19.7818   -9.7599 C   0  0  0  0  0  0  0  0  0  0  0  0
   26.5626  -20.1952   -8.4238 C   0  0  0  0  0  0  0  0  0  0  0  0
   25.3972  -20.8539   -8.1001 C   0  0  0  0  0  0  0  0  0  0  0  0
   25.4039  -21.0352   -6.7494 N   0  0  0  0  0  0  0  0  0  0  0  0
   26.5102  -20.5261   -6.2065 C   0  0  0  0  0  0  0  0  0  0  0  0
   26.9311  -20.4837   -4.8965 C   0  0  0  0  0  0  0  0  0  0  0  0
   28.1555  -19.8805   -4.5879 C   0  0  0  0  0  0  0  0  0  0  0  0
   28.9090  -19.3422   -5.6199 C   0  0  0  0  0  0  0  0  0  0  0  0
   28.4593  -19.4019   -6.9144 C   0  0  0  0  0  0  0  0  0  0  0  0
   27.2442  -19.9971   -7.2443 C   0  0  0  0  0  0  0  0  0  0  0  0
   24.8795  -20.2872  -11.0499 C   0  0  0  0  0  0  0  0  0  0  0  0
   24.4185  -19.1732  -11.4889 O   0  0  0  0  0  0  0  0  0  0  0  0
   20.7512  -22.1238  -12.5785 C   0  0  0  0  0  0  0  0  0  0  0  0
   22.1963  -22.1169  -12.1963 C   0  0  1  0  0  0  0  0  0  0  0  0
   22.9393  -21.7591  -13.3202 O   0  0  0  0  0  0  0  0  0  0  0  0
   22.5074  -21.0860  -11.1304 C   0  0  2  0  0  0  0  0  0  0  0  0
   23.8892  -21.2546  -10.7313 N   0  0  0  0  0  0  0  0  0  0  0  0
   21.5429  -21.1635  -10.0330 C   0  0  0  0  0  0  0  0  0  0  0  0
   21.8111  -21.9211   -9.0672 O   0  0  0  0  0  0  0  0  0  0  0  0
   20.3460  -20.4692   -9.9609 O   0  0  0  0  0  0  0  0  0  0  0  0
  2  1  1  6
  3  2  1  0
  4  2  1  0
  5  4  1  0
  5  6  1  1
  7  9  1  0
  7  5  1  0
  8  7  2  0
 10  9  1  0
 10 11  1  1
 12 13  2  0
 12 11  1  0
 14 13  1  0
 15 20  2  0
 15 14  1  0
 16 15  1  0
 17 18  1  0
 17 16  2  0
 18 19  2  0
 19 20  1  0
 20 12  1  0
 21 10  1  0
 22 21  2  0
 24 23  1  6
 24 25  1  0
 24 26  1  0
 26 27  1  1
 26 28  1  0
 27 21  1  0
 28 30  1  0
 29 28  2  0
M  END
$$$$
