LWT.pdb
     RDKit          3D

 30 31  0  0  1  0  0  0  0  0999 V2000
   30.2918  -22.9495  -15.9407 C   0  0  0  0  0  0  0  0  0  0  0  0
   29.2307  -21.8692  -15.9162 C   0  0  1  0  0  0  0  0  0  0  0  0
   28.5582  -21.8443  -17.2518 C   0  0  0  0  0  0  0  0  0  0  0  0
   28.2712  -22.1348  -14.7760 C   0  0  0  0  0  0  0  0  0  0  0  0
   27.1666  -21.1088  -14.7181 C   0  0  2  0  0  0  0  0  0  0  0  0
   27.7688  -19.8054  -14.5382 N   0  0  0  0  0  0  0  0  0  0  0  0
   26.3636  -21.4053  -13.5016 C   0  0  0  0  0  0  0  0  0  0  0  0
   25.8841  -22.5706  -13.3127 O   0  0  0  0  0  0  0  0  0  0  0  0
   26.0927  -20.4341  -12.5081 N   0  0  0  0  0  0  0  0  0  0  0  0
   25.2421  -20.7287  -11.3410 C   0  0  1  0  0  0  0  0  0  0  0  0
   25.7902  -19.9599  -10.1830 C   0  0  0  0  0  0  0  0  0  0  0  0
   27.0567  -20.4195   -9.6337 C   0  0  0  0  0  0  0  0  0  0  0  0
   27.9610  -21.2396  -10.2712 C   0  0  0  0  0  0  0  0  0  0  0  0
   28.9957  -21.4397   -9.4069 N   0  0  0  0  0  0  0  0  0  0  0  0
   28.7907  -20.7898   -8.2609 C   0  0  0  0  0  0  0  0  0  0  0  0
   29.5612  -20.7096   -7.1229 C   0  0  0  0  0  0  0  0  0  0  0  0
   29.1098  -19.9460   -6.0406 C   0  0  0  0  0  0  0  0  0  0  0  0
   27.8928  -19.2912   -6.1519 C   0  0  0  0  0  0  0  0  0  0  0  0
   27.1503  -19.3928   -7.3008 C   0  0  0  0  0  0  0  0  0  0  0  0
   27.5800  -20.1471   -8.3900 C   0  0  0  0  0  0  0  0  0  0  0  0
   23.8618  -20.3637  -11.7262 C   0  0  0  0  0  0  0  0  0  0  0  0
   23.6137  -19.2640  -12.3391 O   0  0  0  0  0  0  0  0  0  0  0  0
   21.9774  -22.2764  -14.0745 C   0  0  0  0  0  0  0  0  0  0  0  0
   21.6047  -20.9177  -13.5752 C   0  0  1  0  0  0  0  0  0  0  0  0
   20.3663  -20.5814  -14.1195 O   0  0  0  0  0  0  0  0  0  0  0  0
   21.4359  -20.8813  -12.0699 C   0  0  2  0  0  0  0  0  0  0  0  0
   22.7203  -21.1683  -11.4660 N   0  0  0  0  0  0  0  0  0  0  0  0
   20.3519  -21.7674  -11.6453 C   0  0  0  0  0  0  0  0  0  0  0  0
   20.6564  -22.9194  -11.2468 O   0  0  0  0  0  0  0  0  0  0  0  0
   19.0035  -21.4482  -11.6429 O   0  0  0  0  0  0  0  0  0  0  0  0
  2  1  1  6
  3  2  1  0
  4  2  1  0
  5  4  1  0
  5  6  1  1
  7  9  1  0
  7  5  1  0
  8  7  2  0
 10  9  1  0
 10 11  1  1
 12 13  2  0
 12 11  1  0
 14 13  1  0
 15 20  2  0
 15 14  1  0
 16 15  1  0
 17 18  1  0
 17 16  2  0
 18 19  2  0
 19 20  1  0
 20 12  1  0
 21 10  1  0
 22 21  2  0
 24 23  1  6
 24 25  1  0
 24 26  1  0
 26 27  1  1
 26 28  1  0
 27 21  1  0
 28 30  1  0
 29 28  2  0
M  END
$$$$
