LWT.pdb
     RDKit          3D

 30 31  0  0  1  0  0  0  0  0999 V2000
   25.9311  -17.4024  -18.9048 C   0  0  0  0  0  0  0  0  0  0  0  0
   27.0082  -18.2387  -18.2461 C   0  0  1  0  0  0  0  0  0  0  0  0
   27.9893  -17.3128  -17.6002 C   0  0  0  0  0  0  0  0  0  0  0  0
   26.3683  -19.1990  -17.2665 C   0  0  0  0  0  0  0  0  0  0  0  0
   27.3973  -19.9337  -16.4434 C   0  0  2  0  0  0  0  0  0  0  0  0
   27.8637  -21.0688  -17.2102 N   0  0  0  0  0  0  0  0  0  0  0  0
   26.6955  -20.4599  -15.2421 C   0  0  0  0  0  0  0  0  0  0  0  0
   25.8351  -21.3930  -15.3540 O   0  0  0  0  0  0  0  0  0  0  0  0
   26.9373  -19.9667  -13.9374 N   0  0  0  0  0  0  0  0  0  0  0  0
   26.3169  -20.5748  -12.7466 C   0  0  1  0  0  0  0  0  0  0  0  0
   27.2070  -20.2854  -11.5819 C   0  0  0  0  0  0  0  0  0  0  0  0
   26.7759  -20.7919  -10.2879 C   0  0  0  0  0  0  0  0  0  0  0  0
   26.4658  -22.1021   -9.9983 C   0  0  0  0  0  0  0  0  0  0  0  0
   26.0939  -22.1433   -8.6877 N   0  0  0  0  0  0  0  0  0  0  0  0
   26.1535  -20.9301   -8.1379 C   0  0  0  0  0  0  0  0  0  0  0  0
   25.8716  -20.5083   -6.8582 C   0  0  0  0  0  0  0  0  0  0  0  0
   26.0184  -19.1552   -6.5332 C   0  0  0  0  0  0  0  0  0  0  0  0
   26.4463  -18.2785   -7.5185 C   0  0  0  0  0  0  0  0  0  0  0  0
   26.7184  -18.7328   -8.7838 C   0  0  0  0  0  0  0  0  0  0  0  0
   26.5792  -20.0748   -9.1294 C   0  0  0  0  0  0  0  0  0  0  0  0
   24.9583  -20.0000  -12.6428 C   0  0  0  0  0  0  0  0  0  0  0  0
   24.7484  -18.7525  -12.8573 O   0  0  0  0  0  0  0  0  0  0  0  0
   22.3146  -19.7494  -14.6180 C   0  0  0  0  0  0  0  0  0  0  0  0
   21.6971  -20.3694  -13.4061 C   0  0  1  0  0  0  0  0  0  0  0  0
   21.6782  -21.7512  -13.5890 O   0  0  0  0  0  0  0  0  0  0  0  0
   22.5056  -20.1138  -12.1504 C   0  0  2  0  0  0  0  0  0  0  0  0
   23.7975  -20.7482  -12.3103 N   0  0  0  0  0  0  0  0  0  0  0  0
   21.7653  -20.5317  -10.9597 C   0  0  0  0  0  0  0  0  0  0  0  0
   22.2588  -21.4444  -10.2510 O   0  0  0  0  0  0  0  0  0  0  0  0
   20.5547  -20.0065  -10.5373 O   0  0  0  0  0  0  0  0  0  0  0  0
  2  1  1  1
  3  2  1  0
  4  2  1  0
  5  4  1  0
  5  6  1  6
  7  9  1  0
  7  5  1  0
  8  7  2  0
 10  9  1  0
 10 11  1  1
 12 13  2  0
 12 11  1  0
 14 13  1  0
 15 20  2  0
 15 14  1  0
 16 15  1  0
 17 18  1  0
 17 16  2  0
 18 19  2  0
 19 20  1  0
 20 12  1  0
 21 10  1  0
 22 21  2  0
 24 23  1  6
 24 25  1  0
 24 26  1  0
 26 27  1  6
 26 28  1  0
 27 21  1  0
 28 30  1  0
 29 28  2  0
M  END
$$$$
