LWT.pdb
     RDKit          3D

 30 31  0  0  1  0  0  0  0  0999 V2000
   27.4698  -19.1857  -20.7314 C   0  0  0  0  0  0  0  0  0  0  0  0
   26.2154  -18.5405  -20.1804 C   0  0  1  0  0  0  0  0  0  0  0  0
   25.5910  -17.7273  -21.2693 C   0  0  0  0  0  0  0  0  0  0  0  0
   25.2944  -19.6143  -19.6420 C   0  0  0  0  0  0  0  0  0  0  0  0
   24.0346  -19.0318  -19.0504 C   0  0  2  0  0  0  0  0  0  0  0  0
   24.3245  -17.6861  -18.6045 N   0  0  0  0  0  0  0  0  0  0  0  0
   23.7057  -19.8433  -17.8479 C   0  0  0  0  0  0  0  0  0  0  0  0
   23.7347  -21.1160  -17.9001 O   0  0  0  0  0  0  0  0  0  0  0  0
   23.3503  -19.2626  -16.6068 N   0  0  0  0  0  0  0  0  0  0  0  0
   22.9070  -20.0790  -15.4624 C   0  0  1  0  0  0  0  0  0  0  0  0
   23.2587  -19.3316  -14.2174 C   0  0  0  0  0  0  0  0  0  0  0  0
   22.9302  -19.9744  -12.9541 C   0  0  0  0  0  0  0  0  0  0  0  0
   23.5657  -21.0734  -12.4202 C   0  0  0  0  0  0  0  0  0  0  0  0
   22.9412  -21.3624  -11.2438 N   0  0  0  0  0  0  0  0  0  0  0  0
   21.9476  -20.5047  -11.0094 C   0  0  0  0  0  0  0  0  0  0  0  0
   21.0633  -20.4193   -9.9578 C   0  0  0  0  0  0  0  0  0  0  0  0
   20.0980  -19.4062   -9.9530 C   0  0  0  0  0  0  0  0  0  0  0  0
   20.0649  -18.5159  -11.0155 C   0  0  0  0  0  0  0  0  0  0  0  0
   20.9614  -18.6301  -12.0474 C   0  0  0  0  0  0  0  0  0  0  0  0
   21.9301  -19.6304  -12.0728 C   0  0  0  0  0  0  0  0  0  0  0  0
   21.4596  -20.3151  -15.6524 C   0  0  0  0  0  0  0  0  0  0  0  0
   20.6977  -19.4041  -16.1383 O   0  0  0  0  0  0  0  0  0  0  0  0
   17.5594  -23.3842  -15.6481 C   0  0  0  0  0  0  0  0  0  0  0  0
   19.0312  -23.1335  -15.5762 C   0  0  1  0  0  0  0  0  0  0  0  0
   19.5997  -23.5454  -16.7805 O   0  0  0  0  0  0  0  0  0  0  0  0
   19.3604  -21.6619  -15.4277 C   0  0  2  0  0  0  0  0  0  0  0  0
   20.7991  -21.5305  -15.3290 N   0  0  0  0  0  0  0  0  0  0  0  0
   18.6172  -21.0713  -14.3144 C   0  0  0  0  0  0  0  0  0  0  0  0
   19.0993  -21.1853  -13.1598 O   0  0  0  0  0  0  0  0  0  0  0  0
   17.4154  -20.3895  -14.4187 O   0  0  0  0  0  0  0  0  0  0  0  0
  2  1  1  6
  3  2  1  0
  4  2  1  0
  5  4  1  0
  5  6  1  1
  7  9  1  0
  7  5  1  0
  8  7  2  0
 10  9  1  0
 10 11  1  1
 12 13  2  0
 12 11  1  0
 14 13  1  0
 15 20  2  0
 15 14  1  0
 16 15  1  0
 17 18  1  0
 17 16  2  0
 18 19  2  0
 19 20  1  0
 20 12  1  0
 21 10  1  0
 22 21  2  0
 24 23  1  6
 24 25  1  0
 24 26  1  0
 26 27  1  1
 26 28  1  0
 27 21  1  0
 28 30  1  0
 29 28  2  0
M  END
$$$$
