LWT.pdb
     RDKit          3D

 30 31  0  0  1  0  0  0  0  0999 V2000
   26.9430  -17.5507  -17.1786 C   0  0  0  0  0  0  0  0  0  0  0  0
   27.8149  -18.3603  -16.2417 C   0  0  1  0  0  0  0  0  0  0  0  0
   28.5760  -17.4099  -15.3732 C   0  0  0  0  0  0  0  0  0  0  0  0
   26.9483  -19.3180  -15.4524 C   0  0  0  0  0  0  0  0  0  0  0  0
   27.7323  -20.0367  -14.3825 C   0  0  2  0  0  0  0  0  0  0  0  0
   28.5578  -21.0383  -15.0223 N   0  0  0  0  0  0  0  0  0  0  0  0
   26.7453  -20.7472  -13.5259 C   0  0  0  0  0  0  0  0  0  0  0  0
   26.2522  -21.8618  -13.8974 O   0  0  0  0  0  0  0  0  0  0  0  0
   26.3079  -20.2386  -12.2794 N   0  0  0  0  0  0  0  0  0  0  0  0
   25.3244  -20.9545  -11.4470 C   0  0  1  0  0  0  0  0  0  0  0  0
   25.6002  -20.5974  -10.0226 C   0  0  0  0  0  0  0  0  0  0  0  0
   26.9262  -20.9140   -9.5141 C   0  0  0  0  0  0  0  0  0  0  0  0
   27.8390  -21.7541  -10.1123 C   0  0  0  0  0  0  0  0  0  0  0  0
   28.9374  -21.7879   -9.3062 N   0  0  0  0  0  0  0  0  0  0  0  0
   28.7645  -21.0146   -8.2339 C   0  0  0  0  0  0  0  0  0  0  0  0
   29.5993  -20.7518   -7.1712 C   0  0  0  0  0  0  0  0  0  0  0  0
   29.1697  -19.8875   -6.1580 C   0  0  0  0  0  0  0  0  0  0  0  0
   27.9084  -19.3208   -6.2595 C   0  0  0  0  0  0  0  0  0  0  0  0
   27.1022  -19.6046   -7.3324 C   0  0  0  0  0  0  0  0  0  0  0  0
   27.5092  -20.4617   -8.3520 C   0  0  0  0  0  0  0  0  0  0  0  0
   23.9888  -20.5508  -11.9369 C   0  0  0  0  0  0  0  0  0  0  0  0
   23.6101  -19.3255  -11.8954 O   0  0  0  0  0  0  0  0  0  0  0  0
   22.3905  -21.0045  -15.2932 C   0  0  0  0  0  0  0  0  0  0  0  0
   21.4387  -21.5415  -14.2733 C   0  0  1  0  0  0  0  0  0  0  0  0
   21.6138  -22.9226  -14.2029 O   0  0  0  0  0  0  0  0  0  0  0  0
   21.7152  -21.0027  -12.8844 C   0  0  2  0  0  0  0  0  0  0  0  0
   23.0330  -21.4488  -12.4829 N   0  0  0  0  0  0  0  0  0  0  0  0
   20.6412  -21.3676  -11.9604 C   0  0  0  0  0  0  0  0  0  0  0  0
   20.9076  -22.1825  -11.0418 O   0  0  0  0  0  0  0  0  0  0  0  0
   19.3409  -20.8909  -12.0066 O   0  0  0  0  0  0  0  0  0  0  0  0
  2  1  1  6
  3  2  1  0
  4  2  1  0
  5  4  1  0
  5  6  1  6
  7  9  1  0
  7  5  1  0
  8  7  2  0
 10  9  1  0
 10 11  1  1
 12 13  2  0
 12 11  1  0
 14 13  1  0
 15 20  2  0
 15 14  1  0
 16 15  1  0
 17 18  1  0
 17 16  2  0
 18 19  2  0
 19 20  1  0
 20 12  1  0
 21 10  1  0
 22 21  2  0
 24 23  1  6
 24 25  1  0
 24 26  1  0
 26 27  1  1
 26 28  1  0
 27 21  1  0
 28 30  1  0
 29 28  2  0
M  END
$$$$
