AFN.pdb
     RDKit          3D

 25 25  0  0  1  0  0  0  0  0999 V2000
   18.6699  -10.8259  -18.7406 C   0  0  0  0  0  0  0  0  0  0  0  0
   19.9181  -10.7270  -17.9115 C   0  0  2  0  0  0  0  0  0  0  0  0
   20.4144  -11.9888  -17.4498 N   0  0  0  0  0  0  0  0  0  0  0  0
   19.7359   -9.7315  -16.8289 C   0  0  0  0  0  0  0  0  0  0  0  0
   18.8924   -9.9707  -15.9361 O   0  0  0  0  0  0  0  0  0  0  0  0
   20.4919   -8.5318  -16.7924 N   0  0  0  0  0  0  0  0  0  0  0  0
   20.2935   -7.5350  -15.7363 C   0  0  1  0  0  0  0  0  0  0  0  0
   21.5724   -7.2816  -14.9951 C   0  0  0  0  0  0  0  0  0  0  0  0
   21.9034   -8.3263  -14.0043 C   0  0  0  0  0  0  0  0  0  0  0  0
   22.8253   -9.3093  -14.2522 C   0  0  0  0  0  0  0  0  0  0  0  0
   23.0953  -10.2617  -13.2741 C   0  0  0  0  0  0  0  0  0  0  0  0
   22.4592  -10.2428  -12.0615 C   0  0  0  0  0  0  0  0  0  0  0  0
   21.5203   -9.2526  -11.7928 C   0  0  0  0  0  0  0  0  0  0  0  0
   21.2648   -8.3183  -12.7698 C   0  0  0  0  0  0  0  0  0  0  0  0
   19.7069   -6.3328  -16.3644 C   0  0  0  0  0  0  0  0  0  0  0  0
   20.3229   -5.7181  -17.2916 O   0  0  0  0  0  0  0  0  0  0  0  0
   14.4581   -3.3681  -17.2257 N   0  0  0  0  0  0  0  0  0  0  0  0
   15.8014   -3.6696  -17.4952 C   0  0  0  0  0  0  0  0  0  0  0  0
   16.4930   -2.9232  -18.2307 O   0  0  0  0  0  0  0  0  0  0  0  0
   16.4172   -4.8802  -16.9085 C   0  0  0  0  0  0  0  0  0  0  0  0
   17.8594   -4.6058  -16.5032 C   0  0  2  0  0  0  0  0  0  0  0  0
   18.4498   -5.8156  -15.9694 N   0  0  0  0  0  0  0  0  0  0  0  0
   17.9186   -3.4934  -15.5223 C   0  0  0  0  0  0  0  0  0  0  0  0
   17.5475   -3.6562  -14.2014 O   0  0  0  0  0  0  0  0  0  0  0  0
   18.3198   -2.3689  -15.9110 O   0  0  0  0  0  0  0  0  0  0  0  0
  2  1  1  1
  2  4  1  0
  2  3  1  0
  4  5  2  0
  6  7  1  0
  6  4  1  0
  7  8  1  6
  9  8  1  0
  9 10  2  0
 11 10  1  0
 12 11  2  0
 13 14  2  0
 13 12  1  0
 14  9  1  0
 15 22  1  0
 15  7  1  0
 16 15  2  0
 18 19  2  0
 18 17  1  0
 21 20  1  1
 20 18  1  0
 21 23  1  0
 21 22  1  0
 23 24  1  0
 25 23  2  0
M  END
$$$$
