AFN.pdb
     RDKit          3D

 25 25  0  0  1  0  0  0  0  0999 V2000
   26.4721  -20.9156  -17.7187 C   0  0  0  0  0  0  0  0  0  0  0  0
   27.4981  -21.5248  -16.8068 C   0  0  2  0  0  0  0  0  0  0  0  0
   28.0788  -22.7352  -17.3064 N   0  0  0  0  0  0  0  0  0  0  0  0
   26.9519  -21.6534  -15.4353 C   0  0  0  0  0  0  0  0  0  0  0  0
   26.1191  -22.5595  -15.2087 O   0  0  0  0  0  0  0  0  0  0  0  0
   27.3536  -20.7778  -14.3940 N   0  0  0  0  0  0  0  0  0  0  0  0
   26.8469  -20.9320  -13.0273 C   0  0  1  0  0  0  0  0  0  0  0  0
   27.7781  -20.2963  -12.0384 C   0  0  0  0  0  0  0  0  0  0  0  0
   27.2862  -20.3374  -10.6458 C   0  0  0  0  0  0  0  0  0  0  0  0
   27.7523  -21.2416   -9.7277 C   0  0  0  0  0  0  0  0  0  0  0  0
   27.2508  -21.2243   -8.4296 C   0  0  0  0  0  0  0  0  0  0  0  0
   26.2968  -20.3214   -8.0426 C   0  0  0  0  0  0  0  0  0  0  0  0
   25.8121  -19.3967   -8.9615 C   0  0  0  0  0  0  0  0  0  0  0  0
   26.3179  -19.4264  -10.2405 C   0  0  0  0  0  0  0  0  0  0  0  0
   25.4712  -20.3930  -12.9998 C   0  0  0  0  0  0  0  0  0  0  0  0
   25.1830  -19.3164  -13.6123 O   0  0  0  0  0  0  0  0  0  0  0  0
   19.8783  -21.8577  -13.3980 N   0  0  0  0  0  0  0  0  0  0  0  0
   20.8953  -20.8986  -13.5157 C   0  0  0  0  0  0  0  0  0  0  0  0
   20.6187  -19.6828  -13.6640 O   0  0  0  0  0  0  0  0  0  0  0  0
   22.3132  -21.3176  -13.4648 C   0  0  0  0  0  0  0  0  0  0  0  0
   23.0399  -20.6148  -12.3258 C   0  0  2  0  0  0  0  0  0  0  0  0
   24.4241  -21.0396  -12.3005 N   0  0  0  0  0  0  0  0  0  0  0  0
   22.3635  -20.8888  -11.0332 C   0  0  0  0  0  0  0  0  0  0  0  0
   21.1228  -20.3642  -10.7261 O   0  0  0  0  0  0  0  0  0  0  0  0
   22.9425  -21.6221  -10.1945 O   0  0  0  0  0  0  0  0  0  0  0  0
  2  1  1  6
  2  4  1  0
  2  3  1  0
  4  5  2  0
  6  7  1  0
  6  4  1  0
  7  8  1  1
  9  8  1  0
  9 10  2  0
 11 10  1  0
 12 11  2  0
 13 14  2  0
 13 12  1  0
 14  9  1  0
 15 22  1  0
 15  7  1  0
 16 15  2  0
 18 19  2  0
 18 17  1  0
 21 20  1  6
 20 18  1  0
 21 23  1  0
 21 22  1  0
 23 24  1  0
 25 23  2  0
M  END
$$$$
