AFN.pdb
     RDKit          3D

 25 25  0  0  1  0  0  0  0  0999 V2000
   19.2515  -11.4477  -17.8481 C   0  0  0  0  0  0  0  0  0  0  0  0
   20.6232  -11.2910  -17.2571 C   0  0  2  0  0  0  0  0  0  0  0  0
   21.2596  -12.5294  -16.9211 N   0  0  0  0  0  0  0  0  0  0  0  0
   20.5903  -10.3205  -16.1377 C   0  0  0  0  0  0  0  0  0  0  0  0
   19.5839  -10.3030  -15.3943 O   0  0  0  0  0  0  0  0  0  0  0  0
   21.6661   -9.4264  -15.9021 N   0  0  0  0  0  0  0  0  0  0  0  0
   21.6612   -8.5086  -14.7593 C   0  0  1  0  0  0  0  0  0  0  0  0
   22.8388   -8.7628  -13.8661 C   0  0  0  0  0  0  0  0  0  0  0  0
   24.0577   -9.1765  -14.5912 C   0  0  0  0  0  0  0  0  0  0  0  0
   24.6069  -10.4245  -14.4543 C   0  0  0  0  0  0  0  0  0  0  0  0
   25.7543  -10.7533  -15.1700 C   0  0  0  0  0  0  0  0  0  0  0  0
   26.3537   -9.8562  -16.0133 C   0  0  0  0  0  0  0  0  0  0  0  0
   25.8101   -8.5850  -16.1642 C   0  0  0  0  0  0  0  0  0  0  0  0
   24.6757   -8.2753  -15.4501 C   0  0  0  0  0  0  0  0  0  0  0  0
   21.5903   -7.1329  -15.2944 C   0  0  0  0  0  0  0  0  0  0  0  0
   22.0960   -6.8492  -16.4261 O   0  0  0  0  0  0  0  0  0  0  0  0
   20.2770   -2.2502  -16.0660 N   0  0  0  0  0  0  0  0  0  0  0  0
   19.2996   -2.8008  -15.2236 C   0  0  0  0  0  0  0  0  0  0  0  0
   18.2640   -2.1539  -14.9313 O   0  0  0  0  0  0  0  0  0  0  0  0
   19.4849   -4.1601  -14.6695 C   0  0  0  0  0  0  0  0  0  0  0  0
   20.8409   -4.7237  -15.0729 C   0  0  2  0  0  0  0  0  0  0  0  0
   20.9655   -6.0807  -14.5829 N   0  0  0  0  0  0  0  0  0  0  0  0
   21.9336   -3.8588  -14.5618 C   0  0  0  0  0  0  0  0  0  0  0  0
   22.4154   -2.7806  -15.2790 O   0  0  0  0  0  0  0  0  0  0  0  0
   22.4335   -4.1201  -13.4401 O   0  0  0  0  0  0  0  0  0  0  0  0
  2  1  1  1
  2  4  1  0
  2  3  1  0
  4  5  2  0
  6  7  1  0
  6  4  1  0
  7  8  1  6
  9  8  1  0
  9 10  2  0
 11 10  1  0
 12 11  2  0
 13 14  2  0
 13 12  1  0
 14  9  1  0
 15 22  1  0
 15  7  1  0
 16 15  2  0
 18 19  2  0
 18 17  1  0
 21 20  1  1
 20 18  1  0
 21 23  1  0
 21 22  1  0
 23 24  1  0
 25 23  2  0
M  END
$$$$
