AFN.pdb
     RDKit          3D

 25 25  0  0  1  0  0  0  0  0999 V2000
   26.6808  -20.8500  -17.9650 C   0  0  0  0  0  0  0  0  0  0  0  0
   27.6969  -21.4544  -17.0389 C   0  0  2  0  0  0  0  0  0  0  0  0
   28.3549  -22.6114  -17.5682 N   0  0  0  0  0  0  0  0  0  0  0  0
   27.1021  -21.6737  -15.6994 C   0  0  0  0  0  0  0  0  0  0  0  0
   26.5117  -22.7550  -15.4801 O   0  0  0  0  0  0  0  0  0  0  0  0
   27.1914  -20.6908  -14.6805 N   0  0  0  0  0  0  0  0  0  0  0  0
   26.7107  -20.9531  -13.3209 C   0  0  1  0  0  0  0  0  0  0  0  0
   27.5109  -20.1815  -12.3142 C   0  0  0  0  0  0  0  0  0  0  0  0
   27.0415  -20.3516  -10.9237 C   0  0  0  0  0  0  0  0  0  0  0  0
   27.6837  -21.1622  -10.0247 C   0  0  0  0  0  0  0  0  0  0  0  0
   27.1928  -21.2751   -8.7274 C   0  0  0  0  0  0  0  0  0  0  0  0
   26.0766  -20.5930   -8.3224 C   0  0  0  0  0  0  0  0  0  0  0  0
   25.4120  -19.7660   -9.2217 C   0  0  0  0  0  0  0  0  0  0  0  0
   25.9097  -19.6648  -10.5002 C   0  0  0  0  0  0  0  0  0  0  0  0
   25.2621  -20.6620  -13.2978 C   0  0  0  0  0  0  0  0  0  0  0  0
   24.7868  -19.6780  -13.9480 O   0  0  0  0  0  0  0  0  0  0  0  0
   20.2230  -20.9494  -12.3786 N   0  0  0  0  0  0  0  0  0  0  0  0
   21.0181  -19.8079  -12.1975 C   0  0  0  0  0  0  0  0  0  0  0  0
   20.4948  -18.6880  -11.9776 O   0  0  0  0  0  0  0  0  0  0  0  0
   22.4919  -19.9179  -12.2647 C   0  0  0  0  0  0  0  0  0  0  0  0
   22.9074  -21.3320  -12.6484 C   0  0  2  0  0  0  0  0  0  0  0  0
   24.3479  -21.4528  -12.5612 N   0  0  0  0  0  0  0  0  0  0  0  0
   22.4153  -21.6649  -14.0086 C   0  0  0  0  0  0  0  0  0  0  0  0
   21.4558  -22.6347  -14.2272 O   0  0  0  0  0  0  0  0  0  0  0  0
   22.8902  -21.0418  -14.9897 O   0  0  0  0  0  0  0  0  0  0  0  0
  2  1  1  6
  2  4  1  0
  2  3  1  0
  4  5  2  0
  6  7  1  0
  6  4  1  0
  7  8  1  1
  9  8  1  0
  9 10  2  0
 11 10  1  0
 12 11  2  0
 13 14  2  0
 13 12  1  0
 14  9  1  0
 15 22  1  0
 15  7  1  0
 16 15  2  0
 18 19  2  0
 18 17  1  0
 21 20  1  6
 20 18  1  0
 21 23  1  0
 21 22  1  0
 23 24  1  0
 25 23  2  0
M  END
$$$$
