AFN.pdb
     RDKit          3D

 25 25  0  0  1  0  0  0  0  0999 V2000
   25.7294  -18.3753  -18.6045 C   0  0  0  0  0  0  0  0  0  0  0  0
   26.7917  -19.1761  -17.9077 C   0  0  2  0  0  0  0  0  0  0  0  0
   27.5066  -20.0715  -18.7672 N   0  0  0  0  0  0  0  0  0  0  0  0
   26.2300  -19.8340  -16.7045 C   0  0  0  0  0  0  0  0  0  0  0  0
   25.5291  -20.8591  -16.8590 O   0  0  0  0  0  0  0  0  0  0  0  0
   26.4720  -19.3256  -15.4025 N   0  0  0  0  0  0  0  0  0  0  0  0
   25.9520  -20.0001  -14.2095 C   0  0  1  0  0  0  0  0  0  0  0  0
   26.7262  -19.5980  -12.9896 C   0  0  0  0  0  0  0  0  0  0  0  0
   26.1925  -20.1626  -11.7329 C   0  0  0  0  0  0  0  0  0  0  0  0
   25.3875  -19.4448  -10.8876 C   0  0  0  0  0  0  0  0  0  0  0  0
   24.9136  -20.0371   -9.7209 C   0  0  0  0  0  0  0  0  0  0  0  0
   25.2328  -21.3276   -9.3924 C   0  0  0  0  0  0  0  0  0  0  0  0
   26.0490  -22.0709  -10.2385 C   0  0  0  0  0  0  0  0  0  0  0  0
   26.5093  -21.4713  -11.3880 C   0  0  0  0  0  0  0  0  0  0  0  0
   24.5044  -19.7134  -14.1323 C   0  0  0  0  0  0  0  0  0  0  0  0
   24.0593  -18.5472  -14.3751 O   0  0  0  0  0  0  0  0  0  0  0  0
   19.4029  -19.2232  -15.1004 N   0  0  0  0  0  0  0  0  0  0  0  0
   19.9870  -20.4749  -14.8552 C   0  0  0  0  0  0  0  0  0  0  0  0
   19.2824  -21.4591  -14.5213 O   0  0  0  0  0  0  0  0  0  0  0  0
   21.4505  -20.6446  -14.9900 C   0  0  0  0  0  0  0  0  0  0  0  0
   22.1374  -20.4696  -13.6421 C   0  0  2  0  0  0  0  0  0  0  0  0
   23.5581  -20.7086  -13.7890 N   0  0  0  0  0  0  0  0  0  0  0  0
   21.5351  -21.3762  -12.6328 C   0  0  0  0  0  0  0  0  0  0  0  0
   20.5340  -20.9618  -11.7756 O   0  0  0  0  0  0  0  0  0  0  0  0
   21.9532  -22.5578  -12.5596 O   0  0  0  0  0  0  0  0  0  0  0  0
  2  1  1  6
  2  4  1  0
  2  3  1  0
  4  5  2  0
  6  7  1  0
  6  4  1  0
  7  8  1  1
  9  8  1  0
  9 10  2  0
 11 10  1  0
 12 11  2  0
 13 14  2  0
 13 12  1  0
 14  9  1  0
 15 22  1  0
 15  7  1  0
 16 15  2  0
 18 19  2  0
 18 17  1  0
 21 20  1  6
 20 18  1  0
 21 23  1  0
 21 22  1  0
 23 24  1  0
 25 23  2  0
M  END
$$$$
