AFN.pdb
     RDKit          3D

 25 25  0  0  1  0  0  0  0  0999 V2000
   20.9798  -11.7408   14.3891 C   0  0  0  0  0  0  0  0  0  0  0  0
   20.0375  -11.9181   13.2332 C   0  0  2  0  0  0  0  0  0  0  0  0
   18.6748  -11.5970   13.5357 N   0  0  0  0  0  0  0  0  0  0  0  0
   20.2090  -13.2629   12.6348 C   0  0  0  0  0  0  0  0  0  0  0  0
   19.6587  -14.2378   13.1937 O   0  0  0  0  0  0  0  0  0  0  0  0
   20.9759  -13.4561   11.4571 N   0  0  0  0  0  0  0  0  0  0  0  0
   21.0639  -14.7676   10.8086 C   0  0  1  0  0  0  0  0  0  0  0  0
   21.0598  -14.6258    9.3156 C   0  0  0  0  0  0  0  0  0  0  0  0
   21.1401  -15.9130    8.5950 C   0  0  0  0  0  0  0  0  0  0  0  0
   20.0257  -16.6182    8.2227 C   0  0  0  0  0  0  0  0  0  0  0  0
   20.1700  -17.8229    7.5411 C   0  0  0  0  0  0  0  0  0  0  0  0
   21.4050  -18.3263    7.2306 C   0  0  0  0  0  0  0  0  0  0  0  0
   22.5470  -17.6241    7.6010 C   0  0  0  0  0  0  0  0  0  0  0  0
   22.3877  -16.4348    8.2740 C   0  0  0  0  0  0  0  0  0  0  0  0
   22.2562  -15.4522   11.3506 C   0  0  0  0  0  0  0  0  0  0  0  0
   23.2893  -14.7904   11.6850 O   0  0  0  0  0  0  0  0  0  0  0  0
   26.0793  -17.3069   14.0209 N   0  0  0  0  0  0  0  0  0  0  0  0
   24.7852  -17.8366   14.1348 C   0  0  0  0  0  0  0  0  0  0  0  0
   24.5829  -18.9140   14.7469 O   0  0  0  0  0  0  0  0  0  0  0  0
   23.6403  -17.1219   13.5289 C   0  0  0  0  0  0  0  0  0  0  0  0
   23.4268  -17.5730   12.0901 C   0  0  2  0  0  0  0  0  0  0  0  0
   22.3045  -16.8567   11.5205 N   0  0  0  0  0  0  0  0  0  0  0  0
   23.2196  -19.0417   12.0335 C   0  0  0  0  0  0  0  0  0  0  0  0
   21.9920  -19.6221   12.2885 O   0  0  0  0  0  0  0  0  0  0  0  0
   24.1956  -19.7766   11.7441 O   0  0  0  0  0  0  0  0  0  0  0  0
  2  1  1  1
  2  4  1  0
  2  3  1  0
  4  5  2  0
  6  7  1  0
  6  4  1  0
  7  8  1  6
  9  8  1  0
  9 10  2  0
 11 10  1  0
 12 11  2  0
 13 14  2  0
 13 12  1  0
 14  9  1  0
 15 22  1  0
 15  7  1  0
 16 15  2  0
 18 19  2  0
 18 17  1  0
 21 20  1  1
 20 18  1  0
 21 23  1  0
 21 22  1  0
 23 24  1  0
 25 23  2  0
M  END
$$$$
