AFN.pdb
     RDKit          3D

 25 25  0  0  1  0  0  0  0  0999 V2000
   26.5838  -20.8389  -17.5366 C   0  0  0  0  0  0  0  0  0  0  0  0
   27.3818  -21.6898  -16.5908 C   0  0  2  0  0  0  0  0  0  0  0  0
   27.7790  -22.9537  -17.1353 N   0  0  0  0  0  0  0  0  0  0  0  0
   26.6835  -21.8005  -15.2884 C   0  0  0  0  0  0  0  0  0  0  0  0
   25.7441  -22.6205  -15.1845 O   0  0  0  0  0  0  0  0  0  0  0  0
   27.0595  -21.0025  -14.1775 N   0  0  0  0  0  0  0  0  0  0  0  0
   26.3710  -21.1139  -12.8883 C   0  0  1  0  0  0  0  0  0  0  0  0
   27.2124  -20.5474  -11.7836 C   0  0  0  0  0  0  0  0  0  0  0  0
   26.5173  -20.4773  -10.4818 C   0  0  0  0  0  0  0  0  0  0  0  0
   26.0961  -21.5960   -9.8118 C   0  0  0  0  0  0  0  0  0  0  0  0
   25.4511  -21.4616   -8.5860 C   0  0  0  0  0  0  0  0  0  0  0  0
   25.2243  -20.2321   -8.0275 C   0  0  0  0  0  0  0  0  0  0  0  0
   25.6447  -19.0859   -8.6936 C   0  0  0  0  0  0  0  0  0  0  0  0
   26.2809  -19.2354   -9.9043 C   0  0  0  0  0  0  0  0  0  0  0  0
   25.0477  -20.4724  -13.0342 C   0  0  0  0  0  0  0  0  0  0  0  0
   24.9380  -19.3241  -13.5694 O   0  0  0  0  0  0  0  0  0  0  0  0
   20.0430  -19.6112  -13.3637 N   0  0  0  0  0  0  0  0  0  0  0  0
   20.3845  -20.8440  -13.9396 C   0  0  0  0  0  0  0  0  0  0  0  0
   19.5780  -21.4498  -14.6873 O   0  0  0  0  0  0  0  0  0  0  0  0
   21.7094  -21.4431  -13.6672 C   0  0  0  0  0  0  0  0  0  0  0  0
   22.5309  -20.5383  -12.7585 C   0  0  2  0  0  0  0  0  0  0  0  0
   23.8567  -21.0963  -12.5915 N   0  0  0  0  0  0  0  0  0  0  0  0
   21.8482  -20.3588  -11.4527 C   0  0  0  0  0  0  0  0  0  0  0  0
   20.7858  -19.4905  -11.2909 O   0  0  0  0  0  0  0  0  0  0  0  0
   22.2537  -21.0203  -10.4656 O   0  0  0  0  0  0  0  0  0  0  0  0
  2  1  1  6
  2  4  1  0
  2  3  1  0
  4  5  2  0
  6  7  1  0
  6  4  1  0
  7  8  1  1
  9  8  1  0
  9 10  2  0
 11 10  1  0
 12 11  2  0
 13 14  2  0
 13 12  1  0
 14  9  1  0
 15 22  1  0
 15  7  1  0
 16 15  2  0
 18 19  2  0
 18 17  1  0
 21 20  1  6
 20 18  1  0
 21 23  1  0
 21 22  1  0
 23 24  1  0
 25 23  2  0
M  END
$$$$
