AFN.pdb
     RDKit          3D

 25 25  0  0  1  0  0  0  0  0999 V2000
   35.4567  -37.0514    1.3559 C   0  0  0  0  0  0  0  0  0  0  0  0
   36.4877  -36.0284    0.9740 C   0  0  2  0  0  0  0  0  0  0  0  0
   37.8286  -36.5314    0.9485 N   0  0  0  0  0  0  0  0  0  0  0  0
   36.3295  -34.8089    1.8011 C   0  0  0  0  0  0  0  0  0  0  0  0
   36.8290  -34.7988    2.9483 O   0  0  0  0  0  0  0  0  0  0  0  0
   35.6311  -33.6728    1.3176 N   0  0  0  0  0  0  0  0  0  0  0  0
   35.4195  -32.4907    2.1580 C   0  0  1  0  0  0  0  0  0  0  0  0
   35.1101  -31.2875    1.3178 C   0  0  0  0  0  0  0  0  0  0  0  0
   34.8895  -30.0547    2.1016 C   0  0  0  0  0  0  0  0  0  0  0  0
   33.6712  -29.7343    2.6409 C   0  0  0  0  0  0  0  0  0  0  0  0
   33.5308  -28.5595    3.3736 C   0  0  0  0  0  0  0  0  0  0  0  0
   34.5855  -27.7088    3.5713 C   0  0  0  0  0  0  0  0  0  0  0  0
   35.8292  -28.0180    3.0309 C   0  0  0  0  0  0  0  0  0  0  0  0
   35.9518  -29.1829    2.3094 C   0  0  0  0  0  0  0  0  0  0  0  0
   34.3725  -32.8283    3.1446 C   0  0  0  0  0  0  0  0  0  0  0  0
   33.3883  -33.5657    2.8208 O   0  0  0  0  0  0  0  0  0  0  0  0
   31.6332  -34.8132    7.2126 N   0  0  0  0  0  0  0  0  0  0  0  0
   32.7190  -33.9447    7.3985 C   0  0  0  0  0  0  0  0  0  0  0  0
   32.8578  -33.3094    8.4726 O   0  0  0  0  0  0  0  0  0  0  0  0
   33.7168  -33.7706    6.3201 C   0  0  0  0  0  0  0  0  0  0  0  0
   33.3669  -32.5674    5.4545 C   0  0  2  0  0  0  0  0  0  0  0  0
   34.4143  -32.3539    4.4776 N   0  0  0  0  0  0  0  0  0  0  0  0
   33.1583  -31.3651    6.2996 C   0  0  0  0  0  0  0  0  0  0  0  0
   34.0123  -30.2797    6.2589 O   0  0  0  0  0  0  0  0  0  0  0  0
   32.1717  -31.3386    7.0756 O   0  0  0  0  0  0  0  0  0  0  0  0
  2  1  1  1
  2  4  1  0
  2  3  1  0
  4  5  2  0
  6  7  1  0
  6  4  1  0
  7  8  1  6
  9  8  1  0
  9 10  2  0
 11 10  1  0
 12 11  2  0
 13 14  2  0
 13 12  1  0
 14  9  1  0
 15 22  1  0
 15  7  1  0
 16 15  2  0
 18 19  2  0
 18 17  1  0
 21 20  1  1
 20 18  1  0
 21 23  1  0
 21 22  1  0
 23 24  1  0
 25 23  2  0
M  END
$$$$
