AFN.pdb
     RDKit          3D

 25 25  0  0  1  0  0  0  0  0999 V2000
   18.6097  -13.5895  -19.5311 C   0  0  0  0  0  0  0  0  0  0  0  0
   19.9073  -14.2839  -19.2324 C   0  0  2  0  0  0  0  0  0  0  0  0
   19.7643  -15.6667  -18.8875 N   0  0  0  0  0  0  0  0  0  0  0  0
   20.6882  -13.5055  -18.2422 C   0  0  0  0  0  0  0  0  0  0  0  0
   20.3806  -13.6017  -17.0331 O   0  0  0  0  0  0  0  0  0  0  0  0
   21.7610  -12.6671  -18.6403 N   0  0  0  0  0  0  0  0  0  0  0  0
   22.6151  -11.9984  -17.6546 C   0  0  1  0  0  0  0  0  0  0  0  0
   24.0460  -11.9949  -18.1038 C   0  0  0  0  0  0  0  0  0  0  0  0
   24.9581  -11.2888  -17.1806 C   0  0  0  0  0  0  0  0  0  0  0  0
   25.2906   -9.9692  -17.3415 C   0  0  0  0  0  0  0  0  0  0  0  0
   26.1520   -9.3612  -16.4333 C   0  0  0  0  0  0  0  0  0  0  0  0
   26.6804  -10.0517  -15.3753 C   0  0  0  0  0  0  0  0  0  0  0  0
   26.3542  -11.3918  -15.1968 C   0  0  0  0  0  0  0  0  0  0  0  0
   25.5013  -11.9784  -16.1030 C   0  0  0  0  0  0  0  0  0  0  0  0
   22.0499  -10.6539  -17.4161 C   0  0  0  0  0  0  0  0  0  0  0  0
   21.6791   -9.9233  -18.3885 O   0  0  0  0  0  0  0  0  0  0  0  0
   20.2811   -6.4317  -15.0387 N   0  0  0  0  0  0  0  0  0  0  0  0
   20.2955   -7.4426  -14.0660 C   0  0  0  0  0  0  0  0  0  0  0  0
   19.7714   -7.2590  -12.9399 O   0  0  0  0  0  0  0  0  0  0  0  0
   20.9340   -8.7434  -14.3641 C   0  0  0  0  0  0  0  0  0  0  0  0
   21.3653   -8.8075  -15.8233 C   0  0  2  0  0  0  0  0  0  0  0  0
   21.8969  -10.1230  -16.1128 N   0  0  0  0  0  0  0  0  0  0  0  0
   22.3576   -7.7434  -16.1169 C   0  0  0  0  0  0  0  0  0  0  0  0
   23.5724   -7.6692  -15.4629 O   0  0  0  0  0  0  0  0  0  0  0  0
   22.0788   -6.8844  -16.9891 O   0  0  0  0  0  0  0  0  0  0  0  0
  2  1  1  1
  2  4  1  0
  2  3  1  0
  4  5  2  0
  6  7  1  0
  6  4  1  0
  7  8  1  6
  9  8  1  0
  9 10  2  0
 11 10  1  0
 12 11  2  0
 13 14  2  0
 13 12  1  0
 14  9  1  0
 15 22  1  0
 15  7  1  0
 16 15  2  0
 18 19  2  0
 18 17  1  0
 21 20  1  1
 20 18  1  0
 21 23  1  0
 21 22  1  0
 23 24  1  0
 25 23  2  0
M  END
$$$$
