AFN.pdb
     RDKit          3D

 25 25  0  0  1  0  0  0  0  0999 V2000
   27.6767  -18.9065  -16.8558 C   0  0  0  0  0  0  0  0  0  0  0  0
   27.9981  -20.3180  -16.4562 C   0  0  2  0  0  0  0  0  0  0  0  0
   27.9471  -21.2572  -17.5365 N   0  0  0  0  0  0  0  0  0  0  0  0
   27.1806  -20.7176  -15.2865 C   0  0  0  0  0  0  0  0  0  0  0  0
   26.1162  -21.3433  -15.4900 O   0  0  0  0  0  0  0  0  0  0  0  0
   27.5819  -20.4051  -13.9623 N   0  0  0  0  0  0  0  0  0  0  0  0
   26.7285  -20.7152  -12.8116 C   0  0  1  0  0  0  0  0  0  0  0  0
   27.4252  -20.3823  -11.5259 C   0  0  0  0  0  0  0  0  0  0  0  0
   26.5618  -20.5005  -10.3329 C   0  0  0  0  0  0  0  0  0  0  0  0
   25.7526  -21.5848  -10.1153 C   0  0  0  0  0  0  0  0  0  0  0  0
   24.9666  -21.6372   -8.9680 C   0  0  0  0  0  0  0  0  0  0  0  0
   24.9803  -20.6266   -8.0440 C   0  0  0  0  0  0  0  0  0  0  0  0
   25.7953  -19.5185   -8.2488 C   0  0  0  0  0  0  0  0  0  0  0  0
   26.5664  -19.4816   -9.3876 C   0  0  0  0  0  0  0  0  0  0  0  0
   25.4448  -20.0098  -13.0073 C   0  0  0  0  0  0  0  0  0  0  0  0
   25.4209  -18.8057  -13.4154 O   0  0  0  0  0  0  0  0  0  0  0  0
   21.2706  -17.9559  -15.0366 N   0  0  0  0  0  0  0  0  0  0  0  0
   21.3367  -19.3316  -14.7699 C   0  0  0  0  0  0  0  0  0  0  0  0
   20.2972  -20.0359  -14.7624 O   0  0  0  0  0  0  0  0  0  0  0  0
   22.6439  -19.9669  -14.4936 C   0  0  0  0  0  0  0  0  0  0  0  0
   22.9121  -20.0129  -12.9952 C   0  0  2  0  0  0  0  0  0  0  0  0
   24.1988  -20.6317  -12.7533 N   0  0  0  0  0  0  0  0  0  0  0  0
   21.8209  -20.7366  -12.2961 C   0  0  0  0  0  0  0  0  0  0  0  0
   21.7557  -22.1163  -12.2634 O   0  0  0  0  0  0  0  0  0  0  0  0
   20.9297  -20.0680  -11.7171 O   0  0  0  0  0  0  0  0  0  0  0  0
  2  1  1  6
  2  4  1  0
  2  3  1  0
  4  5  2  0
  6  7  1  0
  6  4  1  0
  7  8  1  1
  9  8  1  0
  9 10  2  0
 11 10  1  0
 12 11  2  0
 13 14  2  0
 13 12  1  0
 14  9  1  0
 15 22  1  0
 15  7  1  0
 16 15  2  0
 18 19  2  0
 18 17  1  0
 21 20  1  6
 20 18  1  0
 21 23  1  0
 21 22  1  0
 23 24  1  0
 25 23  2  0
M  END
$$$$
