EHE.pdb
     RDKit          3D

 29 29  0  0  1  0  0  0  0  0999 V2000
   10.4323  -16.3112   19.8131 N   0  0  0  0  0  0  0  0  0  0  0  0
    9.4589  -16.7534   20.7325 C   0  0  1  0  0  0  0  0  0  0  0  0
    9.3746  -18.2021   21.0283 C   0  0  0  0  0  0  0  0  0  0  0  0
   10.3132  -19.0818   20.2681 C   0  0  0  0  0  0  0  0  0  0  0  0
   10.2039  -20.5255   20.5153 C   0  0  0  0  0  0  0  0  0  0  0  0
    9.3809  -21.1099   21.2389 O   0  0  0  0  0  0  0  0  0  0  0  0
    9.5079  -15.9333   22.0027 C   0  0  0  0  0  0  0  0  0  0  0  0
   10.5833  -15.5124   22.4689 O   0  0  0  0  0  0  0  0  0  0  0  0
   11.1455  -21.3247   19.8499 O   0  0  0  0  0  0  0  0  0  0  0  0
    8.3173  -15.6076   22.7229 N   0  0  0  0  0  0  0  0  0  0  0  0
    8.3144  -14.8765   23.9686 C   0  0  1  0  0  0  0  0  0  0  0  0
    6.9979  -14.1851   24.2191 C   0  0  0  0  0  0  0  0  0  0  0  0
    7.0497  -13.3470   25.4600 C   0  0  0  0  0  0  0  0  0  0  0  0
    6.2867  -13.5321   26.5683 C   0  0  0  0  0  0  0  0  0  0  0  0
    6.6017  -12.5980   27.4688 N   0  0  0  0  0  0  0  0  0  0  0  0
    7.5564  -11.8419   26.9122 C   0  0  0  0  0  0  0  0  0  0  0  0
    7.8369  -12.2923   25.6831 N   0  0  0  0  0  0  0  0  0  0  0  0
    8.8110  -15.6406   25.1136 C   0  0  0  0  0  0  0  0  0  0  0  0
    8.3761  -16.7519   25.4927 O   0  0  0  0  0  0  0  0  0  0  0  0
    9.8991  -15.1104   25.9054 N   0  0  0  0  0  0  0  0  0  0  0  0
   10.5499  -15.8548   26.9491 C   0  0  1  0  0  0  0  0  0  0  0  0
   11.9986  -16.0870   26.7318 C   0  0  0  0  0  0  0  0  0  0  0  0
   12.4608  -16.6609   25.4561 C   0  0  0  0  0  0  0  0  0  0  0  0
   13.8989  -16.8140   25.3234 C   0  0  0  0  0  0  0  0  0  0  0  0
   14.7082  -16.4569   26.1894 O   0  0  0  0  0  0  0  0  0  0  0  0
   10.4099  -15.1692   28.2600 C   0  0  0  0  0  0  0  0  0  0  0  0
    9.9359  -14.0202   28.2973 O   0  0  0  0  0  0  0  0  0  0  0  0
   14.4543  -17.3997   24.1555 O   0  0  0  0  0  0  0  0  0  0  0  0
   10.7925  -15.7651   29.4548 O   0  0  0  0  0  0  0  0  0  0  0  0
  2  1  1  6
  2  7  1  0
  2  3  1  0
  4  3  1  0
  4  5  1  0
  5  6  2  0
  5  9  1  0
  7  8  2  0
 10 11  1  0
 10  7  1  0
 11 12  1  1
 12 13  1  0
 13 14  2  0
 14 15  1  0
 16 15  1  0
 17 13  1  0
 17 16  2  0
 18 20  1  0
 18 11  1  0
 19 18  2  0
 21 22  1  6
 21 20  1  0
 22 23  1  0
 23 24  1  0
 24 28  1  0
 24 25  2  0
 26 21  1  0
 27 26  2  0
 29 26  1  0
M  END
$$$$
