EHE.pdb
     RDKit          3D

 29 29  0  0  1  0  0  0  0  0999 V2000
   14.5035  -14.5277   15.1829 N   0  0  0  0  0  0  0  0  0  0  0  0
   13.4203  -15.3635   15.5240 C   0  0  1  0  0  0  0  0  0  0  0  0
   13.6525  -16.8242   15.5987 C   0  0  0  0  0  0  0  0  0  0  0  0
   14.7419  -17.2683   16.5201 C   0  0  0  0  0  0  0  0  0  0  0  0
   14.9651  -18.7164   16.6215 C   0  0  0  0  0  0  0  0  0  0  0  0
   15.6136  -19.4389   15.8469 O   0  0  0  0  0  0  0  0  0  0  0  0
   12.7171  -14.8530   16.7623 C   0  0  0  0  0  0  0  0  0  0  0  0
   13.3507  -14.4715   17.7644 O   0  0  0  0  0  0  0  0  0  0  0  0
   14.3703  -19.3428   17.7268 O   0  0  0  0  0  0  0  0  0  0  0  0
   11.2912  -14.7884   16.8335 N   0  0  0  0  0  0  0  0  0  0  0  0
   10.5644  -14.5531   18.0592 C   0  0  1  0  0  0  0  0  0  0  0  0
    9.0847  -14.3884   17.8202 C   0  0  0  0  0  0  0  0  0  0  0  0
    8.3542  -14.1049   19.0973 C   0  0  0  0  0  0  0  0  0  0  0  0
    8.1669  -12.8746   19.6415 C   0  0  0  0  0  0  0  0  0  0  0  0
    7.4782  -13.0067   20.7776 N   0  0  0  0  0  0  0  0  0  0  0  0
    7.2443  -14.3165   20.9288 C   0  0  0  0  0  0  0  0  0  0  0  0
    7.7766  -14.9964   19.9058 N   0  0  0  0  0  0  0  0  0  0  0  0
   10.8912  -15.4854   19.1388 C   0  0  0  0  0  0  0  0  0  0  0  0
   11.1373  -16.7051   18.9995 O   0  0  0  0  0  0  0  0  0  0  0  0
   10.9510  -15.0040   20.5014 N   0  0  0  0  0  0  0  0  0  0  0  0
   11.1869  -15.8620   21.6307 C   0  0  1  0  0  0  0  0  0  0  0  0
   12.6124  -16.1987   21.8643 C   0  0  0  0  0  0  0  0  0  0  0  0
   13.6261  -15.1300   21.8417 C   0  0  0  0  0  0  0  0  0  0  0  0
   14.9989  -15.5658   22.0281 C   0  0  0  0  0  0  0  0  0  0  0  0
   15.6550  -15.3422   23.0537 O   0  0  0  0  0  0  0  0  0  0  0  0
   10.6728  -15.2488   22.8829 C   0  0  0  0  0  0  0  0  0  0  0  0
   10.2839  -14.0678   22.8660 O   0  0  0  0  0  0  0  0  0  0  0  0
   15.6673  -16.2911   21.0069 O   0  0  0  0  0  0  0  0  0  0  0  0
   10.6106  -15.9478   24.0814 O   0  0  0  0  0  0  0  0  0  0  0  0
  2  1  1  1
  2  7  1  0
  2  3  1  0
  4  3  1  0
  4  5  1  0
  5  6  2  0
  5  9  1  0
  7  8  2  0
 10 11  1  0
 10  7  1  0
 11 12  1  6
 12 13  1  0
 13 14  2  0
 14 15  1  0
 16 15  1  0
 17 13  1  0
 17 16  2  0
 18 20  1  0
 18 11  1  0
 19 18  2  0
 21 22  1  1
 21 20  1  0
 22 23  1  0
 23 24  1  0
 24 28  1  0
 24 25  2  0
 26 21  1  0
 27 26  2  0
 29 26  1  0
M  END
$$$$
