EHE.pdb
     RDKit          3D

 29 29  0  0  1  0  0  0  0  0999 V2000
   -4.5524  -28.9573   26.0879 N   0  0  0  0  0  0  0  0  0  0  0  0
   -3.5448  -28.5131   26.9686 C   0  0  1  0  0  0  0  0  0  0  0  0
   -2.5322  -27.5601   26.4590 C   0  0  0  0  0  0  0  0  0  0  0  0
   -2.9967  -26.6156   25.3983 C   0  0  0  0  0  0  0  0  0  0  0  0
   -3.2597  -25.2336   25.8205 C   0  0  0  0  0  0  0  0  0  0  0  0
   -3.5543  -24.8323   26.9584 O   0  0  0  0  0  0  0  0  0  0  0  0
   -4.1437  -28.0358   28.2731 C   0  0  0  0  0  0  0  0  0  0  0  0
   -4.6251  -28.8310   29.1020 O   0  0  0  0  0  0  0  0  0  0  0  0
   -3.1633  -24.2652   24.8102 O   0  0  0  0  0  0  0  0  0  0  0  0
   -4.1826  -26.6471   28.6086 N   0  0  0  0  0  0  0  0  0  0  0  0
   -4.7808  -26.1365   29.8200 C   0  0  1  0  0  0  0  0  0  0  0  0
   -3.8544  -25.2078   30.5639 C   0  0  0  0  0  0  0  0  0  0  0  0
   -2.7519  -25.9639   31.2403 C   0  0  0  0  0  0  0  0  0  0  0  0
   -2.5910  -27.3124   31.2163 C   0  0  0  0  0  0  0  0  0  0  0  0
   -1.5067  -27.6294   31.9278 N   0  0  0  0  0  0  0  0  0  0  0  0
   -1.0044  -26.4762   32.3871 C   0  0  0  0  0  0  0  0  0  0  0  0
   -1.7596  -25.4518   31.9718 N   0  0  0  0  0  0  0  0  0  0  0  0
   -6.1346  -25.6095   29.6445 C   0  0  0  0  0  0  0  0  0  0  0  0
   -6.6214  -25.1933   28.5686 O   0  0  0  0  0  0  0  0  0  0  0  0
   -7.0269  -25.5464   30.7810 N   0  0  0  0  0  0  0  0  0  0  0  0
   -8.4281  -25.2450   30.6672 C   0  0  1  0  0  0  0  0  0  0  0  0
   -9.1874  -26.1604   29.7809 C   0  0  0  0  0  0  0  0  0  0  0  0
   -9.3790  -25.8086   28.3632 C   0  0  0  0  0  0  0  0  0  0  0  0
  -10.1618  -26.7522   27.5848 C   0  0  0  0  0  0  0  0  0  0  0  0
  -11.3975  -26.8145   27.6256 O   0  0  0  0  0  0  0  0  0  0  0  0
   -9.0902  -25.2768   31.9972 C   0  0  0  0  0  0  0  0  0  0  0  0
   -8.5159  -25.8347   32.9487 O   0  0  0  0  0  0  0  0  0  0  0  0
   -9.5202  -27.6728   26.7151 O   0  0  0  0  0  0  0  0  0  0  0  0
  -10.3360  -24.7052   32.2208 O   0  0  0  0  0  0  0  0  0  0  0  0
  2  1  1  6
  2  7  1  0
  2  3  1  0
  4  3  1  0
  4  5  1  0
  5  6  2  0
  5  9  1  0
  7  8  2  0
 10 11  1  0
 10  7  1  0
 11 12  1  6
 12 13  1  0
 13 14  2  0
 14 15  1  0
 16 15  1  0
 17 13  1  0
 17 16  2  0
 18 20  1  0
 18 11  1  0
 19 18  2  0
 21 22  1  6
 21 20  1  0
 22 23  1  0
 23 24  1  0
 24 28  1  0
 24 25  2  0
 26 21  1  0
 27 26  2  0
 29 26  1  0
M  END
$$$$
