EHE.pdb
     RDKit          3D

 29 29  0  0  1  0  0  0  0  0999 V2000
   10.6975  -16.4067   19.6421 N   0  0  0  0  0  0  0  0  0  0  0  0
    9.6320  -16.7864   20.4841 C   0  0  1  0  0  0  0  0  0  0  0  0
    9.3856  -18.2303   20.7025 C   0  0  0  0  0  0  0  0  0  0  0  0
    9.7732  -19.1383   19.5808 C   0  0  0  0  0  0  0  0  0  0  0  0
    9.5164  -20.5708   19.7783 C   0  0  0  0  0  0  0  0  0  0  0  0
   10.3097  -21.4326   20.1913 O   0  0  0  0  0  0  0  0  0  0  0  0
    9.6877  -16.0323   21.7942 C   0  0  0  0  0  0  0  0  0  0  0  0
   10.7496  -15.9072   22.4328 O   0  0  0  0  0  0  0  0  0  0  0  0
    8.2200  -21.0013   19.4592 O   0  0  0  0  0  0  0  0  0  0  0  0
    8.5190  -15.4307   22.3553 N   0  0  0  0  0  0  0  0  0  0  0  0
    8.4616  -14.9017   23.6980 C   0  0  1  0  0  0  0  0  0  0  0  0
    7.1622  -14.1876   23.9728 C   0  0  0  0  0  0  0  0  0  0  0  0
    7.2110  -13.4483   25.2751 C   0  0  0  0  0  0  0  0  0  0  0  0
    8.2634  -13.4330   26.1336 C   0  0  0  0  0  0  0  0  0  0  0  0
    7.9487  -12.6755   27.1870 N   0  0  0  0  0  0  0  0  0  0  0  0
    6.7049  -12.2277   26.9736 C   0  0  0  0  0  0  0  0  0  0  0  0
    6.2452  -12.6955   25.8065 N   0  0  0  0  0  0  0  0  0  0  0  0
    8.8441  -15.8588   24.7368 C   0  0  0  0  0  0  0  0  0  0  0  0
    8.3576  -17.0023   24.8896 O   0  0  0  0  0  0  0  0  0  0  0  0
    9.8705  -15.5014   25.6911 N   0  0  0  0  0  0  0  0  0  0  0  0
   10.4786  -16.4481   26.5862 C   0  0  1  0  0  0  0  0  0  0  0  0
   11.9407  -16.6195   26.4048 C   0  0  0  0  0  0  0  0  0  0  0  0
   12.7012  -15.6190   25.6360 C   0  0  0  0  0  0  0  0  0  0  0  0
   13.9655  -16.0790   25.0892 C   0  0  0  0  0  0  0  0  0  0  0  0
   14.3780  -17.2407   25.2019 O   0  0  0  0  0  0  0  0  0  0  0  0
   10.2574  -16.0602   28.0035 C   0  0  0  0  0  0  0  0  0  0  0  0
    9.6716  -14.9930   28.2570 O   0  0  0  0  0  0  0  0  0  0  0  0
   14.8086  -15.1848   24.3784 O   0  0  0  0  0  0  0  0  0  0  0  0
   10.6842  -16.8478   29.0647 O   0  0  0  0  0  0  0  0  0  0  0  0
  2  1  1  1
  2  7  1  0
  2  3  1  0
  4  3  1  0
  4  5  1  0
  5  6  2  0
  5  9  1  0
  7  8  2  0
 10 11  1  0
 10  7  1  0
 11 12  1  1
 12 13  1  0
 13 14  2  0
 14 15  1  0
 16 15  1  0
 17 13  1  0
 17 16  2  0
 18 20  1  0
 18 11  1  0
 19 18  2  0
 21 22  1  6
 21 20  1  0
 22 23  1  0
 23 24  1  0
 24 28  1  0
 24 25  2  0
 26 21  1  0
 27 26  2  0
 29 26  1  0
M  END
$$$$
