EHE.pdb
     RDKit          3D

 29 29  0  0  1  0  0  0  0  0999 V2000
    8.5913  -15.7470   18.5498 N   0  0  0  0  0  0  0  0  0  0  0  0
    8.0152  -16.3104   19.7070 C   0  0  1  0  0  0  0  0  0  0  0  0
    8.0986  -17.7771   19.8941 C   0  0  0  0  0  0  0  0  0  0  0  0
    7.6561  -18.6116   18.7361 C   0  0  0  0  0  0  0  0  0  0  0  0
    7.7243  -20.0679   18.9137 C   0  0  0  0  0  0  0  0  0  0  0  0
    8.1464  -20.6917   19.9012 O   0  0  0  0  0  0  0  0  0  0  0  0
    8.4663  -15.5699   20.9466 C   0  0  0  0  0  0  0  0  0  0  0  0
    9.6728  -15.4113   21.2115 O   0  0  0  0  0  0  0  0  0  0  0  0
    7.2546  -20.8302   17.8337 O   0  0  0  0  0  0  0  0  0  0  0  0
    7.5224  -15.0209   21.8686 N   0  0  0  0  0  0  0  0  0  0  0  0
    7.8482  -14.6788   23.2335 C   0  0  1  0  0  0  0  0  0  0  0  0
    6.7147  -13.9659   23.9271 C   0  0  0  0  0  0  0  0  0  0  0  0
    7.1192  -13.4966   25.2913 C   0  0  0  0  0  0  0  0  0  0  0  0
    7.4812  -12.2277   25.6129 C   0  0  0  0  0  0  0  0  0  0  0  0
    7.7781  -12.1812   26.9137 N   0  0  0  0  0  0  0  0  0  0  0  0
    7.5982  -13.4205   27.3879 C   0  0  0  0  0  0  0  0  0  0  0  0
    7.1953  -14.2323   26.4026 N   0  0  0  0  0  0  0  0  0  0  0  0
    8.4186  -15.7814   24.0084 C   0  0  0  0  0  0  0  0  0  0  0  0
    7.9503  -16.9402   24.0815 O   0  0  0  0  0  0  0  0  0  0  0  0
    9.6293  -15.5650   24.7695 N   0  0  0  0  0  0  0  0  0  0  0  0
   10.3135  -16.6131   25.4769 C   0  0  1  0  0  0  0  0  0  0  0  0
   11.7864  -16.6178   25.3018 C   0  0  0  0  0  0  0  0  0  0  0  0
   12.6087  -17.5633   26.0765 C   0  0  0  0  0  0  0  0  0  0  0  0
   14.0361  -17.5119   25.8139 C   0  0  0  0  0  0  0  0  0  0  0  0
   14.5244  -17.5377   24.6766 O   0  0  0  0  0  0  0  0  0  0  0  0
   10.0480  -16.5328   26.9367 C   0  0  0  0  0  0  0  0  0  0  0  0
    9.7423  -15.4373   27.4394 O   0  0  0  0  0  0  0  0  0  0  0  0
   14.9614  -17.4267   26.8872 O   0  0  0  0  0  0  0  0  0  0  0  0
   10.1304  -17.6416   27.7690 O   0  0  0  0  0  0  0  0  0  0  0  0
  2  1  1  6
  2  7  1  0
  2  3  1  0
  4  3  1  0
  4  5  1  0
  5  6  2  0
  5  9  1  0
  7  8  2  0
 10 11  1  0
 10  7  1  0
 11 12  1  1
 12 13  1  0
 13 14  2  0
 14 15  1  0
 16 15  1  0
 17 13  1  0
 17 16  2  0
 18 20  1  0
 18 11  1  0
 19 18  2  0
 21 22  1  1
 21 20  1  0
 22 23  1  0
 23 24  1  0
 24 28  1  0
 24 25  2  0
 26 21  1  0
 27 26  2  0
 29 26  1  0
M  END
$$$$
