EHE.pdb
     RDKit          3D

 29 29  0  0  1  0  0  0  0  0999 V2000
   11.7618  -15.3946   14.9501 N   0  0  0  0  0  0  0  0  0  0  0  0
   11.4631  -16.2657   16.0180 C   0  0  1  0  0  0  0  0  0  0  0  0
   12.0620  -17.6201   16.0123 C   0  0  0  0  0  0  0  0  0  0  0  0
   13.0978  -17.8742   14.9656 C   0  0  0  0  0  0  0  0  0  0  0  0
   13.7830  -19.1720   15.0228 C   0  0  0  0  0  0  0  0  0  0  0  0
   13.7069  -20.1054   14.2069 O   0  0  0  0  0  0  0  0  0  0  0  0
   11.6720  -15.5761   17.3481 C   0  0  0  0  0  0  0  0  0  0  0  0
   12.6223  -14.7937   17.5376 O   0  0  0  0  0  0  0  0  0  0  0  0
   14.6170  -19.3656   16.1340 O   0  0  0  0  0  0  0  0  0  0  0  0
   10.7844  -15.7960   18.4464 N   0  0  0  0  0  0  0  0  0  0  0  0
   10.9967  -15.2460   19.7649 C   0  0  1  0  0  0  0  0  0  0  0  0
    9.6990  -14.9252   20.4629 C   0  0  0  0  0  0  0  0  0  0  0  0
    8.8028  -14.0965   19.5939 C   0  0  0  0  0  0  0  0  0  0  0  0
    8.6818  -12.7448   19.6490 C   0  0  0  0  0  0  0  0  0  0  0  0
    7.7932  -12.3544   18.7324 N   0  0  0  0  0  0  0  0  0  0  0  0
    7.3705  -13.4659   18.1168 C   0  0  0  0  0  0  0  0  0  0  0  0
    7.9825  -14.5368   18.6373 N   0  0  0  0  0  0  0  0  0  0  0  0
   11.9408  -16.0044   20.5864 C   0  0  0  0  0  0  0  0  0  0  0  0
   12.0000  -17.2526   20.6651 O   0  0  0  0  0  0  0  0  0  0  0  0
   12.9114  -15.2970   21.3922 N   0  0  0  0  0  0  0  0  0  0  0  0
   13.9027  -15.9602   22.1951 C   0  0  1  0  0  0  0  0  0  0  0  0
   15.2269  -15.2925   22.2189 C   0  0  0  0  0  0  0  0  0  0  0  0
   16.0179  -15.1997   20.9795 C   0  0  0  0  0  0  0  0  0  0  0  0
   17.3023  -14.5338   21.1054 C   0  0  0  0  0  0  0  0  0  0  0  0
   17.6895  -13.9838   22.1447 O   0  0  0  0  0  0  0  0  0  0  0  0
   13.4512  -16.0837   23.6054 C   0  0  0  0  0  0  0  0  0  0  0  0
   12.4303  -15.4757   23.9721 O   0  0  0  0  0  0  0  0  0  0  0  0
   18.1972  -14.4849   20.0043 O   0  0  0  0  0  0  0  0  0  0  0  0
   14.1309  -16.8561   24.5383 O   0  0  0  0  0  0  0  0  0  0  0  0
  2  1  1  6
  2  7  1  0
  2  3  1  0
  4  3  1  0
  4  5  1  0
  5  6  2  0
  5  9  1  0
  7  8  2  0
 10 11  1  0
 10  7  1  0
 11 12  1  1
 12 13  1  0
 13 14  2  0
 14 15  1  0
 16 15  1  0
 17 13  1  0
 17 16  2  0
 18 20  1  0
 18 11  1  0
 19 18  2  0
 21 22  1  1
 21 20  1  0
 22 23  1  0
 23 24  1  0
 24 28  1  0
 24 25  2  0
 26 21  1  0
 27 26  2  0
 29 26  1  0
M  END
$$$$
