EHE.pdb
     RDKit          3D

 29 29  0  0  1  0  0  0  0  0999 V2000
    9.2109  -18.4056   17.6165 N   0  0  0  0  0  0  0  0  0  0  0  0
   10.4874  -17.8069   17.5959 C   0  0  1  0  0  0  0  0  0  0  0  0
   10.9651  -17.2075   16.3286 C   0  0  0  0  0  0  0  0  0  0  0  0
   10.3333  -17.7281   15.0785 C   0  0  0  0  0  0  0  0  0  0  0  0
   10.7051  -17.0554   13.8269 C   0  0  0  0  0  0  0  0  0  0  0  0
    9.9483  -16.6663   12.9223 O   0  0  0  0  0  0  0  0  0  0  0  0
   10.6498  -16.8483   18.7548 C   0  0  0  0  0  0  0  0  0  0  0  0
   11.6947  -16.1909   18.9189 O   0  0  0  0  0  0  0  0  0  0  0  0
   12.0784  -16.8334   13.6460 O   0  0  0  0  0  0  0  0  0  0  0  0
    9.6068  -16.6579   19.7131 N   0  0  0  0  0  0  0  0  0  0  0  0
    9.7293  -15.7922   20.8627 C   0  0  1  0  0  0  0  0  0  0  0  0
    8.4646  -15.0142   21.1259 C   0  0  0  0  0  0  0  0  0  0  0  0
    8.0581  -14.2126   19.9271 C   0  0  0  0  0  0  0  0  0  0  0  0
    8.4495  -12.9396   19.6607 C   0  0  0  0  0  0  0  0  0  0  0  0
    7.8904  -12.5485   18.5131 N   0  0  0  0  0  0  0  0  0  0  0  0
    7.1574  -13.5810   18.0775 C   0  0  0  0  0  0  0  0  0  0  0  0
    7.2536  -14.6036   18.9362 N   0  0  0  0  0  0  0  0  0  0  0  0
   10.2821  -16.4458   22.0496 C   0  0  0  0  0  0  0  0  0  0  0  0
    9.8414  -17.4918   22.5780 O   0  0  0  0  0  0  0  0  0  0  0  0
   11.4392  -15.8747   22.7029 N   0  0  0  0  0  0  0  0  0  0  0  0
   12.3717  -16.6507   23.4745 C   0  0  1  0  0  0  0  0  0  0  0  0
   13.7718  -16.1636   23.4245 C   0  0  0  0  0  0  0  0  0  0  0  0
   14.7975  -16.8086   24.2623 C   0  0  0  0  0  0  0  0  0  0  0  0
   16.1308  -16.2408   24.1672 C   0  0  0  0  0  0  0  0  0  0  0  0
   16.7735  -15.8351   25.1444 O   0  0  0  0  0  0  0  0  0  0  0  0
   11.9752  -16.6918   24.9060 C   0  0  0  0  0  0  0  0  0  0  0  0
   11.1243  -15.8872   25.3242 O   0  0  0  0  0  0  0  0  0  0  0  0
   16.7737  -16.1241   22.9068 O   0  0  0  0  0  0  0  0  0  0  0  0
   12.5232  -17.5995   25.8030 O   0  0  0  0  0  0  0  0  0  0  0  0
  2  1  1  6
  2  7  1  0
  2  3  1  0
  4  3  1  0
  4  5  1  0
  5  6  2  0
  5  9  1  0
  7  8  2  0
 10 11  1  0
 10  7  1  0
 11 12  1  1
 12 13  1  0
 13 14  2  0
 14 15  1  0
 16 15  1  0
 17 13  1  0
 17 16  2  0
 18 20  1  0
 18 11  1  0
 19 18  2  0
 21 22  1  1
 21 20  1  0
 22 23  1  0
 23 24  1  0
 24 28  1  0
 24 25  2  0
 26 21  1  0
 27 26  2  0
 29 26  1  0
M  END
$$$$
