EHE.pdb
     RDKit          3D

 29 29  0  0  1  0  0  0  0  0999 V2000
   10.5169  -18.0708   17.6336 N   0  0  0  0  0  0  0  0  0  0  0  0
    9.5173  -18.3152   18.5976 C   0  0  1  0  0  0  0  0  0  0  0  0
    9.1828  -19.7199   18.9266 C   0  0  0  0  0  0  0  0  0  0  0  0
   10.0870  -20.7609   18.3507 C   0  0  0  0  0  0  0  0  0  0  0  0
   10.0777  -22.0740   19.0087 C   0  0  0  0  0  0  0  0  0  0  0  0
   10.8747  -22.5000   19.8607 O   0  0  0  0  0  0  0  0  0  0  0  0
    9.7659  -17.5003   19.8476 C   0  0  0  0  0  0  0  0  0  0  0  0
   10.8941  -17.4317   20.3706 O   0  0  0  0  0  0  0  0  0  0  0  0
    9.0423  -22.9367   18.6194 O   0  0  0  0  0  0  0  0  0  0  0  0
    8.7117  -16.7738   20.4827 N   0  0  0  0  0  0  0  0  0  0  0  0
    8.8850  -16.0224   21.7039 C   0  0  1  0  0  0  0  0  0  0  0  0
    7.7993  -14.9940   21.8977 C   0  0  0  0  0  0  0  0  0  0  0  0
    7.6371  -14.1361   20.6801 C   0  0  0  0  0  0  0  0  0  0  0  0
    8.1228  -12.8763   20.5334 C   0  0  0  0  0  0  0  0  0  0  0  0
    7.7840  -12.4223   19.3244 N   0  0  0  0  0  0  0  0  0  0  0  0
    7.0915  -13.4032   18.7317 C   0  0  0  0  0  0  0  0  0  0  0  0
    6.9962  -14.4557   19.5535 N   0  0  0  0  0  0  0  0  0  0  0  0
    9.1385  -16.8479   22.8853 C   0  0  0  0  0  0  0  0  0  0  0  0
    8.8437  -18.0588   23.0057 O   0  0  0  0  0  0  0  0  0  0  0  0
    9.7860  -16.2615   24.0380 N   0  0  0  0  0  0  0  0  0  0  0  0
   10.6696  -16.9946   24.9035 C   0  0  1  0  0  0  0  0  0  0  0  0
   12.0639  -17.1083   24.4108 C   0  0  0  0  0  0  0  0  0  0  0  0
   13.0646  -17.8287   25.2170 C   0  0  0  0  0  0  0  0  0  0  0  0
   14.3735  -17.9748   24.6050 C   0  0  0  0  0  0  0  0  0  0  0  0
   15.2759  -17.1338   24.7094 O   0  0  0  0  0  0  0  0  0  0  0  0
   10.7327  -16.3728   26.2516 C   0  0  0  0  0  0  0  0  0  0  0  0
   11.3958  -16.9268   27.1459 O   0  0  0  0  0  0  0  0  0  0  0  0
   14.6824  -19.1276   23.8361 O   0  0  0  0  0  0  0  0  0  0  0  0
   10.0735  -15.1887   26.5553 O   0  0  0  0  0  0  0  0  0  0  0  0
  2  1  1  6
  2  7  1  0
  2  3  1  0
  4  3  1  0
  4  5  1  0
  5  6  2  0
  5  9  1  0
  7  8  2  0
 10 11  1  0
 10  7  1  0
 11 12  1  1
 12 13  1  0
 13 14  2  0
 14 15  1  0
 16 15  1  0
 17 13  1  0
 17 16  2  0
 18 20  1  0
 18 11  1  0
 19 18  2  0
 21 22  1  6
 21 20  1  0
 22 23  1  0
 23 24  1  0
 24 28  1  0
 24 25  2  0
 26 21  1  0
 27 26  2  0
 29 26  1  0
M  END
$$$$
