EHE.pdb
     RDKit          3D

 29 29  0  0  1  0  0  0  0  0999 V2000
   10.0222  -16.4757   18.5964 N   0  0  0  0  0  0  0  0  0  0  0  0
    8.7828  -16.3724   19.2610 C   0  0  1  0  0  0  0  0  0  0  0  0
    7.8359  -17.5072   19.1681 C   0  0  0  0  0  0  0  0  0  0  0  0
    8.4459  -18.8533   18.9469 C   0  0  0  0  0  0  0  0  0  0  0  0
    7.5139  -19.9775   18.7898 C   0  0  0  0  0  0  0  0  0  0  0  0
    7.1097  -20.4839   17.7302 O   0  0  0  0  0  0  0  0  0  0  0  0
    8.9774  -15.9326   20.6952 C   0  0  0  0  0  0  0  0  0  0  0  0
   10.0320  -16.1678   21.3146 O   0  0  0  0  0  0  0  0  0  0  0  0
    7.0325  -20.5338   19.9843 O   0  0  0  0  0  0  0  0  0  0  0  0
    7.9545  -15.2271   21.4011 N   0  0  0  0  0  0  0  0  0  0  0  0
    8.0703  -14.8295   22.7848 C   0  0  1  0  0  0  0  0  0  0  0  0
    6.9028  -13.9876   23.2342 C   0  0  0  0  0  0  0  0  0  0  0  0
    7.0975  -13.4875   24.6331 C   0  0  0  0  0  0  0  0  0  0  0  0
    8.1817  -13.7324   25.4137 C   0  0  0  0  0  0  0  0  0  0  0  0
    8.0070  -13.1326   26.5936 N   0  0  0  0  0  0  0  0  0  0  0  0
    6.8170  -12.5214   26.5354 C   0  0  0  0  0  0  0  0  0  0  0  0
    6.2531  -12.7331   25.3399 N   0  0  0  0  0  0  0  0  0  0  0  0
    8.3989  -15.9246   23.6981 C   0  0  0  0  0  0  0  0  0  0  0  0
    7.7603  -16.9955   23.8123 O   0  0  0  0  0  0  0  0  0  0  0  0
    9.5535  -15.8094   24.5616 N   0  0  0  0  0  0  0  0  0  0  0  0
   10.0632  -16.9013   25.3459 C   0  0  1  0  0  0  0  0  0  0  0  0
   11.4008  -17.3893   24.9305 C   0  0  0  0  0  0  0  0  0  0  0  0
   12.4735  -16.4204   24.6462 C   0  0  0  0  0  0  0  0  0  0  0  0
   13.7083  -16.9867   24.1328 C   0  0  0  0  0  0  0  0  0  0  0  0
   14.6855  -16.3058   23.7953 O   0  0  0  0  0  0  0  0  0  0  0  0
   10.1617  -16.5271   26.7805 C   0  0  0  0  0  0  0  0  0  0  0  0
   10.5288  -17.3803   27.6073 O   0  0  0  0  0  0  0  0  0  0  0  0
   13.8502  -18.3923   23.9923 O   0  0  0  0  0  0  0  0  0  0  0  0
    9.8555  -15.2522   27.2386 O   0  0  0  0  0  0  0  0  0  0  0  0
  2  1  1  1
  2  7  1  0
  2  3  1  0
  4  3  1  0
  4  5  1  0
  5  6  2  0
  5  9  1  0
  7  8  2  0
 10 11  1  0
 10  7  1  0
 11 12  1  1
 12 13  1  0
 13 14  2  0
 14 15  1  0
 16 15  1  0
 17 13  1  0
 17 16  2  0
 18 20  1  0
 18 11  1  0
 19 18  2  0
 21 22  1  6
 21 20  1  0
 22 23  1  0
 23 24  1  0
 24 28  1  0
 24 25  2  0
 26 21  1  0
 27 26  2  0
 29 26  1  0
M  END
$$$$
