EHE.pdb
     RDKit          3D

 29 29  0  0  1  0  0  0  0  0999 V2000
   11.7146  -17.2952   18.0352 N   0  0  0  0  0  0  0  0  0  0  0  0
   12.6129  -16.8427   19.0235 C   0  0  1  0  0  0  0  0  0  0  0  0
   13.6941  -15.9138   18.6220 C   0  0  0  0  0  0  0  0  0  0  0  0
   13.2572  -14.6433   17.9678 C   0  0  0  0  0  0  0  0  0  0  0  0
   14.3185  -13.6976   17.5983 C   0  0  0  0  0  0  0  0  0  0  0  0
   14.6578  -12.6663   18.2015 O   0  0  0  0  0  0  0  0  0  0  0  0
   11.8653  -16.3284   20.2338 C   0  0  0  0  0  0  0  0  0  0  0  0
   12.4628  -15.9161   21.2458 O   0  0  0  0  0  0  0  0  0  0  0  0
   15.0222  -14.0083   16.4252 O   0  0  0  0  0  0  0  0  0  0  0  0
   10.4369  -16.2955   20.2660 N   0  0  0  0  0  0  0  0  0  0  0  0
    9.6753  -15.8741   21.4186 C   0  0  1  0  0  0  0  0  0  0  0  0
    8.3363  -15.2961   21.0351 C   0  0  0  0  0  0  0  0  0  0  0  0
    8.4789  -14.2455   19.9765 C   0  0  0  0  0  0  0  0  0  0  0  0
    8.7906  -12.9420   20.1968 C   0  0  0  0  0  0  0  0  0  0  0  0
    8.8272  -12.3040   19.0247 N   0  0  0  0  0  0  0  0  0  0  0  0
    8.5381  -13.2159   18.0877 C   0  0  0  0  0  0  0  0  0  0  0  0
    8.3233  -14.4067   18.6605 N   0  0  0  0  0  0  0  0  0  0  0  0
    9.6077  -16.8692   22.4894 C   0  0  0  0  0  0  0  0  0  0  0  0
    9.3145  -18.0778   22.3444 O   0  0  0  0  0  0  0  0  0  0  0  0
    9.8993  -16.4725   23.8494 N   0  0  0  0  0  0  0  0  0  0  0  0
   10.4764  -17.3596   24.8226 C   0  0  1  0  0  0  0  0  0  0  0  0
   11.9177  -17.6458   24.6204 C   0  0  0  0  0  0  0  0  0  0  0  0
   12.6013  -18.6031   25.5073 C   0  0  0  0  0  0  0  0  0  0  0  0
   14.0050  -18.8343   25.2150 C   0  0  0  0  0  0  0  0  0  0  0  0
   14.7794  -17.9480   24.8313 O   0  0  0  0  0  0  0  0  0  0  0  0
   10.3289  -16.8128   26.1964 C   0  0  0  0  0  0  0  0  0  0  0  0
   10.0178  -15.6180   26.3447 O   0  0  0  0  0  0  0  0  0  0  0  0
   14.5656  -20.1302   25.3628 O   0  0  0  0  0  0  0  0  0  0  0  0
   10.5281  -17.5893   27.3305 O   0  0  0  0  0  0  0  0  0  0  0  0
  2  1  1  6
  2  7  1  0
  2  3  1  0
  4  3  1  0
  4  5  1  0
  5  6  2  0
  5  9  1  0
  7  8  2  0
 10 11  1  0
 10  7  1  0
 11 12  1  6
 12 13  1  0
 13 14  2  0
 14 15  1  0
 16 15  1  0
 17 13  1  0
 17 16  2  0
 18 20  1  0
 18 11  1  0
 19 18  2  0
 21 22  1  6
 21 20  1  0
 22 23  1  0
 23 24  1  0
 24 28  1  0
 24 25  2  0
 26 21  1  0
 27 26  2  0
 29 26  1  0
M  END
$$$$
