EHE.pdb
     RDKit          3D

 29 29  0  0  1  0  0  0  0  0999 V2000
   11.5778  -14.0832   17.5219 N   0  0  0  0  0  0  0  0  0  0  0  0
   12.2204  -15.1097   18.2443 C   0  0  1  0  0  0  0  0  0  0  0  0
   13.6146  -14.8902   18.6929 C   0  0  0  0  0  0  0  0  0  0  0  0
   14.6177  -14.6365   17.6147 C   0  0  0  0  0  0  0  0  0  0  0  0
   16.0173  -14.5036   18.0396 C   0  0  0  0  0  0  0  0  0  0  0  0
   16.5289  -13.5711   18.6808 O   0  0  0  0  0  0  0  0  0  0  0  0
   11.3463  -15.5962   19.3790 C   0  0  0  0  0  0  0  0  0  0  0  0
   10.8708  -14.8120   20.2216 O   0  0  0  0  0  0  0  0  0  0  0  0
   16.8629  -15.5605   17.6709 O   0  0  0  0  0  0  0  0  0  0  0  0
   11.0298  -16.9816   19.5315 N   0  0  0  0  0  0  0  0  0  0  0  0
   10.2603  -17.5063   20.6354 C   0  0  1  0  0  0  0  0  0  0  0  0
    9.8994  -18.9571   20.4381 C   0  0  0  0  0  0  0  0  0  0  0  0
    8.9930  -19.4463   21.5262 C   0  0  0  0  0  0  0  0  0  0  0  0
    8.5582  -18.7089   22.5806 C   0  0  0  0  0  0  0  0  0  0  0  0
    7.7726  -19.4715   23.3446 N   0  0  0  0  0  0  0  0  0  0  0  0
    7.7266  -20.6746   22.7585 C   0  0  0  0  0  0  0  0  0  0  0  0
    8.4704  -20.6689   21.6455 N   0  0  0  0  0  0  0  0  0  0  0  0
   10.8219  -17.2082   21.9534 C   0  0  0  0  0  0  0  0  0  0  0  0
   12.0372  -17.2416   22.2528 O   0  0  0  0  0  0  0  0  0  0  0  0
    9.9384  -16.8344   23.0358 N   0  0  0  0  0  0  0  0  0  0  0  0
   10.4087  -16.3678   24.3117 C   0  0  1  0  0  0  0  0  0  0  0  0
    9.4028  -15.6215   25.1062 C   0  0  0  0  0  0  0  0  0  0  0  0
    7.9694  -15.9015   24.9137 C   0  0  0  0  0  0  0  0  0  0  0  0
    7.0637  -15.1286   25.7452 C   0  0  0  0  0  0  0  0  0  0  0  0
    7.4402  -14.2661   26.5494 O   0  0  0  0  0  0  0  0  0  0  0  0
   10.8776  -17.4990   25.1536 C   0  0  0  0  0  0  0  0  0  0  0  0
   11.4649  -17.2580   26.2228 O   0  0  0  0  0  0  0  0  0  0  0  0
    5.6616  -15.3373   25.6668 O   0  0  0  0  0  0  0  0  0  0  0  0
   10.6859  -18.8254   24.7895 O   0  0  0  0  0  0  0  0  0  0  0  0
  2  1  1  1
  2  7  1  0
  2  3  1  0
  4  3  1  0
  4  5  1  0
  5  6  2  0
  5  9  1  0
  7  8  2  0
 10 11  1  0
 10  7  1  0
 11 12  1  6
 12 13  1  0
 13 14  2  0
 14 15  1  0
 16 15  1  0
 17 13  1  0
 17 16  2  0
 18 20  1  0
 18 11  1  0
 19 18  2  0
 21 22  1  1
 21 20  1  0
 22 23  1  0
 23 24  1  0
 24 28  1  0
 24 25  2  0
 26 21  1  0
 27 26  2  0
 29 26  1  0
M  END
$$$$
