EHE.pdb
     RDKit          3D

 29 29  0  0  1  0  0  0  0  0999 V2000
    9.4470  -18.8384   17.3132 N   0  0  0  0  0  0  0  0  0  0  0  0
   10.4262  -17.8387   17.1401 C   0  0  1  0  0  0  0  0  0  0  0  0
   10.4332  -17.0697   15.8745 C   0  0  0  0  0  0  0  0  0  0  0  0
    9.0996  -16.8361   15.2423 C   0  0  0  0  0  0  0  0  0  0  0  0
    9.0973  -16.1083   13.9665 C   0  0  0  0  0  0  0  0  0  0  0  0
   10.0786  -15.7849   13.2772 O   0  0  0  0  0  0  0  0  0  0  0  0
   10.4764  -16.9221   18.3425 C   0  0  0  0  0  0  0  0  0  0  0  0
   11.3007  -15.9920   18.4225 O   0  0  0  0  0  0  0  0  0  0  0  0
    7.8324  -15.7423   13.4828 O   0  0  0  0  0  0  0  0  0  0  0  0
    9.5768  -17.0874   19.4406 N   0  0  0  0  0  0  0  0  0  0  0  0
    9.6184  -16.2749   20.6340 C   0  0  1  0  0  0  0  0  0  0  0  0
    8.3010  -15.5922   20.9033 C   0  0  0  0  0  0  0  0  0  0  0  0
    7.9832  -14.5826   19.8429 C   0  0  0  0  0  0  0  0  0  0  0  0
    7.1035  -14.7607   18.8236 C   0  0  0  0  0  0  0  0  0  0  0  0
    7.0811  -13.6548   18.0760 N   0  0  0  0  0  0  0  0  0  0  0  0
    7.9463  -12.8006   18.6370 C   0  0  0  0  0  0  0  0  0  0  0  0
    8.5033  -13.3595   19.7185 N   0  0  0  0  0  0  0  0  0  0  0  0
   10.1858  -16.9515   21.8009 C   0  0  0  0  0  0  0  0  0  0  0  0
    9.7858  -18.0366   22.2807 O   0  0  0  0  0  0  0  0  0  0  0  0
   11.3088  -16.3575   22.4921 N   0  0  0  0  0  0  0  0  0  0  0  0
   11.9228  -16.9472   23.6507 C   0  0  1  0  0  0  0  0  0  0  0  0
   13.3111  -16.4953   23.9123 C   0  0  0  0  0  0  0  0  0  0  0  0
   14.3396  -16.6623   22.8709 C   0  0  0  0  0  0  0  0  0  0  0  0
   15.6521  -16.1332   23.1973 C   0  0  0  0  0  0  0  0  0  0  0  0
   15.9161  -15.5686   24.2669 O   0  0  0  0  0  0  0  0  0  0  0  0
   11.1329  -16.6617   24.8765 C   0  0  0  0  0  0  0  0  0  0  0  0
   10.1822  -15.8625   24.8143 O   0  0  0  0  0  0  0  0  0  0  0  0
   16.7227  -16.2459   22.2717 O   0  0  0  0  0  0  0  0  0  0  0  0
   11.4179  -17.2555   26.0992 O   0  0  0  0  0  0  0  0  0  0  0  0
  2  1  1  1
  2  7  1  0
  2  3  1  0
  4  3  1  0
  4  5  1  0
  5  6  2  0
  5  9  1  0
  7  8  2  0
 10 11  1  0
 10  7  1  0
 11 12  1  1
 12 13  1  0
 13 14  2  0
 14 15  1  0
 16 15  1  0
 17 13  1  0
 17 16  2  0
 18 20  1  0
 18 11  1  0
 19 18  2  0
 21 22  1  1
 21 20  1  0
 22 23  1  0
 23 24  1  0
 24 28  1  0
 24 25  2  0
 26 21  1  0
 27 26  2  0
 29 26  1  0
M  END
$$$$
