EHE.pdb
     RDKit          3D

 29 29  0  0  1  0  0  0  0  0999 V2000
    9.4327  -18.9067   17.6337 N   0  0  0  0  0  0  0  0  0  0  0  0
   10.5633  -18.0746   17.5006 C   0  0  1  0  0  0  0  0  0  0  0  0
   10.8216  -17.4400   16.1877 C   0  0  0  0  0  0  0  0  0  0  0  0
    9.6136  -17.0604   15.3944 C   0  0  0  0  0  0  0  0  0  0  0  0
    9.8552  -16.5198   14.0503 C   0  0  0  0  0  0  0  0  0  0  0  0
   10.9342  -16.1326   13.5723 O   0  0  0  0  0  0  0  0  0  0  0  0
   10.6202  -17.0622   18.6231 C   0  0  0  0  0  0  0  0  0  0  0  0
   11.5606  -16.2523   18.7270 O   0  0  0  0  0  0  0  0  0  0  0  0
    8.7266  -16.4370   13.2212 O   0  0  0  0  0  0  0  0  0  0  0  0
    9.5933  -16.9941   19.6148 N   0  0  0  0  0  0  0  0  0  0  0  0
    9.6173  -16.0700   20.7245 C   0  0  1  0  0  0  0  0  0  0  0  0
    8.3296  -15.2950   20.8471 C   0  0  0  0  0  0  0  0  0  0  0  0
    8.0494  -14.5033   19.6063 C   0  0  0  0  0  0  0  0  0  0  0  0
    8.3840  -13.2017   19.4097 C   0  0  0  0  0  0  0  0  0  0  0  0
    7.9751  -12.8310   18.1941 N   0  0  0  0  0  0  0  0  0  0  0  0
    7.3907  -13.9045   17.6471 C   0  0  0  0  0  0  0  0  0  0  0  0
    7.4311  -14.9324   18.5038 N   0  0  0  0  0  0  0  0  0  0  0  0
   10.0796  -16.6560   21.9832 C   0  0  0  0  0  0  0  0  0  0  0  0
    9.5556  -17.6300   22.5701 O   0  0  0  0  0  0  0  0  0  0  0  0
   11.2400  -16.0999   22.6437 N   0  0  0  0  0  0  0  0  0  0  0  0
   11.8620  -16.7077   23.7886 C   0  0  1  0  0  0  0  0  0  0  0  0
   13.2824  -16.3324   23.9926 C   0  0  0  0  0  0  0  0  0  0  0  0
   14.3441  -17.1200   23.3424 C   0  0  0  0  0  0  0  0  0  0  0  0
   15.6578  -16.5011   23.3203 C   0  0  0  0  0  0  0  0  0  0  0  0
   16.7094  -17.1191   23.5312 O   0  0  0  0  0  0  0  0  0  0  0  0
   11.1354  -16.3602   25.0374 C   0  0  0  0  0  0  0  0  0  0  0  0
   10.2437  -15.4943   25.0007 O   0  0  0  0  0  0  0  0  0  0  0  0
   15.7942  -15.1148   23.0463 O   0  0  0  0  0  0  0  0  0  0  0  0
   11.4166  -16.9678   26.2542 O   0  0  0  0  0  0  0  0  0  0  0  0
  2  1  1  6
  2  7  1  0
  2  3  1  0
  4  3  1  0
  4  5  1  0
  5  6  2  0
  5  9  1  0
  7  8  2  0
 10 11  1  0
 10  7  1  0
 11 12  1  1
 12 13  1  0
 13 14  2  0
 14 15  1  0
 16 15  1  0
 17 13  1  0
 17 16  2  0
 18 20  1  0
 18 11  1  0
 19 18  2  0
 21 22  1  1
 21 20  1  0
 22 23  1  0
 23 24  1  0
 24 28  1  0
 24 25  2  0
 26 21  1  0
 27 26  2  0
 29 26  1  0
M  END
$$$$
