PAN.pdb
     RDKit          3D

 21 21  0  0  1  0  0  0  0  0999 V2000
    8.1213  -15.3036   18.6746 N   0  0  0  0  0  0  0  0  0  0  0  0
    7.7226  -14.9871   17.3203 C   0  0  0  0  0  0  0  0  0  0  0  0
    7.9124  -13.4993   17.1173 C   0  0  0  0  0  0  0  0  0  0  0  0
    8.0689  -13.0063   18.5663 C   0  0  0  0  0  0  0  0  0  0  0  0
    8.8461  -14.1645   19.1246 C   0  0  1  0  0  0  0  0  0  0  0  0
    9.0935  -14.1200   20.5607 C   0  0  0  0  0  0  0  0  0  0  0  0
   10.0002  -13.3616   20.9972 O   0  0  0  0  0  0  0  0  0  0  0  0
    7.3374  -14.9388   23.6894 C   0  0  0  0  0  0  0  0  0  0  0  0
    8.6486  -14.8018   22.9458 C   0  0  2  0  0  0  0  0  0  0  0  0
    8.3863  -14.8738   21.5327 N   0  0  0  0  0  0  0  0  0  0  0  0
    9.6243  -15.8692   23.3708 C   0  0  0  0  0  0  0  0  0  0  0  0
    9.9588  -16.0098   24.5646 O   0  0  0  0  0  0  0  0  0  0  0  0
    8.4667  -18.7453   22.8172 N   0  0  0  0  0  0  0  0  0  0  0  0
    9.3645  -19.4178   21.9482 C   0  0  0  0  0  0  0  0  0  0  0  0
    8.9424  -20.4205   21.3209 O   0  0  0  0  0  0  0  0  0  0  0  0
   10.7606  -18.9805   21.7616 C   0  0  0  0  0  0  0  0  0  0  0  0
   11.1031  -17.8175   22.6923 C   0  0  2  0  0  0  0  0  0  0  0  0
   10.1820  -16.7409   22.4013 N   0  0  0  0  0  0  0  0  0  0  0  0
   12.5050  -17.4461   22.4864 C   0  0  0  0  0  0  0  0  0  0  0  0
   12.7751  -16.3590   21.9217 O   0  0  0  0  0  0  0  0  0  0  0  0
   13.5639  -18.2391   22.8859 O   0  0  0  0  0  0  0  0  0  0  0  0
  2  1  1  0
  3  4  1  0
  3  2  1  0
  4  5  1  0
  5  1  1  0
  6 10  1  0
  5  6  1  1
  7  6  2  0
  9  8  1  1
  9 10  1  0
  9 11  1  0
 11 12  2  0
 11 18  1  0
 14 13  1  0
 14 16  1  0
 15 14  2  0
 17 16  1  6
 17 19  1  0
 18 17  1  0
 19 21  1  0
 20 19  2  0
M  END
$$$$
