PAN.pdb
     RDKit          3D

 21 21  0  0  1  0  0  0  0  0999 V2000
   13.9813  -23.5369   24.5138 N   0  0  0  0  0  0  0  0  0  0  0  0
   14.1899  -24.9683   24.4835 C   0  0  0  0  0  0  0  0  0  0  0  0
   13.6645  -25.5405   25.7824 C   0  0  0  0  0  0  0  0  0  0  0  0
   13.5226  -24.2738   26.6441 C   0  0  0  0  0  0  0  0  0  0  0  0
   13.0647  -23.3173   25.5801 C   0  0  1  0  0  0  0  0  0  0  0  0
   12.9311  -21.9277   26.0008 C   0  0  0  0  0  0  0  0  0  0  0  0
   13.8499  -21.1152   25.7123 O   0  0  0  0  0  0  0  0  0  0  0  0
   10.3437  -19.5218   26.8758 C   0  0  0  0  0  0  0  0  0  0  0  0
   11.7431  -20.0272   27.1534 C   0  0  2  0  0  0  0  0  0  0  0  0
   11.8314  -21.3979   26.7240 N   0  0  0  0  0  0  0  0  0  0  0  0
   12.0850  -19.8945   28.6154 C   0  0  0  0  0  0  0  0  0  0  0  0
   12.0812  -18.7862   29.1885 O   0  0  0  0  0  0  0  0  0  0  0  0
   10.9508  -24.3017   30.5848 N   0  0  0  0  0  0  0  0  0  0  0  0
   11.2162  -23.0001   31.0837 C   0  0  0  0  0  0  0  0  0  0  0  0
   10.2391  -22.2635   31.3663 O   0  0  0  0  0  0  0  0  0  0  0  0
   12.5872  -22.4925   31.2781 C   0  0  0  0  0  0  0  0  0  0  0  0
   12.7168  -21.0519   30.7843 C   0  0  2  0  0  0  0  0  0  0  0  0
   12.4198  -21.0482   29.3687 N   0  0  0  0  0  0  0  0  0  0  0  0
   14.0653  -20.5683   31.0900 C   0  0  0  0  0  0  0  0  0  0  0  0
   14.9378  -20.5729   30.1887 O   0  0  0  0  0  0  0  0  0  0  0  0
   14.4363  -20.0999   32.3360 O   0  0  0  0  0  0  0  0  0  0  0  0
  2  1  1  0
  3  4  1  0
  3  2  1  0
  4  5  1  0
  5  1  1  0
  6 10  1  0
  5  6  1  1
  7  6  2  0
  9  8  1  1
  9 10  1  0
  9 11  1  0
 11 12  2  0
 11 18  1  0
 14 13  1  0
 14 16  1  0
 15 14  2  0
 17 16  1  6
 17 19  1  0
 18 17  1  0
 19 21  1  0
 20 19  2  0
M  END
$$$$
