PAN.pdb
     RDKit          3D

 21 21  0  0  1  0  0  0  0  0999 V2000
    9.1170  -14.0293   18.7499 N   0  0  0  0  0  0  0  0  0  0  0  0
    8.7202  -12.8592   17.9970 C   0  0  0  0  0  0  0  0  0  0  0  0
    7.4666  -12.3009   18.6353 C   0  0  0  0  0  0  0  0  0  0  0  0
    7.0247  -13.4736   19.5280 C   0  0  0  0  0  0  0  0  0  0  0  0
    8.3781  -13.9583   19.9642 C   0  0  1  0  0  0  0  0  0  0  0  0
    8.3807  -15.1806   20.7590 C   0  0  0  0  0  0  0  0  0  0  0  0
    7.8493  -15.1629   21.9014 O   0  0  0  0  0  0  0  0  0  0  0  0
    8.7486  -18.8057   20.2329 C   0  0  0  0  0  0  0  0  0  0  0  0
    8.9132  -17.6127   21.1497 C   0  0  2  0  0  0  0  0  0  0  0  0
    8.9427  -16.4173   20.3492 N   0  0  0  0  0  0  0  0  0  0  0  0
   10.1644  -17.7390   21.9808 C   0  0  0  0  0  0  0  0  0  0  0  0
   10.4062  -18.7679   22.6440 O   0  0  0  0  0  0  0  0  0  0  0  0
   13.6123  -14.5447   20.0629 N   0  0  0  0  0  0  0  0  0  0  0  0
   13.5308  -15.6375   20.9644 C   0  0  0  0  0  0  0  0  0  0  0  0
   13.8017  -16.7846   20.5309 O   0  0  0  0  0  0  0  0  0  0  0  0
   13.1427  -15.4693   22.3773 C   0  0  0  0  0  0  0  0  0  0  0  0
   12.2768  -16.6352   22.8537 C   0  0  2  0  0  0  0  0  0  0  0  0
   11.0968  -16.6714   22.0179 N   0  0  0  0  0  0  0  0  0  0  0  0
   11.9701  -16.4452   24.2734 C   0  0  0  0  0  0  0  0  0  0  0  0
   12.8859  -16.5723   25.1213 O   0  0  0  0  0  0  0  0  0  0  0  0
   10.7080  -16.1289   24.7387 O   0  0  0  0  0  0  0  0  0  0  0  0
  2  1  1  0
  3  4  1  0
  3  2  1  0
  4  5  1  0
  5  1  1  0
  6 10  1  0
  5  6  1  6
  7  6  2  0
  9  8  1  6
  9 10  1  0
  9 11  1  0
 11 12  2  0
 11 18  1  0
 14 13  1  0
 14 16  1  0
 15 14  2  0
 17 16  1  6
 17 19  1  0
 18 17  1  0
 19 21  1  0
 20 19  2  0
M  END
$$$$
