PAN.pdb
     RDKit          3D

 21 21  0  0  1  0  0  0  0  0999 V2000
    8.0179  -17.2706   17.2255 N   0  0  0  0  0  0  0  0  0  0  0  0
    7.2502  -18.2446   16.4803 C   0  0  0  0  0  0  0  0  0  0  0  0
    6.1689  -18.7795   17.3942 C   0  0  0  0  0  0  0  0  0  0  0  0
    6.6642  -18.3049   18.7713 C   0  0  0  0  0  0  0  0  0  0  0  0
    7.2273  -16.9711   18.3704 C   0  0  1  0  0  0  0  0  0  0  0  0
    7.9214  -16.2406   19.4241 C   0  0  0  0  0  0  0  0  0  0  0  0
    9.1528  -16.4462   19.5953 O   0  0  0  0  0  0  0  0  0  0  0  0
    7.1013  -13.5926   21.9693 C   0  0  0  0  0  0  0  0  0  0  0  0
    8.0152  -14.6379   21.3668 C   0  0  2  0  0  0  0  0  0  0  0  0
    7.3176  -15.2964   20.2942 N   0  0  0  0  0  0  0  0  0  0  0  0
    8.4636  -15.6290   22.4102 C   0  0  0  0  0  0  0  0  0  0  0  0
    7.7081  -16.5346   22.8175 O   0  0  0  0  0  0  0  0  0  0  0  0
   11.6811  -18.6168   25.0603 N   0  0  0  0  0  0  0  0  0  0  0  0
   12.4367  -17.6577   24.3374 C   0  0  0  0  0  0  0  0  0  0  0  0
   13.6597  -17.8799   24.1581 O   0  0  0  0  0  0  0  0  0  0  0  0
   11.8371  -16.4234   23.7969 C   0  0  0  0  0  0  0  0  0  0  0  0
   10.3160  -16.4387   23.9451 C   0  0  2  0  0  0  0  0  0  0  0  0
    9.7722  -15.5416   22.9493 N   0  0  0  0  0  0  0  0  0  0  0  0
    9.9720  -16.0529   25.3156 C   0  0  0  0  0  0  0  0  0  0  0  0
    9.7957  -14.8406   25.5858 O   0  0  0  0  0  0  0  0  0  0  0  0
    9.8287  -16.9642   26.3445 O   0  0  0  0  0  0  0  0  0  0  0  0
  2  1  1  0
  3  4  1  0
  3  2  1  0
  4  5  1  0
  5  1  1  0
  6 10  1  0
  5  6  1  1
  7  6  2  0
  9  8  1  1
  9 10  1  0
  9 11  1  0
 11 12  2  0
 11 18  1  0
 14 13  1  0
 14 16  1  0
 15 14  2  0
 17 16  1  1
 17 19  1  0
 18 17  1  0
 19 21  1  0
 20 19  2  0
M  END
$$$$
