PAN.pdb
     RDKit          3D

 21 21  0  0  1  0  0  0  0  0999 V2000
    8.8386  -13.5557   19.7332 N   0  0  0  0  0  0  0  0  0  0  0  0
    8.1957  -13.7296   18.4487 C   0  0  0  0  0  0  0  0  0  0  0  0
    6.8393  -14.3558   18.6906 C   0  0  0  0  0  0  0  0  0  0  0  0
    6.9790  -14.8467   20.1421 C   0  0  0  0  0  0  0  0  0  0  0  0
    7.8003  -13.7159   20.6933 C   0  0  1  0  0  0  0  0  0  0  0  0
    8.2540  -13.8824   22.0688 C   0  0  0  0  0  0  0  0  0  0  0  0
    9.4333  -14.2752   22.2757 O   0  0  0  0  0  0  0  0  0  0  0  0
    6.8344  -13.4463   25.5291 C   0  0  0  0  0  0  0  0  0  0  0  0
    7.9041  -13.9113   24.5645 C   0  0  2  0  0  0  0  0  0  0  0  0
    7.4653  -13.6351   23.2221 N   0  0  0  0  0  0  0  0  0  0  0  0
    8.1956  -15.3787   24.7480 C   0  0  0  0  0  0  0  0  0  0  0  0
    7.3688  -16.2542   24.4209 O   0  0  0  0  0  0  0  0  0  0  0  0
   10.2042  -17.7588   22.8314 N   0  0  0  0  0  0  0  0  0  0  0  0
   11.3569  -17.6292   23.6486 C   0  0  0  0  0  0  0  0  0  0  0  0
   12.4823  -17.7921   23.1155 O   0  0  0  0  0  0  0  0  0  0  0  0
   11.2747  -17.3128   25.0867 C   0  0  0  0  0  0  0  0  0  0  0  0
    9.8215  -17.1615   25.5357 C   0  0  2  0  0  0  0  0  0  0  0  0
    9.4346  -15.7873   25.3034 N   0  0  0  0  0  0  0  0  0  0  0  0
    9.7191  -17.5577   26.9422 C   0  0  0  0  0  0  0  0  0  0  0  0
    9.9053  -18.7578   27.2567 O   0  0  0  0  0  0  0  0  0  0  0  0
    9.4239  -16.6692   27.9586 O   0  0  0  0  0  0  0  0  0  0  0  0
  2  1  1  0
  3  4  1  0
  3  2  1  0
  4  5  1  0
  5  1  1  0
  6 10  1  0
  5  6  1  1
  7  6  2  0
  9  8  1  1
  9 10  1  0
  9 11  1  0
 11 12  2  0
 11 18  1  0
 14 13  1  0
 14 16  1  0
 15 14  2  0
 17 16  1  1
 17 19  1  0
 18 17  1  0
 19 21  1  0
 20 19  2  0
M  END
$$$$
