PAN.pdb
     RDKit          3D

 21 21  0  0  1  0  0  0  0  0999 V2000
    7.4547  -14.7083   20.7016 N   0  0  0  0  0  0  0  0  0  0  0  0
    7.3324  -14.4543   19.2825 C   0  0  0  0  0  0  0  0  0  0  0  0
    7.9880  -13.1213   18.9924 C   0  0  0  0  0  0  0  0  0  0  0  0
    8.1163  -12.5252   20.4050 C   0  0  0  0  0  0  0  0  0  0  0  0
    8.4336  -13.7835   21.1619 C   0  0  1  0  0  0  0  0  0  0  0  0
    8.5130  -13.6411   22.6107 C   0  0  0  0  0  0  0  0  0  0  0  0
    9.6141  -13.3147   23.1291 O   0  0  0  0  0  0  0  0  0  0  0  0
    6.2123  -13.0660   25.4225 C   0  0  0  0  0  0  0  0  0  0  0  0
    7.5265  -13.6326   24.9298 C   0  0  2  0  0  0  0  0  0  0  0  0
    7.4336  -13.8428   23.5093 N   0  0  0  0  0  0  0  0  0  0  0  0
    7.8639  -14.9151   25.6463 C   0  0  0  0  0  0  0  0  0  0  0  0
    7.9372  -14.9675   26.8908 O   0  0  0  0  0  0  0  0  0  0  0  0
    6.1351  -17.9484   22.8048 N   0  0  0  0  0  0  0  0  0  0  0  0
    6.4964  -18.1159   24.1667 C   0  0  0  0  0  0  0  0  0  0  0  0
    5.6066  -17.9595   25.0391 O   0  0  0  0  0  0  0  0  0  0  0  0
    7.8676  -18.4638   24.5838 C   0  0  0  0  0  0  0  0  0  0  0  0
    8.4661  -17.3748   25.4737 C   0  0  2  0  0  0  0  0  0  0  0  0
    8.1054  -16.0967   24.9006 N   0  0  0  0  0  0  0  0  0  0  0  0
    9.9142  -17.5786   25.5587 C   0  0  0  0  0  0  0  0  0  0  0  0
   10.6851  -16.7024   25.0986 O   0  0  0  0  0  0  0  0  0  0  0  0
   10.4880  -18.7002   26.1264 O   0  0  0  0  0  0  0  0  0  0  0  0
  2  1  1  0
  3  4  1  0
  3  2  1  0
  4  5  1  0
  5  1  1  0
  6 10  1  0
  5  6  1  1
  7  6  2  0
  9  8  1  1
  9 10  1  0
  9 11  1  0
 11 12  2  0
 11 18  1  0
 14 13  1  0
 14 16  1  0
 15 14  2  0
 17 16  1  6
 17 19  1  0
 18 17  1  0
 19 21  1  0
 20 19  2  0
M  END
$$$$
