PAN.pdb
     RDKit          3D

 21 21  0  0  1  0  0  0  0  0999 V2000
    7.7769  -15.2410   19.1016 N   0  0  0  0  0  0  0  0  0  0  0  0
    7.3516  -14.7700   17.8014 C   0  0  0  0  0  0  0  0  0  0  0  0
    7.8027  -13.3323   17.6593 C   0  0  0  0  0  0  0  0  0  0  0  0
    8.1492  -12.9710   19.1141 C   0  0  0  0  0  0  0  0  0  0  0  0
    8.7320  -14.2855   19.5491 C   0  0  1  0  0  0  0  0  0  0  0  0
    9.0824  -14.3800   20.9612 C   0  0  0  0  0  0  0  0  0  0  0  0
   10.2561  -14.0896   21.3161 O   0  0  0  0  0  0  0  0  0  0  0  0
    7.3465  -14.9295   24.2335 C   0  0  0  0  0  0  0  0  0  0  0  0
    8.5905  -14.9291   23.3712 C   0  0  2  0  0  0  0  0  0  0  0  0
    8.1968  -14.7799   21.9951 N   0  0  0  0  0  0  0  0  0  0  0  0
    9.3874  -16.1925   23.5727 C   0  0  0  0  0  0  0  0  0  0  0  0
    9.0244  -17.2790   23.0780 O   0  0  0  0  0  0  0  0  0  0  0  0
   13.6399  -15.0224   22.9842 N   0  0  0  0  0  0  0  0  0  0  0  0
   13.1386  -16.3358   23.1770 C   0  0  0  0  0  0  0  0  0  0  0  0
   12.9290  -17.0447   22.1618 O   0  0  0  0  0  0  0  0  0  0  0  0
   12.8598  -16.8868   24.5163 C   0  0  0  0  0  0  0  0  0  0  0  0
   11.3975  -17.3128   24.6437 C   0  0  2  0  0  0  0  0  0  0  0  0
   10.5796  -16.1593   24.3396 N   0  0  0  0  0  0  0  0  0  0  0  0
   11.1748  -17.8356   25.9938 C   0  0  0  0  0  0  0  0  0  0  0  0
   11.7980  -18.8587   26.3662 O   0  0  0  0  0  0  0  0  0  0  0  0
   10.3024  -17.2556   26.8950 O   0  0  0  0  0  0  0  0  0  0  0  0
  2  1  1  0
  3  4  1  0
  3  2  1  0
  4  5  1  0
  5  1  1  0
  6 10  1  0
  5  6  1  1
  7  6  2  0
  9  8  1  1
  9 10  1  0
  9 11  1  0
 11 12  2  0
 11 18  1  0
 14 13  1  0
 14 16  1  0
 15 14  2  0
 17 16  1  1
 17 19  1  0
 18 17  1  0
 19 21  1  0
 20 19  2  0
M  END
$$$$
