PAN.pdb
     RDKit          3D

 21 21  0  0  1  0  0  0  0  0999 V2000
    7.5777  -15.2313   19.5499 N   0  0  0  0  0  0  0  0  0  0  0  0
    6.9746  -14.6784   18.3566 C   0  0  0  0  0  0  0  0  0  0  0  0
    7.2876  -13.1980   18.3227 C   0  0  0  0  0  0  0  0  0  0  0  0
    7.7613  -12.9484   19.7651 C   0  0  0  0  0  0  0  0  0  0  0  0
    8.4945  -14.2389   19.9971 C   0  0  1  0  0  0  0  0  0  0  0  0
    9.0049  -14.4364   21.3485 C   0  0  0  0  0  0  0  0  0  0  0  0
   10.2454  -14.3421   21.5486 O   0  0  0  0  0  0  0  0  0  0  0  0
    7.5866  -14.6977   24.8016 C   0  0  0  0  0  0  0  0  0  0  0  0
    8.7310  -14.8392   23.8212 C   0  0  2  0  0  0  0  0  0  0  0  0
    8.2083  -14.7326   22.4847 N   0  0  0  0  0  0  0  0  0  0  0  0
    9.4519  -16.1483   24.0181 C   0  0  0  0  0  0  0  0  0  0  0  0
    9.0046  -17.2160   23.5526 O   0  0  0  0  0  0  0  0  0  0  0  0
   14.0261  -15.2979   23.6313 N   0  0  0  0  0  0  0  0  0  0  0  0
   13.3615  -16.5404   23.7987 C   0  0  0  0  0  0  0  0  0  0  0  0
   13.1752  -17.2541   22.7824 O   0  0  0  0  0  0  0  0  0  0  0  0
   12.8889  -17.0131   25.1134 C   0  0  0  0  0  0  0  0  0  0  0  0
   11.4065  -17.3827   25.0660 C   0  0  2  0  0  0  0  0  0  0  0  0
   10.6679  -16.1808   24.7468 N   0  0  0  0  0  0  0  0  0  0  0  0
   11.0250  -17.9670   26.3539 C   0  0  0  0  0  0  0  0  0  0  0  0
   10.2009  -17.3629   27.0816 O   0  0  0  0  0  0  0  0  0  0  0  0
   11.5305  -19.1658   26.8199 O   0  0  0  0  0  0  0  0  0  0  0  0
  2  1  1  0
  3  4  1  0
  3  2  1  0
  4  5  1  0
  5  1  1  0
  6 10  1  0
  5  6  1  1
  7  6  2  0
  9  8  1  1
  9 10  1  0
  9 11  1  0
 11 12  2  0
 11 18  1  0
 14 13  1  0
 14 16  1  0
 15 14  2  0
 17 16  1  1
 17 19  1  0
 18 17  1  0
 19 21  1  0
 20 19  2  0
M  END
$$$$
