PAN.pdb
     RDKit          3D

 21 21  0  0  1  0  0  0  0  0999 V2000
    7.7923  -15.1332   20.5170 N   0  0  0  0  0  0  0  0  0  0  0  0
    7.5187  -14.8879   19.1176 C   0  0  0  0  0  0  0  0  0  0  0  0
    7.7600  -13.4181   18.8491 C   0  0  0  0  0  0  0  0  0  0  0  0
    7.8033  -12.8454   20.2765 C   0  0  0  0  0  0  0  0  0  0  0  0
    8.5024  -13.9836   20.9640 C   0  0  1  0  0  0  0  0  0  0  0  0
    8.6268  -13.8611   22.4115 C   0  0  0  0  0  0  0  0  0  0  0  0
    9.7620  -13.6261   22.9053 O   0  0  0  0  0  0  0  0  0  0  0  0
    6.3747  -13.3671   25.3283 C   0  0  0  0  0  0  0  0  0  0  0  0
    7.7025  -13.8142   24.7556 C   0  0  2  0  0  0  0  0  0  0  0  0
    7.5565  -13.9865   23.3344 N   0  0  0  0  0  0  0  0  0  0  0  0
    8.1714  -15.0883   25.4104 C   0  0  0  0  0  0  0  0  0  0  0  0
    8.3549  -15.1596   26.6425 O   0  0  0  0  0  0  0  0  0  0  0  0
    6.3994  -19.2060   26.1321 N   0  0  0  0  0  0  0  0  0  0  0  0
    6.7258  -18.7347   24.8341 C   0  0  0  0  0  0  0  0  0  0  0  0
    5.7849  -18.4165   24.0656 O   0  0  0  0  0  0  0  0  0  0  0  0
    8.1187  -18.6086   24.3661 C   0  0  0  0  0  0  0  0  0  0  0  0
    8.8614  -17.5153   25.1338 C   0  0  2  0  0  0  0  0  0  0  0  0
    8.4126  -16.2401   24.6193 N   0  0  0  0  0  0  0  0  0  0  0  0
   10.3025  -17.7241   24.9753 C   0  0  0  0  0  0  0  0  0  0  0  0
   10.8418  -18.7183   25.5180 O   0  0  0  0  0  0  0  0  0  0  0  0
   11.1147  -16.8733   24.2499 O   0  0  0  0  0  0  0  0  0  0  0  0
  2  1  1  0
  3  4  1  0
  3  2  1  0
  4  5  1  0
  5  1  1  0
  6 10  1  0
  5  6  1  1
  7  6  2  0
  9  8  1  1
  9 10  1  0
  9 11  1  0
 11 12  2  0
 11 18  1  0
 14 13  1  0
 14 16  1  0
 15 14  2  0
 17 16  1  6
 17 19  1  0
 18 17  1  0
 19 21  1  0
 20 19  2  0
M  END
$$$$
