PAN.pdb
     RDKit          3D

 21 21  0  0  1  0  0  0  0  0999 V2000
    7.5436  -14.8704   19.2750 N   0  0  0  0  0  0  0  0  0  0  0  0
    7.3795  -13.7391   18.3882 C   0  0  0  0  0  0  0  0  0  0  0  0
    8.0973  -12.5585   19.0058 C   0  0  0  0  0  0  0  0  0  0  0  0
    8.3153  -13.0483   20.4480 C   0  0  0  0  0  0  0  0  0  0  0  0
    8.5908  -14.4975   20.1636 C   0  0  1  0  0  0  0  0  0  0  0  0
    8.7358  -15.3506   21.3369 C   0  0  0  0  0  0  0  0  0  0  0  0
    7.7639  -15.4605   22.1314 O   0  0  0  0  0  0  0  0  0  0  0  0
   11.0894  -17.9230   22.6558 C   0  0  0  0  0  0  0  0  0  0  0  0
   10.0478  -16.8484   22.8819 C   0  0  2  0  0  0  0  0  0  0  0  0
    9.9030  -16.0852   21.6706 N   0  0  0  0  0  0  0  0  0  0  0  0
   10.4300  -15.9609   24.0388 C   0  0  0  0  0  0  0  0  0  0  0  0
   11.2511  -15.0311   23.9045 O   0  0  0  0  0  0  0  0  0  0  0  0
   10.3386  -13.6551   28.6820 N   0  0  0  0  0  0  0  0  0  0  0  0
    9.1389  -13.6298   27.9246 C   0  0  0  0  0  0  0  0  0  0  0  0
    8.2623  -12.7846   28.2317 O   0  0  0  0  0  0  0  0  0  0  0  0
    8.8934  -14.5539   26.8017 C   0  0  0  0  0  0  0  0  0  0  0  0
   10.1353  -15.3903   26.4945 C   0  0  2  0  0  0  0  0  0  0  0  0
    9.8499  -16.1767   25.3146 N   0  0  0  0  0  0  0  0  0  0  0  0
   10.4548  -16.2081   27.6670 C   0  0  0  0  0  0  0  0  0  0  0  0
   10.8956  -15.6518   28.7014 O   0  0  0  0  0  0  0  0  0  0  0  0
   10.2954  -17.5804   27.6981 O   0  0  0  0  0  0  0  0  0  0  0  0
  2  1  1  0
  3  4  1  0
  3  2  1  0
  4  5  1  0
  5  1  1  0
  6 10  1  0
  5  6  1  1
  7  6  2  0
  9  8  1  6
  9 10  1  0
  9 11  1  0
 11 12  2  0
 11 18  1  0
 14 13  1  0
 14 16  1  0
 15 14  2  0
 17 16  1  1
 17 19  1  0
 18 17  1  0
 19 21  1  0
 20 19  2  0
M  END
$$$$
