PAN.pdb
     RDKit          3D

 21 21  0  0  1  0  0  0  0  0999 V2000
    8.7820  -14.9196   19.4107 N   0  0  0  0  0  0  0  0  0  0  0  0
    8.7877  -14.3097   18.0987 C   0  0  0  0  0  0  0  0  0  0  0  0
    7.9981  -13.0213   18.1835 C   0  0  0  0  0  0  0  0  0  0  0  0
    7.2624  -13.1963   19.5234 C   0  0  0  0  0  0  0  0  0  0  0  0
    8.3458  -13.8939   20.2957 C   0  0  1  0  0  0  0  0  0  0  0  0
    7.9721  -14.3492   21.6293 C   0  0  0  0  0  0  0  0  0  0  0  0
    7.6567  -13.4918   22.4972 O   0  0  0  0  0  0  0  0  0  0  0  0
    7.6444  -17.6318   23.4458 C   0  0  0  0  0  0  0  0  0  0  0  0
    7.5145  -16.1264   23.3566 C   0  0  2  0  0  0  0  0  0  0  0  0
    7.9318  -15.7051   22.0455 N   0  0  0  0  0  0  0  0  0  0  0  0
    8.3305  -15.4497   24.4282 C   0  0  0  0  0  0  0  0  0  0  0  0
    9.5641  -15.3016   24.3134 O   0  0  0  0  0  0  0  0  0  0  0  0
    5.5034  -12.0193   26.5391 N   0  0  0  0  0  0  0  0  0  0  0  0
    6.8753  -12.3690   26.6342 C   0  0  0  0  0  0  0  0  0  0  0  0
    7.7066  -11.6882   25.9840 O   0  0  0  0  0  0  0  0  0  0  0  0
    7.3488  -13.4933   27.4629 C   0  0  0  0  0  0  0  0  0  0  0  0
    8.3756  -14.3390   26.7101 C   0  0  2  0  0  0  0  0  0  0  0  0
    7.6936  -14.9650   25.5988 N   0  0  0  0  0  0  0  0  0  0  0  0
    8.9644  -15.3047   27.6410 C   0  0  0  0  0  0  0  0  0  0  0  0
    8.6431  -16.5143   27.5549 O   0  0  0  0  0  0  0  0  0  0  0  0
    9.8685  -14.9522   28.6248 O   0  0  0  0  0  0  0  0  0  0  0  0
  2  1  1  0
  3  4  1  0
  3  2  1  0
  4  5  1  0
  5  1  1  0
  6 10  1  0
  5  6  1  1
  7  6  2  0
  9  8  1  6
  9 10  1  0
  9 11  1  0
 11 12  2  0
 11 18  1  0
 14 13  1  0
 14 16  1  0
 15 14  2  0
 17 16  1  1
 17 19  1  0
 18 17  1  0
 19 21  1  0
 20 19  2  0
M  END
$$$$
