PAN.pdb
     RDKit          3D

 21 21  0  0  1  0  0  0  0  0999 V2000
    7.4668  -14.9614   21.0618 N   0  0  0  0  0  0  0  0  0  0  0  0
    7.3204  -14.8326   19.6282 C   0  0  0  0  0  0  0  0  0  0  0  0
    7.8807  -13.4858   19.2245 C   0  0  0  0  0  0  0  0  0  0  0  0
    7.9743  -12.7694   20.5829 C   0  0  0  0  0  0  0  0  0  0  0  0
    8.3816  -13.9373   21.4357 C   0  0  1  0  0  0  0  0  0  0  0  0
    8.4579  -13.6725   22.8673 C   0  0  0  0  0  0  0  0  0  0  0  0
    9.5831  -13.7138   23.4331 O   0  0  0  0  0  0  0  0  0  0  0  0
    6.2355  -12.3558   25.5682 C   0  0  0  0  0  0  0  0  0  0  0  0
    7.4549  -13.1292   25.1146 C   0  0  2  0  0  0  0  0  0  0  0  0
    7.3501  -13.3653   23.6990 N   0  0  0  0  0  0  0  0  0  0  0  0
    7.5843  -14.4259   25.8720 C   0  0  0  0  0  0  0  0  0  0  0  0
    7.6106  -14.4535   27.1192 O   0  0  0  0  0  0  0  0  0  0  0  0
    7.7134  -19.6406   26.5676 N   0  0  0  0  0  0  0  0  0  0  0  0
    6.9483  -19.2847   25.4269 C   0  0  0  0  0  0  0  0  0  0  0  0
    6.2994  -20.1880   24.8435 O   0  0  0  0  0  0  0  0  0  0  0  0
    6.8924  -17.9038   24.9120 C   0  0  0  0  0  0  0  0  0  0  0  0
    7.7249  -16.9586   25.7778 C   0  0  2  0  0  0  0  0  0  0  0  0
    7.6786  -15.6502   25.1628 N   0  0  0  0  0  0  0  0  0  0  0  0
    9.0837  -17.4942   25.8881 C   0  0  0  0  0  0  0  0  0  0  0  0
    9.9823  -17.0476   25.1352 O   0  0  0  0  0  0  0  0  0  0  0  0
    9.4371  -18.4801   26.7897 O   0  0  0  0  0  0  0  0  0  0  0  0
  2  1  1  0
  3  4  1  0
  3  2  1  0
  4  5  1  0
  5  1  1  0
  6 10  1  0
  5  6  1  1
  7  6  2  0
  9  8  1  1
  9 10  1  0
  9 11  1  0
 11 12  2  0
 11 18  1  0
 14 13  1  0
 14 16  1  0
 15 14  2  0
 17 16  1  6
 17 19  1  0
 18 17  1  0
 19 21  1  0
 20 19  2  0
M  END
$$$$
