PAN.pdb
     RDKit          3D

 21 21  0  0  1  0  0  0  0  0999 V2000
    9.0485  -13.9001   20.0993 N   0  0  0  0  0  0  0  0  0  0  0  0
    8.7148  -12.7978   19.2236 C   0  0  0  0  0  0  0  0  0  0  0  0
    7.2062  -12.7207   19.1304 C   0  0  0  0  0  0  0  0  0  0  0  0
    6.7901  -14.0864   19.7040 C   0  0  0  0  0  0  0  0  0  0  0  0
    7.8366  -14.2194   20.7736 C   0  0  1  0  0  0  0  0  0  0  0  0
    7.8458  -15.4904   21.4878 C   0  0  0  0  0  0  0  0  0  0  0  0
    6.8095  -15.8436   22.1116 O   0  0  0  0  0  0  0  0  0  0  0  0
    9.9291  -18.5736   21.5534 C   0  0  0  0  0  0  0  0  0  0  0  0
    8.8995  -17.6680   22.1944 C   0  0  2  0  0  0  0  0  0  0  0  0
    8.9453  -16.3855   21.5434 N   0  0  0  0  0  0  0  0  0  0  0  0
    9.1464  -17.5331   23.6752 C   0  0  0  0  0  0  0  0  0  0  0  0
    9.4297  -18.5213   24.3823 O   0  0  0  0  0  0  0  0  0  0  0  0
    6.5977  -15.5821   25.1649 N   0  0  0  0  0  0  0  0  0  0  0  0
    7.3338  -14.5111   25.7349 C   0  0  0  0  0  0  0  0  0  0  0  0
    6.7188  -13.4525   26.0146 O   0  0  0  0  0  0  0  0  0  0  0  0
    8.7807  -14.6023   26.0055 C   0  0  0  0  0  0  0  0  0  0  0  0
    9.3132  -16.0002   25.6914 C   0  0  2  0  0  0  0  0  0  0  0  0
    9.0585  -16.2590   24.2913 N   0  0  0  0  0  0  0  0  0  0  0  0
    8.6620  -16.9637   26.5819 C   0  0  0  0  0  0  0  0  0  0  0  0
    7.7013  -17.6456   26.1507 O   0  0  0  0  0  0  0  0  0  0  0  0
    9.0527  -17.1670   27.8917 O   0  0  0  0  0  0  0  0  0  0  0  0
  2  1  1  0
  3  4  1  0
  3  2  1  0
  4  5  1  0
  5  1  1  0
  6 10  1  0
  5  6  1  6
  7  6  2  0
  9  8  1  6
  9 10  1  0
  9 11  1  0
 11 12  2  0
 11 18  1  0
 14 13  1  0
 14 16  1  0
 15 14  2  0
 17 16  1  1
 17 19  1  0
 18 17  1  0
 19 21  1  0
 20 19  2  0
M  END
$$$$
