PAN.pdb
     RDKit          3D

 21 21  0  0  1  0  0  0  0  0999 V2000
    9.0110  -14.6940   18.7037 N   0  0  0  0  0  0  0  0  0  0  0  0
    8.7036  -13.6069   17.7998 C   0  0  0  0  0  0  0  0  0  0  0  0
    7.8843  -12.5882   18.5624 C   0  0  0  0  0  0  0  0  0  0  0  0
    7.4628  -13.3952   19.8027 C   0  0  0  0  0  0  0  0  0  0  0  0
    8.7215  -14.1905   20.0030 C   0  0  1  0  0  0  0  0  0  0  0  0
    8.6664  -15.1978   21.0555 C   0  0  0  0  0  0  0  0  0  0  0  0
    8.4138  -14.8309   22.2342 O   0  0  0  0  0  0  0  0  0  0  0  0
    8.2837  -18.8498   21.3996 C   0  0  0  0  0  0  0  0  0  0  0  0
    8.8561  -17.5534   21.9312 C   0  0  2  0  0  0  0  0  0  0  0  0
    8.8776  -16.5878   20.8644 N   0  0  0  0  0  0  0  0  0  0  0  0
   10.2366  -17.7651   22.4981 C   0  0  0  0  0  0  0  0  0  0  0  0
   10.4347  -18.5269   23.4662 O   0  0  0  0  0  0  0  0  0  0  0  0
   15.2530  -16.0747   22.4856 N   0  0  0  0  0  0  0  0  0  0  0  0
   14.2961  -15.7013   23.4646 C   0  0  0  0  0  0  0  0  0  0  0  0
   14.6177  -14.8227   24.3023 O   0  0  0  0  0  0  0  0  0  0  0  0
   12.9523  -16.3057   23.5273 C   0  0  0  0  0  0  0  0  0  0  0  0
   12.7180  -17.2521   22.3501 C   0  0  2  0  0  0  0  0  0  0  0  0
   11.3445  -17.0893   21.9269 N   0  0  0  0  0  0  0  0  0  0  0  0
   13.0306  -18.6187   22.7746 C   0  0  0  0  0  0  0  0  0  0  0  0
   12.2051  -19.2457   23.4812 O   0  0  0  0  0  0  0  0  0  0  0  0
   14.2030  -19.2667   22.4350 O   0  0  0  0  0  0  0  0  0  0  0  0
  2  1  1  0
  3  4  1  0
  3  2  1  0
  4  5  1  0
  5  1  1  0
  6 10  1  0
  5  6  1  1
  7  6  2  0
  9  8  1  6
  9 10  1  0
  9 11  1  0
 11 12  2  0
 11 18  1  0
 14 13  1  0
 14 16  1  0
 15 14  2  0
 17 16  1  1
 17 19  1  0
 18 17  1  0
 19 21  1  0
 20 19  2  0
M  END
$$$$
