WMA.pdb
     RDKit          3D

 28 29  0  0  1  0  0  0  0  0999 V2000
    6.2378  -18.1913   24.2391 N   0  0  0  0  0  0  0  0  0  0  0  0
    7.0576  -17.0312   24.1907 C   0  0  1  0  0  0  0  0  0  0  0  0
    7.6220  -16.6038   25.5050 C   0  0  0  0  0  0  0  0  0  0  0  0
    6.9021  -15.4023   25.9740 C   0  0  0  0  0  0  0  0  0  0  0  0
    5.5382  -15.3185   26.2687 C   0  0  0  0  0  0  0  0  0  0  0  0
    5.2471  -14.0842   26.6880 N   0  0  0  0  0  0  0  0  0  0  0  0
    6.3611  -13.3484   26.6826 C   0  0  0  0  0  0  0  0  0  0  0  0
    6.6043  -12.0205   27.0178 C   0  0  0  0  0  0  0  0  0  0  0  0
    7.8615  -11.4689   26.9233 C   0  0  0  0  0  0  0  0  0  0  0  0
    8.8930  -12.2737   26.4815 C   0  0  0  0  0  0  0  0  0  0  0  0
    8.6540  -13.5912   26.1488 C   0  0  0  0  0  0  0  0  0  0  0  0
    7.4077  -14.1506   26.2397 C   0  0  0  0  0  0  0  0  0  0  0  0
    8.1009  -17.1490   23.1321 C   0  0  0  0  0  0  0  0  0  0  0  0
    8.4626  -18.3099   22.8143 O   0  0  0  0  0  0  0  0  0  0  0  0
    6.4093  -12.7963   18.9490 C   0  0  0  0  0  0  0  0  0  0  0  0
    7.9752  -13.0734   19.8451 S   0  0  0  0  0  0  0  0  0  0  0  0
    8.3341  -14.8712   19.7421 C   0  0  0  0  0  0  0  0  0  0  0  0
    9.6520  -15.0660   20.4477 C   0  0  0  0  0  0  0  0  0  0  0  0
    9.6504  -16.2524   21.3914 C   0  0  2  0  0  0  0  0  0  0  0  0
    8.7019  -16.0679   22.4708 N   0  0  0  0  0  0  0  0  0  0  0  0
   10.9881  -16.5816   21.8859 C   0  0  0  0  0  0  0  0  0  0  0  0
   11.4885  -15.9619   22.8597 O   0  0  0  0  0  0  0  0  0  0  0  0
   13.7509  -19.0664   21.0652 C   0  0  0  0  0  0  0  0  0  0  0  0
   13.0983  -17.8892   21.7575 C   0  0  2  0  0  0  0  0  0  0  0  0
   11.7777  -17.6050   21.2968 N   0  0  0  0  0  0  0  0  0  0  0  0
   14.0104  -16.7147   21.6164 C   0  0  0  0  0  0  0  0  0  0  0  0
   13.7875  -15.9104   20.6717 O   0  0  0  0  0  0  0  0  0  0  0  0
   15.0699  -16.4717   22.4586 O   0  0  0  0  0  0  0  0  0  0  0  0
  2  1  1  1
  2  3  1  0
  2 13  1  0
  4  3  1  0
  4  5  2  0
  6  5  1  0
  7  6  1  0
  8  7  2  0
  9  8  1  0
 10  9  2  0
 10 11  1  0
 11 12  2  0
 12  7  1  0
 12  4  1  0
 13 14  2  0
 16 15  1  0
 17 18  1  0
 17 16  1  0
 19 18  1  1
 19 21  1  0
 20 19  1  0
 20 13  1  0
 21 22  2  0
 24 23  1  6
 24 26  1  0
 25 21  1  0
 25 24  1  0
 26 27  2  0
 26 28  1  0
M  END
$$$$
