WMA.pdb
     RDKit          3D

 28 29  0  0  1  0  0  0  0  0999 V2000
    9.0755  -16.9204   23.0542 N   0  0  0  0  0  0  0  0  0  0  0  0
   10.3129  -16.2234   22.9960 C   0  0  1  0  0  0  0  0  0  0  0  0
   10.2374  -14.8549   22.4044 C   0  0  0  0  0  0  0  0  0  0  0  0
    8.8531  -14.5950   21.9594 C   0  0  0  0  0  0  0  0  0  0  0  0
    7.6853  -15.0075   22.6076 C   0  0  0  0  0  0  0  0  0  0  0  0
    6.6205  -14.5706   21.9300 N   0  0  0  0  0  0  0  0  0  0  0  0
    7.0351  -13.8868   20.8609 C   0  0  0  0  0  0  0  0  0  0  0  0
    6.3447  -13.2385   19.8421 C   0  0  0  0  0  0  0  0  0  0  0  0
    7.0017  -12.5929   18.8197 C   0  0  0  0  0  0  0  0  0  0  0  0
    8.3826  -12.6023   18.8261 C   0  0  0  0  0  0  0  0  0  0  0  0
    9.0694  -13.2445   19.8358 C   0  0  0  0  0  0  0  0  0  0  0  0
    8.4261  -13.8892   20.8581 C   0  0  0  0  0  0  0  0  0  0  0  0
   11.0050  -16.2376   24.3165 C   0  0  0  0  0  0  0  0  0  0  0  0
   12.0939  -15.6152   24.3966 O   0  0  0  0  0  0  0  0  0  0  0  0
    6.8277  -12.9543   25.9573 C   0  0  0  0  0  0  0  0  0  0  0  0
    8.1486  -12.8423   27.2121 S   0  0  0  0  0  0  0  0  0  0  0  0
    9.5734  -13.8058   26.5695 C   0  0  0  0  0  0  0  0  0  0  0  0
    9.1689  -15.2542   26.6765 C   0  0  0  0  0  0  0  0  0  0  0  0
   10.3533  -16.1991   26.7266 C   0  0  2  0  0  0  0  0  0  0  0  0
   10.5329  -16.8890   25.4654 N   0  0  0  0  0  0  0  0  0  0  0  0
   10.2866  -17.1277   27.8561 C   0  0  0  0  0  0  0  0  0  0  0  0
   10.0117  -16.7196   29.0138 O   0  0  0  0  0  0  0  0  0  0  0  0
   10.6499  -20.8699   28.4379 C   0  0  0  0  0  0  0  0  0  0  0  0
   10.4876  -19.4128   28.8138 C   0  0  2  0  0  0  0  0  0  0  0  0
   10.5267  -18.5192   27.7017 N   0  0  0  0  0  0  0  0  0  0  0  0
   11.5269  -19.0875   29.8362 C   0  0  0  0  0  0  0  0  0  0  0  0
   11.4376  -19.6492   30.9612 O   0  0  0  0  0  0  0  0  0  0  0  0
   12.5650  -18.2142   29.6112 O   0  0  0  0  0  0  0  0  0  0  0  0
  2  1  1  1
  2  3  1  0
  2 13  1  0
  4  3  1  0
  4  5  2  0
  6  5  1  0
  7  6  1  0
  8  7  2  0
  9  8  1  0
 10  9  2  0
 10 11  1  0
 11 12  2  0
 12  7  1  0
 12  4  1  0
 13 14  2  0
 16 15  1  0
 17 18  1  0
 17 16  1  0
 19 18  1  6
 19 21  1  0
 20 19  1  0
 20 13  1  0
 21 22  2  0
 24 23  1  6
 24 26  1  0
 25 21  1  0
 25 24  1  0
 26 27  2  0
 26 28  1  0
M  END
$$$$
