WMA.pdb
     RDKit          3D

 28 29  0  0  1  0  0  0  0  0999 V2000
    6.8030  -16.5096   24.6422 N   0  0  0  0  0  0  0  0  0  0  0  0
    7.9965  -16.7237   23.9004 C   0  0  1  0  0  0  0  0  0  0  0  0
    8.1342  -15.8845   22.6734 C   0  0  0  0  0  0  0  0  0  0  0  0
    7.5187  -14.5642   22.9177 C   0  0  0  0  0  0  0  0  0  0  0  0
    7.0128  -13.6957   21.9462 C   0  0  0  0  0  0  0  0  0  0  0  0
    6.5119  -12.6077   22.5373 N   0  0  0  0  0  0  0  0  0  0  0  0
    6.6657  -12.7203   23.8588 C   0  0  0  0  0  0  0  0  0  0  0  0
    6.3277  -11.8781   24.9130 C   0  0  0  0  0  0  0  0  0  0  0  0
    6.5979  -12.2111   26.2205 C   0  0  0  0  0  0  0  0  0  0  0  0
    7.2216  -13.4180   26.4683 C   0  0  0  0  0  0  0  0  0  0  0  0
    7.5575  -14.2550   25.4242 C   0  0  0  0  0  0  0  0  0  0  0  0
    7.2928  -13.9342   24.1198 C   0  0  0  0  0  0  0  0  0  0  0  0
    9.1996  -16.6539   24.7782 C   0  0  0  0  0  0  0  0  0  0  0  0
    9.8028  -15.5527   24.8331 O   0  0  0  0  0  0  0  0  0  0  0  0
   10.1524  -13.5509   28.7735 C   0  0  0  0  0  0  0  0  0  0  0  0
   11.0564  -15.0024   28.1350 S   0  0  0  0  0  0  0  0  0  0  0  0
    9.9110  -16.4329   28.2495 C   0  0  0  0  0  0  0  0  0  0  0  0
   10.6998  -17.6271   27.7759 C   0  0  0  0  0  0  0  0  0  0  0  0
   10.9443  -17.6215   26.2798 C   0  0  2  0  0  0  0  0  0  0  0  0
    9.7021  -17.7185   25.5407 N   0  0  0  0  0  0  0  0  0  0  0  0
   11.9123  -18.6371   25.8627 C   0  0  0  0  0  0  0  0  0  0  0  0
   11.6423  -19.8627   25.9498 O   0  0  0  0  0  0  0  0  0  0  0  0
   15.1893  -18.7237   23.9678 C   0  0  0  0  0  0  0  0  0  0  0  0
   14.0821  -19.2823   24.8357 C   0  0  2  0  0  0  0  0  0  0  0  0
   13.1895  -18.2922   25.3453 N   0  0  0  0  0  0  0  0  0  0  0  0
   14.7171  -20.0840   25.9244 C   0  0  0  0  0  0  0  0  0  0  0  0
   14.6361  -19.6404   27.1016 O   0  0  0  0  0  0  0  0  0  0  0  0
   15.3784  -21.2697   25.7062 O   0  0  0  0  0  0  0  0  0  0  0  0
  2  1  1  1
  2  3  1  0
  2 13  1  0
  4  3  1  0
  4  5  2  0
  6  5  1  0
  7  6  1  0
  8  7  2  0
  9  8  1  0
 10  9  2  0
 10 11  1  0
 11 12  2  0
 12  7  1  0
 12  4  1  0
 13 14  2  0
 16 15  1  0
 17 18  1  0
 17 16  1  0
 19 18  1  1
 19 21  1  0
 20 19  1  0
 20 13  1  0
 21 22  2  0
 24 23  1  1
 24 26  1  0
 25 21  1  0
 25 24  1  0
 26 27  2  0
 26 28  1  0
M  END
$$$$
