WMA.pdb
     RDKit          3D

 28 29  0  0  1  0  0  0  0  0999 V2000
    5.2511  -19.6151   23.0761 N   0  0  0  0  0  0  0  0  0  0  0  0
    6.0903  -19.2345   24.1583 C   0  0  1  0  0  0  0  0  0  0  0  0
    7.0950  -20.2604   24.5669 C   0  0  0  0  0  0  0  0  0  0  0  0
    7.0162  -20.4607   26.0283 C   0  0  0  0  0  0  0  0  0  0  0  0
    6.1081  -21.2825   26.7020 C   0  0  0  0  0  0  0  0  0  0  0  0
    6.3506  -21.2337   28.0146 N   0  0  0  0  0  0  0  0  0  0  0  0
    7.3807  -20.4139   28.2369 C   0  0  0  0  0  0  0  0  0  0  0  0
    8.0211  -20.0153   29.4056 C   0  0  0  0  0  0  0  0  0  0  0  0
    9.0797  -19.1362   29.3870 C   0  0  0  0  0  0  0  0  0  0  0  0
    9.4995  -18.6501   28.1646 C   0  0  0  0  0  0  0  0  0  0  0  0
    8.8659  -19.0443   27.0041 C   0  0  0  0  0  0  0  0  0  0  0  0
    7.8125  -19.9188   27.0108 C   0  0  0  0  0  0  0  0  0  0  0  0
    6.7038  -17.8961   23.9231 C   0  0  0  0  0  0  0  0  0  0  0  0
    7.1536  -17.6689   22.7718 O   0  0  0  0  0  0  0  0  0  0  0  0
    6.2122  -10.6666   26.2771 C   0  0  0  0  0  0  0  0  0  0  0  0
    6.7407  -12.3248   26.8273 S   0  0  0  0  0  0  0  0  0  0  0  0
    7.0411  -13.3157   25.3109 C   0  0  0  0  0  0  0  0  0  0  0  0
    7.4298  -14.6907   25.7915 C   0  0  0  0  0  0  0  0  0  0  0  0
    7.6033  -15.6872   24.6623 C   0  0  2  0  0  0  0  0  0  0  0  0
    6.8137  -16.8812   24.8850 N   0  0  0  0  0  0  0  0  0  0  0  0
    9.0084  -15.9995   24.3966 C   0  0  0  0  0  0  0  0  0  0  0  0
    9.6831  -16.6854   25.2071 O   0  0  0  0  0  0  0  0  0  0  0  0
   11.4221  -15.5861   21.4875 C   0  0  0  0  0  0  0  0  0  0  0  0
   10.9538  -16.0501   22.8500 C   0  0  2  0  0  0  0  0  0  0  0  0
    9.6712  -15.5482   23.2241 N   0  0  0  0  0  0  0  0  0  0  0  0
   12.0116  -15.6914   23.8418 C   0  0  0  0  0  0  0  0  0  0  0  0
   13.2074  -15.9576   23.5446 O   0  0  0  0  0  0  0  0  0  0  0  0
   11.7461  -15.0911   25.0502 O   0  0  0  0  0  0  0  0  0  0  0  0
  2  1  1  6
  2  3  1  0
  2 13  1  0
  4  3  1  0
  4  5  2  0
  6  5  1  0
  7  6  1  0
  8  7  2  0
  9  8  1  0
 10  9  2  0
 10 11  1  0
 11 12  2  0
 12  7  1  0
 12  4  1  0
 13 14  2  0
 16 15  1  0
 17 18  1  0
 17 16  1  0
 19 18  1  1
 19 21  1  0
 20 19  1  0
 20 13  1  0
 21 22  2  0
 24 23  1  6
 24 26  1  0
 25 21  1  0
 25 24  1  0
 26 27  2  0
 26 28  1  0
M  END
$$$$
