WMA.pdb
     RDKit          3D

 28 29  0  0  1  0  0  0  0  0999 V2000
    6.5070  -18.1719   25.1530 N   0  0  0  0  0  0  0  0  0  0  0  0
    7.0133  -17.1922   24.2562 C   0  0  1  0  0  0  0  0  0  0  0  0
    7.9291  -16.1874   24.8731 C   0  0  0  0  0  0  0  0  0  0  0  0
    7.1265  -15.1790   25.5948 C   0  0  0  0  0  0  0  0  0  0  0  0
    5.8100  -15.3338   26.0386 C   0  0  0  0  0  0  0  0  0  0  0  0
    5.4192  -14.2248   26.6722 N   0  0  0  0  0  0  0  0  0  0  0  0
    6.4219  -13.3433   26.6657 C   0  0  0  0  0  0  0  0  0  0  0  0
    6.5347  -12.0541   27.1759 C   0  0  0  0  0  0  0  0  0  0  0  0
    7.6906  -11.3201   27.0385 C   0  0  0  0  0  0  0  0  0  0  0  0
    8.7529  -11.8989   26.3727 C   0  0  0  0  0  0  0  0  0  0  0  0
    8.6433  -13.1776   25.8661 C   0  0  0  0  0  0  0  0  0  0  0  0
    7.4986  -13.9171   25.9977 C   0  0  0  0  0  0  0  0  0  0  0  0
    7.5955  -17.8231   23.0372 C   0  0  0  0  0  0  0  0  0  0  0  0
    8.6161  -18.5388   23.1972 O   0  0  0  0  0  0  0  0  0  0  0  0
    7.4099  -11.9931   20.6181 C   0  0  0  0  0  0  0  0  0  0  0  0
    8.6154  -13.2304   20.0282 S   0  0  0  0  0  0  0  0  0  0  0  0
    7.6498  -14.6959   19.4886 C   0  0  0  0  0  0  0  0  0  0  0  0
    7.3056  -15.4459   20.7503 C   0  0  0  0  0  0  0  0  0  0  0  0
    7.7687  -16.8892   20.7280 C   0  0  2  0  0  0  0  0  0  0  0  0
    7.0907  -17.6775   21.7367 N   0  0  0  0  0  0  0  0  0  0  0  0
    9.2241  -17.0161   20.8182 C   0  0  0  0  0  0  0  0  0  0  0  0
    9.8755  -17.6331   19.9363 O   0  0  0  0  0  0  0  0  0  0  0  0
   12.0868  -15.2763   21.4661 C   0  0  0  0  0  0  0  0  0  0  0  0
   11.3877  -16.5316   21.9419 C   0  0  2  0  0  0  0  0  0  0  0  0
    9.9634  -16.4556   21.8938 N   0  0  0  0  0  0  0  0  0  0  0  0
   11.8905  -16.8409   23.3141 C   0  0  0  0  0  0  0  0  0  0  0  0
   11.0480  -16.8826   24.2508 O   0  0  0  0  0  0  0  0  0  0  0  0
   13.2140  -17.0797   23.6010 O   0  0  0  0  0  0  0  0  0  0  0  0
  2  1  1  1
  2  3  1  0
  2 13  1  0
  4  3  1  0
  4  5  2  0
  6  5  1  0
  7  6  1  0
  8  7  2  0
  9  8  1  0
 10  9  2  0
 10 11  1  0
 11 12  2  0
 12  7  1  0
 12  4  1  0
 13 14  2  0
 16 15  1  0
 17 18  1  0
 17 16  1  0
 19 18  1  1
 19 21  1  0
 20 19  1  0
 20 13  1  0
 21 22  2  0
 24 23  1  1
 24 26  1  0
 25 21  1  0
 25 24  1  0
 26 27  2  0
 26 28  1  0
M  END
$$$$
