WMA.pdb
     RDKit          3D

 28 29  0  0  1  0  0  0  0  0999 V2000
    6.8220  -19.1747   25.0150 N   0  0  0  0  0  0  0  0  0  0  0  0
    6.9629  -17.7670   24.8781 C   0  0  1  0  0  0  0  0  0  0  0  0
    7.4833  -17.0656   26.0888 C   0  0  0  0  0  0  0  0  0  0  0  0
    6.8922  -15.7135   26.1572 C   0  0  0  0  0  0  0  0  0  0  0  0
    5.5291  -15.4051   26.1289 C   0  0  0  0  0  0  0  0  0  0  0  0
    5.3682  -14.0835   26.2364 N   0  0  0  0  0  0  0  0  0  0  0  0
    6.5676  -13.5053   26.3341 C   0  0  0  0  0  0  0  0  0  0  0  0
    6.9553  -12.1752   26.4589 C   0  0  0  0  0  0  0  0  0  0  0  0
    8.2803  -11.8119   26.5368 C   0  0  0  0  0  0  0  0  0  0  0  0
    9.2322  -12.8111   26.4875 C   0  0  0  0  0  0  0  0  0  0  0  0
    8.8499  -14.1310   26.3640 C   0  0  0  0  0  0  0  0  0  0  0  0
    7.5349  -14.5038   26.2864 C   0  0  0  0  0  0  0  0  0  0  0  0
    7.7225  -17.4162   23.6440 C   0  0  0  0  0  0  0  0  0  0  0  0
    8.4977  -18.2915   23.1830 O   0  0  0  0  0  0  0  0  0  0  0  0
    6.9087  -12.1012   20.5321 C   0  0  0  0  0  0  0  0  0  0  0  0
    7.9760  -12.7515   19.2018 S   0  0  0  0  0  0  0  0  0  0  0  0
    8.6164  -14.3722   19.7804 C   0  0  0  0  0  0  0  0  0  0  0  0
    7.9152  -14.6460   21.0866 C   0  0  0  0  0  0  0  0  0  0  0  0
    8.3861  -15.9214   21.7571 C   0  0  2  0  0  0  0  0  0  0  0  0
    7.6349  -16.1914   22.9662 N   0  0  0  0  0  0  0  0  0  0  0  0
    9.8305  -15.9343   21.9935 C   0  0  0  0  0  0  0  0  0  0  0  0
   10.6429  -15.7968   21.0429 O   0  0  0  0  0  0  0  0  0  0  0  0
   12.1909  -15.5975   24.8889 C   0  0  0  0  0  0  0  0  0  0  0  0
   11.7888  -16.0930   23.5164 C   0  0  2  0  0  0  0  0  0  0  0  0
   10.3792  -16.1013   23.2931 N   0  0  0  0  0  0  0  0  0  0  0  0
   12.3990  -17.4425   23.3224 C   0  0  0  0  0  0  0  0  0  0  0  0
   11.6217  -18.4109   23.1055 O   0  0  0  0  0  0  0  0  0  0  0  0
   13.7533  -17.6763   23.3684 O   0  0  0  0  0  0  0  0  0  0  0  0
  2  1  1  1
  2  3  1  0
  2 13  1  0
  4  3  1  0
  4  5  2  0
  6  5  1  0
  7  6  1  0
  8  7  2  0
  9  8  1  0
 10  9  2  0
 10 11  1  0
 11 12  2  0
 12  7  1  0
 12  4  1  0
 13 14  2  0
 16 15  1  0
 17 18  1  0
 17 16  1  0
 19 18  1  1
 19 21  1  0
 20 19  1  0
 20 13  1  0
 21 22  2  0
 24 23  1  1
 24 26  1  0
 25 21  1  0
 25 24  1  0
 26 27  2  0
 26 28  1  0
M  END
$$$$
