WMA.pdb
     RDKit          3D

 28 29  0  0  1  0  0  0  0  0999 V2000
    7.4828  -19.8456   26.3979 N   0  0  0  0  0  0  0  0  0  0  0  0
    8.0933  -18.5621   26.4135 C   0  0  1  0  0  0  0  0  0  0  0  0
    9.5737  -18.5714   26.6060 C   0  0  0  0  0  0  0  0  0  0  0  0
    9.9072  -17.8239   27.8356 C   0  0  0  0  0  0  0  0  0  0  0  0
   10.1137  -18.3713   29.1052 C   0  0  0  0  0  0  0  0  0  0  0  0
   10.4206  -17.3978   29.9665 N   0  0  0  0  0  0  0  0  0  0  0  0
   10.4254  -16.2297   29.3199 C   0  0  0  0  0  0  0  0  0  0  0  0
   10.6730  -14.9285   29.7448 C   0  0  0  0  0  0  0  0  0  0  0  0
   10.6115  -13.8605   28.8792 C   0  0  0  0  0  0  0  0  0  0  0  0
   10.2935  -14.1113   27.5590 C   0  0  0  0  0  0  0  0  0  0  0  0
   10.0478  -15.4012   27.1353 C   0  0  0  0  0  0  0  0  0  0  0  0
   10.1069  -16.4711   27.9875 C   0  0  0  0  0  0  0  0  0  0  0  0
    7.6755  -17.7492   25.2355 C   0  0  0  0  0  0  0  0  0  0  0  0
    7.5585  -18.3520   24.1389 O   0  0  0  0  0  0  0  0  0  0  0  0
    7.4736  -11.0208   25.9490 C   0  0  0  0  0  0  0  0  0  0  0  0
    6.0240  -12.1273   25.8710 S   0  0  0  0  0  0  0  0  0  0  0  0
    6.6710  -13.8439   25.7932 C   0  0  0  0  0  0  0  0  0  0  0  0
    6.4460  -14.3017   24.3746 C   0  0  0  0  0  0  0  0  0  0  0  0
    7.1346  -15.6146   24.0583 C   0  0  2  0  0  0  0  0  0  0  0  0
    7.4053  -16.3732   25.2625 N   0  0  0  0  0  0  0  0  0  0  0  0
    8.3343  -15.4392   23.2383 C   0  0  0  0  0  0  0  0  0  0  0  0
    8.2744  -14.8710   22.1175 O   0  0  0  0  0  0  0  0  0  0  0  0
   12.0428  -15.4979   23.7373 C   0  0  0  0  0  0  0  0  0  0  0  0
   10.7890  -15.6392   22.9012 C   0  0  2  0  0  0  0  0  0  0  0  0
    9.6101  -15.8971   23.6631 N   0  0  0  0  0  0  0  0  0  0  0  0
   11.0414  -16.6964   21.8766 C   0  0  0  0  0  0  0  0  0  0  0  0
   10.2112  -17.6414   21.7934 O   0  0  0  0  0  0  0  0  0  0  0  0
   12.1242  -16.6881   21.0290 O   0  0  0  0  0  0  0  0  0  0  0  0
  2  1  1  6
  2  3  1  0
  2 13  1  0
  4  3  1  0
  4  5  2  0
  6  5  1  0
  7  6  1  0
  8  7  2  0
  9  8  1  0
 10  9  2  0
 10 11  1  0
 11 12  2  0
 12  7  1  0
 12  4  1  0
 13 14  2  0
 16 15  1  0
 17 18  1  0
 17 16  1  0
 19 18  1  1
 19 21  1  0
 20 19  1  0
 20 13  1  0
 21 22  2  0
 24 23  1  1
 24 26  1  0
 25 21  1  0
 25 24  1  0
 26 27  2  0
 26 28  1  0
M  END
$$$$
