WMA.pdb
     RDKit          3D

 28 29  0  0  1  0  0  0  0  0999 V2000
    9.6151  -18.0346   25.9784 N   0  0  0  0  0  0  0  0  0  0  0  0
    8.1959  -18.0265   26.0556 C   0  0  1  0  0  0  0  0  0  0  0  0
    7.6410  -17.9630   27.4401 C   0  0  0  0  0  0  0  0  0  0  0  0
    8.6538  -17.3769   28.3417 C   0  0  0  0  0  0  0  0  0  0  0  0
    9.4622  -18.0764   29.2423 C   0  0  0  0  0  0  0  0  0  0  0  0
   10.2745  -17.2217   29.8697 N   0  0  0  0  0  0  0  0  0  0  0  0
   10.0368  -15.9866   29.4220 C   0  0  0  0  0  0  0  0  0  0  0  0
   10.5938  -14.7535   29.7445 C   0  0  0  0  0  0  0  0  0  0  0  0
   10.1730  -13.5896   29.1427 C   0  0  0  0  0  0  0  0  0  0  0  0
    9.1702  -13.6727   28.1970 C   0  0  0  0  0  0  0  0  0  0  0  0
    8.6165  -14.8948   27.8754 C   0  0  0  0  0  0  0  0  0  0  0  0
    9.0279  -16.0589   28.4672 C   0  0  0  0  0  0  0  0  0  0  0  0
    7.6106  -16.9901   25.1576 C   0  0  0  0  0  0  0  0  0  0  0  0
    6.3845  -17.0861   24.8986 O   0  0  0  0  0  0  0  0  0  0  0  0
    7.1366  -11.2077   25.9380 C   0  0  0  0  0  0  0  0  0  0  0  0
    6.9535  -13.0204   26.0503 S   0  0  0  0  0  0  0  0  0  0  0  0
    6.3530  -13.5950   24.4130 C   0  0  0  0  0  0  0  0  0  0  0  0
    7.5891  -13.8166   23.5790 C   0  0  0  0  0  0  0  0  0  0  0  0
    7.9009  -15.2836   23.3580 C   0  0  2  0  0  0  0  0  0  0  0  0
    8.3228  -15.9253   24.5865 N   0  0  0  0  0  0  0  0  0  0  0  0
    8.8555  -15.4996   22.2697 C   0  0  0  0  0  0  0  0  0  0  0  0
    8.6301  -15.0568   21.1139 O   0  0  0  0  0  0  0  0  0  0  0  0
   12.4043  -16.0996   21.6776 C   0  0  0  0  0  0  0  0  0  0  0  0
   10.9662  -16.4683   21.3830 C   0  0  2  0  0  0  0  0  0  0  0  0
   10.0691  -16.2121   22.4631 N   0  0  0  0  0  0  0  0  0  0  0  0
   10.9410  -17.8993   20.9556 C   0  0  0  0  0  0  0  0  0  0  0  0
   11.6450  -18.2262   19.9624 O   0  0  0  0  0  0  0  0  0  0  0  0
   10.1948  -18.8665   21.5871 O   0  0  0  0  0  0  0  0  0  0  0  0
  2  1  1  1
  2  3  1  0
  2 13  1  0
  4  3  1  0
  4  5  2  0
  6  5  1  0
  7  6  1  0
  8  7  2  0
  9  8  1  0
 10  9  2  0
 10 11  1  0
 11 12  2  0
 12  7  1  0
 12  4  1  0
 13 14  2  0
 16 15  1  0
 17 18  1  0
 17 16  1  0
 19 18  1  1
 19 21  1  0
 20 19  1  0
 20 13  1  0
 21 22  2  0
 24 23  1  1
 24 26  1  0
 25 21  1  0
 25 24  1  0
 26 27  2  0
 26 28  1  0
M  END
$$$$
