WMA.pdb
     RDKit          3D

 28 29  0  0  1  0  0  0  0  0999 V2000
    6.3031  -18.8294   24.8193 N   0  0  0  0  0  0  0  0  0  0  0  0
    6.8009  -17.5148   24.6087 C   0  0  1  0  0  0  0  0  0  0  0  0
    7.5211  -16.9201   25.7733 C   0  0  0  0  0  0  0  0  0  0  0  0
    6.8780  -15.6418   26.1395 C   0  0  0  0  0  0  0  0  0  0  0  0
    5.5664  -15.4768   26.5940 C   0  0  0  0  0  0  0  0  0  0  0  0
    5.3418  -14.1853   26.8501 N   0  0  0  0  0  0  0  0  0  0  0  0
    6.4496  -13.4895   26.5837 C   0  0  0  0  0  0  0  0  0  0  0  0
    6.7439  -12.1329   26.6726 C   0  0  0  0  0  0  0  0  0  0  0  0
    7.9805  -11.6365   26.3289 C   0  0  0  0  0  0  0  0  0  0  0  0
    8.9384  -12.5273   25.8865 C   0  0  0  0  0  0  0  0  0  0  0  0
    8.6488  -13.8734   25.7978 C   0  0  0  0  0  0  0  0  0  0  0  0
    7.4224  -14.3782   26.1378 C   0  0  0  0  0  0  0  0  0  0  0  0
    7.5888  -17.4300   23.3457 C   0  0  0  0  0  0  0  0  0  0  0  0
    8.3209  -18.4117   23.0630 O   0  0  0  0  0  0  0  0  0  0  0  0
    7.7502  -12.3024   18.6620 C   0  0  0  0  0  0  0  0  0  0  0  0
    8.3615  -12.5370   20.3659 S   0  0  0  0  0  0  0  0  0  0  0  0
    7.4532  -13.9729   21.0619 C   0  0  0  0  0  0  0  0  0  0  0  0
    7.9895  -15.1839   20.3418 C   0  0  0  0  0  0  0  0  0  0  0  0
    8.4170  -16.2931   21.2826 C   0  0  2  0  0  0  0  0  0  0  0  0
    7.5718  -16.3441   22.4582 N   0  0  0  0  0  0  0  0  0  0  0  0
    9.8372  -16.2223   21.6298 C   0  0  0  0  0  0  0  0  0  0  0  0
   10.7232  -16.2441   20.7370 O   0  0  0  0  0  0  0  0  0  0  0  0
   11.9186  -15.2259   24.5835 C   0  0  0  0  0  0  0  0  0  0  0  0
   11.6618  -15.9887   23.3017 C   0  0  2  0  0  0  0  0  0  0  0  0
   10.2791  -16.1270   22.9764 N   0  0  0  0  0  0  0  0  0  0  0  0
   12.3507  -17.3095   23.4116 C   0  0  0  0  0  0  0  0  0  0  0  0
   12.8133  -17.6367   24.5377 O   0  0  0  0  0  0  0  0  0  0  0  0
   12.5026  -18.1760   22.3547 O   0  0  0  0  0  0  0  0  0  0  0  0
  2  1  1  1
  2  3  1  0
  2 13  1  0
  4  3  1  0
  4  5  2  0
  6  5  1  0
  7  6  1  0
  8  7  2  0
  9  8  1  0
 10  9  2  0
 10 11  1  0
 11 12  2  0
 12  7  1  0
 12  4  1  0
 13 14  2  0
 16 15  1  0
 17 18  1  0
 17 16  1  0
 19 18  1  1
 19 21  1  0
 20 19  1  0
 20 13  1  0
 21 22  2  0
 24 23  1  1
 24 26  1  0
 25 21  1  0
 25 24  1  0
 26 27  2  0
 26 28  1  0
M  END
$$$$
