WMA.pdb
     RDKit          3D

 28 29  0  0  1  0  0  0  0  0999 V2000
    6.7272  -18.6486   24.9747 N   0  0  0  0  0  0  0  0  0  0  0  0
    7.0601  -17.2937   24.7031 C   0  0  1  0  0  0  0  0  0  0  0  0
    7.7338  -16.5740   25.8242 C   0  0  0  0  0  0  0  0  0  0  0  0
    6.9855  -15.3364   26.1248 C   0  0  0  0  0  0  0  0  0  0  0  0
    5.6057  -15.2324   26.3230 C   0  0  0  0  0  0  0  0  0  0  0  0
    5.2885  -13.9644   26.5980 N   0  0  0  0  0  0  0  0  0  0  0  0
    6.4006  -13.2257   26.5895 C   0  0  0  0  0  0  0  0  0  0  0  0
    6.6220  -11.8695   26.8054 C   0  0  0  0  0  0  0  0  0  0  0  0
    7.8826  -11.3220   26.7358 C   0  0  0  0  0  0  0  0  0  0  0  0
    8.9401  -12.1602   26.4425 C   0  0  0  0  0  0  0  0  0  0  0  0
    8.7227  -13.5058   26.2283 C   0  0  0  0  0  0  0  0  0  0  0  0
    7.4732  -14.0612   26.2957 C   0  0  0  0  0  0  0  0  0  0  0  0
    7.8005  -17.1656   23.4153 C   0  0  0  0  0  0  0  0  0  0  0  0
    8.6521  -18.0528   23.1561 O   0  0  0  0  0  0  0  0  0  0  0  0
    7.1037  -12.3071   19.6191 C   0  0  0  0  0  0  0  0  0  0  0  0
    8.4598  -12.9463   18.5779 S   0  0  0  0  0  0  0  0  0  0  0  0
    9.0105  -14.5258   19.3353 C   0  0  0  0  0  0  0  0  0  0  0  0
    8.1442  -14.7185   20.5540 C   0  0  0  0  0  0  0  0  0  0  0  0
    8.4638  -15.9904   21.3144 C   0  0  2  0  0  0  0  0  0  0  0  0
    7.6166  -16.1362   22.4805 N   0  0  0  0  0  0  0  0  0  0  0  0
    9.8840  -16.1055   21.6494 C   0  0  0  0  0  0  0  0  0  0  0  0
   10.4211  -15.3174   22.4699 O   0  0  0  0  0  0  0  0  0  0  0  0
   12.7197  -18.5388   21.0687 C   0  0  0  0  0  0  0  0  0  0  0  0
   12.1037  -17.1941   21.3898 C   0  0  2  0  0  0  0  0  0  0  0  0
   10.7157  -17.1011   21.0708 N   0  0  0  0  0  0  0  0  0  0  0  0
   12.9131  -16.1456   20.6993 C   0  0  0  0  0  0  0  0  0  0  0  0
   12.4665  -15.6798   19.6164 O   0  0  0  0  0  0  0  0  0  0  0  0
   14.1088  -15.6693   21.1834 O   0  0  0  0  0  0  0  0  0  0  0  0
  2  1  1  1
  2  3  1  0
  2 13  1  0
  4  3  1  0
  4  5  2  0
  6  5  1  0
  7  6  1  0
  8  7  2  0
  9  8  1  0
 10  9  2  0
 10 11  1  0
 11 12  2  0
 12  7  1  0
 12  4  1  0
 13 14  2  0
 16 15  1  0
 17 18  1  0
 17 16  1  0
 19 18  1  1
 19 21  1  0
 20 19  1  0
 20 13  1  0
 21 22  2  0
 24 23  1  6
 24 26  1  0
 25 21  1  0
 25 24  1  0
 26 27  2  0
 26 28  1  0
M  END
$$$$
