WMA.pdb
     RDKit          3D

 28 29  0  0  1  0  0  0  0  0999 V2000
    6.3818  -18.4047   24.4223 N   0  0  0  0  0  0  0  0  0  0  0  0
    7.0115  -17.1353   24.3099 C   0  0  1  0  0  0  0  0  0  0  0  0
    7.6162  -16.6184   25.5731 C   0  0  0  0  0  0  0  0  0  0  0  0
    6.8175  -15.4755   26.0606 C   0  0  0  0  0  0  0  0  0  0  0  0
    5.5209  -15.5348   26.5795 C   0  0  0  0  0  0  0  0  0  0  0  0
    5.1283  -14.3104   26.9412 N   0  0  0  0  0  0  0  0  0  0  0  0
    6.1108  -13.4441   26.6828 C   0  0  0  0  0  0  0  0  0  0  0  0
    6.2133  -12.0684   26.8616 C   0  0  0  0  0  0  0  0  0  0  0  0
    7.3474  -11.3749   26.5059 C   0  0  0  0  0  0  0  0  0  0  0  0
    8.3983  -12.0844   25.9589 C   0  0  0  0  0  0  0  0  0  0  0  0
    8.2989  -13.4489   25.7809 C   0  0  0  0  0  0  0  0  0  0  0  0
    7.1759  -14.1490   26.1318 C   0  0  0  0  0  0  0  0  0  0  0  0
    7.9659  -17.1037   23.1649 C   0  0  0  0  0  0  0  0  0  0  0  0
    8.6581  -18.1345   22.9704 O   0  0  0  0  0  0  0  0  0  0  0  0
    8.1538  -11.6798   20.1588 C   0  0  0  0  0  0  0  0  0  0  0  0
    7.6686  -12.9438   18.9347 S   0  0  0  0  0  0  0  0  0  0  0  0
    7.5789  -14.5435   19.8316 C   0  0  0  0  0  0  0  0  0  0  0  0
    8.9752  -14.8094   20.3338 C   0  0  0  0  0  0  0  0  0  0  0  0
    9.0720  -16.0607   21.1840 C   0  0  2  0  0  0  0  0  0  0  0  0
    8.1452  -16.0168   22.2966 N   0  0  0  0  0  0  0  0  0  0  0  0
   10.4407  -16.3419   21.6201 C   0  0  0  0  0  0  0  0  0  0  0  0
   11.1048  -15.4857   22.2593 O   0  0  0  0  0  0  0  0  0  0  0  0
   12.8363  -19.2745   21.7004 C   0  0  0  0  0  0  0  0  0  0  0  0
   12.4433  -17.8128   21.6933 C   0  0  2  0  0  0  0  0  0  0  0  0
   11.0786  -17.5811   21.3456 N   0  0  0  0  0  0  0  0  0  0  0  0
   13.3869  -17.0916   20.7873 C   0  0  0  0  0  0  0  0  0  0  0  0
   12.9029  -16.5176   19.7748 O   0  0  0  0  0  0  0  0  0  0  0  0
   14.7433  -17.0247   21.0029 O   0  0  0  0  0  0  0  0  0  0  0  0
  2  1  1  1
  2  3  1  0
  2 13  1  0
  4  3  1  0
  4  5  2  0
  6  5  1  0
  7  6  1  0
  8  7  2  0
  9  8  1  0
 10  9  2  0
 10 11  1  0
 11 12  2  0
 12  7  1  0
 12  4  1  0
 13 14  2  0
 16 15  1  0
 17 18  1  0
 17 16  1  0
 19 18  1  1
 19 21  1  0
 20 19  1  0
 20 13  1  0
 21 22  2  0
 24 23  1  6
 24 26  1  0
 25 21  1  0
 25 24  1  0
 26 27  2  0
 26 28  1  0
M  END
$$$$
