WMA.pdb
     RDKit          3D

 28 29  0  0  1  0  0  0  0  0999 V2000
    7.4308  -18.4346   21.9083 N   0  0  0  0  0  0  0  0  0  0  0  0
    7.5376  -17.0175   21.8812 C   0  0  1  0  0  0  0  0  0  0  0  0
    6.3849  -16.3112   21.2479 C   0  0  0  0  0  0  0  0  0  0  0  0
    6.8901  -15.4045   20.1969 C   0  0  0  0  0  0  0  0  0  0  0  0
    7.0897  -15.7284   18.8518 C   0  0  0  0  0  0  0  0  0  0  0  0
    7.5316  -14.6529   18.1945 N   0  0  0  0  0  0  0  0  0  0  0  0
    7.6328  -13.6317   19.0485 C   0  0  0  0  0  0  0  0  0  0  0  0
    8.0425  -12.3128   18.8822 C   0  0  0  0  0  0  0  0  0  0  0  0
    8.0705  -11.4257   19.9338 C   0  0  0  0  0  0  0  0  0  0  0  0
    7.6774  -11.8792   21.1775 C   0  0  0  0  0  0  0  0  0  0  0  0
    7.2705  -13.1869   21.3447 C   0  0  0  0  0  0  0  0  0  0  0  0
    7.2379  -14.0777   20.3055 C   0  0  0  0  0  0  0  0  0  0  0  0
    7.8703  -16.4735   23.2289 C   0  0  0  0  0  0  0  0  0  0  0  0
    7.3710  -15.3614   23.5345 O   0  0  0  0  0  0  0  0  0  0  0  0
   10.7267  -12.8046   27.2280 C   0  0  0  0  0  0  0  0  0  0  0  0
    8.9733  -13.2038   26.9150 S   0  0  0  0  0  0  0  0  0  0  0  0
    8.7546  -14.9821   27.3163 C   0  0  0  0  0  0  0  0  0  0  0  0
    8.2189  -15.6216   26.0607 C   0  0  0  0  0  0  0  0  0  0  0  0
    9.2716  -16.3979   25.2943 C   0  0  2  0  0  0  0  0  0  0  0  0
    8.6923  -17.1077   24.1720 N   0  0  0  0  0  0  0  0  0  0  0  0
   10.0593  -17.2814   26.1554 C   0  0  0  0  0  0  0  0  0  0  0  0
    9.5053  -17.9901   27.0348 O   0  0  0  0  0  0  0  0  0  0  0  0
   13.6547  -18.5010   26.2892 C   0  0  0  0  0  0  0  0  0  0  0  0
   12.2075  -18.3974   26.7202 C   0  0  2  0  0  0  0  0  0  0  0  0
   11.4718  -17.3800   26.0416 N   0  0  0  0  0  0  0  0  0  0  0  0
   12.1854  -18.2163   28.2028 C   0  0  0  0  0  0  0  0  0  0  0  0
   11.5788  -17.2107   28.6608 O   0  0  0  0  0  0  0  0  0  0  0  0
   12.7886  -19.0847   29.0820 O   0  0  0  0  0  0  0  0  0  0  0  0
  2  1  1  1
  2  3  1  0
  2 13  1  0
  4  3  1  0
  4  5  2  0
  6  5  1  0
  7  6  1  0
  8  7  2  0
  9  8  1  0
 10  9  2  0
 10 11  1  0
 11 12  2  0
 12  7  1  0
 12  4  1  0
 13 14  2  0
 16 15  1  0
 17 18  1  0
 17 16  1  0
 19 18  1  1
 19 21  1  0
 20 19  1  0
 20 13  1  0
 21 22  2  0
 24 23  1  6
 24 26  1  0
 25 21  1  0
 25 24  1  0
 26 27  2  0
 26 28  1  0
M  END
$$$$
