VIY.pdb
     RDKit          3D

 28 28  0  0  1  0  0  0  0  0999 V2000
   29.2467  -23.8941  -16.5402 C   0  0  0  0  0  0  0  0  0  0  0  0
   29.9554  -23.6510  -17.8422 C   0  0  1  0  0  0  0  0  0  0  0  0
   30.3674  -24.9948  -18.4281 C   0  0  0  0  0  0  0  0  0  0  0  0
   29.0655  -22.9779  -18.8800 C   0  0  2  0  0  0  0  0  0  0  0  0
   29.9380  -22.5968  -19.9712 N   0  0  0  0  0  0  0  0  0  0  0  0
   28.4786  -21.7835  -18.2187 C   0  0  0  0  0  0  0  0  0  0  0  0
   29.2155  -20.7778  -18.0434 O   0  0  0  0  0  0  0  0  0  0  0  0
   23.3686  -18.5862  -18.0252 C   0  0  0  0  0  0  0  0  0  0  0  0
   24.6384  -18.9509  -17.3501 C   0  0  0  0  0  0  0  0  0  0  0  0
   25.3007  -20.1858  -17.8804 C   0  0  2  0  0  0  0  0  0  0  0  0
   24.3823  -21.3557  -18.0092 C   0  0  0  0  0  0  0  0  0  0  0  0
   26.5832  -20.5102  -17.1340 C   0  0  2  0  0  0  0  0  0  0  0  0
   27.1499  -21.7041  -17.7751 N   0  0  0  0  0  0  0  0  0  0  0  0
   26.3143  -20.8412  -15.7159 C   0  0  0  0  0  0  0  0  0  0  0  0
   25.8169  -21.9632  -15.4560 O   0  0  0  0  0  0  0  0  0  0  0  0
   25.3269  -21.1327   -7.0064 O   0  0  0  0  0  0  0  0  0  0  0  0
   25.7327  -20.7774   -8.2866 C   0  0  0  0  0  0  0  0  0  0  0  0
   26.6068  -21.5737   -8.9960 C   0  0  0  0  0  0  0  0  0  0  0  0
   27.0493  -21.2859  -10.2620 C   0  0  0  0  0  0  0  0  0  0  0  0
   26.6047  -20.1210  -10.8984 C   0  0  0  0  0  0  0  0  0  0  0  0
   27.0945  -19.7724  -12.2516 C   0  0  0  0  0  0  0  0  0  0  0  0
   26.2278  -20.3915  -13.2821 C   0  0  2  0  0  0  0  0  0  0  0  0
   26.5801  -19.9781  -14.6337 N   0  0  0  0  0  0  0  0  0  0  0  0
   24.7898  -20.1983  -13.0269 C   0  0  0  0  0  0  0  0  0  0  0  0
   24.1967  -19.1815  -13.4206 O   0  0  0  0  0  0  0  0  0  0  0  0
   25.7294  -19.3185  -10.1933 C   0  0  0  0  0  0  0  0  0  0  0  0
   25.3023  -19.6342   -8.9220 C   0  0  0  0  0  0  0  0  0  0  0  0
   24.0757  -21.1612  -12.3365 O   0  0  0  0  0  0  0  0  0  0  0  0
  2  1  1  1
  2  4  1  0
  3  2  1  0
  4  5  1  6
  6  4  1  0
  6 13  1  0
  7  6  2  0
  9  8  1  0
 10  9  1  0
 10 12  1  0
 10 11  1  1
 12 14  1  0
 12 13  1  6
 14 23  1  0
 15 14  2  0
 16 17  1  0
 17 18  2  0
 18 19  1  0
 20 21  1  0
 20 19  2  0
 22 21  1  1
 22 24  1  0
 23 22  1  0
 24 25  2  0
 24 28  1  0
 26 20  1  0
 27 26  2  0
 27 17  1  0
M  END
$$$$
