VIY.pdb
     RDKit          3D

 28 28  0  0  1  0  0  0  0  0999 V2000
   28.6291  -18.7855  -17.4789 C   0  0  0  0  0  0  0  0  0  0  0  0
   27.9335  -19.7603  -16.5720 C   0  0  1  0  0  0  0  0  0  0  0  0
   28.9432  -20.2874  -15.5613 C   0  0  0  0  0  0  0  0  0  0  0  0
   26.8088  -19.1179  -15.7692 C   0  0  2  0  0  0  0  0  0  0  0  0
   27.3978  -17.9830  -15.0892 N   0  0  0  0  0  0  0  0  0  0  0  0
   26.3455  -20.1444  -14.7996 C   0  0  0  0  0  0  0  0  0  0  0  0
   25.9486  -21.2515  -15.2490 O   0  0  0  0  0  0  0  0  0  0  0  0
   28.5632  -21.1425  -10.0941 C   0  0  0  0  0  0  0  0  0  0  0  0
   27.7403  -21.2519  -11.3237 C   0  0  0  0  0  0  0  0  0  0  0  0
   26.3176  -20.8078  -11.1701 C   0  0  2  0  0  0  0  0  0  0  0  0
   25.5841  -21.5006  -10.0697 C   0  0  0  0  0  0  0  0  0  0  0  0
   25.5694  -20.8240  -12.4918 C   0  0  2  0  0  0  0  0  0  0  0  0
   26.3219  -19.9582  -13.4092 N   0  0  0  0  0  0  0  0  0  0  0  0
   24.2079  -20.2593  -12.3492 C   0  0  0  0  0  0  0  0  0  0  0  0
   24.1009  -19.0446  -12.0544 O   0  0  0  0  0  0  0  0  0  0  0  0
   16.9646  -16.3694  -14.2547 O   0  0  0  0  0  0  0  0  0  0  0  0
   18.1469  -17.0925  -14.1603 C   0  0  0  0  0  0  0  0  0  0  0  0
   19.0515  -16.8370  -13.1514 C   0  0  0  0  0  0  0  0  0  0  0  0
   20.2364  -17.5104  -12.9969 C   0  0  0  0  0  0  0  0  0  0  0  0
   20.5757  -18.5231  -13.9018 C   0  0  0  0  0  0  0  0  0  0  0  0
   21.8646  -19.2411  -13.7748 C   0  0  0  0  0  0  0  0  0  0  0  0
   21.7618  -20.2920  -12.7348 C   0  0  2  0  0  0  0  0  0  0  0  0
   23.0192  -20.9964  -12.5229 N   0  0  0  0  0  0  0  0  0  0  0  0
   20.6575  -21.2383  -12.9696 C   0  0  0  0  0  0  0  0  0  0  0  0
   20.7827  -22.1928  -13.7531 O   0  0  0  0  0  0  0  0  0  0  0  0
   19.6744  -18.7840  -14.9151 C   0  0  0  0  0  0  0  0  0  0  0  0
   18.4910  -18.0903  -15.0446 C   0  0  0  0  0  0  0  0  0  0  0  0
   19.4529  -21.0708  -12.3103 O   0  0  0  0  0  0  0  0  0  0  0  0
  2  1  1  6
  2  4  1  0
  3  2  1  0
  4  5  1  1
  6  4  1  0
  6 13  1  0
  7  6  2  0
  9  8  1  0
 10  9  1  0
 10 12  1  0
 10 11  1  1
 12 14  1  0
 12 13  1  6
 14 23  1  0
 15 14  2  0
 16 17  1  0
 17 18  2  0
 18 19  1  0
 20 21  1  0
 20 19  2  0
 22 21  1  6
 22 24  1  0
 23 22  1  0
 24 25  2  0
 24 28  1  0
 26 20  1  0
 27 26  2  0
 27 17  1  0
M  END
$$$$
