VIY.pdb
     RDKit          3D

 28 28  0  0  1  0  0  0  0  0999 V2000
   26.7383  -18.3210  -14.0872 C   0  0  0  0  0  0  0  0  0  0  0  0
   27.5768  -19.4145  -14.6851 C   0  0  1  0  0  0  0  0  0  0  0  0
   28.6769  -18.7781  -15.5241 C   0  0  0  0  0  0  0  0  0  0  0  0
   28.2717  -20.2668  -13.6303 C   0  0  2  0  0  0  0  0  0  0  0  0
   29.0178  -21.2743  -14.3553 N   0  0  0  0  0  0  0  0  0  0  0  0
   27.1950  -20.8813  -12.8107 C   0  0  0  0  0  0  0  0  0  0  0  0
   26.4990  -21.7932  -13.3294 O   0  0  0  0  0  0  0  0  0  0  0  0
   27.5283  -20.2612   -7.3962 C   0  0  0  0  0  0  0  0  0  0  0  0
   27.2675  -20.8559   -8.7301 C   0  0  0  0  0  0  0  0  0  0  0  0
   25.9204  -20.5424   -9.3062 C   0  0  2  0  0  0  0  0  0  0  0  0
   24.7810  -20.9253   -8.4208 C   0  0  0  0  0  0  0  0  0  0  0  0
   25.7741  -21.0579  -10.7275 C   0  0  2  0  0  0  0  0  0  0  0  0
   26.9031  -20.5087  -11.4900 N   0  0  0  0  0  0  0  0  0  0  0  0
   24.5238  -20.5701  -11.3533 C   0  0  0  0  0  0  0  0  0  0  0  0
   24.2935  -19.3371  -11.3283 O   0  0  0  0  0  0  0  0  0  0  0  0
   17.4730  -19.0130  -16.2465 O   0  0  0  0  0  0  0  0  0  0  0  0
   18.6409  -19.5283  -15.6988 C   0  0  0  0  0  0  0  0  0  0  0  0
   19.7889  -18.7665  -15.6410 C   0  0  0  0  0  0  0  0  0  0  0  0
   20.9758  -19.2091  -15.1147 C   0  0  0  0  0  0  0  0  0  0  0  0
   21.0579  -20.5074  -14.5977 C   0  0  0  0  0  0  0  0  0  0  0  0
   22.3373  -21.0187  -14.0549 C   0  0  0  0  0  0  0  0  0  0  0  0
   22.3906  -20.8042  -12.5894 C   0  0  2  0  0  0  0  0  0  0  0  0
   23.5709  -21.4000  -11.9778 N   0  0  0  0  0  0  0  0  0  0  0  0
   21.1629  -21.2268  -11.8934 C   0  0  0  0  0  0  0  0  0  0  0  0
   20.1900  -20.4641  -11.7831 O   0  0  0  0  0  0  0  0  0  0  0  0
   19.9119  -21.2761  -14.6528 C   0  0  0  0  0  0  0  0  0  0  0  0
   18.7334  -20.8035  -15.1877 C   0  0  0  0  0  0  0  0  0  0  0  0
   21.0805  -22.4956  -11.3481 O   0  0  0  0  0  0  0  0  0  0  0  0
  2  1  1  1
  2  4  1  0
  3  2  1  0
  4  5  1  6
  6  4  1  0
  6 13  1  0
  7  6  2  0
  9  8  1  0
 10  9  1  0
 10 12  1  0
 10 11  1  1
 12 14  1  0
 12 13  1  6
 14 23  1  0
 15 14  2  0
 16 17  1  0
 17 18  2  0
 18 19  1  0
 20 21  1  0
 20 19  2  0
 22 21  1  6
 22 24  1  0
 23 22  1  0
 24 25  2  0
 24 28  1  0
 26 20  1  0
 27 26  2  0
 27 17  1  0
M  END
$$$$
