VIY.pdb
     RDKit          3D

 28 28  0  0  1  0  0  0  0  0999 V2000
   16.8836  -12.7838  -18.7868 C   0  0  0  0  0  0  0  0  0  0  0  0
   17.6331  -11.8161  -17.9160 C   0  0  1  0  0  0  0  0  0  0  0  0
   16.6308  -11.0722  -17.0437 C   0  0  0  0  0  0  0  0  0  0  0  0
   18.6055  -12.5081  -16.9686 C   0  0  2  0  0  0  0  0  0  0  0  0
   17.8361  -13.5153  -16.2680 N   0  0  0  0  0  0  0  0  0  0  0  0
   19.0983  -11.4622  -16.0349 C   0  0  0  0  0  0  0  0  0  0  0  0
   18.4388  -11.2429  -14.9851 O   0  0  0  0  0  0  0  0  0  0  0  0
   24.0894  -11.3568  -14.5792 C   0  0  0  0  0  0  0  0  0  0  0  0
   22.6276  -11.1593  -14.7375 C   0  0  0  0  0  0  0  0  0  0  0  0
   22.2254   -9.8005  -15.2243 C   0  0  2  0  0  0  0  0  0  0  0  0
   22.8773   -8.6777  -14.4874 C   0  0  0  0  0  0  0  0  0  0  0  0
   20.7169   -9.6547  -15.3256 C   0  0  2  0  0  0  0  0  0  0  0  0
   20.2566  -10.7000  -16.2491 N   0  0  0  0  0  0  0  0  0  0  0  0
   20.3380   -8.3432  -15.8996 C   0  0  0  0  0  0  0  0  0  0  0  0
   20.7207   -8.0761  -17.0641 O   0  0  0  0  0  0  0  0  0  0  0  0
   16.9381   -0.6694  -18.1859 O   0  0  0  0  0  0  0  0  0  0  0  0
   17.1513   -1.9399  -17.6663 C   0  0  0  0  0  0  0  0  0  0  0  0
   16.9622   -2.1941  -16.3242 C   0  0  0  0  0  0  0  0  0  0  0  0
   17.1531   -3.4219  -15.7432 C   0  0  0  0  0  0  0  0  0  0  0  0
   17.5647   -4.5012  -16.5341 C   0  0  0  0  0  0  0  0  0  0  0  0
   17.8095   -5.8277  -15.9233 C   0  0  0  0  0  0  0  0  0  0  0  0
   19.2636   -6.1120  -15.8887 C   0  0  2  0  0  0  0  0  0  0  0  0
   19.5735   -7.3707  -15.2241 N   0  0  0  0  0  0  0  0  0  0  0  0
   20.0603   -5.0068  -15.3282 C   0  0  0  0  0  0  0  0  0  0  0  0
   20.2394   -4.8977  -14.1049 O   0  0  0  0  0  0  0  0  0  0  0  0
   17.7566   -4.2535  -17.8791 C   0  0  0  0  0  0  0  0  0  0  0  0
   17.5563   -3.0085  -18.4344 C   0  0  0  0  0  0  0  0  0  0  0  0
   20.6248   -4.0661  -16.1710 O   0  0  0  0  0  0  0  0  0  0  0  0
  2  1  1  1
  2  4  1  0
  3  2  1  0
  4  5  1  1
  6  4  1  0
  6 13  1  0
  7  6  2  0
  9  8  1  0
 10  9  1  0
 10 12  1  0
 10 11  1  1
 12 14  1  0
 12 13  1  6
 14 23  1  0
 15 14  2  0
 16 17  1  0
 17 18  2  0
 18 19  1  0
 20 21  1  0
 20 19  2  0
 22 21  1  1
 22 24  1  0
 23 22  1  0
 24 25  2  0
 24 28  1  0
 26 20  1  0
 27 26  2  0
 27 17  1  0
M  END
$$$$
