VIY.pdb
     RDKit          3D

 28 28  0  0  1  0  0  0  0  0999 V2000
   19.7533  -14.0750  -16.6888 C   0  0  0  0  0  0  0  0  0  0  0  0
   20.5108  -13.3160  -17.7407 C   0  0  1  0  0  0  0  0  0  0  0  0
   19.9713  -11.8930  -17.7946 C   0  0  0  0  0  0  0  0  0  0  0  0
   21.9986  -13.2061  -17.4304 C   0  0  2  0  0  0  0  0  0  0  0  0
   22.5781  -12.4326  -18.5088 N   0  0  0  0  0  0  0  0  0  0  0  0
   22.5290  -14.5943  -17.4193 C   0  0  0  0  0  0  0  0  0  0  0  0
   22.4346  -15.2760  -18.4736 O   0  0  0  0  0  0  0  0  0  0  0  0
   27.3578  -15.8546  -16.7752 C   0  0  0  0  0  0  0  0  0  0  0  0
   25.8881  -15.7897  -16.9666 C   0  0  0  0  0  0  0  0  0  0  0  0
   25.0866  -16.5303  -15.9399 C   0  0  2  0  0  0  0  0  0  0  0  0
   25.6540  -17.8626  -15.5768 C   0  0  0  0  0  0  0  0  0  0  0  0
   23.6117  -16.5847  -16.2986 C   0  0  2  0  0  0  0  0  0  0  0  0
   23.1310  -15.1968  -16.3044 N   0  0  0  0  0  0  0  0  0  0  0  0
   22.8352  -17.3296  -15.2811 C   0  0  0  0  0  0  0  0  0  0  0  0
   23.0010  -17.0276  -14.0748 O   0  0  0  0  0  0  0  0  0  0  0  0
   16.8876  -20.4496  -10.0247 O   0  0  0  0  0  0  0  0  0  0  0  0
   17.7713  -19.8250  -10.8957 C   0  0  0  0  0  0  0  0  0  0  0  0
   17.3427  -19.3565  -12.1197 C   0  0  0  0  0  0  0  0  0  0  0  0
   18.1578  -18.7307  -13.0282 C   0  0  0  0  0  0  0  0  0  0  0  0
   19.5109  -18.5417  -12.7232 C   0  0  0  0  0  0  0  0  0  0  0  0
   20.4174  -17.8987  -13.7018 C   0  0  0  0  0  0  0  0  0  0  0  0
   21.1117  -18.9308  -14.5074 C   0  0  2  0  0  0  0  0  0  0  0  0
   21.9188  -18.3588  -15.5768 N   0  0  0  0  0  0  0  0  0  0  0  0
   20.2072  -19.9720  -15.0254 C   0  0  0  0  0  0  0  0  0  0  0  0
   19.6353  -19.8423  -16.1193 O   0  0  0  0  0  0  0  0  0  0  0  0
   19.9472  -19.0089  -11.4990 C   0  0  0  0  0  0  0  0  0  0  0  0
   19.1039  -19.6339  -10.6065 C   0  0  0  0  0  0  0  0  0  0  0  0
   19.9828  -21.1207  -14.2879 O   0  0  0  0  0  0  0  0  0  0  0  0
  2  1  1  1
  2  4  1  0
  3  2  1  0
  4  5  1  6
  6  4  1  0
  6 13  1  0
  7  6  2  0
  9  8  1  0
 10  9  1  0
 10 12  1  0
 10 11  1  6
 12 14  1  0
 12 13  1  1
 14 23  1  0
 15 14  2  0
 16 17  1  0
 17 18  2  0
 18 19  1  0
 20 21  1  0
 20 19  2  0
 22 21  1  6
 22 24  1  0
 23 22  1  0
 24 25  2  0
 24 28  1  0
 26 20  1  0
 27 26  2  0
 27 17  1  0
M  END
$$$$
