VIY.pdb
     RDKit          3D

 28 28  0  0  1  0  0  0  0  0999 V2000
   26.5076  -18.4509  -15.6461 C   0  0  0  0  0  0  0  0  0  0  0  0
   27.3398  -19.5083  -16.3137 C   0  0  1  0  0  0  0  0  0  0  0  0
   28.2909  -18.8310  -17.2913 C   0  0  0  0  0  0  0  0  0  0  0  0
   28.2068  -20.2836  -15.3292 C   0  0  2  0  0  0  0  0  0  0  0  0
   28.8664  -21.3162  -16.1012 N   0  0  0  0  0  0  0  0  0  0  0  0
   27.2808  -20.8711  -14.3263 C   0  0  0  0  0  0  0  0  0  0  0  0
   26.5106  -21.7955  -14.6969 O   0  0  0  0  0  0  0  0  0  0  0  0
   28.7652  -21.0166   -9.1423 C   0  0  0  0  0  0  0  0  0  0  0  0
   28.0980  -21.3732  -10.4184 C   0  0  0  0  0  0  0  0  0  0  0  0
   26.7753  -20.7065  -10.6445 C   0  0  2  0  0  0  0  0  0  0  0  0
   25.7822  -20.9509   -9.5570 C   0  0  0  0  0  0  0  0  0  0  0  0
   26.2253  -20.9870  -12.0323 C   0  0  2  0  0  0  0  0  0  0  0  0
   27.2093  -20.4598  -12.9868 N   0  0  0  0  0  0  0  0  0  0  0  0
   24.9461  -20.2766  -12.2604 C   0  0  0  0  0  0  0  0  0  0  0  0
   24.9798  -19.0299  -12.3966 O   0  0  0  0  0  0  0  0  0  0  0  0
   18.4009  -17.8002  -17.1249 O   0  0  0  0  0  0  0  0  0  0  0  0
   19.5241  -18.2956  -16.4748 C   0  0  0  0  0  0  0  0  0  0  0  0
   19.8028  -19.6461  -16.4783 C   0  0  0  0  0  0  0  0  0  0  0  0
   20.8918  -20.2047  -15.8589 C   0  0  0  0  0  0  0  0  0  0  0  0
   21.7922  -19.3802  -15.1740 C   0  0  0  0  0  0  0  0  0  0  0  0
   22.9566  -19.9640  -14.4697 C   0  0  0  0  0  0  0  0  0  0  0  0
   22.6029  -20.2627  -13.0618 C   0  0  2  0  0  0  0  0  0  0  0  0
   23.6883  -20.9081  -12.3355 N   0  0  0  0  0  0  0  0  0  0  0  0
   21.3483  -21.0227  -12.9247 C   0  0  0  0  0  0  0  0  0  0  0  0
   21.3165  -22.2508  -13.1018 O   0  0  0  0  0  0  0  0  0  0  0  0
   21.5189  -18.0265  -15.1661 C   0  0  0  0  0  0  0  0  0  0  0  0
   20.4162  -17.4944  -15.7981 C   0  0  0  0  0  0  0  0  0  0  0  0
   20.1766  -20.3665  -12.5927 O   0  0  0  0  0  0  0  0  0  0  0  0
  2  1  1  1
  2  4  1  0
  3  2  1  0
  4  5  1  6
  6  4  1  0
  6 13  1  0
  7  6  2  0
  9  8  1  0
 10  9  1  0
 10 12  1  0
 10 11  1  1
 12 14  1  0
 12 13  1  6
 14 23  1  0
 15 14  2  0
 16 17  1  0
 17 18  2  0
 18 19  1  0
 20 21  1  0
 20 19  2  0
 22 21  1  6
 22 24  1  0
 23 22  1  0
 24 25  2  0
 24 28  1  0
 26 20  1  0
 27 26  2  0
 27 17  1  0
M  END
$$$$
