VIY.pdb
     RDKit          3D

 28 28  0  0  1  0  0  0  0  0999 V2000
   16.2367  -10.9694  -18.1966 C   0  0  0  0  0  0  0  0  0  0  0  0
   17.3798  -10.4665  -17.3619 C   0  0  1  0  0  0  0  0  0  0  0  0
   16.8124   -9.7074  -16.1700 C   0  0  0  0  0  0  0  0  0  0  0  0
   18.2341  -11.5932  -16.7939 C   0  0  2  0  0  0  0  0  0  0  0  0
   17.3111  -12.5351  -16.1955 N   0  0  0  0  0  0  0  0  0  0  0  0
   19.1140  -10.9765  -15.7672 C   0  0  0  0  0  0  0  0  0  0  0  0
   18.7244  -10.9797  -14.5699 O   0  0  0  0  0  0  0  0  0  0  0  0
   24.0512  -12.3723  -15.2726 C   0  0  0  0  0  0  0  0  0  0  0  0
   22.7027  -11.7919  -15.0589 C   0  0  0  0  0  0  0  0  0  0  0  0
   22.6167  -10.3096  -15.2598 C   0  0  2  0  0  0  0  0  0  0  0  0
   23.6677   -9.5395  -14.5311 C   0  0  0  0  0  0  0  0  0  0  0  0
   21.2127   -9.7822  -15.0196 C   0  0  2  0  0  0  0  0  0  0  0  0
   20.3564  -10.3883  -16.0476 N   0  0  0  0  0  0  0  0  0  0  0  0
   21.1515   -8.3121  -15.1870 C   0  0  0  0  0  0  0  0  0  0  0  0
   21.4330   -7.8343  -16.3124 O   0  0  0  0  0  0  0  0  0  0  0  0
   19.8832    0.2602  -15.1125 O   0  0  0  0  0  0  0  0  0  0  0  0
   19.8340   -1.0843  -14.7667 C   0  0  0  0  0  0  0  0  0  0  0  0
   20.6635   -1.5920  -13.7891 C   0  0  0  0  0  0  0  0  0  0  0  0
   20.6693   -2.9064  -13.3968 C   0  0  0  0  0  0  0  0  0  0  0  0
   19.7921   -3.8108  -14.0069 C   0  0  0  0  0  0  0  0  0  0  0  0
   19.8035   -5.2410  -13.6234 C   0  0  0  0  0  0  0  0  0  0  0  0
   20.7990   -5.9784  -14.4369 C   0  0  2  0  0  0  0  0  0  0  0  0
   20.7971   -7.4094  -14.1642 N   0  0  0  0  0  0  0  0  0  0  0  0
   22.1595   -5.4221  -14.3380 C   0  0  0  0  0  0  0  0  0  0  0  0
   22.8666   -5.6233  -13.3379 O   0  0  0  0  0  0  0  0  0  0  0  0
   18.9588   -3.3090  -14.9872 C   0  0  0  0  0  0  0  0  0  0  0  0
   18.9757   -1.9827  -15.3600 C   0  0  0  0  0  0  0  0  0  0  0  0
   22.6703   -4.6593  -15.3729 O   0  0  0  0  0  0  0  0  0  0  0  0
  2  1  1  1
  2  4  1  0
  3  2  1  0
  4  5  1  1
  6  4  1  0
  6 13  1  0
  7  6  2  0
  9  8  1  0
 10  9  1  0
 10 12  1  0
 10 11  1  1
 12 14  1  0
 12 13  1  6
 14 23  1  0
 15 14  2  0
 16 17  1  0
 17 18  2  0
 18 19  1  0
 20 21  1  0
 20 19  2  0
 22 21  1  1
 22 24  1  0
 23 22  1  0
 24 25  2  0
 24 28  1  0
 26 20  1  0
 27 26  2  0
 27 17  1  0
M  END
$$$$
