VIY.pdb
     RDKit          3D

 28 28  0  0  1  0  0  0  0  0999 V2000
   28.6803  -17.9823  -15.8226 C   0  0  0  0  0  0  0  0  0  0  0  0
   27.6337  -18.8000  -15.1209 C   0  0  1  0  0  0  0  0  0  0  0  0
   26.6880  -19.3767  -16.1659 C   0  0  0  0  0  0  0  0  0  0  0  0
   28.2217  -19.9851  -14.3647 C   0  0  2  0  0  0  0  0  0  0  0  0
   28.8429  -20.8307  -15.3629 N   0  0  0  0  0  0  0  0  0  0  0  0
   27.0792  -20.6751  -13.7113 C   0  0  0  0  0  0  0  0  0  0  0  0
   26.5243  -21.6223  -14.3279 O   0  0  0  0  0  0  0  0  0  0  0  0
   26.7230  -20.1340   -8.2638 C   0  0  0  0  0  0  0  0  0  0  0  0
   26.6720  -20.7805   -9.5981 C   0  0  0  0  0  0  0  0  0  0  0  0
   25.4076  -20.5410  -10.3654 C   0  0  2  0  0  0  0  0  0  0  0  0
   24.1733  -20.9740   -9.6458 C   0  0  0  0  0  0  0  0  0  0  0  0
   25.4921  -21.0752  -11.7848 C   0  0  2  0  0  0  0  0  0  0  0  0
   26.5767  -20.3374  -12.4456 N   0  0  0  0  0  0  0  0  0  0  0  0
   24.2427  -20.8144  -12.5357 C   0  0  0  0  0  0  0  0  0  0  0  0
   23.9074  -19.6207  -12.7267 O   0  0  0  0  0  0  0  0  0  0  0  0
   17.0890  -20.8049  -17.5516 O   0  0  0  0  0  0  0  0  0  0  0  0
   18.2506  -21.1888  -16.8936 C   0  0  0  0  0  0  0  0  0  0  0  0
   19.4509  -20.5639  -17.1587 C   0  0  0  0  0  0  0  0  0  0  0  0
   20.6351  -20.8898  -16.5479 C   0  0  0  0  0  0  0  0  0  0  0  0
   20.6585  -21.9141  -15.5939 C   0  0  0  0  0  0  0  0  0  0  0  0
   21.9309  -22.3060  -14.9458 C   0  0  0  0  0  0  0  0  0  0  0  0
   22.1889  -21.4443  -13.7679 C   0  0  2  0  0  0  0  0  0  0  0  0
   23.4012  -21.8200  -13.0528 N   0  0  0  0  0  0  0  0  0  0  0  0
   21.0399  -21.3518  -12.8505 C   0  0  0  0  0  0  0  0  0  0  0  0
   20.9595  -22.0738  -11.8441 O   0  0  0  0  0  0  0  0  0  0  0  0
   19.4598  -22.5446  -15.3239 C   0  0  0  0  0  0  0  0  0  0  0  0
   18.2855  -22.1947  -15.9540 C   0  0  0  0  0  0  0  0  0  0  0  0
   20.0248  -20.4470  -13.1047 O   0  0  0  0  0  0  0  0  0  0  0  0
  2  1  1  6
  2  4  1  0
  3  2  1  0
  4  5  1  6
  6  4  1  0
  6 13  1  0
  7  6  2  0
  9  8  1  0
 10  9  1  0
 10 12  1  0
 10 11  1  1
 12 14  1  0
 12 13  1  6
 14 23  1  0
 15 14  2  0
 16 17  1  0
 17 18  2  0
 18 19  1  0
 20 21  1  0
 20 19  2  0
 22 21  1  6
 22 24  1  0
 23 22  1  0
 24 25  2  0
 24 28  1  0
 26 20  1  0
 27 26  2  0
 27 17  1  0
M  END
$$$$
