VIY.pdb
     RDKit          3D

 28 28  0  0  1  0  0  0  0  0999 V2000
   24.7975  -14.4006  -16.0647 C   0  0  0  0  0  0  0  0  0  0  0  0
   24.7091  -15.8037  -16.5936 C   0  0  1  0  0  0  0  0  0  0  0  0
   23.4245  -15.9377  -17.4003 C   0  0  0  0  0  0  0  0  0  0  0  0
   25.8541  -16.1501  -17.5375 C   0  0  2  0  0  0  0  0  0  0  0  0
   25.4299  -15.7275  -18.8561 N   0  0  0  0  0  0  0  0  0  0  0  0
   26.0196  -17.6256  -17.4734 C   0  0  0  0  0  0  0  0  0  0  0  0
   25.1584  -18.3465  -18.0424 O   0  0  0  0  0  0  0  0  0  0  0  0
   28.2100  -20.3571  -19.3233 C   0  0  0  0  0  0  0  0  0  0  0  0
   29.0904  -19.8228  -18.2554 C   0  0  0  0  0  0  0  0  0  0  0  0
   28.6239  -20.0991  -16.8586 C   0  0  2  0  0  0  0  0  0  0  0  0
   28.9536  -21.4715  -16.3723 C   0  0  0  0  0  0  0  0  0  0  0  0
   27.1644  -19.7279  -16.6609 C   0  0  2  0  0  0  0  0  0  0  0  0
   27.0787  -18.2698  -16.8163 N   0  0  0  0  0  0  0  0  0  0  0  0
   26.7005  -20.0668  -15.2961 C   0  0  0  0  0  0  0  0  0  0  0  0
   27.5213  -19.9674  -14.3524 O   0  0  0  0  0  0  0  0  0  0  0  0
   24.0749  -21.4633   -7.3358 O   0  0  0  0  0  0  0  0  0  0  0  0
   24.3432  -21.0573   -8.6369 C   0  0  0  0  0  0  0  0  0  0  0  0
   25.6321  -21.0660   -9.1270 C   0  0  0  0  0  0  0  0  0  0  0  0
   25.9701  -20.6797  -10.3990 C   0  0  0  0  0  0  0  0  0  0  0  0
   24.9687  -20.2456  -11.2756 C   0  0  0  0  0  0  0  0  0  0  0  0
   25.3137  -19.7922  -12.6424 C   0  0  0  0  0  0  0  0  0  0  0  0
   25.0739  -20.8830  -13.6166 C   0  0  2  0  0  0  0  0  0  0  0  0
   25.3946  -20.4950  -14.9835 N   0  0  0  0  0  0  0  0  0  0  0  0
   23.7179  -21.4525  -13.5318 C   0  0  0  0  0  0  0  0  0  0  0  0
   22.7415  -20.8676  -14.0270 O   0  0  0  0  0  0  0  0  0  0  0  0
   23.6755  -20.2339  -10.7911 C   0  0  0  0  0  0  0  0  0  0  0  0
   23.3666  -20.6283   -9.5076 C   0  0  0  0  0  0  0  0  0  0  0  0
   23.5157  -22.6616  -12.8907 O   0  0  0  0  0  0  0  0  0  0  0  0
  2  1  1  6
  2  4  1  0
  3  2  1  0
  4  5  1  6
  6  4  1  0
  6 13  1  0
  7  6  2  0
  9  8  1  0
 10  9  1  0
 10 12  1  0
 10 11  1  6
 12 14  1  0
 12 13  1  1
 14 23  1  0
 15 14  2  0
 16 17  1  0
 17 18  2  0
 18 19  1  0
 20 21  1  0
 20 19  2  0
 22 21  1  1
 22 24  1  0
 23 22  1  0
 24 25  2  0
 24 28  1  0
 26 20  1  0
 27 26  2  0
 27 17  1  0
M  END
$$$$
