VIY.pdb
     RDKit          3D

 28 28  0  0  1  0  0  0  0  0999 V2000
   28.3281  -18.1323  -16.3003 C   0  0  0  0  0  0  0  0  0  0  0  0
   27.3275  -18.9281  -15.5116 C   0  0  1  0  0  0  0  0  0  0  0  0
   26.2949  -19.4989  -16.4743 C   0  0  0  0  0  0  0  0  0  0  0  0
   27.9554  -20.1157  -14.7923 C   0  0  2  0  0  0  0  0  0  0  0  0
   28.4690  -20.9875  -15.8284 N   0  0  0  0  0  0  0  0  0  0  0  0
   26.8609  -20.7722  -14.0310 C   0  0  0  0  0  0  0  0  0  0  0  0
   26.2925  -21.7702  -14.5469 O   0  0  0  0  0  0  0  0  0  0  0  0
   26.9811  -20.2561   -8.6371 C   0  0  0  0  0  0  0  0  0  0  0  0
   26.7593  -20.8422   -9.9818 C   0  0  0  0  0  0  0  0  0  0  0  0
   25.4292  -20.5255  -10.5946 C   0  0  2  0  0  0  0  0  0  0  0  0
   24.2647  -20.9365   -9.7556 C   0  0  0  0  0  0  0  0  0  0  0  0
   25.3334  -21.0100  -12.0310 C   0  0  2  0  0  0  0  0  0  0  0  0
   26.4183  -20.3494  -12.7686 N   0  0  0  0  0  0  0  0  0  0  0  0
   24.0511  -20.6073  -12.6528 C   0  0  0  0  0  0  0  0  0  0  0  0
   23.7605  -19.3869  -12.6682 O   0  0  0  0  0  0  0  0  0  0  0  0
   16.6544  -19.6609  -17.1288 O   0  0  0  0  0  0  0  0  0  0  0  0
   17.8989  -20.0849  -16.6801 C   0  0  0  0  0  0  0  0  0  0  0  0
   18.0420  -21.2968  -16.0382 C   0  0  0  0  0  0  0  0  0  0  0  0
   19.2378  -21.7786  -15.5697 C   0  0  0  0  0  0  0  0  0  0  0  0
   20.4003  -21.0171  -15.7385 C   0  0  0  0  0  0  0  0  0  0  0  0
   21.6968  -21.5013  -15.2117 C   0  0  0  0  0  0  0  0  0  0  0  0
   21.9101  -20.9914  -13.8366 C   0  0  2  0  0  0  0  0  0  0  0  0
   23.1312  -21.5052  -13.2309 N   0  0  0  0  0  0  0  0  0  0  0  0
   20.7512  -21.2000  -12.9513 C   0  0  0  0  0  0  0  0  0  0  0  0
   19.8744  -20.3310  -12.8224 O   0  0  0  0  0  0  0  0  0  0  0  0
   20.2641  -19.8019  -16.3803 C   0  0  0  0  0  0  0  0  0  0  0  0
   19.0486  -19.3444  -16.8404 C   0  0  0  0  0  0  0  0  0  0  0  0
   20.6264  -22.3828  -12.2447 O   0  0  0  0  0  0  0  0  0  0  0  0
  2  1  1  6
  2  4  1  0
  3  2  1  0
  4  5  1  6
  6  4  1  0
  6 13  1  0
  7  6  2  0
  9  8  1  0
 10  9  1  0
 10 12  1  0
 10 11  1  1
 12 14  1  0
 12 13  1  6
 14 23  1  0
 15 14  2  0
 16 17  1  0
 17 18  2  0
 18 19  1  0
 20 21  1  0
 20 19  2  0
 22 21  1  6
 22 24  1  0
 23 22  1  0
 24 25  2  0
 24 28  1  0
 26 20  1  0
 27 26  2  0
 27 17  1  0
M  END
$$$$
