VIY.pdb
     RDKit          3D

 28 28  0  0  1  0  0  0  0  0999 V2000
   27.3923  -23.9877  -20.4874 C   0  0  0  0  0  0  0  0  0  0  0  0
   26.6372  -22.9448  -19.7137 C   0  0  1  0  0  0  0  0  0  0  0  0
   27.6179  -22.2030  -18.8155 C   0  0  0  0  0  0  0  0  0  0  0  0
   25.9922  -21.8971  -20.6128 C   0  0  2  0  0  0  0  0  0  0  0  0
   27.0745  -21.2784  -21.3497 N   0  0  0  0  0  0  0  0  0  0  0  0
   25.3289  -20.9202  -19.7103 C   0  0  0  0  0  0  0  0  0  0  0  0
   25.8719  -19.7959  -19.5481 O   0  0  0  0  0  0  0  0  0  0  0  0
   20.8477  -17.9225  -18.4870 C   0  0  0  0  0  0  0  0  0  0  0  0
   21.1956  -19.1871  -17.7938 C   0  0  0  0  0  0  0  0  0  0  0  0
   22.0059  -20.1488  -18.6084 C   0  0  2  0  0  0  0  0  0  0  0  0
   21.3991  -21.5084  -18.7175 C   0  0  0  0  0  0  0  0  0  0  0  0
   23.4621  -20.1754  -18.1773 C   0  0  2  0  0  0  0  0  0  0  0  0
   24.1311  -21.1715  -19.0244 N   0  0  0  0  0  0  0  0  0  0  0  0
   23.6009  -20.6108  -16.7687 C   0  0  0  0  0  0  0  0  0  0  0  0
   23.2017  -21.7607  -16.4647 O   0  0  0  0  0  0  0  0  0  0  0  0
   24.8287  -21.5709   -8.1502 O   0  0  0  0  0  0  0  0  0  0  0  0
   24.8859  -21.1005   -9.4560 C   0  0  0  0  0  0  0  0  0  0  0  0
   25.7528  -21.6608  -10.3703 C   0  0  0  0  0  0  0  0  0  0  0  0
   25.8625  -21.2482  -11.6738 C   0  0  0  0  0  0  0  0  0  0  0  0
   25.0594  -20.1975  -12.1332 C   0  0  0  0  0  0  0  0  0  0  0  0
   25.1839  -19.7128  -13.5269 C   0  0  0  0  0  0  0  0  0  0  0  0
   24.1089  -20.2934  -14.3658 C   0  0  2  0  0  0  0  0  0  0  0  0
   24.1531  -19.8185  -15.7422 N   0  0  0  0  0  0  0  0  0  0  0  0
   22.7637  -20.1230  -13.7897 C   0  0  0  0  0  0  0  0  0  0  0  0
   22.2051  -21.0449  -13.1744 O   0  0  0  0  0  0  0  0  0  0  0  0
   24.1891  -19.6314  -11.2225 C   0  0  0  0  0  0  0  0  0  0  0  0
   24.1013  -20.0679   -9.9186 C   0  0  0  0  0  0  0  0  0  0  0  0
   22.1002  -18.9173  -13.9303 O   0  0  0  0  0  0  0  0  0  0  0  0
  2  1  1  6
  2  4  1  0
  3  2  1  0
  4  5  1  1
  6  4  1  0
  6 13  1  0
  7  6  2  0
  9  8  1  0
 10  9  1  0
 10 12  1  0
 10 11  1  1
 12 14  1  0
 12 13  1  6
 14 23  1  0
 15 14  2  0
 16 17  1  0
 17 18  2  0
 18 19  1  0
 20 21  1  0
 20 19  2  0
 22 21  1  1
 22 24  1  0
 23 22  1  0
 24 25  2  0
 24 28  1  0
 26 20  1  0
 27 26  2  0
 27 17  1  0
M  END
$$$$
