VIY.pdb
     RDKit          3D

 28 28  0  0  1  0  0  0  0  0999 V2000
   25.3256  -15.3428  -20.6239 C   0  0  0  0  0  0  0  0  0  0  0  0
   24.2434  -16.0126  -19.8261 C   0  0  1  0  0  0  0  0  0  0  0  0
   23.3553  -16.8007  -20.7795 C   0  0  0  0  0  0  0  0  0  0  0  0
   24.7908  -17.0121  -18.8144 C   0  0  2  0  0  0  0  0  0  0  0  0
   25.6318  -17.9225  -19.5636 N   0  0  0  0  0  0  0  0  0  0  0  0
   23.6145  -17.7158  -18.2405 C   0  0  0  0  0  0  0  0  0  0  0  0
   22.7229  -17.0256  -17.6804 O   0  0  0  0  0  0  0  0  0  0  0  0
   20.7586  -21.5583  -20.5833 C   0  0  0  0  0  0  0  0  0  0  0  0
   21.1504  -20.4873  -19.6345 C   0  0  0  0  0  0  0  0  0  0  0  0
   21.9209  -20.9572  -18.4385 C   0  0  2  0  0  0  0  0  0  0  0  0
   21.2495  -22.0543  -17.6805 C   0  0  0  0  0  0  0  0  0  0  0  0
   22.3635  -19.8030  -17.5558 C   0  0  2  0  0  0  0  0  0  0  0  0
   23.4328  -19.1064  -18.2830 N   0  0  0  0  0  0  0  0  0  0  0  0
   22.9268  -20.2873  -16.2748 C   0  0  0  0  0  0  0  0  0  0  0  0
   23.9529  -21.0081  -16.3166 O   0  0  0  0  0  0  0  0  0  0  0  0
   26.0043  -21.7972   -8.3587 O   0  0  0  0  0  0  0  0  0  0  0  0
   25.5445  -21.2655   -9.5568 C   0  0  0  0  0  0  0  0  0  0  0  0
   24.4164  -20.4731   -9.5901 C   0  0  0  0  0  0  0  0  0  0  0  0
   23.9061  -19.9152  -10.7346 C   0  0  0  0  0  0  0  0  0  0  0  0
   24.5468  -20.1460  -11.9577 C   0  0  0  0  0  0  0  0  0  0  0  0
   23.9955  -19.5818  -13.2110 C   0  0  0  0  0  0  0  0  0  0  0  0
   23.0259  -20.5278  -13.8120 C   0  0  2  0  0  0  0  0  0  0  0  0
   22.3868  -19.9926  -15.0067 N   0  0  0  0  0  0  0  0  0  0  0  0
   22.0241  -21.0237  -12.8525 C   0  0  0  0  0  0  0  0  0  0  0  0
   22.1769  -22.1052  -12.2630 O   0  0  0  0  0  0  0  0  0  0  0  0
   25.6770  -20.9392  -11.9317 C   0  0  0  0  0  0  0  0  0  0  0  0
   26.1662  -21.4859  -10.7655 C   0  0  0  0  0  0  0  0  0  0  0  0
   20.8870  -20.2790  -12.5948 O   0  0  0  0  0  0  0  0  0  0  0  0
  2  1  1  6
  2  4  1  0
  3  2  1  0
  4  5  1  6
  6  4  1  0
  6 13  1  0
  7  6  2  0
  9  8  1  0
 10  9  1  0
 10 12  1  0
 10 11  1  1
 12 14  1  0
 12 13  1  6
 14 23  1  0
 15 14  2  0
 16 17  1  0
 17 18  2  0
 18 19  1  0
 20 21  1  0
 20 19  2  0
 22 21  1  1
 22 24  1  0
 23 22  1  0
 24 25  2  0
 24 28  1  0
 26 20  1  0
 27 26  2  0
 27 17  1  0
M  END
$$$$
