KWS.pdb
     RDKit          3D

 30 31  0  0  1  0  0  0  0  0999 V2000
    7.2690  -15.9683   20.7696 N   0  0  0  0  0  0  0  0  0  0  0  0
    8.3329  -15.0248   20.5842 C   0  0  1  0  0  0  0  0  0  0  0  0
    7.8026  -13.6816   20.1180 C   0  0  0  0  0  0  0  0  0  0  0  0
    7.1413  -13.9295   18.7866 C   0  0  0  0  0  0  0  0  0  0  0  0
    8.0358  -13.5454   17.6460 C   0  0  0  0  0  0  0  0  0  0  0  0
    7.2984  -13.6646   16.3533 C   0  0  0  0  0  0  0  0  0  0  0  0
    8.1974  -13.1997   15.3017 N   0  0  0  0  0  0  0  0  0  0  0  0
    9.1484  -14.9334   21.8066 C   0  0  0  0  0  0  0  0  0  0  0  0
   10.1013  -14.1386   21.8510 O   0  0  0  0  0  0  0  0  0  0  0  0
    8.8247  -15.7637   22.9148 N   0  0  0  0  0  0  0  0  0  0  0  0
    9.5936  -15.7599   24.1303 C   0  0  1  0  0  0  0  0  0  0  0  0
    8.8751  -16.0720   25.3767 C   0  0  0  0  0  0  0  0  0  0  0  0
    7.5867  -15.4113   25.6017 C   0  0  0  0  0  0  0  0  0  0  0  0
    6.2847  -15.8031   25.5153 C   0  0  0  0  0  0  0  0  0  0  0  0
    5.4277  -14.8168   25.8393 N   0  0  0  0  0  0  0  0  0  0  0  0
    6.1910  -13.7450   26.1477 C   0  0  0  0  0  0  0  0  0  0  0  0
    5.7953  -12.4867   26.5441 C   0  0  0  0  0  0  0  0  0  0  0  0
    6.7867  -11.5639   26.8022 C   0  0  0  0  0  0  0  0  0  0  0  0
    8.1237  -11.8669   26.6752 C   0  0  0  0  0  0  0  0  0  0  0  0
    8.5001  -13.1339   26.2761 C   0  0  0  0  0  0  0  0  0  0  0  0
    7.5229  -14.0725   26.0129 C   0  0  0  0  0  0  0  0  0  0  0  0
   10.7562  -16.6914   23.9541 C   0  0  0  0  0  0  0  0  0  0  0  0
   10.5390  -17.9139   23.7866 O   0  0  0  0  0  0  0  0  0  0  0  0
   15.5806  -17.0825   23.3964 O   0  0  0  0  0  0  0  0  0  0  0  0
   14.4494  -16.2888   23.6624 C   0  0  0  0  0  0  0  0  0  0  0  0
   13.2321  -17.1903   23.7946 C   0  0  2  0  0  0  0  0  0  0  0  0
   12.1009  -16.2663   23.9651 N   0  0  0  0  0  0  0  0  0  0  0  0
   13.4159  -18.0422   24.9698 C   0  0  0  0  0  0  0  0  0  0  0  0
   13.0920  -17.5760   26.2193 O   0  0  0  0  0  0  0  0  0  0  0  0
   13.8701  -19.2012   24.8339 O   0  0  0  0  0  0  0  0  0  0  0  0
  2  1  1  1
  3  4  1  0
  3  2  1  0
  5  6  1  0
  5  4  1  0
  7  6  1  0
  8  2  1  0
  8  9  2  0
 10  8  1  0
 11 10  1  0
 11 12  1  1
 13 12  1  0
 14 13  2  0
 15 14  1  0
 16 21  2  0
 16 15  1  0
 17 16  1  0
 18 17  2  0
 18 19  1  0
 19 20  2  0
 20 21  1  0
 21 13  1  0
 22 11  1  0
 23 22  2  0
 25 24  1  0
 26 25  1  1
 26 28  1  0
 26 27  1  0
 27 22  1  0
 28 29  1  0
 30 28  2  0
M  END
$$$$
