KWS.pdb
     RDKit          3D

 30 31  0  0  1  0  0  0  0  0999 V2000
    7.7223  -15.6689   18.5616 N   0  0  0  0  0  0  0  0  0  0  0  0
    8.5691  -14.5564   18.8805 C   0  0  1  0  0  0  0  0  0  0  0  0
    8.0869  -13.2860   18.2052 C   0  0  0  0  0  0  0  0  0  0  0  0
    7.6727  -13.6817   16.8112 C   0  0  0  0  0  0  0  0  0  0  0  0
    8.8163  -13.5819   15.8464 C   0  0  0  0  0  0  0  0  0  0  0  0
    8.3692  -13.9786   14.4783 C   0  0  0  0  0  0  0  0  0  0  0  0
    9.5243  -13.8513   13.5953 N   0  0  0  0  0  0  0  0  0  0  0  0
    8.7015  -14.4222   20.3408 C   0  0  0  0  0  0  0  0  0  0  0  0
    9.3781  -13.4945   20.8133 O   0  0  0  0  0  0  0  0  0  0  0  0
    8.0484  -15.3650   21.1816 N   0  0  0  0  0  0  0  0  0  0  0  0
    8.1182  -15.2950   22.6165 C   0  0  1  0  0  0  0  0  0  0  0  0
    6.8424  -15.3287   23.3502 C   0  0  0  0  0  0  0  0  0  0  0  0
    6.8828  -15.0846   24.7945 C   0  0  0  0  0  0  0  0  0  0  0  0
    6.8326  -15.8805   25.8991 C   0  0  0  0  0  0  0  0  0  0  0  0
    6.9185  -15.1777   27.0442 N   0  0  0  0  0  0  0  0  0  0  0  0
    7.0284  -13.8811   26.6794 C   0  0  0  0  0  0  0  0  0  0  0  0
    7.1459  -12.7650   27.4779 C   0  0  0  0  0  0  0  0  0  0  0  0
    7.2449  -11.5433   26.8466 C   0  0  0  0  0  0  0  0  0  0  0  0
    7.2292  -11.4213   25.4753 C   0  0  0  0  0  0  0  0  0  0  0  0
    7.1102  -12.5521   24.6922 C   0  0  0  0  0  0  0  0  0  0  0  0
    7.0099  -13.7850   25.3047 C   0  0  0  0  0  0  0  0  0  0  0  0
    9.0226  -16.3911   23.0971 C   0  0  0  0  0  0  0  0  0  0  0  0
    8.7529  -17.5785   22.8021 O   0  0  0  0  0  0  0  0  0  0  0  0
   12.5576  -16.2034   22.6969 O   0  0  0  0  0  0  0  0  0  0  0  0
   12.4857  -16.6686   24.0231 C   0  0  0  0  0  0  0  0  0  0  0  0
   11.0975  -17.2360   24.2742 C   0  0  2  0  0  0  0  0  0  0  0  0
   10.1775  -16.1611   23.8732 N   0  0  0  0  0  0  0  0  0  0  0  0
   10.9779  -17.5462   25.6990 C   0  0  0  0  0  0  0  0  0  0  0  0
   11.7844  -18.4989   26.2693 O   0  0  0  0  0  0  0  0  0  0  0  0
   10.1365  -16.9390   26.4000 O   0  0  0  0  0  0  0  0  0  0  0  0
  2  1  1  1
  3  4  1  0
  3  2  1  0
  5  6  1  0
  5  4  1  0
  7  6  1  0
  8  2  1  0
  8  9  2  0
 10  8  1  0
 11 10  1  0
 11 12  1  1
 13 12  1  0
 14 13  2  0
 15 14  1  0
 16 21  2  0
 16 15  1  0
 17 16  1  0
 18 17  2  0
 18 19  1  0
 19 20  2  0
 20 21  1  0
 21 13  1  0
 22 11  1  0
 23 22  2  0
 25 24  1  0
 26 25  1  1
 26 28  1  0
 26 27  1  0
 27 22  1  0
 28 29  1  0
 30 28  2  0
M  END
$$$$
