KWS.pdb
     RDKit          3D

 30 31  0  0  1  0  0  0  0  0999 V2000
    7.3681  -15.9258   20.6163 N   0  0  0  0  0  0  0  0  0  0  0  0
    8.4560  -15.0458   20.3027 C   0  0  1  0  0  0  0  0  0  0  0  0
    7.9536  -13.6761   19.8851 C   0  0  0  0  0  0  0  0  0  0  0  0
    7.4455  -13.8266   18.4742 C   0  0  0  0  0  0  0  0  0  0  0  0
    8.4812  -13.4210   17.4685 C   0  0  0  0  0  0  0  0  0  0  0  0
    7.8908  -13.4176   16.0972 C   0  0  0  0  0  0  0  0  0  0  0  0
    8.9760  -13.1348   15.1631 N   0  0  0  0  0  0  0  0  0  0  0  0
    9.4081  -14.9966   21.4247 C   0  0  0  0  0  0  0  0  0  0  0  0
   10.4809  -14.3855   21.2934 O   0  0  0  0  0  0  0  0  0  0  0  0
    9.0754  -15.6556   22.6402 N   0  0  0  0  0  0  0  0  0  0  0  0
    9.9539  -15.6601   23.7790 C   0  0  1  0  0  0  0  0  0  0  0  0
    9.6390  -14.7229   24.8698 C   0  0  0  0  0  0  0  0  0  0  0  0
    8.2373  -14.6045   25.2802 C   0  0  0  0  0  0  0  0  0  0  0  0
    7.1648  -15.4445   25.2683 C   0  0  0  0  0  0  0  0  0  0  0  0
    6.0565  -14.8714   25.7739 N   0  0  0  0  0  0  0  0  0  0  0  0
    6.4130  -13.6169   26.1282 C   0  0  0  0  0  0  0  0  0  0  0  0
    5.6418  -12.6258   26.6939 C   0  0  0  0  0  0  0  0  0  0  0  0
    6.2568  -11.4213   26.9618 C   0  0  0  0  0  0  0  0  0  0  0  0
    7.5863  -11.1970   26.6831 C   0  0  0  0  0  0  0  0  0  0  0  0
    8.3425  -12.2031   26.1156 C   0  0  0  0  0  0  0  0  0  0  0  0
    7.7457  -13.4168   25.8397 C   0  0  0  0  0  0  0  0  0  0  0  0
   10.0331  -17.0623   24.3061 C   0  0  0  0  0  0  0  0  0  0  0  0
    8.9762  -17.7174   24.4595 O   0  0  0  0  0  0  0  0  0  0  0  0
   13.6214  -18.7088   24.7508 O   0  0  0  0  0  0  0  0  0  0  0  0
   12.5834  -19.6521   24.6361 C   0  0  0  0  0  0  0  0  0  0  0  0
   11.3067  -19.0551   25.2068 C   0  0  2  0  0  0  0  0  0  0  0  0
   11.2459  -17.6978   24.6440 N   0  0  0  0  0  0  0  0  0  0  0  0
   11.4219  -19.0308   26.6651 C   0  0  0  0  0  0  0  0  0  0  0  0
   11.5429  -20.2028   27.3688 O   0  0  0  0  0  0  0  0  0  0  0  0
   11.4104  -17.9359   27.2725 O   0  0  0  0  0  0  0  0  0  0  0  0
  2  1  1  1
  3  4  1  0
  3  2  1  0
  5  6  1  0
  5  4  1  0
  7  6  1  0
  8  2  1  0
  8  9  2  0
 10  8  1  0
 11 10  1  0
 11 12  1  1
 13 12  1  0
 14 13  2  0
 15 14  1  0
 16 21  2  0
 16 15  1  0
 17 16  1  0
 18 17  2  0
 18 19  1  0
 19 20  2  0
 20 21  1  0
 21 13  1  0
 22 11  1  0
 23 22  2  0
 25 24  1  0
 26 25  1  6
 26 28  1  0
 26 27  1  0
 27 22  1  0
 28 29  1  0
 30 28  2  0
M  END
$$$$
