KWS.pdb
     RDKit          3D

 30 31  0  0  1  0  0  0  0  0999 V2000
    7.4316  -15.9282   20.8628 N   0  0  0  0  0  0  0  0  0  0  0  0
    8.4643  -14.9332   20.8603 C   0  0  1  0  0  0  0  0  0  0  0  0
    7.9227  -13.5785   20.4433 C   0  0  0  0  0  0  0  0  0  0  0  0
    7.3563  -13.7600   19.0585 C   0  0  0  0  0  0  0  0  0  0  0  0
    8.3661  -13.4269   18.0012 C   0  0  0  0  0  0  0  0  0  0  0  0
    7.7974  -13.6936   16.6467 C   0  0  0  0  0  0  0  0  0  0  0  0
    8.8108  -13.3042   15.6712 N   0  0  0  0  0  0  0  0  0  0  0  0
    9.1472  -14.9080   22.1644 C   0  0  0  0  0  0  0  0  0  0  0  0
    9.9608  -14.0040   22.4141 O   0  0  0  0  0  0  0  0  0  0  0  0
    8.8584  -15.9270   23.1135 N   0  0  0  0  0  0  0  0  0  0  0  0
    9.5281  -16.0082   24.3837 C   0  0  1  0  0  0  0  0  0  0  0  0
    8.6791  -16.1257   25.5807 C   0  0  0  0  0  0  0  0  0  0  0  0
    7.4839  -15.2809   25.6512 C   0  0  0  0  0  0  0  0  0  0  0  0
    6.1538  -15.4892   25.4428 C   0  0  0  0  0  0  0  0  0  0  0  0
    5.4207  -14.3786   25.6465 N   0  0  0  0  0  0  0  0  0  0  0  0
    6.2970  -13.4121   25.9994 C   0  0  0  0  0  0  0  0  0  0  0  0
    6.0503  -12.0941   26.3144 C   0  0  0  0  0  0  0  0  0  0  0  0
    7.1345  -11.3094   26.6454 C   0  0  0  0  0  0  0  0  0  0  0  0
    8.4197  -11.8028   26.6663 C   0  0  0  0  0  0  0  0  0  0  0  0
    8.6463  -13.1267   26.3469 C   0  0  0  0  0  0  0  0  0  0  0  0
    7.5743  -13.9294   26.0128 C   0  0  0  0  0  0  0  0  0  0  0  0
   10.5064  -17.1441   24.3277 C   0  0  0  0  0  0  0  0  0  0  0  0
   10.1467  -18.2353   23.8282 O   0  0  0  0  0  0  0  0  0  0  0  0
   14.1600  -17.1591   23.5143 O   0  0  0  0  0  0  0  0  0  0  0  0
   14.0939  -17.7445   24.7923 C   0  0  0  0  0  0  0  0  0  0  0  0
   12.6761  -18.2351   25.0394 C   0  0  2  0  0  0  0  0  0  0  0  0
   11.8284  -17.0554   24.8107 N   0  0  0  0  0  0  0  0  0  0  0  0
   12.5862  -18.7052   26.4220 C   0  0  0  0  0  0  0  0  0  0  0  0
   13.3464  -19.7679   26.8417 O   0  0  0  0  0  0  0  0  0  0  0  0
   11.8128  -18.1347   27.2247 O   0  0  0  0  0  0  0  0  0  0  0  0
  2  1  1  1
  3  4  1  0
  3  2  1  0
  5  6  1  0
  5  4  1  0
  7  6  1  0
  8  2  1  0
  8  9  2  0
 10  8  1  0
 11 10  1  0
 11 12  1  1
 13 12  1  0
 14 13  2  0
 15 14  1  0
 16 21  2  0
 16 15  1  0
 17 16  1  0
 18 17  2  0
 18 19  1  0
 19 20  2  0
 20 21  1  0
 21 13  1  0
 22 11  1  0
 23 22  2  0
 25 24  1  0
 26 25  1  1
 26 28  1  0
 26 27  1  0
 27 22  1  0
 28 29  1  0
 30 28  2  0
M  END
$$$$
