KWS.pdb
     RDKit          3D

 30 31  0  0  1  0  0  0  0  0999 V2000
    7.1655  -17.1553   21.2248 N   0  0  0  0  0  0  0  0  0  0  0  0
    8.1128  -16.1948   20.7386 C   0  0  1  0  0  0  0  0  0  0  0  0
    7.4193  -15.0533   20.0184 C   0  0  0  0  0  0  0  0  0  0  0  0
    8.4205  -14.5076   19.0329 C   0  0  0  0  0  0  0  0  0  0  0  0
    7.7810  -14.1926   17.7136 C   0  0  0  0  0  0  0  0  0  0  0  0
    8.2773  -12.8802   17.2035 C   0  0  0  0  0  0  0  0  0  0  0  0
    7.5945  -12.6250   15.9390 N   0  0  0  0  0  0  0  0  0  0  0  0
    8.9855  -15.7434   21.8351 C   0  0  0  0  0  0  0  0  0  0  0  0
    9.8954  -14.9316   21.6012 O   0  0  0  0  0  0  0  0  0  0  0  0
    8.7655  -16.2517   23.1449 N   0  0  0  0  0  0  0  0  0  0  0  0
    9.6325  -15.9372   24.2486 C   0  0  1  0  0  0  0  0  0  0  0  0
    9.0091  -15.8258   25.5776 C   0  0  0  0  0  0  0  0  0  0  0  0
    7.7111  -15.1514   25.6646 C   0  0  0  0  0  0  0  0  0  0  0  0
    6.4154  -15.5551   25.5454 C   0  0  0  0  0  0  0  0  0  0  0  0
    5.5431  -14.5451   25.7226 N   0  0  0  0  0  0  0  0  0  0  0  0
    6.2897  -13.4451   25.9656 C   0  0  0  0  0  0  0  0  0  0  0  0
    5.8743  -12.1554   26.2135 C   0  0  0  0  0  0  0  0  0  0  0  0
    6.8511  -11.2077   26.4339 C   0  0  0  0  0  0  0  0  0  0  0  0
    8.1927  -11.5163   26.4115 C   0  0  0  0  0  0  0  0  0  0  0  0
    8.5889  -12.8149   26.1608 C   0  0  0  0  0  0  0  0  0  0  0  0
    7.6265  -13.7788   25.9377 C   0  0  0  0  0  0  0  0  0  0  0  0
   10.7411  -16.9474   24.2782 C   0  0  0  0  0  0  0  0  0  0  0  0
   10.4601  -18.1575   24.4406 O   0  0  0  0  0  0  0  0  0  0  0  0
   14.5364  -15.6366   24.1977 O   0  0  0  0  0  0  0  0  0  0  0  0
   14.3954  -16.9120   23.6199 C   0  0  0  0  0  0  0  0  0  0  0  0
   13.1854  -17.6012   24.2308 C   0  0  2  0  0  0  0  0  0  0  0  0
   12.1027  -16.6110   24.1311 N   0  0  0  0  0  0  0  0  0  0  0  0
   13.4949  -17.9251   25.6236 C   0  0  0  0  0  0  0  0  0  0  0  0
   14.4820  -18.8313   25.9199 O   0  0  0  0  0  0  0  0  0  0  0  0
   12.8563  -17.3724   26.5482 O   0  0  0  0  0  0  0  0  0  0  0  0
  2  1  1  1
  3  4  1  0
  3  2  1  0
  5  6  1  0
  5  4  1  0
  7  6  1  0
  8  2  1  0
  8  9  2  0
 10  8  1  0
 11 10  1  0
 11 12  1  1
 13 12  1  0
 14 13  2  0
 15 14  1  0
 16 21  2  0
 16 15  1  0
 17 16  1  0
 18 17  2  0
 18 19  1  0
 19 20  2  0
 20 21  1  0
 21 13  1  0
 22 11  1  0
 23 22  2  0
 25 24  1  0
 26 25  1  1
 26 28  1  0
 26 27  1  0
 27 22  1  0
 28 29  1  0
 30 28  2  0
M  END
$$$$
