KWS.pdb
     RDKit          3D

 30 31  0  0  1  0  0  0  0  0999 V2000
    7.3168  -16.5069   21.1619 N   0  0  0  0  0  0  0  0  0  0  0  0
    8.4274  -15.6336   20.9162 C   0  0  1  0  0  0  0  0  0  0  0  0
    7.9765  -14.3390   20.2657 C   0  0  0  0  0  0  0  0  0  0  0  0
    7.6946  -14.6692   18.8225 C   0  0  0  0  0  0  0  0  0  0  0  0
    8.2170  -13.6077   17.9012 C   0  0  0  0  0  0  0  0  0  0  0  0
    7.9539  -13.9862   16.4812 C   0  0  0  0  0  0  0  0  0  0  0  0
    8.4062  -12.8752   15.6497 N   0  0  0  0  0  0  0  0  0  0  0  0
    9.1914  -15.4235   22.1572 C   0  0  0  0  0  0  0  0  0  0  0  0
   10.1271  -14.6075   22.1714 O   0  0  0  0  0  0  0  0  0  0  0  0
    8.8385  -16.1655   23.3179 N   0  0  0  0  0  0  0  0  0  0  0  0
    9.5412  -16.0247   24.5649 C   0  0  1  0  0  0  0  0  0  0  0  0
    8.7263  -15.9822   25.7902 C   0  0  0  0  0  0  0  0  0  0  0  0
    7.4892  -15.1974   25.7563 C   0  0  0  0  0  0  0  0  0  0  0  0
    6.1751  -15.4949   25.5549 C   0  0  0  0  0  0  0  0  0  0  0  0
    5.3838  -14.4083   25.6309 N   0  0  0  0  0  0  0  0  0  0  0  0
    6.2043  -13.3662   25.8901 C   0  0  0  0  0  0  0  0  0  0  0  0
    5.8864  -12.0369   26.0609 C   0  0  0  0  0  0  0  0  0  0  0  0
    6.9240  -11.1668   26.3201 C   0  0  0  0  0  0  0  0  0  0  0  0
    8.2318  -11.5883   26.4089 C   0  0  0  0  0  0  0  0  0  0  0  0
    8.5299  -12.9250   26.2342 C   0  0  0  0  0  0  0  0  0  0  0  0
    7.5054  -13.8126   25.9739 C   0  0  0  0  0  0  0  0  0  0  0  0
   10.5600  -17.1219   24.6569 C   0  0  0  0  0  0  0  0  0  0  0  0
   10.1721  -18.3049   24.7978 O   0  0  0  0  0  0  0  0  0  0  0  0
   14.4608  -16.1714   24.3842 O   0  0  0  0  0  0  0  0  0  0  0  0
   14.1545  -17.4719   23.9422 C   0  0  0  0  0  0  0  0  0  0  0  0
   12.9402  -17.9803   24.7032 C   0  0  2  0  0  0  0  0  0  0  0  0
   11.9509  -16.8979   24.5924 N   0  0  0  0  0  0  0  0  0  0  0  0
   13.3328  -18.2134   26.0933 C   0  0  0  0  0  0  0  0  0  0  0  0
   14.2320  -19.2034   26.4011 O   0  0  0  0  0  0  0  0  0  0  0  0
   12.8462  -17.5059   27.0047 O   0  0  0  0  0  0  0  0  0  0  0  0
  2  1  1  1
  3  4  1  0
  3  2  1  0
  5  6  1  0
  5  4  1  0
  7  6  1  0
  8  2  1  0
  8  9  2  0
 10  8  1  0
 11 10  1  0
 11 12  1  1
 13 12  1  0
 14 13  2  0
 15 14  1  0
 16 21  2  0
 16 15  1  0
 17 16  1  0
 18 17  2  0
 18 19  1  0
 19 20  2  0
 20 21  1  0
 21 13  1  0
 22 11  1  0
 23 22  2  0
 25 24  1  0
 26 25  1  6
 26 28  1  0
 26 27  1  0
 27 22  1  0
 28 29  1  0
 30 28  2  0
M  END
$$$$
