KWS.pdb
     RDKit          3D

 30 31  0  0  1  0  0  0  0  0999 V2000
    7.5298  -16.9429   21.3504 N   0  0  0  0  0  0  0  0  0  0  0  0
    8.4398  -15.8709   21.0690 C   0  0  1  0  0  0  0  0  0  0  0  0
    7.7133  -14.6675   20.4975 C   0  0  0  0  0  0  0  0  0  0  0  0
    7.7212  -14.8431   19.0007 C   0  0  0  0  0  0  0  0  0  0  0  0
    7.8929  -13.5328   18.2921 C   0  0  0  0  0  0  0  0  0  0  0  0
    7.7084  -13.7167   16.8220 C   0  0  0  0  0  0  0  0  0  0  0  0
    7.6467  -12.3853   16.2272 N   0  0  0  0  0  0  0  0  0  0  0  0
    9.2347  -15.5530   22.2669 C   0  0  0  0  0  0  0  0  0  0  0  0
   10.1471  -14.7141   22.1936 O   0  0  0  0  0  0  0  0  0  0  0  0
    8.9381  -16.2194   23.4877 N   0  0  0  0  0  0  0  0  0  0  0  0
    9.7202  -16.0274   24.6794 C   0  0  1  0  0  0  0  0  0  0  0  0
    8.9932  -16.0031   25.9593 C   0  0  0  0  0  0  0  0  0  0  0  0
    7.6997  -15.3153   25.9928 C   0  0  0  0  0  0  0  0  0  0  0  0
    6.4064  -15.7048   25.8147 C   0  0  0  0  0  0  0  0  0  0  0  0
    5.5377  -14.6864   25.9586 N   0  0  0  0  0  0  0  0  0  0  0  0
    6.2842  -13.5954   26.2397 C   0  0  0  0  0  0  0  0  0  0  0  0
    5.8718  -12.3027   26.4757 C   0  0  0  0  0  0  0  0  0  0  0  0
    6.8478  -11.3664   26.7435 C   0  0  0  0  0  0  0  0  0  0  0  0
    8.1858  -11.6891   26.7785 C   0  0  0  0  0  0  0  0  0  0  0  0
    8.5791  -12.9906   26.5388 C   0  0  0  0  0  0  0  0  0  0  0  0
    7.6174  -13.9433   26.2688 C   0  0  0  0  0  0  0  0  0  0  0  0
   10.7929  -17.0756   24.7116 C   0  0  0  0  0  0  0  0  0  0  0  0
   10.4647  -18.2845   24.7339 O   0  0  0  0  0  0  0  0  0  0  0  0
   14.6356  -15.9005   24.6888 O   0  0  0  0  0  0  0  0  0  0  0  0
   14.4223  -17.1547   24.0872 C   0  0  0  0  0  0  0  0  0  0  0  0
   13.2134  -17.8140   24.7323 C   0  0  2  0  0  0  0  0  0  0  0  0
   12.1712  -16.7766   24.7177 N   0  0  0  0  0  0  0  0  0  0  0  0
   13.5731  -18.1994   26.0971 C   0  0  0  0  0  0  0  0  0  0  0  0
   14.5339  -19.1548   26.3153 O   0  0  0  0  0  0  0  0  0  0  0  0
   13.0019  -17.6546   27.0691 O   0  0  0  0  0  0  0  0  0  0  0  0
  2  1  1  1
  3  4  1  0
  3  2  1  0
  5  6  1  0
  5  4  1  0
  7  6  1  0
  8  2  1  0
  8  9  2  0
 10  8  1  0
 11 10  1  0
 11 12  1  1
 13 12  1  0
 14 13  2  0
 15 14  1  0
 16 21  2  0
 16 15  1  0
 17 16  1  0
 18 17  2  0
 18 19  1  0
 19 20  2  0
 20 21  1  0
 21 13  1  0
 22 11  1  0
 23 22  2  0
 25 24  1  0
 26 25  1  1
 26 28  1  0
 26 27  1  0
 27 22  1  0
 28 29  1  0
 30 28  2  0
M  END
$$$$
