KWS.pdb
     RDKit          3D

 30 31  0  0  1  0  0  0  0  0999 V2000
    9.3106  -16.5130   18.3690 N   0  0  0  0  0  0  0  0  0  0  0  0
    9.7958  -17.3740   19.4081 C   0  0  1  0  0  0  0  0  0  0  0  0
   11.1769  -17.9097   19.0792 C   0  0  0  0  0  0  0  0  0  0  0  0
   10.9849  -18.9205   17.9779 C   0  0  0  0  0  0  0  0  0  0  0  0
   12.2894  -19.5206   17.5460 C   0  0  0  0  0  0  0  0  0  0  0  0
   12.0587  -20.5274   16.4680 C   0  0  0  0  0  0  0  0  0  0  0  0
   13.3660  -21.0464   16.0783 N   0  0  0  0  0  0  0  0  0  0  0  0
    9.7359  -16.6841   20.7074 C   0  0  0  0  0  0  0  0  0  0  0  0
   10.7113  -16.0216   21.0964 O   0  0  0  0  0  0  0  0  0  0  0  0
    8.5553  -16.7943   21.4925 N   0  0  0  0  0  0  0  0  0  0  0  0
    8.4258  -16.1673   22.7804 C   0  0  1  0  0  0  0  0  0  0  0  0
    7.0601  -15.8863   23.2528 C   0  0  0  0  0  0  0  0  0  0  0  0
    6.9075  -15.3415   24.6045 C   0  0  0  0  0  0  0  0  0  0  0  0
    6.5332  -15.8615   25.8068 C   0  0  0  0  0  0  0  0  0  0  0  0
    6.5572  -14.9459   26.7935 N   0  0  0  0  0  0  0  0  0  0  0  0
    6.9597  -13.7899   26.2207 C   0  0  0  0  0  0  0  0  0  0  0  0
    7.1463  -12.5555   26.8026 C   0  0  0  0  0  0  0  0  0  0  0  0
    7.5681  -11.5284   25.9853 C   0  0  0  0  0  0  0  0  0  0  0  0
    7.7993  -11.7074   24.6399 C   0  0  0  0  0  0  0  0  0  0  0  0
    7.6061  -12.9525   24.0754 C   0  0  0  0  0  0  0  0  0  0  0  0
    7.1840  -13.9943   24.8764 C   0  0  0  0  0  0  0  0  0  0  0  0
    9.1613  -17.0028   23.7861 C   0  0  0  0  0  0  0  0  0  0  0  0
    8.9053  -18.2266   23.8671 O   0  0  0  0  0  0  0  0  0  0  0  0
   12.5316  -15.7973   25.0644 O   0  0  0  0  0  0  0  0  0  0  0  0
   12.2783  -17.1271   25.4490 C   0  0  0  0  0  0  0  0  0  0  0  0
   10.7884  -17.2939   25.7024 C   0  0  2  0  0  0  0  0  0  0  0  0
   10.1401  -16.4849   24.6594 N   0  0  0  0  0  0  0  0  0  0  0  0
   10.4900  -16.7877   27.0423 C   0  0  0  0  0  0  0  0  0  0  0  0
   10.9938  -17.4231   28.1495 O   0  0  0  0  0  0  0  0  0  0  0  0
    9.7725  -15.7705   27.1782 O   0  0  0  0  0  0  0  0  0  0  0  0
  2  1  1  6
  3  4  1  0
  3  2  1  0
  5  6  1  0
  5  4  1  0
  7  6  1  0
  8  2  1  0
  8  9  2  0
 10  8  1  0
 11 10  1  0
 11 12  1  1
 13 12  1  0
 14 13  2  0
 15 14  1  0
 16 21  2  0
 16 15  1  0
 17 16  1  0
 18 17  2  0
 18 19  1  0
 19 20  2  0
 20 21  1  0
 21 13  1  0
 22 11  1  0
 23 22  2  0
 25 24  1  0
 26 25  1  6
 26 28  1  0
 26 27  1  0
 27 22  1  0
 28 29  1  0
 30 28  2  0
M  END
$$$$
