KWS.pdb
     RDKit          3D

 30 31  0  0  1  0  0  0  0  0999 V2000
    7.2223  -16.9004   21.3805 N   0  0  0  0  0  0  0  0  0  0  0  0
    8.2790  -16.0028   21.0144 C   0  0  1  0  0  0  0  0  0  0  0  0
    7.7356  -14.7630   20.3287 C   0  0  0  0  0  0  0  0  0  0  0  0
    8.3425  -14.7450   18.9493 C   0  0  0  0  0  0  0  0  0  0  0  0
    7.8658  -13.5680   18.1519 C   0  0  0  0  0  0  0  0  0  0  0  0
    8.3852  -13.6509   16.7546 C   0  0  0  0  0  0  0  0  0  0  0  0
    7.8515  -12.5023   16.0292 N   0  0  0  0  0  0  0  0  0  0  0  0
    9.1140  -15.6971   22.1880 C   0  0  0  0  0  0  0  0  0  0  0  0
   10.0607  -14.9015   22.0775 O   0  0  0  0  0  0  0  0  0  0  0  0
    8.8158  -16.3253   23.4285 N   0  0  0  0  0  0  0  0  0  0  0  0
    9.6161  -16.1226   24.6062 C   0  0  1  0  0  0  0  0  0  0  0  0
    8.8985  -15.9343   25.8777 C   0  0  0  0  0  0  0  0  0  0  0  0
    7.6403  -15.1841   25.8430 C   0  0  0  0  0  0  0  0  0  0  0  0
    6.3345  -15.5184   25.6449 C   0  0  0  0  0  0  0  0  0  0  0  0
    5.5138  -14.4537   25.7180 N   0  0  0  0  0  0  0  0  0  0  0  0
    6.3056  -13.3883   25.9719 C   0  0  0  0  0  0  0  0  0  0  0  0
    5.9515  -12.0677   26.1381 C   0  0  0  0  0  0  0  0  0  0  0  0
    6.9652  -11.1684   26.3922 C   0  0  0  0  0  0  0  0  0  0  0  0
    8.2842  -11.5533   26.4804 C   0  0  0  0  0  0  0  0  0  0  0  0
    8.6188  -12.8820   26.3104 C   0  0  0  0  0  0  0  0  0  0  0  0
    7.6187  -13.7984   26.0552 C   0  0  0  0  0  0  0  0  0  0  0  0
   10.5828  -17.2640   24.7198 C   0  0  0  0  0  0  0  0  0  0  0  0
   10.1454  -18.4380   24.7069 O   0  0  0  0  0  0  0  0  0  0  0  0
   14.6098  -16.5676   24.7413 O   0  0  0  0  0  0  0  0  0  0  0  0
   14.1559  -17.8042   24.2461 C   0  0  0  0  0  0  0  0  0  0  0  0
   12.9090  -18.2167   25.0125 C   0  0  2  0  0  0  0  0  0  0  0  0
   11.9773  -17.0919   24.8414 N   0  0  0  0  0  0  0  0  0  0  0  0
   13.2739  -18.4075   26.4164 C   0  0  0  0  0  0  0  0  0  0  0  0
   14.1038  -19.4378   26.7813 O   0  0  0  0  0  0  0  0  0  0  0  0
   12.8271  -17.6268   27.2875 O   0  0  0  0  0  0  0  0  0  0  0  0
  2  1  1  1
  3  4  1  0
  3  2  1  0
  5  6  1  0
  5  4  1  0
  7  6  1  0
  8  2  1  0
  8  9  2  0
 10  8  1  0
 11 10  1  0
 11 12  1  1
 13 12  1  0
 14 13  2  0
 15 14  1  0
 16 21  2  0
 16 15  1  0
 17 16  1  0
 18 17  2  0
 18 19  1  0
 19 20  2  0
 20 21  1  0
 21 13  1  0
 22 11  1  0
 23 22  2  0
 25 24  1  0
 26 25  1  6
 26 28  1  0
 26 27  1  0
 27 22  1  0
 28 29  1  0
 30 28  2  0
M  END
$$$$
