KWS.pdb
     RDKit          3D

 30 31  0  0  1  0  0  0  0  0999 V2000
    6.3436  -17.3701   21.0578 N   0  0  0  0  0  0  0  0  0  0  0  0
    7.6327  -16.9381   20.6020 C   0  0  1  0  0  0  0  0  0  0  0  0
    7.5140  -16.0417   19.3834 C   0  0  0  0  0  0  0  0  0  0  0  0
    8.1679  -16.7866   18.2480 C   0  0  0  0  0  0  0  0  0  0  0  0
    8.1819  -15.9720   16.9891 C   0  0  0  0  0  0  0  0  0  0  0  0
    8.8343  -16.7408   15.8880 C   0  0  0  0  0  0  0  0  0  0  0  0
    8.8673  -15.8700   14.7173 N   0  0  0  0  0  0  0  0  0  0  0  0
    8.3795  -16.3165   21.7083 C   0  0  0  0  0  0  0  0  0  0  0  0
    8.8430  -15.1729   21.5700 O   0  0  0  0  0  0  0  0  0  0  0  0
    8.5549  -17.0453   22.9168 N   0  0  0  0  0  0  0  0  0  0  0  0
    9.3407  -16.5430   24.0117 C   0  0  1  0  0  0  0  0  0  0  0  0
    8.6876  -16.4803   25.3296 C   0  0  0  0  0  0  0  0  0  0  0  0
    7.5113  -15.6169   25.4644 C   0  0  0  0  0  0  0  0  0  0  0  0
    6.1655  -15.8222   25.4134 C   0  0  0  0  0  0  0  0  0  0  0  0
    5.4643  -14.6902   25.6120 N   0  0  0  0  0  0  0  0  0  0  0  0
    6.3784  -13.7125   25.7991 C   0  0  0  0  0  0  0  0  0  0  0  0
    6.1738  -12.3722   26.0418 C   0  0  0  0  0  0  0  0  0  0  0  0
    7.2913  -11.5801   26.1985 C   0  0  0  0  0  0  0  0  0  0  0  0
    8.5687  -12.0876   26.1194 C   0  0  0  0  0  0  0  0  0  0  0  0
    8.7529  -13.4339   25.8749 C   0  0  0  0  0  0  0  0  0  0  0  0
    7.6470  -14.2443   25.7152 C   0  0  0  0  0  0  0  0  0  0  0  0
   10.6016  -17.3513   24.0951 C   0  0  0  0  0  0  0  0  0  0  0  0
   10.5298  -18.5650   24.3977 O   0  0  0  0  0  0  0  0  0  0  0  0
   14.0953  -15.4953   23.4746 O   0  0  0  0  0  0  0  0  0  0  0  0
   14.1427  -16.8611   23.1388 C   0  0  0  0  0  0  0  0  0  0  0  0
   13.1159  -17.6117   23.9720 C   0  0  2  0  0  0  0  0  0  0  0  0
   11.8838  -16.8184   23.8485 N   0  0  0  0  0  0  0  0  0  0  0  0
   13.5915  -17.6594   25.3548 C   0  0  0  0  0  0  0  0  0  0  0  0
   14.7460  -18.3329   25.6660 O   0  0  0  0  0  0  0  0  0  0  0  0
   12.9422  -17.0828   26.2569 O   0  0  0  0  0  0  0  0  0  0  0  0
  2  1  1  1
  3  4  1  0
  3  2  1  0
  5  6  1  0
  5  4  1  0
  7  6  1  0
  8  2  1  0
  8  9  2  0
 10  8  1  0
 11 10  1  0
 11 12  1  1
 13 12  1  0
 14 13  2  0
 15 14  1  0
 16 21  2  0
 16 15  1  0
 17 16  1  0
 18 17  2  0
 18 19  1  0
 19 20  2  0
 20 21  1  0
 21 13  1  0
 22 11  1  0
 23 22  2  0
 25 24  1  0
 26 25  1  6
 26 28  1  0
 26 27  1  0
 27 22  1  0
 28 29  1  0
 30 28  2  0
M  END
$$$$
