KWS.pdb
     RDKit          3D

 30 31  0  0  1  0  0  0  0  0999 V2000
    7.9104  -16.1603   20.6392 N   0  0  0  0  0  0  0  0  0  0  0  0
    8.5703  -17.2058   21.3657 C   0  0  1  0  0  0  0  0  0  0  0  0
    9.5676  -17.9406   20.4894 C   0  0  0  0  0  0  0  0  0  0  0  0
    9.2463  -17.5518   19.0692 C   0  0  0  0  0  0  0  0  0  0  0  0
   10.0271  -18.3684   18.0832 C   0  0  0  0  0  0  0  0  0  0  0  0
    9.7152  -17.9276   16.6913 C   0  0  0  0  0  0  0  0  0  0  0  0
   10.5850  -18.6843   15.7963 N   0  0  0  0  0  0  0  0  0  0  0  0
    9.1686  -16.6669   22.5984 C   0  0  0  0  0  0  0  0  0  0  0  0
    9.9074  -15.6708   22.5378 O   0  0  0  0  0  0  0  0  0  0  0  0
    8.8859  -17.3046   23.8377 N   0  0  0  0  0  0  0  0  0  0  0  0
    9.4696  -16.8697   25.0781 C   0  0  1  0  0  0  0  0  0  0  0  0
    8.5421  -16.5083   26.1628 C   0  0  0  0  0  0  0  0  0  0  0  0
    7.4502  -15.5849   25.8434 C   0  0  0  0  0  0  0  0  0  0  0  0
    6.1791  -15.7344   25.3766 C   0  0  0  0  0  0  0  0  0  0  0  0
    5.5355  -14.5587   25.2500 N   0  0  0  0  0  0  0  0  0  0  0  0
    6.4116  -13.6088   25.6461 C   0  0  0  0  0  0  0  0  0  0  0  0
    6.2387  -12.2436   25.7053 C   0  0  0  0  0  0  0  0  0  0  0  0
    7.3032  -11.4902   26.1527 C   0  0  0  0  0  0  0  0  0  0  0  0
    8.4991  -12.0590   26.5298 C   0  0  0  0  0  0  0  0  0  0  0  0
    8.6527  -13.4294   26.4628 C   0  0  0  0  0  0  0  0  0  0  0  0
    7.5988  -14.2017   26.0177 C   0  0  0  0  0  0  0  0  0  0  0  0
   10.4262  -17.9273   25.5438 C   0  0  0  0  0  0  0  0  0  0  0  0
   10.0529  -19.1231   25.5612 O   0  0  0  0  0  0  0  0  0  0  0  0
   14.9800  -19.0092   26.8535 O   0  0  0  0  0  0  0  0  0  0  0  0
   14.0345  -18.0803   26.3806 C   0  0  0  0  0  0  0  0  0  0  0  0
   12.6447  -18.6862   26.4960 C   0  0  2  0  0  0  0  0  0  0  0  0
   11.7421  -17.6515   25.9694 N   0  0  0  0  0  0  0  0  0  0  0  0
   12.3806  -18.9663   27.9075 C   0  0  0  0  0  0  0  0  0  0  0  0
   13.0572  -19.9719   28.5513 O   0  0  0  0  0  0  0  0  0  0  0  0
   11.5341  -18.2850   28.5298 O   0  0  0  0  0  0  0  0  0  0  0  0
  2  1  1  6
  3  4  1  0
  3  2  1  0
  5  6  1  0
  5  4  1  0
  7  6  1  0
  8  2  1  0
  8  9  2  0
 10  8  1  0
 11 10  1  0
 11 12  1  1
 13 12  1  0
 14 13  2  0
 15 14  1  0
 16 21  2  0
 16 15  1  0
 17 16  1  0
 18 17  2  0
 18 19  1  0
 19 20  2  0
 20 21  1  0
 21 13  1  0
 22 11  1  0
 23 22  2  0
 25 24  1  0
 26 25  1  1
 26 28  1  0
 26 27  1  0
 27 22  1  0
 28 29  1  0
 30 28  2  0
M  END
$$$$
