KWS.pdb
     RDKit          3D

 30 31  0  0  1  0  0  0  0  0999 V2000
    9.6069  -18.1024   19.5149 N   0  0  0  0  0  0  0  0  0  0  0  0
   10.4932  -16.9859   19.6714 C   0  0  1  0  0  0  0  0  0  0  0  0
   10.4166  -16.0507   18.4789 C   0  0  0  0  0  0  0  0  0  0  0  0
   10.4612  -16.9270   17.2535 C   0  0  0  0  0  0  0  0  0  0  0  0
    9.5348  -16.4288   16.1848 C   0  0  0  0  0  0  0  0  0  0  0  0
   10.2243  -16.4439   14.8606 C   0  0  0  0  0  0  0  0  0  0  0  0
    9.2351  -16.0635   13.8571 N   0  0  0  0  0  0  0  0  0  0  0  0
   10.2369  -16.3111   20.9547 C   0  0  0  0  0  0  0  0  0  0  0  0
   10.9137  -15.3201   21.2733 O   0  0  0  0  0  0  0  0  0  0  0  0
    9.2145  -16.8139   21.8057 N   0  0  0  0  0  0  0  0  0  0  0  0
    8.8764  -16.1882   23.0558 C   0  0  1  0  0  0  0  0  0  0  0  0
    7.4542  -15.8893   23.2906 C   0  0  0  0  0  0  0  0  0  0  0  0
    7.0764  -15.3786   24.6111 C   0  0  0  0  0  0  0  0  0  0  0  0
    6.5316  -15.9340   25.7295 C   0  0  0  0  0  0  0  0  0  0  0  0
    6.3757  -15.0404   26.7243 N   0  0  0  0  0  0  0  0  0  0  0  0
    6.8324  -13.8627   26.2436 C   0  0  0  0  0  0  0  0  0  0  0  0
    6.8922  -12.6376   26.8702 C   0  0  0  0  0  0  0  0  0  0  0  0
    7.4099  -11.5829   26.1488 C   0  0  0  0  0  0  0  0  0  0  0  0
    7.8546  -11.7264   24.8537 C   0  0  0  0  0  0  0  0  0  0  0  0
    7.7858  -12.9627   24.2429 C   0  0  0  0  0  0  0  0  0  0  0  0
    7.2708  -14.0317   24.9480 C   0  0  0  0  0  0  0  0  0  0  0  0
    9.4191  -17.0363   24.1679 C   0  0  0  0  0  0  0  0  0  0  0  0
    9.0334  -18.2235   24.2742 O   0  0  0  0  0  0  0  0  0  0  0  0
   12.8213  -16.0337   25.7032 O   0  0  0  0  0  0  0  0  0  0  0  0
   12.4411  -17.3757   25.8898 C   0  0  0  0  0  0  0  0  0  0  0  0
   10.9438  -17.4348   26.1480 C   0  0  2  0  0  0  0  0  0  0  0  0
   10.3533  -16.5697   25.1158 N   0  0  0  0  0  0  0  0  0  0  0  0
   10.6884  -16.9216   27.4941 C   0  0  0  0  0  0  0  0  0  0  0  0
   11.1653  -17.5928   28.5921 O   0  0  0  0  0  0  0  0  0  0  0  0
   10.0325  -15.8655   27.6439 O   0  0  0  0  0  0  0  0  0  0  0  0
  2  1  1  6
  3  4  1  0
  3  2  1  0
  5  6  1  0
  5  4  1  0
  7  6  1  0
  8  2  1  0
  8  9  2  0
 10  8  1  0
 11 10  1  0
 11 12  1  1
 13 12  1  0
 14 13  2  0
 15 14  1  0
 16 21  2  0
 16 15  1  0
 17 16  1  0
 18 17  2  0
 18 19  1  0
 19 20  2  0
 20 21  1  0
 21 13  1  0
 22 11  1  0
 23 22  2  0
 25 24  1  0
 26 25  1  6
 26 28  1  0
 26 27  1  0
 27 22  1  0
 28 29  1  0
 30 28  2  0
M  END
$$$$
