KWS.pdb
     RDKit          3D

 30 31  0  0  1  0  0  0  0  0999 V2000
    7.4228  -16.3301   20.8623 N   0  0  0  0  0  0  0  0  0  0  0  0
    8.4710  -15.3667   20.6907 C   0  0  1  0  0  0  0  0  0  0  0  0
    7.9408  -14.0764   20.0936 C   0  0  0  0  0  0  0  0  0  0  0  0
    7.3821  -14.4372   18.7411 C   0  0  0  0  0  0  0  0  0  0  0  0
    8.0301  -13.6430   17.6466 C   0  0  0  0  0  0  0  0  0  0  0  0
    7.3821  -13.9507   16.3372 C   0  0  0  0  0  0  0  0  0  0  0  0
    7.9823  -13.0668   15.3429 N   0  0  0  0  0  0  0  0  0  0  0  0
    9.1879  -15.1658   21.9609 C   0  0  0  0  0  0  0  0  0  0  0  0
   10.0607  -14.2864   22.0410 O   0  0  0  0  0  0  0  0  0  0  0  0
    8.8631  -15.9899   23.0735 N   0  0  0  0  0  0  0  0  0  0  0  0
    9.5567  -15.8957   24.3300 C   0  0  1  0  0  0  0  0  0  0  0  0
    8.7554  -16.0800   25.5512 C   0  0  0  0  0  0  0  0  0  0  0  0
    7.5485  -15.2629   25.7015 C   0  0  0  0  0  0  0  0  0  0  0  0
    6.2110  -15.5165   25.6483 C   0  0  0  0  0  0  0  0  0  0  0  0
    5.4690  -14.4146   25.8665 N   0  0  0  0  0  0  0  0  0  0  0  0
    6.3469  -13.4071   26.0689 C   0  0  0  0  0  0  0  0  0  0  0  0
    6.0936  -12.0795   26.3340 C   0  0  0  0  0  0  0  0  0  0  0  0
    7.1815  -11.2495   26.5027 C   0  0  0  0  0  0  0  0  0  0  0  0
    8.4766  -11.7084   26.4140 C   0  0  0  0  0  0  0  0  0  0  0  0
    8.7097  -13.0428   26.1470 C   0  0  0  0  0  0  0  0  0  0  0  0
    7.6340  -13.8905   25.9749 C   0  0  0  0  0  0  0  0  0  0  0  0
   10.7014  -16.8650   24.3089 C   0  0  0  0  0  0  0  0  0  0  0  0
   10.5076  -18.0294   23.8889 O   0  0  0  0  0  0  0  0  0  0  0  0
   14.3409  -16.0761   23.5231 O   0  0  0  0  0  0  0  0  0  0  0  0
   14.3614  -16.7614   24.7520 C   0  0  0  0  0  0  0  0  0  0  0  0
   13.0657  -17.5423   24.9051 C   0  0  2  0  0  0  0  0  0  0  0  0
   12.0039  -16.5385   24.7399 N   0  0  0  0  0  0  0  0  0  0  0  0
   13.0428  -18.1384   26.2411 C   0  0  0  0  0  0  0  0  0  0  0  0
   13.9806  -19.0751   26.5965 O   0  0  0  0  0  0  0  0  0  0  0  0
   12.1639  -17.7914   27.0627 O   0  0  0  0  0  0  0  0  0  0  0  0
  2  1  1  1
  3  4  1  0
  3  2  1  0
  5  6  1  0
  5  4  1  0
  7  6  1  0
  8  2  1  0
  8  9  2  0
 10  8  1  0
 11 10  1  0
 11 12  1  1
 13 12  1  0
 14 13  2  0
 15 14  1  0
 16 21  2  0
 16 15  1  0
 17 16  1  0
 18 17  2  0
 18 19  1  0
 19 20  2  0
 20 21  1  0
 21 13  1  0
 22 11  1  0
 23 22  2  0
 25 24  1  0
 26 25  1  1
 26 28  1  0
 26 27  1  0
 27 22  1  0
 28 29  1  0
 30 28  2  0
M  END
$$$$
