TCD.pdb
     RDKit          3D

 22 21  0  0  1  0  0  0  0  0999 V2000
    6.6476  -15.6652   20.4414 C   0  0  0  0  0  0  0  0  0  0  0  0
    7.6237  -14.7046   19.8123 C   0  0  1  0  0  0  0  0  0  0  0  0
    7.3609  -14.6190   18.4613 O   0  0  0  0  0  0  0  0  0  0  0  0
    7.5101  -13.3219   20.4665 C   0  0  2  0  0  0  0  0  0  0  0  0
    8.2444  -12.3403   19.7171 N   0  0  0  0  0  0  0  0  0  0  0  0
    7.9760  -13.3841   21.8681 C   0  0  0  0  0  0  0  0  0  0  0  0
    9.2064  -13.5886   22.1093 O   0  0  0  0  0  0  0  0  0  0  0  0
    7.1325  -13.2286   22.9956 N   0  0  0  0  0  0  0  0  0  0  0  0
    7.5958  -13.4701   24.3608 C   0  0  1  0  0  0  0  0  0  0  0  0
    6.5440  -13.0037   25.3583 C   0  0  0  0  0  0  0  0  0  0  0  0
    7.0407  -13.3163   27.0640 S   0  0  0  0  0  0  0  0  0  0  0  0
    7.9280  -14.8794   24.5878 C   0  0  0  0  0  0  0  0  0  0  0  0
    7.1986  -15.8363   24.2111 O   0  0  0  0  0  0  0  0  0  0  0  0
    9.1272  -15.1938   25.2644 N   0  0  0  0  0  0  0  0  0  0  0  0
    9.5448  -16.5855   25.4242 C   0  0  1  0  0  0  0  0  0  0  0  0
   10.4612  -17.0179   24.3291 C   0  0  0  0  0  0  0  0  0  0  0  0
   10.9796  -18.3711   24.6169 C   0  0  0  0  0  0  0  0  0  0  0  0
   10.2567  -19.2870   25.1226 O   0  0  0  0  0  0  0  0  0  0  0  0
   10.2329  -16.6822   26.7172 C   0  0  0  0  0  0  0  0  0  0  0  0
   10.3403  -15.5915   27.5473 O   0  0  0  0  0  0  0  0  0  0  0  0
   12.2973  -18.7507   24.3575 O   0  0  0  0  0  0  0  0  0  0  0  0
   10.7301  -17.7630   27.0760 O   0  0  0  0  0  0  0  0  0  0  0  0
  2  1  1  1
  2  4  1  0
  3  2  1  0
  4  5  1  6
  6  8  1  0
  6  4  1  0
  7  6  2  0
  9  8  1  0
  9 12  1  0
  9 10  1  1
 11 10  1  0
 12 14  1  0
 12 13  2  0
 14 15  1  0
 15 19  1  0
 15 16  1  6
 16 17  1  0
 17 21  1  0
 18 17  2  0
 19 20  1  0
 22 19  2  0
M  END
$$$$
