TCD.pdb
     RDKit          3D

 22 21  0  0  1  0  0  0  0  0999 V2000
   10.2918  -17.1041   17.6486 C   0  0  0  0  0  0  0  0  0  0  0  0
    8.9298  -17.0149   18.2876 C   0  0  1  0  0  0  0  0  0  0  0  0
    7.9979  -17.5697   17.4359 O   0  0  0  0  0  0  0  0  0  0  0  0
    8.9228  -17.7464   19.6357 C   0  0  2  0  0  0  0  0  0  0  0  0
    7.5780  -17.9616   20.0932 N   0  0  0  0  0  0  0  0  0  0  0  0
    9.7112  -16.9868   20.6291 C   0  0  0  0  0  0  0  0  0  0  0  0
   10.9446  -16.7705   20.4149 O   0  0  0  0  0  0  0  0  0  0  0  0
    9.1827  -16.4661   21.8360 N   0  0  0  0  0  0  0  0  0  0  0  0
   10.0127  -15.7782   22.8232 C   0  0  1  0  0  0  0  0  0  0  0  0
    9.1507  -15.2907   23.9799 C   0  0  0  0  0  0  0  0  0  0  0  0
    7.6618  -14.4477   23.4082 S   0  0  0  0  0  0  0  0  0  0  0  0
   11.0993  -16.6290   23.3169 C   0  0  0  0  0  0  0  0  0  0  0  0
   10.9822  -17.8704   23.5030 O   0  0  0  0  0  0  0  0  0  0  0  0
   12.3489  -16.0363   23.6032 N   0  0  0  0  0  0  0  0  0  0  0  0
   13.4601  -16.8503   24.0927 C   0  0  1  0  0  0  0  0  0  0  0  0
   14.7808  -16.2363   23.7688 C   0  0  0  0  0  0  0  0  0  0  0  0
   14.9788  -16.2211   22.3048 C   0  0  0  0  0  0  0  0  0  0  0  0
   14.6551  -17.2004   21.5608 O   0  0  0  0  0  0  0  0  0  0  0  0
   13.3048  -16.9593   25.5483 C   0  0  0  0  0  0  0  0  0  0  0  0
   12.3273  -16.2566   26.2123 O   0  0  0  0  0  0  0  0  0  0  0  0
   15.5337  -15.1362   21.6246 O   0  0  0  0  0  0  0  0  0  0  0  0
   14.0646  -17.6957   26.1997 O   0  0  0  0  0  0  0  0  0  0  0  0
  2  1  1  6
  2  4  1  0
  3  2  1  0
  4  5  1  1
  6  8  1  0
  6  4  1  0
  7  6  2  0
  9  8  1  0
  9 12  1  0
  9 10  1  1
 11 10  1  0
 12 14  1  0
 12 13  2  0
 14 15  1  0
 15 19  1  0
 15 16  1  1
 16 17  1  0
 17 21  1  0
 18 17  2  0
 19 20  1  0
 22 19  2  0
M  END
$$$$
