TCD.pdb
     RDKit          3D

 22 21  0  0  1  0  0  0  0  0999 V2000
    6.4410  -15.0753   19.0728 C   0  0  0  0  0  0  0  0  0  0  0  0
    7.0900  -15.0598   20.4328 C   0  0  1  0  0  0  0  0  0  0  0  0
    8.2051  -15.8707   20.4067 O   0  0  0  0  0  0  0  0  0  0  0  0
    7.4802  -13.6286   20.8227 C   0  0  2  0  0  0  0  0  0  0  0  0
    8.3709  -13.0588   19.8499 N   0  0  0  0  0  0  0  0  0  0  0  0
    8.0832  -13.6170   22.1724 C   0  0  0  0  0  0  0  0  0  0  0  0
    9.3479  -13.6248   22.2920 O   0  0  0  0  0  0  0  0  0  0  0  0
    7.3386  -13.5969   23.3775 N   0  0  0  0  0  0  0  0  0  0  0  0
    7.9746  -13.6387   24.6930 C   0  0  1  0  0  0  0  0  0  0  0  0
    7.0620  -13.0036   25.7334 C   0  0  0  0  0  0  0  0  0  0  0  0
    7.8153  -12.9792   27.3723 S   0  0  0  0  0  0  0  0  0  0  0  0
    8.3306  -15.0043   25.0888 C   0  0  0  0  0  0  0  0  0  0  0  0
    7.5574  -15.9914   24.9574 O   0  0  0  0  0  0  0  0  0  0  0  0
    9.6058  -15.2381   25.6490 N   0  0  0  0  0  0  0  0  0  0  0  0
   10.0414  -16.5989   25.9574 C   0  0  1  0  0  0  0  0  0  0  0  0
   11.4683  -16.8218   25.5830 C   0  0  0  0  0  0  0  0  0  0  0  0
   11.5411  -17.4780   24.2613 C   0  0  0  0  0  0  0  0  0  0  0  0
   10.5721  -17.4663   23.4378 O   0  0  0  0  0  0  0  0  0  0  0  0
    9.8701  -16.7880   27.4030 C   0  0  0  0  0  0  0  0  0  0  0  0
    9.3568  -17.9584   27.9099 O   0  0  0  0  0  0  0  0  0  0  0  0
   12.6735  -18.1594   23.8129 O   0  0  0  0  0  0  0  0  0  0  0  0
   10.1910  -15.8810   28.1894 O   0  0  0  0  0  0  0  0  0  0  0  0
  2  1  1  6
  2  4  1  0
  3  2  1  0
  4  5  1  6
  6  8  1  0
  6  4  1  0
  7  6  2  0
  9  8  1  0
  9 12  1  0
  9 10  1  1
 11 10  1  0
 12 14  1  0
 12 13  2  0
 14 15  1  0
 15 19  1  0
 15 16  1  1
 16 17  1  0
 17 21  1  0
 18 17  2  0
 19 20  1  0
 22 19  2  0
M  END
$$$$
