TCD.pdb
     RDKit          3D

 22 21  0  0  1  0  0  0  0  0999 V2000
    8.9189  -15.1576   19.3919 C   0  0  0  0  0  0  0  0  0  0  0  0
    7.4544  -14.8780   19.6114 C   0  0  1  0  0  0  0  0  0  0  0  0
    6.8946  -15.9338   20.2996 O   0  0  0  0  0  0  0  0  0  0  0  0
    7.2710  -13.5727   20.3957 C   0  0  2  0  0  0  0  0  0  0  0  0
    7.8204  -12.4600   19.6714 N   0  0  0  0  0  0  0  0  0  0  0  0
    7.8846  -13.6952   21.7351 C   0  0  0  0  0  0  0  0  0  0  0  0
    9.1485  -13.6409   21.8509 O   0  0  0  0  0  0  0  0  0  0  0  0
    7.1513  -13.8732   22.9340 N   0  0  0  0  0  0  0  0  0  0  0  0
    7.7974  -14.1636   24.2127 C   0  0  1  0  0  0  0  0  0  0  0  0
    6.7852  -14.0530   25.3450 C   0  0  0  0  0  0  0  0  0  0  0  0
    6.2465  -12.3519   25.6097 S   0  0  0  0  0  0  0  0  0  0  0  0
    8.4328  -15.4843   24.2205 C   0  0  0  0  0  0  0  0  0  0  0  0
    7.9416  -16.4969   23.6522 O   0  0  0  0  0  0  0  0  0  0  0  0
    9.6616  -15.6425   24.8987 N   0  0  0  0  0  0  0  0  0  0  0  0
   10.3176  -16.9478   24.9486 C   0  0  1  0  0  0  0  0  0  0  0  0
   11.7484  -16.8646   24.5338 C   0  0  0  0  0  0  0  0  0  0  0  0
   12.3801  -18.1951   24.6499 C   0  0  0  0  0  0  0  0  0  0  0  0
   11.8674  -19.2421   24.1418 O   0  0  0  0  0  0  0  0  0  0  0  0
   10.2274  -17.4216   26.3350 C   0  0  0  0  0  0  0  0  0  0  0  0
   10.4949  -18.7314   26.6563 O   0  0  0  0  0  0  0  0  0  0  0  0
   13.5841  -18.4081   25.3225 O   0  0  0  0  0  0  0  0  0  0  0  0
    9.9044  -16.6337   27.2399 O   0  0  0  0  0  0  0  0  0  0  0  0
  2  1  1  1
  2  4  1  0
  3  2  1  0
  4  5  1  6
  6  8  1  0
  6  4  1  0
  7  6  2  0
  9  8  1  0
  9 12  1  0
  9 10  1  1
 11 10  1  0
 12 14  1  0
 12 13  2  0
 14 15  1  0
 15 19  1  0
 15 16  1  1
 16 17  1  0
 17 21  1  0
 18 17  2  0
 19 20  1  0
 22 19  2  0
M  END
$$$$
