TCD.pdb
     RDKit          3D

 22 21  0  0  1  0  0  0  0  0999 V2000
    7.7010  -16.3034   19.4501 C   0  0  0  0  0  0  0  0  0  0  0  0
    8.1154  -14.9754   18.8703 C   0  0  1  0  0  0  0  0  0  0  0  0
    7.6730  -14.8979   17.5665 O   0  0  0  0  0  0  0  0  0  0  0  0
    7.5333  -13.8246   19.7005 C   0  0  2  0  0  0  0  0  0  0  0  0
    7.7317  -12.5653   19.0378 N   0  0  0  0  0  0  0  0  0  0  0  0
    8.1339  -13.8192   21.0513 C   0  0  0  0  0  0  0  0  0  0  0  0
    9.3338  -13.4296   21.2003 O   0  0  0  0  0  0  0  0  0  0  0  0
    7.4554  -14.2263   22.2265 N   0  0  0  0  0  0  0  0  0  0  0  0
    8.1472  -14.4454   23.4953 C   0  0  1  0  0  0  0  0  0  0  0  0
    7.1353  -14.5621   24.6273 C   0  0  0  0  0  0  0  0  0  0  0  0
    6.2714  -13.0073   24.9281 S   0  0  0  0  0  0  0  0  0  0  0  0
    9.0093  -15.6300   23.4545 C   0  0  0  0  0  0  0  0  0  0  0  0
    8.6301  -16.7528   23.0245 O   0  0  0  0  0  0  0  0  0  0  0  0
   10.3382  -15.5189   23.9199 N   0  0  0  0  0  0  0  0  0  0  0  0
   11.2337  -16.6737   23.8869 C   0  0  1  0  0  0  0  0  0  0  0  0
   12.6532  -16.2677   23.6722 C   0  0  0  0  0  0  0  0  0  0  0  0
   13.5284  -17.4559   23.7414 C   0  0  0  0  0  0  0  0  0  0  0  0
   13.1214  -18.6232   23.4431 O   0  0  0  0  0  0  0  0  0  0  0  0
   11.1010  -17.3577   25.1790 C   0  0  0  0  0  0  0  0  0  0  0  0
   10.3116  -16.8398   26.1785 O   0  0  0  0  0  0  0  0  0  0  0  0
   14.8651  -17.3926   24.1373 O   0  0  0  0  0  0  0  0  0  0  0  0
   11.7085  -18.4224   25.3824 O   0  0  0  0  0  0  0  0  0  0  0  0
  2  1  1  1
  2  4  1  0
  3  2  1  0
  4  5  1  6
  6  8  1  0
  6  4  1  0
  7  6  2  0
  9  8  1  0
  9 12  1  0
  9 10  1  1
 11 10  1  0
 12 14  1  0
 12 13  2  0
 14 15  1  0
 15 19  1  0
 15 16  1  1
 16 17  1  0
 17 21  1  0
 18 17  2  0
 19 20  1  0
 22 19  2  0
M  END
$$$$
