TCD.pdb
     RDKit          3D

 22 21  0  0  1  0  0  0  0  0999 V2000
    7.9790  -15.8021   26.5229 C   0  0  0  0  0  0  0  0  0  0  0  0
    7.9473  -17.3088   26.5173 C   0  0  1  0  0  0  0  0  0  0  0  0
    7.5553  -17.7536   27.7624 O   0  0  0  0  0  0  0  0  0  0  0  0
    6.9819  -17.8193   25.4402 C   0  0  2  0  0  0  0  0  0  0  0  0
    6.7653  -19.2330   25.5768 N   0  0  0  0  0  0  0  0  0  0  0  0
    7.4984  -17.4842   24.0962 C   0  0  0  0  0  0  0  0  0  0  0  0
    8.1085  -18.3713   23.4219 O   0  0  0  0  0  0  0  0  0  0  0  0
    7.3616  -16.2139   23.4841 N   0  0  0  0  0  0  0  0  0  0  0  0
    8.1788  -15.8002   22.3449 C   0  0  1  0  0  0  0  0  0  0  0  0
    7.4995  -14.6563   21.6042 C   0  0  0  0  0  0  0  0  0  0  0  0
    5.7931  -15.0481   21.1694 S   0  0  0  0  0  0  0  0  0  0  0  0
    9.5335  -15.4150   22.7508 C   0  0  0  0  0  0  0  0  0  0  0  0
    9.7826  -14.7136   23.7684 O   0  0  0  0  0  0  0  0  0  0  0  0
   10.6258  -15.8470   21.9666 N   0  0  0  0  0  0  0  0  0  0  0  0
   11.9823  -15.8276   22.5111 C   0  0  1  0  0  0  0  0  0  0  0  0
   12.0700  -16.5650   23.8052 C   0  0  0  0  0  0  0  0  0  0  0  0
   13.4647  -16.5546   24.2923 C   0  0  0  0  0  0  0  0  0  0  0  0
   14.2889  -15.6356   23.9865 O   0  0  0  0  0  0  0  0  0  0  0  0
   12.8543  -16.4628   21.5156 C   0  0  0  0  0  0  0  0  0  0  0  0
   12.3405  -16.9845   20.3519 O   0  0  0  0  0  0  0  0  0  0  0  0
   13.9865  -17.5471   25.1231 O   0  0  0  0  0  0  0  0  0  0  0  0
   14.0779  -16.5352   21.7191 O   0  0  0  0  0  0  0  0  0  0  0  0
  2  1  1  1
  2  4  1  0
  3  2  1  0
  4  5  1  6
  6  8  1  0
  6  4  1  0
  7  6  2  0
  9  8  1  0
  9 12  1  0
  9 10  1  1
 11 10  1  0
 12 14  1  0
 12 13  2  0
 14 15  1  0
 15 19  1  0
 15 16  1  1
 16 17  1  0
 17 21  1  0
 18 17  2  0
 19 20  1  0
 22 19  2  0
M  END
$$$$
