TCD.pdb
     RDKit          3D

 22 21  0  0  1  0  0  0  0  0999 V2000
    6.1867  -15.7589   19.5727 C   0  0  0  0  0  0  0  0  0  0  0  0
    6.6686  -15.6119   20.9931 C   0  0  1  0  0  0  0  0  0  0  0  0
    7.2586  -16.7932   21.3908 O   0  0  0  0  0  0  0  0  0  0  0  0
    7.6681  -14.4535   21.1014 C   0  0  2  0  0  0  0  0  0  0  0  0
    8.7649  -14.6384   20.1919 N   0  0  0  0  0  0  0  0  0  0  0  0
    8.1441  -14.3228   22.4948 C   0  0  0  0  0  0  0  0  0  0  0  0
    9.2666  -14.8202   22.8210 O   0  0  0  0  0  0  0  0  0  0  0  0
    7.4250  -13.6668   23.5241 N   0  0  0  0  0  0  0  0  0  0  0  0
    7.8765  -13.6599   24.9144 C   0  0  1  0  0  0  0  0  0  0  0  0
    6.9840  -12.7499   25.7476 C   0  0  0  0  0  0  0  0  0  0  0  0
    7.4169  -12.7929   27.4983 S   0  0  0  0  0  0  0  0  0  0  0  0
    7.9118  -15.0081   25.4880 C   0  0  0  0  0  0  0  0  0  0  0  0
    7.0522  -15.8951   25.2355 O   0  0  0  0  0  0  0  0  0  0  0  0
    8.9607  -15.3422   26.3729 N   0  0  0  0  0  0  0  0  0  0  0  0
    9.2459  -16.7404   26.6894 C   0  0  1  0  0  0  0  0  0  0  0  0
    9.6671  -17.5070   25.4807 C   0  0  0  0  0  0  0  0  0  0  0  0
   10.1085  -18.8602   25.8763 C   0  0  0  0  0  0  0  0  0  0  0  0
    9.5785  -19.4977   26.8406 O   0  0  0  0  0  0  0  0  0  0  0  0
   10.3261  -16.7445   27.6835 C   0  0  0  0  0  0  0  0  0  0  0  0
   10.7808  -17.9201   28.2327 O   0  0  0  0  0  0  0  0  0  0  0  0
   11.1370  -19.5439   25.2263 O   0  0  0  0  0  0  0  0  0  0  0  0
   10.8439  -15.6731   28.0411 O   0  0  0  0  0  0  0  0  0  0  0  0
  2  1  1  6
  2  4  1  0
  3  2  1  0
  4  5  1  6
  6  8  1  0
  6  4  1  0
  7  6  2  0
  9  8  1  0
  9 12  1  0
  9 10  1  1
 11 10  1  0
 12 14  1  0
 12 13  2  0
 14 15  1  0
 15 19  1  0
 15 16  1  6
 16 17  1  0
 17 21  1  0
 18 17  2  0
 19 20  1  0
 22 19  2  0
M  END
$$$$
