TCD.pdb
     RDKit          3D

 22 21  0  0  1  0  0  0  0  0999 V2000
    2.8429  -23.9387   18.8166 C   0  0  0  0  0  0  0  0  0  0  0  0
    2.6009  -22.6726   18.0358 C   0  0  1  0  0  0  0  0  0  0  0  0
    2.2450  -23.0029   16.7451 O   0  0  0  0  0  0  0  0  0  0  0  0
    1.4959  -21.8396   18.6973 C   0  0  2  0  0  0  0  0  0  0  0  0
    1.1858  -20.6815   17.9055 N   0  0  0  0  0  0  0  0  0  0  0  0
    1.8991  -21.4589   20.0677 C   0  0  0  0  0  0  0  0  0  0  0  0
    2.6531  -20.4511   20.2401 O   0  0  0  0  0  0  0  0  0  0  0  0
    1.4981  -22.1505   21.2372 N   0  0  0  0  0  0  0  0  0  0  0  0
    1.9667  -21.7749   22.5699 C   0  0  1  0  0  0  0  0  0  0  0  0
    0.7838  -21.3958   23.4506 C   0  0  0  0  0  0  0  0  0  0  0  0
   -0.2172  -22.8288   23.8962 S   0  0  0  0  0  0  0  0  0  0  0  0
    2.7520  -22.8414   23.1977 C   0  0  0  0  0  0  0  0  0  0  0  0
    2.6013  -24.0649   22.9336 O   0  0  0  0  0  0  0  0  0  0  0  0
    3.7327  -22.4907   24.1516 N   0  0  0  0  0  0  0  0  0  0  0  0
    4.5058  -23.5264   24.8345 C   0  0  1  0  0  0  0  0  0  0  0  0
    5.7897  -22.9927   25.3757 C   0  0  0  0  0  0  0  0  0  0  0  0
    6.7527  -22.7954   24.2729 C   0  0  0  0  0  0  0  0  0  0  0  0
    6.8487  -21.6982   23.6370 O   0  0  0  0  0  0  0  0  0  0  0  0
    3.6730  -24.0304   25.9333 C   0  0  0  0  0  0  0  0  0  0  0  0
    4.0597  -25.1224   26.6737 O   0  0  0  0  0  0  0  0  0  0  0  0
    7.6301  -23.7920   23.8432 O   0  0  0  0  0  0  0  0  0  0  0  0
    2.5992  -23.4678   26.2060 O   0  0  0  0  0  0  0  0  0  0  0  0
  2  1  1  1
  2  4  1  0
  3  2  1  0
  4  5  1  6
  6  8  1  0
  6  4  1  0
  7  6  2  0
  9  8  1  0
  9 12  1  0
  9 10  1  1
 11 10  1  0
 12 14  1  0
 12 13  2  0
 14 15  1  0
 15 19  1  0
 15 16  1  1
 16 17  1  0
 17 21  1  0
 18 17  2  0
 19 20  1  0
 22 19  2  0
M  END
$$$$
