TCD.pdb
     RDKit          3D

 22 21  0  0  1  0  0  0  0  0999 V2000
    7.7349  -18.5840   15.4021 C   0  0  0  0  0  0  0  0  0  0  0  0
    8.3234  -17.8670   16.5899 C   0  0  1  0  0  0  0  0  0  0  0  0
    9.4788  -18.5130   16.9762 O   0  0  0  0  0  0  0  0  0  0  0  0
    8.6223  -16.4044   16.2373 C   0  0  2  0  0  0  0  0  0  0  0  0
    9.5571  -16.3220   15.1493 N   0  0  0  0  0  0  0  0  0  0  0  0
    9.1232  -15.6875   17.4291 C   0  0  0  0  0  0  0  0  0  0  0  0
   10.3691  -15.4718   17.5510 O   0  0  0  0  0  0  0  0  0  0  0  0
    8.2976  -15.2082   18.4759 N   0  0  0  0  0  0  0  0  0  0  0  0
    8.8410  -14.5723   19.6746 C   0  0  1  0  0  0  0  0  0  0  0  0
    7.7339  -13.8464   20.4270 C   0  0  0  0  0  0  0  0  0  0  0  0
    6.9886  -12.5347   19.4380 S   0  0  0  0  0  0  0  0  0  0  0  0
    9.5109  -15.5358   20.5528 C   0  0  0  0  0  0  0  0  0  0  0  0
    9.1913  -16.7533   20.6231 O   0  0  0  0  0  0  0  0  0  0  0  0
   10.5726  -15.0866   21.3688 N   0  0  0  0  0  0  0  0  0  0  0  0
   11.3279  -16.0320   22.1889 C   0  0  1  0  0  0  0  0  0  0  0  0
   12.6986  -15.5282   22.4941 C   0  0  0  0  0  0  0  0  0  0  0  0
   13.4460  -16.5470   23.2597 C   0  0  0  0  0  0  0  0  0  0  0  0
   12.9706  -17.6997   23.5093 O   0  0  0  0  0  0  0  0  0  0  0  0
   10.5754  -16.2162   23.4358 C   0  0  0  0  0  0  0  0  0  0  0  0
    9.4037  -15.5344   23.6650 O   0  0  0  0  0  0  0  0  0  0  0  0
   14.7274  -16.3270   23.7671 O   0  0  0  0  0  0  0  0  0  0  0  0
   10.9965  -16.9986   24.3044 O   0  0  0  0  0  0  0  0  0  0  0  0
  2  1  1  6
  2  4  1  0
  3  2  1  0
  4  5  1  6
  6  8  1  0
  6  4  1  0
  7  6  2  0
  9  8  1  0
  9 12  1  0
  9 10  1  1
 11 10  1  0
 12 14  1  0
 12 13  2  0
 14 15  1  0
 15 19  1  0
 15 16  1  1
 16 17  1  0
 17 21  1  0
 18 17  2  0
 19 20  1  0
 22 19  2  0
M  END
$$$$
