TCD.pdb
     RDKit          3D

 22 21  0  0  1  0  0  0  0  0999 V2000
    6.4232  -15.8696   20.7281 C   0  0  0  0  0  0  0  0  0  0  0  0
    7.3671  -14.9913   19.9478 C   0  0  1  0  0  0  0  0  0  0  0  0
    6.9249  -14.9047   18.6445 O   0  0  0  0  0  0  0  0  0  0  0  0
    7.4437  -13.5955   20.5791 C   0  0  2  0  0  0  0  0  0  0  0  0
    8.0752  -12.6645   19.6853 N   0  0  0  0  0  0  0  0  0  0  0  0
    8.1555  -13.6624   21.8730 C   0  0  0  0  0  0  0  0  0  0  0  0
    9.4241  -13.5979   21.8926 O   0  0  0  0  0  0  0  0  0  0  0  0
    7.5141  -13.7963   23.1291 N   0  0  0  0  0  0  0  0  0  0  0  0
    8.2568  -14.0069   24.3703 C   0  0  1  0  0  0  0  0  0  0  0  0
    7.4953  -13.4026   25.5423 C   0  0  0  0  0  0  0  0  0  0  0  0
    5.8422  -14.1045   25.7116 S   0  0  0  0  0  0  0  0  0  0  0  0
    8.5300  -15.4261   24.6139 C   0  0  0  0  0  0  0  0  0  0  0  0
    7.7482  -16.3544   24.2725 O   0  0  0  0  0  0  0  0  0  0  0  0
    9.7307  -15.7842   25.2658 N   0  0  0  0  0  0  0  0  0  0  0  0
   10.0555  -17.1900   25.5004 C   0  0  1  0  0  0  0  0  0  0  0  0
   11.3212  -17.5872   24.8177 C   0  0  0  0  0  0  0  0  0  0  0  0
   11.0120  -18.1973   23.5081 C   0  0  0  0  0  0  0  0  0  0  0  0
    9.8234  -18.3112   23.0705 O   0  0  0  0  0  0  0  0  0  0  0  0
   10.1967  -17.3623   26.9514 C   0  0  0  0  0  0  0  0  0  0  0  0
   10.4762  -16.2930   27.7692 O   0  0  0  0  0  0  0  0  0  0  0  0
   11.9945  -18.6942   22.6507 O   0  0  0  0  0  0  0  0  0  0  0  0
   10.0636  -18.4890   27.4580 O   0  0  0  0  0  0  0  0  0  0  0  0
  2  1  1  1
  2  4  1  0
  3  2  1  0
  4  5  1  6
  6  8  1  0
  6  4  1  0
  7  6  2  0
  9  8  1  0
  9 12  1  0
  9 10  1  1
 11 10  1  0
 12 14  1  0
 12 13  2  0
 14 15  1  0
 15 19  1  0
 15 16  1  6
 16 17  1  0
 17 21  1  0
 18 17  2  0
 19 20  1  0
 22 19  2  0
M  END
$$$$
