TCD.pdb
     RDKit          3D

 22 21  0  0  1  0  0  0  0  0999 V2000
    5.7461  -15.4787   19.4441 C   0  0  0  0  0  0  0  0  0  0  0  0
    6.6463  -15.4721   20.6527 C   0  0  1  0  0  0  0  0  0  0  0  0
    7.6505  -16.3992   20.4689 O   0  0  0  0  0  0  0  0  0  0  0  0
    7.2426  -14.0753   20.8676 C   0  0  2  0  0  0  0  0  0  0  0  0
    8.0180  -13.6701   19.7279 N   0  0  0  0  0  0  0  0  0  0  0  0
    8.0550  -14.0551   22.1025 C   0  0  0  0  0  0  0  0  0  0  0  0
    9.3175  -14.1704   22.0221 O   0  0  0  0  0  0  0  0  0  0  0  0
    7.5192  -13.9125   23.4062 N   0  0  0  0  0  0  0  0  0  0  0  0
    8.3416  -14.0290   24.6090 C   0  0  1  0  0  0  0  0  0  0  0  0
    7.6250  -13.3952   25.7937 C   0  0  0  0  0  0  0  0  0  0  0  0
    5.8892  -13.8796   25.8751 S   0  0  0  0  0  0  0  0  0  0  0  0
    8.6886  -15.4218   24.9054 C   0  0  0  0  0  0  0  0  0  0  0  0
    7.9480  -16.4005   24.6172 O   0  0  0  0  0  0  0  0  0  0  0  0
    9.9162  -15.6935   25.5488 N   0  0  0  0  0  0  0  0  0  0  0  0
   10.3447  -17.0726   25.7753 C   0  0  1  0  0  0  0  0  0  0  0  0
   11.7214  -17.3172   25.2548 C   0  0  0  0  0  0  0  0  0  0  0  0
   12.1482  -18.6895   25.5974 C   0  0  0  0  0  0  0  0  0  0  0  0
   11.3542  -19.6821   25.5591 O   0  0  0  0  0  0  0  0  0  0  0  0
   10.3123  -17.3002   27.2251 C   0  0  0  0  0  0  0  0  0  0  0  0
   10.4610  -18.5626   27.7489 O   0  0  0  0  0  0  0  0  0  0  0  0
   13.4504  -19.0046   25.9881 O   0  0  0  0  0  0  0  0  0  0  0  0
   10.1480  -16.3426   27.9998 O   0  0  0  0  0  0  0  0  0  0  0  0
  2  1  1  6
  2  4  1  0
  3  2  1  0
  4  5  1  6
  6  8  1  0
  6  4  1  0
  7  6  2  0
  9  8  1  0
  9 12  1  0
  9 10  1  1
 11 10  1  0
 12 14  1  0
 12 13  2  0
 14 15  1  0
 15 19  1  0
 15 16  1  1
 16 17  1  0
 17 21  1  0
 18 17  2  0
 19 20  1  0
 22 19  2  0
M  END
$$$$
