TCD.pdb
     RDKit          3D

 22 21  0  0  1  0  0  0  0  0999 V2000
    7.4396  -15.8653   20.7205 C   0  0  0  0  0  0  0  0  0  0  0  0
    7.9892  -14.6413   20.0341 C   0  0  1  0  0  0  0  0  0  0  0  0
    7.8830  -14.8069   18.6693 O   0  0  0  0  0  0  0  0  0  0  0  0
    7.2241  -13.3891   20.4807 C   0  0  2  0  0  0  0  0  0  0  0  0
    7.3207  -12.3516   19.4915 N   0  0  0  0  0  0  0  0  0  0  0  0
    7.7277  -12.9276   21.7917 C   0  0  0  0  0  0  0  0  0  0  0  0
    7.7063  -11.6878   22.0682 O   0  0  0  0  0  0  0  0  0  0  0  0
    8.2470  -13.7853   22.7925 N   0  0  0  0  0  0  0  0  0  0  0  0
    8.0804  -13.5162   24.2196 C   0  0  1  0  0  0  0  0  0  0  0  0
    6.6333  -13.1454   24.5145 C   0  0  0  0  0  0  0  0  0  0  0  0
    6.3606  -12.8173   26.2673 S   0  0  0  0  0  0  0  0  0  0  0  0
    8.4969  -14.6528   25.0460 C   0  0  0  0  0  0  0  0  0  0  0  0
    8.3922  -14.6759   26.3021 O   0  0  0  0  0  0  0  0  0  0  0  0
    9.0467  -15.7884   24.4111 N   0  0  0  0  0  0  0  0  0  0  0  0
    9.6773  -16.8454   25.1997 C   0  0  1  0  0  0  0  0  0  0  0  0
    9.1168  -18.1890   24.8732 C   0  0  0  0  0  0  0  0  0  0  0  0
    9.8234  -19.2273   25.6512 C   0  0  0  0  0  0  0  0  0  0  0  0
   10.1000  -19.0878   26.8846 O   0  0  0  0  0  0  0  0  0  0  0  0
   11.1119  -16.8152   24.8901 C   0  0  0  0  0  0  0  0  0  0  0  0
   12.0111  -17.5569   25.6191 O   0  0  0  0  0  0  0  0  0  0  0  0
   10.2413  -20.4383   25.0977 O   0  0  0  0  0  0  0  0  0  0  0  0
   11.5300  -16.1105   23.9560 O   0  0  0  0  0  0  0  0  0  0  0  0
  2  1  1  1
  2  4  1  0
  3  2  1  0
  4  5  1  6
  6  8  1  0
  6  4  1  0
  7  6  2  0
  9  8  1  0
  9 12  1  0
  9 10  1  6
 11 10  1  0
 12 14  1  0
 12 13  2  0
 14 15  1  0
 15 19  1  0
 15 16  1  6
 16 17  1  0
 17 21  1  0
 18 17  2  0
 19 20  1  0
 22 19  2  0
M  END
$$$$
