MYM.pdb
     RDKit          3D

 29 29  0  0  1  0  0  0  0  0999 V2000
   29.8848  -17.0845  -17.8093 C   0  0  0  0  0  0  0  0  0  0  0  0
   28.8892  -17.4030  -16.3501 S   0  0  0  0  0  0  0  0  0  0  0  0
   27.1362  -17.3613  -16.7766 C   0  0  0  0  0  0  0  0  0  0  0  0
   26.3052  -17.6622  -15.5453 C   0  0  0  0  0  0  0  0  0  0  0  0
   26.8828  -18.8277  -14.7684 C   0  0  2  0  0  0  0  0  0  0  0  0
   26.6899  -20.0438  -15.5507 N   0  0  0  0  0  0  0  0  0  0  0  0
   26.2157  -19.0123  -13.4668 C   0  0  0  0  0  0  0  0  0  0  0  0
   26.0967  -18.0477  -12.6371 O   0  0  0  0  0  0  0  0  0  0  0  0
   19.4344  -19.1511  -14.8193 O   0  0  0  0  0  0  0  0  0  0  0  0
   20.5060  -19.6937  -14.1204 C   0  0  0  0  0  0  0  0  0  0  0  0
   21.5227  -20.2890  -14.8211 C   0  0  0  0  0  0  0  0  0  0  0  0
   22.5795  -20.8242  -14.1317 C   0  0  0  0  0  0  0  0  0  0  0  0
   22.6328  -20.7718  -12.7487 C   0  0  0  0  0  0  0  0  0  0  0  0
   23.8130  -21.3786  -12.0860 C   0  0  0  0  0  0  0  0  0  0  0  0
   24.9096  -20.3838  -11.7788 C   0  0  2  0  0  0  0  0  0  0  0  0
   25.6629  -20.2471  -13.0361 N   0  0  0  0  0  0  0  0  0  0  0  0
   25.7955  -20.7905  -10.6764 C   0  0  0  0  0  0  0  0  0  0  0  0
   26.3985  -21.9072  -10.8458 O   0  0  0  0  0  0  0  0  0  0  0  0
   21.6126  -20.1732  -12.0284 C   0  0  0  0  0  0  0  0  0  0  0  0
   20.5554  -19.6382  -12.7247 C   0  0  0  0  0  0  0  0  0  0  0  0
   28.9152  -19.3159   -3.6054 C   0  0  0  0  0  0  0  0  0  0  0  0
   28.3079  -18.6451   -5.1815 S   0  0  0  0  0  0  0  0  0  0  0  0
   27.6458  -20.0228   -6.1898 C   0  0  0  0  0  0  0  0  0  0  0  0
   27.1787  -19.5143   -7.5037 C   0  0  0  0  0  0  0  0  0  0  0  0
   26.5820  -20.6268   -8.3369 C   0  0  2  0  0  0  0  0  0  0  0  0
   25.9764  -20.0182   -9.5148 N   0  0  0  0  0  0  0  0  0  0  0  0
   25.5071  -21.2827   -7.5688 C   0  0  0  0  0  0  0  0  0  0  0  0
   25.8819  -22.1321   -6.5093 O   0  0  0  0  0  0  0  0  0  0  0  0
   24.2841  -21.1217   -7.8121 O   0  0  0  0  0  0  0  0  0  0  0  0
  1  2  1  0
  3  4  1  0
  3  2  1  0
  5  4  1  0
  5  6  1  6
  7  5  1  0
  8  7  2  0
  9 10  1  0
 10 11  2  0
 10 20  1  0
 11 12  1  0
 12 13  2  0
 13 14  1  0
 15 14  1  6
 15 16  1  0
 16  7  1  0
 17 15  1  0
 17 26  1  0
 18 17  2  0
 19 13  1  0
 20 19  2  0
 22 21  1  0
 23 22  1  0
 24 23  1  0
 25 24  1  1
 25 26  1  0
 27 25  1  0
 27 28  1  0
 29 27  2  0
M  END
$$$$
