MYM.pdb
     RDKit          3D

 29 29  0  0  1  0  0  0  0  0999 V2000
   25.1774  -19.5541  -18.1586 C   0  0  0  0  0  0  0  0  0  0  0  0
   26.4827  -20.6992  -18.6135 S   0  0  0  0  0  0  0  0  0  0  0  0
   25.9224  -22.3989  -18.3824 C   0  0  0  0  0  0  0  0  0  0  0  0
   25.2845  -22.5433  -17.0151 C   0  0  0  0  0  0  0  0  0  0  0  0
   26.3364  -22.6163  -15.9270 C   0  0  2  0  0  0  0  0  0  0  0  0
   26.9913  -23.9174  -16.0056 N   0  0  0  0  0  0  0  0  0  0  0  0
   25.7524  -22.4805  -14.5803 C   0  0  0  0  0  0  0  0  0  0  0  0
   25.2956  -23.4927  -13.9477 O   0  0  0  0  0  0  0  0  0  0  0  0
   27.9595  -20.9489   -6.9694 O   0  0  0  0  0  0  0  0  0  0  0  0
   27.3499  -20.6764   -8.1882 C   0  0  0  0  0  0  0  0  0  0  0  0
   27.9991  -21.0176   -9.3463 C   0  0  0  0  0  0  0  0  0  0  0  0
   27.3979  -20.7488  -10.5483 C   0  0  0  0  0  0  0  0  0  0  0  0
   26.1543  -20.1420  -10.6073 C   0  0  0  0  0  0  0  0  0  0  0  0
   25.5806  -19.8868  -11.9511 C   0  0  0  0  0  0  0  0  0  0  0  0
   24.9718  -21.1148  -12.5898 C   0  0  2  0  0  0  0  0  0  0  0  0
   25.6507  -21.2443  -13.8896 N   0  0  0  0  0  0  0  0  0  0  0  0
   23.5126  -21.0381  -12.7640 C   0  0  0  0  0  0  0  0  0  0  0  0
   23.1202  -20.3813  -13.7906 O   0  0  0  0  0  0  0  0  0  0  0  0
   25.4874  -19.7921   -9.4450 C   0  0  0  0  0  0  0  0  0  0  0  0
   26.0947  -20.0641   -8.2426 C   0  0  0  0  0  0  0  0  0  0  0  0
   19.1641  -23.8141   -8.7892 C   0  0  0  0  0  0  0  0  0  0  0  0
   18.1725  -23.6472  -10.3031 S   0  0  0  0  0  0  0  0  0  0  0  0
   18.9959  -22.4478  -11.4150 C   0  0  0  0  0  0  0  0  0  0  0  0
   20.4699  -22.5538  -11.2773 C   0  0  0  0  0  0  0  0  0  0  0  0
   21.1716  -21.5125  -12.1207 C   0  0  2  0  0  0  0  0  0  0  0  0
   22.6029  -21.6384  -11.8748 N   0  0  0  0  0  0  0  0  0  0  0  0
   20.7569  -20.1693  -11.6741 C   0  0  0  0  0  0  0  0  0  0  0  0
   19.6770  -19.5597  -12.3426 O   0  0  0  0  0  0  0  0  0  0  0  0
   21.3157  -19.5480  -10.7346 O   0  0  0  0  0  0  0  0  0  0  0  0
  1  2  1  0
  3  4  1  0
  3  2  1  0
  5  4  1  0
  5  6  1  1
  7  5  1  0
  8  7  2  0
  9 10  1  0
 10 11  2  0
 10 20  1  0
 11 12  1  0
 12 13  2  0
 13 14  1  0
 15 14  1  6
 15 16  1  0
 16  7  1  0
 17 15  1  0
 17 26  1  0
 18 17  2  0
 19 13  1  0
 20 19  2  0
 22 21  1  0
 23 22  1  0
 24 23  1  0
 25 24  1  1
 25 26  1  0
 27 25  1  0
 27 28  1  0
 29 27  2  0
M  END
$$$$
