MYM.pdb
     RDKit          3D

 29 29  0  0  1  0  0  0  0  0999 V2000
   25.4720   -5.2074  -22.8776 C   0  0  0  0  0  0  0  0  0  0  0  0
   23.9371   -5.0871  -21.9548 S   0  0  0  0  0  0  0  0  0  0  0  0
   23.7770   -6.4934  -20.8353 C   0  0  0  0  0  0  0  0  0  0  0  0
   22.5328   -6.3288  -19.9856 C   0  0  0  0  0  0  0  0  0  0  0  0
   22.4277   -7.4318  -18.9521 C   0  0  2  0  0  0  0  0  0  0  0  0
   22.0787   -8.6723  -19.6360 N   0  0  0  0  0  0  0  0  0  0  0  0
   21.3835   -7.1551  -17.9490 C   0  0  0  0  0  0  0  0  0  0  0  0
   20.1496   -7.3814  -18.1927 O   0  0  0  0  0  0  0  0  0  0  0  0
   19.5536  -12.6263  -15.0321 O   0  0  0  0  0  0  0  0  0  0  0  0
   19.9322  -11.2958  -14.8981 C   0  0  0  0  0  0  0  0  0  0  0  0
   18.9844  -10.3672  -14.5542 C   0  0  0  0  0  0  0  0  0  0  0  0
   19.3578   -9.0551  -14.4221 C   0  0  0  0  0  0  0  0  0  0  0  0
   20.6685   -8.6590  -14.6300 C   0  0  0  0  0  0  0  0  0  0  0  0
   20.9818   -7.2183  -14.4676 C   0  0  0  0  0  0  0  0  0  0  0  0
   20.5971   -6.3790  -15.6652 C   0  0  2  0  0  0  0  0  0  0  0  0
   21.6542   -6.6268  -16.6593 N   0  0  0  0  0  0  0  0  0  0  0  0
   20.4748   -4.9416  -15.3747 C   0  0  0  0  0  0  0  0  0  0  0  0
   21.5465   -4.2600  -15.5364 O   0  0  0  0  0  0  0  0  0  0  0  0
   21.6361   -9.5868  -14.9778 C   0  0  0  0  0  0  0  0  0  0  0  0
   21.2563  -10.9010  -15.1088 C   0  0  0  0  0  0  0  0  0  0  0  0
   19.2003    1.7079  -17.6795 C   0  0  0  0  0  0  0  0  0  0  0  0
   19.2854   -0.1036  -17.8004 S   0  0  0  0  0  0  0  0  0  0  0  0
   19.1831   -0.8099  -16.1141 C   0  0  0  0  0  0  0  0  0  0  0  0
   19.3536   -2.2834  -16.1675 C   0  0  0  0  0  0  0  0  0  0  0  0
   19.2078   -2.8982  -14.7931 C   0  0  2  0  0  0  0  0  0  0  0  0
   19.2735   -4.3460  -14.9494 N   0  0  0  0  0  0  0  0  0  0  0  0
   17.8758   -2.5659  -14.2537 C   0  0  0  0  0  0  0  0  0  0  0  0
   16.8598   -3.5345  -14.3712 O   0  0  0  0  0  0  0  0  0  0  0  0
   17.6062   -1.4699  -13.6997 O   0  0  0  0  0  0  0  0  0  0  0  0
  1  2  1  0
  3  4  1  0
  3  2  1  0
  5  4  1  0
  5  6  1  6
  7  5  1  0
  8  7  2  0
  9 10  1  0
 10 11  2  0
 10 20  1  0
 11 12  1  0
 12 13  2  0
 13 14  1  0
 15 14  1  1
 15 16  1  0
 16  7  1  0
 17 15  1  0
 17 26  1  0
 18 17  2  0
 19 13  1  0
 20 19  2  0
 22 21  1  0
 23 22  1  0
 24 23  1  0
 25 24  1  6
 25 26  1  0
 27 25  1  0
 27 28  1  0
 29 27  2  0
M  END
$$$$
