MYM.pdb
     RDKit          3D

 29 29  0  0  1  0  0  0  0  0999 V2000
   28.4971  -15.3968  -16.0892 C   0  0  0  0  0  0  0  0  0  0  0  0
   28.4043  -16.5597  -17.4535 S   0  0  0  0  0  0  0  0  0  0  0  0
   27.9385  -18.1927  -16.8432 C   0  0  0  0  0  0  0  0  0  0  0  0
   27.2827  -18.0602  -15.4833 C   0  0  0  0  0  0  0  0  0  0  0  0
   27.6628  -19.2150  -14.5790 C   0  0  2  0  0  0  0  0  0  0  0  0
   27.5150  -20.4566  -15.3304 N   0  0  0  0  0  0  0  0  0  0  0  0
   26.7968  -19.2965  -13.3888 C   0  0  0  0  0  0  0  0  0  0  0  0
   26.6085  -18.2841  -12.6321 O   0  0  0  0  0  0  0  0  0  0  0  0
   20.1516  -18.8087  -15.3754 O   0  0  0  0  0  0  0  0  0  0  0  0
   21.1294  -19.4647  -14.6373 C   0  0  0  0  0  0  0  0  0  0  0  0
   21.0756  -19.4116  -13.2686 C   0  0  0  0  0  0  0  0  0  0  0  0
   22.0401  -20.0586  -12.5407 C   0  0  0  0  0  0  0  0  0  0  0  0
   23.0592  -20.7588  -13.1647 C   0  0  0  0  0  0  0  0  0  0  0  0
   24.0609  -21.4264  -12.2981 C   0  0  0  0  0  0  0  0  0  0  0  0
   25.1809  -20.5116  -11.8562 C   0  0  2  0  0  0  0  0  0  0  0  0
   26.1157  -20.4776  -12.9929 N   0  0  0  0  0  0  0  0  0  0  0  0
   25.8625  -20.9495  -10.6277 C   0  0  0  0  0  0  0  0  0  0  0  0
   26.3171  -22.1461  -10.6539 O   0  0  0  0  0  0  0  0  0  0  0  0
   23.1254  -20.8206  -14.5466 C   0  0  0  0  0  0  0  0  0  0  0  0
   22.1558  -20.1702  -15.2715 C   0  0  0  0  0  0  0  0  0  0  0  0
   28.8846  -19.3267   -3.5633 C   0  0  0  0  0  0  0  0  0  0  0  0
   28.3716  -18.6992   -5.1900 S   0  0  0  0  0  0  0  0  0  0  0  0
   27.5218  -20.0441   -6.0967 C   0  0  0  0  0  0  0  0  0  0  0  0
   27.1142  -19.5723   -7.4437 C   0  0  0  0  0  0  0  0  0  0  0  0
   26.5048  -20.6960   -8.2524 C   0  0  2  0  0  0  0  0  0  0  0  0
   26.0110  -20.1237   -9.4988 N   0  0  0  0  0  0  0  0  0  0  0  0
   25.3470  -21.2446   -7.5217 C   0  0  0  0  0  0  0  0  0  0  0  0
   24.0635  -21.0051   -8.0507 O   0  0  0  0  0  0  0  0  0  0  0  0
   25.4495  -21.9093   -6.4593 O   0  0  0  0  0  0  0  0  0  0  0  0
  1  2  1  0
  3  4  1  0
  3  2  1  0
  5  4  1  0
  5  6  1  6
  7  5  1  0
  8  7  2  0
  9 10  1  0
 10 11  2  0
 10 20  1  0
 11 12  1  0
 12 13  2  0
 13 14  1  0
 15 14  1  6
 15 16  1  0
 16  7  1  0
 17 15  1  0
 17 26  1  0
 18 17  2  0
 19 13  1  0
 20 19  2  0
 22 21  1  0
 23 22  1  0
 24 23  1  0
 25 24  1  1
 25 26  1  0
 27 25  1  0
 27 28  1  0
 29 27  2  0
M  END
$$$$
