MYM.pdb
     RDKit          3D

 29 29  0  0  1  0  0  0  0  0999 V2000
   19.7810   -7.3504  -23.5625 C   0  0  0  0  0  0  0  0  0  0  0  0
   18.6083   -8.5792  -24.1430 S   0  0  0  0  0  0  0  0  0  0  0  0
   18.7110  -10.0630  -23.1211 C   0  0  0  0  0  0  0  0  0  0  0  0
   18.4406   -9.7042  -21.6736 C   0  0  0  0  0  0  0  0  0  0  0  0
   18.6328  -10.9042  -20.7686 C   0  0  2  0  0  0  0  0  0  0  0  0
   17.6831  -11.9378  -21.1659 N   0  0  0  0  0  0  0  0  0  0  0  0
   18.3849  -10.5771  -19.3528 C   0  0  0  0  0  0  0  0  0  0  0  0
   17.2025  -10.5727  -18.8678 O   0  0  0  0  0  0  0  0  0  0  0  0
   17.9358  -16.1205  -16.0350 O   0  0  0  0  0  0  0  0  0  0  0  0
   18.4626  -14.8364  -16.1062 C   0  0  0  0  0  0  0  0  0  0  0  0
   18.1121  -13.9210  -15.1480 C   0  0  0  0  0  0  0  0  0  0  0  0
   18.6316  -12.6545  -15.2183 C   0  0  0  0  0  0  0  0  0  0  0  0
   19.4981  -12.2912  -16.2359 C   0  0  0  0  0  0  0  0  0  0  0  0
   20.0094  -10.8989  -16.2345 C   0  0  0  0  0  0  0  0  0  0  0  0
   19.1435   -9.9379  -17.0178 C   0  0  2  0  0  0  0  0  0  0  0  0
   19.4135  -10.2476  -18.4314 N   0  0  0  0  0  0  0  0  0  0  0  0
   19.4109   -8.5198  -16.7297 C   0  0  0  0  0  0  0  0  0  0  0  0
   20.3592   -7.9949  -17.4112 O   0  0  0  0  0  0  0  0  0  0  0  0
   19.8605  -13.2062  -17.2102 C   0  0  0  0  0  0  0  0  0  0  0  0
   19.3367  -14.4746  -17.1349 C   0  0  0  0  0  0  0  0  0  0  0  0
   19.0690   -1.6509  -18.2974 C   0  0  0  0  0  0  0  0  0  0  0  0
   18.8571   -3.4467  -18.4801 S   0  0  0  0  0  0  0  0  0  0  0  0
   19.0604   -4.2319  -16.8384 C   0  0  0  0  0  0  0  0  0  0  0  0
   18.8773   -5.7006  -16.9497 C   0  0  0  0  0  0  0  0  0  0  0  0
   18.9761   -6.3655  -15.5946 C   0  0  2  0  0  0  0  0  0  0  0  0
   18.6850   -7.7821  -15.7772 N   0  0  0  0  0  0  0  0  0  0  0  0
   17.9408   -5.8063  -14.7053 C   0  0  0  0  0  0  0  0  0  0  0  0
   18.1070   -4.4816  -14.2560 O   0  0  0  0  0  0  0  0  0  0  0  0
   16.9266   -6.4493  -14.3323 O   0  0  0  0  0  0  0  0  0  0  0  0
  1  2  1  0
  3  4  1  0
  3  2  1  0
  5  4  1  0
  5  6  1  6
  7  5  1  0
  8  7  2  0
  9 10  1  0
 10 11  2  0
 10 20  1  0
 11 12  1  0
 12 13  2  0
 13 14  1  0
 15 14  1  1
 15 16  1  0
 16  7  1  0
 17 15  1  0
 17 26  1  0
 18 17  2  0
 19 13  1  0
 20 19  2  0
 22 21  1  0
 23 22  1  0
 24 23  1  0
 25 24  1  6
 25 26  1  0
 27 25  1  0
 27 28  1  0
 29 27  2  0
M  END
$$$$
