MYM.pdb
     RDKit          3D

 29 29  0  0  1  0  0  0  0  0999 V2000
   27.1105  -15.1967  -14.5316 C   0  0  0  0  0  0  0  0  0  0  0  0
   26.1534  -15.1081  -16.0475 S   0  0  0  0  0  0  0  0  0  0  0  0
   27.0456  -14.1466  -17.2868 C   0  0  0  0  0  0  0  0  0  0  0  0
   26.9295  -12.6698  -16.9661 C   0  0  0  0  0  0  0  0  0  0  0  0
   25.5089  -12.1794  -17.1587 C   0  0  2  0  0  0  0  0  0  0  0  0
   25.1612  -12.3168  -18.5687 N   0  0  0  0  0  0  0  0  0  0  0  0
   25.3561  -10.7609  -16.7876 C   0  0  0  0  0  0  0  0  0  0  0  0
   25.5832  -10.3563  -15.5968 O   0  0  0  0  0  0  0  0  0  0  0  0
   24.5437   -1.9964  -17.9354 O   0  0  0  0  0  0  0  0  0  0  0  0
   24.6638   -3.3714  -18.0979 C   0  0  0  0  0  0  0  0  0  0  0  0
   25.8595   -3.9729  -17.8023 C   0  0  0  0  0  0  0  0  0  0  0  0
   25.9779   -5.3290  -17.9626 C   0  0  0  0  0  0  0  0  0  0  0  0
   24.9146   -6.0923  -18.4154 C   0  0  0  0  0  0  0  0  0  0  0  0
   25.1334   -7.5520  -18.5613 C   0  0  0  0  0  0  0  0  0  0  0  0
   24.8169   -8.3372  -17.3083 C   0  0  2  0  0  0  0  0  0  0  0  0
   24.9538   -9.7498  -17.6994 N   0  0  0  0  0  0  0  0  0  0  0  0
   23.4786   -8.0714  -16.7571 C   0  0  0  0  0  0  0  0  0  0  0  0
   22.5019   -8.4805  -17.4768 O   0  0  0  0  0  0  0  0  0  0  0  0
   23.7010   -5.4973  -18.7175 C   0  0  0  0  0  0  0  0  0  0  0  0
   23.5878   -4.1374  -18.5549 C   0  0  0  0  0  0  0  0  0  0  0  0
   18.4658   -9.2696  -11.3374 C   0  0  0  0  0  0  0  0  0  0  0  0
   20.1673   -9.3674  -11.9687 S   0  0  0  0  0  0  0  0  0  0  0  0
   20.3572   -8.1618  -13.3338 C   0  0  0  0  0  0  0  0  0  0  0  0
   21.6971   -8.3037  -13.9563 C   0  0  0  0  0  0  0  0  0  0  0  0
   21.9154   -7.2537  -15.0232 C   0  0  2  0  0  0  0  0  0  0  0  0
   23.2726   -7.4163  -15.5295 N   0  0  0  0  0  0  0  0  0  0  0  0
   21.8233   -5.9154  -14.4101 C   0  0  0  0  0  0  0  0  0  0  0  0
   20.5435   -5.3428  -14.2731 O   0  0  0  0  0  0  0  0  0  0  0  0
   22.8228   -5.2670  -14.0080 O   0  0  0  0  0  0  0  0  0  0  0  0
  1  2  1  0
  3  4  1  0
  3  2  1  0
  5  4  1  0
  5  6  1  6
  7  5  1  0
  8  7  2  0
  9 10  1  0
 10 11  2  0
 10 20  1  0
 11 12  1  0
 12 13  2  0
 13 14  1  0
 15 14  1  6
 15 16  1  0
 16  7  1  0
 17 15  1  0
 17 26  1  0
 18 17  2  0
 19 13  1  0
 20 19  2  0
 22 21  1  0
 23 22  1  0
 24 23  1  0
 25 24  1  1
 25 26  1  0
 27 25  1  0
 27 28  1  0
 29 27  2  0
M  END
$$$$
