MYM.pdb
     RDKit          3D

 29 29  0  0  1  0  0  0  0  0999 V2000
   20.5203  -20.7876  -15.4185 C   0  0  0  0  0  0  0  0  0  0  0  0
   22.1560  -20.6625  -16.1472 S   0  0  0  0  0  0  0  0  0  0  0  0
   22.1003  -19.6145  -17.6152 C   0  0  0  0  0  0  0  0  0  0  0  0
   23.4440  -19.6475  -18.3157 C   0  0  0  0  0  0  0  0  0  0  0  0
   24.3897  -18.6181  -17.7311 C   0  0  2  0  0  0  0  0  0  0  0  0
   23.5964  -17.5368  -17.1572 N   0  0  0  0  0  0  0  0  0  0  0  0
   25.2794  -18.0379  -18.7534 C   0  0  0  0  0  0  0  0  0  0  0  0
   25.6198  -18.6994  -19.7925 O   0  0  0  0  0  0  0  0  0  0  0  0
   28.4710  -13.6665  -25.3050 O   0  0  0  0  0  0  0  0  0  0  0  0
   27.8655  -14.3195  -24.2381 C   0  0  0  0  0  0  0  0  0  0  0  0
   26.7529  -13.7619  -23.6634 C   0  0  0  0  0  0  0  0  0  0  0  0
   26.1559  -14.4059  -22.6110 C   0  0  0  0  0  0  0  0  0  0  0  0
   26.6578  -15.6019  -22.1252 C   0  0  0  0  0  0  0  0  0  0  0  0
   25.9492  -16.2272  -20.9820 C   0  0  0  0  0  0  0  0  0  0  0  0
   26.7319  -16.1802  -19.6890 C   0  0  2  0  0  0  0  0  0  0  0  0
   25.8197  -16.7275  -18.6715 N   0  0  0  0  0  0  0  0  0  0  0  0
   27.1895  -14.8326  -19.3147 C   0  0  0  0  0  0  0  0  0  0  0  0
   26.2823  -14.0596  -18.8469 O   0  0  0  0  0  0  0  0  0  0  0  0
   27.7811  -16.1762  -22.6966 C   0  0  0  0  0  0  0  0  0  0  0  0
   28.3757  -15.5263  -23.7515 C   0  0  0  0  0  0  0  0  0  0  0  0
   33.0886  -13.6213  -17.6318 C   0  0  0  0  0  0  0  0  0  0  0  0
   32.5345  -11.8940  -17.5199 S   0  0  0  0  0  0  0  0  0  0  0  0
   30.7851  -11.8029  -18.0531 C   0  0  0  0  0  0  0  0  0  0  0  0
   30.3355  -13.1255  -18.5546 C   0  0  0  0  0  0  0  0  0  0  0  0
   28.8999  -13.0687  -19.0279 C   0  0  2  0  0  0  0  0  0  0  0  0
   28.5240  -14.4107  -19.4552 N   0  0  0  0  0  0  0  0  0  0  0  0
   28.8135  -12.1833  -20.2044 C   0  0  0  0  0  0  0  0  0  0  0  0
   28.9059  -12.7751  -21.4794 O   0  0  0  0  0  0  0  0  0  0  0  0
   28.6631  -10.9376  -20.1247 O   0  0  0  0  0  0  0  0  0  0  0  0
  1  2  1  0
  3  4  1  0
  3  2  1  0
  5  4  1  0
  5  6  1  6
  7  5  1  0
  8  7  2  0
  9 10  1  0
 10 11  2  0
 10 20  1  0
 11 12  1  0
 12 13  2  0
 13 14  1  0
 15 14  1  6
 15 16  1  0
 16  7  1  0
 17 15  1  0
 17 26  1  0
 18 17  2  0
 19 13  1  0
 20 19  2  0
 22 21  1  0
 23 22  1  0
 24 23  1  0
 25 24  1  6
 25 26  1  0
 27 25  1  0
 27 28  1  0
 29 27  2  0
M  END
$$$$
