MYM.pdb
     RDKit          3D

 29 29  0  0  1  0  0  0  0  0999 V2000
    8.6108  -15.1907  -23.1206 C   0  0  0  0  0  0  0  0  0  0  0  0
   10.2347  -15.0084  -23.8633 S   0  0  0  0  0  0  0  0  0  0  0  0
   11.3807  -14.2820  -22.6736 C   0  0  0  0  0  0  0  0  0  0  0  0
   12.7904  -14.3327  -23.2281 C   0  0  0  0  0  0  0  0  0  0  0  0
   13.7077  -13.3914  -22.4742 C   0  0  2  0  0  0  0  0  0  0  0  0
   14.8115  -13.0214  -23.3532 N   0  0  0  0  0  0  0  0  0  0  0  0
   14.2764  -14.0186  -21.2674 C   0  0  0  0  0  0  0  0  0  0  0  0
   15.3609  -14.6929  -21.3159 O   0  0  0  0  0  0  0  0  0  0  0  0
   19.3851  -10.9371  -19.2444 O   0  0  0  0  0  0  0  0  0  0  0  0
   18.1893  -11.5585  -18.9052 C   0  0  0  0  0  0  0  0  0  0  0  0
   18.2278  -12.7935  -18.3118 C   0  0  0  0  0  0  0  0  0  0  0  0
   17.0483  -13.4064  -17.9773 C   0  0  0  0  0  0  0  0  0  0  0  0
   15.8291  -12.7994  -18.2292 C   0  0  0  0  0  0  0  0  0  0  0  0
   14.6036  -13.5367  -17.8361 C   0  0  0  0  0  0  0  0  0  0  0  0
   14.2218  -14.6320  -18.8063 C   0  0  2  0  0  0  0  0  0  0  0  0
   13.6818  -13.9286  -19.9813 N   0  0  0  0  0  0  0  0  0  0  0  0
   13.2421  -15.5910  -18.2714 C   0  0  0  0  0  0  0  0  0  0  0  0
   12.0613  -15.1262  -18.1018 O   0  0  0  0  0  0  0  0  0  0  0  0
   15.7758  -11.5518  -18.8281 C   0  0  0  0  0  0  0  0  0  0  0  0
   16.9614  -10.9418  -19.1612 C   0  0  0  0  0  0  0  0  0  0  0  0
   13.5864  -21.5949  -14.4065 C   0  0  0  0  0  0  0  0  0  0  0  0
   13.0243  -21.6629  -16.1335 S   0  0  0  0  0  0  0  0  0  0  0  0
   12.1937  -20.0832  -16.5433 C   0  0  0  0  0  0  0  0  0  0  0  0
   13.1529  -19.1573  -17.1955 C   0  0  0  0  0  0  0  0  0  0  0  0
   12.5998  -17.7504  -17.2500 C   0  0  2  0  0  0  0  0  0  0  0  0
   13.5659  -16.9250  -17.9642 N   0  0  0  0  0  0  0  0  0  0  0  0
   12.4871  -17.2219  -15.8775 C   0  0  0  0  0  0  0  0  0  0  0  0
   13.6267  -16.6181  -15.3110 O   0  0  0  0  0  0  0  0  0  0  0  0
   11.4327  -17.2842  -15.1953 O   0  0  0  0  0  0  0  0  0  0  0  0
  1  2  1  0
  3  4  1  0
  3  2  1  0
  5  4  1  0
  5  6  1  6
  7  5  1  0
  8  7  2  0
  9 10  1  0
 10 11  2  0
 10 20  1  0
 11 12  1  0
 12 13  2  0
 13 14  1  0
 15 14  1  1
 15 16  1  0
 16  7  1  0
 17 15  1  0
 17 26  1  0
 18 17  2  0
 19 13  1  0
 20 19  2  0
 22 21  1  0
 23 22  1  0
 24 23  1  0
 25 24  1  1
 25 26  1  0
 27 25  1  0
 27 28  1  0
 29 27  2  0
M  END
$$$$
