MYM.pdb
     RDKit          3D

 29 29  0  0  1  0  0  0  0  0999 V2000
   21.9244  -17.0450  -16.8591 C   0  0  0  0  0  0  0  0  0  0  0  0
   23.5074  -17.8797  -16.9988 S   0  0  0  0  0  0  0  0  0  0  0  0
   23.4607  -19.4471  -16.1058 C   0  0  0  0  0  0  0  0  0  0  0  0
   22.6205  -19.2950  -14.8536 C   0  0  0  0  0  0  0  0  0  0  0  0
   22.7126  -20.5303  -13.9810 C   0  0  2  0  0  0  0  0  0  0  0  0
   22.4355  -21.7000  -14.8075 N   0  0  0  0  0  0  0  0  0  0  0  0
   21.7319  -20.5070  -12.8806 C   0  0  0  0  0  0  0  0  0  0  0  0
   21.5128  -19.4435  -12.2067 O   0  0  0  0  0  0  0  0  0  0  0  0
   18.4137  -15.3844  -13.5399 O   0  0  0  0  0  0  0  0  0  0  0  0
   18.5193  -16.7680  -13.4645 C   0  0  0  0  0  0  0  0  0  0  0  0
   18.7867  -17.4768  -14.6069 C   0  0  0  0  0  0  0  0  0  0  0  0
   18.8907  -18.8414  -14.5325 C   0  0  0  0  0  0  0  0  0  0  0  0
   18.7306  -19.5074  -13.3287 C   0  0  0  0  0  0  0  0  0  0  0  0
   18.8578  -20.9851  -13.3421 C   0  0  0  0  0  0  0  0  0  0  0  0
   19.5455  -21.5421  -12.1160 C   0  0  2  0  0  0  0  0  0  0  0  0
   20.9671  -21.6363  -12.4866 N   0  0  0  0  0  0  0  0  0  0  0  0
   19.0278  -22.8490  -11.6808 C   0  0  0  0  0  0  0  0  0  0  0  0
   19.0294  -23.7620  -12.5783 O   0  0  0  0  0  0  0  0  0  0  0  0
   18.4604  -18.8036  -12.1669 C   0  0  0  0  0  0  0  0  0  0  0  0
   18.3571  -17.4355  -12.2473 C   0  0  0  0  0  0  0  0  0  0  0  0
   18.1776  -24.3685   -5.5643 C   0  0  0  0  0  0  0  0  0  0  0  0
   17.3810  -25.8566   -6.2382 S   0  0  0  0  0  0  0  0  0  0  0  0
   17.5190  -25.8208   -8.0637 C   0  0  0  0  0  0  0  0  0  0  0  0
   18.0051  -24.4921   -8.5122 C   0  0  0  0  0  0  0  0  0  0  0  0
   18.0866  -24.4234  -10.0211 C   0  0  2  0  0  0  0  0  0  0  0  0
   18.5616  -23.0918  -10.3760 N   0  0  0  0  0  0  0  0  0  0  0  0
   16.7333  -24.5815  -10.5859 C   0  0  0  0  0  0  0  0  0  0  0  0
   16.2949  -25.8867  -10.8841 O   0  0  0  0  0  0  0  0  0  0  0  0
   15.9596  -23.6166  -10.8122 O   0  0  0  0  0  0  0  0  0  0  0  0
  1  2  1  0
  3  4  1  0
  3  2  1  0
  5  4  1  0
  5  6  1  6
  7  5  1  0
  8  7  2  0
  9 10  1  0
 10 11  2  0
 10 20  1  0
 11 12  1  0
 12 13  2  0
 13 14  1  0
 15 14  1  6
 15 16  1  0
 16  7  1  0
 17 15  1  0
 17 26  1  0
 18 17  2  0
 19 13  1  0
 20 19  2  0
 22 21  1  0
 23 22  1  0
 24 23  1  0
 25 24  1  1
 25 26  1  0
 27 25  1  0
 27 28  1  0
 29 27  2  0
M  END
$$$$
