WEN.pdb
     RDKit          3D

 32 33  0  0  1  0  0  0  0  0999 V2000
    6.2866  -17.8867   25.2858 N   0  0  0  0  0  0  0  0  0  0  0  0
    7.1851  -17.1152   24.4670 C   0  0  1  0  0  0  0  0  0  0  0  0
    7.9780  -16.0989   25.2292 C   0  0  0  0  0  0  0  0  0  0  0  0
    7.1226  -15.0478   25.8324 C   0  0  0  0  0  0  0  0  0  0  0  0
    5.9890  -15.2318   26.6090 C   0  0  0  0  0  0  0  0  0  0  0  0
    5.4516  -14.0644   26.9618 N   0  0  0  0  0  0  0  0  0  0  0  0
    6.2135  -13.0758   26.4295 C   0  0  0  0  0  0  0  0  0  0  0  0
    6.0776  -11.6977   26.5100 C   0  0  0  0  0  0  0  0  0  0  0  0
    7.0043  -10.9020   25.8735 C   0  0  0  0  0  0  0  0  0  0  0  0
    8.0368  -11.4865   25.1770 C   0  0  0  0  0  0  0  0  0  0  0  0
    8.1620  -12.8486   25.1034 C   0  0  0  0  0  0  0  0  0  0  0  0
    7.2552  -13.6819   25.7257 C   0  0  0  0  0  0  0  0  0  0  0  0
    8.1059  -17.9836   23.6829 C   0  0  0  0  0  0  0  0  0  0  0  0
    8.3223  -19.1429   24.1298 O   0  0  0  0  0  0  0  0  0  0  0  0
    8.7211  -17.5325   22.4727 N   0  0  0  0  0  0  0  0  0  0  0  0
    9.7464  -18.3378   21.8934 C   0  0  1  0  0  0  0  0  0  0  0  0
    9.7472  -18.0341   20.3732 C   0  0  0  0  0  0  0  0  0  0  0  0
   11.1863  -17.6961   20.0014 C   0  0  0  0  0  0  0  0  0  0  0  0
   11.3089  -17.3823   18.5751 C   0  0  0  0  0  0  0  0  0  0  0  0
   11.0880  -16.2352   18.1400 O   0  0  0  0  0  0  0  0  0  0  0  0
   11.0883  -18.1730   22.4463 C   0  0  0  0  0  0  0  0  0  0  0  0
   12.0388  -18.9287   22.0371 O   0  0  0  0  0  0  0  0  0  0  0  0
   11.6772  -18.3712   17.6811 O   0  0  0  0  0  0  0  0  0  0  0  0
   15.1443  -16.8501   22.0863 N   0  0  0  0  0  0  0  0  0  0  0  0
   14.0006  -16.1711   22.5890 C   0  0  0  0  0  0  0  0  0  0  0  0
   13.3323  -15.5052   21.7565 O   0  0  0  0  0  0  0  0  0  0  0  0
   13.6885  -16.2965   24.0272 C   0  0  0  0  0  0  0  0  0  0  0  0
   12.6872  -17.3545   24.2404 C   0  0  2  0  0  0  0  0  0  0  0  0
   11.4984  -17.2344   23.4282 N   0  0  0  0  0  0  0  0  0  0  0  0
   12.3857  -17.5572   25.6702 C   0  0  0  0  0  0  0  0  0  0  0  0
   11.1985  -17.4778   26.0586 O   0  0  0  0  0  0  0  0  0  0  0  0
   13.3816  -17.8341   26.6035 O   0  0  0  0  0  0  0  0  0  0  0  0
  2  3  1  0
  2  1  1  1
  3  4  1  0
  4  5  2  0
  5  6  1  0
  7  6  1  0
  8  7  2  0
  9  8  1  0
 10 11  1  0
 10  9  2  0
 11 12  2  0
 12  4  1  0
 12  7  1  0
 13  2  1  0
 13 14  2  0
 15 13  1  0
 16 15  1  0
 16 17  1  6
 18 17  1  0
 19 20  2  0
 19 18  1  0
 21 16  1  0
 21 22  2  0
 23 19  1  0
 25 26  2  0
 25 24  1  0
 27 25  1  0
 28 29  1  0
 28 27  1  1
 29 21  1  0
 30 28  1  0
 31 30  2  0
 32 30  1  0
M  END
$$$$
