WEN.pdb
     RDKit          3D

 32 33  0  0  1  0  0  0  0  0999 V2000
    6.2735  -18.5481   22.9540 N   0  0  0  0  0  0  0  0  0  0  0  0
    7.0239  -17.3706   23.3051 C   0  0  1  0  0  0  0  0  0  0  0  0
    6.2251  -16.3401   24.0417 C   0  0  0  0  0  0  0  0  0  0  0  0
    6.8326  -14.9892   23.9642 C   0  0  0  0  0  0  0  0  0  0  0  0
    7.5679  -14.4586   22.9154 C   0  0  0  0  0  0  0  0  0  0  0  0
    7.9850  -13.2241   23.1949 N   0  0  0  0  0  0  0  0  0  0  0  0
    7.5379  -12.9028   24.4351 C   0  0  0  0  0  0  0  0  0  0  0  0
    7.7007  -11.7396   25.1729 C   0  0  0  0  0  0  0  0  0  0  0  0
    7.1323  -11.6640   26.4252 C   0  0  0  0  0  0  0  0  0  0  0  0
    6.4209  -12.7355   26.9137 C   0  0  0  0  0  0  0  0  0  0  0  0
    6.2662  -13.8800   26.1771 C   0  0  0  0  0  0  0  0  0  0  0  0
    6.8197  -13.9975   24.9187 C   0  0  0  0  0  0  0  0  0  0  0  0
    8.2491  -17.7044   24.0825 C   0  0  0  0  0  0  0  0  0  0  0  0
    8.1336  -18.5675   24.9946 O   0  0  0  0  0  0  0  0  0  0  0  0
    9.5078  -17.0803   23.8121 N   0  0  0  0  0  0  0  0  0  0  0  0
   10.6412  -17.4817   24.5799 C   0  0  1  0  0  0  0  0  0  0  0  0
   11.8654  -16.7325   23.9938 C   0  0  0  0  0  0  0  0  0  0  0  0
   12.2329  -17.4515   22.7010 C   0  0  0  0  0  0  0  0  0  0  0  0
   13.4224  -16.8604   22.0817 C   0  0  0  0  0  0  0  0  0  0  0  0
   13.3508  -15.8214   21.3965 O   0  0  0  0  0  0  0  0  0  0  0  0
   10.5549  -17.2662   26.0220 C   0  0  0  0  0  0  0  0  0  0  0  0
   10.7077  -16.0855   26.4959 O   0  0  0  0  0  0  0  0  0  0  0  0
   14.6578  -17.4579   22.2533 O   0  0  0  0  0  0  0  0  0  0  0  0
    7.2467  -18.9998   27.7237 N   0  0  0  0  0  0  0  0  0  0  0  0
    8.4425  -19.5124   28.2971 C   0  0  0  0  0  0  0  0  0  0  0  0
    8.7474  -20.6954   27.9958 O   0  0  0  0  0  0  0  0  0  0  0  0
    9.2242  -18.6318   29.1888 C   0  0  0  0  0  0  0  0  0  0  0  0
   10.3229  -17.9972   28.4421 C   0  0  2  0  0  0  0  0  0  0  0  0
   10.3093  -18.2456   27.0189 N   0  0  0  0  0  0  0  0  0  0  0  0
   11.6385  -18.2582   29.0564 C   0  0  0  0  0  0  0  0  0  0  0  0
   11.8081  -17.9911   30.2675 O   0  0  0  0  0  0  0  0  0  0  0  0
   12.7001  -18.7930   28.3306 O   0  0  0  0  0  0  0  0  0  0  0  0
  2  3  1  0
  2  1  1  1
  3  4  1  0
  4  5  2  0
  5  6  1  0
  7  6  1  0
  8  7  2  0
  9  8  1  0
 10 11  1  0
 10  9  2  0
 11 12  2  0
 12  4  1  0
 12  7  1  0
 13  2  1  0
 13 14  2  0
 15 13  1  0
 16 15  1  0
 16 17  1  6
 18 17  1  0
 19 20  2  0
 19 18  1  0
 21 16  1  0
 21 22  2  0
 23 19  1  0
 25 26  2  0
 25 24  1  0
 27 25  1  0
 28 29  1  0
 28 27  1  1
 29 21  1  0
 30 28  1  0
 31 30  2  0
 32 30  1  0
M  END
$$$$
