WEN.pdb
     RDKit          3D

 32 33  0  0  1  0  0  0  0  0999 V2000
    6.2985  -17.6511   24.3304 N   0  0  0  0  0  0  0  0  0  0  0  0
    7.4943  -16.9317   23.9762 C   0  0  1  0  0  0  0  0  0  0  0  0
    8.0891  -16.1508   25.1072 C   0  0  0  0  0  0  0  0  0  0  0  0
    7.1888  -15.0748   25.5890 C   0  0  0  0  0  0  0  0  0  0  0  0
    5.9321  -15.2231   26.1554 C   0  0  0  0  0  0  0  0  0  0  0  0
    5.3927  -14.0402   26.4484 N   0  0  0  0  0  0  0  0  0  0  0  0
    6.2762  -13.0765   26.0849 C   0  0  0  0  0  0  0  0  0  0  0  0
    6.1876  -11.6959   26.1847 C   0  0  0  0  0  0  0  0  0  0  0  0
    7.2429  -10.9303   25.7405 C   0  0  0  0  0  0  0  0  0  0  0  0
    8.3535  -11.5465   25.2116 C   0  0  0  0  0  0  0  0  0  0  0  0
    8.4309  -12.9108   25.1173 C   0  0  0  0  0  0  0  0  0  0  0  0
    7.3961  -13.7146   25.5497 C   0  0  0  0  0  0  0  0  0  0  0  0
    8.5278  -17.8278   23.3883 C   0  0  0  0  0  0  0  0  0  0  0  0
    8.6771  -18.9606   23.9220 O   0  0  0  0  0  0  0  0  0  0  0  0
    9.3201  -17.4310   22.2651 N   0  0  0  0  0  0  0  0  0  0  0  0
   10.6854  -17.8425   22.2205 C   0  0  1  0  0  0  0  0  0  0  0  0
   11.3506  -17.0574   21.0611 C   0  0  0  0  0  0  0  0  0  0  0  0
   12.7999  -17.5253   20.9987 C   0  0  0  0  0  0  0  0  0  0  0  0
   13.3041  -17.5172   19.6226 C   0  0  0  0  0  0  0  0  0  0  0  0
   13.8632  -16.5126   19.1405 O   0  0  0  0  0  0  0  0  0  0  0  0
   11.4515  -17.6770   23.4530 C   0  0  0  0  0  0  0  0  0  0  0  0
   11.5879  -16.5089   23.9616 O   0  0  0  0  0  0  0  0  0  0  0  0
   13.1635  -18.6421   18.8305 O   0  0  0  0  0  0  0  0  0  0  0  0
   10.0852  -19.8268   26.0722 N   0  0  0  0  0  0  0  0  0  0  0  0
   10.9574  -19.2106   27.0109 C   0  0  0  0  0  0  0  0  0  0  0  0
   10.9580  -19.6890   28.1746 O   0  0  0  0  0  0  0  0  0  0  0  0
   11.7835  -18.0736   26.5566 C   0  0  0  0  0  0  0  0  0  0  0  0
   12.7082  -18.5078   25.4965 C   0  0  2  0  0  0  0  0  0  0  0  0
   12.0972  -18.6955   24.2007 N   0  0  0  0  0  0  0  0  0  0  0  0
   13.5331  -19.6578   25.9126 C   0  0  0  0  0  0  0  0  0  0  0  0
   14.1949  -19.5799   26.9722 O   0  0  0  0  0  0  0  0  0  0  0  0
   13.5997  -20.8295   25.1627 O   0  0  0  0  0  0  0  0  0  0  0  0
  2  3  1  0
  2  1  1  1
  3  4  1  0
  4  5  2  0
  5  6  1  0
  7  6  1  0
  8  7  2  0
  9  8  1  0
 10 11  1  0
 10  9  2  0
 11 12  2  0
 12  4  1  0
 12  7  1  0
 13  2  1  0
 13 14  2  0
 15 13  1  0
 16 15  1  0
 16 17  1  6
 18 17  1  0
 19 20  2  0
 19 18  1  0
 21 16  1  0
 21 22  2  0
 23 19  1  0
 25 26  2  0
 25 24  1  0
 27 25  1  0
 28 29  1  0
 28 27  1  1
 29 21  1  0
 30 28  1  0
 31 30  2  0
 32 30  1  0
M  END
$$$$
