WEN.pdb
     RDKit          3D

 32 33  0  0  1  0  0  0  0  0999 V2000
    6.4800  -17.7381   24.4541 N   0  0  0  0  0  0  0  0  0  0  0  0
    7.5507  -16.8805   24.0170 C   0  0  1  0  0  0  0  0  0  0  0  0
    8.1114  -16.0112   25.0999 C   0  0  0  0  0  0  0  0  0  0  0  0
    7.1227  -15.0292   25.6082 C   0  0  0  0  0  0  0  0  0  0  0  0
    5.8676  -15.2968   26.1329 C   0  0  0  0  0  0  0  0  0  0  0  0
    5.2352  -14.1724   26.4674 N   0  0  0  0  0  0  0  0  0  0  0  0
    6.0528  -13.1300   26.1742 C   0  0  0  0  0  0  0  0  0  0  0  0
    5.8597  -11.7661   26.3373 C   0  0  0  0  0  0  0  0  0  0  0  0
    6.8652  -10.9044   25.9587 C   0  0  0  0  0  0  0  0  0  0  0  0
    8.0305  -11.4108   25.4311 C   0  0  0  0  0  0  0  0  0  0  0  0
    8.2113  -12.7595   25.2739 C   0  0  0  0  0  0  0  0  0  0  0  0
    7.2293  -13.6572   25.6394 C   0  0  0  0  0  0  0  0  0  0  0  0
    8.6505  -17.6499   23.3725 C   0  0  0  0  0  0  0  0  0  0  0  0
    8.9804  -18.7414   23.9111 O   0  0  0  0  0  0  0  0  0  0  0  0
    9.3086  -17.1808   22.1920 N   0  0  0  0  0  0  0  0  0  0  0  0
   10.6371  -17.6315   21.9331 C   0  0  1  0  0  0  0  0  0  0  0  0
   11.0359  -17.0711   20.5438 C   0  0  0  0  0  0  0  0  0  0  0  0
   12.4002  -17.6656   20.2140 C   0  0  0  0  0  0  0  0  0  0  0  0
   12.8558  -17.2496   18.8847 C   0  0  0  0  0  0  0  0  0  0  0  0
   13.5439  -16.2224   18.7247 O   0  0  0  0  0  0  0  0  0  0  0  0
   11.6448  -17.2826   22.9313 C   0  0  0  0  0  0  0  0  0  0  0  0
   11.6035  -16.1340   23.4977 O   0  0  0  0  0  0  0  0  0  0  0  0
   12.5225  -18.0041   17.7745 O   0  0  0  0  0  0  0  0  0  0  0  0
   12.5625  -18.3100   27.7912 N   0  0  0  0  0  0  0  0  0  0  0  0
   12.1999  -19.3295   26.8687 C   0  0  0  0  0  0  0  0  0  0  0  0
   12.2427  -20.5127   27.2944 O   0  0  0  0  0  0  0  0  0  0  0  0
   11.8066  -18.9291   25.5025 C   0  0  0  0  0  0  0  0  0  0  0  0
   12.9774  -18.4327   24.7607 C   0  0  2  0  0  0  0  0  0  0  0  0
   12.7192  -18.0935   23.3802 N   0  0  0  0  0  0  0  0  0  0  0  0
   14.1537  -19.3076   24.9249 C   0  0  0  0  0  0  0  0  0  0  0  0
   13.9991  -20.4491   25.4148 O   0  0  0  0  0  0  0  0  0  0  0  0
   15.4332  -18.9035   24.5521 O   0  0  0  0  0  0  0  0  0  0  0  0
  2  3  1  0
  2  1  1  1
  3  4  1  0
  4  5  2  0
  5  6  1  0
  7  6  1  0
  8  7  2  0
  9  8  1  0
 10 11  1  0
 10  9  2  0
 11 12  2  0
 12  4  1  0
 12  7  1  0
 13  2  1  0
 13 14  2  0
 15 13  1  0
 16 15  1  0
 16 17  1  6
 18 17  1  0
 19 20  2  0
 19 18  1  0
 21 16  1  0
 21 22  2  0
 23 19  1  0
 25 26  2  0
 25 24  1  0
 27 25  1  0
 28 29  1  0
 28 27  1  6
 29 21  1  0
 30 28  1  0
 31 30  2  0
 32 30  1  0
M  END
$$$$
