WEN.pdb
     RDKit          3D

 32 33  0  0  1  0  0  0  0  0999 V2000
    7.5321  -17.5951   25.1067 N   0  0  0  0  0  0  0  0  0  0  0  0
    7.7379  -16.9638   23.8292 C   0  0  1  0  0  0  0  0  0  0  0  0
    7.9014  -15.4773   23.9072 C   0  0  0  0  0  0  0  0  0  0  0  0
    7.0889  -14.8732   24.9912 C   0  0  0  0  0  0  0  0  0  0  0  0
    6.0877  -15.4848   25.7298 C   0  0  0  0  0  0  0  0  0  0  0  0
    5.5481  -14.6371   26.6053 N   0  0  0  0  0  0  0  0  0  0  0  0
    6.1763  -13.4419   26.4712 C   0  0  0  0  0  0  0  0  0  0  0  0
    5.9845  -12.2476   27.1501 C   0  0  0  0  0  0  0  0  0  0  0  0
    6.7705  -11.1651   26.8221 C   0  0  0  0  0  0  0  0  0  0  0  0
    7.7215  -11.2907   25.8360 C   0  0  0  0  0  0  0  0  0  0  0  0
    7.9029  -12.4746   25.1713 C   0  0  0  0  0  0  0  0  0  0  0  0
    7.1366  -13.5829   25.4683 C   0  0  0  0  0  0  0  0  0  0  0  0
    8.8904  -17.5567   23.0962 C   0  0  0  0  0  0  0  0  0  0  0  0
    9.6242  -18.3607   23.7329 O   0  0  0  0  0  0  0  0  0  0  0  0
    9.1600  -17.2364   21.7281 N   0  0  0  0  0  0  0  0  0  0  0  0
   10.3360  -17.7745   21.1260 C   0  0  1  0  0  0  0  0  0  0  0  0
   10.2134  -17.5203   19.6016 C   0  0  0  0  0  0  0  0  0  0  0  0
   11.3958  -18.2275   18.9496 C   0  0  0  0  0  0  0  0  0  0  0  0
   11.3986  -18.0331   17.4971 C   0  0  0  0  0  0  0  0  0  0  0  0
   12.4630  -17.9689   16.8512 O   0  0  0  0  0  0  0  0  0  0  0  0
   11.6101  -17.2648   21.6263 C   0  0  0  0  0  0  0  0  0  0  0  0
   11.6482  -16.1316   22.2231 O   0  0  0  0  0  0  0  0  0  0  0  0
   10.2010  -17.9170   16.8151 O   0  0  0  0  0  0  0  0  0  0  0  0
   15.2843  -16.6418   25.2565 N   0  0  0  0  0  0  0  0  0  0  0  0
   14.9895  -17.8747   24.6125 C   0  0  0  0  0  0  0  0  0  0  0  0
   15.8303  -18.7993   24.7584 O   0  0  0  0  0  0  0  0  0  0  0  0
   13.7387  -17.9755   23.8334 C   0  0  0  0  0  0  0  0  0  0  0  0
   13.9909  -17.6464   22.4208 C   0  0  2  0  0  0  0  0  0  0  0  0
   12.8779  -17.8953   21.5339 N   0  0  0  0  0  0  0  0  0  0  0  0
   15.2552  -18.2270   21.9300 C   0  0  0  0  0  0  0  0  0  0  0  0
   16.3350  -17.6608   22.2134 O   0  0  0  0  0  0  0  0  0  0  0  0
   15.2859  -19.3868   21.1597 O   0  0  0  0  0  0  0  0  0  0  0  0
  2  3  1  0
  2  1  1  1
  3  4  1  0
  4  5  2  0
  5  6  1  0
  7  6  1  0
  8  7  2  0
  9  8  1  0
 10 11  1  0
 10  9  2  0
 11 12  2  0
 12  4  1  0
 12  7  1  0
 13  2  1  0
 13 14  2  0
 15 13  1  0
 16 15  1  0
 16 17  1  6
 18 17  1  0
 19 20  2  0
 19 18  1  0
 21 16  1  0
 21 22  2  0
 23 19  1  0
 25 26  2  0
 25 24  1  0
 27 25  1  0
 28 29  1  0
 28 27  1  1
 29 21  1  0
 30 28  1  0
 31 30  2  0
 32 30  1  0
M  END
$$$$
