WEN.pdb
     RDKit          3D

 32 33  0  0  1  0  0  0  0  0999 V2000
    7.0033  -17.6048   24.0841 N   0  0  0  0  0  0  0  0  0  0  0  0
    8.1222  -16.7288   23.8529 C   0  0  1  0  0  0  0  0  0  0  0  0
    8.5180  -15.9222   25.0510 C   0  0  0  0  0  0  0  0  0  0  0  0
    7.4067  -15.0836   25.5628 C   0  0  0  0  0  0  0  0  0  0  0  0
    6.2497  -15.5166   26.1922 C   0  0  0  0  0  0  0  0  0  0  0  0
    5.4539  -14.4918   26.4962 N   0  0  0  0  0  0  0  0  0  0  0  0
    6.0609  -13.3527   26.0775 C   0  0  0  0  0  0  0  0  0  0  0  0
    5.6456  -12.0321   26.1639 C   0  0  0  0  0  0  0  0  0  0  0  0
    6.4635  -11.0457   25.6587 C   0  0  0  0  0  0  0  0  0  0  0  0
    7.6654  -11.3888   25.0837 C   0  0  0  0  0  0  0  0  0  0  0  0
    8.0662  -12.6962   25.0031 C   0  0  0  0  0  0  0  0  0  0  0  0
    7.2769  -13.7149   25.4961 C   0  0  0  0  0  0  0  0  0  0  0  0
    9.3063  -17.4661   23.3321 C   0  0  0  0  0  0  0  0  0  0  0  0
    9.5448  -18.5981   23.8341 O   0  0  0  0  0  0  0  0  0  0  0  0
   10.1415  -16.9234   22.3051 N   0  0  0  0  0  0  0  0  0  0  0  0
   11.4144  -17.5265   22.0786 C   0  0  1  0  0  0  0  0  0  0  0  0
   11.8918  -17.0503   20.6826 C   0  0  0  0  0  0  0  0  0  0  0  0
   11.5886  -15.5583   20.6086 C   0  0  0  0  0  0  0  0  0  0  0  0
   12.0610  -14.9802   19.3475 C   0  0  0  0  0  0  0  0  0  0  0  0
   11.4298  -15.1359   18.2837 O   0  0  0  0  0  0  0  0  0  0  0  0
   12.4416  -17.2666   23.0840 C   0  0  0  0  0  0  0  0  0  0  0  0
   12.4233  -16.1647   23.7375 O   0  0  0  0  0  0  0  0  0  0  0  0
   13.2310  -14.2431   19.3227 O   0  0  0  0  0  0  0  0  0  0  0  0
   12.8972  -18.0078   26.9542 N   0  0  0  0  0  0  0  0  0  0  0  0
   13.5604  -19.2248   26.6368 C   0  0  0  0  0  0  0  0  0  0  0  0
   13.3661  -20.1906   27.4194 O   0  0  0  0  0  0  0  0  0  0  0  0
   14.4137  -19.2629   25.4317 C   0  0  0  0  0  0  0  0  0  0  0  0
   14.2778  -18.0092   24.6720 C   0  0  2  0  0  0  0  0  0  0  0  0
   13.5126  -18.1216   23.4517 N   0  0  0  0  0  0  0  0  0  0  0  0
   15.5742  -17.3332   24.4748 C   0  0  0  0  0  0  0  0  0  0  0  0
   16.3053  -17.1182   25.4678 O   0  0  0  0  0  0  0  0  0  0  0  0
   16.0113  -16.9255   23.2169 O   0  0  0  0  0  0  0  0  0  0  0  0
  2  3  1  0
  2  1  1  1
  3  4  1  0
  4  5  2  0
  5  6  1  0
  7  6  1  0
  8  7  2  0
  9  8  1  0
 10 11  1  0
 10  9  2  0
 11 12  2  0
 12  4  1  0
 12  7  1  0
 13  2  1  0
 13 14  2  0
 15 13  1  0
 16 15  1  0
 16 17  1  6
 18 17  1  0
 19 20  2  0
 19 18  1  0
 21 16  1  0
 21 22  2  0
 23 19  1  0
 25 26  2  0
 25 24  1  0
 27 25  1  0
 28 29  1  0
 28 27  1  6
 29 21  1  0
 30 28  1  0
 31 30  2  0
 32 30  1  0
M  END
$$$$
