WEN.pdb
     RDKit          3D

 32 33  0  0  1  0  0  0  0  0999 V2000
    6.6106  -18.0472   24.2417 N   0  0  0  0  0  0  0  0  0  0  0  0
    7.5208  -17.0681   23.7072 C   0  0  1  0  0  0  0  0  0  0  0  0
    8.1527  -16.1963   24.7481 C   0  0  0  0  0  0  0  0  0  0  0  0
    7.1958  -15.2245   25.3313 C   0  0  0  0  0  0  0  0  0  0  0  0
    6.0866  -15.5055   26.1140 C   0  0  0  0  0  0  0  0  0  0  0  0
    5.4344  -14.3911   26.4439 N   0  0  0  0  0  0  0  0  0  0  0  0
    6.0927  -13.3420   25.8896 C   0  0  0  0  0  0  0  0  0  0  0  0
    5.8188  -11.9833   25.9420 C   0  0  0  0  0  0  0  0  0  0  0  0
    6.6606  -11.1117   25.2873 C   0  0  0  0  0  0  0  0  0  0  0  0
    7.7466  -11.6035   24.6007 C   0  0  0  0  0  0  0  0  0  0  0  0
    8.0083  -12.9473   24.5549 C   0  0  0  0  0  0  0  0  0  0  0  0
    7.1902  -13.8546   25.1962 C   0  0  0  0  0  0  0  0  0  0  0  0
    8.5796  -17.6940   22.8681 C   0  0  0  0  0  0  0  0  0  0  0  0
    8.6685  -18.9516   22.8986 O   0  0  0  0  0  0  0  0  0  0  0  0
    9.4608  -16.9113   22.0572 N   0  0  0  0  0  0  0  0  0  0  0  0
   10.7985  -17.3716   21.8722 C   0  0  1  0  0  0  0  0  0  0  0  0
   11.4669  -16.4059   20.8604 C   0  0  0  0  0  0  0  0  0  0  0  0
   10.8479  -16.7090   19.5008 C   0  0  0  0  0  0  0  0  0  0  0  0
   11.8753  -16.8358   18.4635 C   0  0  0  0  0  0  0  0  0  0  0  0
   12.9779  -17.3665   18.7013 O   0  0  0  0  0  0  0  0  0  0  0  0
   11.6143  -17.4903   23.0779 C   0  0  0  0  0  0  0  0  0  0  0  0
   12.8710  -17.7166   22.9722 O   0  0  0  0  0  0  0  0  0  0  0  0
   11.6292  -16.3608   17.1881 O   0  0  0  0  0  0  0  0  0  0  0  0
   11.8434  -15.0204   25.7072 N   0  0  0  0  0  0  0  0  0  0  0  0
   11.3424  -15.7134   26.8431 C   0  0  0  0  0  0  0  0  0  0  0  0
   10.8558  -15.0059   27.7628 O   0  0  0  0  0  0  0  0  0  0  0  0
   11.4294  -17.1878   26.8577 C   0  0  0  0  0  0  0  0  0  0  0  0
   11.9798  -17.6779   25.5832 C   0  0  2  0  0  0  0  0  0  0  0  0
   11.1732  -17.3803   24.4221 N   0  0  0  0  0  0  0  0  0  0  0  0
   12.3770  -19.0968   25.6561 C   0  0  0  0  0  0  0  0  0  0  0  0
   11.8363  -19.9202   24.8838 O   0  0  0  0  0  0  0  0  0  0  0  0
   13.3360  -19.5504   26.5584 O   0  0  0  0  0  0  0  0  0  0  0  0
  2  3  1  0
  2  1  1  1
  3  4  1  0
  4  5  2  0
  5  6  1  0
  7  6  1  0
  8  7  2  0
  9  8  1  0
 10 11  1  0
 10  9  2  0
 11 12  2  0
 12  4  1  0
 12  7  1  0
 13  2  1  0
 13 14  2  0
 15 13  1  0
 16 15  1  0
 16 17  1  6
 18 17  1  0
 19 20  2  0
 19 18  1  0
 21 16  1  0
 21 22  2  0
 23 19  1  0
 25 26  2  0
 25 24  1  0
 27 25  1  0
 28 29  1  0
 28 27  1  1
 29 21  1  0
 30 28  1  0
 31 30  2  0
 32 30  1  0
M  END
$$$$
