WEN.pdb
     RDKit          3D

 32 33  0  0  1  0  0  0  0  0999 V2000
    6.9159  -17.7206   24.2606 N   0  0  0  0  0  0  0  0  0  0  0  0
    7.9866  -16.8011   23.9760 C   0  0  1  0  0  0  0  0  0  0  0  0
    8.4520  -16.0249   25.1691 C   0  0  0  0  0  0  0  0  0  0  0  0
    7.4217  -15.0827   25.6702 C   0  0  0  0  0  0  0  0  0  0  0  0
    6.2089  -15.4021   26.2610 C   0  0  0  0  0  0  0  0  0  0  0  0
    5.5175  -14.3044   26.5663 N   0  0  0  0  0  0  0  0  0  0  0  0
    6.2523  -13.2286   26.1869 C   0  0  0  0  0  0  0  0  0  0  0  0
    5.9764  -11.8733   26.2903 C   0  0  0  0  0  0  0  0  0  0  0  0
    6.9071  -10.9701   25.8266 C   0  0  0  0  0  0  0  0  0  0  0  0
    8.0813  -11.4280   25.2750 C   0  0  0  0  0  0  0  0  0  0  0  0
    8.3442  -12.7688   25.1772 C   0  0  0  0  0  0  0  0  0  0  0  0
    7.4388  -13.7070   25.6288 C   0  0  0  0  0  0  0  0  0  0  0  0
    9.1470  -17.4808   23.3369 C   0  0  0  0  0  0  0  0  0  0  0  0
    9.5200  -18.5755   23.8397 O   0  0  0  0  0  0  0  0  0  0  0  0
    9.8145  -16.9253   22.2000 N   0  0  0  0  0  0  0  0  0  0  0  0
   11.0354  -17.5261   21.7714 C   0  0  1  0  0  0  0  0  0  0  0  0
   11.3793  -16.9044   20.3935 C   0  0  0  0  0  0  0  0  0  0  0  0
   12.6340  -17.6157   19.9002 C   0  0  0  0  0  0  0  0  0  0  0  0
   13.0065  -17.1683   18.5552 C   0  0  0  0  0  0  0  0  0  0  0  0
   12.9249  -17.9288   17.5708 O   0  0  0  0  0  0  0  0  0  0  0  0
   12.1707  -17.4049   22.6823 C   0  0  0  0  0  0  0  0  0  0  0  0
   12.5767  -16.2425   23.0368 O   0  0  0  0  0  0  0  0  0  0  0  0
   13.4599  -15.8765   18.3595 O   0  0  0  0  0  0  0  0  0  0  0  0
   12.3406  -18.3716   26.2194 N   0  0  0  0  0  0  0  0  0  0  0  0
   13.2548  -19.4569   26.1312 C   0  0  0  0  0  0  0  0  0  0  0  0
   13.1202  -20.3748   26.9812 O   0  0  0  0  0  0  0  0  0  0  0  0
   14.2772  -19.4256   25.0656 C   0  0  0  0  0  0  0  0  0  0  0  0
   14.0351  -18.2895   24.1611 C   0  0  2  0  0  0  0  0  0  0  0  0
   12.9212  -18.4629   23.2574 N   0  0  0  0  0  0  0  0  0  0  0  0
   15.2654  -17.8501   23.4758 C   0  0  0  0  0  0  0  0  0  0  0  0
   16.2354  -17.4550   24.1613 O   0  0  0  0  0  0  0  0  0  0  0  0
   15.3823  -17.8604   22.0881 O   0  0  0  0  0  0  0  0  0  0  0  0
  2  3  1  0
  2  1  1  1
  3  4  1  0
  4  5  2  0
  5  6  1  0
  7  6  1  0
  8  7  2  0
  9  8  1  0
 10 11  1  0
 10  9  2  0
 11 12  2  0
 12  4  1  0
 12  7  1  0
 13  2  1  0
 13 14  2  0
 15 13  1  0
 16 15  1  0
 16 17  1  6
 18 17  1  0
 19 20  2  0
 19 18  1  0
 21 16  1  0
 21 22  2  0
 23 19  1  0
 25 26  2  0
 25 24  1  0
 27 25  1  0
 28 29  1  0
 28 27  1  6
 29 21  1  0
 30 28  1  0
 31 30  2  0
 32 30  1  0
M  END
$$$$
