WEN.pdb
     RDKit          3D

 32 33  0  0  1  0  0  0  0  0999 V2000
    6.8153  -17.9025   24.1908 N   0  0  0  0  0  0  0  0  0  0  0  0
    7.8407  -16.9255   23.9323 C   0  0  1  0  0  0  0  0  0  0  0  0
    8.3004  -16.1917   25.1541 C   0  0  0  0  0  0  0  0  0  0  0  0
    7.2548  -15.2949   25.7043 C   0  0  0  0  0  0  0  0  0  0  0  0
    6.0253  -15.6623   26.2290 C   0  0  0  0  0  0  0  0  0  0  0  0
    5.3241  -14.5941   26.6077 N   0  0  0  0  0  0  0  0  0  0  0  0
    6.0688  -13.4907   26.3451 C   0  0  0  0  0  0  0  0  0  0  0  0
    5.7887  -12.1490   26.5576 C   0  0  0  0  0  0  0  0  0  0  0  0
    6.7319  -11.2105   26.2018 C   0  0  0  0  0  0  0  0  0  0  0  0
    7.9224  -11.6207   25.6476 C   0  0  0  0  0  0  0  0  0  0  0  0
    8.1893  -12.9484   25.4416 C   0  0  0  0  0  0  0  0  0  0  0  0
    7.2718  -13.9207   25.7830 C   0  0  0  0  0  0  0  0  0  0  0  0
    9.0134  -17.5224   23.2356 C   0  0  0  0  0  0  0  0  0  0  0  0
    9.2727  -18.7320   23.4805 O   0  0  0  0  0  0  0  0  0  0  0  0
    9.8156  -16.7654   22.3244 N   0  0  0  0  0  0  0  0  0  0  0  0
   11.0145  -17.3565   21.8259 C   0  0  1  0  0  0  0  0  0  0  0  0
   11.3167  -16.6747   20.4669 C   0  0  0  0  0  0  0  0  0  0  0  0
   12.4985  -17.4235   19.8617 C   0  0  0  0  0  0  0  0  0  0  0  0
   12.8185  -16.9217   18.5225 C   0  0  0  0  0  0  0  0  0  0  0  0
   13.9514  -17.0726   18.0247 O   0  0  0  0  0  0  0  0  0  0  0  0
   12.1820  -17.2877   22.7009 C   0  0  0  0  0  0  0  0  0  0  0  0
   13.3096  -17.7351   22.2882 O   0  0  0  0  0  0  0  0  0  0  0  0
   11.8515  -16.2646   17.7836 O   0  0  0  0  0  0  0  0  0  0  0  0
   12.3010  -16.1949   27.4832 N   0  0  0  0  0  0  0  0  0  0  0  0
   11.4085  -17.2782   27.2561 C   0  0  0  0  0  0  0  0  0  0  0  0
   10.5644  -17.5089   28.1601 O   0  0  0  0  0  0  0  0  0  0  0  0
   11.5376  -18.0387   25.9966 C   0  0  0  0  0  0  0  0  0  0  0  0
   12.6441  -17.5006   25.1881 C   0  0  2  0  0  0  0  0  0  0  0  0
   12.2332  -16.7606   24.0172 N   0  0  0  0  0  0  0  0  0  0  0  0
   13.6656  -18.5224   24.8903 C   0  0  0  0  0  0  0  0  0  0  0  0
   14.4780  -18.8491   25.7849 O   0  0  0  0  0  0  0  0  0  0  0  0
   13.7555  -19.1362   23.6435 O   0  0  0  0  0  0  0  0  0  0  0  0
  2  3  1  0
  2  1  1  1
  3  4  1  0
  4  5  2  0
  5  6  1  0
  7  6  1  0
  8  7  2  0
  9  8  1  0
 10 11  1  0
 10  9  2  0
 11 12  2  0
 12  4  1  0
 12  7  1  0
 13  2  1  0
 13 14  2  0
 15 13  1  0
 16 15  1  0
 16 17  1  6
 18 17  1  0
 19 20  2  0
 19 18  1  0
 21 16  1  0
 21 22  2  0
 23 19  1  0
 25 26  2  0
 25 24  1  0
 27 25  1  0
 28 29  1  0
 28 27  1  6
 29 21  1  0
 30 28  1  0
 31 30  2  0
 32 30  1  0
M  END
$$$$
