WEN.pdb
     RDKit          3D

 32 33  0  0  1  0  0  0  0  0999 V2000
    6.2953  -17.6364   24.3576 N   0  0  0  0  0  0  0  0  0  0  0  0
    7.4250  -16.8241   23.9879 C   0  0  1  0  0  0  0  0  0  0  0  0
    8.0227  -16.0614   25.1297 C   0  0  0  0  0  0  0  0  0  0  0  0
    7.0854  -15.0609   25.6962 C   0  0  0  0  0  0  0  0  0  0  0  0
    5.9070  -15.3094   26.3829 C   0  0  0  0  0  0  0  0  0  0  0  0
    5.3002  -14.1736   26.7259 N   0  0  0  0  0  0  0  0  0  0  0  0
    6.0589  -13.1422   26.2767 C   0  0  0  0  0  0  0  0  0  0  0  0
    5.8636  -11.7731   26.3832 C   0  0  0  0  0  0  0  0  0  0  0  0
    6.8017  -10.9254   25.8371 C   0  0  0  0  0  0  0  0  0  0  0  0
    7.9038  -11.4505   25.2029 C   0  0  0  0  0  0  0  0  0  0  0  0
    8.0874  -12.8043   25.1029 C   0  0  0  0  0  0  0  0  0  0  0  0
    7.1716  -13.6885   25.6353 C   0  0  0  0  0  0  0  0  0  0  0  0
    8.4838  -17.6213   23.3094 C   0  0  0  0  0  0  0  0  0  0  0  0
    8.6463  -18.8098   23.6985 O   0  0  0  0  0  0  0  0  0  0  0  0
    9.2850  -17.0726   22.2588 N   0  0  0  0  0  0  0  0  0  0  0  0
   10.5395  -17.6884   21.9721 C   0  0  1  0  0  0  0  0  0  0  0  0
   11.1053  -16.9835   20.7126 C   0  0  0  0  0  0  0  0  0  0  0  0
   12.3786  -17.7315   20.3347 C   0  0  0  0  0  0  0  0  0  0  0  0
   12.9666  -17.1954   19.1040 C   0  0  0  0  0  0  0  0  0  0  0  0
   14.1712  -17.3645   18.8312 O   0  0  0  0  0  0  0  0  0  0  0  0
   11.5267  -17.6773   23.0485 C   0  0  0  0  0  0  0  0  0  0  0  0
   11.8845  -16.5619   23.5679 O   0  0  0  0  0  0  0  0  0  0  0  0
   12.1791  -16.4844   18.2168 O   0  0  0  0  0  0  0  0  0  0  0  0
   15.0266  -19.7013   23.0254 N   0  0  0  0  0  0  0  0  0  0  0  0
   15.2685  -18.3895   23.5175 C   0  0  0  0  0  0  0  0  0  0  0  0
   16.3350  -17.8371   23.1426 O   0  0  0  0  0  0  0  0  0  0  0  0
   14.2658  -17.7838   24.4172 C   0  0  0  0  0  0  0  0  0  0  0  0
   13.1696  -18.7334   24.6704 C   0  0  2  0  0  0  0  0  0  0  0  0
   12.1742  -18.8004   23.6255 N   0  0  0  0  0  0  0  0  0  0  0  0
   12.5809  -18.5606   26.0120 C   0  0  0  0  0  0  0  0  0  0  0  0
   13.3224  -18.6440   27.0170 O   0  0  0  0  0  0  0  0  0  0  0  0
   11.2239  -18.3076   26.1966 O   0  0  0  0  0  0  0  0  0  0  0  0
  2  3  1  0
  2  1  1  1
  3  4  1  0
  4  5  2  0
  5  6  1  0
  7  6  1  0
  8  7  2  0
  9  8  1  0
 10 11  1  0
 10  9  2  0
 11 12  2  0
 12  4  1  0
 12  7  1  0
 13  2  1  0
 13 14  2  0
 15 13  1  0
 16 15  1  0
 16 17  1  6
 18 17  1  0
 19 20  2  0
 19 18  1  0
 21 16  1  0
 21 22  2  0
 23 19  1  0
 25 26  2  0
 25 24  1  0
 27 25  1  0
 28 29  1  0
 28 27  1  6
 29 21  1  0
 30 28  1  0
 31 30  2  0
 32 30  1  0
M  END
$$$$
