WEN.pdb
     RDKit          3D

 32 33  0  0  1  0  0  0  0  0999 V2000
    6.7129  -17.4615   23.7061 N   0  0  0  0  0  0  0  0  0  0  0  0
    7.9319  -16.7300   23.9337 C   0  0  1  0  0  0  0  0  0  0  0  0
    8.0848  -16.2287   25.3366 C   0  0  0  0  0  0  0  0  0  0  0  0
    7.0712  -15.2039   25.6866 C   0  0  0  0  0  0  0  0  0  0  0  0
    5.7829  -15.4219   26.1504 C   0  0  0  0  0  0  0  0  0  0  0  0
    5.1369  -14.2715   26.3380 N   0  0  0  0  0  0  0  0  0  0  0  0
    5.9783  -13.2605   26.0043 C   0  0  0  0  0  0  0  0  0  0  0  0
    5.7833  -11.8875   26.0284 C   0  0  0  0  0  0  0  0  0  0  0  0
    6.8166  -11.0644   25.6389 C   0  0  0  0  0  0  0  0  0  0  0  0
    8.0107  -11.6173   25.2374 C   0  0  0  0  0  0  0  0  0  0  0  0
    8.1930  -12.9748   25.2170 C   0  0  0  0  0  0  0  0  0  0  0  0
    7.1838  -13.8349   25.5985 C   0  0  0  0  0  0  0  0  0  0  0  0
    9.1338  -17.5210   23.5507 C   0  0  0  0  0  0  0  0  0  0  0  0
    9.1284  -18.7493   23.8364 O   0  0  0  0  0  0  0  0  0  0  0  0
   10.2500  -16.9230   22.8848 N   0  0  0  0  0  0  0  0  0  0  0  0
   11.5032  -17.6038   22.9198 C   0  0  1  0  0  0  0  0  0  0  0  0
   12.4480  -16.8499   21.9491 C   0  0  0  0  0  0  0  0  0  0  0  0
   13.0337  -17.9011   21.0135 C   0  0  0  0  0  0  0  0  0  0  0  0
   14.0098  -17.3112   20.0931 C   0  0  0  0  0  0  0  0  0  0  0  0
   15.1759  -17.7453   20.0157 O   0  0  0  0  0  0  0  0  0  0  0  0
   12.1276  -17.7424   24.2330 C   0  0  0  0  0  0  0  0  0  0  0  0
   13.2473  -18.3561   24.3399 O   0  0  0  0  0  0  0  0  0  0  0  0
   13.6425  -16.2493   19.2867 O   0  0  0  0  0  0  0  0  0  0  0  0
   10.3376  -14.6272   27.3676 N   0  0  0  0  0  0  0  0  0  0  0  0
   11.6287  -15.2182   27.2935 C   0  0  0  0  0  0  0  0  0  0  0  0
   12.5363  -14.5205   26.7713 O   0  0  0  0  0  0  0  0  0  0  0  0
   11.8043  -16.5844   27.8266 C   0  0  0  0  0  0  0  0  0  0  0  0
   12.2442  -17.4955   26.7570 C   0  0  2  0  0  0  0  0  0  0  0  0
   11.6301  -17.2589   25.4708 N   0  0  0  0  0  0  0  0  0  0  0  0
   12.1826  -18.9106   27.1693 C   0  0  0  0  0  0  0  0  0  0  0  0
   11.5647  -19.7274   26.4498 O   0  0  0  0  0  0  0  0  0  0  0  0
   12.7908  -19.3676   28.3358 O   0  0  0  0  0  0  0  0  0  0  0  0
  2  3  1  0
  2  1  1  1
  3  4  1  0
  4  5  2  0
  5  6  1  0
  7  6  1  0
  8  7  2  0
  9  8  1  0
 10 11  1  0
 10  9  2  0
 11 12  2  0
 12  4  1  0
 12  7  1  0
 13  2  1  0
 13 14  2  0
 15 13  1  0
 16 15  1  0
 16 17  1  6
 18 17  1  0
 19 20  2  0
 19 18  1  0
 21 16  1  0
 21 22  2  0
 23 19  1  0
 25 26  2  0
 25 24  1  0
 27 25  1  0
 28 29  1  0
 28 27  1  1
 29 21  1  0
 30 28  1  0
 31 30  2  0
 32 30  1  0
M  END
$$$$
