WEN.pdb
     RDKit          3D

 32 33  0  0  1  0  0  0  0  0999 V2000
    6.3931  -18.4993   24.8066 N   0  0  0  0  0  0  0  0  0  0  0  0
    6.9353  -17.7705   23.6895 C   0  0  1  0  0  0  0  0  0  0  0  0
    6.4422  -16.3601   23.5894 C   0  0  0  0  0  0  0  0  0  0  0  0
    6.6057  -15.6103   24.8588 C   0  0  0  0  0  0  0  0  0  0  0  0
    6.3323  -16.0614   26.1410 C   0  0  0  0  0  0  0  0  0  0  0  0
    6.5697  -15.1128   27.0465 N   0  0  0  0  0  0  0  0  0  0  0  0
    7.0067  -14.0085   26.3903 C   0  0  0  0  0  0  0  0  0  0  0  0
    7.3866  -12.7673   26.8791 C   0  0  0  0  0  0  0  0  0  0  0  0
    7.8033  -11.8032   25.9880 C   0  0  0  0  0  0  0  0  0  0  0  0
    7.8335  -12.0898   24.6427 C   0  0  0  0  0  0  0  0  0  0  0  0
    7.4559  -13.3188   24.1701 C   0  0  0  0  0  0  0  0  0  0  0  0
    7.0315  -14.3124   25.0283 C   0  0  0  0  0  0  0  0  0  0  0  0
    8.4242  -17.7819   23.6892 C   0  0  0  0  0  0  0  0  0  0  0  0
    8.9915  -18.7597   24.2482 O   0  0  0  0  0  0  0  0  0  0  0  0
    9.1867  -16.7349   23.0816 N   0  0  0  0  0  0  0  0  0  0  0  0
   10.5835  -16.9441   22.8802 C   0  0  1  0  0  0  0  0  0  0  0  0
   11.0449  -15.8986   21.8327 C   0  0  0  0  0  0  0  0  0  0  0  0
   12.5147  -16.1890   21.5516 C   0  0  0  0  0  0  0  0  0  0  0  0
   13.0198  -15.3649   20.4500 C   0  0  0  0  0  0  0  0  0  0  0  0
   12.4807  -15.3798   19.3261 O   0  0  0  0  0  0  0  0  0  0  0  0
   11.4260  -16.8773   24.0715 C   0  0  0  0  0  0  0  0  0  0  0  0
   12.6783  -17.1309   23.9762 O   0  0  0  0  0  0  0  0  0  0  0  0
   14.1180  -14.5479   20.6480 O   0  0  0  0  0  0  0  0  0  0  0  0
    9.2700  -14.6465   27.7966 N   0  0  0  0  0  0  0  0  0  0  0  0
   10.6710  -14.8315   27.6403 C   0  0  0  0  0  0  0  0  0  0  0  0
   11.3453  -13.8058   27.3636 O   0  0  0  0  0  0  0  0  0  0  0  0
   11.2205  -16.1917   27.8119 C   0  0  0  0  0  0  0  0  0  0  0  0
   11.8544  -16.6458   26.5631 C   0  0  2  0  0  0  0  0  0  0  0  0
   11.0167  -16.5492   25.3899 N   0  0  0  0  0  0  0  0  0  0  0  0
   12.4860  -17.9711   26.7081 C   0  0  0  0  0  0  0  0  0  0  0  0
   11.9342  -18.9678   26.1895 O   0  0  0  0  0  0  0  0  0  0  0  0
   13.6784  -18.1493   27.4051 O   0  0  0  0  0  0  0  0  0  0  0  0
  2  3  1  0
  2  1  1  1
  3  4  1  0
  4  5  2  0
  5  6  1  0
  7  6  1  0
  8  7  2  0
  9  8  1  0
 10 11  1  0
 10  9  2  0
 11 12  2  0
 12  4  1  0
 12  7  1  0
 13  2  1  0
 13 14  2  0
 15 13  1  0
 16 15  1  0
 16 17  1  6
 18 17  1  0
 19 20  2  0
 19 18  1  0
 21 16  1  0
 21 22  2  0
 23 19  1  0
 25 26  2  0
 25 24  1  0
 27 25  1  0
 28 29  1  0
 28 27  1  1
 29 21  1  0
 30 28  1  0
 31 30  2  0
 32 30  1  0
M  END
$$$$
