WEN.pdb
     RDKit          3D

 32 33  0  0  1  0  0  0  0  0999 V2000
    6.6279  -17.5256   23.9615 N   0  0  0  0  0  0  0  0  0  0  0  0
    7.2370  -16.3152   23.4748 C   0  0  1  0  0  0  0  0  0  0  0  0
    8.2527  -15.7306   24.4071 C   0  0  0  0  0  0  0  0  0  0  0  0
    7.6308  -14.9852   25.5286 C   0  0  0  0  0  0  0  0  0  0  0  0
    7.1201  -15.5116   26.7052 C   0  0  0  0  0  0  0  0  0  0  0  0
    6.6114  -14.5546   27.4807 N   0  0  0  0  0  0  0  0  0  0  0  0
    6.7709  -13.3689   26.8403 C   0  0  0  0  0  0  0  0  0  0  0  0
    6.4146  -12.0858   27.2283 C   0  0  0  0  0  0  0  0  0  0  0  0
    6.6982  -11.0353   26.3839 C   0  0  0  0  0  0  0  0  0  0  0  0
    7.3239  -11.2792   25.1833 C   0  0  0  0  0  0  0  0  0  0  0  0
    7.6716  -12.5502   24.8092 C   0  0  0  0  0  0  0  0  0  0  0  0
    7.4052  -13.6307   25.6249 C   0  0  0  0  0  0  0  0  0  0  0  0
    7.8426  -16.5014   22.1273 C   0  0  0  0  0  0  0  0  0  0  0  0
    8.2409  -17.6608   21.8316 O   0  0  0  0  0  0  0  0  0  0  0  0
    7.9689  -15.4189   21.2006 N   0  0  0  0  0  0  0  0  0  0  0  0
    8.6271  -15.6640   19.9588 C   0  0  1  0  0  0  0  0  0  0  0  0
    8.1594  -14.5570   18.9795 C   0  0  0  0  0  0  0  0  0  0  0  0
    8.9546  -14.7538   17.6941 C   0  0  0  0  0  0  0  0  0  0  0  0
    8.2307  -14.2280   16.5334 C   0  0  0  0  0  0  0  0  0  0  0  0
    7.5583  -14.9729   15.7938 O   0  0  0  0  0  0  0  0  0  0  0  0
   10.0859  -15.7237   20.0006 C   0  0  0  0  0  0  0  0  0  0  0  0
   10.7382  -16.0169   18.9374 O   0  0  0  0  0  0  0  0  0  0  0  0
    8.2859  -12.8774   16.2407 O   0  0  0  0  0  0  0  0  0  0  0  0
   13.9883  -13.3388   19.0080 N   0  0  0  0  0  0  0  0  0  0  0  0
   14.1029  -14.2928   20.0560 C   0  0  0  0  0  0  0  0  0  0  0  0
   15.0908  -15.0702   20.0019 O   0  0  0  0  0  0  0  0  0  0  0  0
   13.0703  -14.2993   21.1121 C   0  0  0  0  0  0  0  0  0  0  0  0
   12.3599  -15.5888   21.1213 C   0  0  2  0  0  0  0  0  0  0  0  0
   10.9188  -15.4851   21.1243 N   0  0  0  0  0  0  0  0  0  0  0  0
   12.8706  -16.4995   22.1635 C   0  0  0  0  0  0  0  0  0  0  0  0
   14.0914  -16.7752   22.1853 O   0  0  0  0  0  0  0  0  0  0  0  0
   12.0364  -17.0637   23.1255 O   0  0  0  0  0  0  0  0  0  0  0  0
  2  3  1  0
  2  1  1  1
  3  4  1  0
  4  5  2  0
  5  6  1  0
  7  6  1  0
  8  7  2  0
  9  8  1  0
 10 11  1  0
 10  9  2  0
 11 12  2  0
 12  4  1  0
 12  7  1  0
 13  2  1  0
 13 14  2  0
 15 13  1  0
 16 15  1  0
 16 17  1  6
 18 17  1  0
 19 20  2  0
 19 18  1  0
 21 16  1  0
 21 22  2  0
 23 19  1  0
 25 26  2  0
 25 24  1  0
 27 25  1  0
 28 29  1  0
 28 27  1  1
 29 21  1  0
 30 28  1  0
 31 30  2  0
 32 30  1  0
M  END
$$$$
