WEN.pdb
     RDKit          3D

 32 33  0  0  1  0  0  0  0  0999 V2000
    8.3901  -17.6091   23.2488 N   0  0  0  0  0  0  0  0  0  0  0  0
    9.4103  -16.8618   22.5605 C   0  0  1  0  0  0  0  0  0  0  0  0
    9.7669  -15.5683   23.2257 C   0  0  0  0  0  0  0  0  0  0  0  0
    8.7003  -14.5467   23.0881 C   0  0  0  0  0  0  0  0  0  0  0  0
    7.7649  -14.1764   24.0419 C   0  0  0  0  0  0  0  0  0  0  0  0
    6.9376  -13.2443   23.5695 N   0  0  0  0  0  0  0  0  0  0  0  0
    7.3018  -12.9714   22.2912 C   0  0  0  0  0  0  0  0  0  0  0  0
    6.7619  -12.0793   21.3766 C   0  0  0  0  0  0  0  0  0  0  0  0
    7.3300  -11.9879   20.1252 C   0  0  0  0  0  0  0  0  0  0  0  0
    8.4123  -12.7773   19.8117 C   0  0  0  0  0  0  0  0  0  0  0  0
    8.9379  -13.6555   20.7221 C   0  0  0  0  0  0  0  0  0  0  0  0
    8.3987  -13.7788   21.9862 C   0  0  0  0  0  0  0  0  0  0  0  0
   10.6417  -17.6708   22.3460 C   0  0  0  0  0  0  0  0  0  0  0  0
   10.9256  -18.5293   23.2251 O   0  0  0  0  0  0  0  0  0  0  0  0
   11.4716  -17.4912   21.1946 N   0  0  0  0  0  0  0  0  0  0  0  0
   12.7333  -18.1561   21.1592 C   0  0  1  0  0  0  0  0  0  0  0  0
   13.1847  -18.1785   19.6763 C   0  0  0  0  0  0  0  0  0  0  0  0
   14.3293  -19.1813   19.5886 C   0  0  0  0  0  0  0  0  0  0  0  0
   14.6649  -19.4869   18.1951 C   0  0  0  0  0  0  0  0  0  0  0  0
   13.9494  -19.0947   17.2526 O   0  0  0  0  0  0  0  0  0  0  0  0
   13.7847  -17.5940   22.0030 C   0  0  0  0  0  0  0  0  0  0  0  0
   14.8512  -17.1329   21.4628 O   0  0  0  0  0  0  0  0  0  0  0  0
   15.7976  -20.2256   17.9051 O   0  0  0  0  0  0  0  0  0  0  0  0
   16.6597  -17.5319   22.3179 N   0  0  0  0  0  0  0  0  0  0  0  0
   16.8054  -16.6435   23.4184 C   0  0  0  0  0  0  0  0  0  0  0  0
   17.7621  -15.8284   23.3590 O   0  0  0  0  0  0  0  0  0  0  0  0
   15.8384  -16.7428   24.5305 C   0  0  0  0  0  0  0  0  0  0  0  0
   14.8837  -17.8349   24.2788 C   0  0  2  0  0  0  0  0  0  0  0  0
   13.7777  -17.4847   23.4177 N   0  0  0  0  0  0  0  0  0  0  0  0
   14.4521  -18.4965   25.5247 C   0  0  0  0  0  0  0  0  0  0  0  0
   15.0648  -19.5155   25.9160 O   0  0  0  0  0  0  0  0  0  0  0  0
   13.3826  -18.0232   26.2808 O   0  0  0  0  0  0  0  0  0  0  0  0
  2  3  1  0
  2  1  1  1
  3  4  1  0
  4  5  2  0
  5  6  1  0
  7  6  1  0
  8  7  2  0
  9  8  1  0
 10 11  1  0
 10  9  2  0
 11 12  2  0
 12  4  1  0
 12  7  1  0
 13  2  1  0
 13 14  2  0
 15 13  1  0
 16 15  1  0
 16 17  1  6
 18 17  1  0
 19 20  2  0
 19 18  1  0
 21 16  1  0
 21 22  2  0
 23 19  1  0
 25 26  2  0
 25 24  1  0
 27 25  1  0
 28 29  1  0
 28 27  1  1
 29 21  1  0
 30 28  1  0
 31 30  2  0
 32 30  1  0
M  END
$$$$
