WEN.pdb
     RDKit          3D

 32 33  0  0  1  0  0  0  0  0999 V2000
    6.5427  -17.5858   23.9907 N   0  0  0  0  0  0  0  0  0  0  0  0
    7.7325  -16.7895   23.8380 C   0  0  1  0  0  0  0  0  0  0  0  0
    8.1772  -16.1163   25.0996 C   0  0  0  0  0  0  0  0  0  0  0  0
    7.2260  -15.0714   25.5508 C   0  0  0  0  0  0  0  0  0  0  0  0
    5.9663  -15.2628   26.0972 C   0  0  0  0  0  0  0  0  0  0  0  0
    5.3747  -14.0989   26.3645 N   0  0  0  0  0  0  0  0  0  0  0  0
    6.2252  -13.1052   26.0032 C   0  0  0  0  0  0  0  0  0  0  0  0
    6.0796  -11.7281   26.0823 C   0  0  0  0  0  0  0  0  0  0  0  0
    7.1112  -10.9264   25.6461 C   0  0  0  0  0  0  0  0  0  0  0  0
    8.2548  -11.5042   25.1452 C   0  0  0  0  0  0  0  0  0  0  0  0
    8.3886  -12.8654   25.0710 C   0  0  0  0  0  0  0  0  0  0  0  0
    7.3793  -13.7045   25.4964 C   0  0  0  0  0  0  0  0  0  0  0  0
    8.8589  -17.5783   23.2672 C   0  0  0  0  0  0  0  0  0  0  0  0
    9.0682  -18.7204   23.7594 O   0  0  0  0  0  0  0  0  0  0  0  0
    9.6725  -17.0722   22.2048 N   0  0  0  0  0  0  0  0  0  0  0  0
   10.9964  -17.5845   22.0630 C   0  0  1  0  0  0  0  0  0  0  0  0
   11.5807  -16.9596   20.7701 C   0  0  0  0  0  0  0  0  0  0  0  0
   11.6931  -18.0921   19.7561 C   0  0  0  0  0  0  0  0  0  0  0  0
   11.3155  -17.6443   18.4127 C   0  0  0  0  0  0  0  0  0  0  0  0
   12.1743  -17.4070   17.5407 O   0  0  0  0  0  0  0  0  0  0  0  0
   11.9000  -17.3628   23.1890 C   0  0  0  0  0  0  0  0  0  0  0  0
   12.3129  -16.1773   23.4455 O   0  0  0  0  0  0  0  0  0  0  0  0
    9.9807  -17.4774   18.0916 O   0  0  0  0  0  0  0  0  0  0  0  0
   12.2565  -20.4920   24.8765 N   0  0  0  0  0  0  0  0  0  0  0  0
   12.4686  -20.0554   26.2129 C   0  0  0  0  0  0  0  0  0  0  0  0
   12.1443  -20.8598   27.1244 O   0  0  0  0  0  0  0  0  0  0  0  0
   13.0444  -18.7122   26.4269 C   0  0  0  0  0  0  0  0  0  0  0  0
   13.3631  -18.0831   25.1346 C   0  0  2  0  0  0  0  0  0  0  0  0
   12.4053  -18.3409   24.0841 N   0  0  0  0  0  0  0  0  0  0  0  0
   14.7544  -18.3408   24.7169 C   0  0  0  0  0  0  0  0  0  0  0  0
   14.9683  -18.8390   23.5887 O   0  0  0  0  0  0  0  0  0  0  0  0
   15.8393  -18.0474   25.5393 O   0  0  0  0  0  0  0  0  0  0  0  0
  2  3  1  0
  2  1  1  1
  3  4  1  0
  4  5  2  0
  5  6  1  0
  7  6  1  0
  8  7  2  0
  9  8  1  0
 10 11  1  0
 10  9  2  0
 11 12  2  0
 12  4  1  0
 12  7  1  0
 13  2  1  0
 13 14  2  0
 15 13  1  0
 16 15  1  0
 16 17  1  6
 18 17  1  0
 19 20  2  0
 19 18  1  0
 21 16  1  0
 21 22  2  0
 23 19  1  0
 25 26  2  0
 25 24  1  0
 27 25  1  0
 28 29  1  0
 28 27  1  1
 29 21  1  0
 30 28  1  0
 31 30  2  0
 32 30  1  0
M  END
$$$$
