WEN.pdb
     RDKit          3D

 32 33  0  0  1  0  0  0  0  0999 V2000
    6.3488  -18.2240   24.2977 N   0  0  0  0  0  0  0  0  0  0  0  0
    6.8403  -17.3847   23.2361 C   0  0  1  0  0  0  0  0  0  0  0  0
    6.3555  -15.9696   23.3085 C   0  0  0  0  0  0  0  0  0  0  0  0
    6.5608  -15.3674   24.6484 C   0  0  0  0  0  0  0  0  0  0  0  0
    6.3623  -15.9726   25.8798 C   0  0  0  0  0  0  0  0  0  0  0  0
    6.6184  -15.1284   26.8788 N   0  0  0  0  0  0  0  0  0  0  0  0
    6.9935  -13.9420   26.3375 C   0  0  0  0  0  0  0  0  0  0  0  0
    7.3639  -12.7544   26.9509 C   0  0  0  0  0  0  0  0  0  0  0  0
    7.7110  -11.6807   26.1611 C   0  0  0  0  0  0  0  0  0  0  0  0
    7.6832  -11.8082   24.7916 C   0  0  0  0  0  0  0  0  0  0  0  0
    7.3156  -12.9855   24.1956 C   0  0  0  0  0  0  0  0  0  0  0  0
    6.9599  -14.0849   24.9496 C   0  0  0  0  0  0  0  0  0  0  0  0
    8.3271  -17.4014   23.1582 C   0  0  0  0  0  0  0  0  0  0  0  0
    8.9378  -18.1294   23.9873 O   0  0  0  0  0  0  0  0  0  0  0  0
    9.0406  -16.6307   22.1868 N   0  0  0  0  0  0  0  0  0  0  0  0
   10.4653  -16.7042   22.1780 C   0  0  1  0  0  0  0  0  0  0  0  0
   10.9585  -15.6825   21.1215 C   0  0  0  0  0  0  0  0  0  0  0  0
   12.4732  -15.8362   21.0466 C   0  0  0  0  0  0  0  0  0  0  0  0
   12.9514  -15.7379   19.6648 C   0  0  0  0  0  0  0  0  0  0  0  0
   13.6936  -14.8058   19.2980 O   0  0  0  0  0  0  0  0  0  0  0  0
   11.1329  -16.4765   23.4570 C   0  0  0  0  0  0  0  0  0  0  0  0
   11.0729  -15.3200   24.0053 O   0  0  0  0  0  0  0  0  0  0  0  0
   12.5791  -16.6936   18.7370 O   0  0  0  0  0  0  0  0  0  0  0  0
   11.0388  -19.3252   26.0771 N   0  0  0  0  0  0  0  0  0  0  0  0
   10.8032  -18.1933   26.9046 C   0  0  0  0  0  0  0  0  0  0  0  0
    9.9904  -18.3501   27.8522 O   0  0  0  0  0  0  0  0  0  0  0  0
   11.5187  -16.9389   26.5944 C   0  0  0  0  0  0  0  0  0  0  0  0
   12.4782  -17.1576   25.4994 C   0  0  2  0  0  0  0  0  0  0  0  0
   11.8770  -17.4196   24.2121 N   0  0  0  0  0  0  0  0  0  0  0  0
   13.5177  -18.1414   25.8569 C   0  0  0  0  0  0  0  0  0  0  0  0
   14.2275  -17.9363   26.8673 O   0  0  0  0  0  0  0  0  0  0  0  0
   13.7353  -19.2931   25.1046 O   0  0  0  0  0  0  0  0  0  0  0  0
  2  3  1  0
  2  1  1  1
  3  4  1  0
  4  5  2  0
  5  6  1  0
  7  6  1  0
  8  7  2  0
  9  8  1  0
 10 11  1  0
 10  9  2  0
 11 12  2  0
 12  4  1  0
 12  7  1  0
 13  2  1  0
 13 14  2  0
 15 13  1  0
 16 15  1  0
 16 17  1  6
 18 17  1  0
 19 20  2  0
 19 18  1  0
 21 16  1  0
 21 22  2  0
 23 19  1  0
 25 26  2  0
 25 24  1  0
 27 25  1  0
 28 29  1  0
 28 27  1  1
 29 21  1  0
 30 28  1  0
 31 30  2  0
 32 30  1  0
M  END
$$$$
