KHT.pdb
     RDKit          3D

 27 27  0  0  1  0  0  0  0  0999 V2000
    9.9332  -18.5367   14.0151 N   0  0  0  0  0  0  0  0  0  0  0  0
    8.8984  -18.4600   14.9856 C   0  0  1  0  0  0  0  0  0  0  0  0
    8.6709  -19.8129   15.6010 C   0  0  0  0  0  0  0  0  0  0  0  0
    9.8774  -20.5097   16.1020 C   0  0  0  0  0  0  0  0  0  0  0  0
    9.6972  -21.8853   16.6360 C   0  0  0  0  0  0  0  0  0  0  0  0
   11.0550  -22.4441   17.1106 C   0  0  0  0  0  0  0  0  0  0  0  0
   10.9237  -23.8003   17.5510 N   0  0  0  0  0  0  0  0  0  0  0  0
    9.2230  -17.5043   16.0965 C   0  0  0  0  0  0  0  0  0  0  0  0
   10.4389  -17.3404   16.3568 O   0  0  0  0  0  0  0  0  0  0  0  0
    8.2210  -16.8102   16.8287 N   0  0  0  0  0  0  0  0  0  0  0  0
    8.5356  -15.8582   17.8748 C   0  0  1  0  0  0  0  0  0  0  0  0
    7.3845  -14.8925   18.0989 C   0  0  0  0  0  0  0  0  0  0  0  0
    7.7030  -13.8496   19.1126 C   0  0  0  0  0  0  0  0  0  0  0  0
    7.2686  -13.7481   20.4101 C   0  0  0  0  0  0  0  0  0  0  0  0
    7.8202  -12.6369   20.9193 N   0  0  0  0  0  0  0  0  0  0  0  0
    8.5867  -12.0247   20.0055 C   0  0  0  0  0  0  0  0  0  0  0  0
    8.5087  -12.7777   18.8971 N   0  0  0  0  0  0  0  0  0  0  0  0
    8.9666  -16.5382   19.1215 C   0  0  0  0  0  0  0  0  0  0  0  0
    8.3820  -17.5367   19.6087 O   0  0  0  0  0  0  0  0  0  0  0  0
   12.0270  -18.3189   19.9258 C   0  0  0  0  0  0  0  0  0  0  0  0
   11.9170  -17.2784   20.9920 C   0  0  1  0  0  0  0  0  0  0  0  0
   12.8047  -16.2422   20.6346 O   0  0  0  0  0  0  0  0  0  0  0  0
   10.5193  -16.7004   21.0933 C   0  0  2  0  0  0  0  0  0  0  0  0
   10.1168  -16.0671   19.8563 N   0  0  0  0  0  0  0  0  0  0  0  0
   10.3945  -15.7790   22.2489 C   0  0  0  0  0  0  0  0  0  0  0  0
   10.5984  -16.1920   23.4149 O   0  0  0  0  0  0  0  0  0  0  0  0
   10.0527  -14.4458   22.0840 O   0  0  0  0  0  0  0  0  0  0  0  0
  2  1  1  6
  3  2  1  0
  4  3  1  0
  4  5  1  0
  5  6  1  0
  6  7  1  0
  8  9  2  0
  8  2  1  0
 10  8  1  0
 11 12  1  1
 11 10  1  0
 12 13  1  0
 13 17  1  0
 13 14  2  0
 14 15  1  0
 16 15  1  0
 17 16  2  0
 18 11  1  0
 19 18  2  0
 21 20  1  6
 21 23  1  0
 22 21  1  0
 23 24  1  6
 24 18  1  0
 25 27  1  0
 25 23  1  0
 26 25  2  0
M  END
$$$$
