KHT.pdb
     RDKit          3D

 27 27  0  0  1  0  0  0  0  0999 V2000
    7.0302  -16.6404   19.3031 N   0  0  0  0  0  0  0  0  0  0  0  0
    7.6831  -15.7212   20.1678 C   0  0  1  0  0  0  0  0  0  0  0  0
    7.2165  -14.3221   19.8758 C   0  0  0  0  0  0  0  0  0  0  0  0
    7.9169  -13.6200   18.7764 C   0  0  0  0  0  0  0  0  0  0  0  0
    7.5661  -14.0110   17.3858 C   0  0  0  0  0  0  0  0  0  0  0  0
    8.3866  -13.1718   16.3838 C   0  0  0  0  0  0  0  0  0  0  0  0
    7.9544  -13.4137   15.0403 N   0  0  0  0  0  0  0  0  0  0  0  0
    7.4060  -15.9998   21.6164 C   0  0  0  0  0  0  0  0  0  0  0  0
    6.2242  -16.2973   21.9133 O   0  0  0  0  0  0  0  0  0  0  0  0
    8.4146  -15.9356   22.6166 N   0  0  0  0  0  0  0  0  0  0  0  0
    8.1628  -16.2720   24.0033 C   0  0  1  0  0  0  0  0  0  0  0  0
    8.7078  -17.6497   24.3390 C   0  0  0  0  0  0  0  0  0  0  0  0
    8.2500  -18.1365   25.6694 C   0  0  0  0  0  0  0  0  0  0  0  0
    7.4254  -17.5191   26.5758 C   0  0  0  0  0  0  0  0  0  0  0  0
    7.3127  -18.3459   27.6255 N   0  0  0  0  0  0  0  0  0  0  0  0
    8.0280  -19.4628   27.4301 C   0  0  0  0  0  0  0  0  0  0  0  0
    8.6012  -19.3254   26.2243 N   0  0  0  0  0  0  0  0  0  0  0  0
    8.6611  -15.2174   24.9210 C   0  0  0  0  0  0  0  0  0  0  0  0
    9.8521  -14.8210   24.9462 O   0  0  0  0  0  0  0  0  0  0  0  0
    6.9828  -11.6887   25.8059 C   0  0  0  0  0  0  0  0  0  0  0  0
    7.2453  -12.4943   27.0362 C   0  0  1  0  0  0  0  0  0  0  0  0
    6.0177  -13.0883   27.3965 O   0  0  0  0  0  0  0  0  0  0  0  0
    8.2609  -13.5949   26.8004 C   0  0  2  0  0  0  0  0  0  0  0  0
    7.7691  -14.5769   25.8586 N   0  0  0  0  0  0  0  0  0  0  0  0
    8.6892  -14.2213   28.0749 C   0  0  0  0  0  0  0  0  0  0  0  0
    8.5172  -15.4479   28.2684 O   0  0  0  0  0  0  0  0  0  0  0  0
    9.2871  -13.4833   29.0845 O   0  0  0  0  0  0  0  0  0  0  0  0
  2  1  1  6
  3  2  1  0
  4  3  1  0
  4  5  1  0
  5  6  1  0
  6  7  1  0
  8  9  2  0
  8  2  1  0
 10  8  1  0
 11 12  1  1
 11 10  1  0
 12 13  1  0
 13 17  1  0
 13 14  2  0
 14 15  1  0
 16 15  1  0
 17 16  2  0
 18 11  1  0
 19 18  2  0
 21 20  1  6
 21 23  1  0
 22 21  1  0
 23 24  1  6
 24 18  1  0
 25 27  1  0
 25 23  1  0
 26 25  2  0
M  END
$$$$
