KHT.pdb
     RDKit          3D

 27 27  0  0  1  0  0  0  0  0999 V2000
    7.0150  -17.2894   19.2819 N   0  0  0  0  0  0  0  0  0  0  0  0
    7.9993  -16.5793   20.0207 C   0  0  1  0  0  0  0  0  0  0  0  0
    7.9304  -15.1141   19.6907 C   0  0  0  0  0  0  0  0  0  0  0  0
    7.8636  -14.7750   18.2509 C   0  0  0  0  0  0  0  0  0  0  0  0
    7.6889  -13.3421   17.8959 C   0  0  0  0  0  0  0  0  0  0  0  0
    8.7948  -12.9088   16.9107 C   0  0  0  0  0  0  0  0  0  0  0  0
    8.3335  -12.9887   15.5574 N   0  0  0  0  0  0  0  0  0  0  0  0
    7.8165  -16.7202   21.5038 C   0  0  0  0  0  0  0  0  0  0  0  0
    6.6394  -16.8668   21.9115 O   0  0  0  0  0  0  0  0  0  0  0  0
    8.9059  -16.6919   22.4172 N   0  0  0  0  0  0  0  0  0  0  0  0
    8.7402  -16.9194   23.8386 C   0  0  1  0  0  0  0  0  0  0  0  0
    9.5480  -18.1214   24.2973 C   0  0  0  0  0  0  0  0  0  0  0  0
    9.4933  -18.3172   25.7722 C   0  0  0  0  0  0  0  0  0  0  0  0
   10.4113  -17.9523   26.7245 C   0  0  0  0  0  0  0  0  0  0  0  0
    9.9216  -18.3475   27.9087 N   0  0  0  0  0  0  0  0  0  0  0  0
    8.7329  -18.9481   27.7552 C   0  0  0  0  0  0  0  0  0  0  0  0
    8.4773  -18.9249   26.4377 N   0  0  0  0  0  0  0  0  0  0  0  0
    9.0328  -15.6958   24.6259 C   0  0  0  0  0  0  0  0  0  0  0  0
   10.0730  -15.0075   24.4837 O   0  0  0  0  0  0  0  0  0  0  0  0
    7.0537  -12.4246   25.1865 C   0  0  0  0  0  0  0  0  0  0  0  0
    7.2787  -13.0923   26.5037 C   0  0  1  0  0  0  0  0  0  0  0  0
    6.0910  -13.7897   26.8081 O   0  0  0  0  0  0  0  0  0  0  0  0
    8.4222  -14.0866   26.4597 C   0  0  2  0  0  0  0  0  0  0  0  0
    8.1031  -15.2246   25.6253 N   0  0  0  0  0  0  0  0  0  0  0  0
    8.8339  -14.5021   27.8227 C   0  0  0  0  0  0  0  0  0  0  0  0
    8.8352  -15.7140   28.1436 O   0  0  0  0  0  0  0  0  0  0  0  0
    9.2269  -13.5781   28.7784 O   0  0  0  0  0  0  0  0  0  0  0  0
  2  1  1  6
  3  2  1  0
  4  3  1  0
  4  5  1  0
  5  6  1  0
  6  7  1  0
  8  9  2  0
  8  2  1  0
 10  8  1  0
 11 12  1  1
 11 10  1  0
 12 13  1  0
 13 17  1  0
 13 14  2  0
 14 15  1  0
 16 15  1  0
 17 16  2  0
 18 11  1  0
 19 18  2  0
 21 20  1  6
 21 23  1  0
 22 21  1  0
 23 24  1  6
 24 18  1  0
 25 27  1  0
 25 23  1  0
 26 25  2  0
M  END
$$$$
