KHT.pdb
     RDKit          3D

 27 27  0  0  1  0  0  0  0  0999 V2000
    8.3266  -19.3828   19.3631 N   0  0  0  0  0  0  0  0  0  0  0  0
    7.9158  -18.7591   20.5719 C   0  0  1  0  0  0  0  0  0  0  0  0
    8.2333  -19.6486   21.7417 C   0  0  0  0  0  0  0  0  0  0  0  0
    7.1268  -20.5054   22.2253 C   0  0  0  0  0  0  0  0  0  0  0  0
    6.9824  -20.6660   23.6961 C   0  0  0  0  0  0  0  0  0  0  0  0
    5.7997  -21.6076   24.0057 C   0  0  0  0  0  0  0  0  0  0  0  0
    5.6378  -21.7773   25.4183 N   0  0  0  0  0  0  0  0  0  0  0  0
    8.6020  -17.4441   20.8014 C   0  0  0  0  0  0  0  0  0  0  0  0
    9.8415  -17.4184   20.6106 O   0  0  0  0  0  0  0  0  0  0  0  0
    7.9038  -16.2759   21.2135 N   0  0  0  0  0  0  0  0  0  0  0  0
    8.5826  -15.0594   21.6120 C   0  0  1  0  0  0  0  0  0  0  0  0
    7.9151  -13.8373   21.0046 C   0  0  0  0  0  0  0  0  0  0  0  0
    8.1359  -13.7370   19.5356 C   0  0  0  0  0  0  0  0  0  0  0  0
    8.9125  -14.5260   18.7251 C   0  0  0  0  0  0  0  0  0  0  0  0
    8.7969  -14.0387   17.4811 N   0  0  0  0  0  0  0  0  0  0  0  0
    7.9817  -12.9746   17.4611 C   0  0  0  0  0  0  0  0  0  0  0  0
    7.5797  -12.7962   18.7292 N   0  0  0  0  0  0  0  0  0  0  0  0
    8.7180  -14.9668   23.0871 C   0  0  0  0  0  0  0  0  0  0  0  0
    9.2773  -14.0102   23.6771 O   0  0  0  0  0  0  0  0  0  0  0  0
    6.4990  -14.1584   25.5968 C   0  0  0  0  0  0  0  0  0  0  0  0
    6.9426  -15.5296   25.9899 C   0  0  1  0  0  0  0  0  0  0  0  0
    5.9655  -16.4226   25.5024 O   0  0  0  0  0  0  0  0  0  0  0  0
    8.2801  -15.9011   25.3806 C   0  0  2  0  0  0  0  0  0  0  0  0
    8.1950  -16.0078   23.9403 N   0  0  0  0  0  0  0  0  0  0  0  0
    8.8319  -17.1348   25.9918 C   0  0  0  0  0  0  0  0  0  0  0  0
    9.1208  -18.1230   25.2765 O   0  0  0  0  0  0  0  0  0  0  0  0
    9.0452  -17.2386   27.3576 O   0  0  0  0  0  0  0  0  0  0  0  0
  2  1  1  6
  3  2  1  0
  4  3  1  0
  4  5  1  0
  5  6  1  0
  6  7  1  0
  8  9  2  0
  8  2  1  0
 10  8  1  0
 11 12  1  1
 11 10  1  0
 12 13  1  0
 13 17  1  0
 13 14  2  0
 14 15  1  0
 16 15  1  0
 17 16  2  0
 18 11  1  0
 19 18  2  0
 21 20  1  6
 21 23  1  0
 22 21  1  0
 23 24  1  6
 24 18  1  0
 25 27  1  0
 25 23  1  0
 26 25  2  0
M  END
$$$$
