KHT.pdb
     RDKit          3D

 27 27  0  0  1  0  0  0  0  0999 V2000
    9.8928  -19.0720   18.3931 N   0  0  0  0  0  0  0  0  0  0  0  0
   10.9573  -18.1401   18.2622 C   0  0  1  0  0  0  0  0  0  0  0  0
   10.8479  -17.4174   16.9483 C   0  0  0  0  0  0  0  0  0  0  0  0
    9.5192  -17.4533   16.2961 C   0  0  0  0  0  0  0  0  0  0  0  0
    9.4092  -16.8527   14.9407 C   0  0  0  0  0  0  0  0  0  0  0  0
    7.9468  -16.9255   14.4535 C   0  0  0  0  0  0  0  0  0  0  0  0
    7.7828  -16.2152   13.2210 N   0  0  0  0  0  0  0  0  0  0  0  0
   10.9527  -17.1068   19.3510 C   0  0  0  0  0  0  0  0  0  0  0  0
   11.8968  -16.2811   19.3433 O   0  0  0  0  0  0  0  0  0  0  0  0
    9.9414  -17.0483   20.3488 N   0  0  0  0  0  0  0  0  0  0  0  0
    9.9527  -16.0688   21.4165 C   0  0  1  0  0  0  0  0  0  0  0  0
    8.6348  -15.3159   21.4810 C   0  0  0  0  0  0  0  0  0  0  0  0
    8.4065  -14.4605   20.2840 C   0  0  0  0  0  0  0  0  0  0  0  0
    9.2726  -14.1573   19.2638 C   0  0  0  0  0  0  0  0  0  0  0  0
    8.6142  -13.3468   18.4224 N   0  0  0  0  0  0  0  0  0  0  0  0
    7.3674  -13.1191   18.8594 C   0  0  0  0  0  0  0  0  0  0  0  0
    7.2484  -13.8081   20.0052 N   0  0  0  0  0  0  0  0  0  0  0  0
   10.3297  -16.6799   22.7154 C   0  0  0  0  0  0  0  0  0  0  0  0
    9.6141  -17.5083   23.3299 O   0  0  0  0  0  0  0  0  0  0  0  0
   11.0272  -19.1694   23.5423 C   0  0  0  0  0  0  0  0  0  0  0  0
   12.2598  -18.5605   24.1267 C   0  0  1  0  0  0  0  0  0  0  0  0
   13.2611  -18.6535   23.1375 O   0  0  0  0  0  0  0  0  0  0  0  0
   12.0696  -17.0992   24.4823 C   0  0  2  0  0  0  0  0  0  0  0  0
   11.5792  -16.3386   23.3535 N   0  0  0  0  0  0  0  0  0  0  0  0
   13.3095  -16.5109   25.0449 C   0  0  0  0  0  0  0  0  0  0  0  0
   13.9566  -15.6547   24.3970 O   0  0  0  0  0  0  0  0  0  0  0  0
   13.7914  -16.8814   26.2908 O   0  0  0  0  0  0  0  0  0  0  0  0
  2  1  1  1
  3  2  1  0
  4  3  1  0
  4  5  1  0
  5  6  1  0
  6  7  1  0
  8  9  2  0
  8  2  1  0
 10  8  1  0
 11 12  1  1
 11 10  1  0
 12 13  1  0
 13 17  1  0
 13 14  2  0
 14 15  1  0
 16 15  1  0
 17 16  2  0
 18 11  1  0
 19 18  2  0
 21 20  1  6
 21 23  1  0
 22 21  1  0
 23 24  1  6
 24 18  1  0
 25 27  1  0
 25 23  1  0
 26 25  2  0
M  END
$$$$
