KHT.pdb
     RDKit          3D

 27 27  0  0  1  0  0  0  0  0999 V2000
    8.3748  -16.1952   19.4096 N   0  0  0  0  0  0  0  0  0  0  0  0
    9.4487  -15.4466   19.9622 C   0  0  1  0  0  0  0  0  0  0  0  0
    9.4368  -14.0483   19.4099 C   0  0  0  0  0  0  0  0  0  0  0  0
    8.4000  -13.7604   18.3928 C   0  0  0  0  0  0  0  0  0  0  0  0
    8.7287  -14.0736   16.9773 C   0  0  0  0  0  0  0  0  0  0  0  0
    7.5002  -13.8043   16.0832 C   0  0  0  0  0  0  0  0  0  0  0  0
    7.7517  -14.2102   14.7332 N   0  0  0  0  0  0  0  0  0  0  0  0
    9.3681  -15.3453   21.4576 C   0  0  0  0  0  0  0  0  0  0  0  0
   10.3878  -15.6956   22.0983 O   0  0  0  0  0  0  0  0  0  0  0  0
    8.2071  -14.8794   22.1335 N   0  0  0  0  0  0  0  0  0  0  0  0
    8.1580  -14.7013   23.5707 C   0  0  1  0  0  0  0  0  0  0  0  0
    6.9699  -13.8451   23.9748 C   0  0  0  0  0  0  0  0  0  0  0  0
    7.0768  -13.3430   25.3723 C   0  0  0  0  0  0  0  0  0  0  0  0
    8.1111  -13.4861   26.2625 C   0  0  0  0  0  0  0  0  0  0  0  0
    7.7392  -12.8688   27.3935 N   0  0  0  0  0  0  0  0  0  0  0  0
    6.5147  -12.3384   27.2652 C   0  0  0  0  0  0  0  0  0  0  0  0
    6.1148  -12.6349   26.0187 N   0  0  0  0  0  0  0  0  0  0  0  0
    8.1987  -16.0019   24.2846 C   0  0  0  0  0  0  0  0  0  0  0  0
    7.4444  -16.9687   24.0154 O   0  0  0  0  0  0  0  0  0  0  0  0
    8.8674  -18.5807   23.6887 C   0  0  0  0  0  0  0  0  0  0  0  0
    9.7913  -18.5307   24.8615 C   0  0  1  0  0  0  0  0  0  0  0  0
   11.0437  -18.1091   24.3679 O   0  0  0  0  0  0  0  0  0  0  0  0
    9.3332  -17.5430   25.9163 C   0  0  2  0  0  0  0  0  0  0  0  0
    9.1393  -16.2227   25.3576 N   0  0  0  0  0  0  0  0  0  0  0  0
   10.2572  -17.5191   27.0763 C   0  0  0  0  0  0  0  0  0  0  0  0
   10.4739  -18.5623   27.7368 O   0  0  0  0  0  0  0  0  0  0  0  0
   10.9060  -16.3580   27.4670 O   0  0  0  0  0  0  0  0  0  0  0  0
  2  1  1  6
  3  2  1  0
  4  3  1  0
  4  5  1  0
  5  6  1  0
  6  7  1  0
  8  9  2  0
  8  2  1  0
 10  8  1  0
 11 12  1  6
 11 10  1  0
 12 13  1  0
 13 17  1  0
 13 14  2  0
 14 15  1  0
 16 15  1  0
 17 16  2  0
 18 11  1  0
 19 18  2  0
 21 20  1  6
 21 23  1  0
 22 21  1  0
 23 24  1  6
 24 18  1  0
 25 27  1  0
 25 23  1  0
 26 25  2  0
M  END
$$$$
