KHT.pdb
     RDKit          3D

 27 27  0  0  1  0  0  0  0  0999 V2000
    8.7173  -16.2383   19.5578 N   0  0  0  0  0  0  0  0  0  0  0  0
    8.7623  -15.2626   20.5898 C   0  0  1  0  0  0  0  0  0  0  0  0
    7.6821  -14.2390   20.3755 C   0  0  0  0  0  0  0  0  0  0  0  0
    7.2045  -14.0805   18.9830 C   0  0  0  0  0  0  0  0  0  0  0  0
    8.1578  -13.5072   17.9970 C   0  0  0  0  0  0  0  0  0  0  0  0
    7.5217  -13.5115   16.5910 C   0  0  0  0  0  0  0  0  0  0  0  0
    8.4750  -13.1182   15.5976 N   0  0  0  0  0  0  0  0  0  0  0  0
    8.5599  -15.8586   21.9524 C   0  0  0  0  0  0  0  0  0  0  0  0
    7.4258  -16.3382   22.1910 O   0  0  0  0  0  0  0  0  0  0  0  0
    9.5857  -15.8888   22.9367 N   0  0  0  0  0  0  0  0  0  0  0  0
    9.3950  -16.4785   24.2464 C   0  0  1  0  0  0  0  0  0  0  0  0
    9.5454  -17.9893   24.1925 C   0  0  0  0  0  0  0  0  0  0  0  0
   10.6125  -18.4237   23.2495 C   0  0  0  0  0  0  0  0  0  0  0  0
   11.4284  -17.6550   22.4583 C   0  0  0  0  0  0  0  0  0  0  0  0
   12.2210  -18.4986   21.7811 N   0  0  0  0  0  0  0  0  0  0  0  0
   11.9476  -19.7707   22.1043 C   0  0  0  0  0  0  0  0  0  0  0  0
   10.9569  -19.7151   23.0081 N   0  0  0  0  0  0  0  0  0  0  0  0
   10.2746  -15.8492   25.2628 C   0  0  0  0  0  0  0  0  0  0  0  0
   11.3846  -15.3266   24.9965 O   0  0  0  0  0  0  0  0  0  0  0  0
    9.9270  -12.8527   27.1659 C   0  0  0  0  0  0  0  0  0  0  0  0
   10.0793  -13.9202   28.1998 C   0  0  1  0  0  0  0  0  0  0  0  0
    8.7781  -14.2417   28.6394 O   0  0  0  0  0  0  0  0  0  0  0  0
   10.7227  -15.1753   27.6439 C   0  0  2  0  0  0  0  0  0  0  0  0
    9.8810  -15.8073   26.6514 N   0  0  0  0  0  0  0  0  0  0  0  0
   11.0999  -16.1174   28.7256 C   0  0  0  0  0  0  0  0  0  0  0  0
   10.6175  -17.2741   28.7567 O   0  0  0  0  0  0  0  0  0  0  0  0
   11.9875  -15.7581   29.7280 O   0  0  0  0  0  0  0  0  0  0  0  0
  2  1  1  6
  3  2  1  0
  4  3  1  0
  4  5  1  0
  5  6  1  0
  6  7  1  0
  8  9  2  0
  8  2  1  0
 10  8  1  0
 11 12  1  6
 11 10  1  0
 12 13  1  0
 13 17  1  0
 13 14  2  0
 14 15  1  0
 16 15  1  0
 17 16  2  0
 18 11  1  0
 19 18  2  0
 21 20  1  6
 21 23  1  0
 22 21  1  0
 23 24  1  6
 24 18  1  0
 25 27  1  0
 25 23  1  0
 26 25  2  0
M  END
$$$$
