KHT.pdb
     RDKit          3D

 27 27  0  0  1  0  0  0  0  0999 V2000
   13.9144  -14.7650   18.3572 N   0  0  0  0  0  0  0  0  0  0  0  0
   12.6174  -15.3301   18.4884 C   0  0  1  0  0  0  0  0  0  0  0  0
   12.7156  -16.8287   18.5597 C   0  0  0  0  0  0  0  0  0  0  0  0
   13.9879  -17.3719   19.0876 C   0  0  0  0  0  0  0  0  0  0  0  0
   14.1795  -18.8445   19.0211 C   0  0  0  0  0  0  0  0  0  0  0  0
   15.5554  -19.2200   19.6103 C   0  0  0  0  0  0  0  0  0  0  0  0
   15.6003  -20.6080   19.9595 N   0  0  0  0  0  0  0  0  0  0  0  0
   11.9097  -14.8616   19.7263 C   0  0  0  0  0  0  0  0  0  0  0  0
   12.5564  -14.1037   20.4882 O   0  0  0  0  0  0  0  0  0  0  0  0
   10.5763  -15.2442   20.0390 N   0  0  0  0  0  0  0  0  0  0  0  0
    9.8889  -14.7818   21.2278 C   0  0  1  0  0  0  0  0  0  0  0  0
    8.4091  -14.5711   20.9560 C   0  0  0  0  0  0  0  0  0  0  0  0
    8.1636  -13.7312   19.7515 C   0  0  0  0  0  0  0  0  0  0  0  0
    7.4066  -14.0150   18.6428 C   0  0  0  0  0  0  0  0  0  0  0  0
    7.4973  -12.9539   17.8277 N   0  0  0  0  0  0  0  0  0  0  0  0
    8.2778  -12.0061   18.3660 C   0  0  0  0  0  0  0  0  0  0  0  0
    8.6833  -12.4927   19.5493 N   0  0  0  0  0  0  0  0  0  0  0  0
   10.1391  -15.6749   22.3865 C   0  0  0  0  0  0  0  0  0  0  0  0
    9.6091  -15.5192   23.5138 O   0  0  0  0  0  0  0  0  0  0  0  0
    9.5473  -19.3065   22.9844 C   0  0  0  0  0  0  0  0  0  0  0  0
   11.0138  -19.0822   23.1596 C   0  0  1  0  0  0  0  0  0  0  0  0
   11.6274  -19.4792   21.9531 O   0  0  0  0  0  0  0  0  0  0  0  0
   11.3494  -17.6258   23.4130 C   0  0  2  0  0  0  0  0  0  0  0  0
   11.0338  -16.8019   22.2665 N   0  0  0  0  0  0  0  0  0  0  0  0
   12.7607  -17.4593   23.8381 C   0  0  0  0  0  0  0  0  0  0  0  0
   13.5356  -16.7173   23.1896 O   0  0  0  0  0  0  0  0  0  0  0  0
   13.2672  -18.1092   24.9529 O   0  0  0  0  0  0  0  0  0  0  0  0
  2  1  1  1
  3  2  1  0
  4  3  1  0
  4  5  1  0
  5  6  1  0
  6  7  1  0
  8  9  2  0
  8  2  1  0
 10  8  1  0
 11 12  1  6
 11 10  1  0
 12 13  1  0
 13 17  1  0
 13 14  2  0
 14 15  1  0
 16 15  1  0
 17 16  2  0
 18 11  1  0
 19 18  2  0
 21 20  1  6
 21 23  1  0
 22 21  1  0
 23 24  1  6
 24 18  1  0
 25 27  1  0
 25 23  1  0
 26 25  2  0
M  END
$$$$
