KHT.pdb
     RDKit          3D

 27 27  0  0  1  0  0  0  0  0999 V2000
    8.5648  -23.0684   17.7727 N   0  0  0  0  0  0  0  0  0  0  0  0
    8.9657  -23.7553   18.9501 C   0  0  1  0  0  0  0  0  0  0  0  0
    9.7471  -24.9867   18.5847 C   0  0  0  0  0  0  0  0  0  0  0  0
    9.1821  -25.8151   17.4952 C   0  0  0  0  0  0  0  0  0  0  0  0
    9.8727  -27.0940   17.1836 C   0  0  0  0  0  0  0  0  0  0  0  0
    9.2117  -27.7604   15.9588 C   0  0  0  0  0  0  0  0  0  0  0  0
    9.8865  -28.9746   15.6113 N   0  0  0  0  0  0  0  0  0  0  0  0
    9.8340  -22.9130   19.8386 C   0  0  0  0  0  0  0  0  0  0  0  0
   11.0536  -22.8671   19.5491 O   0  0  0  0  0  0  0  0  0  0  0  0
    9.3225  -22.1962   20.9550 N   0  0  0  0  0  0  0  0  0  0  0  0
   10.1587  -21.3728   21.8050 C   0  0  1  0  0  0  0  0  0  0  0  0
    9.7174  -19.9198   21.7627 C   0  0  0  0  0  0  0  0  0  0  0  0
    9.8264  -19.3293   20.4003 C   0  0  0  0  0  0  0  0  0  0  0  0
   10.9494  -19.1134   19.6420 C   0  0  0  0  0  0  0  0  0  0  0  0
   10.5417  -18.5543   18.4933 N   0  0  0  0  0  0  0  0  0  0  0  0
    9.2096  -18.4036   18.4843 C   0  0  0  0  0  0  0  0  0  0  0  0
    8.7779  -18.8830   19.6613 N   0  0  0  0  0  0  0  0  0  0  0  0
   10.2326  -21.9112   23.1860 C   0  0  0  0  0  0  0  0  0  0  0  0
    9.2272  -22.1135   23.9101 O   0  0  0  0  0  0  0  0  0  0  0  0
   12.5364  -24.8091   26.3396 C   0  0  0  0  0  0  0  0  0  0  0  0
   12.6132  -23.9814   25.0984 C   0  0  1  0  0  0  0  0  0  0  0  0
   12.3538  -24.8517   24.0191 O   0  0  0  0  0  0  0  0  0  0  0  0
   11.5811  -22.8712   25.0795 C   0  0  2  0  0  0  0  0  0  0  0  0
   11.5072  -22.2384   23.7805 N   0  0  0  0  0  0  0  0  0  0  0  0
   11.8249  -21.8839   26.1591 C   0  0  0  0  0  0  0  0  0  0  0  0
   12.5589  -20.8883   25.9549 O   0  0  0  0  0  0  0  0  0  0  0  0
   11.2579  -22.0242   27.4163 O   0  0  0  0  0  0  0  0  0  0  0  0
  2  1  1  6
  3  2  1  0
  4  3  1  0
  4  5  1  0
  5  6  1  0
  6  7  1  0
  8  9  2  0
  8  2  1  0
 10  8  1  0
 11 12  1  1
 11 10  1  0
 12 13  1  0
 13 17  1  0
 13 14  2  0
 14 15  1  0
 16 15  1  0
 17 16  2  0
 18 11  1  0
 19 18  2  0
 21 20  1  1
 21 23  1  0
 22 21  1  0
 23 24  1  6
 24 18  1  0
 25 27  1  0
 25 23  1  0
 26 25  2  0
M  END
$$$$
