KHT.pdb
     RDKit          3D

 27 27  0  0  1  0  0  0  0  0999 V2000
   11.5089  -17.0145   16.4353 N   0  0  0  0  0  0  0  0  0  0  0  0
   11.3674  -17.6288   17.7087 C   0  0  1  0  0  0  0  0  0  0  0  0
   12.5968  -18.4326   18.0298 C   0  0  0  0  0  0  0  0  0  0  0  0
   12.3824  -19.6495   18.8456 C   0  0  0  0  0  0  0  0  0  0  0  0
   13.5784  -20.4690   19.1739 C   0  0  0  0  0  0  0  0  0  0  0  0
   13.1525  -21.7197   19.9712 C   0  0  0  0  0  0  0  0  0  0  0  0
   14.2965  -22.4687   20.3964 N   0  0  0  0  0  0  0  0  0  0  0  0
   11.1780  -16.6279   18.8111 C   0  0  0  0  0  0  0  0  0  0  0  0
   12.1087  -15.8056   18.9868 O   0  0  0  0  0  0  0  0  0  0  0  0
   10.0131  -16.5952   19.6258 N   0  0  0  0  0  0  0  0  0  0  0  0
    9.8873  -15.7217   20.7750 C   0  0  1  0  0  0  0  0  0  0  0  0
    8.4963  -15.1159   20.8511 C   0  0  0  0  0  0  0  0  0  0  0  0
    8.2088  -14.2008   19.7125 C   0  0  0  0  0  0  0  0  0  0  0  0
    9.0444  -13.7910   18.7042 C   0  0  0  0  0  0  0  0  0  0  0  0
    8.3345  -12.9647   17.9221 N   0  0  0  0  0  0  0  0  0  0  0  0
    7.0839  -12.8287   18.3857 C   0  0  0  0  0  0  0  0  0  0  0  0
    7.0155  -13.5926   19.4872 N   0  0  0  0  0  0  0  0  0  0  0  0
   10.2849  -16.4079   22.0295 C   0  0  0  0  0  0  0  0  0  0  0  0
    9.4798  -16.7101   22.9441 O   0  0  0  0  0  0  0  0  0  0  0  0
   11.1704  -19.6549   22.8368 C   0  0  0  0  0  0  0  0  0  0  0  0
   12.3681  -18.8831   23.2853 C   0  0  1  0  0  0  0  0  0  0  0  0
   13.3269  -18.9966   22.2570 O   0  0  0  0  0  0  0  0  0  0  0  0
   12.0624  -17.4135   23.4973 C   0  0  2  0  0  0  0  0  0  0  0  0
   11.6624  -16.7721   22.2637 N   0  0  0  0  0  0  0  0  0  0  0  0
   13.1985  -16.7092   24.1402 C   0  0  0  0  0  0  0  0  0  0  0  0
   13.7633  -15.7528   23.5589 O   0  0  0  0  0  0  0  0  0  0  0  0
   13.6706  -17.0778   25.3903 O   0  0  0  0  0  0  0  0  0  0  0  0
  2  1  1  6
  3  2  1  0
  4  3  1  0
  4  5  1  0
  5  6  1  0
  6  7  1  0
  8  9  2  0
  8  2  1  0
 10  8  1  0
 11 12  1  1
 11 10  1  0
 12 13  1  0
 13 17  1  0
 13 14  2  0
 14 15  1  0
 16 15  1  0
 17 16  2  0
 18 11  1  0
 19 18  2  0
 21 20  1  6
 21 23  1  0
 22 21  1  0
 23 24  1  6
 24 18  1  0
 25 27  1  0
 25 23  1  0
 26 25  2  0
M  END
$$$$
