KHT.pdb
     RDKit          3D

 27 27  0  0  1  0  0  0  0  0999 V2000
    8.0458  -16.2205   19.4295 N   0  0  0  0  0  0  0  0  0  0  0  0
    9.1881  -15.4213   19.7041 C   0  0  1  0  0  0  0  0  0  0  0  0
    9.1682  -14.1863   18.8468 C   0  0  0  0  0  0  0  0  0  0  0  0
    8.9728  -14.4060   17.3957 C   0  0  0  0  0  0  0  0  0  0  0  0
    8.0700  -13.4667   16.6800 C   0  0  0  0  0  0  0  0  0  0  0  0
    8.1503  -13.7200   15.1599 C   0  0  0  0  0  0  0  0  0  0  0  0
    7.3901  -12.7444   14.4383 N   0  0  0  0  0  0  0  0  0  0  0  0
    9.2480  -14.9789   21.1371 C   0  0  0  0  0  0  0  0  0  0  0  0
   10.2635  -14.3276   21.4801 O   0  0  0  0  0  0  0  0  0  0  0  0
    8.2192  -15.2715   22.0741 N   0  0  0  0  0  0  0  0  0  0  0  0
    8.2564  -14.8072   23.4461 C   0  0  1  0  0  0  0  0  0  0  0  0
    7.0172  -13.9949   23.7817 C   0  0  0  0  0  0  0  0  0  0  0  0
    7.0089  -13.5228   25.1937 C   0  0  0  0  0  0  0  0  0  0  0  0
    7.4250  -12.3182   25.7020 C   0  0  0  0  0  0  0  0  0  0  0  0
    7.2266  -12.3656   27.0274 N   0  0  0  0  0  0  0  0  0  0  0  0
    6.7029  -13.5459   27.3879 C   0  0  0  0  0  0  0  0  0  0  0  0
    6.5724  -14.2515   26.2536 N   0  0  0  0  0  0  0  0  0  0  0  0
    8.4858  -15.9246   24.3955 C   0  0  0  0  0  0  0  0  0  0  0  0
    7.6562  -16.8434   24.6043 O   0  0  0  0  0  0  0  0  0  0  0  0
   10.7237  -18.6206   24.2772 C   0  0  0  0  0  0  0  0  0  0  0  0
   11.0294  -18.0235   25.6120 C   0  0  1  0  0  0  0  0  0  0  0  0
   12.2196  -17.2826   25.4570 O   0  0  0  0  0  0  0  0  0  0  0  0
    9.9380  -17.0856   26.0891 C   0  0  2  0  0  0  0  0  0  0  0  0
    9.7152  -16.0095   25.1481 N   0  0  0  0  0  0  0  0  0  0  0  0
   10.2186  -16.5744   27.4528 C   0  0  0  0  0  0  0  0  0  0  0  0
   10.3903  -15.3480   27.6481 O   0  0  0  0  0  0  0  0  0  0  0  0
   10.3001  -17.4226   28.5463 O   0  0  0  0  0  0  0  0  0  0  0  0
  2  1  1  1
  3  2  1  0
  4  3  1  0
  4  5  1  0
  5  6  1  0
  6  7  1  0
  8  9  2  0
  8  2  1  0
 10  8  1  0
 11 12  1  1
 11 10  1  0
 12 13  1  0
 13 17  1  0
 13 14  2  0
 14 15  1  0
 16 15  1  0
 17 16  2  0
 18 11  1  0
 19 18  2  0
 21 20  1  6
 21 23  1  0
 22 21  1  0
 23 24  1  6
 24 18  1  0
 25 27  1  0
 25 23  1  0
 26 25  2  0
M  END
$$$$
