KHT.pdb
     RDKit          3D

 27 27  0  0  1  0  0  0  0  0999 V2000
    8.1445  -16.3827   19.0917 N   0  0  0  0  0  0  0  0  0  0  0  0
    8.5092  -15.4308   20.0816 C   0  0  1  0  0  0  0  0  0  0  0  0
    7.8525  -14.1101   19.7899 C   0  0  0  0  0  0  0  0  0  0  0  0
    8.3865  -13.3615   18.6294 C   0  0  0  0  0  0  0  0  0  0  0  0
    7.7147  -13.5659   17.3192 C   0  0  0  0  0  0  0  0  0  0  0  0
    8.4362  -12.7471   16.2282 C   0  0  0  0  0  0  0  0  0  0  0  0
    7.7934  -12.9089   14.9589 N   0  0  0  0  0  0  0  0  0  0  0  0
    8.0937  -15.8500   21.4616 C   0  0  0  0  0  0  0  0  0  0  0  0
    6.8620  -15.8543   21.6986 O   0  0  0  0  0  0  0  0  0  0  0  0
    9.0298  -16.2265   22.4635 N   0  0  0  0  0  0  0  0  0  0  0  0
    8.6396  -16.5167   23.8284 C   0  0  1  0  0  0  0  0  0  0  0  0
    9.3115  -17.7831   24.3312 C   0  0  0  0  0  0  0  0  0  0  0  0
    8.9584  -18.0948   25.7436 C   0  0  0  0  0  0  0  0  0  0  0  0
    7.8836  -17.6623   26.4786 C   0  0  0  0  0  0  0  0  0  0  0  0
    8.0028  -18.2055   27.6990 N   0  0  0  0  0  0  0  0  0  0  0  0
    9.1050  -18.9648   27.7759 C   0  0  0  0  0  0  0  0  0  0  0  0
    9.6867  -18.8910   26.5685 N   0  0  0  0  0  0  0  0  0  0  0  0
    8.8657  -15.3528   24.7211 C   0  0  0  0  0  0  0  0  0  0  0  0
    9.9248  -14.6790   24.7332 O   0  0  0  0  0  0  0  0  0  0  0  0
    6.5597  -12.3501   24.9163 C   0  0  0  0  0  0  0  0  0  0  0  0
    6.7911  -12.8191   26.3157 C   0  0  1  0  0  0  0  0  0  0  0  0
    5.6481  -13.5584   26.6853 O   0  0  0  0  0  0  0  0  0  0  0  0
    8.0044  -13.7207   26.4297 C   0  0  2  0  0  0  0  0  0  0  0  0
    7.8434  -14.9273   25.6478 N   0  0  0  0  0  0  0  0  0  0  0  0
    8.3265  -14.0219   27.8459 C   0  0  0  0  0  0  0  0  0  0  0  0
    8.2300  -15.1927   28.2836 O   0  0  0  0  0  0  0  0  0  0  0  0
    8.7403  -13.0333   28.7250 O   0  0  0  0  0  0  0  0  0  0  0  0
  2  1  1  6
  3  2  1  0
  4  3  1  0
  4  5  1  0
  5  6  1  0
  6  7  1  0
  8  9  2  0
  8  2  1  0
 10  8  1  0
 11 12  1  1
 11 10  1  0
 12 13  1  0
 13 17  1  0
 13 14  2  0
 14 15  1  0
 16 15  1  0
 17 16  2  0
 18 11  1  0
 19 18  2  0
 21 20  1  6
 21 23  1  0
 22 21  1  0
 23 24  1  6
 24 18  1  0
 25 27  1  0
 25 23  1  0
 26 25  2  0
M  END
$$$$
