PHI.pdb
     RDKit          3D

 26 27  0  0  1  0  0  0  0  0999 V2000
    8.9378  -15.1759   18.5618 N   0  0  0  0  0  0  0  0  0  0  0  0
    9.0654  -14.4898   17.2894 C   0  0  0  0  0  0  0  0  0  0  0  0
    8.0827  -13.3530   17.2982 C   0  0  0  0  0  0  0  0  0  0  0  0
    7.4677  -13.4167   18.6997 C   0  0  0  0  0  0  0  0  0  0  0  0
    8.5286  -14.1427   19.4614 C   0  0  1  0  0  0  0  0  0  0  0  0
    8.0772  -14.6588   20.7704 C   0  0  0  0  0  0  0  0  0  0  0  0
    7.6802  -13.8476   21.6394 O   0  0  0  0  0  0  0  0  0  0  0  0
    8.0751  -16.0529   21.0871 N   0  0  0  0  0  0  0  0  0  0  0  0
    7.7313  -16.4839   22.4224 C   0  0  1  0  0  0  0  0  0  0  0  0
    7.9580  -17.9240   22.6910 C   0  0  0  0  0  0  0  0  0  0  0  0
    7.7520  -18.3842   24.0675 C   0  0  0  0  0  0  0  0  0  0  0  0
    8.6618  -18.7323   25.0234 C   0  0  0  0  0  0  0  0  0  0  0  0
    8.0195  -19.0684   26.1779 N   0  0  0  0  0  0  0  0  0  0  0  0
    6.7223  -18.9245   25.9251 C   0  0  0  0  0  0  0  0  0  0  0  0
    6.5287  -18.5161   24.6715 N   0  0  0  0  0  0  0  0  0  0  0  0
    8.3501  -15.6007   23.4511 C   0  0  0  0  0  0  0  0  0  0  0  0
    9.5466  -15.2717   23.3168 O   0  0  0  0  0  0  0  0  0  0  0  0
    6.7499  -11.1120   27.2762 C   0  0  0  0  0  0  0  0  0  0  0  0
    7.7085  -12.2111   26.9545 C   0  0  0  0  0  0  0  0  0  0  0  0
    7.2200  -13.1916   25.9430 C   0  0  2  0  0  0  0  0  0  0  0  0
    5.9206  -13.8015   26.4093 C   0  0  0  0  0  0  0  0  0  0  0  0
    8.2238  -14.2610   25.5929 C   0  0  2  0  0  0  0  0  0  0  0  0
    7.6277  -15.1256   24.5697 N   0  0  0  0  0  0  0  0  0  0  0  0
    8.5130  -15.0731   26.8016 C   0  0  0  0  0  0  0  0  0  0  0  0
    7.8939  -16.1476   26.9922 O   0  0  0  0  0  0  0  0  0  0  0  0
    9.4508  -14.6932   27.7450 O   0  0  0  0  0  0  0  0  0  0  0  0
  2  1  1  0
  3  2  1  0
  4  3  1  0
  4  5  1  0
  5  1  1  0
  5  6  1  1
  6  8  1  0
  7  6  2  0
  9  8  1  0
 10 11  1  0
  9 10  1  1
 11 12  2  0
 12 13  1  0
 14 13  1  0
 15 11  1  0
 15 14  2  0
 16  9  1  0
 17 16  2  0
 19 18  1  0
 19 20  1  0
 20 22  1  0
 20 21  1  1
 22 23  1  6
 22 24  1  0
 23 16  1  0
 24 25  2  0
 24 26  1  0
M  END
$$$$
