PHI.pdb
     RDKit          3D

 26 27  0  0  1  0  0  0  0  0999 V2000
    5.6414  -17.7318   21.8282 N   0  0  0  0  0  0  0  0  0  0  0  0
    4.6280  -18.6403   21.3248 C   0  0  0  0  0  0  0  0  0  0  0  0
    5.0676  -19.0810   19.9571 C   0  0  0  0  0  0  0  0  0  0  0  0
    6.4351  -18.4129   19.7835 C   0  0  0  0  0  0  0  0  0  0  0  0
    6.8433  -18.1890   21.2033 C   0  0  1  0  0  0  0  0  0  0  0  0
    7.9721  -17.2482   21.3593 C   0  0  0  0  0  0  0  0  0  0  0  0
    9.1254  -17.6254   21.0456 O   0  0  0  0  0  0  0  0  0  0  0  0
    7.8008  -15.9187   21.8561 N   0  0  0  0  0  0  0  0  0  0  0  0
    8.9435  -15.0415   21.9646 C   0  0  1  0  0  0  0  0  0  0  0  0
    8.8969  -13.8451   21.0906 C   0  0  0  0  0  0  0  0  0  0  0  0
    8.4375  -14.0455   19.7130 C   0  0  0  0  0  0  0  0  0  0  0  0
    7.3044  -13.6067   19.0916 C   0  0  0  0  0  0  0  0  0  0  0  0
    7.3046  -14.0031   17.7873 N   0  0  0  0  0  0  0  0  0  0  0  0
    8.4354  -14.6808   17.6155 C   0  0  0  0  0  0  0  0  0  0  0  0
    9.1357  -14.7243   18.7484 N   0  0  0  0  0  0  0  0  0  0  0  0
    9.2335  -14.7058   23.3874 C   0  0  0  0  0  0  0  0  0  0  0  0
   10.2404  -14.0153   23.6468 O   0  0  0  0  0  0  0  0  0  0  0  0
    5.6420  -12.4020   25.8278 C   0  0  0  0  0  0  0  0  0  0  0  0
    6.9814  -12.9620   25.4775 C   0  0  0  0  0  0  0  0  0  0  0  0
    7.4565  -14.0552   26.3733 C   0  0  2  0  0  0  0  0  0  0  0  0
    7.7169  -13.5062   27.7549 C   0  0  0  0  0  0  0  0  0  0  0  0
    8.6619  -14.7948   25.8499 C   0  0  2  0  0  0  0  0  0  0  0  0
    8.4075  -15.1429   24.4484 N   0  0  0  0  0  0  0  0  0  0  0  0
    8.8451  -16.0438   26.6312 C   0  0  0  0  0  0  0  0  0  0  0  0
    9.3063  -15.9869   27.7966 O   0  0  0  0  0  0  0  0  0  0  0  0
    8.5248  -17.2907   26.1247 O   0  0  0  0  0  0  0  0  0  0  0  0
  2  1  1  0
  3  2  1  0
  4  3  1  0
  4  5  1  0
  5  1  1  0
  5  6  1  6
  6  8  1  0
  7  6  2  0
  9  8  1  0
 10 11  1  0
  9 10  1  6
 11 12  2  0
 12 13  1  0
 14 13  1  0
 15 11  1  0
 15 14  2  0
 16  9  1  0
 17 16  2  0
 19 18  1  0
 19 20  1  0
 20 22  1  0
 20 21  1  1
 22 23  1  6
 22 24  1  0
 23 16  1  0
 24 25  2  0
 24 26  1  0
M  END
$$$$
