PHI.pdb
     RDKit          3D

 26 27  0  0  1  0  0  0  0  0999 V2000
    8.4486  -15.0347   18.8005 N   0  0  0  0  0  0  0  0  0  0  0  0
    8.4372  -14.2705   17.5669 C   0  0  0  0  0  0  0  0  0  0  0  0
    7.6716  -13.0058   17.8359 C   0  0  0  0  0  0  0  0  0  0  0  0
    7.3367  -13.0955   19.3280 C   0  0  0  0  0  0  0  0  0  0  0  0
    8.3932  -14.0317   19.8179 C   0  0  1  0  0  0  0  0  0  0  0  0
    8.1257  -14.5837   21.1624 C   0  0  0  0  0  0  0  0  0  0  0  0
    8.0116  -13.7964   22.1308 O   0  0  0  0  0  0  0  0  0  0  0  0
    7.9913  -15.9863   21.4040 N   0  0  0  0  0  0  0  0  0  0  0  0
    7.5751  -16.4524   22.7065 C   0  0  1  0  0  0  0  0  0  0  0  0
    7.5434  -17.9263   22.8609 C   0  0  0  0  0  0  0  0  0  0  0  0
    7.1076  -18.4497   24.1591 C   0  0  0  0  0  0  0  0  0  0  0  0
    6.5807  -17.7993   25.2370 C   0  0  0  0  0  0  0  0  0  0  0  0
    6.2870  -18.6935   26.2233 N   0  0  0  0  0  0  0  0  0  0  0  0
    6.6338  -19.8849   25.7461 C   0  0  0  0  0  0  0  0  0  0  0  0
    7.1279  -19.7735   24.5136 N   0  0  0  0  0  0  0  0  0  0  0  0
    8.3390  -15.7748   23.7921 C   0  0  0  0  0  0  0  0  0  0  0  0
    9.5756  -15.6572   23.6710 O   0  0  0  0  0  0  0  0  0  0  0  0
    5.7279  -11.7560   26.1740 C   0  0  0  0  0  0  0  0  0  0  0  0
    6.7814  -12.6463   25.6014 C   0  0  0  0  0  0  0  0  0  0  0  0
    7.4685  -13.5216   26.5939 C   0  0  2  0  0  0  0  0  0  0  0  0
    8.1564  -12.6716   27.6341 C   0  0  0  0  0  0  0  0  0  0  0  0
    8.4305  -14.5064   25.9787 C   0  0  2  0  0  0  0  0  0  0  0  0
    7.7097  -15.2630   24.9501 N   0  0  0  0  0  0  0  0  0  0  0  0
    8.9029  -15.4463   27.0263 C   0  0  0  0  0  0  0  0  0  0  0  0
    8.2224  -16.4635   27.3025 O   0  0  0  0  0  0  0  0  0  0  0  0
   10.0804  -15.2491   27.7251 O   0  0  0  0  0  0  0  0  0  0  0  0
  2  1  1  0
  3  2  1  0
  4  3  1  0
  4  5  1  0
  5  1  1  0
  5  6  1  1
  6  8  1  0
  7  6  2  0
  9  8  1  0
 10 11  1  0
  9 10  1  6
 11 12  2  0
 12 13  1  0
 14 13  1  0
 15 11  1  0
 15 14  2  0
 16  9  1  0
 17 16  2  0
 19 18  1  0
 19 20  1  0
 20 22  1  0
 20 21  1  1
 22 23  1  6
 22 24  1  0
 23 16  1  0
 24 25  2  0
 24 26  1  0
M  END
$$$$
