PHI.pdb
     RDKit          3D

 26 27  0  0  1  0  0  0  0  0999 V2000
    8.8504  -14.9489   18.5726 N   0  0  0  0  0  0  0  0  0  0  0  0
    8.9537  -14.2851   17.2863 C   0  0  0  0  0  0  0  0  0  0  0  0
    7.9951  -13.1281   17.3061 C   0  0  0  0  0  0  0  0  0  0  0  0
    7.4211  -13.1576   18.7261 C   0  0  0  0  0  0  0  0  0  0  0  0
    8.4894  -13.8938   19.4674 C   0  0  1  0  0  0  0  0  0  0  0  0
    8.0669  -14.3804   20.7973 C   0  0  0  0  0  0  0  0  0  0  0  0
    7.7109  -13.5480   21.6640 O   0  0  0  0  0  0  0  0  0  0  0  0
    8.0479  -15.7690   21.1366 N   0  0  0  0  0  0  0  0  0  0  0  0
    7.5527  -16.1842   22.4286 C   0  0  1  0  0  0  0  0  0  0  0  0
    7.3634  -17.6462   22.5839 C   0  0  0  0  0  0  0  0  0  0  0  0
    8.5623  -18.4851   22.4941 C   0  0  0  0  0  0  0  0  0  0  0  0
    9.5061  -18.5672   21.5117 C   0  0  0  0  0  0  0  0  0  0  0  0
   10.4705  -19.4633   21.8655 N   0  0  0  0  0  0  0  0  0  0  0  0
   10.1146  -19.9248   23.0604 C   0  0  0  0  0  0  0  0  0  0  0  0
    8.9776  -19.3594   23.4645 N   0  0  0  0  0  0  0  0  0  0  0  0
    8.3555  -15.5858   23.5325 C   0  0  0  0  0  0  0  0  0  0  0  0
    9.5493  -15.2938   23.3148 O   0  0  0  0  0  0  0  0  0  0  0  0
    5.7702  -12.0443   26.4501 C   0  0  0  0  0  0  0  0  0  0  0  0
    6.8361  -12.8247   25.7537 C   0  0  0  0  0  0  0  0  0  0  0  0
    7.5900  -13.7706   26.6254 C   0  0  2  0  0  0  0  0  0  0  0  0
    8.2962  -13.0056   27.7180 C   0  0  0  0  0  0  0  0  0  0  0  0
    8.5535  -14.6569   25.8770 C   0  0  2  0  0  0  0  0  0  0  0  0
    7.8099  -15.3394   24.8133 N   0  0  0  0  0  0  0  0  0  0  0  0
    9.1052  -15.6733   26.8080 C   0  0  0  0  0  0  0  0  0  0  0  0
    8.5015  -16.7609   26.9709 O   0  0  0  0  0  0  0  0  0  0  0  0
   10.2759  -15.4730   27.5174 O   0  0  0  0  0  0  0  0  0  0  0  0
  2  1  1  0
  3  2  1  0
  4  3  1  0
  4  5  1  0
  5  1  1  0
  5  6  1  1
  6  8  1  0
  7  6  2  0
  9  8  1  0
 10 11  1  0
  9 10  1  6
 11 12  2  0
 12 13  1  0
 14 13  1  0
 15 11  1  0
 15 14  2  0
 16  9  1  0
 17 16  2  0
 19 18  1  0
 19 20  1  0
 20 22  1  0
 20 21  1  1
 22 23  1  6
 22 24  1  0
 23 16  1  0
 24 25  2  0
 24 26  1  0
M  END
$$$$
