PHI.pdb
     RDKit          3D

 26 27  0  0  1  0  0  0  0  0999 V2000
    9.0004  -14.7234   18.8785 N   0  0  0  0  0  0  0  0  0  0  0  0
    9.0634  -13.9845   17.6311 C   0  0  0  0  0  0  0  0  0  0  0  0
    8.0220  -12.9036   17.7031 C   0  0  0  0  0  0  0  0  0  0  0  0
    7.4420  -13.0527   19.1130 C   0  0  0  0  0  0  0  0  0  0  0  0
    8.5565  -13.7482   19.8250 C   0  0  1  0  0  0  0  0  0  0  0  0
    8.1620  -14.3364   21.1220 C   0  0  0  0  0  0  0  0  0  0  0  0
    7.5962  -13.6096   21.9719 O   0  0  0  0  0  0  0  0  0  0  0  0
    8.4008  -15.7077   21.4478 N   0  0  0  0  0  0  0  0  0  0  0  0
    7.8334  -16.2673   22.6528 C   0  0  1  0  0  0  0  0  0  0  0  0
    7.6965  -17.7433   22.6509 C   0  0  0  0  0  0  0  0  0  0  0  0
    6.8747  -18.3335   21.5900 C   0  0  0  0  0  0  0  0  0  0  0  0
    5.5433  -18.1900   21.3269 C   0  0  0  0  0  0  0  0  0  0  0  0
    5.2090  -18.9009   20.2128 N   0  0  0  0  0  0  0  0  0  0  0  0
    6.3345  -19.4749   19.7989 C   0  0  0  0  0  0  0  0  0  0  0  0
    7.3493  -19.1553   20.6011 N   0  0  0  0  0  0  0  0  0  0  0  0
    8.5295  -15.7539   23.8665 C   0  0  0  0  0  0  0  0  0  0  0  0
    9.7769  -15.7811   23.8981 O   0  0  0  0  0  0  0  0  0  0  0  0
    5.7994  -11.9014   26.4682 C   0  0  0  0  0  0  0  0  0  0  0  0
    6.8933  -12.7237   25.8703 C   0  0  0  0  0  0  0  0  0  0  0  0
    7.5247  -13.6995   26.8042 C   0  0  2  0  0  0  0  0  0  0  0  0
    8.1840  -12.9621   27.9441 C   0  0  0  0  0  0  0  0  0  0  0  0
    8.4944  -14.6436   26.1390 C   0  0  2  0  0  0  0  0  0  0  0  0
    7.8244  -15.2391   24.9786 N   0  0  0  0  0  0  0  0  0  0  0  0
    8.8568  -15.7223   27.0925 C   0  0  0  0  0  0  0  0  0  0  0  0
    8.1176  -16.7301   27.2025 O   0  0  0  0  0  0  0  0  0  0  0  0
    9.9929  -15.6670   27.8800 O   0  0  0  0  0  0  0  0  0  0  0  0
  2  1  1  0
  3  2  1  0
  4  3  1  0
  4  5  1  0
  5  1  1  0
  5  6  1  1
  6  8  1  0
  7  6  2  0
  9  8  1  0
 10 11  1  0
  9 10  1  6
 11 12  2  0
 12 13  1  0
 14 13  1  0
 15 11  1  0
 15 14  2  0
 16  9  1  0
 17 16  2  0
 19 18  1  0
 19 20  1  0
 20 22  1  0
 20 21  1  1
 22 23  1  6
 22 24  1  0
 23 16  1  0
 24 25  2  0
 24 26  1  0
M  END
$$$$
