PHI.pdb
     RDKit          3D

 26 27  0  0  1  0  0  0  0  0999 V2000
    8.1345  -15.0346   18.2929 N   0  0  0  0  0  0  0  0  0  0  0  0
    8.3063  -14.1511   17.1547 C   0  0  0  0  0  0  0  0  0  0  0  0
    8.0318  -12.7532   17.6330 C   0  0  0  0  0  0  0  0  0  0  0  0
    7.7790  -12.9271   19.1338 C   0  0  0  0  0  0  0  0  0  0  0  0
    8.4845  -14.2148   19.4108 C   0  0  1  0  0  0  0  0  0  0  0  0
    8.1295  -14.8232   20.7099 C   0  0  0  0  0  0  0  0  0  0  0  0
    6.9886  -14.6171   21.1859 O   0  0  0  0  0  0  0  0  0  0  0  0
    9.0395  -15.6413   21.4491 N   0  0  0  0  0  0  0  0  0  0  0  0
    8.6006  -16.2801   22.6682 C   0  0  1  0  0  0  0  0  0  0  0  0
    8.8247  -17.7445   22.7209 C   0  0  0  0  0  0  0  0  0  0  0  0
    8.2151  -18.5492   21.6579 C   0  0  0  0  0  0  0  0  0  0  0  0
    6.9091  -18.6586   21.2775 C   0  0  0  0  0  0  0  0  0  0  0  0
    6.8030  -19.5020   20.2117 N   0  0  0  0  0  0  0  0  0  0  0  0
    8.0417  -19.9040   19.9441 C   0  0  0  0  0  0  0  0  0  0  0  0
    8.9098  -19.3520   20.7910 N   0  0  0  0  0  0  0  0  0  0  0  0
    9.1277  -15.5720   23.8690 C   0  0  0  0  0  0  0  0  0  0  0  0
   10.2973  -15.1372   23.8426 O   0  0  0  0  0  0  0  0  0  0  0  0
    5.7951  -12.2083   26.0992 C   0  0  0  0  0  0  0  0  0  0  0  0
    7.0206  -12.9339   25.6497 C   0  0  0  0  0  0  0  0  0  0  0  0
    7.6677  -13.7769   26.6955 C   0  0  2  0  0  0  0  0  0  0  0  0
    8.0956  -12.9119   27.8559 C   0  0  0  0  0  0  0  0  0  0  0  0
    8.8196  -14.6064   26.1865 C   0  0  2  0  0  0  0  0  0  0  0  0
    8.3481  -15.3781   25.0323 N   0  0  0  0  0  0  0  0  0  0  0  0
    9.2516  -15.5466   27.2511 C   0  0  0  0  0  0  0  0  0  0  0  0
    8.6737  -16.6531   27.3764 O   0  0  0  0  0  0  0  0  0  0  0  0
   10.2810  -15.2539   28.1278 O   0  0  0  0  0  0  0  0  0  0  0  0
  2  1  1  0
  3  2  1  0
  4  3  1  0
  4  5  1  0
  5  1  1  0
  5  6  1  1
  6  8  1  0
  7  6  2  0
  9  8  1  0
 10 11  1  0
  9 10  1  6
 11 12  2  0
 12 13  1  0
 14 13  1  0
 15 11  1  0
 15 14  2  0
 16  9  1  0
 17 16  2  0
 19 18  1  0
 19 20  1  0
 20 22  1  0
 20 21  1  1
 22 23  1  6
 22 24  1  0
 23 16  1  0
 24 25  2  0
 24 26  1  0
M  END
$$$$
