PHI.pdb
     RDKit          3D

 26 27  0  0  1  0  0  0  0  0999 V2000
    9.1445  -14.5696   18.9576 N   0  0  0  0  0  0  0  0  0  0  0  0
    8.8687  -13.7368   17.8017 C   0  0  0  0  0  0  0  0  0  0  0  0
    7.5548  -13.0520   18.0520 C   0  0  0  0  0  0  0  0  0  0  0  0
    7.1729  -13.5062   19.4642 C   0  0  0  0  0  0  0  0  0  0  0  0
    8.5045  -13.8765   20.0319 C   0  0  1  0  0  0  0  0  0  0  0  0
    8.4241  -14.6764   21.2718 C   0  0  0  0  0  0  0  0  0  0  0  0
    7.7142  -14.2614   22.2177 O   0  0  0  0  0  0  0  0  0  0  0  0
    9.1268  -15.9104   21.4367 N   0  0  0  0  0  0  0  0  0  0  0  0
    8.9280  -16.6937   22.6342 C   0  0  1  0  0  0  0  0  0  0  0  0
    9.2489  -18.1345   22.4977 C   0  0  0  0  0  0  0  0  0  0  0  0
    8.5187  -18.8840   21.4710 C   0  0  0  0  0  0  0  0  0  0  0  0
    7.2588  -18.7019   20.9790 C   0  0  0  0  0  0  0  0  0  0  0  0
    7.0027  -19.6181   20.0026 N   0  0  0  0  0  0  0  0  0  0  0  0
    8.1043  -20.3554   19.9005 C   0  0  0  0  0  0  0  0  0  0  0  0
    9.0301  -19.9417   20.7651 N   0  0  0  0  0  0  0  0  0  0  0  0
    9.5938  -16.0630   23.8089 C   0  0  0  0  0  0  0  0  0  0  0  0
   10.6996  -15.5080   23.6442 O   0  0  0  0  0  0  0  0  0  0  0  0
    8.8870  -12.0028   27.8490 C   0  0  0  0  0  0  0  0  0  0  0  0
    9.4853  -13.3590   27.6671 C   0  0  0  0  0  0  0  0  0  0  0  0
    8.9060  -14.1533   26.5461 C   0  0  2  0  0  0  0  0  0  0  0  0
    7.4444  -14.4199   26.8112 C   0  0  0  0  0  0  0  0  0  0  0  0
    9.6456  -15.4357   26.2588 C   0  0  2  0  0  0  0  0  0  0  0  0
    9.0149  -16.0733   25.0987 N   0  0  0  0  0  0  0  0  0  0  0  0
    9.5266  -16.3403   27.4300 C   0  0  0  0  0  0  0  0  0  0  0  0
    8.6587  -17.2464   27.4310 O   0  0  0  0  0  0  0  0  0  0  0  0
   10.3433  -16.2286   28.5410 O   0  0  0  0  0  0  0  0  0  0  0  0
  2  1  1  0
  3  2  1  0
  4  3  1  0
  4  5  1  0
  5  1  1  0
  5  6  1  1
  6  8  1  0
  7  6  2  0
  9  8  1  0
 10 11  1  0
  9 10  1  6
 11 12  2  0
 12 13  1  0
 14 13  1  0
 15 11  1  0
 15 14  2  0
 16  9  1  0
 17 16  2  0
 19 18  1  0
 19 20  1  0
 20 22  1  0
 20 21  1  1
 22 23  1  6
 22 24  1  0
 23 16  1  0
 24 25  2  0
 24 26  1  0
M  END
$$$$
