PHI.pdb
     RDKit          3D

 26 27  0  0  1  0  0  0  0  0999 V2000
    9.0056  -14.6913   18.8919 N   0  0  0  0  0  0  0  0  0  0  0  0
    9.0101  -13.9312   17.6558 C   0  0  0  0  0  0  0  0  0  0  0  0
    7.8794  -12.9448   17.7378 C   0  0  0  0  0  0  0  0  0  0  0  0
    7.3085  -13.1642   19.1422 C   0  0  0  0  0  0  0  0  0  0  0  0
    8.4756  -13.7721   19.8501 C   0  0  1  0  0  0  0  0  0  0  0  0
    8.1276  -14.4113   21.1362 C   0  0  0  0  0  0  0  0  0  0  0  0
    7.4897  -13.7516   21.9897 O   0  0  0  0  0  0  0  0  0  0  0  0
    8.4912  -15.7584   21.4475 N   0  0  0  0  0  0  0  0  0  0  0  0
    8.0740  -16.3416   22.7016 C   0  0  1  0  0  0  0  0  0  0  0  0
    8.1454  -17.8213   22.7559 C   0  0  0  0  0  0  0  0  0  0  0  0
    7.4222  -18.5605   21.7168 C   0  0  0  0  0  0  0  0  0  0  0  0
    6.4484  -18.1425   20.8570 C   0  0  0  0  0  0  0  0  0  0  0  0
    6.0839  -19.1651   20.0326 N   0  0  0  0  0  0  0  0  0  0  0  0
    6.8347  -20.2026   20.3896 C   0  0  0  0  0  0  0  0  0  0  0  0
    7.6460  -19.8737   21.3943 N   0  0  0  0  0  0  0  0  0  0  0  0
    8.7560  -15.6883   23.8545 C   0  0  0  0  0  0  0  0  0  0  0  0
    9.9792  -15.4542   23.7726 O   0  0  0  0  0  0  0  0  0  0  0  0
    5.9511  -11.8987   26.0903 C   0  0  0  0  0  0  0  0  0  0  0  0
    7.1115  -12.7191   25.6312 C   0  0  0  0  0  0  0  0  0  0  0  0
    7.7044  -13.6038   26.6748 C   0  0  2  0  0  0  0  0  0  0  0  0
    8.3176  -12.7634   27.7682 C   0  0  0  0  0  0  0  0  0  0  0  0
    8.6994  -14.6016   26.1379 C   0  0  2  0  0  0  0  0  0  0  0  0
    8.0640  -15.3268   25.0332 N   0  0  0  0  0  0  0  0  0  0  0  0
    9.0494  -15.5668   27.2102 C   0  0  0  0  0  0  0  0  0  0  0  0
    8.3749  -16.6158   27.3478 O   0  0  0  0  0  0  0  0  0  0  0  0
   10.1042  -15.3596   28.0810 O   0  0  0  0  0  0  0  0  0  0  0  0
  2  1  1  0
  3  2  1  0
  4  3  1  0
  4  5  1  0
  5  1  1  0
  5  6  1  1
  6  8  1  0
  7  6  2  0
  9  8  1  0
 10 11  1  0
  9 10  1  6
 11 12  2  0
 12 13  1  0
 14 13  1  0
 15 11  1  0
 15 14  2  0
 16  9  1  0
 17 16  2  0
 19 18  1  0
 19 20  1  0
 20 22  1  0
 20 21  1  1
 22 23  1  6
 22 24  1  0
 23 16  1  0
 24 25  2  0
 24 26  1  0
M  END
$$$$
