PHI.pdb
     RDKit          3D

 26 27  0  0  1  0  0  0  0  0999 V2000
    9.0146  -14.7223   18.7793 N   0  0  0  0  0  0  0  0  0  0  0  0
    9.0022  -13.9939   17.5243 C   0  0  0  0  0  0  0  0  0  0  0  0
    7.8852  -12.9920   17.6042 C   0  0  0  0  0  0  0  0  0  0  0  0
    7.3412  -13.1686   19.0253 C   0  0  0  0  0  0  0  0  0  0  0  0
    8.5156  -13.7725   19.7244 C   0  0  1  0  0  0  0  0  0  0  0  0
    8.1870  -14.3746   21.0333 C   0  0  0  0  0  0  0  0  0  0  0  0
    7.6220  -13.6695   21.9018 O   0  0  0  0  0  0  0  0  0  0  0  0
    8.4892  -15.7355   21.3503 N   0  0  0  0  0  0  0  0  0  0  0  0
    8.0359  -16.2974   22.6015 C   0  0  1  0  0  0  0  0  0  0  0  0
    8.0621  -17.7781   22.6664 C   0  0  0  0  0  0  0  0  0  0  0  0
    7.3747  -18.5030   21.5935 C   0  0  0  0  0  0  0  0  0  0  0  0
    6.1713  -18.2583   20.9982 C   0  0  0  0  0  0  0  0  0  0  0  0
    5.9418  -19.1755   20.0161 N   0  0  0  0  0  0  0  0  0  0  0  0
    7.0034  -19.9759   20.0137 C   0  0  0  0  0  0  0  0  0  0  0  0
    7.8790  -19.6003   20.9454 N   0  0  0  0  0  0  0  0  0  0  0  0
    8.7197  -15.6569   23.7605 C   0  0  0  0  0  0  0  0  0  0  0  0
    9.9457  -15.4354   23.6851 O   0  0  0  0  0  0  0  0  0  0  0  0
    5.9096  -11.8278   25.9603 C   0  0  0  0  0  0  0  0  0  0  0  0
    7.0451  -12.6813   25.4993 C   0  0  0  0  0  0  0  0  0  0  0  0
    7.6424  -13.5509   26.5530 C   0  0  2  0  0  0  0  0  0  0  0  0
    8.2391  -12.6950   27.6435 C   0  0  0  0  0  0  0  0  0  0  0  0
    8.6524  -14.5407   26.0294 C   0  0  2  0  0  0  0  0  0  0  0  0
    8.0265  -15.2936   24.9380 N   0  0  0  0  0  0  0  0  0  0  0  0
    9.0205  -15.4830   27.1160 C   0  0  0  0  0  0  0  0  0  0  0  0
    9.9611  -15.1972   27.8956 O   0  0  0  0  0  0  0  0  0  0  0  0
    8.3624  -16.6839   27.3126 O   0  0  0  0  0  0  0  0  0  0  0  0
  2  1  1  0
  3  2  1  0
  4  3  1  0
  4  5  1  0
  5  1  1  0
  5  6  1  1
  6  8  1  0
  7  6  2  0
  9  8  1  0
 10 11  1  0
  9 10  1  6
 11 12  2  0
 12 13  1  0
 14 13  1  0
 15 11  1  0
 15 14  2  0
 16  9  1  0
 17 16  2  0
 19 18  1  0
 19 20  1  0
 20 22  1  0
 20 21  1  1
 22 23  1  6
 22 24  1  0
 23 16  1  0
 24 25  2  0
 24 26  1  0
M  END
$$$$
