PHI.pdb
     RDKit          3D

 26 27  0  0  1  0  0  0  0  0999 V2000
    8.9521  -14.9251   18.7311 N   0  0  0  0  0  0  0  0  0  0  0  0
    9.0953  -14.2439   17.4579 C   0  0  0  0  0  0  0  0  0  0  0  0
    8.0328  -13.1828   17.4008 C   0  0  0  0  0  0  0  0  0  0  0  0
    7.3518  -13.2782   18.7696 C   0  0  0  0  0  0  0  0  0  0  0  0
    8.4218  -13.9164   19.5945 C   0  0  1  0  0  0  0  0  0  0  0  0
    7.9417  -14.4517   20.8855 C   0  0  0  0  0  0  0  0  0  0  0  0
    7.3297  -13.6894   21.6696 O   0  0  0  0  0  0  0  0  0  0  0  0
    8.1483  -15.8109   21.2779 N   0  0  0  0  0  0  0  0  0  0  0  0
    7.6251  -16.2797   22.5401 C   0  0  1  0  0  0  0  0  0  0  0  0
    7.5011  -17.7523   22.6559 C   0  0  0  0  0  0  0  0  0  0  0  0
    6.4523  -18.3960   21.8590 C   0  0  0  0  0  0  0  0  0  0  0  0
    5.5150  -17.8475   21.0325 C   0  0  0  0  0  0  0  0  0  0  0  0
    4.7600  -18.8312   20.4663 N   0  0  0  0  0  0  0  0  0  0  0  0
    5.2373  -19.9753   20.9467 C   0  0  0  0  0  0  0  0  0  0  0  0
    6.2502  -19.7494   21.7825 N   0  0  0  0  0  0  0  0  0  0  0  0
    8.3555  -15.6702   23.6874 C   0  0  0  0  0  0  0  0  0  0  0  0
    9.6035  -15.6675   23.6696 O   0  0  0  0  0  0  0  0  0  0  0  0
    7.2529  -10.9834   27.4554 C   0  0  0  0  0  0  0  0  0  0  0  0
    8.0500  -12.2185   27.1920 C   0  0  0  0  0  0  0  0  0  0  0  0
    7.4919  -13.1102   26.1353 C   0  0  2  0  0  0  0  0  0  0  0  0
    6.1020  -13.5528   26.5225 C   0  0  0  0  0  0  0  0  0  0  0  0
    8.3656  -14.2956   25.8107 C   0  0  2  0  0  0  0  0  0  0  0  0
    7.6823  -15.0974   24.7908 N   0  0  0  0  0  0  0  0  0  0  0  0
    8.5432  -15.1198   27.0327 C   0  0  0  0  0  0  0  0  0  0  0  0
    7.8449  -16.1492   27.1961 O   0  0  0  0  0  0  0  0  0  0  0  0
    9.4600  -14.7995   28.0181 O   0  0  0  0  0  0  0  0  0  0  0  0
  2  1  1  0
  3  2  1  0
  4  3  1  0
  4  5  1  0
  5  1  1  0
  5  6  1  1
  6  8  1  0
  7  6  2  0
  9  8  1  0
 10 11  1  0
  9 10  1  6
 11 12  2  0
 12 13  1  0
 14 13  1  0
 15 11  1  0
 15 14  2  0
 16  9  1  0
 17 16  2  0
 19 18  1  0
 19 20  1  0
 20 22  1  0
 20 21  1  1
 22 23  1  6
 22 24  1  0
 23 16  1  0
 24 25  2  0
 24 26  1  0
M  END
$$$$
