PHI.pdb
     RDKit          3D

 26 27  0  0  1  0  0  0  0  0999 V2000
    8.7341  -14.9637   18.7287 N   0  0  0  0  0  0  0  0  0  0  0  0
    8.6914  -14.2485   17.4668 C   0  0  0  0  0  0  0  0  0  0  0  0
    7.6861  -13.1419   17.6181 C   0  0  0  0  0  0  0  0  0  0  0  0
    7.2433  -13.2523   19.0804 C   0  0  0  0  0  0  0  0  0  0  0  0
    8.4063  -13.9617   19.6944 C   0  0  1  0  0  0  0  0  0  0  0  0
    8.1273  -14.5174   21.0350 C   0  0  0  0  0  0  0  0  0  0  0  0
    7.7911  -13.7387   21.9577 O   0  0  0  0  0  0  0  0  0  0  0  0
    8.2260  -15.9142   21.3231 N   0  0  0  0  0  0  0  0  0  0  0  0
    7.8061  -16.4112   22.6129 C   0  0  1  0  0  0  0  0  0  0  0  0
    7.8510  -17.8857   22.7582 C   0  0  0  0  0  0  0  0  0  0  0  0
    7.4373  -18.4394   24.0510 C   0  0  0  0  0  0  0  0  0  0  0  0
    6.2113  -18.4510   24.6505 C   0  0  0  0  0  0  0  0  0  0  0  0
    6.2813  -19.1087   25.8424 N   0  0  0  0  0  0  0  0  0  0  0  0
    7.5467  -19.4969   25.9675 C   0  0  0  0  0  0  0  0  0  0  0  0
    8.2642  -19.1122   24.9125 N   0  0  0  0  0  0  0  0  0  0  0  0
    8.5068  -15.7006   23.7198 C   0  0  0  0  0  0  0  0  0  0  0  0
    9.7060  -15.3897   23.5676 O   0  0  0  0  0  0  0  0  0  0  0  0
    5.8539  -12.0442   26.6125 C   0  0  0  0  0  0  0  0  0  0  0  0
    6.9215  -12.8407   25.9371 C   0  0  0  0  0  0  0  0  0  0  0  0
    7.5696  -13.8734   26.7954 C   0  0  2  0  0  0  0  0  0  0  0  0
    8.2152  -13.2133   27.9892 C   0  0  0  0  0  0  0  0  0  0  0  0
    8.5559  -14.7472   26.0622 C   0  0  2  0  0  0  0  0  0  0  0  0
    7.8589  -15.3689   24.9318 N   0  0  0  0  0  0  0  0  0  0  0  0
    9.0374  -15.8130   26.9768 C   0  0  0  0  0  0  0  0  0  0  0  0
    8.3533  -16.8526   27.1358 O   0  0  0  0  0  0  0  0  0  0  0  0
   10.2275  -15.7112   27.6749 O   0  0  0  0  0  0  0  0  0  0  0  0
  2  1  1  0
  3  2  1  0
  4  3  1  0
  4  5  1  0
  5  1  1  0
  5  6  1  1
  6  8  1  0
  7  6  2  0
  9  8  1  0
 10 11  1  0
  9 10  1  6
 11 12  2  0
 12 13  1  0
 14 13  1  0
 15 11  1  0
 15 14  2  0
 16  9  1  0
 17 16  2  0
 19 18  1  0
 19 20  1  0
 20 22  1  0
 20 21  1  1
 22 23  1  6
 22 24  1  0
 23 16  1  0
 24 25  2  0
 24 26  1  0
M  END
$$$$
