PHI.pdb
     RDKit          3D

 26 27  0  0  1  0  0  0  0  0999 V2000
    8.4892  -14.9816   18.7949 N   0  0  0  0  0  0  0  0  0  0  0  0
    8.3733  -14.2405   17.5527 C   0  0  0  0  0  0  0  0  0  0  0  0
    7.4312  -13.0973   17.8047 C   0  0  0  0  0  0  0  0  0  0  0  0
    7.1053  -13.2186   19.2966 C   0  0  0  0  0  0  0  0  0  0  0  0
    8.2838  -13.9865   19.8007 C   0  0  1  0  0  0  0  0  0  0  0  0
    8.0924  -14.5569   21.1505 C   0  0  0  0  0  0  0  0  0  0  0  0
    7.8576  -13.7844   22.1090 O   0  0  0  0  0  0  0  0  0  0  0  0
    8.1647  -15.9613   21.4081 N   0  0  0  0  0  0  0  0  0  0  0  0
    7.7907  -16.4717   22.7067 C   0  0  1  0  0  0  0  0  0  0  0  0
    7.8570  -17.9466   22.8402 C   0  0  0  0  0  0  0  0  0  0  0  0
    7.5254  -18.5111   24.1518 C   0  0  0  0  0  0  0  0  0  0  0  0
    6.3828  -18.4061   24.8906 C   0  0  0  0  0  0  0  0  0  0  0  0
    6.5038  -19.1266   26.0415 N   0  0  0  0  0  0  0  0  0  0  0  0
    7.7170  -19.6692   26.0026 C   0  0  0  0  0  0  0  0  0  0  0  0
    8.3536  -19.3205   24.8851 N   0  0  0  0  0  0  0  0  0  0  0  0
    8.5173  -15.7605   23.7964 C   0  0  0  0  0  0  0  0  0  0  0  0
    9.7472  -15.5828   23.6796 O   0  0  0  0  0  0  0  0  0  0  0  0
    6.1020  -11.6686   26.1953 C   0  0  0  0  0  0  0  0  0  0  0  0
    7.1175  -12.6221   25.6569 C   0  0  0  0  0  0  0  0  0  0  0  0
    7.6566  -13.5912   26.6536 C   0  0  2  0  0  0  0  0  0  0  0  0
    8.3422  -12.8450   27.7720 C   0  0  0  0  0  0  0  0  0  0  0  0
    8.5700  -14.6343   26.0607 C   0  0  2  0  0  0  0  0  0  0  0  0
    7.8603  -15.2826   24.9534 N   0  0  0  0  0  0  0  0  0  0  0  0
    8.8833  -15.6528   27.0946 C   0  0  0  0  0  0  0  0  0  0  0  0
    8.0568  -16.5639   27.3412 O   0  0  0  0  0  0  0  0  0  0  0  0
   10.0661  -15.6436   27.8119 O   0  0  0  0  0  0  0  0  0  0  0  0
  2  1  1  0
  3  2  1  0
  4  3  1  0
  4  5  1  0
  5  1  1  0
  5  6  1  1
  6  8  1  0
  7  6  2  0
  9  8  1  0
 10 11  1  0
  9 10  1  6
 11 12  2  0
 12 13  1  0
 14 13  1  0
 15 11  1  0
 15 14  2  0
 16  9  1  0
 17 16  2  0
 19 18  1  0
 19 20  1  0
 20 22  1  0
 20 21  1  1
 22 23  1  6
 22 24  1  0
 23 16  1  0
 24 25  2  0
 24 26  1  0
M  END
$$$$
