PHI.pdb
     RDKit          3D

 26 27  0  0  1  0  0  0  0  0999 V2000
   51.1388  -47.1896   37.9626 N   0  0  0  0  0  0  0  0  0  0  0  0
   50.5872  -47.3298   39.2975 C   0  0  0  0  0  0  0  0  0  0  0  0
   51.0265  -46.1292   40.0871 C   0  0  0  0  0  0  0  0  0  0  0  0
   51.7885  -45.2816   39.0636 C   0  0  0  0  0  0  0  0  0  0  0  0
   51.2121  -45.7740   37.7760 C   0  0  1  0  0  0  0  0  0  0  0  0
   51.9944  -45.3860   36.5840 C   0  0  0  0  0  0  0  0  0  0  0  0
   52.8304  -46.1941   36.1162 O   0  0  0  0  0  0  0  0  0  0  0  0
   51.8354  -44.1197   35.9397 N   0  0  0  0  0  0  0  0  0  0  0  0
   52.2504  -43.9578   34.5654 C   0  0  1  0  0  0  0  0  0  0  0  0
   52.3895  -42.5517   34.1172 C   0  0  0  0  0  0  0  0  0  0  0  0
   52.8977  -42.3337   32.7595 C   0  0  0  0  0  0  0  0  0  0  0  0
   53.8778  -41.4962   32.3117 C   0  0  0  0  0  0  0  0  0  0  0  0
   54.0424  -41.6482   30.9670 N   0  0  0  0  0  0  0  0  0  0  0  0
   53.1650  -42.5763   30.5979 C   0  0  0  0  0  0  0  0  0  0  0  0
   52.4649  -43.0069   31.6468 N   0  0  0  0  0  0  0  0  0  0  0  0
   53.4556  -44.7812   34.2646 C   0  0  0  0  0  0  0  0  0  0  0  0
   53.3672  -46.0237   34.3438 O   0  0  0  0  0  0  0  0  0  0  0  0
   59.1157  -44.4415   33.8413 C   0  0  0  0  0  0  0  0  0  0  0  0
   57.8843  -44.0429   34.5865 C   0  0  0  0  0  0  0  0  0  0  0  0
   56.8114  -45.0777   34.6214 C   0  0  2  0  0  0  0  0  0  0  0  0
   57.4298  -46.4513   34.7146 C   0  0  0  0  0  0  0  0  0  0  0  0
   55.8459  -44.9972   33.4658 C   0  0  2  0  0  0  0  0  0  0  0  0
   54.6909  -44.2019   33.8940 N   0  0  0  0  0  0  0  0  0  0  0  0
   55.3867  -46.3654   33.1176 C   0  0  0  0  0  0  0  0  0  0  0  0
   54.1583  -46.6114   33.0502 O   0  0  0  0  0  0  0  0  0  0  0  0
   56.2668  -47.4011   32.8591 O   0  0  0  0  0  0  0  0  0  0  0  0
  2  1  1  0
  3  2  1  0
  4  3  1  0
  4  5  1  0
  5  1  1  0
  5  6  1  6
  6  8  1  0
  7  6  2  0
  9  8  1  0
 10 11  1  0
  9 10  1  1
 11 12  2  0
 12 13  1  0
 14 13  1  0
 15 11  1  0
 15 14  2  0
 16  9  1  0
 17 16  2  0
 19 18  1  0
 19 20  1  0
 20 22  1  0
 20 21  1  6
 22 23  1  1
 22 24  1  0
 23 16  1  0
 24 25  2  0
 24 26  1  0
M  END
$$$$
