PHI.pdb
     RDKit          3D

 26 27  0  0  1  0  0  0  0  0999 V2000
    8.8848  -15.0180   19.0095 N   0  0  0  0  0  0  0  0  0  0  0  0
    9.1013  -14.3424   17.7436 C   0  0  0  0  0  0  0  0  0  0  0  0
    8.0587  -13.2661   17.6314 C   0  0  0  0  0  0  0  0  0  0  0  0
    7.3089  -13.3478   18.9647 C   0  0  0  0  0  0  0  0  0  0  0  0
    8.3269  -13.9993   19.8433 C   0  0  1  0  0  0  0  0  0  0  0  0
    7.7752  -14.5241   21.1097 C   0  0  0  0  0  0  0  0  0  0  0  0
    7.1707  -13.7416   21.8797 O   0  0  0  0  0  0  0  0  0  0  0  0
    7.9040  -15.8951   21.4939 N   0  0  0  0  0  0  0  0  0  0  0  0
    7.3972  -16.3310   22.7745 C   0  0  1  0  0  0  0  0  0  0  0  0
    7.1298  -17.7854   22.8775 C   0  0  0  0  0  0  0  0  0  0  0  0
    6.1850  -18.3577   21.9136 C   0  0  0  0  0  0  0  0  0  0  0  0
    4.8203  -18.3679   21.9203 C   0  0  0  0  0  0  0  0  0  0  0  0
    4.3531  -18.9864   20.7990 N   0  0  0  0  0  0  0  0  0  0  0  0
    5.4310  -19.3510   20.1114 C   0  0  0  0  0  0  0  0  0  0  0  0
    6.5427  -18.9894   20.7510 N   0  0  0  0  0  0  0  0  0  0  0  0
    8.2401  -15.8188   23.8918 C   0  0  0  0  0  0  0  0  0  0  0  0
    9.4819  -15.8752   23.7798 O   0  0  0  0  0  0  0  0  0  0  0  0
    5.8995  -11.8397   26.6596 C   0  0  0  0  0  0  0  0  0  0  0  0
    6.8640  -12.7408   25.9609 C   0  0  0  0  0  0  0  0  0  0  0  0
    7.6216  -13.6614   26.8561 C   0  0  2  0  0  0  0  0  0  0  0  0
    8.4327  -12.8596   27.8446 C   0  0  0  0  0  0  0  0  0  0  0  0
    8.4902  -14.6516   26.1219 C   0  0  2  0  0  0  0  0  0  0  0  0
    7.6800  -15.2734   25.0697 N   0  0  0  0  0  0  0  0  0  0  0  0
    8.9393  -15.7029   27.0691 C   0  0  0  0  0  0  0  0  0  0  0  0
    8.2066  -16.6975   27.2882 O   0  0  0  0  0  0  0  0  0  0  0  0
   10.1508  -15.6356   27.7337 O   0  0  0  0  0  0  0  0  0  0  0  0
  2  1  1  0
  3  2  1  0
  4  3  1  0
  4  5  1  0
  5  1  1  0
  5  6  1  1
  6  8  1  0
  7  6  2  0
  9  8  1  0
 10 11  1  0
  9 10  1  6
 11 12  2  0
 12 13  1  0
 14 13  1  0
 15 11  1  0
 15 14  2  0
 16  9  1  0
 17 16  2  0
 19 18  1  0
 19 20  1  0
 20 22  1  0
 20 21  1  1
 22 23  1  6
 22 24  1  0
 23 16  1  0
 24 25  2  0
 24 26  1  0
M  END
$$$$
