MWC.pdb
     RDKit          3D

 29 30  0  0  1  0  0  0  0  0999 V2000
    8.3541  -11.7070   18.9558 C   0  0  0  0  0  0  0  0  0  0  0  0
    6.9573  -12.8560   18.8301 S   0  0  0  0  0  0  0  0  0  0  0  0
    7.5239  -14.5061   19.3635 C   0  0  0  0  0  0  0  0  0  0  0  0
    7.9576  -14.4147   20.8226 C   0  0  0  0  0  0  0  0  0  0  0  0
    8.5356  -15.7710   21.1726 C   0  0  2  0  0  0  0  0  0  0  0  0
    7.5052  -16.7542   21.3327 N   0  0  0  0  0  0  0  0  0  0  0  0
    9.3711  -15.6514   22.4136 C   0  0  0  0  0  0  0  0  0  0  0  0
   10.3426  -14.8575   22.4579 O   0  0  0  0  0  0  0  0  0  0  0  0
    9.1075  -16.4138   23.5706 N   0  0  0  0  0  0  0  0  0  0  0  0
    9.8793  -16.2307   24.8192 C   0  0  1  0  0  0  0  0  0  0  0  0
    9.0050  -16.4528   25.9923 C   0  0  0  0  0  0  0  0  0  0  0  0
    7.8088  -15.6084   25.9855 C   0  0  0  0  0  0  0  0  0  0  0  0
    6.4812  -15.9701   25.7637 C   0  0  0  0  0  0  0  0  0  0  0  0
    5.6871  -14.8871   25.8036 N   0  0  0  0  0  0  0  0  0  0  0  0
    6.4303  -13.7992   26.0452 C   0  0  0  0  0  0  0  0  0  0  0  0
    6.0573  -12.4767   26.1711 C   0  0  0  0  0  0  0  0  0  0  0  0
    7.0532  -11.5587   26.4221 C   0  0  0  0  0  0  0  0  0  0  0  0
    8.3698  -11.9524   26.5419 C   0  0  0  0  0  0  0  0  0  0  0  0
    8.7108  -13.2838   26.4107 C   0  0  0  0  0  0  0  0  0  0  0  0
    7.7477  -14.2192   26.1618 C   0  0  0  0  0  0  0  0  0  0  0  0
   11.0886  -17.0731   24.7182 C   0  0  0  0  0  0  0  0  0  0  0  0
   10.9770  -18.3573   24.6536 O   0  0  0  0  0  0  0  0  0  0  0  0
   12.4309  -16.6309   24.6732 N   0  0  0  0  0  0  0  0  0  0  0  0
   13.5185  -17.5429   24.6766 C   0  0  1  0  0  0  0  0  0  0  0  0
   14.8383  -16.9372   24.2639 C   0  0  0  0  0  0  0  0  0  0  0  0
   15.0827  -15.3253   25.0495 S   0  0  0  0  0  0  0  0  0  0  0  0
   13.7147  -18.1264   26.0138 C   0  0  0  0  0  0  0  0  0  0  0  0
   14.5940  -19.1426   26.3177 O   0  0  0  0  0  0  0  0  0  0  0  0
   13.0389  -17.6937   27.0198 O   0  0  0  0  0  0  0  0  0  0  0  0
  2  1  1  0
  3  2  1  0
  4  3  1  0
  5  4  1  0
  5  6  1  1
  7  8  2  0
  7  5  1  0
  9  7  1  0
 10  9  1  0
 10 11  1  1
 12 11  1  0
 12 20  1  0
 13 14  1  0
 13 12  2  0
 14 15  1  0
 15 16  1  0
 15 20  2  0
 16 17  2  0
 17 18  1  0
 19 18  2  0
 20 19  1  0
 21 10  1  0
 22 21  2  0
 23 21  1  0
 24 23  1  0
 25 26  1  0
 24 25  1  1
 27 24  1  0
 27 28  1  0
 29 27  2  0
M  END
$$$$
