MWC.pdb
     RDKit          3D

 29 30  0  0  1  0  0  0  0  0999 V2000
    8.1917  -11.5607   20.4349 C   0  0  0  0  0  0  0  0  0  0  0  0
    7.4197  -12.6040   19.1689 S   0  0  0  0  0  0  0  0  0  0  0  0
    7.7728  -14.3480   19.5711 C   0  0  0  0  0  0  0  0  0  0  0  0
    8.3814  -14.4032   20.9683 C   0  0  0  0  0  0  0  0  0  0  0  0
    8.7162  -15.8593   21.2211 C   0  0  2  0  0  0  0  0  0  0  0  0
    7.5461  -16.6844   21.1592 N   0  0  0  0  0  0  0  0  0  0  0  0
    9.4040  -15.9891   22.5488 C   0  0  0  0  0  0  0  0  0  0  0  0
   10.4629  -15.3580   22.7862 O   0  0  0  0  0  0  0  0  0  0  0  0
    8.9000  -16.8137   23.5761 N   0  0  0  0  0  0  0  0  0  0  0  0
    9.4796  -16.8082   24.9371 C   0  0  1  0  0  0  0  0  0  0  0  0
    8.4026  -16.9126   25.9467 C   0  0  0  0  0  0  0  0  0  0  0  0
    7.4345  -15.8168   25.8695 C   0  0  0  0  0  0  0  0  0  0  0  0
    6.1117  -15.8444   25.4314 C   0  0  0  0  0  0  0  0  0  0  0  0
    5.5755  -14.6136   25.4809 N   0  0  0  0  0  0  0  0  0  0  0  0
    6.4898  -13.7481   25.9384 C   0  0  0  0  0  0  0  0  0  0  0  0
    6.3977  -12.3886   26.1558 C   0  0  0  0  0  0  0  0  0  0  0  0
    7.5172  -11.7469   26.6383 C   0  0  0  0  0  0  0  0  0  0  0  0
    8.6813  -12.4418   26.8921 C   0  0  0  0  0  0  0  0  0  0  0  0
    8.7415  -13.8022   26.6642 C   0  0  0  0  0  0  0  0  0  0  0  0
    7.6495  -14.4685   26.1863 C   0  0  0  0  0  0  0  0  0  0  0  0
   10.5318  -17.8443   24.9730 C   0  0  0  0  0  0  0  0  0  0  0  0
   10.4019  -18.9206   24.2725 O   0  0  0  0  0  0  0  0  0  0  0  0
   11.7367  -17.8066   25.7119 N   0  0  0  0  0  0  0  0  0  0  0  0
   12.5992  -18.9309   25.7926 C   0  0  1  0  0  0  0  0  0  0  0  0
   14.0645  -18.6023   25.6372 C   0  0  0  0  0  0  0  0  0  0  0  0
   15.0912  -20.0527   25.9794 S   0  0  0  0  0  0  0  0  0  0  0  0
   12.4498  -19.6199   27.0849 C   0  0  0  0  0  0  0  0  0  0  0  0
   12.9413  -20.8726   27.3807 O   0  0  0  0  0  0  0  0  0  0  0  0
   11.8189  -19.0570   28.0550 O   0  0  0  0  0  0  0  0  0  0  0  0
  2  1  1  0
  3  2  1  0
  4  3  1  0
  5  4  1  0
  5  6  1  1
  7  8  2  0
  7  5  1  0
  9  7  1  0
 10  9  1  0
 10 11  1  1
 12 11  1  0
 12 20  1  0
 13 14  1  0
 13 12  2  0
 14 15  1  0
 15 16  1  0
 15 20  2  0
 16 17  2  0
 17 18  1  0
 19 18  2  0
 20 19  1  0
 21 10  1  0
 22 21  2  0
 23 21  1  0
 24 23  1  0
 25 26  1  0
 24 25  1  1
 27 24  1  0
 27 28  1  0
 29 27  2  0
M  END
$$$$
