MWC.pdb
     RDKit          3D

 29 30  0  0  1  0  0  0  0  0999 V2000
    9.9303  -17.1700   29.2948 C   0  0  0  0  0  0  0  0  0  0  0  0
    9.4739  -18.8661   29.7444 S   0  0  0  0  0  0  0  0  0  0  0  0
    8.9172  -19.7279   28.2359 C   0  0  0  0  0  0  0  0  0  0  0  0
    8.6892  -18.6861   27.1459 C   0  0  0  0  0  0  0  0  0  0  0  0
    8.1649  -19.4461   25.9444 C   0  0  2  0  0  0  0  0  0  0  0  0
    8.7100  -20.7702   25.8834 N   0  0  0  0  0  0  0  0  0  0  0  0
    8.4705  -18.6738   24.6943 C   0  0  0  0  0  0  0  0  0  0  0  0
    9.3559  -19.0695   23.8971 O   0  0  0  0  0  0  0  0  0  0  0  0
    7.7872  -17.4855   24.3619 N   0  0  0  0  0  0  0  0  0  0  0  0
    8.3041  -16.5465   23.3424 C   0  0  1  0  0  0  0  0  0  0  0  0
    7.3159  -15.4730   23.0953 C   0  0  0  0  0  0  0  0  0  0  0  0
    6.7614  -14.9078   24.3270 C   0  0  0  0  0  0  0  0  0  0  0  0
    5.9819  -15.5267   25.3027 C   0  0  0  0  0  0  0  0  0  0  0  0
    5.6424  -14.6468   26.2595 N   0  0  0  0  0  0  0  0  0  0  0  0
    6.1650  -13.4485   25.9676 C   0  0  0  0  0  0  0  0  0  0  0  0
    6.0840  -12.2521   26.6504 C   0  0  0  0  0  0  0  0  0  0  0  0
    6.7307  -11.1656   26.1036 C   0  0  0  0  0  0  0  0  0  0  0  0
    7.4301  -11.2757   24.9198 C   0  0  0  0  0  0  0  0  0  0  0  0
    7.4923  -12.4871   24.2605 C   0  0  0  0  0  0  0  0  0  0  0  0
    6.8625  -13.5838   24.7756 C   0  0  0  0  0  0  0  0  0  0  0  0
    9.6533  -16.1265   23.7728 C   0  0  0  0  0  0  0  0  0  0  0  0
   10.3978  -15.4338   22.9779 O   0  0  0  0  0  0  0  0  0  0  0  0
   10.2699  -16.3933   25.0169 N   0  0  0  0  0  0  0  0  0  0  0  0
   11.5165  -15.8151   25.3722 C   0  0  1  0  0  0  0  0  0  0  0  0
   11.5843  -15.3094   26.7931 C   0  0  0  0  0  0  0  0  0  0  0  0
   10.2980  -14.0741   27.1007 S   0  0  0  0  0  0  0  0  0  0  0  0
   12.6135  -16.7832   25.2096 C   0  0  0  0  0  0  0  0  0  0  0  0
   13.9499  -16.5126   25.4070 O   0  0  0  0  0  0  0  0  0  0  0  0
   12.3664  -17.9956   24.8560 O   0  0  0  0  0  0  0  0  0  0  0  0
  2  1  1  0
  3  2  1  0
  4  3  1  0
  5  4  1  0
  5  6  1  6
  7  8  2  0
  7  5  1  0
  9  7  1  0
 10  9  1  0
 10 11  1  1
 12 11  1  0
 12 20  1  0
 13 14  1  0
 13 12  2  0
 14 15  1  0
 15 16  1  0
 15 20  2  0
 16 17  2  0
 17 18  1  0
 19 18  2  0
 20 19  1  0
 21 10  1  0
 22 21  2  0
 23 21  1  0
 24 23  1  0
 25 26  1  0
 24 25  1  1
 27 24  1  0
 27 28  1  0
 29 27  2  0
M  END
$$$$
