MWC.pdb
     RDKit          3D

 29 30  0  0  1  0  0  0  0  0999 V2000
    6.4038  -12.3410   20.6741 C   0  0  0  0  0  0  0  0  0  0  0  0
    7.9884  -13.0691   20.1783 S   0  0  0  0  0  0  0  0  0  0  0  0
    8.1435  -14.7013   20.9783 C   0  0  0  0  0  0  0  0  0  0  0  0
    9.4671  -15.3228   20.5451 C   0  0  0  0  0  0  0  0  0  0  0  0
    9.5269  -16.6836   21.2091 C   0  0  2  0  0  0  0  0  0  0  0  0
    8.3233  -17.4289   20.9860 N   0  0  0  0  0  0  0  0  0  0  0  0
    9.7960  -16.5110   22.6755 C   0  0  0  0  0  0  0  0  0  0  0  0
   10.7409  -15.7860   23.0726 O   0  0  0  0  0  0  0  0  0  0  0  0
    9.0116  -17.1458   23.6610 N   0  0  0  0  0  0  0  0  0  0  0  0
    9.2954  -16.9908   25.1045 C   0  0  1  0  0  0  0  0  0  0  0  0
    8.0297  -16.9803   25.8712 C   0  0  0  0  0  0  0  0  0  0  0  0
    7.2900  -15.7233   25.7418 C   0  0  0  0  0  0  0  0  0  0  0  0
    6.0723  -15.4834   25.1075 C   0  0  0  0  0  0  0  0  0  0  0  0
    5.7545  -14.1801   25.1798 N   0  0  0  0  0  0  0  0  0  0  0  0
    6.7159  -13.5239   25.8427 C   0  0  0  0  0  0  0  0  0  0  0  0
    6.8240  -12.1851   26.1587 C   0  0  0  0  0  0  0  0  0  0  0  0
    7.9422  -11.7875   26.8582 C   0  0  0  0  0  0  0  0  0  0  0  0
    8.9121  -12.6970   27.2254 C   0  0  0  0  0  0  0  0  0  0  0  0
    8.7746  -14.0302   26.8941 C   0  0  0  0  0  0  0  0  0  0  0  0
    7.6781  -14.4572   26.2013 C   0  0  0  0  0  0  0  0  0  0  0  0
   10.2904  -18.0191   25.4716 C   0  0  0  0  0  0  0  0  0  0  0  0
   10.1663  -19.2247   25.0279 O   0  0  0  0  0  0  0  0  0  0  0  0
   11.4319  -17.8440   26.2875 N   0  0  0  0  0  0  0  0  0  0  0  0
   12.2799  -18.9297   26.6290 C   0  0  1  0  0  0  0  0  0  0  0  0
   13.7262  -18.5480   26.8328 C   0  0  0  0  0  0  0  0  0  0  0  0
   14.4888  -18.0495   25.2692 S   0  0  0  0  0  0  0  0  0  0  0  0
   11.8301  -19.5814   27.8700 C   0  0  0  0  0  0  0  0  0  0  0  0
   12.4734  -20.6244   28.4997 O   0  0  0  0  0  0  0  0  0  0  0  0
   10.7562  -19.1890   28.4606 O   0  0  0  0  0  0  0  0  0  0  0  0
  2  1  1  0
  3  2  1  0
  4  3  1  0
  5  4  1  0
  5  6  1  1
  7  8  2  0
  7  5  1  0
  9  7  1  0
 10  9  1  0
 10 11  1  1
 12 11  1  0
 12 20  1  0
 13 14  1  0
 13 12  2  0
 14 15  1  0
 15 16  1  0
 15 20  2  0
 16 17  2  0
 17 18  1  0
 19 18  2  0
 20 19  1  0
 21 10  1  0
 22 21  2  0
 23 21  1  0
 24 23  1  0
 25 26  1  0
 24 25  1  1
 27 24  1  0
 27 28  1  0
 29 27  2  0
M  END
$$$$
