MWC.pdb
     RDKit          3D

 29 30  0  0  1  0  0  0  0  0999 V2000
    8.0592  -11.9173   20.0149 C   0  0  0  0  0  0  0  0  0  0  0  0
    7.2993  -13.2900   19.1064 S   0  0  0  0  0  0  0  0  0  0  0  0
    7.7677  -14.8496   19.9289 C   0  0  0  0  0  0  0  0  0  0  0  0
    9.1675  -14.6824   20.5104 C   0  0  0  0  0  0  0  0  0  0  0  0
    9.4868  -15.9865   21.2128 C   0  0  2  0  0  0  0  0  0  0  0  0
    8.3848  -16.9004   21.1471 N   0  0  0  0  0  0  0  0  0  0  0  0
    9.8757  -15.7044   22.6346 C   0  0  0  0  0  0  0  0  0  0  0  0
   10.7680  -14.8619   22.8997 O   0  0  0  0  0  0  0  0  0  0  0  0
    9.2659  -16.3626   23.7229 N   0  0  0  0  0  0  0  0  0  0  0  0
    9.6249  -16.0523   25.1240 C   0  0  1  0  0  0  0  0  0  0  0  0
    8.4829  -16.3493   26.0171 C   0  0  0  0  0  0  0  0  0  0  0  0
    7.3659  -15.4173   25.8508 C   0  0  0  0  0  0  0  0  0  0  0  0
    6.0417  -15.6872   25.5098 C   0  0  0  0  0  0  0  0  0  0  0  0
    5.3383  -14.5460   25.4209 N   0  0  0  0  0  0  0  0  0  0  0  0
    6.1400  -13.5072   25.6901 C   0  0  0  0  0  0  0  0  0  0  0  0
    5.8651  -12.1553   25.7195 C   0  0  0  0  0  0  0  0  0  0  0  0
    6.9028  -11.3045   26.0313 C   0  0  0  0  0  0  0  0  0  0  0  0
    8.1646  -11.7912   26.3025 C   0  0  0  0  0  0  0  0  0  0  0  0
    8.4075  -13.1497   26.2650 C   0  0  0  0  0  0  0  0  0  0  0  0
    7.4008  -14.0203   25.9594 C   0  0  0  0  0  0  0  0  0  0  0  0
   10.8985  -16.7411   25.4164 C   0  0  0  0  0  0  0  0  0  0  0  0
   11.1176  -17.9213   24.9420 O   0  0  0  0  0  0  0  0  0  0  0  0
   11.9753  -16.2453   26.1870 N   0  0  0  0  0  0  0  0  0  0  0  0
   12.2376  -16.7219   27.4980 C   0  0  1  0  0  0  0  0  0  0  0  0
   11.1375  -16.4407   28.4929 C   0  0  0  0  0  0  0  0  0  0  0  0
   11.1635  -14.7069   29.0111 S   0  0  0  0  0  0  0  0  0  0  0  0
   12.4526  -18.1782   27.4977 C   0  0  0  0  0  0  0  0  0  0  0  0
   12.2529  -19.0122   26.4193 O   0  0  0  0  0  0  0  0  0  0  0  0
   12.8596  -18.7776   28.5612 O   0  0  0  0  0  0  0  0  0  0  0  0
  2  1  1  0
  3  2  1  0
  4  3  1  0
  5  4  1  0
  5  6  1  1
  7  8  2  0
  7  5  1  0
  9  7  1  0
 10  9  1  0
 10 11  1  1
 12 11  1  0
 12 20  1  0
 13 14  1  0
 13 12  2  0
 14 15  1  0
 15 16  1  0
 15 20  2  0
 16 17  2  0
 17 18  1  0
 19 18  2  0
 20 19  1  0
 21 10  1  0
 22 21  2  0
 23 21  1  0
 24 23  1  0
 25 26  1  0
 24 25  1  1
 27 24  1  0
 27 28  1  0
 29 27  2  0
M  END
$$$$
