MWC.pdb
     RDKit          3D

 29 30  0  0  1  0  0  0  0  0999 V2000
    9.9717  -18.3832   17.8574 C   0  0  0  0  0  0  0  0  0  0  0  0
    8.2157  -18.8004   17.6858 S   0  0  0  0  0  0  0  0  0  0  0  0
    7.2665  -17.7742   18.8579 C   0  0  0  0  0  0  0  0  0  0  0  0
    8.2537  -17.0274   19.7486 C   0  0  0  0  0  0  0  0  0  0  0  0
    7.4156  -16.1600   20.6659 C   0  0  2  0  0  0  0  0  0  0  0  0
    6.8600  -15.0403   19.9649 N   0  0  0  0  0  0  0  0  0  0  0  0
    8.2513  -15.7131   21.8297 C   0  0  0  0  0  0  0  0  0  0  0  0
    8.8891  -14.6328   21.7832 O   0  0  0  0  0  0  0  0  0  0  0  0
    8.3572  -16.4747   23.0122 N   0  0  0  0  0  0  0  0  0  0  0  0
    9.2783  -16.0951   24.1057 C   0  0  1  0  0  0  0  0  0  0  0  0
    8.6076  -16.2632   25.4141 C   0  0  0  0  0  0  0  0  0  0  0  0
    7.5231  -15.3037   25.6314 C   0  0  0  0  0  0  0  0  0  0  0  0
    6.1490  -15.4850   25.4845 C   0  0  0  0  0  0  0  0  0  0  0  0
    5.4946  -14.3407   25.7436 N   0  0  0  0  0  0  0  0  0  0  0  0
    6.3779  -13.3854   26.0622 C   0  0  0  0  0  0  0  0  0  0  0  0
    6.1752  -12.0631   26.4004 C   0  0  0  0  0  0  0  0  0  0  0  0
    7.2893  -11.3033   26.6820 C   0  0  0  0  0  0  0  0  0  0  0  0
    8.5549  -11.8488   26.6264 C   0  0  0  0  0  0  0  0  0  0  0  0
    8.7245  -13.1757   26.2848 C   0  0  0  0  0  0  0  0  0  0  0  0
    7.6410  -13.9565   25.9999 C   0  0  0  0  0  0  0  0  0  0  0  0
   10.5379  -16.8389   23.9001 C   0  0  0  0  0  0  0  0  0  0  0  0
   10.5044  -18.0884   23.5784 O   0  0  0  0  0  0  0  0  0  0  0  0
   11.8526  -16.3302   24.0090 N   0  0  0  0  0  0  0  0  0  0  0  0
   12.9914  -17.1561   23.8202 C   0  0  1  0  0  0  0  0  0  0  0  0
   14.1348  -16.4827   23.1002 C   0  0  0  0  0  0  0  0  0  0  0  0
   13.6250  -15.9300   21.4541 S   0  0  0  0  0  0  0  0  0  0  0  0
   13.5185  -17.6321   25.1097 C   0  0  0  0  0  0  0  0  0  0  0  0
   14.6233  -18.4398   25.2687 O   0  0  0  0  0  0  0  0  0  0  0  0
   12.9434  -17.3001   26.2120 O   0  0  0  0  0  0  0  0  0  0  0  0
  2  1  1  0
  3  2  1  0
  4  3  1  0
  5  4  1  0
  5  6  1  6
  7  8  2  0
  7  5  1  0
  9  7  1  0
 10  9  1  0
 10 11  1  1
 12 11  1  0
 12 20  1  0
 13 14  1  0
 13 12  2  0
 14 15  1  0
 15 16  1  0
 15 20  2  0
 16 17  2  0
 17 18  1  0
 19 18  2  0
 20 19  1  0
 21 10  1  0
 22 21  2  0
 23 21  1  0
 24 23  1  0
 25 26  1  0
 24 25  1  1
 27 24  1  0
 27 28  1  0
 29 27  2  0
M  END
$$$$
