MWC.pdb
     RDKit          3D

 29 30  0  0  1  0  0  0  0  0999 V2000
    7.2713  -12.1351   18.0295 C   0  0  0  0  0  0  0  0  0  0  0  0
    7.5037  -13.3835   16.7355 S   0  0  0  0  0  0  0  0  0  0  0  0
    8.3323  -14.8295   17.4775 C   0  0  0  0  0  0  0  0  0  0  0  0
    9.0666  -14.3688   18.7321 C   0  0  0  0  0  0  0  0  0  0  0  0
    9.5977  -15.6258   19.3909 C   0  0  2  0  0  0  0  0  0  0  0  0
    8.8156  -16.7734   19.0368 N   0  0  0  0  0  0  0  0  0  0  0  0
    9.6352  -15.4309   20.8786 C   0  0  0  0  0  0  0  0  0  0  0  0
   10.3685  -14.5501   21.3911 O   0  0  0  0  0  0  0  0  0  0  0  0
    8.8598  -16.2163   21.7568 N   0  0  0  0  0  0  0  0  0  0  0  0
    8.7659  -15.9109   23.2012 C   0  0  1  0  0  0  0  0  0  0  0  0
    7.3486  -15.9064   23.6269 C   0  0  0  0  0  0  0  0  0  0  0  0
    7.1693  -15.5039   25.0232 C   0  0  0  0  0  0  0  0  0  0  0  0
    6.7671  -16.2739   26.1132 C   0  0  0  0  0  0  0  0  0  0  0  0
    6.6885  -15.5157   27.2195 N   0  0  0  0  0  0  0  0  0  0  0  0
    7.0239  -14.2542   26.9190 C   0  0  0  0  0  0  0  0  0  0  0  0
    7.0874  -13.1347   27.7232 C   0  0  0  0  0  0  0  0  0  0  0  0
    7.4684  -11.9504   27.1315 C   0  0  0  0  0  0  0  0  0  0  0  0
    7.7732  -11.8926   25.7875 C   0  0  0  0  0  0  0  0  0  0  0  0
    7.7000  -13.0308   25.0095 C   0  0  0  0  0  0  0  0  0  0  0  0
    7.3258  -14.2207   25.5650 C   0  0  0  0  0  0  0  0  0  0  0  0
    9.6729  -16.8380   23.9083 C   0  0  0  0  0  0  0  0  0  0  0  0
    9.6755  -18.0932   23.6075 O   0  0  0  0  0  0  0  0  0  0  0  0
   10.5981  -16.5106   24.9262 N   0  0  0  0  0  0  0  0  0  0  0  0
   11.4082  -17.4980   25.5453 C   0  0  1  0  0  0  0  0  0  0  0  0
   12.7939  -17.0241   25.9119 C   0  0  0  0  0  0  0  0  0  0  0  0
   13.5584  -16.1361   24.5327 S   0  0  0  0  0  0  0  0  0  0  0  0
   10.7840  -17.9937   26.7829 C   0  0  0  0  0  0  0  0  0  0  0  0
    9.5876  -17.5513   27.3036 O   0  0  0  0  0  0  0  0  0  0  0  0
   11.3546  -18.9144   27.4778 O   0  0  0  0  0  0  0  0  0  0  0  0
  2  1  1  0
  3  2  1  0
  4  3  1  0
  5  4  1  0
  5  6  1  1
  7  8  2  0
  7  5  1  0
  9  7  1  0
 10  9  1  0
 10 11  1  1
 12 11  1  0
 12 20  1  0
 13 14  1  0
 13 12  2  0
 14 15  1  0
 15 16  1  0
 15 20  2  0
 16 17  2  0
 17 18  1  0
 19 18  2  0
 20 19  1  0
 21 10  1  0
 22 21  2  0
 23 21  1  0
 24 23  1  0
 25 26  1  0
 24 25  1  1
 27 24  1  0
 27 28  1  0
 29 27  2  0
M  END
$$$$
