MWC.pdb
     RDKit          3D

 29 30  0  0  1  0  0  0  0  0999 V2000
    7.6573  -11.5808   19.6664 C   0  0  0  0  0  0  0  0  0  0  0  0
    6.6348  -12.9066   18.9709 S   0  0  0  0  0  0  0  0  0  0  0  0
    7.4028  -14.5054   19.3975 C   0  0  0  0  0  0  0  0  0  0  0  0
    8.0445  -14.3758   20.7748 C   0  0  0  0  0  0  0  0  0  0  0  0
    8.6416  -15.7331   21.0871 C   0  0  2  0  0  0  0  0  0  0  0  0
    7.6291  -16.7438   21.1719 N   0  0  0  0  0  0  0  0  0  0  0  0
    9.4335  -15.6482   22.3592 C   0  0  0  0  0  0  0  0  0  0  0  0
   10.3795  -14.8307   22.4717 O   0  0  0  0  0  0  0  0  0  0  0  0
    9.1557  -16.4707   23.4709 N   0  0  0  0  0  0  0  0  0  0  0  0
    9.8584  -16.3026   24.7617 C   0  0  1  0  0  0  0  0  0  0  0  0
    8.9393  -16.6040   25.8817 C   0  0  0  0  0  0  0  0  0  0  0  0
    7.7380  -15.7669   25.8804 C   0  0  0  0  0  0  0  0  0  0  0  0
    6.4224  -16.1212   25.5868 C   0  0  0  0  0  0  0  0  0  0  0  0
    5.6195  -15.0467   25.6619 N   0  0  0  0  0  0  0  0  0  0  0  0
    6.3450  -13.9717   25.9971 C   0  0  0  0  0  0  0  0  0  0  0  0
    5.9577  -12.6612   26.1884 C   0  0  0  0  0  0  0  0  0  0  0  0
    6.9367  -11.7550   26.5322 C   0  0  0  0  0  0  0  0  0  0  0  0
    8.2507  -12.1486   26.6779 C   0  0  0  0  0  0  0  0  0  0  0  0
    8.6062  -13.4678   26.4796 C   0  0  0  0  0  0  0  0  0  0  0  0
    7.6601  -14.3913   26.1381 C   0  0  0  0  0  0  0  0  0  0  0  0
   11.1062  -17.0900   24.6909 C   0  0  0  0  0  0  0  0  0  0  0  0
   11.1050  -18.2521   24.1292 O   0  0  0  0  0  0  0  0  0  0  0  0
   12.3781  -16.7128   25.1801 N   0  0  0  0  0  0  0  0  0  0  0  0
   13.4919  -17.5905   25.1207 C   0  0  1  0  0  0  0  0  0  0  0  0
   14.8168  -16.8992   24.9061 C   0  0  0  0  0  0  0  0  0  0  0  0
   14.6636  -15.5762   23.6809 S   0  0  0  0  0  0  0  0  0  0  0  0
   13.6138  -18.3743   26.3608 C   0  0  0  0  0  0  0  0  0  0  0  0
   14.5685  -19.3377   26.6030 O   0  0  0  0  0  0  0  0  0  0  0  0
   12.7911  -18.1892   27.3329 O   0  0  0  0  0  0  0  0  0  0  0  0
  2  1  1  0
  3  2  1  0
  4  3  1  0
  5  4  1  0
  5  6  1  1
  7  8  2  0
  7  5  1  0
  9  7  1  0
 10  9  1  0
 10 11  1  1
 12 11  1  0
 12 20  1  0
 13 14  1  0
 13 12  2  0
 14 15  1  0
 15 16  1  0
 15 20  2  0
 16 17  2  0
 17 18  1  0
 19 18  2  0
 20 19  1  0
 21 10  1  0
 22 21  2  0
 23 21  1  0
 24 23  1  0
 25 26  1  0
 24 25  1  1
 27 24  1  0
 27 28  1  0
 29 27  2  0
M  END
$$$$
