MWC.pdb
     RDKit          3D

 29 30  0  0  1  0  0  0  0  0999 V2000
    7.8537  -12.4733   18.4415 C   0  0  0  0  0  0  0  0  0  0  0  0
    7.9671  -13.9678   17.4213 S   0  0  0  0  0  0  0  0  0  0  0  0
    8.8491  -15.2474   18.3767 C   0  0  0  0  0  0  0  0  0  0  0  0
    9.9895  -14.5772   19.1355 C   0  0  0  0  0  0  0  0  0  0  0  0
   10.5686  -15.6416   20.0453 C   0  0  2  0  0  0  0  0  0  0  0  0
   10.0064  -16.9304   19.7680 N   0  0  0  0  0  0  0  0  0  0  0  0
   10.3470  -15.2479   21.4766 C   0  0  0  0  0  0  0  0  0  0  0  0
   10.9148  -14.2371   21.9583 O   0  0  0  0  0  0  0  0  0  0  0  0
    9.5031  -15.9841   22.3341 N   0  0  0  0  0  0  0  0  0  0  0  0
    9.0736  -15.4576   23.6481 C   0  0  1  0  0  0  0  0  0  0  0  0
    7.6195  -15.6662   23.8266 C   0  0  0  0  0  0  0  0  0  0  0  0
    7.1171  -15.1497   25.1013 C   0  0  0  0  0  0  0  0  0  0  0  0
    6.5558  -15.8465   26.1699 C   0  0  0  0  0  0  0  0  0  0  0  0
    6.1846  -14.9959   27.1413 N   0  0  0  0  0  0  0  0  0  0  0  0
    6.4746  -13.7421   26.7695 C   0  0  0  0  0  0  0  0  0  0  0  0
    6.2771  -12.5488   27.4336 C   0  0  0  0  0  0  0  0  0  0  0  0
    6.6793  -11.3953   26.7969 C   0  0  0  0  0  0  0  0  0  0  0  0
    7.2562  -11.4382   25.5447 C   0  0  0  0  0  0  0  0  0  0  0  0
    7.4402  -12.6485   24.9063 C   0  0  0  0  0  0  0  0  0  0  0  0
    7.0527  -13.8104   25.5099 C   0  0  0  0  0  0  0  0  0  0  0  0
    9.9633  -16.0444   24.6710 C   0  0  0  0  0  0  0  0  0  0  0  0
   10.5700  -17.1591   24.4358 O   0  0  0  0  0  0  0  0  0  0  0  0
   10.2606  -15.5104   25.9460 N   0  0  0  0  0  0  0  0  0  0  0  0
   11.1344  -16.1718   26.8479 C   0  0  1  0  0  0  0  0  0  0  0  0
   11.5851  -15.3226   28.0118 C   0  0  0  0  0  0  0  0  0  0  0  0
   10.2976  -15.2302   29.2802 S   0  0  0  0  0  0  0  0  0  0  0  0
   10.4987  -17.3725   27.4148 C   0  0  0  0  0  0  0  0  0  0  0  0
   11.1362  -18.3251   28.1792 O   0  0  0  0  0  0  0  0  0  0  0  0
    9.2490  -17.6052   27.2143 O   0  0  0  0  0  0  0  0  0  0  0  0
  2  1  1  0
  3  2  1  0
  4  3  1  0
  5  4  1  0
  5  6  1  6
  7  8  2  0
  7  5  1  0
  9  7  1  0
 10  9  1  0
 10 11  1  1
 12 11  1  0
 12 20  1  0
 13 14  1  0
 13 12  2  0
 14 15  1  0
 15 16  1  0
 15 20  2  0
 16 17  2  0
 17 18  1  0
 19 18  2  0
 20 19  1  0
 21 10  1  0
 22 21  2  0
 23 21  1  0
 24 23  1  0
 25 26  1  0
 24 25  1  1
 27 24  1  0
 27 28  1  0
 29 27  2  0
M  END
$$$$
