MWC.pdb
     RDKit          3D

 29 30  0  0  1  0  0  0  0  0999 V2000
    9.3675  -20.7432   19.4463 C   0  0  0  0  0  0  0  0  0  0  0  0
    7.9950  -20.1695   18.4100 S   0  0  0  0  0  0  0  0  0  0  0  0
    7.0502  -18.9236   19.3498 C   0  0  0  0  0  0  0  0  0  0  0  0
    8.0326  -18.1033   20.1790 C   0  0  0  0  0  0  0  0  0  0  0  0
    7.1907  -17.1455   20.9976 C   0  0  2  0  0  0  0  0  0  0  0  0
    6.5322  -16.1832   20.1643 N   0  0  0  0  0  0  0  0  0  0  0  0
    8.0556  -16.4747   22.0245 C   0  0  0  0  0  0  0  0  0  0  0  0
    8.6548  -15.4045   21.7571 O   0  0  0  0  0  0  0  0  0  0  0  0
    8.2326  -17.0076   23.3184 N   0  0  0  0  0  0  0  0  0  0  0  0
    9.1647  -16.3992   24.2928 C   0  0  1  0  0  0  0  0  0  0  0  0
    8.5358  -16.3483   25.6314 C   0  0  0  0  0  0  0  0  0  0  0  0
    7.4827  -15.3361   25.7334 C   0  0  0  0  0  0  0  0  0  0  0  0
    6.1019  -15.4933   25.6274 C   0  0  0  0  0  0  0  0  0  0  0  0
    5.4845  -14.3056   25.7417 N   0  0  0  0  0  0  0  0  0  0  0  0
    6.3995  -13.3442   25.9221 C   0  0  0  0  0  0  0  0  0  0  0  0
    6.2400  -11.9834   26.0862 C   0  0  0  0  0  0  0  0  0  0  0  0
    7.3795  -11.2275   26.2530 C   0  0  0  0  0  0  0  0  0  0  0  0
    8.6280  -11.8138   26.2549 C   0  0  0  0  0  0  0  0  0  0  0  0
    8.7543  -13.1785   26.0883 C   0  0  0  0  0  0  0  0  0  0  0  0
    7.6447  -13.9565   25.9207 C   0  0  0  0  0  0  0  0  0  0  0  0
   10.4491  -17.1209   24.1850 C   0  0  0  0  0  0  0  0  0  0  0  0
   10.4681  -18.4112   24.2068 O   0  0  0  0  0  0  0  0  0  0  0  0
   11.7353  -16.5503   24.0457 N   0  0  0  0  0  0  0  0  0  0  0  0
   12.9045  -17.3518   23.9751 C   0  0  1  0  0  0  0  0  0  0  0  0
   14.0389  -16.7285   23.1980 C   0  0  0  0  0  0  0  0  0  0  0  0
   13.4851  -16.2029   21.5572 S   0  0  0  0  0  0  0  0  0  0  0  0
   13.4214  -17.6521   25.3204 C   0  0  0  0  0  0  0  0  0  0  0  0
   14.5642  -18.3721   25.5917 O   0  0  0  0  0  0  0  0  0  0  0  0
   12.7986  -17.2349   26.3665 O   0  0  0  0  0  0  0  0  0  0  0  0
  2  1  1  0
  3  2  1  0
  4  3  1  0
  5  4  1  0
  5  6  1  6
  7  8  2  0
  7  5  1  0
  9  7  1  0
 10  9  1  0
 10 11  1  1
 12 11  1  0
 12 20  1  0
 13 14  1  0
 13 12  2  0
 14 15  1  0
 15 16  1  0
 15 20  2  0
 16 17  2  0
 17 18  1  0
 19 18  2  0
 20 19  1  0
 21 10  1  0
 22 21  2  0
 23 21  1  0
 24 23  1  0
 25 26  1  0
 24 25  1  6
 27 24  1  0
 27 28  1  0
 29 27  2  0
M  END
$$$$
