MWC.pdb
     RDKit          3D

 29 30  0  0  1  0  0  0  0  0999 V2000
    6.7376  -21.7703   21.3350 C   0  0  0  0  0  0  0  0  0  0  0  0
    7.1616  -21.6944   19.5739 S   0  0  0  0  0  0  0  0  0  0  0  0
    7.3410  -19.9409   19.1035 C   0  0  0  0  0  0  0  0  0  0  0  0
    8.2528  -19.2633   20.1208 C   0  0  0  0  0  0  0  0  0  0  0  0
    8.1872  -17.7800   19.8181 C   0  0  2  0  0  0  0  0  0  0  0  0
    8.8819  -17.4614   18.6058 N   0  0  0  0  0  0  0  0  0  0  0  0
    8.7407  -17.0092   20.9810 C   0  0  0  0  0  0  0  0  0  0  0  0
    9.9549  -16.6926   21.0201 O   0  0  0  0  0  0  0  0  0  0  0  0
    7.9345  -16.6108   22.0676 N   0  0  0  0  0  0  0  0  0  0  0  0
    8.4601  -15.7641   23.1608 C   0  0  1  0  0  0  0  0  0  0  0  0
    7.3486  -15.0499   23.8274 C   0  0  0  0  0  0  0  0  0  0  0  0
    7.7380  -14.4423   25.1014 C   0  0  0  0  0  0  0  0  0  0  0  0
    8.7891  -14.7834   25.9508 C   0  0  0  0  0  0  0  0  0  0  0  0
    8.7805  -14.0030   27.0443 N   0  0  0  0  0  0  0  0  0  0  0  0
    7.7579  -13.1412   26.9678 C   0  0  0  0  0  0  0  0  0  0  0  0
    7.3544  -12.1587   27.8487 C   0  0  0  0  0  0  0  0  0  0  0  0
    6.2483  -11.4137   27.5035 C   0  0  0  0  0  0  0  0  0  0  0  0
    5.5748  -11.6457   26.3223 C   0  0  0  0  0  0  0  0  0  0  0  0
    6.0038  -12.6365   25.4618 C   0  0  0  0  0  0  0  0  0  0  0  0
    7.0969  -13.3929   25.7740 C   0  0  0  0  0  0  0  0  0  0  0  0
    9.3102  -16.6207   24.0128 C   0  0  0  0  0  0  0  0  0  0  0  0
    8.8445  -17.7293   24.4818 O   0  0  0  0  0  0  0  0  0  0  0  0
   10.6479  -16.3746   24.3989 N   0  0  0  0  0  0  0  0  0  0  0  0
   11.5095  -17.4219   24.8177 C   0  0  1  0  0  0  0  0  0  0  0  0
   12.9530  -17.2370   24.4160 C   0  0  0  0  0  0  0  0  0  0  0  0
   13.3093  -15.4964   24.0717 S   0  0  0  0  0  0  0  0  0  0  0  0
   11.4882  -17.5699   26.2822 C   0  0  0  0  0  0  0  0  0  0  0  0
   10.7493  -16.7958   27.1499 O   0  0  0  0  0  0  0  0  0  0  0  0
   12.1963  -18.4782   26.8563 O   0  0  0  0  0  0  0  0  0  0  0  0
  2  1  1  0
  3  2  1  0
  4  3  1  0
  5  4  1  0
  5  6  1  6
  7  8  2  0
  7  5  1  0
  9  7  1  0
 10  9  1  0
 10 11  1  1
 12 11  1  0
 12 20  1  0
 13 14  1  0
 13 12  2  0
 14 15  1  0
 15 16  1  0
 15 20  2  0
 16 17  2  0
 17 18  1  0
 19 18  2  0
 20 19  1  0
 21 10  1  0
 22 21  2  0
 23 21  1  0
 24 23  1  0
 25 26  1  0
 24 25  1  1
 27 24  1  0
 27 28  1  0
 29 27  2  0
M  END
$$$$
