GFS.pdb
     RDKit          3D

 22 22  0  0  1  0  0  0  0  0999 V2000
   31.3959  -22.3467  -10.1796 N   0  0  0  0  0  0  0  0  0  0  0  0
   30.7451  -21.0892   -9.9708 C   0  0  0  0  0  0  0  0  0  0  0  0
   29.3554  -21.3286   -9.5052 C   0  0  0  0  0  0  0  0  0  0  0  0
   28.8813  -22.5055   -9.4471 O   0  0  0  0  0  0  0  0  0  0  0  0
   28.4999  -20.2507   -9.1060 N   0  0  0  0  0  0  0  0  0  0  0  0
   27.1170  -20.4333   -8.8284 C   0  0  1  0  0  0  0  0  0  0  0  0
   26.6000  -19.5525   -7.7181 C   0  0  0  0  0  0  0  0  0  0  0  0
   27.3359  -19.7005   -6.4568 C   0  0  0  0  0  0  0  0  0  0  0  0
   27.2026  -20.8529   -5.7279 C   0  0  0  0  0  0  0  0  0  0  0  0
   27.8633  -21.0540   -4.5358 C   0  0  0  0  0  0  0  0  0  0  0  0
   28.6791  -20.0416   -4.0884 C   0  0  0  0  0  0  0  0  0  0  0  0
   28.8183  -18.8796   -4.8159 C   0  0  0  0  0  0  0  0  0  0  0  0
   28.1479  -18.7021   -6.0038 C   0  0  0  0  0  0  0  0  0  0  0  0
   26.2248  -20.2666  -10.0016 C   0  0  0  0  0  0  0  0  0  0  0  0
   26.2272  -19.1373  -10.5540 O   0  0  0  0  0  0  0  0  0  0  0  0
   26.0941  -21.9569  -13.2386 O   0  0  0  0  0  0  0  0  0  0  0  0
   24.7832  -22.0112  -12.7816 C   0  0  0  0  0  0  0  0  0  0  0  0
   24.5523  -20.9806  -11.6747 C   0  0  2  0  0  0  0  0  0  0  0  0
   25.3902  -21.2682  -10.5300 N   0  0  0  0  0  0  0  0  0  0  0  0
   23.1151  -20.9284  -11.3048 C   0  0  0  0  0  0  0  0  0  0  0  0
   22.1584  -20.6551  -12.2699 O   0  0  0  0  0  0  0  0  0  0  0  0
   22.7074  -21.1242  -10.1305 O   0  0  0  0  0  0  0  0  0  0  0  0
  1  2  1  0
  3  2  1  0
  3  4  2  0
  5  3  1  0
  6  5  1  0
  6 14  1  0
  6  7  1  1
  8  7  1  0
  9  8  2  0
 10  9  1  0
 11 10  2  0
 11 12  1  0
 12 13  2  0
 13  8  1  0
 14 19  1  0
 15 14  2  0
 17 16  1  0
 18 17  1  6
 18 20  1  0
 19 18  1  0
 20 22  2  0
 20 21  1  0
M  END
$$$$
