GFS.pdb
     RDKit          3D

 22 22  0  0  1  0  0  0  0  0999 V2000
   23.4543  -12.6193  -18.4598 N   0  0  0  0  0  0  0  0  0  0  0  0
   22.8107  -11.4057  -18.8619 C   0  0  0  0  0  0  0  0  0  0  0  0
   22.5745  -10.5574  -17.6661 C   0  0  0  0  0  0  0  0  0  0  0  0
   22.1204  -11.0587  -16.5910 O   0  0  0  0  0  0  0  0  0  0  0  0
   22.8469   -9.1508  -17.6764 N   0  0  0  0  0  0  0  0  0  0  0  0
   22.5974   -8.3143  -16.5534 C   0  0  1  0  0  0  0  0  0  0  0  0
   23.8276   -7.6111  -16.0360 C   0  0  0  0  0  0  0  0  0  0  0  0
   24.9637   -8.5093  -15.7973 C   0  0  0  0  0  0  0  0  0  0  0  0
   25.9943   -8.5498  -16.6991 C   0  0  0  0  0  0  0  0  0  0  0  0
   27.0879   -9.3715  -16.5355 C   0  0  0  0  0  0  0  0  0  0  0  0
   27.1158  -10.1683  -15.4152 C   0  0  0  0  0  0  0  0  0  0  0  0
   26.0830  -10.1333  -14.5036 C   0  0  0  0  0  0  0  0  0  0  0  0
   25.0014   -9.3041  -14.6890 C   0  0  0  0  0  0  0  0  0  0  0  0
   21.5399   -7.2961  -16.7653 C   0  0  0  0  0  0  0  0  0  0  0  0
   21.7303   -6.4729  -17.6964 O   0  0  0  0  0  0  0  0  0  0  0  0
   17.9566   -6.9736  -14.5745 O   0  0  0  0  0  0  0  0  0  0  0  0
   17.9878   -6.5895  -15.9093 C   0  0  0  0  0  0  0  0  0  0  0  0
   19.3967   -6.1516  -16.3143 C   0  0  2  0  0  0  0  0  0  0  0  0
   20.3585   -7.1894  -16.0091 N   0  0  0  0  0  0  0  0  0  0  0  0
   19.7493   -4.8658  -15.6605 C   0  0  0  0  0  0  0  0  0  0  0  0
   18.9963   -3.7293  -15.9108 O   0  0  0  0  0  0  0  0  0  0  0  0
   20.7213   -4.7487  -14.8698 O   0  0  0  0  0  0  0  0  0  0  0  0
  1  2  1  0
  3  2  1  0
  3  4  2  0
  5  3  1  0
  6  5  1  0
  6 14  1  0
  6  7  1  6
  8  7  1  0
  9  8  2  0
 10  9  1  0
 11 10  2  0
 11 12  1  0
 12 13  2  0
 13  8  1  0
 14 19  1  0
 15 14  2  0
 17 16  1  0
 18 17  1  1
 18 20  1  0
 19 18  1  0
 20 22  2  0
 20 21  1  0
M  END
$$$$
