GFS.pdb
     RDKit          3D

 22 22  0  0  1  0  0  0  0  0999 V2000
   26.1257  -32.5383   -8.5874 N   0  0  0  0  0  0  0  0  0  0  0  0
   24.9655  -32.4986   -7.7501 C   0  0  0  0  0  0  0  0  0  0  0  0
   25.3534  -32.8464   -6.3595 C   0  0  0  0  0  0  0  0  0  0  0  0
   26.5749  -32.9794   -6.0376 O   0  0  0  0  0  0  0  0  0  0  0  0
   24.3737  -33.0443   -5.3328 N   0  0  0  0  0  0  0  0  0  0  0  0
   24.7217  -33.4042   -4.0015 C   0  0  1  0  0  0  0  0  0  0  0  0
   23.9446  -32.6545   -2.9480 C   0  0  0  0  0  0  0  0  0  0  0  0
   24.2400  -31.2174   -2.9084 C   0  0  0  0  0  0  0  0  0  0  0  0
   25.4405  -30.7876   -2.4074 C   0  0  0  0  0  0  0  0  0  0  0  0
   25.7786  -29.4538   -2.3402 C   0  0  0  0  0  0  0  0  0  0  0  0
   24.8551  -28.5453   -2.8011 C   0  0  0  0  0  0  0  0  0  0  0  0
   23.6454  -28.9697   -3.3065 C   0  0  0  0  0  0  0  0  0  0  0  0
   23.3307  -30.3074   -3.3631 C   0  0  0  0  0  0  0  0  0  0  0  0
   24.6166  -34.8540   -3.7067 C   0  0  0  0  0  0  0  0  0  0  0  0
   23.5570  -35.4260   -4.0682 O   0  0  0  0  0  0  0  0  0  0  0  0
   26.4946  -39.0767   -2.2273 O   0  0  0  0  0  0  0  0  0  0  0  0
   26.6718  -37.7040   -2.3481 C   0  0  0  0  0  0  0  0  0  0  0  0
   25.3827  -37.0310   -2.8234 C   0  0  2  0  0  0  0  0  0  0  0  0
   25.6040  -35.6205   -3.0613 N   0  0  0  0  0  0  0  0  0  0  0  0
   24.2872  -37.2586   -1.8470 C   0  0  0  0  0  0  0  0  0  0  0  0
   23.3958  -38.3036   -2.0336 O   0  0  0  0  0  0  0  0  0  0  0  0
   24.1195  -36.5344   -0.8316 O   0  0  0  0  0  0  0  0  0  0  0  0
  1  2  1  0
  3  2  1  0
  3  4  2  0
  5  3  1  0
  6  5  1  0
  6 14  1  0
  6  7  1  1
  8  7  1  0
  9  8  2  0
 10  9  1  0
 11 10  2  0
 11 12  1  0
 12 13  2  0
 13  8  1  0
 14 19  1  0
 15 14  2  0
 17 16  1  0
 18 17  1  1
 18 20  1  0
 19 18  1  0
 20 22  2  0
 20 21  1  0
M  END
$$$$
