GFS.pdb
     RDKit          3D

 22 22  0  0  1  0  0  0  0  0999 V2000
   31.2664  -22.2967  -10.3607 N   0  0  0  0  0  0  0  0  0  0  0  0
   30.6156  -21.0325  -10.1964 C   0  0  0  0  0  0  0  0  0  0  0  0
   29.1839  -21.2574   -9.8725 C   0  0  0  0  0  0  0  0  0  0  0  0
   28.6191  -22.3612  -10.1482 O   0  0  0  0  0  0  0  0  0  0  0  0
   28.3881  -20.2470   -9.2411 N   0  0  0  0  0  0  0  0  0  0  0  0
   27.0109  -20.4345   -8.9393 C   0  0  1  0  0  0  0  0  0  0  0  0
   26.5382  -19.6414   -7.7463 C   0  0  0  0  0  0  0  0  0  0  0  0
   27.3393  -19.8620   -6.5365 C   0  0  0  0  0  0  0  0  0  0  0  0
   28.0798  -18.8320   -6.0190 C   0  0  0  0  0  0  0  0  0  0  0  0
   28.8541  -18.9734   -4.8884 C   0  0  0  0  0  0  0  0  0  0  0  0
   28.8627  -20.2066   -4.2802 C   0  0  0  0  0  0  0  0  0  0  0  0
   28.1206  -21.2476   -4.7947 C   0  0  0  0  0  0  0  0  0  0  0  0
   27.3550  -21.0817   -5.9252 C   0  0  0  0  0  0  0  0  0  0  0  0
   26.0890  -20.1610  -10.0686 C   0  0  0  0  0  0  0  0  0  0  0  0
   26.0669  -18.9817  -10.5037 O   0  0  0  0  0  0  0  0  0  0  0  0
   24.4568  -23.0379  -12.6270 O   0  0  0  0  0  0  0  0  0  0  0  0
   24.7877  -21.7402  -12.9964 C   0  0  0  0  0  0  0  0  0  0  0  0
   24.4939  -20.7612  -11.8581 C   0  0  2  0  0  0  0  0  0  0  0  0
   25.2516  -21.1142  -10.6763 N   0  0  0  0  0  0  0  0  0  0  0  0
   23.0359  -20.7088  -11.5810 C   0  0  0  0  0  0  0  0  0  0  0  0
   22.1495  -20.3564  -12.5868 O   0  0  0  0  0  0  0  0  0  0  0  0
   22.5481  -20.9742  -10.4518 O   0  0  0  0  0  0  0  0  0  0  0  0
  1  2  1  0
  3  2  1  0
  3  4  2  0
  5  3  1  0
  6  5  1  0
  6 14  1  0
  6  7  1  1
  8  7  1  0
  9  8  2  0
 10  9  1  0
 11 10  2  0
 11 12  1  0
 12 13  2  0
 13  8  1  0
 14 19  1  0
 15 14  2  0
 17 16  1  0
 18 17  1  6
 18 20  1  0
 19 18  1  0
 20 22  2  0
 20 21  1  0
M  END
$$$$
