GFS.pdb
     RDKit          3D

 22 22  0  0  1  0  0  0  0  0999 V2000
   18.5628   -3.9450  -16.3430 N   0  0  0  0  0  0  0  0  0  0  0  0
   18.2372   -5.2130  -16.9217 C   0  0  0  0  0  0  0  0  0  0  0  0
   19.4868   -5.8897  -17.3526 C   0  0  0  0  0  0  0  0  0  0  0  0
   20.3368   -5.2873  -18.0792 O   0  0  0  0  0  0  0  0  0  0  0  0
   19.7820   -7.2385  -16.9696 N   0  0  0  0  0  0  0  0  0  0  0  0
   20.9809   -7.8992  -17.3557 C   0  0  1  0  0  0  0  0  0  0  0  0
   21.9393   -8.1324  -16.2143 C   0  0  0  0  0  0  0  0  0  0  0  0
   22.4092   -6.8966  -15.5770 C   0  0  0  0  0  0  0  0  0  0  0  0
   23.4909   -6.2365  -16.0979 C   0  0  0  0  0  0  0  0  0  0  0  0
   23.9831   -5.0739  -15.5467 C   0  0  0  0  0  0  0  0  0  0  0  0
   23.3427   -4.5837  -14.4330 C   0  0  0  0  0  0  0  0  0  0  0  0
   22.2541   -5.2418  -13.9031 C   0  0  0  0  0  0  0  0  0  0  0  0
   21.7811   -6.4015  -14.4715 C   0  0  0  0  0  0  0  0  0  0  0  0
   20.7757   -9.1906  -18.0558 C   0  0  0  0  0  0  0  0  0  0  0  0
   19.9369   -9.9781  -17.5489 O   0  0  0  0  0  0  0  0  0  0  0  0
   21.1690  -12.0714  -21.9128 O   0  0  0  0  0  0  0  0  0  0  0  0
   21.4343  -10.8369  -21.3334 C   0  0  0  0  0  0  0  0  0  0  0  0
   21.1424  -10.8692  -19.8319 C   0  0  2  0  0  0  0  0  0  0  0  0
   21.4436   -9.5885  -19.2282 N   0  0  0  0  0  0  0  0  0  0  0  0
   21.8912  -11.9738  -19.1805 C   0  0  0  0  0  0  0  0  0  0  0  0
   21.2582  -13.1763  -18.9073 O   0  0  0  0  0  0  0  0  0  0  0  0
   23.1025  -11.8746  -18.8542 O   0  0  0  0  0  0  0  0  0  0  0  0
  1  2  1  0
  3  2  1  0
  3  4  2  0
  5  3  1  0
  6  5  1  0
  6 14  1  0
  6  7  1  1
  8  7  1  0
  9  8  2  0
 10  9  1  0
 11 10  2  0
 11 12  1  0
 12 13  2  0
 13  8  1  0
 14 19  1  0
 15 14  2  0
 17 16  1  0
 18 17  1  6
 18 20  1  0
 19 18  1  0
 20 22  2  0
 20 21  1  0
M  END
$$$$
