GFS.pdb
     RDKit          3D

 22 22  0  0  1  0  0  0  0  0999 V2000
   28.7959  -21.3860  -14.6367 N   0  0  0  0  0  0  0  0  0  0  0  0
   28.4717  -20.5056  -13.5557 C   0  0  0  0  0  0  0  0  0  0  0  0
   27.3224  -21.0630  -12.7983 C   0  0  0  0  0  0  0  0  0  0  0  0
   26.9533  -22.2666  -12.9665 O   0  0  0  0  0  0  0  0  0  0  0  0
   26.5892  -20.2723  -11.8548 N   0  0  0  0  0  0  0  0  0  0  0  0
   25.4318  -20.7571  -11.1851 C   0  0  1  0  0  0  0  0  0  0  0  0
   25.2580  -20.1995   -9.7942 C   0  0  0  0  0  0  0  0  0  0  0  0
   26.4690  -20.2844   -8.9693 C   0  0  0  0  0  0  0  0  0  0  0  0
   26.7984  -19.2423   -8.1432 C   0  0  0  0  0  0  0  0  0  0  0  0
   27.9215  -19.2579   -7.3455 C   0  0  0  0  0  0  0  0  0  0  0  0
   28.7208  -20.3753   -7.4036 C   0  0  0  0  0  0  0  0  0  0  0  0
   28.3961  -21.4275   -8.2321 C   0  0  0  0  0  0  0  0  0  0  0  0
   27.2691  -21.3885   -9.0194 C   0  0  0  0  0  0  0  0  0  0  0  0
   24.1616  -20.5556  -11.9240 C   0  0  0  0  0  0  0  0  0  0  0  0
   23.8764  -19.3726  -12.2401 O   0  0  0  0  0  0  0  0  0  0  0  0
   21.5097  -23.5980  -13.2939 O   0  0  0  0  0  0  0  0  0  0  0  0
   21.8349  -22.4824  -14.0554 C   0  0  0  0  0  0  0  0  0  0  0  0
   22.1474  -21.2849  -13.1559 C   0  0  2  0  0  0  0  0  0  0  0  0
   23.2688  -21.5795  -12.2894 N   0  0  0  0  0  0  0  0  0  0  0  0
   20.9438  -20.8884  -12.3817 C   0  0  0  0  0  0  0  0  0  0  0  0
   19.8257  -20.3980  -13.0380 O   0  0  0  0  0  0  0  0  0  0  0  0
   20.8822  -20.9757  -11.1279 O   0  0  0  0  0  0  0  0  0  0  0  0
  1  2  1  0
  3  2  1  0
  3  4  2  0
  5  3  1  0
  6  5  1  0
  6 14  1  0
  6  7  1  1
  8  7  1  0
  9  8  2  0
 10  9  1  0
 11 10  2  0
 11 12  1  0
 12 13  2  0
 13  8  1  0
 14 19  1  0
 15 14  2  0
 17 16  1  0
 18 17  1  1
 18 20  1  0
 19 18  1  0
 20 22  2  0
 20 21  1  0
M  END
$$$$
