GFS.pdb
     RDKit          3D

 22 22  0  0  1  0  0  0  0  0999 V2000
   31.4581  -22.1955  -10.0180 N   0  0  0  0  0  0  0  0  0  0  0  0
   30.7758  -20.9518   -9.8277 C   0  0  0  0  0  0  0  0  0  0  0  0
   29.3643  -21.2202   -9.4524 C   0  0  0  0  0  0  0  0  0  0  0  0
   28.9124  -22.4069   -9.4226 O   0  0  0  0  0  0  0  0  0  0  0  0
   28.4623  -20.1604   -9.1115 N   0  0  0  0  0  0  0  0  0  0  0  0
   27.1098  -20.3959   -8.7398 C   0  0  1  0  0  0  0  0  0  0  0  0
   26.6580  -19.5854   -7.5505 C   0  0  0  0  0  0  0  0  0  0  0  0
   27.5387  -19.7100   -6.3830 C   0  0  0  0  0  0  0  0  0  0  0  0
   27.4219  -20.8003   -5.5616 C   0  0  0  0  0  0  0  0  0  0  0  0
   28.2157  -20.9763   -4.4495 C   0  0  0  0  0  0  0  0  0  0  0  0
   29.1501  -20.0038   -4.1814 C   0  0  0  0  0  0  0  0  0  0  0  0
   29.2736  -18.9043   -5.0028 C   0  0  0  0  0  0  0  0  0  0  0  0
   28.4692  -18.7508   -6.1078 C   0  0  0  0  0  0  0  0  0  0  0  0
   26.1262  -20.1981   -9.8323 C   0  0  0  0  0  0  0  0  0  0  0  0
   25.9105  -19.0113  -10.1867 O   0  0  0  0  0  0  0  0  0  0  0  0
   26.0795  -21.7936  -13.2521 O   0  0  0  0  0  0  0  0  0  0  0  0
   24.7888  -21.9078  -12.7508 C   0  0  0  0  0  0  0  0  0  0  0  0
   24.5631  -20.9190  -11.6054 C   0  0  2  0  0  0  0  0  0  0  0  0
   25.4297  -21.2294  -10.4882 N   0  0  0  0  0  0  0  0  0  0  0  0
   23.1333  -20.9052  -11.2048 C   0  0  0  0  0  0  0  0  0  0  0  0
   22.1511  -20.6311  -12.1436 O   0  0  0  0  0  0  0  0  0  0  0  0
   22.7545  -21.1354  -10.0270 O   0  0  0  0  0  0  0  0  0  0  0  0
  1  2  1  0
  3  2  1  0
  3  4  2  0
  5  3  1  0
  6  5  1  0
  6 14  1  0
  6  7  1  1
  8  7  1  0
  9  8  2  0
 10  9  1  0
 11 10  2  0
 11 12  1  0
 12 13  2  0
 13  8  1  0
 14 19  1  0
 15 14  2  0
 17 16  1  0
 18 17  1  6
 18 20  1  0
 19 18  1  0
 20 22  2  0
 20 21  1  0
M  END
$$$$
