GFS.pdb
     RDKit          3D

 22 22  0  0  1  0  0  0  0  0999 V2000
   31.3375  -22.3015  -10.3690 N   0  0  0  0  0  0  0  0  0  0  0  0
   30.6705  -21.0467  -10.1986 C   0  0  0  0  0  0  0  0  0  0  0  0
   29.2984  -21.2875   -9.6841 C   0  0  0  0  0  0  0  0  0  0  0  0
   28.7976  -22.4548   -9.6853 O   0  0  0  0  0  0  0  0  0  0  0  0
   28.4905  -20.2219   -9.1696 N   0  0  0  0  0  0  0  0  0  0  0  0
   27.1149  -20.3899   -8.8496 C   0  0  1  0  0  0  0  0  0  0  0  0
   26.6602  -19.5608   -7.6742 C   0  0  0  0  0  0  0  0  0  0  0  0
   27.4870  -19.7355   -6.4742 C   0  0  0  0  0  0  0  0  0  0  0  0
   27.2782  -20.8186   -5.6615 C   0  0  0  0  0  0  0  0  0  0  0  0
   28.0175  -21.0397   -4.5203 C   0  0  0  0  0  0  0  0  0  0  0  0
   28.9935  -20.1211   -4.2133 C   0  0  0  0  0  0  0  0  0  0  0  0
   29.2095  -19.0292   -5.0258 C   0  0  0  0  0  0  0  0  0  0  0  0
   28.4580  -18.8299   -6.1604 C   0  0  0  0  0  0  0  0  0  0  0  0
   26.1840  -20.1399   -9.9770 C   0  0  0  0  0  0  0  0  0  0  0  0
   26.0154  -18.9398  -10.3115 O   0  0  0  0  0  0  0  0  0  0  0  0
   24.9462  -22.9961  -12.7207 O   0  0  0  0  0  0  0  0  0  0  0  0
   25.0504  -21.6477  -13.0389 C   0  0  0  0  0  0  0  0  0  0  0  0
   24.6848  -20.7772  -11.8351 C   0  0  2  0  0  0  0  0  0  0  0  0
   25.4885  -21.1362  -10.6860 N   0  0  0  0  0  0  0  0  0  0  0  0
   23.2323  -20.8777  -11.5431 C   0  0  0  0  0  0  0  0  0  0  0  0
   22.3031  -20.5755  -12.5263 O   0  0  0  0  0  0  0  0  0  0  0  0
   22.7869  -21.2320  -10.4207 O   0  0  0  0  0  0  0  0  0  0  0  0
  1  2  1  0
  3  2  1  0
  3  4  2  0
  5  3  1  0
  6  5  1  0
  6 14  1  0
  6  7  1  1
  8  7  1  0
  9  8  2  0
 10  9  1  0
 11 10  2  0
 11 12  1  0
 12 13  2  0
 13  8  1  0
 14 19  1  0
 15 14  2  0
 17 16  1  0
 18 17  1  6
 18 20  1  0
 19 18  1  0
 20 22  2  0
 20 21  1  0
M  END
$$$$
