GFS.pdb
     RDKit          3D

 22 22  0  0  1  0  0  0  0  0999 V2000
   23.6981  -16.2443  -20.8555 N   0  0  0  0  0  0  0  0  0  0  0  0
   24.3332  -16.2174  -19.5730 C   0  0  0  0  0  0  0  0  0  0  0  0
   24.5841  -14.8073  -19.1806 C   0  0  0  0  0  0  0  0  0  0  0  0
   24.4532  -13.8639  -20.0210 O   0  0  0  0  0  0  0  0  0  0  0  0
   24.9807  -14.4565  -17.8492 N   0  0  0  0  0  0  0  0  0  0  0  0
   25.2372  -13.1142  -17.4552 C   0  0  1  0  0  0  0  0  0  0  0  0
   24.9736  -12.8504  -15.9935 C   0  0  0  0  0  0  0  0  0  0  0  0
   25.2187  -11.4601  -15.5917 C   0  0  0  0  0  0  0  0  0  0  0  0
   24.2490  -10.5152  -15.8008 C   0  0  0  0  0  0  0  0  0  0  0  0
   24.4164   -9.1938  -15.4490 C   0  0  0  0  0  0  0  0  0  0  0  0
   25.6125   -8.8425  -14.8686 C   0  0  0  0  0  0  0  0  0  0  0  0
   26.5927   -9.7872  -14.6551 C   0  0  0  0  0  0  0  0  0  0  0  0
   26.4019  -11.1009  -15.0151 C   0  0  0  0  0  0  0  0  0  0  0  0
   26.6024  -12.6284  -17.7718 C   0  0  0  0  0  0  0  0  0  0  0  0
   27.5588  -13.3470  -17.3851 O   0  0  0  0  0  0  0  0  0  0  0  0
   27.6502  -10.7552  -20.9827 O   0  0  0  0  0  0  0  0  0  0  0  0
   28.6564  -11.2305  -20.1509 C   0  0  0  0  0  0  0  0  0  0  0  0
   28.2737  -11.0511  -18.6806 C   0  0  2  0  0  0  0  0  0  0  0  0
   26.8961  -11.4390  -18.4634 N   0  0  0  0  0  0  0  0  0  0  0  0
   28.5268   -9.6544  -18.2443 C   0  0  0  0  0  0  0  0  0  0  0  0
   29.8267   -9.1882  -18.1251 O   0  0  0  0  0  0  0  0  0  0  0  0
   27.5998   -8.8490  -17.9694 O   0  0  0  0  0  0  0  0  0  0  0  0
  1  2  1  0
  3  2  1  0
  3  4  2  0
  5  3  1  0
  6  5  1  0
  6 14  1  0
  6  7  1  1
  8  7  1  0
  9  8  2  0
 10  9  1  0
 11 10  2  0
 11 12  1  0
 12 13  2  0
 13  8  1  0
 14 19  1  0
 15 14  2  0
 17 16  1  0
 18 17  1  6
 18 20  1  0
 19 18  1  0
 20 22  2  0
 20 21  1  0
M  END
$$$$
