GFS.pdb
     RDKit          3D

 22 22  0  0  1  0  0  0  0  0999 V2000
   28.7122  -22.5920  -16.6278 N   0  0  0  0  0  0  0  0  0  0  0  0
   27.6094  -21.6796  -16.6274 C   0  0  0  0  0  0  0  0  0  0  0  0
   26.8113  -21.8769  -15.3907 C   0  0  0  0  0  0  0  0  0  0  0  0
   26.5849  -23.0428  -14.9404 O   0  0  0  0  0  0  0  0  0  0  0  0
   26.2687  -20.7695  -14.6613 N   0  0  0  0  0  0  0  0  0  0  0  0
   25.4630  -20.9376  -13.5013 C   0  0  1  0  0  0  0  0  0  0  0  0
   25.9391  -20.1414  -12.3118 C   0  0  0  0  0  0  0  0  0  0  0  0
   27.2939  -20.4936  -11.8705 C   0  0  0  0  0  0  0  0  0  0  0  0
   27.4605  -21.2749  -10.7575 C   0  0  0  0  0  0  0  0  0  0  0  0
   28.7039  -21.6394  -10.2896 C   0  0  0  0  0  0  0  0  0  0  0  0
   29.7982  -21.1860  -10.9879 C   0  0  0  0  0  0  0  0  0  0  0  0
   29.6388  -20.3997  -12.1083 C   0  0  0  0  0  0  0  0  0  0  0  0
   28.3865  -20.0489  -12.5560 C   0  0  0  0  0  0  0  0  0  0  0  0
   24.0225  -20.6470  -13.7032 C   0  0  0  0  0  0  0  0  0  0  0  0
   23.7304  -19.4816  -14.0733 O   0  0  0  0  0  0  0  0  0  0  0  0
   20.8267  -23.3726  -13.1881 O   0  0  0  0  0  0  0  0  0  0  0  0
   20.7818  -22.4109  -14.1898 C   0  0  0  0  0  0  0  0  0  0  0  0
   21.6129  -21.1862  -13.8025 C   0  0  2  0  0  0  0  0  0  0  0  0
   22.9781  -21.5699  -13.5122 N   0  0  0  0  0  0  0  0  0  0  0  0
   20.9873  -20.4737  -12.6597 C   0  0  0  0  0  0  0  0  0  0  0  0
   19.7398  -19.8873  -12.8051 O   0  0  0  0  0  0  0  0  0  0  0  0
   21.5434  -20.3706  -11.5355 O   0  0  0  0  0  0  0  0  0  0  0  0
  1  2  1  0
  3  2  1  0
  3  4  2  0
  5  3  1  0
  6  5  1  0
  6 14  1  0
  6  7  1  1
  8  7  1  0
  9  8  2  0
 10  9  1  0
 11 10  2  0
 11 12  1  0
 12 13  2  0
 13  8  1  0
 14 19  1  0
 15 14  2  0
 17 16  1  0
 18 17  1  1
 18 20  1  0
 19 18  1  0
 20 22  2  0
 20 21  1  0
M  END
$$$$
