GFS.pdb
     RDKit          3D

 22 22  0  0  1  0  0  0  0  0999 V2000
   11.9424  -14.7541    4.3780 N   0  0  0  0  0  0  0  0  0  0  0  0
   13.1561  -14.8297    5.1330 C   0  0  0  0  0  0  0  0  0  0  0  0
   13.9247  -16.0264    4.7057 C   0  0  0  0  0  0  0  0  0  0  0  0
   13.4791  -16.7979    3.8005 O   0  0  0  0  0  0  0  0  0  0  0  0
   15.1895  -16.3566    5.2924 N   0  0  0  0  0  0  0  0  0  0  0  0
   15.9666  -17.4673    4.8618 C   0  0  1  0  0  0  0  0  0  0  0  0
   17.4321  -17.1524    4.6919 C   0  0  0  0  0  0  0  0  0  0  0  0
   17.7067  -16.1790    3.6283 C   0  0  0  0  0  0  0  0  0  0  0  0
   17.8077  -16.6065    2.3305 C   0  0  0  0  0  0  0  0  0  0  0  0
   18.0656  -15.7454    1.2866 C   0  0  0  0  0  0  0  0  0  0  0  0
   18.2224  -14.4138    1.5916 C   0  0  0  0  0  0  0  0  0  0  0  0
   18.1223  -13.9761    2.8945 C   0  0  0  0  0  0  0  0  0  0  0  0
   17.8640  -14.8555    3.9200 C   0  0  0  0  0  0  0  0  0  0  0  0
   15.8509  -18.6712    5.7204 C   0  0  0  0  0  0  0  0  0  0  0  0
   15.8989  -18.4829    6.9625 O   0  0  0  0  0  0  0  0  0  0  0  0
   15.3957  -22.6486    4.3754 O   0  0  0  0  0  0  0  0  0  0  0  0
   14.7505  -22.2278    5.5316 C   0  0  0  0  0  0  0  0  0  0  0  0
   15.5117  -21.0740    6.1874 C   0  0  2  0  0  0  0  0  0  0  0  0
   15.6938  -19.9873    5.2488 N   0  0  0  0  0  0  0  0  0  0  0  0
   16.8072  -21.5507    6.7348 C   0  0  0  0  0  0  0  0  0  0  0  0
   16.8274  -22.4619    7.7791 O   0  0  0  0  0  0  0  0  0  0  0  0
   17.9181  -21.1615    6.2898 O   0  0  0  0  0  0  0  0  0  0  0  0
  1  2  1  0
  3  2  1  0
  3  4  2  0
  5  3  1  0
  6  5  1  0
  6 14  1  0
  6  7  1  1
  8  7  1  0
  9  8  2  0
 10  9  1  0
 11 10  2  0
 11 12  1  0
 12 13  2  0
 13  8  1  0
 14 19  1  0
 15 14  2  0
 17 16  1  0
 18 17  1  6
 18 20  1  0
 19 18  1  0
 20 22  2  0
 20 21  1  0
M  END
$$$$
