GFS.pdb
     RDKit          3D

 22 22  0  0  1  0  0  0  0  0999 V2000
   27.8545  -19.8670  -17.5489 N   0  0  0  0  0  0  0  0  0  0  0  0
   28.5610  -20.1342  -16.3331 C   0  0  0  0  0  0  0  0  0  0  0  0
   27.6538  -20.8242  -15.3812 C   0  0  0  0  0  0  0  0  0  0  0  0
   27.5163  -22.0866  -15.4108 O   0  0  0  0  0  0  0  0  0  0  0  0
   26.9028  -20.1002  -14.3990 N   0  0  0  0  0  0  0  0  0  0  0  0
   26.1506  -20.7474  -13.3800 C   0  0  1  0  0  0  0  0  0  0  0  0
   26.4659  -20.2562  -11.9890 C   0  0  0  0  0  0  0  0  0  0  0  0
   27.7932  -20.6580  -11.5084 C   0  0  0  0  0  0  0  0  0  0  0  0
   28.9068  -20.3032  -12.2233 C   0  0  0  0  0  0  0  0  0  0  0  0
   30.1802  -20.6502  -11.8285 C   0  0  0  0  0  0  0  0  0  0  0  0
   30.3043  -21.3798  -10.6696 C   0  0  0  0  0  0  0  0  0  0  0  0
   29.1890  -21.7406   -9.9451 C   0  0  0  0  0  0  0  0  0  0  0  0
   27.9275  -21.3821  -10.3598 C   0  0  0  0  0  0  0  0  0  0  0  0
   24.6804  -20.6887  -13.5669 C   0  0  0  0  0  0  0  0  0  0  0  0
   24.1923  -19.5620  -13.8372 O   0  0  0  0  0  0  0  0  0  0  0  0
   20.3128  -22.7687  -13.9782 O   0  0  0  0  0  0  0  0  0  0  0  0
   21.6816  -22.9454  -13.8189 C   0  0  0  0  0  0  0  0  0  0  0  0
   22.3839  -21.5988  -13.6343 C   0  0  2  0  0  0  0  0  0  0  0  0
   23.8088  -21.7882  -13.4642 N   0  0  0  0  0  0  0  0  0  0  0  0
   21.7885  -20.8539  -12.4960 C   0  0  0  0  0  0  0  0  0  0  0  0
   20.6801  -20.0463  -12.6974 O   0  0  0  0  0  0  0  0  0  0  0  0
   22.2482  -20.9179  -11.3263 O   0  0  0  0  0  0  0  0  0  0  0  0
  1  2  1  0
  3  2  1  0
  3  4  2  0
  5  3  1  0
  6  5  1  0
  6 14  1  0
  6  7  1  1
  8  7  1  0
  9  8  2  0
 10  9  1  0
 11 10  2  0
 11 12  1  0
 12 13  2  0
 13  8  1  0
 14 19  1  0
 15 14  2  0
 17 16  1  0
 18 17  1  1
 18 20  1  0
 19 18  1  0
 20 22  2  0
 20 21  1  0
M  END
$$$$
