GFS.pdb
     RDKit          3D

 22 22  0  0  1  0  0  0  0  0999 V2000
   31.1194  -22.3173  -10.3063 N   0  0  0  0  0  0  0  0  0  0  0  0
   30.5368  -21.0571   -9.9582 C   0  0  0  0  0  0  0  0  0  0  0  0
   29.1239  -21.2666   -9.5519 C   0  0  0  0  0  0  0  0  0  0  0  0
   28.5602  -22.3935   -9.7116 O   0  0  0  0  0  0  0  0  0  0  0  0
   28.3456  -20.2148   -8.9680 N   0  0  0  0  0  0  0  0  0  0  0  0
   26.9756  -20.3775   -8.6222 C   0  0  1  0  0  0  0  0  0  0  0  0
   26.5657  -19.6090   -7.3904 C   0  0  0  0  0  0  0  0  0  0  0  0
   27.4952  -19.7604   -6.2646 C   0  0  0  0  0  0  0  0  0  0  0  0
   27.4040  -20.8630   -5.4565 C   0  0  0  0  0  0  0  0  0  0  0  0
   28.2436  -21.0641   -4.3830 C   0  0  0  0  0  0  0  0  0  0  0  0
   29.1978  -20.1043   -4.1402 C   0  0  0  0  0  0  0  0  0  0  0  0
   29.2958  -18.9925   -4.9485 C   0  0  0  0  0  0  0  0  0  0  0  0
   28.4456  -18.8139   -6.0148 C   0  0  0  0  0  0  0  0  0  0  0  0
   26.0215  -20.0479   -9.7091 C   0  0  0  0  0  0  0  0  0  0  0  0
   25.8607  -18.8276   -9.9653 O   0  0  0  0  0  0  0  0  0  0  0  0
   25.0651  -22.6559  -12.6689 O   0  0  0  0  0  0  0  0  0  0  0  0
   25.0179  -21.2826  -12.8743 C   0  0  0  0  0  0  0  0  0  0  0  0
   24.5341  -20.5626  -11.6141 C   0  0  2  0  0  0  0  0  0  0  0  0
   25.2964  -20.9906  -10.4604 N   0  0  0  0  0  0  0  0  0  0  0  0
   23.0773  -20.7761  -11.4205 C   0  0  0  0  0  0  0  0  0  0  0  0
   22.1866  -20.4494  -12.4310 O   0  0  0  0  0  0  0  0  0  0  0  0
   22.5944  -21.2504  -10.3596 O   0  0  0  0  0  0  0  0  0  0  0  0
  1  2  1  0
  3  2  1  0
  3  4  2  0
  5  3  1  0
  6  5  1  0
  6 14  1  0
  6  7  1  1
  8  7  1  0
  9  8  2  0
 10  9  1  0
 11 10  2  0
 11 12  1  0
 12 13  2  0
 13  8  1  0
 14 19  1  0
 15 14  2  0
 17 16  1  0
 18 17  1  6
 18 20  1  0
 19 18  1  0
 20 22  2  0
 20 21  1  0
M  END
$$$$
