RLC.pdb
     RDKit          3D

 26 25  0  0  1  0  0  0  0  0999 V2000
    7.4180  -15.6552   17.0141 N   0  0  0  0  0  0  0  0  0  0  0  0
    8.4915  -15.1295   16.2423 C   0  0  0  0  0  0  0  0  0  0  0  0
    8.2802  -14.1036   15.4820 N   0  0  0  0  0  0  0  0  0  0  0  0
    9.7990  -15.7048   16.2833 N   0  0  0  0  0  0  0  0  0  0  0  0
    9.9546  -17.1552   16.5232 C   0  0  0  0  0  0  0  0  0  0  0  0
    9.8233  -17.4474   17.9843 C   0  0  0  0  0  0  0  0  0  0  0  0
   11.0552  -17.3459   18.8087 C   0  0  0  0  0  0  0  0  0  0  0  0
   10.8207  -17.6845   20.2342 C   0  0  2  0  0  0  0  0  0  0  0  0
    9.8822  -18.7555   20.3610 N   0  0  0  0  0  0  0  0  0  0  0  0
   10.4276  -16.4905   21.0388 C   0  0  0  0  0  0  0  0  0  0  0  0
   11.3393  -15.7746   21.5415 O   0  0  0  0  0  0  0  0  0  0  0  0
    9.0355  -13.6840   14.9091 C   0  0  0  0  0  0  0  0  0  0  0  0
    6.4426  -13.1063   19.8152 C   0  0  1  0  0  0  0  0  0  0  0  0
    7.7348  -13.6856   20.3128 C   0  0  0  0  0  0  0  0  0  0  0  0
    8.6890  -12.4793   20.4793 C   0  0  0  0  0  0  0  0  0  0  0  0
    7.5553  -14.2449   21.6655 C   0  0  2  0  0  0  0  0  0  0  0  0
    8.7785  -15.0002   22.2156 N   0  0  0  0  0  0  0  0  0  0  0  0
    9.0938  -16.0801   21.2892 C   0  0  0  0  0  0  0  0  0  0  0  0
    8.5910  -15.4531   23.5850 O   0  0  0  0  0  0  0  0  0  0  0  0
    7.6303  -15.0212   24.2741 N   0  0  0  0  0  0  0  0  0  0  0  0
    9.4528  -16.4013   24.2498 C   0  0  1  0  0  0  0  0  0  0  0  0
    9.0448  -16.9141   25.5534 C   0  0  0  0  0  0  0  0  0  0  0  0
    7.7336  -17.6416   25.4908 S   0  0  0  0  0  0  0  0  0  0  0  0
    7.3434  -18.4908   27.0599 C   0  0  0  0  0  0  0  0  0  0  0  0
   10.0647  -17.8834   26.0290 O   0  0  0  0  0  0  0  0  0  0  0  0
   11.1298  -18.2894   25.2410 O   0  0  0  0  0  0  0  0  0  0  0  0
  2  3  2  0
  2  1  1  0
  4  2  1  0
  5  4  1  0
  6  5  1  0
  7  6  1  0
  8  7  1  0
  8  9  1  6
 10 17  1  0
 10  8  1  0
 11 10  2  0
 13 12  1  6
 14 13  1  0
 15 13  1  0
 16 17  1  0
 16 15  1  6
 18 16  1  0
 19 18  2  0
 20 18  1  0
 21 24  1  0
 21 20  1  0
 21 22  1  1
 23 22  1  0
 24 25  1  0
 26 24  2  0
M  END
$$$$
