RLC.pdb
     RDKit          3D

 26 25  0  0  1  0  0  0  0  0999 V2000
    8.4700  -12.5832   18.1522 N   0  0  0  0  0  0  0  0  0  0  0  0
    8.2793  -13.5543   17.1299 C   0  0  0  0  0  0  0  0  0  0  0  0
    7.9170  -13.1666   15.9495 N   0  0  0  0  0  0  0  0  0  0  0  0
    8.4767  -14.9489   17.3717 N   0  0  0  0  0  0  0  0  0  0  0  0
    7.9070  -15.5703   18.5861 C   0  0  0  0  0  0  0  0  0  0  0  0
    8.8775  -15.4595   19.7189 C   0  0  0  0  0  0  0  0  0  0  0  0
    9.3200  -16.7256   20.3581 C   0  0  0  0  0  0  0  0  0  0  0  0
    8.4630  -17.1196   21.5035 C   0  0  2  0  0  0  0  0  0  0  0  0
    7.0806  -17.1085   21.1396 N   0  0  0  0  0  0  0  0  0  0  0  0
    8.7342  -16.2962   22.7184 C   0  0  0  0  0  0  0  0  0  0  0  0
    9.9352  -16.0603   23.0321 O   0  0  0  0  0  0  0  0  0  0  0  0
    7.7437  -13.8420   15.1823 C   0  0  0  0  0  0  0  0  0  0  0  0
    8.2925  -12.4238   26.3279 C   0  0  2  0  0  0  0  0  0  0  0  0
    7.1441  -13.3831   26.4450 C   0  0  0  0  0  0  0  0  0  0  0  0
    5.8859  -12.4992   26.6156 C   0  0  0  0  0  0  0  0  0  0  0  0
    6.9550  -14.1094   25.1756 C   0  0  1  0  0  0  0  0  0  0  0  0
    8.0735  -15.1109   24.8360 N   0  0  0  0  0  0  0  0  0  0  0  0
    7.7412  -15.7417   23.5651 C   0  0  0  0  0  0  0  0  0  0  0  0
    8.3180  -16.0655   25.9058 O   0  0  0  0  0  0  0  0  0  0  0  0
    7.4033  -16.8393   26.2919 N   0  0  0  0  0  0  0  0  0  0  0  0
    9.5800  -16.2076   26.5919 C   0  0  1  0  0  0  0  0  0  0  0  0
    9.7626  -17.3520   27.4783 C   0  0  0  0  0  0  0  0  0  0  0  0
   10.8669  -18.2567   27.0151 S   0  0  0  0  0  0  0  0  0  0  0  0
   12.3297  -17.3210   26.4492 C   0  0  0  0  0  0  0  0  0  0  0  0
   10.1338  -16.8589   28.8292 O   0  0  0  0  0  0  0  0  0  0  0  0
   10.2822  -17.7061   29.9158 O   0  0  0  0  0  0  0  0  0  0  0  0
  2  3  2  0
  2  1  1  0
  4  2  1  0
  5  4  1  0
  6  5  1  0
  7  6  1  0
  8  7  1  0
  8  9  1  6
 10 17  1  0
 10  8  1  0
 11 10  2  0
 13 12  1  1
 14 13  1  0
 15 13  1  0
 16 17  1  0
 16 15  1  6
 18 16  1  0
 19 18  2  0
 20 18  1  0
 21 24  1  0
 21 20  1  0
 21 22  1  1
 23 22  1  0
 24 25  1  0
 26 24  2  0
M  END
$$$$
