RLC.pdb
     RDKit          3D

 26 25  0  0  1  0  0  0  0  0999 V2000
    9.2321  -15.2640   17.4805 N   0  0  0  0  0  0  0  0  0  0  0  0
    8.3601  -14.4664   16.6882 C   0  0  0  0  0  0  0  0  0  0  0  0
    8.2471  -14.7185   15.4238 N   0  0  0  0  0  0  0  0  0  0  0  0
    7.6047  -13.3920   17.2514 N   0  0  0  0  0  0  0  0  0  0  0  0
    7.8041  -13.0191   18.6679 C   0  0  0  0  0  0  0  0  0  0  0  0
    8.6314  -14.0574   19.3570 C   0  0  0  0  0  0  0  0  0  0  0  0
    8.9613  -13.8218   20.7863 C   0  0  0  0  0  0  0  0  0  0  0  0
    8.5862  -14.9631   21.6571 C   0  0  2  0  0  0  0  0  0  0  0  0
    7.2285  -15.3533   21.4375 N   0  0  0  0  0  0  0  0  0  0  0  0
    8.8697  -14.6894   23.0967 C   0  0  0  0  0  0  0  0  0  0  0  0
   10.0370  -14.3348   23.4252 O   0  0  0  0  0  0  0  0  0  0  0  0
    7.6605  -14.1332   14.8008 C   0  0  0  0  0  0  0  0  0  0  0  0
    5.3659  -12.3399   26.3612 C   0  0  1  0  0  0  0  0  0  0  0  0
    6.6074  -12.7988   25.6533 C   0  0  0  0  0  0  0  0  0  0  0  0
    7.6529  -11.6839   25.8927 C   0  0  0  0  0  0  0  0  0  0  0  0
    7.1502  -14.0047   26.3060 C   0  0  2  0  0  0  0  0  0  0  0  0
    8.3078  -14.6792   25.5481 N   0  0  0  0  0  0  0  0  0  0  0  0
    7.9228  -14.7911   24.1471 C   0  0  0  0  0  0  0  0  0  0  0  0
    8.7038  -15.9477   26.1393 O   0  0  0  0  0  0  0  0  0  0  0  0
    8.9757  -16.0229   27.3659 N   0  0  0  0  0  0  0  0  0  0  0  0
    8.8143  -17.1848   25.4036 C   0  0  1  0  0  0  0  0  0  0  0  0
    9.1512  -18.4002   26.1370 C   0  0  0  0  0  0  0  0  0  0  0  0
    8.1560  -19.4986   25.9007 S   0  0  0  0  0  0  0  0  0  0  0  0
    6.4683  -19.0170   26.4060 C   0  0  0  0  0  0  0  0  0  0  0  0
   10.4716  -18.8933   25.6689 O   0  0  0  0  0  0  0  0  0  0  0  0
   11.1038  -19.9854   26.2416 O   0  0  0  0  0  0  0  0  0  0  0  0
  2  3  2  0
  2  1  1  0
  4  2  1  0
  5  4  1  0
  6  5  1  0
  7  6  1  0
  8  7  1  0
  8  9  1  1
 10 17  1  0
 10  8  1  0
 11 10  2  0
 13 12  1  6
 14 13  1  0
 15 13  1  0
 16 17  1  0
 16 15  1  6
 18 16  1  0
 19 18  2  0
 20 18  1  0
 21 24  1  0
 21 20  1  0
 21 22  1  1
 23 22  1  0
 24 25  1  0
 26 24  2  0
M  END
$$$$
