RLC.pdb
     RDKit          3D

 26 25  0  0  1  0  0  0  0  0999 V2000
    9.7947  -13.8664   17.7972 N   0  0  0  0  0  0  0  0  0  0  0  0
    8.5225  -13.4752   17.2942 C   0  0  0  0  0  0  0  0  0  0  0  0
    8.3689  -13.3155   16.0191 N   0  0  0  0  0  0  0  0  0  0  0  0
    7.4078  -13.2528   18.1604 N   0  0  0  0  0  0  0  0  0  0  0  0
    7.5757  -13.3940   19.6223 C   0  0  0  0  0  0  0  0  0  0  0  0
    7.9022  -14.8133   19.9634 C   0  0  0  0  0  0  0  0  0  0  0  0
    8.9548  -15.0389   20.9874 C   0  0  0  0  0  0  0  0  0  0  0  0
    8.5001  -15.9176   22.0932 C   0  0  2  0  0  0  0  0  0  0  0  0
    7.1184  -16.2546   21.9476 N   0  0  0  0  0  0  0  0  0  0  0  0
    8.8017  -15.3361   23.4343 C   0  0  0  0  0  0  0  0  0  0  0  0
    9.9655  -14.8957   23.6533 O   0  0  0  0  0  0  0  0  0  0  0  0
    7.5074  -12.8979   15.6212 C   0  0  0  0  0  0  0  0  0  0  0  0
    5.3801  -12.3701   26.3499 C   0  0  1  0  0  0  0  0  0  0  0  0
    6.5903  -12.9612   25.6874 C   0  0  0  0  0  0  0  0  0  0  0  0
    7.6685  -11.8529   25.7367 C   0  0  0  0  0  0  0  0  0  0  0  0
    7.1217  -14.0742   26.4960 C   0  0  2  0  0  0  0  0  0  0  0  0
    8.2873  -14.8410   25.8458 N   0  0  0  0  0  0  0  0  0  0  0  0
    7.8760  -15.2296   24.5029 C   0  0  0  0  0  0  0  0  0  0  0  0
    8.7449  -15.9602   26.6541 O   0  0  0  0  0  0  0  0  0  0  0  0
    9.0873  -15.7841   27.8525 N   0  0  0  0  0  0  0  0  0  0  0  0
    8.8416  -17.3188   26.1758 C   0  0  1  0  0  0  0  0  0  0  0  0
    9.3380  -18.3422   27.0895 C   0  0  0  0  0  0  0  0  0  0  0  0
    8.4035  -19.5122   27.1910 S   0  0  0  0  0  0  0  0  0  0  0  0
    6.6532  -18.9922   27.2295 C   0  0  0  0  0  0  0  0  0  0  0  0
   10.6339  -18.8560   26.5772 O   0  0  0  0  0  0  0  0  0  0  0  0
   11.2153  -18.3796   25.4130 O   0  0  0  0  0  0  0  0  0  0  0  0
  2  3  2  0
  2  1  1  0
  4  2  1  0
  5  4  1  0
  6  5  1  0
  7  6  1  0
  8  7  1  0
  8  9  1  1
 10 17  1  0
 10  8  1  0
 11 10  2  0
 13 12  1  6
 14 13  1  0
 15 13  1  0
 16 17  1  0
 16 15  1  6
 18 16  1  0
 19 18  2  0
 20 18  1  0
 21 24  1  0
 21 20  1  0
 21 22  1  1
 23 22  1  0
 24 25  1  0
 26 24  2  0
M  END
$$$$
