RLC.pdb
     RDKit          3D

 26 25  0  0  1  0  0  0  0  0999 V2000
    8.2772  -14.9570   16.9171 N   0  0  0  0  0  0  0  0  0  0  0  0
    8.0968  -13.7349   17.6231 C   0  0  0  0  0  0  0  0  0  0  0  0
    8.5242  -12.6323   17.0973 N   0  0  0  0  0  0  0  0  0  0  0  0
    7.4560  -13.6919   18.8997 N   0  0  0  0  0  0  0  0  0  0  0  0
    7.2242  -14.9466   19.6464 C   0  0  0  0  0  0  0  0  0  0  0  0
    8.5172  -15.6751   19.8333 C   0  0  0  0  0  0  0  0  0  0  0  0
    9.3337  -15.3121   21.0202 C   0  0  0  0  0  0  0  0  0  0  0  0
    9.0140  -16.1383   22.2105 C   0  0  2  0  0  0  0  0  0  0  0  0
    7.6770  -16.6400   22.1446 N   0  0  0  0  0  0  0  0  0  0  0  0
    9.2835  -15.4138   23.4872 C   0  0  0  0  0  0  0  0  0  0  0  0
   10.4568  -15.0025   23.7119 O   0  0  0  0  0  0  0  0  0  0  0  0
    8.4805  -11.7311   17.6080 C   0  0  0  0  0  0  0  0  0  0  0  0
    5.3947  -12.6064   26.2027 C   0  0  1  0  0  0  0  0  0  0  0  0
    6.6963  -12.9946   25.5640 C   0  0  0  0  0  0  0  0  0  0  0  0
    7.5628  -11.7132   25.5849 C   0  0  0  0  0  0  0  0  0  0  0  0
    7.4066  -13.9731   26.4082 C   0  0  2  0  0  0  0  0  0  0  0  0
    8.6802  -14.5623   25.7756 N   0  0  0  0  0  0  0  0  0  0  0  0
    8.3168  -15.1383   24.4872 C   0  0  0  0  0  0  0  0  0  0  0  0
    9.3625  -15.5001   26.6534 O   0  0  0  0  0  0  0  0  0  0  0  0
    9.5407  -15.2230   27.8682 N   0  0  0  0  0  0  0  0  0  0  0  0
    9.8740  -16.7815   26.2290 C   0  0  1  0  0  0  0  0  0  0  0  0
   10.5609  -17.6138   27.2109 C   0  0  0  0  0  0  0  0  0  0  0  0
    9.6108  -18.4887   27.9754 S   0  0  0  0  0  0  0  0  0  0  0  0
   10.3858  -19.2073   29.4649 C   0  0  0  0  0  0  0  0  0  0  0  0
   11.5109  -18.5085   26.5018 O   0  0  0  0  0  0  0  0  0  0  0  0
   12.4808  -19.2413   27.1671 O   0  0  0  0  0  0  0  0  0  0  0  0
  2  3  2  0
  2  1  1  0
  4  2  1  0
  5  4  1  0
  6  5  1  0
  7  6  1  0
  8  7  1  0
  8  9  1  6
 10 17  1  0
 10  8  1  0
 11 10  2  0
 13 12  1  6
 14 13  1  0
 15 13  1  0
 16 17  1  0
 16 15  1  6
 18 16  1  0
 19 18  2  0
 20 18  1  0
 21 24  1  0
 21 20  1  0
 21 22  1  1
 23 22  1  0
 24 25  1  0
 26 24  2  0
M  END
$$$$
