RLC.pdb
     RDKit          3D

 26 25  0  0  1  0  0  0  0  0999 V2000
    9.1781  -15.0194   16.5492 N   0  0  0  0  0  0  0  0  0  0  0  0
    8.2717  -13.9228   16.5301 C   0  0  0  0  0  0  0  0  0  0  0  0
    7.7021  -13.5930   15.4158 N   0  0  0  0  0  0  0  0  0  0  0  0
    7.9732  -13.1738   17.7100 N   0  0  0  0  0  0  0  0  0  0  0  0
    7.3356  -13.8449   18.8627 C   0  0  0  0  0  0  0  0  0  0  0  0
    8.3046  -14.7862   19.5047 C   0  0  0  0  0  0  0  0  0  0  0  0
    8.8407  -14.4026   20.8362 C   0  0  0  0  0  0  0  0  0  0  0  0
    8.6670  -15.4689   21.8532 C   0  0  2  0  0  0  0  0  0  0  0  0
    7.3308  -15.9769   21.8430 N   0  0  0  0  0  0  0  0  0  0  0  0
    9.0921  -15.0241   23.2130 C   0  0  0  0  0  0  0  0  0  0  0  0
   10.2778  -14.6175   23.3719 O   0  0  0  0  0  0  0  0  0  0  0  0
    7.0433  -12.7948   15.3549 C   0  0  0  0  0  0  0  0  0  0  0  0
    5.5617  -12.4680   26.3681 C   0  0  1  0  0  0  0  0  0  0  0  0
    6.8187  -12.8563   25.6456 C   0  0  0  0  0  0  0  0  0  0  0  0
    7.7296  -11.6073   25.7050 C   0  0  0  0  0  0  0  0  0  0  0  0
    7.5318  -13.9089   26.3927 C   0  0  2  0  0  0  0  0  0  0  0  0
    8.7338  -14.5208   25.6510 N   0  0  0  0  0  0  0  0  0  0  0  0
    8.2631  -15.0145   24.3632 C   0  0  0  0  0  0  0  0  0  0  0  0
    9.4250  -15.5308   26.4368 O   0  0  0  0  0  0  0  0  0  0  0  0
    9.6758  -15.3311   27.6540 N   0  0  0  0  0  0  0  0  0  0  0  0
    9.8660  -16.8021   25.9143 C   0  0  1  0  0  0  0  0  0  0  0  0
   10.5916  -17.7034   26.8031 C   0  0  0  0  0  0  0  0  0  0  0  0
    9.6845  -18.7018   27.4609 S   0  0  0  0  0  0  0  0  0  0  0  0
   10.4726  -19.5015   28.9013 C   0  0  0  0  0  0  0  0  0  0  0  0
   11.5846  -18.4678   26.0058 O   0  0  0  0  0  0  0  0  0  0  0  0
   12.6138  -19.1874   26.5915 O   0  0  0  0  0  0  0  0  0  0  0  0
  2  3  2  0
  2  1  1  0
  4  2  1  0
  5  4  1  0
  6  5  1  0
  7  6  1  0
  8  7  1  0
  8  9  1  1
 10 17  1  0
 10  8  1  0
 11 10  2  0
 13 12  1  6
 14 13  1  0
 15 13  1  0
 16 17  1  0
 16 15  1  6
 18 16  1  0
 19 18  2  0
 20 18  1  0
 21 24  1  0
 21 20  1  0
 21 22  1  6
 23 22  1  0
 24 25  1  0
 26 24  2  0
M  END
$$$$
