RLC.pdb
     RDKit          3D

 26 25  0  0  1  0  0  0  0  0999 V2000
    8.7251  -12.7590   18.1371 N   0  0  0  0  0  0  0  0  0  0  0  0
    8.3507  -13.6496   17.0925 C   0  0  0  0  0  0  0  0  0  0  0  0
    7.9651  -13.1645   15.9563 N   0  0  0  0  0  0  0  0  0  0  0  0
    8.3882  -15.0678   17.2644 N   0  0  0  0  0  0  0  0  0  0  0  0
    7.9397  -15.6638   18.5407 C   0  0  0  0  0  0  0  0  0  0  0  0
    7.5086  -14.5855   19.4834 C   0  0  0  0  0  0  0  0  0  0  0  0
    8.3356  -14.3792   20.7004 C   0  0  0  0  0  0  0  0  0  0  0  0
    8.4832  -15.6142   21.5094 C   0  0  2  0  0  0  0  0  0  0  0  0
    7.2884  -16.3983   21.4742 N   0  0  0  0  0  0  0  0  0  0  0  0
    8.9273  -15.3233   22.9043 C   0  0  0  0  0  0  0  0  0  0  0  0
   10.1055  -14.9056   23.0880 O   0  0  0  0  0  0  0  0  0  0  0  0
    7.6877  -13.7770   15.1672 C   0  0  0  0  0  0  0  0  0  0  0  0
    6.1444  -12.4638   26.4829 C   0  0  1  0  0  0  0  0  0  0  0  0
    7.2392  -13.0919   25.6706 C   0  0  0  0  0  0  0  0  0  0  0  0
    8.5016  -12.2451   25.9577 C   0  0  0  0  0  0  0  0  0  0  0  0
    7.5390  -14.4438   26.1778 C   0  0  2  0  0  0  0  0  0  0  0  0
    8.6346  -15.1936   25.3989 N   0  0  0  0  0  0  0  0  0  0  0  0
    8.1242  -15.4741   24.0630 C   0  0  0  0  0  0  0  0  0  0  0  0
    9.1081  -16.3798   26.0949 O   0  0  0  0  0  0  0  0  0  0  0  0
    8.3140  -17.3158   26.3735 N   0  0  0  0  0  0  0  0  0  0  0  0
   10.4754  -16.5836   26.5103 C   0  0  1  0  0  0  0  0  0  0  0  0
   10.8250  -17.8473   27.1501 C   0  0  0  0  0  0  0  0  0  0  0  0
   12.2516  -18.2365   26.8935 S   0  0  0  0  0  0  0  0  0  0  0  0
   12.7040  -18.0662   25.1323 C   0  0  0  0  0  0  0  0  0  0  0  0
   10.6650  -17.7021   28.6196 O   0  0  0  0  0  0  0  0  0  0  0  0
   10.9574  -18.7273   29.5048 O   0  0  0  0  0  0  0  0  0  0  0  0
  2  3  2  0
  2  1  1  0
  4  2  1  0
  5  4  1  0
  6  5  1  0
  7  6  1  0
  8  7  1  0
  8  9  1  1
 10 17  1  0
 10  8  1  0
 11 10  2  0
 13 12  1  6
 14 13  1  0
 15 13  1  0
 16 17  1  0
 16 15  1  6
 18 16  1  0
 19 18  2  0
 20 18  1  0
 21 24  1  0
 21 20  1  0
 21 22  1  1
 23 22  1  0
 24 25  1  0
 26 24  2  0
M  END
$$$$
