RLC.pdb
     RDKit          3D

 26 25  0  0  1  0  0  0  0  0999 V2000
    9.0749  -11.1010   19.2625 N   0  0  0  0  0  0  0  0  0  0  0  0
    8.7644  -12.4576   18.9664 C   0  0  0  0  0  0  0  0  0  0  0  0
    9.5744  -13.1444   18.2266 N   0  0  0  0  0  0  0  0  0  0  0  0
    7.5800  -13.0835   19.4641 N   0  0  0  0  0  0  0  0  0  0  0  0
    7.3178  -14.5056   19.1570 C   0  0  0  0  0  0  0  0  0  0  0  0
    7.9721  -15.3775   20.1812 C   0  0  0  0  0  0  0  0  0  0  0  0
    7.1279  -15.8471   21.3100 C   0  0  0  0  0  0  0  0  0  0  0  0
    7.8315  -16.8135   22.1889 C   0  0  2  0  0  0  0  0  0  0  0  0
    6.9852  -17.9163   22.5224 N   0  0  0  0  0  0  0  0  0  0  0  0
    8.4076  -16.1571   23.3993 C   0  0  0  0  0  0  0  0  0  0  0  0
    9.6261  -15.8233   23.3826 O   0  0  0  0  0  0  0  0  0  0  0  0
    9.4030  -14.1441   18.0121 C   0  0  0  0  0  0  0  0  0  0  0  0
    5.8442  -12.3790   26.5616 C   0  0  1  0  0  0  0  0  0  0  0  0
    6.8718  -13.1250   25.7612 C   0  0  0  0  0  0  0  0  0  0  0  0
    8.1394  -12.2388   25.7917 C   0  0  0  0  0  0  0  0  0  0  0  0
    7.2412  -14.3774   26.4467 C   0  0  2  0  0  0  0  0  0  0  0  0
    8.3178  -15.2098   25.7273 N   0  0  0  0  0  0  0  0  0  0  0  0
    7.6908  -15.8666   24.5875 C   0  0  0  0  0  0  0  0  0  0  0  0
    9.0035  -16.1329   26.6179 O   0  0  0  0  0  0  0  0  0  0  0  0
    8.3836  -17.0968   27.1383 N   0  0  0  0  0  0  0  0  0  0  0  0
   10.4000  -16.0328   26.9694 C   0  0  1  0  0  0  0  0  0  0  0  0
   10.9670  -17.0452   27.8538 C   0  0  0  0  0  0  0  0  0  0  0  0
   12.3984  -17.3503   27.5211 S   0  0  0  0  0  0  0  0  0  0  0  0
   12.6170  -17.7847   25.7607 C   0  0  0  0  0  0  0  0  0  0  0  0
   10.9373  -16.5357   29.2485 O   0  0  0  0  0  0  0  0  0  0  0  0
   11.4343  -17.2641   30.3175 O   0  0  0  0  0  0  0  0  0  0  0  0
  2  3  2  0
  2  1  1  0
  4  2  1  0
  5  4  1  0
  6  5  1  0
  7  6  1  0
  8  7  1  0
  8  9  1  1
 10 17  1  0
 10  8  1  0
 11 10  2  0
 13 12  1  6
 14 13  1  0
 15 13  1  0
 16 17  1  0
 16 15  1  6
 18 16  1  0
 19 18  2  0
 20 18  1  0
 21 24  1  0
 21 20  1  0
 21 22  1  1
 23 22  1  0
 24 25  1  0
 26 24  2  0
M  END
$$$$
