RLC.pdb
     RDKit          3D

 26 25  0  0  1  0  0  0  0  0999 V2000
    9.4633  -13.7491   17.3089 N   0  0  0  0  0  0  0  0  0  0  0  0
    8.0620  -13.6106   17.5130 C   0  0  0  0  0  0  0  0  0  0  0  0
    7.2524  -13.8699   16.5371 N   0  0  0  0  0  0  0  0  0  0  0  0
    7.5231  -13.1916   18.7685 N   0  0  0  0  0  0  0  0  0  0  0  0
    8.4345  -12.8734   19.8881 C   0  0  0  0  0  0  0  0  0  0  0  0
    8.2589  -13.8716   20.9881 C   0  0  0  0  0  0  0  0  0  0  0  0
    9.2000  -15.0209   21.0165 C   0  0  0  0  0  0  0  0  0  0  0  0
    8.9667  -15.9247   22.1699 C   0  0  2  0  0  0  0  0  0  0  0  0
    7.6715  -16.5256   22.0989 N   0  0  0  0  0  0  0  0  0  0  0  0
    9.2023  -15.2423   23.4762 C   0  0  0  0  0  0  0  0  0  0  0  0
   10.3210  -14.6900   23.6756 O   0  0  0  0  0  0  0  0  0  0  0  0
    6.2242  -13.7953   16.6464 C   0  0  0  0  0  0  0  0  0  0  0  0
    5.5383  -12.5105   26.0018 C   0  0  1  0  0  0  0  0  0  0  0  0
    6.8567  -12.9924   25.4704 C   0  0  0  0  0  0  0  0  0  0  0  0
    7.7505  -11.7326   25.3845 C   0  0  0  0  0  0  0  0  0  0  0  0
    7.5079  -13.8802   26.4514 C   0  0  2  0  0  0  0  0  0  0  0  0
    8.6416  -14.7492   25.8778 N   0  0  0  0  0  0  0  0  0  0  0  0
    8.2593  -15.1550   24.5314 C   0  0  0  0  0  0  0  0  0  0  0  0
    8.9841  -15.8687   26.7409 O   0  0  0  0  0  0  0  0  0  0  0  0
    9.3286  -15.6715   27.9353 N   0  0  0  0  0  0  0  0  0  0  0  0
    8.9591  -17.2504   26.3237 C   0  0  1  0  0  0  0  0  0  0  0  0
    9.3812  -18.2707   27.2774 C   0  0  0  0  0  0  0  0  0  0  0  0
    8.4179  -19.4198   27.3410 S   0  0  0  0  0  0  0  0  0  0  0  0
    6.6940  -18.8595   27.5640 C   0  0  0  0  0  0  0  0  0  0  0  0
   10.6928  -18.8181   26.8461 O   0  0  0  0  0  0  0  0  0  0  0  0
   11.3649  -19.7934   27.5653 O   0  0  0  0  0  0  0  0  0  0  0  0
  2  3  2  0
  2  1  1  0
  4  2  1  0
  5  4  1  0
  6  5  1  0
  7  6  1  0
  8  7  1  0
  8  9  1  1
 10 17  1  0
 10  8  1  0
 11 10  2  0
 13 12  1  6
 14 13  1  0
 15 13  1  0
 16 17  1  0
 16 15  1  6
 18 16  1  0
 19 18  2  0
 20 18  1  0
 21 24  1  0
 21 20  1  0
 21 22  1  1
 23 22  1  0
 24 25  1  0
 26 24  2  0
M  END
$$$$
