RLC.pdb
     RDKit          3D

 26 25  0  0  1  0  0  0  0  0999 V2000
   10.1972  -13.8695   15.7189 N   0  0  0  0  0  0  0  0  0  0  0  0
    8.7771  -13.9580   15.7062 C   0  0  0  0  0  0  0  0  0  0  0  0
    8.1618  -14.0842   14.5746 N   0  0  0  0  0  0  0  0  0  0  0  0
    8.0103  -13.9106   16.9112 N   0  0  0  0  0  0  0  0  0  0  0  0
    8.6997  -13.8940   18.2188 C   0  0  0  0  0  0  0  0  0  0  0  0
    7.6940  -13.8443   19.3249 C   0  0  0  0  0  0  0  0  0  0  0  0
    8.2171  -13.7485   20.7122 C   0  0  0  0  0  0  0  0  0  0  0  0
    8.2318  -15.0572   21.4111 C   0  0  2  0  0  0  0  0  0  0  0  0
    6.9713  -15.7204   21.2881 N   0  0  0  0  0  0  0  0  0  0  0  0
    8.6675  -14.9309   22.8330 C   0  0  0  0  0  0  0  0  0  0  0  0
    9.9002  -14.8002   23.0772 O   0  0  0  0  0  0  0  0  0  0  0  0
    7.1315  -14.1864   14.5220 C   0  0  0  0  0  0  0  0  0  0  0  0
    5.7101  -12.3930   26.6490 C   0  0  1  0  0  0  0  0  0  0  0  0
    6.8456  -12.8869   25.8007 C   0  0  0  0  0  0  0  0  0  0  0  0
    8.0501  -11.9852   26.1607 C   0  0  0  0  0  0  0  0  0  0  0  0
    7.2300  -14.2513   26.2076 C   0  0  2  0  0  0  0  0  0  0  0  0
    8.3046  -14.9069   25.3216 N   0  0  0  0  0  0  0  0  0  0  0  0
    7.8004  -14.9410   23.9547 C   0  0  0  0  0  0  0  0  0  0  0  0
    8.7212  -16.2105   25.8141 O   0  0  0  0  0  0  0  0  0  0  0  0
    7.9461  -17.1992   25.7374 N   0  0  0  0  0  0  0  0  0  0  0  0
   10.0090  -16.4779   26.4089 C   0  0  1  0  0  0  0  0  0  0  0  0
   10.3024  -17.8389   26.8452 C   0  0  0  0  0  0  0  0  0  0  0  0
   11.5192  -18.4004   26.1694 S   0  0  0  0  0  0  0  0  0  0  0  0
   12.8093  -17.1332   25.9137 C   0  0  0  0  0  0  0  0  0  0  0  0
   10.5745  -17.8273   28.3052 O   0  0  0  0  0  0  0  0  0  0  0  0
   10.8187  -18.9854   29.0259 O   0  0  0  0  0  0  0  0  0  0  0  0
  2  3  2  0
  2  1  1  0
  4  2  1  0
  5  4  1  0
  6  5  1  0
  7  6  1  0
  8  7  1  0
  8  9  1  1
 10 17  1  0
 10  8  1  0
 11 10  2  0
 13 12  1  6
 14 13  1  0
 15 13  1  0
 16 17  1  0
 16 15  1  6
 18 16  1  0
 19 18  2  0
 20 18  1  0
 21 24  1  0
 21 20  1  0
 21 22  1  1
 23 22  1  0
 24 25  1  0
 26 24  2  0
M  END
$$$$
