RLC.pdb
     RDKit          3D

 26 25  0  0  1  0  0  0  0  0999 V2000
   11.1418  -18.8124   18.5371 N   0  0  0  0  0  0  0  0  0  0  0  0
   10.9638  -19.4390   19.8020 C   0  0  0  0  0  0  0  0  0  0  0  0
   12.0026  -19.8495   20.4558 N   0  0  0  0  0  0  0  0  0  0  0  0
    9.6667  -19.6284   20.3711 N   0  0  0  0  0  0  0  0  0  0  0  0
    8.4661  -19.2184   19.6122 C   0  0  0  0  0  0  0  0  0  0  0  0
    8.2120  -17.7577   19.8097 C   0  0  0  0  0  0  0  0  0  0  0  0
    7.3781  -17.3667   20.9755 C   0  0  0  0  0  0  0  0  0  0  0  0
    7.1241  -15.9061   21.0348 C   0  0  2  0  0  0  0  0  0  0  0  0
    7.4934  -15.2695   19.8093 N   0  0  0  0  0  0  0  0  0  0  0  0
    7.7718  -15.2700   22.2196 C   0  0  0  0  0  0  0  0  0  0  0  0
    9.0333  -15.2140   22.2603 O   0  0  0  0  0  0  0  0  0  0  0  0
   11.9220  -20.2727   21.3988 C   0  0  0  0  0  0  0  0  0  0  0  0
    8.4731  -11.7828   26.2044 C   0  0  2  0  0  0  0  0  0  0  0  0
    7.3786  -12.7557   26.5336 C   0  0  0  0  0  0  0  0  0  0  0  0
    6.2473  -11.9055   27.1586 C   0  0  0  0  0  0  0  0  0  0  0  0
    6.8147  -13.3265   25.2962 C   0  0  1  0  0  0  0  0  0  0  0  0
    7.7762  -14.2385   24.5134 N   0  0  0  0  0  0  0  0  0  0  0  0
    7.0800  -14.7088   23.3226 C   0  0  0  0  0  0  0  0  0  0  0  0
    8.3172  -15.3160   25.3269 O   0  0  0  0  0  0  0  0  0  0  0  0
    7.5534  -16.1796   25.8320 N   0  0  0  0  0  0  0  0  0  0  0  0
    9.7213  -15.4869   25.6151 C   0  0  1  0  0  0  0  0  0  0  0  0
   10.1299  -16.6342   26.4184 C   0  0  0  0  0  0  0  0  0  0  0  0
   11.5272  -17.0799   26.0998 S   0  0  0  0  0  0  0  0  0  0  0  0
   11.7564  -17.4001   24.3164 C   0  0  0  0  0  0  0  0  0  0  0  0
   10.1059  -16.2495   27.8527 O   0  0  0  0  0  0  0  0  0  0  0  0
   10.4152  -17.1410   28.8675 O   0  0  0  0  0  0  0  0  0  0  0  0
  2  3  2  0
  2  1  1  0
  4  2  1  0
  5  4  1  0
  6  5  1  0
  7  6  1  0
  8  7  1  0
  8  9  1  6
 10 17  1  0
 10  8  1  0
 11 10  2  0
 13 12  1  1
 14 13  1  0
 15 13  1  0
 16 17  1  0
 16 15  1  6
 18 16  1  0
 19 18  2  0
 20 18  1  0
 21 24  1  0
 21 20  1  0
 21 22  1  1
 23 22  1  0
 24 25  1  0
 26 24  2  0
M  END
$$$$
