KEQ.pdb
     RDKit          3D

 28 27  0  0  1  0  0  0  0  0999 V2000
    8.9502  -17.4163   19.0492 N   0  0  0  0  0  0  0  0  0  0  0  0
    7.9256  -17.4488   20.0152 C   0  0  1  0  0  0  0  0  0  0  0  0
    6.6825  -18.1593   19.6947 C   0  0  0  0  0  0  0  0  0  0  0  0
    5.6280  -18.2560   20.6939 C   0  0  0  0  0  0  0  0  0  0  0  0
    4.4875  -17.3646   20.8487 C   0  0  0  0  0  0  0  0  0  0  0  0
    3.4145  -17.6002   21.8204 C   0  0  0  0  0  0  0  0  0  0  0  0
    2.8079  -18.9124   21.7940 N   0  0  0  0  0  0  0  0  0  0  0  0
    8.5364  -17.9454   21.3071 C   0  0  0  0  0  0  0  0  0  0  0  0
    7.9967  -18.9157   21.8672 O   0  0  0  0  0  0  0  0  0  0  0  0
    9.6613  -17.3410   21.8516 N   0  0  0  0  0  0  0  0  0  0  0  0
   10.3107  -17.7810   23.0949 C   0  0  1  0  0  0  0  0  0  0  0  0
   11.6914  -18.2398   22.8476 C   0  0  0  0  0  0  0  0  0  0  0  0
   12.6218  -17.1447   22.4358 C   0  0  0  0  0  0  0  0  0  0  0  0
   14.0242  -17.5459   22.2585 C   0  0  0  0  0  0  0  0  0  0  0  0
   14.3003  -18.2340   21.2425 O   0  0  0  0  0  0  0  0  0  0  0  0
   10.2794  -16.6429   24.0521 C   0  0  0  0  0  0  0  0  0  0  0  0
   10.8865  -15.5826   23.8063 O   0  0  0  0  0  0  0  0  0  0  0  0
   15.0712  -17.2369   23.1072 O   0  0  0  0  0  0  0  0  0  0  0  0
    5.7452  -13.6178   25.9665 N   0  0  0  0  0  0  0  0  0  0  0  0
    6.8953  -12.9115   26.4347 C   0  0  0  0  0  0  0  0  0  0  0  0
    6.7460  -11.6780   26.7113 O   0  0  0  0  0  0  0  0  0  0  0  0
    8.2093  -13.5345   26.6127 C   0  0  0  0  0  0  0  0  0  0  0  0
    8.2592  -14.9311   26.1463 C   0  0  0  0  0  0  0  0  0  0  0  0
    9.5917  -15.5730   26.2214 C   0  0  2  0  0  0  0  0  0  0  0  0
    9.5670  -16.7180   25.2663 N   0  0  0  0  0  0  0  0  0  0  0  0
   10.0900  -16.0377   27.4904 C   0  0  0  0  0  0  0  0  0  0  0  0
   11.0261  -17.0784   27.6131 O   0  0  0  0  0  0  0  0  0  0  0  0
    9.6725  -15.5046   28.5593 O   0  0  0  0  0  0  0  0  0  0  0  0
  2  1  1  6
  2  3  1  0
  4  3  1  0
  4  5  1  0
  6  5  1  0
  7  6  1  0
  8  2  1  0
  8  9  2  0
 10  8  1  0
 11 10  1  0
 11 12  1  6
 13 12  1  0
 13 14  1  0
 14 15  2  0
 16 11  1  0
 17 16  2  0
 18 14  1  0
 19 20  1  0
 20 21  2  0
 22 20  1  0
 22 23  1  0
 24 23  1  1
 24 25  1  0
 24 26  1  0
 25 16  1  0
 26 27  1  0
 28 26  2  0
M  END
$$$$
