KEQ.pdb
     RDKit          3D

 28 27  0  0  1  0  0  0  0  0999 V2000
    5.8434  -16.4210   21.9686 N   0  0  0  0  0  0  0  0  0  0  0  0
    7.0863  -15.7696   21.8475 C   0  0  1  0  0  0  0  0  0  0  0  0
    7.1285  -14.3093   21.9845 C   0  0  0  0  0  0  0  0  0  0  0  0
    7.1485  -13.4727   20.7931 C   0  0  0  0  0  0  0  0  0  0  0  0
    8.2231  -13.3700   19.8164 C   0  0  0  0  0  0  0  0  0  0  0  0
    8.1656  -12.4760   18.6553 C   0  0  0  0  0  0  0  0  0  0  0  0
    9.3086  -12.5069   17.7702 N   0  0  0  0  0  0  0  0  0  0  0  0
    8.0483  -16.4484   22.7975 C   0  0  0  0  0  0  0  0  0  0  0  0
    7.6142  -16.7981   23.9090 O   0  0  0  0  0  0  0  0  0  0  0  0
    9.3713  -16.6751   22.4435 N   0  0  0  0  0  0  0  0  0  0  0  0
   10.3443  -17.3691   23.2994 C   0  0  1  0  0  0  0  0  0  0  0  0
   11.5661  -17.7204   22.5500 C   0  0  0  0  0  0  0  0  0  0  0  0
   12.5835  -18.4468   23.3697 C   0  0  0  0  0  0  0  0  0  0  0  0
   13.7873  -18.8729   22.6428 C   0  0  0  0  0  0  0  0  0  0  0  0
   14.8872  -18.7712   23.2444 O   0  0  0  0  0  0  0  0  0  0  0  0
   10.6507  -16.4811   24.4528 C   0  0  0  0  0  0  0  0  0  0  0  0
   11.1228  -15.3414   24.2756 O   0  0  0  0  0  0  0  0  0  0  0  0
   13.8235  -19.3762   21.3554 O   0  0  0  0  0  0  0  0  0  0  0  0
    8.0022  -12.5231   26.9799 N   0  0  0  0  0  0  0  0  0  0  0  0
    7.5386  -13.8151   26.5839 C   0  0  0  0  0  0  0  0  0  0  0  0
    6.3560  -13.8898   26.1190 O   0  0  0  0  0  0  0  0  0  0  0  0
    8.3512  -15.0302   26.6815 C   0  0  0  0  0  0  0  0  0  0  0  0
    9.8001  -14.7646   26.6613 C   0  0  0  0  0  0  0  0  0  0  0  0
   10.6603  -15.9443   26.9094 C   0  0  2  0  0  0  0  0  0  0  0  0
   10.4207  -16.8905   25.7821 N   0  0  0  0  0  0  0  0  0  0  0  0
   10.5447  -16.6637   28.1518 C   0  0  0  0  0  0  0  0  0  0  0  0
   10.2025  -18.0248   28.2219 O   0  0  0  0  0  0  0  0  0  0  0  0
   10.7476  -16.0600   29.2452 O   0  0  0  0  0  0  0  0  0  0  0  0
  2  1  1  1
  2  3  1  0
  4  3  1  0
  4  5  1  0
  6  5  1  0
  7  6  1  0
  8  2  1  0
  8  9  2  0
 10  8  1  0
 11 10  1  0
 11 12  1  6
 13 12  1  0
 13 14  1  0
 14 15  2  0
 16 11  1  0
 17 16  2  0
 18 14  1  0
 19 20  1  0
 20 21  2  0
 22 20  1  0
 22 23  1  0
 24 23  1  1
 24 25  1  0
 24 26  1  0
 25 16  1  0
 26 27  1  0
 28 26  2  0
M  END
$$$$
