KEQ.pdb
     RDKit          3D

 28 27  0  0  1  0  0  0  0  0999 V2000
    9.8266  -15.2533   16.6508 N   0  0  0  0  0  0  0  0  0  0  0  0
   10.4563  -14.3285   17.5066 C   0  0  1  0  0  0  0  0  0  0  0  0
    9.6168  -13.4280   18.3047 C   0  0  0  0  0  0  0  0  0  0  0  0
    8.3761  -12.9118   17.7445 C   0  0  0  0  0  0  0  0  0  0  0  0
    7.2448  -13.6912   17.2629 C   0  0  0  0  0  0  0  0  0  0  0  0
    6.0083  -13.0813   16.7629 C   0  0  0  0  0  0  0  0  0  0  0  0
    4.9668  -13.9967   16.3532 N   0  0  0  0  0  0  0  0  0  0  0  0
   11.4282  -15.1004   18.3716 C   0  0  0  0  0  0  0  0  0  0  0  0
   11.1342  -16.2715   18.6692 O   0  0  0  0  0  0  0  0  0  0  0  0
   12.6091  -14.5243   18.8195 N   0  0  0  0  0  0  0  0  0  0  0  0
   13.6132  -15.2300   19.6286 C   0  0  1  0  0  0  0  0  0  0  0  0
   14.9716  -14.7137   19.3710 C   0  0  0  0  0  0  0  0  0  0  0  0
   15.4670  -14.9944   17.9889 C   0  0  0  0  0  0  0  0  0  0  0  0
   16.8034  -14.4666   17.6817 C   0  0  0  0  0  0  0  0  0  0  0  0
   16.9108  -13.2211   17.5433 O   0  0  0  0  0  0  0  0  0  0  0  0
   13.2354  -15.0755   21.0590 C   0  0  0  0  0  0  0  0  0  0  0  0
   12.6654  -14.0435   21.4629 O   0  0  0  0  0  0  0  0  0  0  0  0
   17.9568  -15.2139   17.5298 O   0  0  0  0  0  0  0  0  0  0  0  0
    8.7844  -16.7769   20.8211 N   0  0  0  0  0  0  0  0  0  0  0  0
    8.9396  -15.7845   21.8370 C   0  0  0  0  0  0  0  0  0  0  0  0
    7.9621  -14.9919   22.0280 O   0  0  0  0  0  0  0  0  0  0  0  0
   10.1470  -15.6478   22.6554 C   0  0  0  0  0  0  0  0  0  0  0  0
   11.2013  -16.6147   22.3034 C   0  0  0  0  0  0  0  0  0  0  0  0
   12.4808  -16.4437   23.0293 C   0  0  2  0  0  0  0  0  0  0  0  0
   13.5052  -16.0832   22.0074 N   0  0  0  0  0  0  0  0  0  0  0  0
   12.9916  -17.5197   23.8392 C   0  0  0  0  0  0  0  0  0  0  0  0
   13.9209  -18.4619   23.3667 O   0  0  0  0  0  0  0  0  0  0  0  0
   12.5922  -17.6478   25.0330 O   0  0  0  0  0  0  0  0  0  0  0  0
  2  1  1  1
  2  3  1  0
  4  3  1  0
  4  5  1  0
  6  5  1  0
  7  6  1  0
  8  2  1  0
  8  9  2  0
 10  8  1  0
 11 10  1  0
 11 12  1  1
 13 12  1  0
 13 14  1  0
 14 15  2  0
 16 11  1  0
 17 16  2  0
 18 14  1  0
 19 20  1  0
 20 21  2  0
 22 20  1  0
 22 23  1  0
 24 23  1  6
 24 25  1  0
 24 26  1  0
 25 16  1  0
 26 27  1  0
 28 26  2  0
M  END
$$$$
