KEQ.pdb
     RDKit          3D

 28 27  0  0  1  0  0  0  0  0999 V2000
   10.0948  -14.4132   19.0301 N   0  0  0  0  0  0  0  0  0  0  0  0
    9.1382  -13.8876   19.9203 C   0  0  1  0  0  0  0  0  0  0  0  0
    7.7710  -13.6727   19.4331 C   0  0  0  0  0  0  0  0  0  0  0  0
    7.3800  -14.1878   18.1287 C   0  0  0  0  0  0  0  0  0  0  0  0
    7.8106  -13.6920   16.8294 C   0  0  0  0  0  0  0  0  0  0  0  0
    7.3203  -14.2417   15.5612 C   0  0  0  0  0  0  0  0  0  0  0  0
    7.9525  -13.7387   14.3621 N   0  0  0  0  0  0  0  0  0  0  0  0
    9.1595  -14.7449   21.1666 C   0  0  0  0  0  0  0  0  0  0  0  0
    8.1962  -14.6546   21.9478 O   0  0  0  0  0  0  0  0  0  0  0  0
   10.2168  -15.6044   21.4321 N   0  0  0  0  0  0  0  0  0  0  0  0
   10.2796  -16.4943   22.6005 C   0  0  1  0  0  0  0  0  0  0  0  0
   11.4064  -17.4416   22.4956 C   0  0  0  0  0  0  0  0  0  0  0  0
   11.4812  -18.4115   23.6305 C   0  0  0  0  0  0  0  0  0  0  0  0
   12.5902  -19.3729   23.5627 C   0  0  0  0  0  0  0  0  0  0  0  0
   13.6583  -19.0593   24.1482 O   0  0  0  0  0  0  0  0  0  0  0  0
   10.3963  -15.6433   23.8150 C   0  0  0  0  0  0  0  0  0  0  0  0
   11.1587  -14.6577   23.8352 O   0  0  0  0  0  0  0  0  0  0  0  0
   12.5690  -20.5933   22.9128 O   0  0  0  0  0  0  0  0  0  0  0  0
    5.7219  -11.8733   27.3298 N   0  0  0  0  0  0  0  0  0  0  0  0
    6.3995  -12.7400   26.4185 C   0  0  0  0  0  0  0  0  0  0  0  0
    5.6931  -13.3113   25.5269 O   0  0  0  0  0  0  0  0  0  0  0  0
    7.8427  -12.9885   26.4612 C   0  0  0  0  0  0  0  0  0  0  0  0
    8.2774  -14.0534   25.5406 C   0  0  0  0  0  0  0  0  0  0  0  0
    9.4398  -14.8476   26.0002 C   0  0  2  0  0  0  0  0  0  0  0  0
    9.6546  -15.9161   24.9824 N   0  0  0  0  0  0  0  0  0  0  0  0
    9.4210  -15.4498   27.3085 C   0  0  0  0  0  0  0  0  0  0  0  0
    9.4990  -16.8373   27.5162 O   0  0  0  0  0  0  0  0  0  0  0  0
    9.3209  -14.7150   28.3337 O   0  0  0  0  0  0  0  0  0  0  0  0
  2  1  1  6
  2  3  1  0
  4  3  1  0
  4  5  1  0
  6  5  1  0
  7  6  1  0
  8  2  1  0
  8  9  2  0
 10  8  1  0
 11 10  1  0
 11 12  1  6
 13 12  1  0
 13 14  1  0
 14 15  2  0
 16 11  1  0
 17 16  2  0
 18 14  1  0
 19 20  1  0
 20 21  2  0
 22 20  1  0
 22 23  1  0
 24 23  1  6
 24 25  1  0
 24 26  1  0
 25 16  1  0
 26 27  1  0
 28 26  2  0
M  END
$$$$
