KEQ.pdb
     RDKit          3D

 28 27  0  0  1  0  0  0  0  0999 V2000
    9.5231  -14.7540   19.2348 N   0  0  0  0  0  0  0  0  0  0  0  0
    8.7960  -14.1025   20.2502 C   0  0  1  0  0  0  0  0  0  0  0  0
    7.4100  -13.7069   19.9761 C   0  0  0  0  0  0  0  0  0  0  0  0
    7.0547  -13.1823   18.6652 C   0  0  0  0  0  0  0  0  0  0  0  0
    7.2455  -13.8401   17.3807 C   0  0  0  0  0  0  0  0  0  0  0  0
    6.7976  -13.2595   16.1106 C   0  0  0  0  0  0  0  0  0  0  0  0
    7.0914  -14.0266   14.9206 N   0  0  0  0  0  0  0  0  0  0  0  0
    8.8988  -14.9521   21.4977 C   0  0  0  0  0  0  0  0  0  0  0  0
    8.1016  -14.7200   22.4234 O   0  0  0  0  0  0  0  0  0  0  0  0
    9.8494  -15.9578   21.6085 N   0  0  0  0  0  0  0  0  0  0  0  0
    9.9810  -16.8396   22.7772 C   0  0  1  0  0  0  0  0  0  0  0  0
   11.0576  -17.8307   22.5851 C   0  0  0  0  0  0  0  0  0  0  0  0
   11.2887  -18.7028   23.7769 C   0  0  0  0  0  0  0  0  0  0  0  0
   12.3659  -19.6914   23.6320 C   0  0  0  0  0  0  0  0  0  0  0  0
   13.4148  -19.4995   24.2991 O   0  0  0  0  0  0  0  0  0  0  0  0
   10.2364  -15.9837   23.9668 C   0  0  0  0  0  0  0  0  0  0  0  0
   10.6702  -14.8225   23.8387 O   0  0  0  0  0  0  0  0  0  0  0  0
   12.3339  -20.8159   22.8279 O   0  0  0  0  0  0  0  0  0  0  0  0
    6.5254  -12.8913   25.3374 N   0  0  0  0  0  0  0  0  0  0  0  0
    7.1809  -12.7576   26.5997 C   0  0  0  0  0  0  0  0  0  0  0  0
    6.7366  -11.8666   27.3928 O   0  0  0  0  0  0  0  0  0  0  0  0
    8.3137  -13.5892   27.0140 C   0  0  0  0  0  0  0  0  0  0  0  0
    8.7153  -14.5749   25.9955 C   0  0  0  0  0  0  0  0  0  0  0  0
    9.8183  -15.4790   26.3945 C   0  0  2  0  0  0  0  0  0  0  0  0
    9.9993  -16.4489   25.2763 N   0  0  0  0  0  0  0  0  0  0  0  0
    9.7306  -16.2094   27.6328 C   0  0  0  0  0  0  0  0  0  0  0  0
    9.5547  -17.6023   27.6918 O   0  0  0  0  0  0  0  0  0  0  0  0
    9.8037  -15.5873   28.7322 O   0  0  0  0  0  0  0  0  0  0  0  0
  2  1  1  6
  2  3  1  0
  4  3  1  0
  4  5  1  0
  6  5  1  0
  7  6  1  0
  8  2  1  0
  8  9  2  0
 10  8  1  0
 11 10  1  0
 11 12  1  6
 13 12  1  0
 13 14  1  0
 14 15  2  0
 16 11  1  0
 17 16  2  0
 18 14  1  0
 19 20  1  0
 20 21  2  0
 22 20  1  0
 22 23  1  0
 24 23  1  6
 24 25  1  0
 24 26  1  0
 25 16  1  0
 26 27  1  0
 28 26  2  0
M  END
$$$$
