KEQ.pdb
     RDKit          3D

 28 27  0  0  1  0  0  0  0  0999 V2000
    9.6520  -13.1408   19.3837 N   0  0  0  0  0  0  0  0  0  0  0  0
    8.4200  -13.3640   20.0290 C   0  0  1  0  0  0  0  0  0  0  0  0
    7.2112  -13.4911   19.2071 C   0  0  0  0  0  0  0  0  0  0  0  0
    7.3227  -13.4993   17.7555 C   0  0  0  0  0  0  0  0  0  0  0  0
    7.5891  -14.6517   16.9069 C   0  0  0  0  0  0  0  0  0  0  0  0
    7.6263  -14.5752   15.4427 C   0  0  0  0  0  0  0  0  0  0  0  0
    7.9212  -15.8082   14.7476 N   0  0  0  0  0  0  0  0  0  0  0  0
    8.5986  -14.5520   20.9485 C   0  0  0  0  0  0  0  0  0  0  0  0
    7.5741  -15.1026   21.3885 O   0  0  0  0  0  0  0  0  0  0  0  0
    9.8618  -15.0146   21.2912 N   0  0  0  0  0  0  0  0  0  0  0  0
   10.1056  -16.1332   22.2133 C   0  0  1  0  0  0  0  0  0  0  0  0
   11.3282  -16.8748   21.8483 C   0  0  0  0  0  0  0  0  0  0  0  0
   11.5518  -18.1030   22.6705 C   0  0  0  0  0  0  0  0  0  0  0  0
   12.7503  -18.8799   22.3256 C   0  0  0  0  0  0  0  0  0  0  0  0
   13.4184  -19.3577   23.2780 O   0  0  0  0  0  0  0  0  0  0  0  0
   10.1981  -15.5767   23.5896 C   0  0  0  0  0  0  0  0  0  0  0  0
   10.5980  -14.4125   23.7839 O   0  0  0  0  0  0  0  0  0  0  0  0
   13.2134  -19.1347   21.0478 O   0  0  0  0  0  0  0  0  0  0  0  0
    7.0035  -11.5202   26.6967 N   0  0  0  0  0  0  0  0  0  0  0  0
    6.8768  -12.9115   26.3986 C   0  0  0  0  0  0  0  0  0  0  0  0
    5.8421  -13.2747   25.7522 O   0  0  0  0  0  0  0  0  0  0  0  0
    7.8692  -13.9156   26.7905 C   0  0  0  0  0  0  0  0  0  0  0  0
    8.4451  -14.6424   25.6458 C   0  0  0  0  0  0  0  0  0  0  0  0
    9.4647  -15.6588   25.9935 C   0  0  2  0  0  0  0  0  0  0  0  0
    9.8395  -16.3386   24.7203 N   0  0  0  0  0  0  0  0  0  0  0  0
    9.1654  -16.6607   26.9840 C   0  0  0  0  0  0  0  0  0  0  0  0
    9.1578  -18.0379   26.7051 O   0  0  0  0  0  0  0  0  0  0  0  0
    8.8842  -16.3072   28.1660 O   0  0  0  0  0  0  0  0  0  0  0  0
  2  1  1  6
  2  3  1  0
  4  3  1  0
  4  5  1  0
  6  5  1  0
  7  6  1  0
  8  2  1  0
  8  9  2  0
 10  8  1  0
 11 10  1  0
 11 12  1  6
 13 12  1  0
 13 14  1  0
 14 15  2  0
 16 11  1  0
 17 16  2  0
 18 14  1  0
 19 20  1  0
 20 21  2  0
 22 20  1  0
 22 23  1  0
 24 23  1  6
 24 25  1  0
 24 26  1  0
 25 16  1  0
 26 27  1  0
 28 26  2  0
M  END
$$$$
