KEQ.pdb
     RDKit          3D

 28 27  0  0  1  0  0  0  0  0999 V2000
    5.8172  -17.5098   21.0609 N   0  0  0  0  0  0  0  0  0  0  0  0
    6.9335  -16.6508   21.0641 C   0  0  1  0  0  0  0  0  0  0  0  0
    6.7246  -15.2313   21.3714 C   0  0  0  0  0  0  0  0  0  0  0  0
    6.8713  -14.2357   20.3192 C   0  0  0  0  0  0  0  0  0  0  0  0
    8.0968  -13.5560   19.9251 C   0  0  0  0  0  0  0  0  0  0  0  0
    8.1499  -12.5653   18.8450 C   0  0  0  0  0  0  0  0  0  0  0  0
    9.4665  -12.0951   18.4760 N   0  0  0  0  0  0  0  0  0  0  0  0
    7.9793  -17.2700   21.9648 C   0  0  0  0  0  0  0  0  0  0  0  0
    7.5846  -17.9114   22.9544 O   0  0  0  0  0  0  0  0  0  0  0  0
    9.3345  -17.1293   21.6986 N   0  0  0  0  0  0  0  0  0  0  0  0
   10.4009  -17.6697   22.5540 C   0  0  1  0  0  0  0  0  0  0  0  0
   11.7235  -17.5392   21.9123 C   0  0  0  0  0  0  0  0  0  0  0  0
   12.8464  -18.0773   22.7394 C   0  0  0  0  0  0  0  0  0  0  0  0
   14.1747  -18.0092   22.1151 C   0  0  0  0  0  0  0  0  0  0  0  0
   15.1708  -18.0149   22.8830 O   0  0  0  0  0  0  0  0  0  0  0  0
   10.3533  -16.9460   23.8527 C   0  0  0  0  0  0  0  0  0  0  0  0
   10.5819  -15.7225   23.9127 O   0  0  0  0  0  0  0  0  0  0  0  0
   14.4321  -17.9389   20.7584 O   0  0  0  0  0  0  0  0  0  0  0  0
    7.5326  -13.3839   25.9671 N   0  0  0  0  0  0  0  0  0  0  0  0
    7.0548  -14.6797   25.6022 C   0  0  0  0  0  0  0  0  0  0  0  0
    5.8328  -14.7719   25.2579 O   0  0  0  0  0  0  0  0  0  0  0  0
    7.8949  -15.8800   25.6007 C   0  0  0  0  0  0  0  0  0  0  0  0
    9.2460  -15.6454   26.1392 C   0  0  0  0  0  0  0  0  0  0  0  0
   10.0609  -16.8641   26.3489 C   0  0  2  0  0  0  0  0  0  0  0  0
   10.0498  -17.6109   25.0583 N   0  0  0  0  0  0  0  0  0  0  0  0
    9.7247  -17.7733   27.4142 C   0  0  0  0  0  0  0  0  0  0  0  0
    9.8032  -17.4258   28.7735 O   0  0  0  0  0  0  0  0  0  0  0  0
    9.3469  -18.9487   27.1373 O   0  0  0  0  0  0  0  0  0  0  0  0
  2  1  1  1
  2  3  1  0
  4  3  1  0
  4  5  1  0
  6  5  1  0
  7  6  1  0
  8  2  1  0
  8  9  2  0
 10  8  1  0
 11 10  1  0
 11 12  1  6
 13 12  1  0
 13 14  1  0
 14 15  2  0
 16 11  1  0
 17 16  2  0
 18 14  1  0
 19 20  1  0
 20 21  2  0
 22 20  1  0
 22 23  1  0
 24 23  1  6
 24 25  1  0
 24 26  1  0
 25 16  1  0
 26 27  1  0
 28 26  2  0
M  END
$$$$
