KEQ.pdb
     RDKit          3D

 28 27  0  0  1  0  0  0  0  0999 V2000
    7.2472  -21.9547   24.2041 N   0  0  0  0  0  0  0  0  0  0  0  0
    7.3273  -20.5836   24.5163 C   0  0  1  0  0  0  0  0  0  0  0  0
    7.2467  -20.1796   25.9246 C   0  0  0  0  0  0  0  0  0  0  0  0
    7.2713  -21.1936   26.9691 C   0  0  0  0  0  0  0  0  0  0  0  0
    7.0504  -20.9858   28.3929 C   0  0  0  0  0  0  0  0  0  0  0  0
    7.2115  -22.0486   29.3906 C   0  0  0  0  0  0  0  0  0  0  0  0
    6.8461  -21.7091   30.7477 N   0  0  0  0  0  0  0  0  0  0  0  0
    8.5704  -20.0385   23.8484 C   0  0  0  0  0  0  0  0  0  0  0  0
    9.6482  -20.6174   24.0710 O   0  0  0  0  0  0  0  0  0  0  0  0
    8.5135  -18.9300   23.0146 N   0  0  0  0  0  0  0  0  0  0  0  0
    9.6958  -18.2701   22.4422 C   0  0  1  0  0  0  0  0  0  0  0  0
    9.4145  -17.7353   21.0957 C   0  0  0  0  0  0  0  0  0  0  0  0
   10.5894  -17.0642   20.4602 C   0  0  0  0  0  0  0  0  0  0  0  0
   10.3549  -16.5339   19.1102 C   0  0  0  0  0  0  0  0  0  0  0  0
   11.3387  -16.0240   18.5149 O   0  0  0  0  0  0  0  0  0  0  0  0
   10.1136  -17.1925   23.3785 C   0  0  0  0  0  0  0  0  0  0  0  0
    9.3446  -16.7859   24.2708 O   0  0  0  0  0  0  0  0  0  0  0  0
    9.1501  -16.5426   18.4317 O   0  0  0  0  0  0  0  0  0  0  0  0
   11.5583  -16.4831   28.4776 N   0  0  0  0  0  0  0  0  0  0  0  0
   10.6870  -15.5091   27.9005 C   0  0  0  0  0  0  0  0  0  0  0  0
   10.0308  -14.7699   28.7025 O   0  0  0  0  0  0  0  0  0  0  0  0
   10.5252  -15.3242   26.4562 C   0  0  0  0  0  0  0  0  0  0  0  0
   11.3028  -16.2859   25.6556 C   0  0  0  0  0  0  0  0  0  0  0  0
   11.8885  -15.7401   24.4098 C   0  0  2  0  0  0  0  0  0  0  0  0
   11.3868  -16.5930   23.2942 N   0  0  0  0  0  0  0  0  0  0  0  0
   13.3181  -15.6118   24.2892 C   0  0  0  0  0  0  0  0  0  0  0  0
   14.0509  -14.5815   24.9024 O   0  0  0  0  0  0  0  0  0  0  0  0
   13.9649  -16.4497   23.5960 O   0  0  0  0  0  0  0  0  0  0  0  0
  2  1  1  1
  2  3  1  0
  4  3  1  0
  4  5  1  0
  6  5  1  0
  7  6  1  0
  8  2  1  0
  8  9  2  0
 10  8  1  0
 11 10  1  0
 11 12  1  6
 13 12  1  0
 13 14  1  0
 14 15  2  0
 16 11  1  0
 17 16  2  0
 18 14  1  0
 19 20  1  0
 20 21  2  0
 22 20  1  0
 22 23  1  0
 24 23  1  1
 24 25  1  0
 24 26  1  0
 25 16  1  0
 26 27  1  0
 28 26  2  0
M  END
$$$$
