KEQ.pdb
     RDKit          3D

 28 27  0  0  1  0  0  0  0  0999 V2000
   -2.1778  -26.4384   27.2369 N   0  0  0  0  0  0  0  0  0  0  0  0
   -3.1063  -27.4355   27.5943 C   0  0  1  0  0  0  0  0  0  0  0  0
   -2.6073  -28.7818   27.8968 C   0  0  0  0  0  0  0  0  0  0  0  0
   -1.5550  -29.3631   27.0757 C   0  0  0  0  0  0  0  0  0  0  0  0
   -0.1208  -29.2914   27.3149 C   0  0  0  0  0  0  0  0  0  0  0  0
    0.8627  -30.0144   26.5020 C   0  0  0  0  0  0  0  0  0  0  0  0
    2.2511  -29.8080   26.8489 N   0  0  0  0  0  0  0  0  0  0  0  0
   -3.9505  -26.8853   28.7226 C   0  0  0  0  0  0  0  0  0  0  0  0
   -4.8747  -27.5967   29.1541 O   0  0  0  0  0  0  0  0  0  0  0  0
   -3.7046  -25.6294   29.2606 N   0  0  0  0  0  0  0  0  0  0  0  0
   -4.4661  -25.0492   30.3761 C   0  0  1  0  0  0  0  0  0  0  0  0
   -3.5820  -24.6901   31.5020 C   0  0  0  0  0  0  0  0  0  0  0  0
   -3.9540  -25.3510   32.7901 C   0  0  0  0  0  0  0  0  0  0  0  0
   -3.0232  -25.1238   33.9040 C   0  0  0  0  0  0  0  0  0  0  0  0
   -2.9209  -23.9468   34.3356 O   0  0  0  0  0  0  0  0  0  0  0  0
   -5.1972  -23.8615   29.8590 C   0  0  0  0  0  0  0  0  0  0  0  0
   -4.7530  -23.2048   28.8975 O   0  0  0  0  0  0  0  0  0  0  0  0
   -2.2468  -26.0860   34.5233 O   0  0  0  0  0  0  0  0  0  0  0  0
  -10.3159  -21.8870   26.1166 N   0  0  0  0  0  0  0  0  0  0  0  0
   -9.2155  -22.5258   26.7660 C   0  0  0  0  0  0  0  0  0  0  0  0
   -9.0915  -23.7813   26.5973 O   0  0  0  0  0  0  0  0  0  0  0  0
   -8.2406  -21.8117   27.5943 C   0  0  0  0  0  0  0  0  0  0  0  0
   -7.3715  -22.7093   28.3748 C   0  0  0  0  0  0  0  0  0  0  0  0
   -7.1950  -22.3356   29.7969 C   0  0  2  0  0  0  0  0  0  0  0  0
   -6.4126  -23.4348   30.4320 N   0  0  0  0  0  0  0  0  0  0  0  0
   -8.3503  -22.0579   30.6110 C   0  0  0  0  0  0  0  0  0  0  0  0
   -9.0432  -23.0504   31.3247 O   0  0  0  0  0  0  0  0  0  0  0  0
   -8.7855  -20.8728   30.6955 O   0  0  0  0  0  0  0  0  0  0  0  0
  2  1  1  1
  2  3  1  0
  4  3  1  0
  4  5  1  0
  6  5  1  0
  7  6  1  0
  8  2  1  0
  8  9  2  0
 10  8  1  0
 11 10  1  0
 11 12  1  1
 13 12  1  0
 13 14  1  0
 14 15  2  0
 16 11  1  0
 17 16  2  0
 18 14  1  0
 19 20  1  0
 20 21  2  0
 22 20  1  0
 22 23  1  0
 24 23  1  6
 24 25  1  0
 24 26  1  0
 25 16  1  0
 26 27  1  0
 28 26  2  0
M  END
$$$$
