KEQ.pdb
     RDKit          3D

 28 27  0  0  1  0  0  0  0  0999 V2000
   10.2374  -14.0113   19.0995 N   0  0  0  0  0  0  0  0  0  0  0  0
    9.0089  -13.8233   19.7623 C   0  0  1  0  0  0  0  0  0  0  0  0
    7.7844  -13.7398   18.9583 C   0  0  0  0  0  0  0  0  0  0  0  0
    7.7651  -14.2949   17.6125 C   0  0  0  0  0  0  0  0  0  0  0  0
    7.8860  -13.5585   16.3626 C   0  0  0  0  0  0  0  0  0  0  0  0
    7.7360  -14.1875   15.0462 C   0  0  0  0  0  0  0  0  0  0  0  0
    7.9492  -13.3293   13.9021 N   0  0  0  0  0  0  0  0  0  0  0  0
    8.9037  -14.8875   20.8324 C   0  0  0  0  0  0  0  0  0  0  0  0
    7.8361  -14.9690   21.4648 O   0  0  0  0  0  0  0  0  0  0  0  0
    9.9611  -15.7458   21.1017 N   0  0  0  0  0  0  0  0  0  0  0  0
    9.9650  -16.7278   22.1956 C   0  0  1  0  0  0  0  0  0  0  0  0
   11.0950  -17.6687   22.0701 C   0  0  0  0  0  0  0  0  0  0  0  0
   10.9787  -18.5922   20.9005 C   0  0  0  0  0  0  0  0  0  0  0  0
   12.0896  -19.5396   20.7356 C   0  0  0  0  0  0  0  0  0  0  0  0
   12.9392  -19.2787   19.8457 O   0  0  0  0  0  0  0  0  0  0  0  0
   10.0214  -15.9788   23.4795 C   0  0  0  0  0  0  0  0  0  0  0  0
   11.0720  -15.4191   23.8485 O   0  0  0  0  0  0  0  0  0  0  0  0
   12.2881  -20.6946   21.4695 O   0  0  0  0  0  0  0  0  0  0  0  0
    5.0869  -12.9873   25.8866 N   0  0  0  0  0  0  0  0  0  0  0  0
    6.2339  -12.5634   26.6252 C   0  0  0  0  0  0  0  0  0  0  0  0
    6.1380  -11.4693   27.2686 O   0  0  0  0  0  0  0  0  0  0  0  0
    7.4865  -13.3214   26.6781 C   0  0  0  0  0  0  0  0  0  0  0  0
    7.6647  -14.2317   25.5336 C   0  0  0  0  0  0  0  0  0  0  0  0
    8.9397  -14.9850   25.5204 C   0  0  2  0  0  0  0  0  0  0  0  0
    8.8971  -15.8732   24.3233 N   0  0  0  0  0  0  0  0  0  0  0  0
    9.3173  -15.7699   26.6676 C   0  0  0  0  0  0  0  0  0  0  0  0
    9.4541  -17.1679   26.6300 O   0  0  0  0  0  0  0  0  0  0  0  0
    9.5322  -15.1961   27.7746 O   0  0  0  0  0  0  0  0  0  0  0  0
  2  1  1  6
  2  3  1  0
  4  3  1  0
  4  5  1  0
  6  5  1  0
  7  6  1  0
  8  2  1  0
  8  9  2  0
 10  8  1  0
 11 10  1  0
 11 12  1  6
 13 12  1  0
 13 14  1  0
 14 15  2  0
 16 11  1  0
 17 16  2  0
 18 14  1  0
 19 20  1  0
 20 21  2  0
 22 20  1  0
 22 23  1  0
 24 23  1  1
 24 25  1  0
 24 26  1  0
 25 16  1  0
 26 27  1  0
 28 26  2  0
M  END
$$$$
