KEQ.pdb
     RDKit          3D

 28 27  0  0  1  0  0  0  0  0999 V2000
    9.4233  -18.5364   19.5809 N   0  0  0  0  0  0  0  0  0  0  0  0
    8.8874  -17.7967   20.6532 C   0  0  1  0  0  0  0  0  0  0  0  0
    7.4662  -17.9626   20.9781 C   0  0  0  0  0  0  0  0  0  0  0  0
    6.5404  -18.4234   19.9533 C   0  0  0  0  0  0  0  0  0  0  0  0
    5.9126  -19.7341   19.8695 C   0  0  0  0  0  0  0  0  0  0  0  0
    4.8947  -20.0707   18.8688 C   0  0  0  0  0  0  0  0  0  0  0  0
    4.4453  -21.4450   18.8545 N   0  0  0  0  0  0  0  0  0  0  0  0
    9.7688  -18.0418   21.8581 C   0  0  0  0  0  0  0  0  0  0  0  0
    9.9001  -19.2145   22.2503 O   0  0  0  0  0  0  0  0  0  0  0  0
   10.4111  -16.9954   22.5060 N   0  0  0  0  0  0  0  0  0  0  0  0
   11.3122  -17.1687   23.6545 C   0  0  1  0  0  0  0  0  0  0  0  0
   12.4189  -16.1930   23.6222 C   0  0  0  0  0  0  0  0  0  0  0  0
   13.4274  -16.4662   22.5533 C   0  0  0  0  0  0  0  0  0  0  0  0
   14.5701  -15.5431   22.5175 C   0  0  0  0  0  0  0  0  0  0  0  0
   15.0730  -15.2092   23.6209 O   0  0  0  0  0  0  0  0  0  0  0  0
   10.5015  -17.0302   24.8940 C   0  0  0  0  0  0  0  0  0  0  0  0
    9.9427  -15.9527   25.1764 O   0  0  0  0  0  0  0  0  0  0  0  0
   15.1450  -15.0055   21.3806 O   0  0  0  0  0  0  0  0  0  0  0  0
    6.6213  -21.1552   26.3877 N   0  0  0  0  0  0  0  0  0  0  0  0
    6.6441  -20.0332   25.5037 C   0  0  0  0  0  0  0  0  0  0  0  0
    5.8229  -20.0438   24.5312 O   0  0  0  0  0  0  0  0  0  0  0  0
    7.5480  -18.8921   25.6694 C   0  0  0  0  0  0  0  0  0  0  0  0
    8.4028  -18.9956   26.8648 C   0  0  0  0  0  0  0  0  0  0  0  0
    9.4498  -17.9549   26.9825 C   0  0  2  0  0  0  0  0  0  0  0  0
   10.3345  -18.1045   25.7915 N   0  0  0  0  0  0  0  0  0  0  0  0
   10.2695  -17.8972   28.1654 C   0  0  0  0  0  0  0  0  0  0  0  0
    9.7787  -17.5012   29.4211 O   0  0  0  0  0  0  0  0  0  0  0  0
   11.4948  -18.2045   28.0927 O   0  0  0  0  0  0  0  0  0  0  0  0
  2  1  1  6
  2  3  1  0
  4  3  1  0
  4  5  1  0
  6  5  1  0
  7  6  1  0
  8  2  1  0
  8  9  2  0
 10  8  1  0
 11 10  1  0
 11 12  1  1
 13 12  1  0
 13 14  1  0
 14 15  2  0
 16 11  1  0
 17 16  2  0
 18 14  1  0
 19 20  1  0
 20 21  2  0
 22 20  1  0
 22 23  1  0
 24 23  1  1
 24 25  1  0
 24 26  1  0
 25 16  1  0
 26 27  1  0
 28 26  2  0
M  END
$$$$
