KEQ.pdb
     RDKit          3D

 28 27  0  0  1  0  0  0  0  0999 V2000
    6.3737  -17.8680   21.0270 N   0  0  0  0  0  0  0  0  0  0  0  0
    7.6015  -17.6622   20.3681 C   0  0  1  0  0  0  0  0  0  0  0  0
    7.7982  -16.4112   19.6270 C   0  0  0  0  0  0  0  0  0  0  0  0
    8.0627  -15.1766   20.3519 C   0  0  0  0  0  0  0  0  0  0  0  0
    8.1121  -13.8317   19.7967 C   0  0  0  0  0  0  0  0  0  0  0  0
    8.3720  -12.6397   20.6106 C   0  0  0  0  0  0  0  0  0  0  0  0
    8.3743  -11.3763   19.9074 N   0  0  0  0  0  0  0  0  0  0  0  0
    8.7027  -17.8920   21.3797 C   0  0  0  0  0  0  0  0  0  0  0  0
    8.3933  -18.4193   22.4625 O   0  0  0  0  0  0  0  0  0  0  0  0
   10.0153  -17.5281   21.1114 N   0  0  0  0  0  0  0  0  0  0  0  0
   11.1640  -17.9251   21.9382 C   0  0  1  0  0  0  0  0  0  0  0  0
   12.4270  -17.8446   21.1789 C   0  0  0  0  0  0  0  0  0  0  0  0
   13.6304  -18.2355   21.9748 C   0  0  0  0  0  0  0  0  0  0  0  0
   14.9089  -18.1682   21.2539 C   0  0  0  0  0  0  0  0  0  0  0  0
   15.5087  -17.0627   21.2508 O   0  0  0  0  0  0  0  0  0  0  0  0
   11.1915  -17.0407   23.1339 C   0  0  0  0  0  0  0  0  0  0  0  0
   11.2789  -15.8034   23.0132 O   0  0  0  0  0  0  0  0  0  0  0  0
   15.5153  -19.2099   20.5762 O   0  0  0  0  0  0  0  0  0  0  0  0
    6.4568  -15.9339   23.8256 N   0  0  0  0  0  0  0  0  0  0  0  0
    6.7831  -15.5607   25.1654 C   0  0  0  0  0  0  0  0  0  0  0  0
    5.9002  -14.9194   25.8206 O   0  0  0  0  0  0  0  0  0  0  0  0
    8.0605  -15.8839   25.8059 C   0  0  0  0  0  0  0  0  0  0  0  0
    9.0164  -16.5423   24.8986 C   0  0  0  0  0  0  0  0  0  0  0  0
   10.3381  -16.8500   25.4916 C   0  0  2  0  0  0  0  0  0  0  0  0
   11.1202  -17.5634   24.4413 N   0  0  0  0  0  0  0  0  0  0  0  0
   10.4131  -17.6024   26.7175 C   0  0  0  0  0  0  0  0  0  0  0  0
   10.0517  -17.0717   27.9674 O   0  0  0  0  0  0  0  0  0  0  0  0
   10.8296  -18.7970   26.6936 O   0  0  0  0  0  0  0  0  0  0  0  0
  2  1  1  1
  2  3  1  0
  4  3  1  0
  4  5  1  0
  6  5  1  0
  7  6  1  0
  8  2  1  0
  8  9  2  0
 10  8  1  0
 11 10  1  0
 11 12  1  6
 13 12  1  0
 13 14  1  0
 14 15  2  0
 16 11  1  0
 17 16  2  0
 18 14  1  0
 19 20  1  0
 20 21  2  0
 22 20  1  0
 22 23  1  0
 24 23  1  6
 24 25  1  0
 24 26  1  0
 25 16  1  0
 26 27  1  0
 28 26  2  0
M  END
$$$$
