KEQ.pdb
     RDKit          3D

 28 27  0  0  1  0  0  0  0  0999 V2000
    7.8857  -17.4573   21.0351 N   0  0  0  0  0  0  0  0  0  0  0  0
    8.8149  -16.4164   21.2280 C   0  0  1  0  0  0  0  0  0  0  0  0
    8.3201  -15.0361   21.2809 C   0  0  0  0  0  0  0  0  0  0  0  0
    7.7084  -14.4427   20.1004 C   0  0  0  0  0  0  0  0  0  0  0  0
    7.2848  -13.0594   19.9385 C   0  0  0  0  0  0  0  0  0  0  0  0
    6.5802  -12.5730   18.7478 C   0  0  0  0  0  0  0  0  0  0  0  0
    6.8726  -13.2598   17.5095 N   0  0  0  0  0  0  0  0  0  0  0  0
    9.6366  -16.7632   22.4500 C   0  0  0  0  0  0  0  0  0  0  0  0
    9.0919  -17.4374   23.3416 O   0  0  0  0  0  0  0  0  0  0  0  0
   10.9544  -16.3448   22.5748 N   0  0  0  0  0  0  0  0  0  0  0  0
   11.8595  -16.7868   23.6454 C   0  0  1  0  0  0  0  0  0  0  0  0
   13.2607  -16.4334   23.3457 C   0  0  0  0  0  0  0  0  0  0  0  0
   14.2360  -16.9384   24.3597 C   0  0  0  0  0  0  0  0  0  0  0  0
   15.6396  -16.5805   24.1135 C   0  0  0  0  0  0  0  0  0  0  0  0
   16.1822  -17.0596   23.0849 O   0  0  0  0  0  0  0  0  0  0  0  0
   11.4014  -16.1626   24.9155 C   0  0  0  0  0  0  0  0  0  0  0  0
   11.0129  -14.9788   24.9433 O   0  0  0  0  0  0  0  0  0  0  0  0
   16.4217  -15.7643   24.9099 O   0  0  0  0  0  0  0  0  0  0  0  0
    8.7267  -13.6337   28.4777 N   0  0  0  0  0  0  0  0  0  0  0  0
    8.6627  -13.7044   27.0523 C   0  0  0  0  0  0  0  0  0  0  0  0
    8.2458  -12.6703   26.4382 O   0  0  0  0  0  0  0  0  0  0  0  0
    9.0545  -14.8884   26.2835 C   0  0  0  0  0  0  0  0  0  0  0  0
    9.3934  -16.0458   27.1296 C   0  0  0  0  0  0  0  0  0  0  0  0
   10.8410  -16.2514   27.3652 C   0  0  2  0  0  0  0  0  0  0  0  0
   11.3885  -16.8802   26.1289 N   0  0  0  0  0  0  0  0  0  0  0  0
   11.2775  -17.0142   28.5064 C   0  0  0  0  0  0  0  0  0  0  0  0
   12.0698  -18.1698   28.3999 O   0  0  0  0  0  0  0  0  0  0  0  0
   10.9361  -16.6507   29.6693 O   0  0  0  0  0  0  0  0  0  0  0  0
  2  1  1  1
  2  3  1  0
  4  3  1  0
  4  5  1  0
  6  5  1  0
  7  6  1  0
  8  2  1  0
  8  9  2  0
 10  8  1  0
 11 10  1  0
 11 12  1  6
 13 12  1  0
 13 14  1  0
 14 15  2  0
 16 11  1  0
 17 16  2  0
 18 14  1  0
 19 20  1  0
 20 21  2  0
 22 20  1  0
 22 23  1  0
 24 23  1  6
 24 25  1  0
 24 26  1  0
 25 16  1  0
 26 27  1  0
 28 26  2  0
M  END
$$$$
