KEQ.pdb
     RDKit          3D

 28 27  0  0  1  0  0  0  0  0999 V2000
    6.4238  -16.5597   21.8754 N   0  0  0  0  0  0  0  0  0  0  0  0
    7.7972  -16.2474   21.8957 C   0  0  1  0  0  0  0  0  0  0  0  0
    8.2179  -14.9085   21.4677 C   0  0  0  0  0  0  0  0  0  0  0  0
    8.0026  -14.4902   20.0898 C   0  0  0  0  0  0  0  0  0  0  0  0
    8.4423  -13.2454   19.4766 C   0  0  0  0  0  0  0  0  0  0  0  0
    8.1740  -12.9057   18.0753 C   0  0  0  0  0  0  0  0  0  0  0  0
    8.7857  -11.6905   17.5859 N   0  0  0  0  0  0  0  0  0  0  0  0
    8.3179  -16.5826   23.2760 C   0  0  0  0  0  0  0  0  0  0  0  0
    7.5124  -16.5474   24.2228 O   0  0  0  0  0  0  0  0  0  0  0  0
    9.6489  -16.9189   23.4822 N   0  0  0  0  0  0  0  0  0  0  0  0
   10.2093  -17.2939   24.7884 C   0  0  1  0  0  0  0  0  0  0  0  0
   11.5434  -17.9086   24.6451 C   0  0  0  0  0  0  0  0  0  0  0  0
   12.1182  -18.4000   25.9345 C   0  0  0  0  0  0  0  0  0  0  0  0
   13.4487  -19.0154   25.8347 C   0  0  0  0  0  0  0  0  0  0  0  0
   13.5382  -20.2379   26.1164 O   0  0  0  0  0  0  0  0  0  0  0  0
   10.2632  -16.0683   25.6295 C   0  0  0  0  0  0  0  0  0  0  0  0
   10.9215  -15.0732   25.2695 O   0  0  0  0  0  0  0  0  0  0  0  0
   14.6146  -18.3737   25.4594 O   0  0  0  0  0  0  0  0  0  0  0  0
    5.7398  -12.8773   27.0948 N   0  0  0  0  0  0  0  0  0  0  0  0
    6.8043  -12.6286   26.1751 C   0  0  0  0  0  0  0  0  0  0  0  0
    6.5639  -11.8337   25.2105 O   0  0  0  0  0  0  0  0  0  0  0  0
    8.1342  -13.2312   26.2962 C   0  0  0  0  0  0  0  0  0  0  0  0
    8.2791  -14.0874   27.4863 C   0  0  0  0  0  0  0  0  0  0  0  0
    9.6079  -14.7206   27.6488 C   0  0  2  0  0  0  0  0  0  0  0  0
    9.5768  -15.9845   26.8580 N   0  0  0  0  0  0  0  0  0  0  0  0
   10.1037  -15.0114   28.9695 C   0  0  0  0  0  0  0  0  0  0  0  0
   10.5335  -14.0170   29.8645 O   0  0  0  0  0  0  0  0  0  0  0  0
   10.1731  -16.2127   29.3609 O   0  0  0  0  0  0  0  0  0  0  0  0
  2  1  1  1
  2  3  1  0
  4  3  1  0
  4  5  1  0
  6  5  1  0
  7  6  1  0
  8  2  1  0
  8  9  2  0
 10  8  1  0
 11 10  1  0
 11 12  1  6
 13 12  1  0
 13 14  1  0
 14 15  2  0
 16 11  1  0
 17 16  2  0
 18 14  1  0
 19 20  1  0
 20 21  2  0
 22 20  1  0
 22 23  1  0
 24 23  1  1
 24 25  1  0
 24 26  1  0
 25 16  1  0
 26 27  1  0
 28 26  2  0
M  END
$$$$
