GQT.pdb
     RDKit          3D

 21 20  0  0  1  0  0  0  0  0999 V2000
   15.7912  -12.2756  -15.2944 N   0  0  0  0  0  0  0  0  0  0  0  0
   16.9011  -11.6941  -14.5736 C   0  0  0  0  0  0  0  0  0  0  0  0
   17.1392  -10.3201  -15.0979 C   0  0  0  0  0  0  0  0  0  0  0  0
   17.1941  -10.0776  -16.3260 O   0  0  0  0  0  0  0  0  0  0  0  0
   16.1450   -4.8185  -15.7401 N   0  0  0  0  0  0  0  0  0  0  0  0
   15.2255   -5.8819  -15.7042 C   0  0  0  0  0  0  0  0  0  0  0  0
   14.1873   -5.8740  -16.4069 O   0  0  0  0  0  0  0  0  0  0  0  0
   15.4745   -7.0391  -14.8251 C   0  0  0  0  0  0  0  0  0  0  0  0
   16.7959   -6.8949  -14.0897 C   0  0  0  0  0  0  0  0  0  0  0  0
   17.7497   -7.9351  -14.6930 C   0  0  2  0  0  0  0  0  0  0  0  0
   17.3165   -9.2115  -14.2309 N   0  0  0  0  0  0  0  0  0  0  0  0
   19.1332   -7.5963  -14.3495 C   0  0  0  0  0  0  0  0  0  0  0  0
   19.6253   -7.9314  -13.2476 O   0  0  0  0  0  0  0  0  0  0  0  0
   23.7251   -6.5487  -15.6656 C   0  0  0  0  0  0  0  0  0  0  0  0
   22.2965   -6.7568  -16.0309 C   0  0  1  0  0  0  0  0  0  0  0  0
   22.1085   -8.0559  -16.5517 O   0  0  0  0  0  0  0  0  0  0  0  0
   21.3432   -6.6264  -14.8679 C   0  0  2  0  0  0  0  0  0  0  0  0
   19.9805   -6.8843  -15.2238 N   0  0  0  0  0  0  0  0  0  0  0  0
   21.5277   -5.3023  -14.2267 C   0  0  0  0  0  0  0  0  0  0  0  0
   20.8992   -4.2940  -14.6460 O   0  0  0  0  0  0  0  0  0  0  0  0
   22.3834   -5.1075  -13.1549 O   0  0  0  0  0  0  0  0  0  0  0  0
  2  1  1  0
  2  3  1  0
  3  4  2  0
  3 11  1  0
  6  5  1  0
  7  6  2  0
  8  6  1  0
  9  8  1  0
 10 12  1  0
 10  9  1  1
 11 10  1  0
 12 18  1  0
 13 12  2  0
 15 14  1  1
 15 16  1  0
 17 19  1  0
 17 15  1  0
 17 18  1  6
 19 21  1  0
 20 19  2  0
M  END
$$$$
