GQT.pdb
     RDKit          3D

 21 20  0  0  1  0  0  0  0  0999 V2000
   20.0906  -12.5002  -17.4760 N   0  0  0  0  0  0  0  0  0  0  0  0
   20.6502  -11.2468  -17.9291 C   0  0  0  0  0  0  0  0  0  0  0  0
   21.2806  -10.5612  -16.7663 C   0  0  0  0  0  0  0  0  0  0  0  0
   20.8427  -10.6928  -15.5997 O   0  0  0  0  0  0  0  0  0  0  0  0
   27.0792  -10.2886  -15.9308 N   0  0  0  0  0  0  0  0  0  0  0  0
   26.0803  -11.2436  -15.6707 C   0  0  0  0  0  0  0  0  0  0  0  0
   26.3614  -12.4504  -15.4804 O   0  0  0  0  0  0  0  0  0  0  0  0
   24.6656  -10.8312  -15.6175 C   0  0  0  0  0  0  0  0  0  0  0  0
   24.5182   -9.3423  -15.8799 C   0  0  0  0  0  0  0  0  0  0  0  0
   23.0156   -9.0340  -15.8271 C   0  0  2  0  0  0  0  0  0  0  0  0
   22.4132   -9.7211  -16.9204 N   0  0  0  0  0  0  0  0  0  0  0  0
   22.8075   -7.5836  -15.8254 C   0  0  0  0  0  0  0  0  0  0  0  0
   23.2200   -6.8712  -16.7694 O   0  0  0  0  0  0  0  0  0  0  0  0
   20.0053   -5.5598  -16.4942 C   0  0  0  0  0  0  0  0  0  0  0  0
   20.4655   -5.1539  -15.1373 C   0  0  1  0  0  0  0  0  0  0  0  0
   19.6978   -5.8026  -14.1454 O   0  0  0  0  0  0  0  0  0  0  0  0
   21.9060   -5.5024  -14.8511 C   0  0  2  0  0  0  0  0  0  0  0  0
   22.1414   -6.9129  -14.7786 N   0  0  0  0  0  0  0  0  0  0  0  0
   22.3536   -4.7831  -13.6343 C   0  0  0  0  0  0  0  0  0  0  0  0
   22.6715   -5.4192  -12.5941 O   0  0  0  0  0  0  0  0  0  0  0  0
   22.4443   -3.4019  -13.5776 O   0  0  0  0  0  0  0  0  0  0  0  0
  2  1  1  0
  2  3  1  0
  3  4  2  0
  3 11  1  0
  6  5  1  0
  7  6  2  0
  8  6  1  0
  9  8  1  0
 10 12  1  0
 10  9  1  6
 11 10  1  0
 12 18  1  0
 13 12  2  0
 15 14  1  6
 15 16  1  0
 17 19  1  0
 17 15  1  0
 17 18  1  1
 19 21  1  0
 20 19  2  0
M  END
$$$$
