GQT.pdb
     RDKit          3D

 21 20  0  0  1  0  0  0  0  0999 V2000
   13.2265  -12.8088  -11.1514 N   0  0  0  0  0  0  0  0  0  0  0  0
   13.1448  -11.4937  -11.7458 C   0  0  0  0  0  0  0  0  0  0  0  0
   14.1702  -10.6209  -11.1083 C   0  0  0  0  0  0  0  0  0  0  0  0
   14.4576  -10.7124   -9.8921 O   0  0  0  0  0  0  0  0  0  0  0  0
   19.0404   -8.6159  -14.0775 N   0  0  0  0  0  0  0  0  0  0  0  0
   18.3701   -9.8379  -13.8906 C   0  0  0  0  0  0  0  0  0  0  0  0
   18.7004  -10.8694  -14.5219 O   0  0  0  0  0  0  0  0  0  0  0  0
   17.2515   -9.9234  -12.9338 C   0  0  0  0  0  0  0  0  0  0  0  0
   16.9453   -8.5657  -12.3253 C   0  0  0  0  0  0  0  0  0  0  0  0
   15.8644   -8.7958  -11.2602 C   0  0  2  0  0  0  0  0  0  0  0  0
   14.8766   -9.6379  -11.8478 N   0  0  0  0  0  0  0  0  0  0  0  0
   15.3623   -7.5065  -10.7778 C   0  0  0  0  0  0  0  0  0  0  0  0
   14.4589   -6.8947  -11.3928 O   0  0  0  0  0  0  0  0  0  0  0  0
   13.7946   -6.3682   -7.3295 C   0  0  0  0  0  0  0  0  0  0  0  0
   15.0122   -5.5955   -7.7009 C   0  0  1  0  0  0  0  0  0  0  0  0
   16.1452   -6.1199   -7.0409 O   0  0  0  0  0  0  0  0  0  0  0  0
   15.3305   -5.6286   -9.1761 C   0  0  2  0  0  0  0  0  0  0  0  0
   15.8572   -6.8867   -9.6115 N   0  0  0  0  0  0  0  0  0  0  0  0
   16.2160   -4.4883   -9.5139 C   0  0  0  0  0  0  0  0  0  0  0  0
   15.8101   -3.3022   -9.3877 O   0  0  0  0  0  0  0  0  0  0  0  0
   17.5100   -4.6630   -9.9766 O   0  0  0  0  0  0  0  0  0  0  0  0
  2  1  1  0
  2  3  1  0
  3  4  2  0
  3 11  1  0
  6  5  1  0
  7  6  2  0
  8  6  1  0
  9  8  1  0
 10 12  1  0
 10  9  1  6
 11 10  1  0
 12 18  1  0
 13 12  2  0
 15 14  1  6
 15 16  1  0
 17 19  1  0
 17 15  1  0
 17 18  1  1
 19 21  1  0
 20 19  2  0
M  END
$$$$
