GQT.pdb
     RDKit          3D

 21 20  0  0  1  0  0  0  0  0999 V2000
   21.3734  -11.5125  -16.5273 N   0  0  0  0  0  0  0  0  0  0  0  0
   20.1574  -11.0616  -15.8890 C   0  0  0  0  0  0  0  0  0  0  0  0
   20.0037   -9.6012  -16.1399 C   0  0  0  0  0  0  0  0  0  0  0  0
   20.8082   -8.9616  -16.8567 O   0  0  0  0  0  0  0  0  0  0  0  0
   14.6448   -8.3997  -16.0207 N   0  0  0  0  0  0  0  0  0  0  0  0
   15.3834   -8.6219  -17.1964 C   0  0  0  0  0  0  0  0  0  0  0  0
   14.8969   -9.2487  -18.1670 O   0  0  0  0  0  0  0  0  0  0  0  0
   16.7628   -8.1123  -17.3049 C   0  0  0  0  0  0  0  0  0  0  0  0
   17.1631   -7.3437  -16.0573 C   0  0  0  0  0  0  0  0  0  0  0  0
   18.6840   -7.4956  -15.9174 C   0  0  2  0  0  0  0  0  0  0  0  0
   18.9349   -8.8565  -15.5782 N   0  0  0  0  0  0  0  0  0  0  0  0
   19.1922   -6.5193  -14.9501 C   0  0  0  0  0  0  0  0  0  0  0  0
   18.8335   -6.5523  -13.7506 O   0  0  0  0  0  0  0  0  0  0  0  0
   22.3465   -6.0650  -13.2722 C   0  0  0  0  0  0  0  0  0  0  0  0
   22.0601   -4.7985  -14.0013 C   0  0  1  0  0  0  0  0  0  0  0  0
   22.7371   -4.7832  -15.2405 O   0  0  0  0  0  0  0  0  0  0  0  0
   20.5984   -4.5920  -14.3165 C   0  0  2  0  0  0  0  0  0  0  0  0
   20.1007   -5.5004  -15.3050 N   0  0  0  0  0  0  0  0  0  0  0  0
   20.3685   -3.1719  -14.6751 C   0  0  0  0  0  0  0  0  0  0  0  0
   19.9619   -2.8591  -15.8260 O   0  0  0  0  0  0  0  0  0  0  0  0
   20.5840   -2.1348  -13.7824 O   0  0  0  0  0  0  0  0  0  0  0  0
  2  1  1  0
  2  3  1  0
  3  4  2  0
  3 11  1  0
  6  5  1  0
  7  6  2  0
  8  6  1  0
  9  8  1  0
 10 12  1  0
 10  9  1  1
 11 10  1  0
 12 18  1  0
 13 12  2  0
 15 14  1  6
 15 16  1  0
 17 19  1  0
 17 15  1  0
 17 18  1  6
 19 21  1  0
 20 19  2  0
M  END
$$$$
