GQT.pdb
     RDKit          3D

 21 20  0  0  1  0  0  0  0  0999 V2000
   17.8464  -10.8616  -19.1485 N   0  0  0  0  0  0  0  0  0  0  0  0
   18.0423   -9.4570  -19.4279 C   0  0  0  0  0  0  0  0  0  0  0  0
   18.2551   -8.7422  -18.1382 C   0  0  0  0  0  0  0  0  0  0  0  0
   17.3026   -8.4304  -17.3861 O   0  0  0  0  0  0  0  0  0  0  0  0
   22.6909   -9.6348  -14.0313 N   0  0  0  0  0  0  0  0  0  0  0  0
   21.9439   -8.5746  -13.4880 C   0  0  0  0  0  0  0  0  0  0  0  0
   22.0725   -8.2292  -12.2897 O   0  0  0  0  0  0  0  0  0  0  0  0
   20.9836   -7.8430  -14.3346 C   0  0  0  0  0  0  0  0  0  0  0  0
   20.8191   -8.5172  -15.6859 C   0  0  0  0  0  0  0  0  0  0  0  0
   19.7790   -7.6975  -16.4616 C   0  0  2  0  0  0  0  0  0  0  0  0
   19.5515   -8.3764  -17.6935 N   0  0  0  0  0  0  0  0  0  0  0  0
   20.2421   -6.3143  -16.6007 C   0  0  0  0  0  0  0  0  0  0  0  0
   21.0888   -6.0013  -17.4690 O   0  0  0  0  0  0  0  0  0  0  0  0
   18.4301   -3.1087  -17.4970 C   0  0  0  0  0  0  0  0  0  0  0  0
   19.1326   -2.9343  -16.1956 C   0  0  1  0  0  0  0  0  0  0  0  0
   18.2264   -3.0957  -15.1246 O   0  0  0  0  0  0  0  0  0  0  0  0
   20.2430   -3.9298  -15.9624 C   0  0  2  0  0  0  0  0  0  0  0  0
   19.7708   -5.2690  -15.7794 N   0  0  0  0  0  0  0  0  0  0  0  0
   21.0941   -3.4636  -14.8413 C   0  0  0  0  0  0  0  0  0  0  0  0
   21.1459   -4.1131  -13.7628 O   0  0  0  0  0  0  0  0  0  0  0  0
   21.8616   -2.3130  -14.9185 O   0  0  0  0  0  0  0  0  0  0  0  0
  2  1  1  0
  2  3  1  0
  3  4  2  0
  3 11  1  0
  6  5  1  0
  7  6  2  0
  8  6  1  0
  9  8  1  0
 10 12  1  0
 10  9  1  6
 11 10  1  0
 12 18  1  0
 13 12  2  0
 15 14  1  6
 15 16  1  0
 17 19  1  0
 17 15  1  0
 17 18  1  1
 19 21  1  0
 20 19  2  0
M  END
$$$$
