GQT.pdb
     RDKit          3D

 21 20  0  0  1  0  0  0  0  0999 V2000
   25.9317  -25.0393  -16.0774 N   0  0  0  0  0  0  0  0  0  0  0  0
   26.3583  -23.7460  -15.5930 C   0  0  0  0  0  0  0  0  0  0  0  0
   25.2679  -23.1693  -14.7576 C   0  0  0  0  0  0  0  0  0  0  0  0
   24.1419  -23.7116  -14.6678 O   0  0  0  0  0  0  0  0  0  0  0  0
   25.9789  -19.6856   -9.7073 N   0  0  0  0  0  0  0  0  0  0  0  0
   25.2588  -20.8912   -9.6332 C   0  0  0  0  0  0  0  0  0  0  0  0
   25.0643  -21.4719   -8.5393 O   0  0  0  0  0  0  0  0  0  0  0  0
   24.7140  -21.4982  -10.8616 C   0  0  0  0  0  0  0  0  0  0  0  0
   25.0393  -20.6535  -12.0815 C   0  0  0  0  0  0  0  0  0  0  0  0
   24.3946  -21.3544  -13.2852 C   0  0  2  0  0  0  0  0  0  0  0  0
   25.4487  -21.9723  -14.0181 N   0  0  0  0  0  0  0  0  0  0  0  0
   23.5984  -20.3915  -14.0507 C   0  0  0  0  0  0  0  0  0  0  0  0
   24.1058  -19.3289  -14.4773 O   0  0  0  0  0  0  0  0  0  0  0  0
   22.3601  -20.3642  -17.3939 C   0  0  0  0  0  0  0  0  0  0  0  0
   21.1724  -20.1610  -16.5189 C   0  0  1  0  0  0  0  0  0  0  0  0
   20.4876  -21.3817  -16.3316 O   0  0  0  0  0  0  0  0  0  0  0  0
   21.5103  -19.6508  -15.1390 C   0  0  2  0  0  0  0  0  0  0  0  0
   22.2356  -20.5993  -14.3488 N   0  0  0  0  0  0  0  0  0  0  0  0
   20.2732  -19.1766  -14.4734 C   0  0  0  0  0  0  0  0  0  0  0  0
   19.8865  -19.6973  -13.3932 O   0  0  0  0  0  0  0  0  0  0  0  0
   19.4928  -18.1569  -14.9932 O   0  0  0  0  0  0  0  0  0  0  0  0
  2  1  1  0
  2  3  1  0
  3  4  2  0
  3 11  1  0
  6  5  1  0
  7  6  2  0
  8  6  1  0
  9  8  1  0
 10 12  1  0
 10  9  1  1
 11 10  1  0
 12 18  1  0
 13 12  2  0
 15 14  1  6
 15 16  1  0
 17 19  1  0
 17 15  1  0
 17 18  1  1
 19 21  1  0
 20 19  2  0
M  END
$$$$
