GQT.pdb
     RDKit          3D

 21 20  0  0  1  0  0  0  0  0999 V2000
   18.2398  -16.8154  -20.0818 N   0  0  0  0  0  0  0  0  0  0  0  0
   19.0957  -16.1724  -19.1106 C   0  0  0  0  0  0  0  0  0  0  0  0
   18.3208  -15.0933  -18.4365 C   0  0  0  0  0  0  0  0  0  0  0  0
   17.5085  -14.3702  -19.0589 O   0  0  0  0  0  0  0  0  0  0  0  0
   15.7908  -15.6920  -13.1395 N   0  0  0  0  0  0  0  0  0  0  0  0
   15.4221  -16.0345  -14.4526 C   0  0  0  0  0  0  0  0  0  0  0  0
   14.5468  -16.9022  -14.6820 O   0  0  0  0  0  0  0  0  0  0  0  0
   16.0708  -15.3665  -15.5958 C   0  0  0  0  0  0  0  0  0  0  0  0
   17.1336  -14.3872  -15.1278 C   0  0  0  0  0  0  0  0  0  0  0  0
   17.7575  -13.7796  -16.3916 C   0  0  2  0  0  0  0  0  0  0  0  0
   18.4630  -14.8277  -17.0503 N   0  0  0  0  0  0  0  0  0  0  0  0
   18.5786  -12.6209  -16.0305 C   0  0  0  0  0  0  0  0  0  0  0  0
   19.6489  -12.7611  -15.3953 O   0  0  0  0  0  0  0  0  0  0  0  0
   20.2735   -9.9603  -18.1831 C   0  0  0  0  0  0  0  0  0  0  0  0
   19.4142   -9.3043  -17.1590 C   0  0  1  0  0  0  0  0  0  0  0  0
   18.1910   -8.8964  -17.7346 O   0  0  0  0  0  0  0  0  0  0  0  0
   19.0563  -10.1994  -15.9974 C   0  0  2  0  0  0  0  0  0  0  0  0
   18.2198  -11.2999  -16.3703 N   0  0  0  0  0  0  0  0  0  0  0  0
   18.4746   -9.3807  -14.9067 C   0  0  0  0  0  0  0  0  0  0  0  0
   17.2671   -9.5200  -14.5748 O   0  0  0  0  0  0  0  0  0  0  0  0
   19.2126   -8.4386  -14.2089 O   0  0  0  0  0  0  0  0  0  0  0  0
  2  1  1  0
  2  3  1  0
  3  4  2  0
  3 11  1  0
  6  5  1  0
  7  6  2  0
  8  6  1  0
  9  8  1  0
 10 12  1  0
 10  9  1  1
 11 10  1  0
 12 18  1  0
 13 12  2  0
 15 14  1  6
 15 16  1  0
 17 19  1  0
 17 15  1  0
 17 18  1  6
 19 21  1  0
 20 19  2  0
M  END
$$$$
