GQT.pdb
     RDKit          3D

 21 20  0  0  1  0  0  0  0  0999 V2000
   25.8601  -11.7099  -15.9428 N   0  0  0  0  0  0  0  0  0  0  0  0
   24.7590  -11.1980  -15.1587 C   0  0  0  0  0  0  0  0  0  0  0  0
   23.9022  -10.3547  -16.0386 C   0  0  0  0  0  0  0  0  0  0  0  0
   24.1714  -10.1692  -17.2483 O   0  0  0  0  0  0  0  0  0  0  0  0
   20.1424  -11.8659  -14.7100 N   0  0  0  0  0  0  0  0  0  0  0  0
   20.0299  -11.9390  -16.1098 C   0  0  0  0  0  0  0  0  0  0  0  0
   19.8317  -13.0299  -16.6950 O   0  0  0  0  0  0  0  0  0  0  0  0
   20.1454  -10.7132  -16.9211 C   0  0  0  0  0  0  0  0  0  0  0  0
   20.4172   -9.5008  -16.0473 C   0  0  0  0  0  0  0  0  0  0  0  0
   21.8294   -9.0137  -16.3994 C   0  0  2  0  0  0  0  0  0  0  0  0
   22.7333   -9.7159  -15.5508 N   0  0  0  0  0  0  0  0  0  0  0  0
   21.8921   -7.5541  -16.2873 C   0  0  0  0  0  0  0  0  0  0  0  0
   22.1394   -7.0010  -15.1911 O   0  0  0  0  0  0  0  0  0  0  0  0
   22.3374   -3.1011  -18.3589 C   0  0  0  0  0  0  0  0  0  0  0  0
   22.0809   -4.5585  -18.5261 C   0  0  1  0  0  0  0  0  0  0  0  0
   23.2156   -5.1956  -19.0744 O   0  0  0  0  0  0  0  0  0  0  0  0
   21.7764   -5.2775  -17.2343 C   0  0  2  0  0  0  0  0  0  0  0  0
   21.6814   -6.6978  -17.3880 N   0  0  0  0  0  0  0  0  0  0  0  0
   20.5661   -4.6854  -16.6154 C   0  0  0  0  0  0  0  0  0  0  0  0
   19.4164   -5.0578  -16.9720 O   0  0  0  0  0  0  0  0  0  0  0  0
   20.6336   -3.7115  -15.6327 O   0  0  0  0  0  0  0  0  0  0  0  0
  2  1  1  0
  2  3  1  0
  3  4  2  0
  3 11  1  0
  6  5  1  0
  7  6  2  0
  8  6  1  0
  9  8  1  0
 10 12  1  0
 10  9  1  1
 11 10  1  0
 12 18  1  0
 13 12  2  0
 15 14  1  1
 15 16  1  0
 17 19  1  0
 17 15  1  0
 17 18  1  6
 19 21  1  0
 20 19  2  0
M  END
$$$$
