GQT.pdb
     RDKit          3D

 21 20  0  0  1  0  0  0  0  0999 V2000
   27.5224  -22.4280  -16.1616 N   0  0  0  0  0  0  0  0  0  0  0  0
   26.5180  -21.3887  -16.1790 C   0  0  0  0  0  0  0  0  0  0  0  0
   25.5353  -21.6610  -15.0928 C   0  0  0  0  0  0  0  0  0  0  0  0
   25.0507  -22.8012  -14.9054 O   0  0  0  0  0  0  0  0  0  0  0  0
   25.8374  -22.9508  -11.1182 N   0  0  0  0  0  0  0  0  0  0  0  0
   25.5041  -21.6807  -10.6152 C   0  0  0  0  0  0  0  0  0  0  0  0
   24.9974  -21.5391   -9.4772 O   0  0  0  0  0  0  0  0  0  0  0  0
   25.7501  -20.4788  -11.4331 C   0  0  0  0  0  0  0  0  0  0  0  0
   24.4577  -19.9462  -12.0277 C   0  0  0  0  0  0  0  0  0  0  0  0
   24.1081  -20.8617  -13.2090 C   0  0  2  0  0  0  0  0  0  0  0  0
   25.0961  -20.6399  -14.2114 N   0  0  0  0  0  0  0  0  0  0  0  0
   22.7305  -20.6095  -13.6400 C   0  0  0  0  0  0  0  0  0  0  0  0
   22.4266  -19.5571  -14.2471 O   0  0  0  0  0  0  0  0  0  0  0  0
   20.4518  -23.5748  -15.1800 C   0  0  0  0  0  0  0  0  0  0  0  0
   20.2663  -22.1042  -15.3224 C   0  0  1  0  0  0  0  0  0  0  0  0
   18.9725  -21.8188  -15.8112 O   0  0  0  0  0  0  0  0  0  0  0  0
   20.4053  -21.3424  -14.0267 C   0  0  2  0  0  0  0  0  0  0  0  0
   21.6810  -21.5210  -13.4015 N   0  0  0  0  0  0  0  0  0  0  0  0
   19.2746  -21.6852  -13.1310 C   0  0  0  0  0  0  0  0  0  0  0  0
   18.0862  -21.4612  -13.4845 O   0  0  0  0  0  0  0  0  0  0  0  0
   19.4609  -22.2580  -11.8835 O   0  0  0  0  0  0  0  0  0  0  0  0
  2  1  1  0
  2  3  1  0
  3  4  2  0
  3 11  1  0
  6  5  1  0
  7  6  2  0
  8  6  1  0
  9  8  1  0
 10 12  1  0
 10  9  1  1
 11 10  1  0
 12 18  1  0
 13 12  2  0
 15 14  1  1
 15 16  1  0
 17 19  1  0
 17 15  1  0
 17 18  1  1
 19 21  1  0
 20 19  2  0
M  END
$$$$
