GQT.pdb
     RDKit          3D

 21 20  0  0  1  0  0  0  0  0999 V2000
   28.0125  -23.0679  -16.5967 N   0  0  0  0  0  0  0  0  0  0  0  0
   27.9539  -21.9035  -15.7422 C   0  0  0  0  0  0  0  0  0  0  0  0
   26.7036  -21.9705  -14.9348 C   0  0  0  0  0  0  0  0  0  0  0  0
   25.7587  -22.7367  -15.2351 O   0  0  0  0  0  0  0  0  0  0  0  0
   26.0681  -20.1203   -8.9262 N   0  0  0  0  0  0  0  0  0  0  0  0
   24.8907  -20.8234   -9.2371 C   0  0  0  0  0  0  0  0  0  0  0  0
   24.0698  -21.1519   -8.3483 O   0  0  0  0  0  0  0  0  0  0  0  0
   24.6013  -21.1897  -10.6357 C   0  0  0  0  0  0  0  0  0  0  0  0
   25.7703  -20.8506  -11.5445 C   0  0  0  0  0  0  0  0  0  0  0  0
   25.3512  -21.2496  -12.9661 C   0  0  2  0  0  0  0  0  0  0  0  0
   26.5177  -21.1677  -13.7802 N   0  0  0  0  0  0  0  0  0  0  0  0
   24.2355  -20.4086  -13.4077 C   0  0  0  0  0  0  0  0  0  0  0  0
   24.3433  -19.1614  -13.4469 O   0  0  0  0  0  0  0  0  0  0  0  0
   22.8528  -19.5287  -16.4934 C   0  0  0  0  0  0  0  0  0  0  0  0
   21.7089  -20.0803  -15.7158 C   0  0  1  0  0  0  0  0  0  0  0  0
   21.4719  -21.4240  -16.0797 O   0  0  0  0  0  0  0  0  0  0  0  0
   21.9286  -20.0801  -14.2224 C   0  0  2  0  0  0  0  0  0  0  0  0
   22.9935  -20.9433  -13.8088 N   0  0  0  0  0  0  0  0  0  0  0  0
   20.6485  -20.3797  -13.5369 C   0  0  0  0  0  0  0  0  0  0  0  0
   19.6879  -19.5660  -13.5888 O   0  0  0  0  0  0  0  0  0  0  0  0
   20.4448  -21.5460  -12.8177 O   0  0  0  0  0  0  0  0  0  0  0  0
  2  1  1  0
  2  3  1  0
  3  4  2  0
  3 11  1  0
  6  5  1  0
  7  6  2  0
  8  6  1  0
  9  8  1  0
 10 12  1  0
 10  9  1  1
 11 10  1  0
 12 18  1  0
 13 12  2  0
 15 14  1  6
 15 16  1  0
 17 19  1  0
 17 15  1  0
 17 18  1  6
 19 21  1  0
 20 19  2  0
M  END
$$$$
