GQT.pdb
     RDKit          3D

 21 20  0  0  1  0  0  0  0  0999 V2000
   18.3881  -15.1918  -16.9337 N   0  0  0  0  0  0  0  0  0  0  0  0
   18.3181  -14.3361  -15.7708 C   0  0  0  0  0  0  0  0  0  0  0  0
   18.5253  -12.9266  -16.2064 C   0  0  0  0  0  0  0  0  0  0  0  0
   19.4113  -12.6100  -17.0340 O   0  0  0  0  0  0  0  0  0  0  0  0
   14.3948   -8.1682  -15.8202 N   0  0  0  0  0  0  0  0  0  0  0  0
   15.5168   -7.6312  -16.4760 C   0  0  0  0  0  0  0  0  0  0  0  0
   15.4930   -6.4847  -16.9826 O   0  0  0  0  0  0  0  0  0  0  0  0
   16.7567   -8.4227  -16.5781 C   0  0  0  0  0  0  0  0  0  0  0  0
   16.5852   -9.7942  -15.9480 C   0  0  0  0  0  0  0  0  0  0  0  0
   17.9401  -10.5051  -16.0688 C   0  0  2  0  0  0  0  0  0  0  0  0
   17.7275  -11.8663  -15.7049 N   0  0  0  0  0  0  0  0  0  0  0  0
   18.9410   -9.8039  -15.2604 C   0  0  0  0  0  0  0  0  0  0  0  0
   18.8469   -9.7597  -14.0122 O   0  0  0  0  0  0  0  0  0  0  0  0
   22.8634  -10.2124  -15.2323 C   0  0  0  0  0  0  0  0  0  0  0  0
   22.4482   -8.7947  -15.4205 C   0  0  1  0  0  0  0  0  0  0  0  0
   22.5302   -8.4374  -16.7843 O   0  0  0  0  0  0  0  0  0  0  0  0
   21.0278   -8.5124  -14.9950 C   0  0  2  0  0  0  0  0  0  0  0  0
   20.0524   -9.1474  -15.8288 N   0  0  0  0  0  0  0  0  0  0  0  0
   20.8273   -7.0469  -14.8919 C   0  0  0  0  0  0  0  0  0  0  0  0
   19.9915   -6.4608  -15.6304 O   0  0  0  0  0  0  0  0  0  0  0  0
   21.5337   -6.2606  -13.9965 O   0  0  0  0  0  0  0  0  0  0  0  0
  2  1  1  0
  2  3  1  0
  3  4  2  0
  3 11  1  0
  6  5  1  0
  7  6  2  0
  8  6  1  0
  9  8  1  0
 10 12  1  0
 10  9  1  1
 11 10  1  0
 12 18  1  0
 13 12  2  0
 15 14  1  6
 15 16  1  0
 17 19  1  0
 17 15  1  0
 17 18  1  6
 19 21  1  0
 20 19  2  0
M  END
$$$$
