GQT.pdb
     RDKit          3D

 21 20  0  0  1  0  0  0  0  0999 V2000
   22.3339  -12.2837  -18.2449 N   0  0  0  0  0  0  0  0  0  0  0  0
   22.6486  -11.4323  -17.1200 C   0  0  0  0  0  0  0  0  0  0  0  0
   21.5807  -10.4015  -16.9922 C   0  0  0  0  0  0  0  0  0  0  0  0
   21.5100   -9.4182  -17.7656 O   0  0  0  0  0  0  0  0  0  0  0  0
   16.0884  -11.3539  -14.3534 N   0  0  0  0  0  0  0  0  0  0  0  0
   16.5898  -11.7169  -15.6160 C   0  0  0  0  0  0  0  0  0  0  0  0
   16.0076  -12.5646  -16.3331 O   0  0  0  0  0  0  0  0  0  0  0  0
   17.8273  -11.0948  -16.1216 C   0  0  0  0  0  0  0  0  0  0  0  0
   18.4029  -10.1182  -15.1105 C   0  0  0  0  0  0  0  0  0  0  0  0
   19.6152   -9.4567  -15.7802 C   0  0  2  0  0  0  0  0  0  0  0  0
   20.5851  -10.4802  -15.9847 N   0  0  0  0  0  0  0  0  0  0  0  0
   20.0766   -8.3292  -14.9660 C   0  0  0  0  0  0  0  0  0  0  0  0
   20.5527   -8.5113  -13.8220 O   0  0  0  0  0  0  0  0  0  0  0  0
   22.9449   -6.2107  -15.0341 C   0  0  0  0  0  0  0  0  0  0  0  0
   21.7663   -5.3025  -15.0943 C   0  0  1  0  0  0  0  0  0  0  0  0
   21.5136   -4.9161  -16.4288 O   0  0  0  0  0  0  0  0  0  0  0  0
   20.4885   -5.9252  -14.5862 C   0  0  2  0  0  0  0  0  0  0  0  0
   20.0137   -6.9931  -15.4133 N   0  0  0  0  0  0  0  0  0  0  0  0
   19.4730   -4.8648  -14.3795 C   0  0  0  0  0  0  0  0  0  0  0  0
   18.4347   -4.8241  -15.0920 O   0  0  0  0  0  0  0  0  0  0  0  0
   19.6091   -3.8829  -13.4119 O   0  0  0  0  0  0  0  0  0  0  0  0
  2  1  1  0
  2  3  1  0
  3  4  2  0
  3 11  1  0
  6  5  1  0
  7  6  2  0
  8  6  1  0
  9  8  1  0
 10 12  1  0
 10  9  1  1
 11 10  1  0
 12 18  1  0
 13 12  2  0
 15 14  1  6
 15 16  1  0
 17 19  1  0
 17 15  1  0
 17 18  1  6
 19 21  1  0
 20 19  2  0
M  END
$$$$
