GQT.pdb
     RDKit          3D

 21 20  0  0  1  0  0  0  0  0999 V2000
   26.4941  -13.3752  -16.7811 N   0  0  0  0  0  0  0  0  0  0  0  0
   26.2017  -13.9853  -15.5038 C   0  0  0  0  0  0  0  0  0  0  0  0
   25.9075  -15.4290  -15.7243 C   0  0  0  0  0  0  0  0  0  0  0  0
   25.3650  -15.8439  -16.7749 O   0  0  0  0  0  0  0  0  0  0  0  0
   28.1554  -19.9059  -15.8424 N   0  0  0  0  0  0  0  0  0  0  0  0
   27.1892  -20.6702  -15.1644 C   0  0  0  0  0  0  0  0  0  0  0  0
   27.0097  -21.8826  -15.4283 O   0  0  0  0  0  0  0  0  0  0  0  0
   26.3609  -20.0454  -14.1167 C   0  0  0  0  0  0  0  0  0  0  0  0
   26.7297  -18.5844  -13.9246 C   0  0  0  0  0  0  0  0  0  0  0  0
   25.8468  -17.7786  -14.8873 C   0  0  2  0  0  0  0  0  0  0  0  0
   26.2275  -16.4121  -14.7530 N   0  0  0  0  0  0  0  0  0  0  0  0
   24.4342  -18.0513  -14.6094 C   0  0  0  0  0  0  0  0  0  0  0  0
   23.9154  -17.7206  -13.5185 O   0  0  0  0  0  0  0  0  0  0  0  0
   19.8483  -18.6537  -16.1271 C   0  0  0  0  0  0  0  0  0  0  0  0
   21.3028  -18.5425  -16.4267 C   0  0  1  0  0  0  0  0  0  0  0  0
   21.6235  -17.2229  -16.8139 O   0  0  0  0  0  0  0  0  0  0  0  0
   22.1949  -18.8665  -15.2530 C   0  0  2  0  0  0  0  0  0  0  0  0
   23.5872  -18.6919  -15.5376 N   0  0  0  0  0  0  0  0  0  0  0  0
   21.8776  -20.2264  -14.7547 C   0  0  0  0  0  0  0  0  0  0  0  0
   20.9177  -20.4098  -13.9594 O   0  0  0  0  0  0  0  0  0  0  0  0
   22.6046  -21.3444  -15.1293 O   0  0  0  0  0  0  0  0  0  0  0  0
  2  1  1  0
  2  3  1  0
  3  4  2  0
  3 11  1  0
  6  5  1  0
  7  6  2  0
  8  6  1  0
  9  8  1  0
 10 12  1  0
 10  9  1  1
 11 10  1  0
 12 18  1  0
 13 12  2  0
 15 14  1  1
 15 16  1  0
 17 19  1  0
 17 15  1  0
 17 18  1  6
 19 21  1  0
 20 19  2  0
M  END
$$$$
