MDY.pdb
     RDKit          3D

 29 29  0  0  1  0  0  0  0  0999 V2000
   25.6441  -13.8186  -17.7558 C   0  0  0  0  0  0  0  0  0  0  0  0
   24.9511  -13.5202  -19.3585 S   0  0  0  0  0  0  0  0  0  0  0  0
   23.2548  -13.0789  -19.4814 C   0  0  0  0  0  0  0  0  0  0  0  0
   22.2481  -14.1321  -19.2497 C   0  0  0  0  0  0  0  0  0  0  0  0
   22.4212  -15.3705  -20.0229 C   0  0  2  0  0  0  0  0  0  0  0  0
   22.2111  -15.2665  -21.4391 N   0  0  0  0  0  0  0  0  0  0  0  0
   21.6197  -16.5152  -19.4550 C   0  0  0  0  0  0  0  0  0  0  0  0
   20.5861  -16.8428  -20.0791 O   0  0  0  0  0  0  0  0  0  0  0  0
   21.9831  -17.1975  -18.2947 N   0  0  0  0  0  0  0  0  0  0  0  0
   21.2568  -18.3852  -17.7837 C   0  0  1  0  0  0  0  0  0  0  0  0
   22.3483  -19.2932  -17.2745 C   0  0  0  0  0  0  0  0  0  0  0  0
   21.8975  -20.6371  -16.9875 C   0  0  0  0  0  0  0  0  0  0  0  0
   20.7338  -21.0209  -17.1795 O   0  0  0  0  0  0  0  0  0  0  0  0
   20.3048  -17.9423  -16.7379 C   0  0  0  0  0  0  0  0  0  0  0  0
   20.6907  -17.2417  -15.7830 O   0  0  0  0  0  0  0  0  0  0  0  0
   22.7912  -21.5745  -16.4674 O   0  0  0  0  0  0  0  0  0  0  0  0
   18.8927  -11.5025  -16.2164 O   0  0  0  0  0  0  0  0  0  0  0  0
   18.4445  -12.8162  -16.2689 C   0  0  0  0  0  0  0  0  0  0  0  0
   17.6041  -13.2717  -15.3021 C   0  0  0  0  0  0  0  0  0  0  0  0
   17.1435  -14.5929  -15.3412 C   0  0  0  0  0  0  0  0  0  0  0  0
   17.5253  -15.4515  -16.3460 C   0  0  0  0  0  0  0  0  0  0  0  0
   17.0147  -16.8238  -16.3418 C   0  0  0  0  0  0  0  0  0  0  0  0
   17.9618  -17.8484  -15.7694 C   0  0  2  0  0  0  0  0  0  0  0  0
   18.9102  -18.2896  -16.7669 N   0  0  0  0  0  0  0  0  0  0  0  0
   17.3164  -18.9978  -15.1414 C   0  0  0  0  0  0  0  0  0  0  0  0
   16.4342  -18.8818  -14.2418 O   0  0  0  0  0  0  0  0  0  0  0  0
   18.3765  -14.9941  -17.3274 C   0  0  0  0  0  0  0  0  0  0  0  0
   18.8214  -13.6838  -17.2716 C   0  0  0  0  0  0  0  0  0  0  0  0
   17.6324  -20.3124  -15.4948 O   0  0  0  0  0  0  0  0  0  0  0  0
  2  1  1  0
  3  2  1  0
  4  5  1  0
  4  3  1  0
  5  6  1  6
  7  8  2  0
  7  5  1  0
  9  7  1  0
 10  9  1  0
 10 11  1  1
 12 13  2  0
 12 11  1  0
 14 24  1  0
 14 10  1  0
 15 14  2  0
 16 12  1  0
 18 19  2  0
 18 17  1  0
 20 19  1  0
 21 20  2  0
 22 21  1  0
 23 22  1  6
 23 24  1  0
 25 23  1  0
 26 25  2  0
 27 21  1  0
 27 28  2  0
 28 18  1  0
 29 25  1  0
M  END
$$$$
