MDY.pdb
     RDKit          3D

 29 29  0  0  1  0  0  0  0  0999 V2000
   13.9470  -13.9087   -9.8062 C   0  0  0  0  0  0  0  0  0  0  0  0
   14.6562  -12.3762  -10.3409 S   0  0  0  0  0  0  0  0  0  0  0  0
   14.1398  -10.8856   -9.5667 C   0  0  0  0  0  0  0  0  0  0  0  0
   14.7266   -9.6193  -10.0448 C   0  0  0  0  0  0  0  0  0  0  0  0
   14.2715   -8.3996   -9.3617 C   0  0  2  0  0  0  0  0  0  0  0  0
   12.8511   -8.2023   -9.2990 N   0  0  0  0  0  0  0  0  0  0  0  0
   14.9517   -7.1613   -9.8903 C   0  0  0  0  0  0  0  0  0  0  0  0
   14.2083   -6.2412  -10.2977 O   0  0  0  0  0  0  0  0  0  0  0  0
   16.3374   -7.0148   -9.9369 N   0  0  0  0  0  0  0  0  0  0  0  0
   17.0137   -5.7961  -10.4439 C   0  0  1  0  0  0  0  0  0  0  0  0
   16.6141   -4.7196   -9.4660 C   0  0  0  0  0  0  0  0  0  0  0  0
   17.2400   -3.4414   -9.7231 C   0  0  0  0  0  0  0  0  0  0  0  0
   17.9044   -2.8256   -8.8759 O   0  0  0  0  0  0  0  0  0  0  0  0
   18.4724   -6.0526  -10.4948 C   0  0  0  0  0  0  0  0  0  0  0  0
   19.0001   -6.8755   -9.7229 O   0  0  0  0  0  0  0  0  0  0  0  0
   17.1098   -2.8427  -10.9770 O   0  0  0  0  0  0  0  0  0  0  0  0
   23.9054  -10.4055  -15.2928 O   0  0  0  0  0  0  0  0  0  0  0  0
   22.9147   -9.6348  -14.6979 C   0  0  0  0  0  0  0  0  0  0  0  0
   22.6968   -9.7479  -13.3606 C   0  0  0  0  0  0  0  0  0  0  0  0
   21.7023   -8.9778  -12.7464 C   0  0  0  0  0  0  0  0  0  0  0  0
   20.9312   -8.0993  -13.4718 C   0  0  0  0  0  0  0  0  0  0  0  0
   19.9044   -7.3163  -12.7815 C   0  0  0  0  0  0  0  0  0  0  0  0
   20.4035   -6.0457  -12.1402 C   0  0  2  0  0  0  0  0  0  0  0  0
   19.3424   -5.3790  -11.4200 N   0  0  0  0  0  0  0  0  0  0  0  0
   21.0588   -5.1136  -13.0532 C   0  0  0  0  0  0  0  0  0  0  0  0
   20.4160   -4.3395  -13.8205 O   0  0  0  0  0  0  0  0  0  0  0  0
   21.1487   -7.9817  -14.8266 C   0  0  0  0  0  0  0  0  0  0  0  0
   22.1372   -8.7519  -15.4162 C   0  0  0  0  0  0  0  0  0  0  0  0
   22.4499   -5.0134  -13.1411 O   0  0  0  0  0  0  0  0  0  0  0  0
  2  1  1  0
  3  2  1  0
  4  5  1  0
  4  3  1  0
  5  6  1  6
  7  8  2  0
  7  5  1  0
  9  7  1  0
 10  9  1  0
 10 11  1  1
 12 13  2  0
 12 11  1  0
 14 24  1  0
 14 10  1  0
 15 14  2  0
 16 12  1  0
 18 19  2  0
 18 17  1  0
 20 19  1  0
 21 20  2  0
 22 21  1  0
 23 22  1  6
 23 24  1  0
 25 23  1  0
 26 25  2  0
 27 21  1  0
 27 28  2  0
 28 18  1  0
 29 25  1  0
M  END
$$$$
