MDY.pdb
     RDKit          3D

 29 29  0  0  1  0  0  0  0  0999 V2000
   29.4028  -19.8562   -4.7898 C   0  0  0  0  0  0  0  0  0  0  0  0
   28.1283  -20.2153   -5.9664 S   0  0  0  0  0  0  0  0  0  0  0  0
   28.5855  -20.6853   -7.5966 C   0  0  0  0  0  0  0  0  0  0  0  0
   27.5085  -20.8984   -8.5821 C   0  0  0  0  0  0  0  0  0  0  0  0
   27.9246  -21.4362   -9.8855 C   0  0  2  0  0  0  0  0  0  0  0  0
   29.3310  -21.3898  -10.1690 N   0  0  0  0  0  0  0  0  0  0  0  0
   27.1382  -20.8406  -11.0266 C   0  0  0  0  0  0  0  0  0  0  0  0
   27.4381  -19.6753  -11.3691 O   0  0  0  0  0  0  0  0  0  0  0  0
   26.1213  -21.5259  -11.6901 N   0  0  0  0  0  0  0  0  0  0  0  0
   25.3639  -20.9590  -12.8321 C   0  0  1  0  0  0  0  0  0  0  0  0
   25.6852  -21.8816  -13.9812 C   0  0  0  0  0  0  0  0  0  0  0  0
   26.8909  -21.5215  -14.6942 C   0  0  0  0  0  0  0  0  0  0  0  0
   27.5533  -20.5038  -14.4418 O   0  0  0  0  0  0  0  0  0  0  0  0
   23.9266  -20.9216  -12.4731 C   0  0  0  0  0  0  0  0  0  0  0  0
   23.5674  -20.9847  -11.2821 O   0  0  0  0  0  0  0  0  0  0  0  0
   27.3606  -22.3384  -15.7237 O   0  0  0  0  0  0  0  0  0  0  0  0
   15.9255  -18.2320  -10.9968 O   0  0  0  0  0  0  0  0  0  0  0  0
   17.2481  -18.5544  -11.2728 C   0  0  0  0  0  0  0  0  0  0  0  0
   17.8959  -17.9048  -12.2763 C   0  0  0  0  0  0  0  0  0  0  0  0
   19.2288  -18.2182  -12.5665 C   0  0  0  0  0  0  0  0  0  0  0  0
   19.9069  -19.1790  -11.8526 C   0  0  0  0  0  0  0  0  0  0  0  0
   21.3005  -19.4690  -12.1953 C   0  0  0  0  0  0  0  0  0  0  0  0
   21.4915  -20.6397  -13.1269 C   0  0  2  0  0  0  0  0  0  0  0  0
   22.8874  -20.8124  -13.4602 N   0  0  0  0  0  0  0  0  0  0  0  0
   20.6827  -20.5958  -14.3418 C   0  0  0  0  0  0  0  0  0  0  0  0
   21.0579  -20.0014  -15.3939 O   0  0  0  0  0  0  0  0  0  0  0  0
   19.2544  -19.8394  -10.8353 C   0  0  0  0  0  0  0  0  0  0  0  0
   17.9357  -19.5153  -10.5632 C   0  0  0  0  0  0  0  0  0  0  0  0
   19.4312  -21.2120  -14.4240 O   0  0  0  0  0  0  0  0  0  0  0  0
  2  1  1  0
  3  2  1  0
  4  5  1  0
  4  3  1  0
  5  6  1  6
  7  8  2  0
  7  5  1  0
  9  7  1  0
 10  9  1  0
 10 11  1  6
 12 13  2  0
 12 11  1  0
 14 24  1  0
 14 10  1  0
 15 14  2  0
 16 12  1  0
 18 19  2  0
 18 17  1  0
 20 19  1  0
 21 20  2  0
 22 21  1  0
 23 22  1  6
 23 24  1  0
 25 23  1  0
 26 25  2  0
 27 21  1  0
 27 28  2  0
 28 18  1  0
 29 25  1  0
M  END
$$$$
