MDY.pdb
     RDKit          3D

 29 29  0  0  1  0  0  0  0  0999 V2000
   19.3592  -15.4608  -15.7448 C   0  0  0  0  0  0  0  0  0  0  0  0
   17.6092  -15.4121  -15.4751 S   0  0  0  0  0  0  0  0  0  0  0  0
   16.6683  -14.1367  -16.2339 C   0  0  0  0  0  0  0  0  0  0  0  0
   17.3063  -12.8182  -16.4094 C   0  0  0  0  0  0  0  0  0  0  0  0
   16.4897  -11.6527  -16.0403 C   0  0  2  0  0  0  0  0  0  0  0  0
   15.2202  -11.5355  -16.6998 N   0  0  0  0  0  0  0  0  0  0  0  0
   17.2590  -10.3596  -16.1467 C   0  0  0  0  0  0  0  0  0  0  0  0
   17.9918  -10.2217  -17.1512 O   0  0  0  0  0  0  0  0  0  0  0  0
   17.1809   -9.3463  -15.1922 N   0  0  0  0  0  0  0  0  0  0  0  0
   17.9698   -8.0926  -15.2649 C   0  0  1  0  0  0  0  0  0  0  0  0
   17.2605   -7.1561  -14.3190 C   0  0  0  0  0  0  0  0  0  0  0  0
   15.9555   -6.7408  -14.7842 C   0  0  0  0  0  0  0  0  0  0  0  0
   15.6886   -6.5464  -15.9797 O   0  0  0  0  0  0  0  0  0  0  0  0
   19.3689   -8.3925  -14.8796 C   0  0  0  0  0  0  0  0  0  0  0  0
   19.6506   -9.4470  -14.2795 O   0  0  0  0  0  0  0  0  0  0  0  0
   14.9220   -6.5397  -13.8682 O   0  0  0  0  0  0  0  0  0  0  0  0
   27.4929  -10.8886  -15.6075 O   0  0  0  0  0  0  0  0  0  0  0  0
   26.1738  -10.4575  -15.6674 C   0  0  0  0  0  0  0  0  0  0  0  0
   25.3194  -10.7881  -14.6628 C   0  0  0  0  0  0  0  0  0  0  0  0
   23.9872  -10.3611  -14.7085 C   0  0  0  0  0  0  0  0  0  0  0  0
   23.5162   -9.6063  -15.7577 C   0  0  0  0  0  0  0  0  0  0  0  0
   22.1142   -9.1841  -15.7577 C   0  0  0  0  0  0  0  0  0  0  0  0
   21.8475   -7.8787  -15.0509 C   0  0  2  0  0  0  0  0  0  0  0  0
   20.4577   -7.5004  -15.1715 N   0  0  0  0  0  0  0  0  0  0  0  0
   22.7101   -6.7731  -15.4575 C   0  0  0  0  0  0  0  0  0  0  0  0
   23.8469   -6.5652  -14.9421 O   0  0  0  0  0  0  0  0  0  0  0  0
   24.3783   -9.2691  -16.7775 C   0  0  0  0  0  0  0  0  0  0  0  0
   25.6927   -9.7009  -16.7143 C   0  0  0  0  0  0  0  0  0  0  0  0
   22.3350   -5.8641  -16.4504 O   0  0  0  0  0  0  0  0  0  0  0  0
  2  1  1  0
  3  2  1  0
  4  5  1  0
  4  3  1  0
  5  6  1  6
  7  8  2  0
  7  5  1  0
  9  7  1  0
 10  9  1  0
 10 11  1  1
 12 13  2  0
 12 11  1  0
 14 24  1  0
 14 10  1  0
 15 14  2  0
 16 12  1  0
 18 19  2  0
 18 17  1  0
 20 19  1  0
 21 20  2  0
 22 21  1  0
 23 22  1  6
 23 24  1  0
 25 23  1  0
 26 25  2  0
 27 21  1  0
 27 28  2  0
 28 18  1  0
 29 25  1  0
M  END
$$$$
