MDY.pdb
     RDKit          3D

 29 29  0  0  1  0  0  0  0  0999 V2000
   25.1827  -16.0678  -16.8992 C   0  0  0  0  0  0  0  0  0  0  0  0
   25.9416  -14.8646  -17.9547 S   0  0  0  0  0  0  0  0  0  0  0  0
   25.8822  -13.1707  -17.4916 C   0  0  0  0  0  0  0  0  0  0  0  0
   26.4993  -12.1842  -18.3986 C   0  0  0  0  0  0  0  0  0  0  0  0
   26.3203  -10.7716  -18.0324 C   0  0  2  0  0  0  0  0  0  0  0  0
   24.9705  -10.3468  -17.7918 N   0  0  0  0  0  0  0  0  0  0  0  0
   26.9999   -9.8393  -19.0041 C   0  0  0  0  0  0  0  0  0  0  0  0
   28.2085  -10.0579  -19.2423 O   0  0  0  0  0  0  0  0  0  0  0  0
   26.3445   -8.7769  -19.6251 N   0  0  0  0  0  0  0  0  0  0  0  0
   26.9813   -7.9070  -20.6436 C   0  0  1  0  0  0  0  0  0  0  0  0
   25.8216   -7.2059  -21.3058 C   0  0  0  0  0  0  0  0  0  0  0  0
   25.3479   -7.8702  -22.4999 C   0  0  0  0  0  0  0  0  0  0  0  0
   26.0814   -8.5381  -23.2444 O   0  0  0  0  0  0  0  0  0  0  0  0
   27.9266   -6.9935  -19.9594 C   0  0  0  0  0  0  0  0  0  0  0  0
   27.5938   -6.3996  -18.9162 O   0  0  0  0  0  0  0  0  0  0  0  0
   24.0034   -7.7753  -22.8619 O   0  0  0  0  0  0  0  0  0  0  0  0
   30.4624  -11.5813  -16.7020 O   0  0  0  0  0  0  0  0  0  0  0  0
   30.7023  -10.3732  -17.3442 C   0  0  0  0  0  0  0  0  0  0  0  0
   30.9788  -10.3707  -18.6754 C   0  0  0  0  0  0  0  0  0  0  0  0
   31.2226   -9.1615  -19.3369 C   0  0  0  0  0  0  0  0  0  0  0  0
   31.1888   -7.9617  -18.6646 C   0  0  0  0  0  0  0  0  0  0  0  0
   31.4502   -6.7246  -19.4030 C   0  0  0  0  0  0  0  0  0  0  0  0
   30.2195   -5.9270  -19.7550 C   0  0  2  0  0  0  0  0  0  0  0  0
   29.2543   -6.7468  -20.4519 N   0  0  0  0  0  0  0  0  0  0  0  0
   30.4765   -4.7004  -20.5042 C   0  0  0  0  0  0  0  0  0  0  0  0
   29.9622   -4.4684  -21.6368 O   0  0  0  0  0  0  0  0  0  0  0  0
   30.9090   -7.9598  -17.3161 C   0  0  0  0  0  0  0  0  0  0  0  0
   30.6705   -9.1662  -16.6793 C   0  0  0  0  0  0  0  0  0  0  0  0
   31.3137   -3.6933  -20.0166 O   0  0  0  0  0  0  0  0  0  0  0  0
  2  1  1  0
  3  2  1  0
  4  5  1  0
  4  3  1  0
  5  6  1  6
  7  8  2  0
  7  5  1  0
  9  7  1  0
 10  9  1  0
 10 11  1  1
 12 13  2  0
 12 11  1  0
 14 24  1  0
 14 10  1  0
 15 14  2  0
 16 12  1  0
 18 19  2  0
 18 17  1  0
 20 19  1  0
 21 20  2  0
 22 21  1  0
 23 22  1  6
 23 24  1  0
 25 23  1  0
 26 25  2  0
 27 21  1  0
 27 28  2  0
 28 18  1  0
 29 25  1  0
M  END
$$$$
