MDY.pdb
     RDKit          3D

 29 29  0  0  1  0  0  0  0  0999 V2000
   11.2578   -9.1606  -11.2902 C   0  0  0  0  0  0  0  0  0  0  0  0
   11.0180  -10.8794  -10.9353 S   0  0  0  0  0  0  0  0  0  0  0  0
   11.8123  -12.0747  -11.9491 C   0  0  0  0  0  0  0  0  0  0  0  0
   13.0518  -11.6777  -12.6438 C   0  0  0  0  0  0  0  0  0  0  0  0
   13.5727  -12.6353  -13.6304 C   0  0  2  0  0  0  0  0  0  0  0  0
   13.7649  -13.9799  -13.1663 N   0  0  0  0  0  0  0  0  0  0  0  0
   14.8199  -12.1309  -14.3125 C   0  0  0  0  0  0  0  0  0  0  0  0
   15.9046  -12.6361  -13.9473 O   0  0  0  0  0  0  0  0  0  0  0  0
   14.8021  -11.1519  -15.3051 N   0  0  0  0  0  0  0  0  0  0  0  0
   16.0120  -10.7134  -16.0422 C   0  0  1  0  0  0  0  0  0  0  0  0
   15.4936  -10.3304  -17.4058 C   0  0  0  0  0  0  0  0  0  0  0  0
   15.1870  -11.4646  -18.2491 C   0  0  0  0  0  0  0  0  0  0  0  0
   16.0436  -12.2678  -18.6484 O   0  0  0  0  0  0  0  0  0  0  0  0
   16.6375   -9.5942  -15.2991 C   0  0  0  0  0  0  0  0  0  0  0  0
   15.9356   -8.7678  -14.6858 O   0  0  0  0  0  0  0  0  0  0  0  0
   13.8711  -11.6962  -18.6523 O   0  0  0  0  0  0  0  0  0  0  0  0
   22.9880   -3.5385  -13.7940 O   0  0  0  0  0  0  0  0  0  0  0  0
   22.2966   -4.7273  -13.9891 C   0  0  0  0  0  0  0  0  0  0  0  0
   22.0342   -5.1442  -15.2564 C   0  0  0  0  0  0  0  0  0  0  0  0
   21.3388   -6.3401  -15.4695 C   0  0  0  0  0  0  0  0  0  0  0  0
   20.9095   -7.1126  -14.4152 C   0  0  0  0  0  0  0  0  0  0  0  0
   20.1867   -8.3556  -14.6918 C   0  0  0  0  0  0  0  0  0  0  0  0
   18.6839   -8.2287  -14.6790 C   0  0  2  0  0  0  0  0  0  0  0  0
   18.0613   -9.4038  -15.2455 N   0  0  0  0  0  0  0  0  0  0  0  0
   18.1641   -7.0229  -15.3177 C   0  0  0  0  0  0  0  0  0  0  0  0
   17.9485   -6.9449  -16.5620 O   0  0  0  0  0  0  0  0  0  0  0  0
   21.1732   -6.6940  -13.1299 C   0  0  0  0  0  0  0  0  0  0  0  0
   21.8626   -5.5081  -12.9394 C   0  0  0  0  0  0  0  0  0  0  0  0
   17.8680   -5.8662  -14.5917 O   0  0  0  0  0  0  0  0  0  0  0  0
  2  1  1  0
  3  2  1  0
  4  5  1  0
  4  3  1  0
  5  6  1  1
  7  8  2  0
  7  5  1  0
  9  7  1  0
 10  9  1  0
 10 11  1  6
 12 13  2  0
 12 11  1  0
 14 24  1  0
 14 10  1  0
 15 14  2  0
 16 12  1  0
 18 19  2  0
 18 17  1  0
 20 19  1  0
 21 20  2  0
 22 21  1  0
 23 22  1  6
 23 24  1  0
 25 23  1  0
 26 25  2  0
 27 21  1  0
 27 28  2  0
 28 18  1  0
 29 25  1  0
M  END
$$$$
