MDY.pdb
     RDKit          3D

 29 29  0  0  1  0  0  0  0  0999 V2000
   31.4139  -18.6455  -20.4946 C   0  0  0  0  0  0  0  0  0  0  0  0
   29.7364  -18.5517  -19.9334 S   0  0  0  0  0  0  0  0  0  0  0  0
   29.1588  -17.0483  -19.2308 C   0  0  0  0  0  0  0  0  0  0  0  0
   27.7478  -16.9816  -18.8050 C   0  0  0  0  0  0  0  0  0  0  0  0
   27.3049  -18.0308  -17.8751 C   0  0  2  0  0  0  0  0  0  0  0  0
   27.5286  -19.3847  -18.2963 N   0  0  0  0  0  0  0  0  0  0  0  0
   25.8715  -17.8439  -17.4441 C   0  0  0  0  0  0  0  0  0  0  0  0
   25.5490  -16.7044  -17.0408 O   0  0  0  0  0  0  0  0  0  0  0  0
   24.9258  -18.8677  -17.4807 N   0  0  0  0  0  0  0  0  0  0  0  0
   23.5223  -18.7001  -17.0317 C   0  0  1  0  0  0  0  0  0  0  0  0
   22.7013  -19.1485  -18.2148 C   0  0  0  0  0  0  0  0  0  0  0  0
   21.2769  -19.1519  -17.9642 C   0  0  0  0  0  0  0  0  0  0  0  0
   20.6612  -18.1715  -17.5192 O   0  0  0  0  0  0  0  0  0  0  0  0
   23.3166  -19.5158  -15.8117 C   0  0  0  0  0  0  0  0  0  0  0  0
   23.7434  -20.6844  -15.7493 O   0  0  0  0  0  0  0  0  0  0  0  0
   20.5274  -20.2999  -18.2252 O   0  0  0  0  0  0  0  0  0  0  0  0
   21.9377  -21.8504   -7.3940 O   0  0  0  0  0  0  0  0  0  0  0  0
   22.1149  -21.1541   -8.5827 C   0  0  0  0  0  0  0  0  0  0  0  0
   23.3445  -21.1291   -9.1623 C   0  0  0  0  0  0  0  0  0  0  0  0
   23.5391  -20.4320  -10.3604 C   0  0  0  0  0  0  0  0  0  0  0  0
   22.5040  -19.7637  -10.9725 C   0  0  0  0  0  0  0  0  0  0  0  0
   22.7597  -19.0502  -12.2252 C   0  0  0  0  0  0  0  0  0  0  0  0
   22.3781  -19.8071  -13.4727 C   0  0  2  0  0  0  0  0  0  0  0  0
   22.6266  -19.0136  -14.6550 N   0  0  0  0  0  0  0  0  0  0  0  0
   21.0110  -20.3200  -13.4855 C   0  0  0  0  0  0  0  0  0  0  0  0
   20.0287  -19.6423  -13.9061 O   0  0  0  0  0  0  0  0  0  0  0  0
   21.2568  -19.7865  -10.3888 C   0  0  0  0  0  0  0  0  0  0  0  0
   21.0841  -20.4817   -9.2035 C   0  0  0  0  0  0  0  0  0  0  0  0
   20.6942  -21.6028  -13.0310 O   0  0  0  0  0  0  0  0  0  0  0  0
  2  1  1  0
  3  2  1  0
  4  5  1  0
  4  3  1  0
  5  6  1  6
  7  8  2  0
  7  5  1  0
  9  7  1  0
 10  9  1  0
 10 11  1  6
 12 13  2  0
 12 11  1  0
 14 24  1  0
 14 10  1  0
 15 14  2  0
 16 12  1  0
 18 19  2  0
 18 17  1  0
 20 19  1  0
 21 20  2  0
 22 21  1  0
 23 22  1  1
 23 24  1  0
 25 23  1  0
 26 25  2  0
 27 21  1  0
 27 28  2  0
 28 18  1  0
 29 25  1  0
M  END
$$$$
