MDY.pdb
     RDKit          3D

 29 29  0  0  1  0  0  0  0  0999 V2000
   33.0099  -22.2424  -20.4609 C   0  0  0  0  0  0  0  0  0  0  0  0
   32.9899  -23.9306  -19.9250 S   0  0  0  0  0  0  0  0  0  0  0  0
   31.7987  -24.4294  -18.7335 C   0  0  0  0  0  0  0  0  0  0  0  0
   30.6479  -23.5384  -18.4919 C   0  0  0  0  0  0  0  0  0  0  0  0
   29.7543  -23.9242  -17.3901 C   0  0  2  0  0  0  0  0  0  0  0  0
   29.8255  -25.2944  -16.9682 N   0  0  0  0  0  0  0  0  0  0  0  0
   28.3224  -23.5278  -17.6506 C   0  0  0  0  0  0  0  0  0  0  0  0
   27.6486  -24.2951  -18.3734 O   0  0  0  0  0  0  0  0  0  0  0  0
   27.7452  -22.3714  -17.1277 N   0  0  0  0  0  0  0  0  0  0  0  0
   26.3280  -22.2874  -16.6990 C   0  0  1  0  0  0  0  0  0  0  0  0
   26.1850  -23.3919  -15.6819 C   0  0  0  0  0  0  0  0  0  0  0  0
   24.8485  -23.5141  -15.1427 C   0  0  0  0  0  0  0  0  0  0  0  0
   23.8230  -23.3793  -15.8271 O   0  0  0  0  0  0  0  0  0  0  0  0
   26.0791  -20.9315  -16.1550 C   0  0  0  0  0  0  0  0  0  0  0  0
   24.9317  -20.5829  -15.8181 O   0  0  0  0  0  0  0  0  0  0  0  0
   24.6681  -23.7975  -13.7882 O   0  0  0  0  0  0  0  0  0  0  0  0
   25.5868  -21.3879   -9.9261 O   0  0  0  0  0  0  0  0  0  0  0  0
   26.0942  -20.6516  -10.9892 C   0  0  0  0  0  0  0  0  0  0  0  0
   25.4107  -19.5622  -11.4303 C   0  0  0  0  0  0  0  0  0  0  0  0
   25.9091  -18.8099  -12.5003 C   0  0  0  0  0  0  0  0  0  0  0  0
   27.0873  -19.1504  -13.1235 C   0  0  0  0  0  0  0  0  0  0  0  0
   27.5658  -18.3301  -14.2380 C   0  0  0  0  0  0  0  0  0  0  0  0
   26.8906  -18.6029  -15.5587 C   0  0  2  0  0  0  0  0  0  0  0  0
   27.1276  -19.9623  -15.9891 N   0  0  0  0  0  0  0  0  0  0  0  0
   27.2307  -17.6673  -16.6269 C   0  0  0  0  0  0  0  0  0  0  0  0
   27.0815  -16.4158  -16.5152 O   0  0  0  0  0  0  0  0  0  0  0  0
   27.7827  -20.2532  -12.6798 C   0  0  0  0  0  0  0  0  0  0  0  0
   27.2736  -20.9849  -11.6198 C   0  0  0  0  0  0  0  0  0  0  0  0
   27.7475  -18.0949  -17.8528 O   0  0  0  0  0  0  0  0  0  0  0  0
  2  1  1  0
  3  2  1  0
  4  5  1  0
  4  3  1  0
  5  6  1  6
  7  8  2  0
  7  5  1  0
  9  7  1  0
 10  9  1  0
 10 11  1  1
 12 13  2  0
 12 11  1  0
 14 24  1  0
 14 10  1  0
 15 14  2  0
 16 12  1  0
 18 19  2  0
 18 17  1  0
 20 19  1  0
 21 20  2  0
 22 21  1  0
 23 22  1  1
 23 24  1  0
 25 23  1  0
 26 25  2  0
 27 21  1  0
 27 28  2  0
 28 18  1  0
 29 25  1  0
M  END
$$$$
